RDA.pdb
     RDKit          3D

 25 24  0  0  1  0  0  0  0  0999 V2000
   20.6796  -13.7843  -15.5041 N   0  0  0  0  0  0  0  0  0  0  0  0
   20.2618  -13.6754  -16.8560 C   0  0  0  0  0  0  0  0  0  0  0  0
   21.0943  -14.0700  -17.7880 N   0  0  0  0  0  0  0  0  0  0  0  0
   18.9836  -13.1533  -17.1928 N   0  0  0  0  0  0  0  0  0  0  0  0
   18.0852  -12.6574  -16.1709 C   0  0  0  0  0  0  0  0  0  0  0  0
   17.3615  -11.4170  -16.5984 C   0  0  0  0  0  0  0  0  0  0  0  0
   16.4658  -10.9257  -15.5113 C   0  0  0  0  0  0  0  0  0  0  0  0
   15.6941   -9.7202  -15.9216 C   0  0  2  0  0  0  0  0  0  0  0  0
   14.9562  -10.0358  -17.1266 N   0  0  0  0  0  0  0  0  0  0  0  0
   16.6074   -8.5748  -16.2492 C   0  0  0  0  0  0  0  0  0  0  0  0
   17.0973   -8.4751  -17.3982 O   0  0  0  0  0  0  0  0  0  0  0  0
   20.8207  -14.0584  -18.7941 N   0  0  0  0  0  0  0  0  0  0  0  0
   16.9425   -7.5870  -15.2927 C   0  0  1  0  0  0  0  0  0  0  0  0
   17.8436   -6.4907  -15.5434 C   0  0  0  0  0  0  0  0  0  0  0  0
   17.1133   -5.1989  -15.1703 C   0  0  0  0  0  0  0  0  0  0  0  0
   17.9828   -4.0396  -15.4841 O   0  0  0  0  0  0  0  0  0  0  0  0
   18.2907   -3.8337  -16.6893 C   0  0  0  0  0  0  0  0  0  0  0  0
   19.0718   -6.6482  -14.7403 O   0  0  0  0  0  0  0  0  0  0  0  0
   19.0277   -6.9849  -13.5074 O   0  0  0  0  0  0  0  0  0  0  0  0
   18.4853   -3.1591  -14.5282 C   0  0  0  0  0  0  0  0  0  0  0  0
   22.7681   -6.7839  -15.3618 C   0  0  1  0  0  0  0  0  0  0  0  0
   21.5491   -6.6462  -14.4501 N   0  0  0  0  0  0  0  0  0  0  0  0
   20.3669   -6.4379  -15.2817 C   0  0  0  0  0  0  0  0  0  0  0  0
   21.7561   -5.4419  -13.6158 O   0  0  0  0  0  0  0  0  0  0  0  0
   22.3761   -5.5035  -12.3690 O   0  0  0  0  0  0  0  0  0  0  0  0
  2  3  2  0
  2  1  1  0
  4  2  1  0
  5  4  1  0
  6  5  1  0
  7  6  1  0
  8  7  1  0
  8 10  1  0
  8  9  1  6
 10 12  1  0
 11 10  2  0
 12 13  1  0
 13 14  1  1
 14 15  1  0
 15 19  1  0
 16 15  2  0
 17 13  1  0
 17 18  2  0
 21 20  1  6
 21 22  1  0
 21 23  1  0
 22 17  1  0
 23 25  2  0
 23 24  1  0
M  END
$$$$
