AHE.pdb
     RDKit          3D

 25 25  0  0  1  0  0  0  0  0999 V2000
   20.0263  -11.7091  -19.6189 C   0  0  0  0  0  0  0  0  0  0  0  0
   21.1211  -10.7995  -19.0789 C   0  0  2  0  0  0  0  0  0  0  0  0
   22.1638  -11.5577  -18.4228 N   0  0  0  0  0  0  0  0  0  0  0  0
   20.4797   -9.9114  -18.0676 C   0  0  0  0  0  0  0  0  0  0  0  0
   19.5269   -9.1676  -18.4561 O   0  0  0  0  0  0  0  0  0  0  0  0
   20.9168   -9.8968  -16.7209 N   0  0  0  0  0  0  0  0  0  0  0  0
   20.1304   -9.0467  -15.7883 C   0  0  1  0  0  0  0  0  0  0  0  0
   19.7128   -9.9193  -14.6328 C   0  0  0  0  0  0  0  0  0  0  0  0
   18.5483  -10.7756  -14.8524 C   0  0  0  0  0  0  0  0  0  0  0  0
   18.5375  -12.1227  -15.0983 C   0  0  0  0  0  0  0  0  0  0  0  0
   17.2638  -12.4994  -15.2753 N   0  0  0  0  0  0  0  0  0  0  0  0
   16.4750  -11.4185  -15.1458 C   0  0  0  0  0  0  0  0  0  0  0  0
   17.2493  -10.3717  -14.8895 N   0  0  0  0  0  0  0  0  0  0  0  0
   21.0181   -7.9373  -15.4010 C   0  0  0  0  0  0  0  0  0  0  0  0
   22.2091   -8.1630  -14.9756 O   0  0  0  0  0  0  0  0  0  0  0  0
   20.6418   -6.5744  -15.4730 N   0  0  0  0  0  0  0  0  0  0  0  0
   21.6469   -5.5544  -15.0820 C   0  0  1  0  0  0  0  0  0  0  0  0
   21.0889   -4.1902  -15.5336 C   0  0  0  0  0  0  0  0  0  0  0  0
   22.0436   -3.1231  -15.1003 C   0  0  0  0  0  0  0  0  0  0  0  0
   21.4776   -1.7819  -15.4543 C   0  0  0  0  0  0  0  0  0  0  0  0
   21.2358   -0.9853  -14.5420 O   0  0  0  0  0  0  0  0  0  0  0  0
   21.7291   -5.5318  -13.6231 C   0  0  0  0  0  0  0  0  0  0  0  0
   22.6979   -5.0824  -12.9464 O   0  0  0  0  0  0  0  0  0  0  0  0
   21.2486   -1.4877  -16.7779 O   0  0  0  0  0  0  0  0  0  0  0  0
   20.6537   -6.0442  -12.8893 O   0  0  0  0  0  0  0  0  0  0  0  0
  2  1  1  1
  2  4  1  0
  3  2  1  0
  4  5  2  0
  6  7  1  0
  6  4  1  0
  7  8  1  1
  9  8  1  0
 10  9  2  0
 11 12  1  0
 11 10  1  0
 12 13  2  0
 13  9  1  0
 14  7  1  0
 14 15  2  0
 16 14  1  0
 17 16  1  0
 17 22  1  0
 17 18  1  1
 19 20  1  0
 19 18  1  0
 20 24  1  0
 20 21  2  0
 22 23  2  0
 22 25  1  0
M  END
$$$$
