AHE.pdb
     RDKit          3D

 25 25  0  0  1  0  0  0  0  0999 V2000
   18.6323  -12.1356  -19.5633 C   0  0  0  0  0  0  0  0  0  0  0  0
   19.9616  -11.7968  -18.9033 C   0  0  2  0  0  0  0  0  0  0  0  0
   20.5868  -12.9722  -18.3377 N   0  0  0  0  0  0  0  0  0  0  0  0
   19.6593  -10.8468  -17.7948 C   0  0  0  0  0  0  0  0  0  0  0  0
   18.6526  -11.0965  -17.0625 O   0  0  0  0  0  0  0  0  0  0  0  0
   20.4657   -9.7057  -17.5654 N   0  0  0  0  0  0  0  0  0  0  0  0
   20.0780   -8.8536  -16.4103 C   0  0  1  0  0  0  0  0  0  0  0  0
   20.7152   -9.4496  -15.1817 C   0  0  0  0  0  0  0  0  0  0  0  0
   22.1610   -9.6598  -15.2362 C   0  0  0  0  0  0  0  0  0  0  0  0
   22.9894   -9.4875  -16.3130 C   0  0  0  0  0  0  0  0  0  0  0  0
   24.2302   -9.8263  -15.9371 N   0  0  0  0  0  0  0  0  0  0  0  0
   24.1989  -10.2074  -14.6482 C   0  0  0  0  0  0  0  0  0  0  0  0
   22.9469  -10.1081  -14.2196 N   0  0  0  0  0  0  0  0  0  0  0  0
   20.5565   -7.4969  -16.7257 C   0  0  0  0  0  0  0  0  0  0  0  0
   21.5127   -7.3128  -17.5637 O   0  0  0  0  0  0  0  0  0  0  0  0
   20.0102   -6.3233  -16.1527 N   0  0  0  0  0  0  0  0  0  0  0  0
   20.4881   -5.0137  -16.6627 C   0  0  1  0  0  0  0  0  0  0  0  0
   19.4325   -4.5225  -17.6731 C   0  0  0  0  0  0  0  0  0  0  0  0
   19.8395   -3.1676  -18.1595 C   0  0  0  0  0  0  0  0  0  0  0  0
   19.1536   -2.8846  -19.4610 C   0  0  0  0  0  0  0  0  0  0  0  0
   18.9885   -3.8165  -20.2544 O   0  0  0  0  0  0  0  0  0  0  0  0
   20.5003   -4.0679  -15.5487 C   0  0  0  0  0  0  0  0  0  0  0  0
   19.7456   -4.1129  -14.5354 O   0  0  0  0  0  0  0  0  0  0  0  0
   18.7344   -1.6016  -19.7238 O   0  0  0  0  0  0  0  0  0  0  0  0
   21.4196   -3.0138  -15.5826 O   0  0  0  0  0  0  0  0  0  0  0  0
  2  1  1  1
  2  4  1  0
  3  2  1  0
  4  5  2  0
  6  7  1  0
  6  4  1  0
  7  8  1  1
  9  8  1  0
 10  9  2  0
 11 12  1  0
 11 10  1  0
 12 13  2  0
 13  9  1  0
 14  7  1  0
 14 15  2  0
 16 14  1  0
 17 16  1  0
 17 22  1  0
 17 18  1  6
 19 20  1  0
 19 18  1  0
 20 24  1  0
 20 21  2  0
 22 23  2  0
 22 25  1  0
M  END
$$$$
