AHE.pdb
     RDKit          3D

 25 25  0  0  1  0  0  0  0  0999 V2000
   26.2465  -13.6109  -14.9496 C   0  0  0  0  0  0  0  0  0  0  0  0
   25.2058  -14.5853  -15.4834 C   0  0  2  0  0  0  0  0  0  0  0  0
   25.7628  -15.4508  -16.4998 N   0  0  0  0  0  0  0  0  0  0  0  0
   24.1291  -13.7631  -16.1059 C   0  0  0  0  0  0  0  0  0  0  0  0
   24.3554  -13.2656  -17.2519 O   0  0  0  0  0  0  0  0  0  0  0  0
   22.8970  -13.5440  -15.4436 N   0  0  0  0  0  0  0  0  0  0  0  0
   21.8881  -12.7452  -16.1885 C   0  0  1  0  0  0  0  0  0  0  0  0
   20.7364  -13.6638  -16.5054 C   0  0  0  0  0  0  0  0  0  0  0  0
   20.9695  -14.6635  -17.5465 C   0  0  0  0  0  0  0  0  0  0  0  0
   21.0371  -16.0232  -17.3976 C   0  0  0  0  0  0  0  0  0  0  0  0
   21.3030  -16.5567  -18.5977 N   0  0  0  0  0  0  0  0  0  0  0  0
   21.4038  -15.5619  -19.4965 C   0  0  0  0  0  0  0  0  0  0  0  0
   21.2024  -14.4130  -18.8636 N   0  0  0  0  0  0  0  0  0  0  0  0
   21.5244  -11.6232  -15.3066 C   0  0  0  0  0  0  0  0  0  0  0  0
   21.3195  -11.8097  -14.0522 O   0  0  0  0  0  0  0  0  0  0  0  0
   21.3844  -10.2887  -15.7580 N   0  0  0  0  0  0  0  0  0  0  0  0
   21.1196   -9.2367  -14.7448 C   0  0  1  0  0  0  0  0  0  0  0  0
   21.9279   -7.9966  -15.1757 C   0  0  0  0  0  0  0  0  0  0  0  0
   21.6613   -6.8965  -14.1976 C   0  0  0  0  0  0  0  0  0  0  0  0
   22.4919   -5.7033  -14.5594 C   0  0  0  0  0  0  0  0  0  0  0  0
   22.8918   -4.9671  -13.6520 O   0  0  0  0  0  0  0  0  0  0  0  0
   19.7038   -8.8818  -14.8158 C   0  0  0  0  0  0  0  0  0  0  0  0
   18.9672   -8.9899  -15.8377 O   0  0  0  0  0  0  0  0  0  0  0  0
   22.7778   -5.4722  -15.8845 O   0  0  0  0  0  0  0  0  0  0  0  0
   19.0867   -8.3789  -13.6652 O   0  0  0  0  0  0  0  0  0  0  0  0
  2  1  1  6
  2  4  1  0
  3  2  1  0
  4  5  2  0
  6  7  1  0
  6  4  1  0
  7  8  1  1
  9  8  1  0
 10  9  2  0
 11 12  1  0
 11 10  1  0
 12 13  2  0
 13  9  1  0
 14  7  1  0
 14 15  2  0
 16 14  1  0
 17 16  1  0
 17 22  1  0
 17 18  1  6
 19 20  1  0
 19 18  1  0
 20 24  1  0
 20 21  2  0
 22 23  2  0
 22 25  1  0
M  END
$$$$
