AHE.pdb
     RDKit          3D

 25 25  0  0  1  0  0  0  0  0999 V2000
   20.6120  -12.9117  -19.6207 C   0  0  0  0  0  0  0  0  0  0  0  0
   21.8641  -13.6011  -19.0967 C   0  0  2  0  0  0  0  0  0  0  0  0
   21.5969  -14.9730  -18.7245 N   0  0  0  0  0  0  0  0  0  0  0  0
   22.2832  -12.8565  -17.8749 C   0  0  0  0  0  0  0  0  0  0  0  0
   21.6939  -13.1334  -16.7848 O   0  0  0  0  0  0  0  0  0  0  0  0
   23.3023  -11.8750  -17.9267 N   0  0  0  0  0  0  0  0  0  0  0  0
   23.7075  -11.2849  -16.6235 C   0  0  1  0  0  0  0  0  0  0  0  0
   25.2091  -11.3790  -16.5381 C   0  0  0  0  0  0  0  0  0  0  0  0
   25.7625  -12.7024  -16.2560 C   0  0  0  0  0  0  0  0  0  0  0  0
   26.5772  -13.4550  -17.0594 C   0  0  0  0  0  0  0  0  0  0  0  0
   26.8177  -14.6145  -16.4324 N   0  0  0  0  0  0  0  0  0  0  0  0
   26.1720  -14.6064  -15.2532 C   0  0  0  0  0  0  0  0  0  0  0  0
   25.5313  -13.4496  -15.1423 N   0  0  0  0  0  0  0  0  0  0  0  0
   23.2009   -9.9020  -16.6270 C   0  0  0  0  0  0  0  0  0  0  0  0
   23.4264   -9.1192  -17.6204 O   0  0  0  0  0  0  0  0  0  0  0  0
   22.4407   -9.3462  -15.5699 N   0  0  0  0  0  0  0  0  0  0  0  0
   22.0314   -7.9237  -15.6817 C   0  0  1  0  0  0  0  0  0  0  0  0
   20.7582   -7.8985  -16.5506 C   0  0  0  0  0  0  0  0  0  0  0  0
   19.7579   -8.8342  -15.9491 C   0  0  0  0  0  0  0  0  0  0  0  0
   18.4984   -8.7966  -16.7595 C   0  0  0  0  0  0  0  0  0  0  0  0
   18.2761   -7.8016  -17.4565 O   0  0  0  0  0  0  0  0  0  0  0  0
   21.6609   -7.4503  -14.3497 C   0  0  0  0  0  0  0  0  0  0  0  0
   21.5879   -8.1630  -13.3080 O   0  0  0  0  0  0  0  0  0  0  0  0
   17.6385   -9.8679  -16.6978 O   0  0  0  0  0  0  0  0  0  0  0  0
   21.3583   -6.0939  -14.1873 O   0  0  0  0  0  0  0  0  0  0  0  0
  2  1  1  1
  2  4  1  0
  3  2  1  0
  4  5  2  0
  6  7  1  0
  6  4  1  0
  7  8  1  6
  9  8  1  0
 10  9  2  0
 11 12  1  0
 11 10  1  0
 12 13  2  0
 13  9  1  0
 14  7  1  0
 14 15  2  0
 16 14  1  0
 17 16  1  0
 17 22  1  0
 17 18  1  6
 19 20  1  0
 19 18  1  0
 20 24  1  0
 20 21  2  0
 22 23  2  0
 22 25  1  0
M  END
$$$$
