AHE.pdb
     RDKit          3D

 25 25  0  0  1  0  0  0  0  0999 V2000
   22.8190  -12.7229  -16.1263 C   0  0  0  0  0  0  0  0  0  0  0  0
   24.2912  -13.0105  -16.3861 C   0  0  2  0  0  0  0  0  0  0  0  0
   24.7124  -12.4967  -17.6710 N   0  0  0  0  0  0  0  0  0  0  0  0
   24.4413  -14.4938  -16.4018 C   0  0  0  0  0  0  0  0  0  0  0  0
   23.8853  -15.1325  -17.3478 O   0  0  0  0  0  0  0  0  0  0  0  0
   25.1779  -15.1678  -15.3978 N   0  0  0  0  0  0  0  0  0  0  0  0
   25.3651  -16.6295  -15.5955 C   0  0  1  0  0  0  0  0  0  0  0  0
   26.6393  -17.0160  -14.8900 C   0  0  0  0  0  0  0  0  0  0  0  0
   26.9916  -18.4348  -14.9149 C   0  0  0  0  0  0  0  0  0  0  0  0
   27.6268  -19.1195  -15.9164 C   0  0  0  0  0  0  0  0  0  0  0  0
   27.7173  -20.4038  -15.5449 N   0  0  0  0  0  0  0  0  0  0  0  0
   27.1529  -20.5402  -14.3323 C   0  0  0  0  0  0  0  0  0  0  0  0
   26.7118  -19.3494  -13.9469 N   0  0  0  0  0  0  0  0  0  0  0  0
   24.1627  -17.2734  -15.0398 C   0  0  0  0  0  0  0  0  0  0  0  0
   23.5583  -16.7751  -14.0217 O   0  0  0  0  0  0  0  0  0  0  0  0
   23.5911  -18.4531  -15.5743 N   0  0  0  0  0  0  0  0  0  0  0  0
   22.3765  -18.9965  -14.9162 C   0  0  1  0  0  0  0  0  0  0  0  0
   21.1825  -18.1837  -15.4549 C   0  0  0  0  0  0  0  0  0  0  0  0
   19.9239  -18.7660  -14.8937 C   0  0  0  0  0  0  0  0  0  0  0  0
   18.8045  -18.5494  -15.8656 C   0  0  0  0  0  0  0  0  0  0  0  0
   17.6968  -19.0292  -15.6045 O   0  0  0  0  0  0  0  0  0  0  0  0
   22.1991  -20.3784  -15.3571 C   0  0  0  0  0  0  0  0  0  0  0  0
   22.5788  -20.8529  -16.4657 O   0  0  0  0  0  0  0  0  0  0  0  0
   19.0505  -17.8267  -17.0093 O   0  0  0  0  0  0  0  0  0  0  0  0
   21.5582  -21.2738  -14.4939 O   0  0  0  0  0  0  0  0  0  0  0  0
  2  1  1  6
  2  4  1  0
  3  2  1  0
  4  5  2  0
  6  7  1  0
  6  4  1  0
  7  8  1  1
  9  8  1  0
 10  9  2  0
 11 12  1  0
 11 10  1  0
 12 13  2  0
 13  9  1  0
 14  7  1  0
 14 15  2  0
 16 14  1  0
 17 16  1  0
 17 22  1  0
 17 18  1  6
 19 20  1  0
 19 18  1  0
 20 24  1  0
 20 21  2  0
 22 23  2  0
 22 25  1  0
M  END
$$$$
