AHE.pdb
     RDKit          3D

 25 25  0  0  1  0  0  0  0  0999 V2000
   18.8446  -12.8060  -15.8608 C   0  0  0  0  0  0  0  0  0  0  0  0
   18.3812  -11.6323  -16.7124 C   0  0  2  0  0  0  0  0  0  0  0  0
   18.6869  -11.8395  -18.1109 N   0  0  0  0  0  0  0  0  0  0  0  0
   19.1351  -10.4362  -16.2395 C   0  0  0  0  0  0  0  0  0  0  0  0
   19.0009  -10.0977  -15.0231 O   0  0  0  0  0  0  0  0  0  0  0  0
   19.9718   -9.7024  -17.1149 N   0  0  0  0  0  0  0  0  0  0  0  0
   20.7581   -8.6019  -16.4972 C   0  0  1  0  0  0  0  0  0  0  0  0
   22.2154   -8.9510  -16.6551 C   0  0  0  0  0  0  0  0  0  0  0  0
   22.7411   -9.9721  -15.7502 C   0  0  0  0  0  0  0  0  0  0  0  0
   22.9238   -9.8735  -14.3966 C   0  0  0  0  0  0  0  0  0  0  0  0
   23.4614  -11.0237  -13.9682 N   0  0  0  0  0  0  0  0  0  0  0  0
   23.6201  -11.8421  -15.0230 C   0  0  0  0  0  0  0  0  0  0  0  0
   23.1849  -11.2087  -16.1049 N   0  0  0  0  0  0  0  0  0  0  0  0
   20.3644   -7.3722  -17.2056 C   0  0  0  0  0  0  0  0  0  0  0  0
   20.2024   -7.3681  -18.4800 O   0  0  0  0  0  0  0  0  0  0  0  0
   20.1325   -6.1364  -16.5550 N   0  0  0  0  0  0  0  0  0  0  0  0
   19.7380   -4.9746  -17.3905 C   0  0  1  0  0  0  0  0  0  0  0  0
   18.9809   -4.0025  -16.4641 C   0  0  0  0  0  0  0  0  0  0  0  0
   17.6199   -4.5652  -16.2009 C   0  0  0  0  0  0  0  0  0  0  0  0
   16.8356   -3.5922  -15.3746 C   0  0  0  0  0  0  0  0  0  0  0  0
   16.3329   -2.6139  -15.9361 O   0  0  0  0  0  0  0  0  0  0  0  0
   20.9551   -4.2977  -17.8333 C   0  0  0  0  0  0  0  0  0  0  0  0
   22.1281   -4.5585  -17.4403 O   0  0  0  0  0  0  0  0  0  0  0  0
   16.7047   -3.8232  -14.0254 O   0  0  0  0  0  0  0  0  0  0  0  0
   20.8381   -3.2699  -18.7755 O   0  0  0  0  0  0  0  0  0  0  0  0
  2  1  1  1
  2  4  1  0
  3  2  1  0
  4  5  2  0
  6  7  1  0
  6  4  1  0
  7  8  1  6
  9  8  1  0
 10  9  2  0
 11 12  1  0
 11 10  1  0
 12 13  2  0
 13  9  1  0
 14  7  1  0
 14 15  2  0
 16 14  1  0
 17 16  1  0
 17 22  1  0
 17 18  1  1
 19 20  1  0
 19 18  1  0
 20 24  1  0
 20 21  2  0
 22 23  2  0
 22 25  1  0
M  END
$$$$
