AHE.pdb
     RDKit          3D

 25 25  0  0  1  0  0  0  0  0999 V2000
   14.9489  -10.2871  -15.4510 C   0  0  0  0  0  0  0  0  0  0  0  0
   16.4516  -10.3498  -15.6870 C   0  0  2  0  0  0  0  0  0  0  0  0
   16.8671  -11.6701  -16.1071 N   0  0  0  0  0  0  0  0  0  0  0  0
   17.1031  -10.0464  -14.3807 C   0  0  0  0  0  0  0  0  0  0  0  0
   16.8074  -10.7827  -13.3895 O   0  0  0  0  0  0  0  0  0  0  0  0
   18.0195   -8.9752  -14.2487 N   0  0  0  0  0  0  0  0  0  0  0  0
   18.5834   -8.7620  -12.8895 C   0  0  1  0  0  0  0  0  0  0  0  0
   20.0841   -8.7504  -13.0252 C   0  0  0  0  0  0  0  0  0  0  0  0
   20.6329   -7.9313  -14.1048 C   0  0  0  0  0  0  0  0  0  0  0  0
   19.9410   -7.1751  -15.0131 C   0  0  0  0  0  0  0  0  0  0  0  0
   20.8292   -6.6178  -15.8474 N   0  0  0  0  0  0  0  0  0  0  0  0
   22.0632   -7.0074  -15.4829 C   0  0  0  0  0  0  0  0  0  0  0  0
   21.9488   -7.8035  -14.4273 N   0  0  0  0  0  0  0  0  0  0  0  0
   18.0229   -7.4868  -12.4110 C   0  0  0  0  0  0  0  0  0  0  0  0
   17.4291   -6.6829  -13.2182 O   0  0  0  0  0  0  0  0  0  0  0  0
   18.0859   -7.0636  -11.0615 N   0  0  0  0  0  0  0  0  0  0  0  0
   17.3864   -5.8069  -10.6941 C   0  0  1  0  0  0  0  0  0  0  0  0
   15.8798   -6.0674  -10.8915 C   0  0  0  0  0  0  0  0  0  0  0  0
   15.1375   -4.8086  -10.5714 C   0  0  0  0  0  0  0  0  0  0  0  0
   13.6708   -5.0358  -10.7758 C   0  0  0  0  0  0  0  0  0  0  0  0
   12.8899   -4.1167  -10.5099 O   0  0  0  0  0  0  0  0  0  0  0  0
   17.6050   -5.5635   -9.2698 C   0  0  0  0  0  0  0  0  0  0  0  0
   18.0291   -6.4117   -8.4338 O   0  0  0  0  0  0  0  0  0  0  0  0
   13.2490   -6.2555  -11.2504 O   0  0  0  0  0  0  0  0  0  0  0  0
   17.3304   -4.2881   -8.7643 O   0  0  0  0  0  0  0  0  0  0  0  0
  2  1  1  1
  2  4  1  0
  3  2  1  0
  4  5  2  0
  6  7  1  0
  6  4  1  0
  7  8  1  6
  9  8  1  0
 10  9  2  0
 11 12  1  0
 11 10  1  0
 12 13  2  0
 13  9  1  0
 14  7  1  0
 14 15  2  0
 16 14  1  0
 17 16  1  0
 17 22  1  0
 17 18  1  1
 19 20  1  0
 19 18  1  0
 20 24  1  0
 20 21  2  0
 22 23  2  0
 22 25  1  0
M  END
$$$$
