AHE.pdb
     RDKit          3D

 25 25  0  0  1  0  0  0  0  0999 V2000
   20.8263  -13.2829  -19.0635 C   0  0  0  0  0  0  0  0  0  0  0  0
   21.7577  -12.2915  -18.3800 C   0  0  2  0  0  0  0  0  0  0  0  0
   22.5566  -12.9329  -17.3589 N   0  0  0  0  0  0  0  0  0  0  0  0
   20.8904  -11.2710  -17.7249 C   0  0  0  0  0  0  0  0  0  0  0  0
   20.0920  -10.6148  -18.4625 O   0  0  0  0  0  0  0  0  0  0  0  0
   20.9537  -11.0405  -16.3293 N   0  0  0  0  0  0  0  0  0  0  0  0
   20.0359   -9.9987  -15.7972 C   0  0  1  0  0  0  0  0  0  0  0  0
   19.1981  -10.6467  -14.7252 C   0  0  0  0  0  0  0  0  0  0  0  0
   17.8814  -11.1329  -15.1343 C   0  0  0  0  0  0  0  0  0  0  0  0
   17.3198  -11.0720  -16.3819 C   0  0  0  0  0  0  0  0  0  0  0  0
   16.0896  -11.5977  -16.3064 N   0  0  0  0  0  0  0  0  0  0  0  0
   15.8665  -11.9871  -15.0391 C   0  0  0  0  0  0  0  0  0  0  0  0
   16.9498  -11.7073  -14.3255 N   0  0  0  0  0  0  0  0  0  0  0  0
   20.8970   -8.9127  -15.2990 C   0  0  0  0  0  0  0  0  0  0  0  0
   21.9677   -9.1703  -14.6376 O   0  0  0  0  0  0  0  0  0  0  0  0
   20.6240   -7.5399  -15.5114 N   0  0  0  0  0  0  0  0  0  0  0  0
   21.6173   -6.5504  -15.0238 C   0  0  1  0  0  0  0  0  0  0  0  0
   21.1824   -5.1794  -15.5786 C   0  0  0  0  0  0  0  0  0  0  0  0
   22.2019   -4.1619  -15.1744 C   0  0  0  0  0  0  0  0  0  0  0  0
   21.7570   -2.8079  -15.6363 C   0  0  0  0  0  0  0  0  0  0  0  0
   20.7859   -2.7346  -16.3958 O   0  0  0  0  0  0  0  0  0  0  0  0
   21.5173   -6.4842  -13.5674 C   0  0  0  0  0  0  0  0  0  0  0  0
   20.4958   -6.7818  -12.8845 O   0  0  0  0  0  0  0  0  0  0  0  0
   22.4439   -1.6999  -15.1991 O   0  0  0  0  0  0  0  0  0  0  0  0
   22.6368   -6.0599  -12.8434 O   0  0  0  0  0  0  0  0  0  0  0  0
  2  1  1  1
  2  4  1  0
  3  2  1  0
  4  5  2  0
  6  7  1  0
  6  4  1  0
  7  8  1  1
  9  8  1  0
 10  9  2  0
 11 12  1  0
 11 10  1  0
 12 13  2  0
 13  9  1  0
 14  7  1  0
 14 15  2  0
 16 14  1  0
 17 16  1  0
 17 22  1  0
 17 18  1  6
 19 20  1  0
 19 18  1  0
 20 24  1  0
 20 21  2  0
 22 23  2  0
 22 25  1  0
M  END
$$$$
