AHE.pdb
     RDKit          3D

 25 25  0  0  1  0  0  0  0  0999 V2000
   19.3425  -10.2984  -17.6012 C   0  0  0  0  0  0  0  0  0  0  0  0
   20.1891  -10.5462  -16.3605 C   0  0  2  0  0  0  0  0  0  0  0  0
   19.9259  -11.8497  -15.7915 N   0  0  0  0  0  0  0  0  0  0  0  0
   19.7982   -9.5106  -15.3616 C   0  0  0  0  0  0  0  0  0  0  0  0
   18.5604   -9.3603  -15.1222 O   0  0  0  0  0  0  0  0  0  0  0  0
   20.7719   -8.7219  -14.7024 N   0  0  0  0  0  0  0  0  0  0  0  0
   20.2537   -7.7155  -13.7384 C   0  0  1  0  0  0  0  0  0  0  0  0
   21.0330   -7.8796  -12.4592 C   0  0  0  0  0  0  0  0  0  0  0  0
   20.7618   -6.9055  -11.4031 C   0  0  0  0  0  0  0  0  0  0  0  0
   19.9125   -5.8325  -11.4556 C   0  0  0  0  0  0  0  0  0  0  0  0
   19.9945   -5.1841  -10.2858 N   0  0  0  0  0  0  0  0  0  0  0  0
   20.8765   -5.8265   -9.5003 C   0  0  0  0  0  0  0  0  0  0  0  0
   21.3438   -6.8702  -10.1735 N   0  0  0  0  0  0  0  0  0  0  0  0
   20.4396   -6.4029  -14.3799 C   0  0  0  0  0  0  0  0  0  0  0  0
   21.5553   -6.0925  -14.9360 O   0  0  0  0  0  0  0  0  0  0  0  0
   19.4295   -5.4127  -14.4393 N   0  0  0  0  0  0  0  0  0  0  0  0
   19.7611   -4.1201  -15.0894 C   0  0  1  0  0  0  0  0  0  0  0  0
   18.6815   -3.8770  -16.1627 C   0  0  0  0  0  0  0  0  0  0  0  0
   18.9385   -2.5470  -16.7976 C   0  0  0  0  0  0  0  0  0  0  0  0
   17.9067   -2.2980  -17.8549 C   0  0  0  0  0  0  0  0  0  0  0  0
   17.7355   -1.1403  -18.2496 O   0  0  0  0  0  0  0  0  0  0  0  0
   19.6308   -3.0612  -14.0907 C   0  0  0  0  0  0  0  0  0  0  0  0
   18.6545   -2.9078  -13.3022 O   0  0  0  0  0  0  0  0  0  0  0  0
   17.1902   -3.3641  -18.3457 O   0  0  0  0  0  0  0  0  0  0  0  0
   20.6645   -2.1252  -13.9765 O   0  0  0  0  0  0  0  0  0  0  0  0
  2  1  1  6
  2  4  1  0
  3  2  1  0
  4  5  2  0
  6  7  1  0
  6  4  1  0
  7  8  1  1
  9  8  1  0
 10  9  2  0
 11 12  1  0
 11 10  1  0
 12 13  2  0
 13  9  1  0
 14  7  1  0
 14 15  2  0
 16 14  1  0
 17 16  1  0
 17 22  1  0
 17 18  1  6
 19 20  1  0
 19 18  1  0
 20 24  1  0
 20 21  2  0
 22 23  2  0
 22 25  1  0
M  END
$$$$
