AHE.pdb
     RDKit          3D

 25 25  0  0  1  0  0  0  0  0999 V2000
   24.8584  -20.5876   -8.4448 C   0  0  0  0  0  0  0  0  0  0  0  0
   26.0730  -20.6519   -9.3603 C   0  0  2  0  0  0  0  0  0  0  0  0
   27.0774  -19.6845   -8.9762 N   0  0  0  0  0  0  0  0  0  0  0  0
   25.5946  -20.3125  -10.7309 C   0  0  0  0  0  0  0  0  0  0  0  0
   25.6818  -19.1016  -11.1027 O   0  0  0  0  0  0  0  0  0  0  0  0
   25.0613  -21.3046  -11.5890 N   0  0  0  0  0  0  0  0  0  0  0  0
   24.7510  -20.8697  -12.9766 C   0  0  1  0  0  0  0  0  0  0  0  0
   25.3982  -21.8596  -13.9103 C   0  0  0  0  0  0  0  0  0  0  0  0
   26.6433  -21.4341  -14.5476 C   0  0  0  0  0  0  0  0  0  0  0  0
   27.2488  -20.2087  -14.4611 C   0  0  0  0  0  0  0  0  0  0  0  0
   28.3472  -20.2365  -15.2281 N   0  0  0  0  0  0  0  0  0  0  0  0
   28.4446  -21.4521  -15.7941 C   0  0  0  0  0  0  0  0  0  0  0  0
   27.4140  -22.1810  -15.3844 N   0  0  0  0  0  0  0  0  0  0  0  0
   23.2818  -20.8373  -13.0747 C   0  0  0  0  0  0  0  0  0  0  0  0
   22.5600  -21.6990  -12.4527 O   0  0  0  0  0  0  0  0  0  0  0  0
   22.5709  -19.8768  -13.8337 N   0  0  0  0  0  0  0  0  0  0  0  0
   21.0929  -19.9986  -13.8995 C   0  0  1  0  0  0  0  0  0  0  0  0
   20.5785  -18.7369  -14.6206 C   0  0  0  0  0  0  0  0  0  0  0  0
   21.3164  -18.5992  -15.9146 C   0  0  0  0  0  0  0  0  0  0  0  0
   20.8098  -17.3932  -16.6450 C   0  0  0  0  0  0  0  0  0  0  0  0
   19.8836  -16.7475  -16.1443 O   0  0  0  0  0  0  0  0  0  0  0  0
   20.7676  -21.1472  -14.7425 C   0  0  0  0  0  0  0  0  0  0  0  0
   21.5716  -21.7491  -15.5104 O   0  0  0  0  0  0  0  0  0  0  0  0
   21.3926  -17.0502  -17.8423 O   0  0  0  0  0  0  0  0  0  0  0  0
   19.4598  -21.6435  -14.7128 O   0  0  0  0  0  0  0  0  0  0  0  0
  2  1  1  1
  2  4  1  0
  3  2  1  0
  4  5  2  0
  6  7  1  0
  6  4  1  0
  7  8  1  6
  9  8  1  0
 10  9  2  0
 11 12  1  0
 11 10  1  0
 12 13  2  0
 13  9  1  0
 14  7  1  0
 14 15  2  0
 16 14  1  0
 17 16  1  0
 17 22  1  0
 17 18  1  6
 19 20  1  0
 19 18  1  0
 20 24  1  0
 20 21  2  0
 22 23  2  0
 22 25  1  0
M  END
$$$$
