AHE.pdb
     RDKit          3D

 25 25  0  0  1  0  0  0  0  0999 V2000
   20.3747  -11.3720  -18.2182 C   0  0  0  0  0  0  0  0  0  0  0  0
   21.7777  -11.7830  -17.7939 C   0  0  2  0  0  0  0  0  0  0  0  0
   21.7608  -13.0073  -17.0237 N   0  0  0  0  0  0  0  0  0  0  0  0
   22.2999  -10.6895  -16.9253 C   0  0  0  0  0  0  0  0  0  0  0  0
   21.9306  -10.6744  -15.7106 O   0  0  0  0  0  0  0  0  0  0  0  0
   23.1769   -9.7020  -17.4356 N   0  0  0  0  0  0  0  0  0  0  0  0
   23.7356   -8.7480  -16.4414 C   0  0  1  0  0  0  0  0  0  0  0  0
   25.2091   -8.6162  -16.7279 C   0  0  0  0  0  0  0  0  0  0  0  0
   26.0497   -9.7500  -16.3463 C   0  0  0  0  0  0  0  0  0  0  0  0
   25.6702  -10.8811  -15.6738 C   0  0  0  0  0  0  0  0  0  0  0  0
   26.7593  -11.6420  -15.4995 N   0  0  0  0  0  0  0  0  0  0  0  0
   27.8139  -11.0136  -16.0477 C   0  0  0  0  0  0  0  0  0  0  0  0
   27.3882   -9.8667  -16.5620 N   0  0  0  0  0  0  0  0  0  0  0  0
   22.9849   -7.4928  -16.6141 C   0  0  0  0  0  0  0  0  0  0  0  0
   22.4905   -7.1715  -17.7555 O   0  0  0  0  0  0  0  0  0  0  0  0
   22.7494   -6.5729  -15.5641 N   0  0  0  0  0  0  0  0  0  0  0  0
   21.8207   -5.4445  -15.8242 C   0  0  1  0  0  0  0  0  0  0  0  0
   20.4273   -6.0638  -16.0507 C   0  0  0  0  0  0  0  0  0  0  0  0
   19.4338   -4.9535  -16.1860 C   0  0  0  0  0  0  0  0  0  0  0  0
   18.0980   -5.5286  -16.5457 C   0  0  0  0  0  0  0  0  0  0  0  0
   18.0300   -6.3065  -17.5025 O   0  0  0  0  0  0  0  0  0  0  0  0
   21.7450   -4.6286  -14.6142 C   0  0  0  0  0  0  0  0  0  0  0  0
   22.0946   -4.9943  -13.4556 O   0  0  0  0  0  0  0  0  0  0  0  0
   16.9998   -5.1704  -15.7997 O   0  0  0  0  0  0  0  0  0  0  0  0
   21.2480   -3.3252  -14.7220 O   0  0  0  0  0  0  0  0  0  0  0  0
  2  1  1  1
  2  4  1  0
  3  2  1  0
  4  5  2  0
  6  7  1  0
  6  4  1  0
  7  8  1  6
  9  8  1  0
 10  9  2  0
 11 12  1  0
 11 10  1  0
 12 13  2  0
 13  9  1  0
 14  7  1  0
 14 15  2  0
 16 14  1  0
 17 16  1  0
 17 22  1  0
 17 18  1  1
 19 20  1  0
 19 18  1  0
 20 24  1  0
 20 21  2  0
 22 23  2  0
 22 25  1  0
M  END
$$$$
