RYQ.pdb
     RDKit          3D

 33 33  0  0  1  0  0  0  0  0999 V2000
    9.4614  -14.8494   16.8173 N   0  0  0  0  0  0  0  0  0  0  0  0
    8.4470  -13.8334   16.7807 C   0  0  0  0  0  0  0  0  0  0  0  0
    8.2423  -13.1418   15.7148 N   0  0  0  0  0  0  0  0  0  0  0  0
    7.6900  -13.6263   17.9524 N   0  0  0  0  0  0  0  0  0  0  0  0
    8.3501  -13.5986   19.2355 C   0  0  0  0  0  0  0  0  0  0  0  0
    8.9927  -14.9198   19.5329 C   0  0  0  0  0  0  0  0  0  0  0  0
    9.3006  -15.0157   21.0050 C   0  0  0  0  0  0  0  0  0  0  0  0
    8.2320  -15.8235   21.7276 C   0  0  2  0  0  0  0  0  0  0  0  0
    6.9209  -15.3911   21.3564 N   0  0  0  0  0  0  0  0  0  0  0  0
    8.4924  -15.6991   23.1843 C   0  0  0  0  0  0  0  0  0  0  0  0
    9.4548  -15.0061   23.6046 O   0  0  0  0  0  0  0  0  0  0  0  0
    7.4931  -12.4229   15.6588 O   0  0  0  0  0  0  0  0  0  0  0  0
    6.5552  -10.0538   26.2130 C   0  0  0  0  0  0  0  0  0  0  0  0
    6.6358  -11.4360   26.2635 C   0  0  0  0  0  0  0  0  0  0  0  0
    5.6452  -12.1809   25.6882 C   0  0  0  0  0  0  0  0  0  0  0  0
    5.7197  -13.5565   25.7352 C   0  0  0  0  0  0  0  0  0  0  0  0
    6.7521  -14.2348   26.3385 C   0  0  0  0  0  0  0  0  0  0  0  0
    6.8497  -15.7239   26.3977 C   0  0  2  0  0  0  0  0  0  0  0  0
    7.9805  -16.2625   25.5692 N   0  0  0  0  0  0  0  0  0  0  0  0
    7.6952  -16.3362   24.1741 C   0  0  0  0  0  0  0  0  0  0  0  0
    8.3652  -17.5790   26.1201 O   0  0  0  0  0  0  0  0  0  0  0  0
    7.6712  -18.5775   25.7988 C   0  0  0  0  0  0  0  0  0  0  0  0
    7.7558  -13.4587   26.9213 C   0  0  0  0  0  0  0  0  0  0  0  0
    7.6839  -12.0847   26.8759 N   0  0  0  0  0  0  0  0  0  0  0  0
   10.9142  -21.4033   24.0383 C   0  0  0  0  0  0  0  0  0  0  0  0
   11.7914  -20.3993   24.5346 O   0  0  0  0  0  0  0  0  0  0  0  0
   12.8682  -20.2059   23.9552 C   0  0  0  0  0  0  0  0  0  0  0  0
   11.4332  -19.5989   25.7167 C   0  0  0  0  0  0  0  0  0  0  0  0
   10.0691  -19.9700   26.2018 C   0  0  1  0  0  0  0  0  0  0  0  0
    9.7627  -19.1431   27.4474 N   0  0  0  0  0  0  0  0  0  0  0  0
    9.4724  -17.7976   26.9898 C   0  0  0  0  0  0  0  0  0  0  0  0
   10.9102  -19.1044   28.3616 O   0  0  0  0  0  0  0  0  0  0  0  0
   11.3999  -20.0819   28.9639 O   0  0  0  0  0  0  0  0  0  0  0  0
  2  1  1  0
  3  2  2  0
  4  2  1  0
  5  6  1  0
  5  4  1  0
  7  6  1  0
  8  7  1  0
  8 10  1  0
  8  9  1  1
 10 19  1  0
 10 11  2  0
 12 13  1  0
 13 23  2  0
 13 14  1  0
 14 15  2  0
 15 16  1  0
 16 17  1  0
 18 17  1  6
 19 18  1  0
 20 18  1  0
 20 30  1  0
 21 20  2  0
 22 16  2  0
 23 22  1  0
 24 25  1  0
 25 26  2  0
 27 25  1  0
 27 28  1  0
 29 28  1  6
 29 30  1  0
 29 31  1  0
 31 33  1  0
 32 31  2  0
M  END
$$$$
