RYQ.pdb
     RDKit          3D

 33 33  0  0  1  0  0  0  0  0999 V2000
    7.3978  -13.2581   13.9513 N   0  0  0  0  0  0  0  0  0  0  0  0
    8.1122  -14.4960   14.0915 C   0  0  0  0  0  0  0  0  0  0  0  0
    8.9758  -14.8643   13.2111 N   0  0  0  0  0  0  0  0  0  0  0  0
    7.8305  -15.2859   15.2253 N   0  0  0  0  0  0  0  0  0  0  0  0
    8.0695  -14.7541   16.5455 C   0  0  0  0  0  0  0  0  0  0  0  0
    9.4794  -15.0196   16.9799 C   0  0  0  0  0  0  0  0  0  0  0  0
    9.6940  -14.4775   18.3696 C   0  0  0  0  0  0  0  0  0  0  0  0
    9.6785  -15.6021   19.3951 C   0  0  2  0  0  0  0  0  0  0  0  0
    8.5788  -16.4877   19.1714 N   0  0  0  0  0  0  0  0  0  0  0  0
    9.6522  -14.9741   20.7405 C   0  0  0  0  0  0  0  0  0  0  0  0
   10.5496  -14.1618   21.0843 O   0  0  0  0  0  0  0  0  0  0  0  0
    9.5457  -15.7266   13.3241 O   0  0  0  0  0  0  0  0  0  0  0  0
    6.9629  -11.7009   28.4708 C   0  0  0  0  0  0  0  0  0  0  0  0
    7.0071  -12.3477   27.2464 C   0  0  0  0  0  0  0  0  0  0  0  0
    7.4271  -11.6570   26.1447 C   0  0  0  0  0  0  0  0  0  0  0  0
    7.4734  -12.2949   24.9237 C   0  0  0  0  0  0  0  0  0  0  0  0
    7.1148  -13.6103   24.7471 C   0  0  0  0  0  0  0  0  0  0  0  0
    7.1599  -14.3177   23.4325 C   0  0  1  0  0  0  0  0  0  0  0  0
    8.5626  -14.5652   22.9570 N   0  0  0  0  0  0  0  0  0  0  0  0
    8.6409  -15.2403   21.7035 C   0  0  0  0  0  0  0  0  0  0  0  0
    9.2839  -15.2969   24.0194 O   0  0  0  0  0  0  0  0  0  0  0  0
    9.3700  -14.7571   25.1521 C   0  0  0  0  0  0  0  0  0  0  0  0
    6.6880  -14.3015   25.8827 C   0  0  0  0  0  0  0  0  0  0  0  0
    6.6409  -13.6667   27.1033 N   0  0  0  0  0  0  0  0  0  0  0  0
    7.6344  -19.6795   26.9778 C   0  0  0  0  0  0  0  0  0  0  0  0
    8.5607  -18.9262   27.7513 O   0  0  0  0  0  0  0  0  0  0  0  0
    8.5028  -18.9930   28.9861 C   0  0  0  0  0  0  0  0  0  0  0  0
    9.5745  -18.0787   27.1030 C   0  0  0  0  0  0  0  0  0  0  0  0
    9.4016  -18.1047   25.6186 C   0  0  2  0  0  0  0  0  0  0  0  0
   10.4896  -17.2350   24.9948 N   0  0  0  0  0  0  0  0  0  0  0  0
    9.8879  -16.5764   23.8510 C   0  0  0  0  0  0  0  0  0  0  0  0
   11.6285  -18.0426   24.5420 O   0  0  0  0  0  0  0  0  0  0  0  0
   11.7321  -18.6055   23.4328 O   0  0  0  0  0  0  0  0  0  0  0  0
  2  1  1  0
  3  2  2  0
  4  2  1  0
  5  6  1  0
  5  4  1  0
  7  6  1  0
  8  7  1  0
  8 10  1  0
  8  9  1  6
 10 19  1  0
 10 11  2  0
 12 13  1  0
 13 23  2  0
 13 14  1  0
 14 15  2  0
 15 16  1  0
 16 17  1  0
 18 17  1  6
 19 18  1  0
 20 18  1  0
 20 30  1  0
 21 20  2  0
 22 16  2  0
 23 22  1  0
 24 25  1  0
 25 26  2  0
 27 25  1  0
 27 28  1  0
 29 28  1  1
 29 30  1  0
 29 31  1  0
 31 33  1  0
 32 31  2  0
M  END
$$$$
