RYQ.pdb
     RDKit          3D

 33 33  0  0  1  0  0  0  0  0999 V2000
    6.7193  -16.0090   14.5960 N   0  0  0  0  0  0  0  0  0  0  0  0
    6.2539  -16.9405   15.5850 C   0  0  0  0  0  0  0  0  0  0  0  0
    5.9599  -18.1521   15.2655 N   0  0  0  0  0  0  0  0  0  0  0  0
    6.1329  -16.4763   16.9112 N   0  0  0  0  0  0  0  0  0  0  0  0
    7.2114  -16.6912   17.8459 C   0  0  0  0  0  0  0  0  0  0  0  0
    8.1520  -15.5241   17.8520 C   0  0  0  0  0  0  0  0  0  0  0  0
    8.7845  -15.3879   19.2130 C   0  0  0  0  0  0  0  0  0  0  0  0
    8.1421  -14.2506   19.9945 C   0  0  2  0  0  0  0  0  0  0  0  0
    8.3042  -13.0032   19.3150 N   0  0  0  0  0  0  0  0  0  0  0  0
    8.7420  -14.2526   21.3529 C   0  0  0  0  0  0  0  0  0  0  0  0
    9.9436  -13.9197   21.5214 O   0  0  0  0  0  0  0  0  0  0  0  0
    5.7170  -18.8678   15.9796 O   0  0  0  0  0  0  0  0  0  0  0  0
   10.0122  -14.0216   30.0520 C   0  0  0  0  0  0  0  0  0  0  0  0
    9.4225  -14.1044   28.8011 C   0  0  0  0  0  0  0  0  0  0  0  0
    8.9669  -15.3148   28.3600 C   0  0  0  0  0  0  0  0  0  0  0  0
    8.3792  -15.4037   27.1164 C   0  0  0  0  0  0  0  0  0  0  0  0
    8.2219  -14.3250   26.2787 C   0  0  0  0  0  0  0  0  0  0  0  0
    7.5866  -14.4025   24.9293 C   0  0  2  0  0  0  0  0  0  0  0  0
    8.5898  -14.5939   23.8283 N   0  0  0  0  0  0  0  0  0  0  0  0
    8.0204  -14.6203   22.5213 C   0  0  0  0  0  0  0  0  0  0  0  0
    9.3571  -15.8238   24.1166 O   0  0  0  0  0  0  0  0  0  0  0  0
    8.7463  -16.9224   24.0755 C   0  0  0  0  0  0  0  0  0  0  0  0
    8.6927  -13.0959   26.7446 C   0  0  0  0  0  0  0  0  0  0  0  0
    9.2802  -13.0043   27.9863 N   0  0  0  0  0  0  0  0  0  0  0  0
   15.2269  -16.6175   22.9158 C   0  0  0  0  0  0  0  0  0  0  0  0
   14.1217  -16.9748   22.0942 O   0  0  0  0  0  0  0  0  0  0  0  0
   14.3144  -17.1819   20.8890 C   0  0  0  0  0  0  0  0  0  0  0  0
   12.7682  -17.0984   22.6590 C   0  0  0  0  0  0  0  0  0  0  0  0
   12.8164  -17.0040   24.1499 C   0  0  2  0  0  0  0  0  0  0  0  0
   11.3920  -17.1273   24.6836 N   0  0  0  0  0  0  0  0  0  0  0  0
   10.7454  -15.8526   24.4360 C   0  0  0  0  0  0  0  0  0  0  0  0
   11.3808  -17.4015   26.1254 O   0  0  0  0  0  0  0  0  0  0  0  0
   11.4161  -16.5461   27.0338 O   0  0  0  0  0  0  0  0  0  0  0  0
  2  1  1  0
  3  2  2  0
  4  2  1  0
  5  6  1  0
  5  4  1  0
  7  6  1  0
  8  7  1  0
  8 10  1  0
  8  9  1  6
 10 19  1  0
 10 11  2  0
 12 13  1  0
 13 23  2  0
 13 14  1  0
 14 15  2  0
 15 16  1  0
 16 17  1  0
 18 17  1  6
 19 18  1  0
 20 18  1  0
 20 30  1  0
 21 20  2  0
 22 16  2  0
 23 22  1  0
 24 25  1  0
 25 26  2  0
 27 25  1  0
 27 28  1  0
 29 28  1  6
 29 30  1  0
 29 31  1  0
 31 33  1  0
 32 31  2  0
M  END
$$$$
