RYQ.pdb
     RDKit          3D

 33 33  0  0  1  0  0  0  0  0999 V2000
    8.5373  -15.5273   13.2876 N   0  0  0  0  0  0  0  0  0  0  0  0
    8.2493  -14.4000   14.1295 C   0  0  0  0  0  0  0  0  0  0  0  0
    8.5702  -13.2068   13.7693 N   0  0  0  0  0  0  0  0  0  0  0  0
    7.6050  -14.6525   15.3583 N   0  0  0  0  0  0  0  0  0  0  0  0
    8.3080  -15.3564   16.4038 C   0  0  0  0  0  0  0  0  0  0  0  0
    9.4132  -14.5130   16.9643 C   0  0  0  0  0  0  0  0  0  0  0  0
    9.0920  -14.1337   18.3870 C   0  0  0  0  0  0  0  0  0  0  0  0
    9.2256  -15.3374   19.3089 C   0  0  2  0  0  0  0  0  0  0  0  0
    8.1553  -16.2630   19.1053 N   0  0  0  0  0  0  0  0  0  0  0  0
    9.2906  -14.8239   20.7008 C   0  0  0  0  0  0  0  0  0  0  0  0
   10.2782  -14.1464   21.0866 O   0  0  0  0  0  0  0  0  0  0  0  0
    8.2866  -12.3699   14.3172 O   0  0  0  0  0  0  0  0  0  0  0  0
    6.9569  -11.6959   28.6054 C   0  0  0  0  0  0  0  0  0  0  0  0
    6.9351  -12.3208   27.3691 C   0  0  0  0  0  0  0  0  0  0  0  0
    7.5952  -11.7437   26.3210 C   0  0  0  0  0  0  0  0  0  0  0  0
    7.5772  -12.3606   25.0885 C   0  0  0  0  0  0  0  0  0  0  0  0
    6.9214  -13.5448   24.8484 C   0  0  0  0  0  0  0  0  0  0  0  0
    6.8924  -14.2277   23.5205 C   0  0  2  0  0  0  0  0  0  0  0  0
    8.2654  -14.4479   22.9535 N   0  0  0  0  0  0  0  0  0  0  0  0
    8.2712  -15.0563   21.6640 C   0  0  0  0  0  0  0  0  0  0  0  0
    9.0450  -15.2331   23.9334 O   0  0  0  0  0  0  0  0  0  0  0  0
    8.8126  -15.0474   25.1554 C   0  0  0  0  0  0  0  0  0  0  0  0
    6.2520  -14.1210   25.9298 C   0  0  0  0  0  0  0  0  0  0  0  0
    6.2684  -13.5069   27.1618 N   0  0  0  0  0  0  0  0  0  0  0  0
    9.3681  -17.1574   28.1472 C   0  0  0  0  0  0  0  0  0  0  0  0
   10.3408  -17.9894   27.5262 O   0  0  0  0  0  0  0  0  0  0  0  0
   11.4606  -18.0899   28.0443 C   0  0  0  0  0  0  0  0  0  0  0  0
   10.0299  -18.7222   26.2882 C   0  0  0  0  0  0  0  0  0  0  0  0
    9.4658  -17.7933   25.2621 C   0  0  1  0  0  0  0  0  0  0  0  0
   10.6201  -17.0206   24.6300 N   0  0  0  0  0  0  0  0  0  0  0  0
   10.0423  -16.1910   23.5898 C   0  0  0  0  0  0  0  0  0  0  0  0
   11.6081  -17.9260   24.0313 O   0  0  0  0  0  0  0  0  0  0  0  0
   11.3537  -18.9541   23.3708 O   0  0  0  0  0  0  0  0  0  0  0  0
  2  1  1  0
  3  2  2  0
  4  2  1  0
  5  6  1  0
  5  4  1  0
  7  6  1  0
  8  7  1  0
  8 10  1  0
  8  9  1  1
 10 19  1  0
 10 11  2  0
 12 13  1  0
 13 23  2  0
 13 14  1  0
 14 15  2  0
 15 16  1  0
 16 17  1  0
 18 17  1  6
 19 18  1  0
 20 18  1  0
 20 30  1  0
 21 20  2  0
 22 16  2  0
 23 22  1  0
 24 25  1  0
 25 26  2  0
 27 25  1  0
 27 28  1  0
 29 28  1  1
 29 30  1  0
 29 31  1  0
 31 33  1  0
 32 31  2  0
M  END
$$$$
