RYQ.pdb
     RDKit          3D

 33 33  0  0  1  0  0  0  0  0999 V2000
    6.2918  -22.7227   19.5787 N   0  0  0  0  0  0  0  0  0  0  0  0
    7.0383  -22.5936   18.3585 C   0  0  0  0  0  0  0  0  0  0  0  0
    6.9128  -23.4569   17.4123 N   0  0  0  0  0  0  0  0  0  0  0  0
    7.9082  -21.4899   18.2408 N   0  0  0  0  0  0  0  0  0  0  0  0
    8.0934  -20.6016   19.3631 C   0  0  0  0  0  0  0  0  0  0  0  0
    9.0892  -19.5300   19.0361 C   0  0  0  0  0  0  0  0  0  0  0  0
    9.2284  -18.5908   20.2064 C   0  0  0  0  0  0  0  0  0  0  0  0
    8.9121  -17.1611   19.7907 C   0  0  2  0  0  0  0  0  0  0  0  0
    9.7094  -16.7617   18.6732 N   0  0  0  0  0  0  0  0  0  0  0  0
    9.1122  -16.2988   20.9829 C   0  0  0  0  0  0  0  0  0  0  0  0
   10.2542  -16.1722   21.4957 O   0  0  0  0  0  0  0  0  0  0  0  0
    7.4147  -23.3601   16.5068 O   0  0  0  0  0  0  0  0  0  0  0  0
    7.5463  -11.4858   28.2382 C   0  0  0  0  0  0  0  0  0  0  0  0
    7.4294  -12.0783   26.9913 C   0  0  0  0  0  0  0  0  0  0  0  0
    8.1988  -11.6159   25.9610 C   0  0  0  0  0  0  0  0  0  0  0  0
    8.0870  -12.2013   24.7181 C   0  0  0  0  0  0  0  0  0  0  0  0
    7.2305  -13.2427   24.4503 C   0  0  0  0  0  0  0  0  0  0  0  0
    7.0973  -13.8896   23.1107 C   0  0  1  0  0  0  0  0  0  0  0  0
    8.2336  -14.8221   22.8035 N   0  0  0  0  0  0  0  0  0  0  0  0
    8.0577  -15.5787   21.6079 C   0  0  0  0  0  0  0  0  0  0  0  0
    8.4406  -15.6944   23.9786 O   0  0  0  0  0  0  0  0  0  0  0  0
    7.5917  -16.5956   24.1999 C   0  0  0  0  0  0  0  0  0  0  0  0
    6.4517  -13.7031   25.5138 C   0  0  0  0  0  0  0  0  0  0  0  0
    6.5613  -13.1202   26.7561 N   0  0  0  0  0  0  0  0  0  0  0  0
   12.8215  -19.2811   24.5437 C   0  0  0  0  0  0  0  0  0  0  0  0
   12.2998  -19.4171   25.8602 O   0  0  0  0  0  0  0  0  0  0  0  0
   12.7878  -20.2711   26.6119 C   0  0  0  0  0  0  0  0  0  0  0  0
   11.1983  -18.5610   26.3296 C   0  0  0  0  0  0  0  0  0  0  0  0
   10.9336  -17.4682   25.3449 C   0  0  1  0  0  0  0  0  0  0  0  0
    9.7617  -16.6358   25.8574 N   0  0  0  0  0  0  0  0  0  0  0  0
    9.5394  -15.5878   24.8794 C   0  0  0  0  0  0  0  0  0  0  0  0
   10.0645  -16.0256   27.1574 O   0  0  0  0  0  0  0  0  0  0  0  0
   10.4165  -14.8433   27.3473 O   0  0  0  0  0  0  0  0  0  0  0  0
  2  1  1  0
  3  2  2  0
  4  2  1  0
  5  6  1  0
  5  4  1  0
  7  6  1  0
  8  7  1  0
  8 10  1  0
  8  9  1  6
 10 19  1  0
 10 11  2  0
 12 13  1  0
 13 23  2  0
 13 14  1  0
 14 15  2  0
 15 16  1  0
 16 17  1  0
 18 17  1  6
 19 18  1  0
 20 18  1  0
 20 30  1  0
 21 20  2  0
 22 16  2  0
 23 22  1  0
 24 25  1  0
 25 26  2  0
 27 25  1  0
 27 28  1  0
 29 28  1  6
 29 30  1  0
 29 31  1  0
 31 33  1  0
 32 31  2  0
M  END
$$$$
