RYQ.pdb
     RDKit          3D

 33 33  0  0  1  0  0  0  0  0999 V2000
    7.1047  -13.6158   17.2603 N   0  0  0  0  0  0  0  0  0  0  0  0
    8.0120  -13.0607   18.2253 C   0  0  0  0  0  0  0  0  0  0  0  0
    7.6568  -12.0796   18.9788 N   0  0  0  0  0  0  0  0  0  0  0  0
    9.2990  -13.6308   18.3126 N   0  0  0  0  0  0  0  0  0  0  0  0
    9.5563  -14.6728   19.2773 C   0  0  0  0  0  0  0  0  0  0  0  0
    9.4183  -14.1506   20.6756 C   0  0  0  0  0  0  0  0  0  0  0  0
    9.9990  -15.1437   21.6490 C   0  0  0  0  0  0  0  0  0  0  0  0
    8.9277  -16.1074   22.1393 C   0  0  2  0  0  0  0  0  0  0  0  0
    7.6484  -15.7755   21.5942 N   0  0  0  0  0  0  0  0  0  0  0  0
    8.9506  -16.0769   23.6237 C   0  0  0  0  0  0  0  0  0  0  0  0
   10.0226  -15.8490   24.2418 O   0  0  0  0  0  0  0  0  0  0  0  0
    8.3298  -11.5919   19.6036 O   0  0  0  0  0  0  0  0  0  0  0  0
    7.0984   -9.8171   25.4581 C   0  0  0  0  0  0  0  0  0  0  0  0
    6.9807  -11.1790   25.6836 C   0  0  0  0  0  0  0  0  0  0  0  0
    7.9735  -11.8286   26.3615 C   0  0  0  0  0  0  0  0  0  0  0  0
    7.8622  -13.1835   26.5891 C   0  0  0  0  0  0  0  0  0  0  0  0
    6.7901  -13.9329   26.1657 C   0  0  0  0  0  0  0  0  0  0  0  0
    6.6523  -15.4007   26.4044 C   0  0  2  0  0  0  0  0  0  0  0  0
    7.8028  -16.1878   25.8458 N   0  0  0  0  0  0  0  0  0  0  0  0
    7.7965  -16.2970   24.4242 C   0  0  0  0  0  0  0  0  0  0  0  0
    7.8093  -17.5145   26.4973 O   0  0  0  0  0  0  0  0  0  0  0  0
    6.7231  -17.9494   26.9585 C   0  0  0  0  0  0  0  0  0  0  0  0
    5.7847  -13.2538   25.4747 C   0  0  0  0  0  0  0  0  0  0  0  0
    5.8934  -11.9006   25.2460 N   0  0  0  0  0  0  0  0  0  0  0  0
    7.0740  -21.2391   23.1070 C   0  0  0  0  0  0  0  0  0  0  0  0
    7.4042  -22.1581   24.1416 O   0  0  0  0  0  0  0  0  0  0  0  0
    7.1656  -23.3609   23.9720 C   0  0  0  0  0  0  0  0  0  0  0  0
    8.0195  -21.6955   25.3962 C   0  0  0  0  0  0  0  0  0  0  0  0
    8.2201  -20.2148   25.3616 C   0  0  2  0  0  0  0  0  0  0  0  0
    8.8035  -19.7795   26.7030 N   0  0  0  0  0  0  0  0  0  0  0  0
    8.9627  -18.3392   26.6373 C   0  0  0  0  0  0  0  0  0  0  0  0
   10.1119  -20.3986   26.9456 O   0  0  0  0  0  0  0  0  0  0  0  0
   10.3127  -21.4768   27.5416 O   0  0  0  0  0  0  0  0  0  0  0  0
  2  1  1  0
  3  2  2  0
  4  2  1  0
  5  6  1  0
  5  4  1  0
  7  6  1  0
  8  7  1  0
  8 10  1  0
  8  9  1  6
 10 19  1  0
 10 11  2  0
 12 13  1  0
 13 23  2  0
 13 14  1  0
 14 15  2  0
 15 16  1  0
 16 17  1  0
 18 17  1  6
 19 18  1  0
 20 18  1  0
 20 30  1  0
 21 20  2  0
 22 16  2  0
 23 22  1  0
 24 25  1  0
 25 26  2  0
 27 25  1  0
 27 28  1  0
 29 28  1  1
 29 30  1  0
 29 31  1  0
 31 33  1  0
 32 31  2  0
M  END
$$$$
