RYQ.pdb
     RDKit          3D

 33 33  0  0  1  0  0  0  0  0999 V2000
    8.2390  -16.3869   14.2083 N   0  0  0  0  0  0  0  0  0  0  0  0
    8.2154  -14.9707   13.9708 C   0  0  0  0  0  0  0  0  0  0  0  0
    7.3725  -14.4523   13.1479 N   0  0  0  0  0  0  0  0  0  0  0  0
    9.1473  -14.1772   14.6714 N   0  0  0  0  0  0  0  0  0  0  0  0
    9.3121  -14.3548   16.0941 C   0  0  0  0  0  0  0  0  0  0  0  0
    8.0020  -14.2002   16.8059 C   0  0  0  0  0  0  0  0  0  0  0  0
    8.2429  -13.7388   18.2202 C   0  0  0  0  0  0  0  0  0  0  0  0
    8.9069  -14.8363   19.0395 C   0  0  2  0  0  0  0  0  0  0  0  0
    8.2018  -16.0732   18.9101 N   0  0  0  0  0  0  0  0  0  0  0  0
    8.9829  -14.3568   20.4428 C   0  0  0  0  0  0  0  0  0  0  0  0
    9.6184  -13.3086   20.7265 O   0  0  0  0  0  0  0  0  0  0  0  0
    7.2881  -13.4240   13.0190 O   0  0  0  0  0  0  0  0  0  0  0  0
    6.9198  -11.8678   28.5120 C   0  0  0  0  0  0  0  0  0  0  0  0
    6.9458  -12.5327   27.2968 C   0  0  0  0  0  0  0  0  0  0  0  0
    6.8635  -13.8967   27.2838 C   0  0  0  0  0  0  0  0  0  0  0  0
    6.8889  -14.5641   26.0780 C   0  0  0  0  0  0  0  0  0  0  0  0
    6.9941  -13.9249   24.8654 C   0  0  0  0  0  0  0  0  0  0  0  0
    7.0217  -14.6315   23.5499 C   0  0  2  0  0  0  0  0  0  0  0  0
    8.3505  -14.5166   22.8598 N   0  0  0  0  0  0  0  0  0  0  0  0
    8.3610  -15.0299   21.5296 C   0  0  0  0  0  0  0  0  0  0  0  0
    9.3659  -15.1741   23.7089 O   0  0  0  0  0  0  0  0  0  0  0  0
   10.3294  -14.4784   24.1206 C   0  0  0  0  0  0  0  0  0  0  0  0
    7.0772  -12.5315   24.8965 C   0  0  0  0  0  0  0  0  0  0  0  0
    7.0521  -11.8625   26.0994 N   0  0  0  0  0  0  0  0  0  0  0  0
   11.0757  -16.8672   29.5244 C   0  0  0  0  0  0  0  0  0  0  0  0
   10.8298  -15.8182   28.5955 O   0  0  0  0  0  0  0  0  0  0  0  0
   10.3639  -14.7488   29.0101 C   0  0  0  0  0  0  0  0  0  0  0  0
   11.1214  -15.9923   27.1633 C   0  0  0  0  0  0  0  0  0  0  0  0
    9.8648  -16.2853   26.4090 C   0  0  2  0  0  0  0  0  0  0  0  0
   10.2382  -17.0180   25.1233 N   0  0  0  0  0  0  0  0  0  0  0  0
    9.3282  -16.5443   24.0978 C   0  0  0  0  0  0  0  0  0  0  0  0
   10.0859  -18.4704   25.2696 O   0  0  0  0  0  0  0  0  0  0  0  0
    9.1078  -19.1461   24.8893 O   0  0  0  0  0  0  0  0  0  0  0  0
  2  1  1  0
  3  2  2  0
  4  2  1  0
  5  6  1  0
  5  4  1  0
  7  6  1  0
  8  7  1  0
  8 10  1  0
  8  9  1  1
 10 19  1  0
 10 11  2  0
 12 13  1  0
 13 23  2  0
 13 14  1  0
 14 15  2  0
 15 16  1  0
 16 17  1  0
 18 17  1  6
 19 18  1  0
 20 18  1  0
 20 30  1  0
 21 20  2  0
 22 16  2  0
 23 22  1  0
 24 25  1  0
 25 26  2  0
 27 25  1  0
 27 28  1  0
 29 28  1  6
 29 30  1  0
 29 31  1  0
 31 33  1  0
 32 31  2  0
M  END
$$$$
