NHP.pdb
     RDKit          3D

 26 27  0  0  1  0  0  0  0  0999 V2000
   30.7567  -32.5760  -15.5445 N   0  0  0  0  0  0  0  0  0  0  0  0
   29.3628  -32.5972  -15.3815 C   0  0  0  0  0  0  0  0  0  0  0  0
   28.8353  -33.3969  -14.5708 O   0  0  0  0  0  0  0  0  0  0  0  0
   28.4874  -31.6877  -16.1539 C   0  0  0  0  0  0  0  0  0  0  0  0
   27.8294  -32.5412  -17.2305 C   0  0  2  0  0  0  0  0  0  0  0  0
   28.8192  -32.6973  -18.2821 N   0  0  0  0  0  0  0  0  0  0  0  0
   26.6149  -31.9285  -17.7957 C   0  0  0  0  0  0  0  0  0  0  0  0
   26.7223  -30.9428  -18.6001 O   0  0  0  0  0  0  0  0  0  0  0  0
   25.3305  -32.4019  -17.4729 N   0  0  0  0  0  0  0  0  0  0  0  0
   24.1211  -31.8714  -18.1172 C   0  0  1  0  0  0  0  0  0  0  0  0
   23.3238  -33.0607  -18.6767 C   0  0  0  0  0  0  0  0  0  0  0  0
   22.1169  -32.5677  -19.3752 C   0  0  0  0  0  0  0  0  0  0  0  0
   20.8267  -32.5151  -18.9109 C   0  0  0  0  0  0  0  0  0  0  0  0
   20.0526  -31.9861  -19.8771 N   0  0  0  0  0  0  0  0  0  0  0  0
   20.8270  -31.7093  -20.9327 C   0  0  0  0  0  0  0  0  0  0  0  0
   22.0861  -32.0629  -20.6312 N   0  0  0  0  0  0  0  0  0  0  0  0
   23.2712  -31.2597  -17.0707 C   0  0  0  0  0  0  0  0  0  0  0  0
   23.2326  -31.8746  -15.9441 O   0  0  0  0  0  0  0  0  0  0  0  0
   22.5384  -30.0702  -17.2751 N   0  0  0  0  0  0  0  0  0  0  0  0
   22.5118  -29.3119  -18.4930 C   0  0  0  0  0  0  0  0  0  0  0  0
   22.5451  -27.8901  -17.9296 C   0  0  0  0  0  0  0  0  0  0  0  0
   21.4817  -27.9889  -16.8598 C   0  0  0  0  0  0  0  0  0  0  0  0
   21.6917  -29.3966  -16.3224 C   0  0  1  0  0  0  0  0  0  0  0  0
   20.3855  -30.0575  -16.1258 C   0  0  0  0  0  0  0  0  0  0  0  0
   19.5101  -29.9505  -17.0071 O   0  0  0  0  0  0  0  0  0  0  0  0
   20.1230  -30.7952  -14.9764 O   0  0  0  0  0  0  0  0  0  0  0  0
  2  1  1  0
  3  2  2  0
  4  2  1  0
  5  4  1  0
  5  6  1  6
  7  5  1  0
  8  7  2  0
  9  7  1  0
 10  9  1  0
 11 12  1  0
 10 11  1  1
 12 13  2  0
 13 14  1  0
 15 14  1  0
 16 12  1  0
 16 15  2  0
 17 19  1  0
 17 10  1  0
 18 17  2  0
 19 20  1  0
 21 20  1  0
 22 21  1  0
 23 19  1  0
 23 22  1  0
 23 24  1  6
 24 26  1  0
 25 24  2  0
M  END
$$$$
