NHP.pdb
     RDKit          3D

 26 27  0  0  1  0  0  0  0  0999 V2000
   29.7965  -17.9207  -19.6357 N   0  0  0  0  0  0  0  0  0  0  0  0
   28.7628  -16.9724  -19.6836 C   0  0  0  0  0  0  0  0  0  0  0  0
   28.7793  -16.0656  -20.5510 O   0  0  0  0  0  0  0  0  0  0  0  0
   27.6388  -17.0153  -18.7218 C   0  0  0  0  0  0  0  0  0  0  0  0
   27.9989  -18.0788  -17.6922 C   0  0  2  0  0  0  0  0  0  0  0  0
   28.0169  -19.3428  -18.4076 N   0  0  0  0  0  0  0  0  0  0  0  0
   27.0331  -18.1638  -16.5832 C   0  0  0  0  0  0  0  0  0  0  0  0
   26.8210  -17.1385  -15.8524 O   0  0  0  0  0  0  0  0  0  0  0  0
   26.3320  -19.3506  -16.3042 N   0  0  0  0  0  0  0  0  0  0  0  0
   25.3337  -19.4301  -15.2288 C   0  0  1  0  0  0  0  0  0  0  0  0
   23.9697  -19.7291  -15.8719 C   0  0  0  0  0  0  0  0  0  0  0  0
   23.4712  -18.5228  -16.5675 C   0  0  0  0  0  0  0  0  0  0  0  0
   23.4683  -18.2569  -17.9137 C   0  0  0  0  0  0  0  0  0  0  0  0
   22.9119  -17.0455  -18.1025 N   0  0  0  0  0  0  0  0  0  0  0  0
   22.5695  -16.5486  -16.9081 C   0  0  0  0  0  0  0  0  0  0  0  0
   22.9092  -17.4458  -15.9696 N   0  0  0  0  0  0  0  0  0  0  0  0
   25.6579  -20.6015  -14.3837 C   0  0  0  0  0  0  0  0  0  0  0  0
   26.1273  -21.6273  -14.9970 O   0  0  0  0  0  0  0  0  0  0  0  0
   25.4722  -20.6134  -12.9841 N   0  0  0  0  0  0  0  0  0  0  0  0
   24.9798  -19.5144  -12.2039 C   0  0  0  0  0  0  0  0  0  0  0  0
   25.8855  -19.6243  -10.9760 C   0  0  0  0  0  0  0  0  0  0  0  0
   25.7833  -21.1043  -10.6855 C   0  0  0  0  0  0  0  0  0  0  0  0
   25.7352  -21.7066  -12.0818 C   0  0  1  0  0  0  0  0  0  0  0  0
   24.7122  -22.7708  -12.1331 C   0  0  0  0  0  0  0  0  0  0  0  0
   24.9728  -23.8898  -11.6489 O   0  0  0  0  0  0  0  0  0  0  0  0
   23.4681  -22.5398  -12.7102 O   0  0  0  0  0  0  0  0  0  0  0  0
  2  1  1  0
  3  2  2  0
  4  2  1  0
  5  4  1  0
  5  6  1  6
  7  5  1  0
  8  7  2  0
  9  7  1  0
 10  9  1  0
 11 12  1  0
 10 11  1  6
 12 13  2  0
 13 14  1  0
 15 14  1  0
 16 12  1  0
 16 15  2  0
 17 19  1  0
 17 10  1  0
 18 17  2  0
 19 20  1  0
 21 20  1  0
 22 21  1  0
 23 19  1  0
 23 22  1  0
 23 24  1  1
 24 26  1  0
 25 24  2  0
M  END
$$$$
