NHP.pdb
     RDKit          3D

 26 27  0  0  1  0  0  0  0  0999 V2000
   29.1374  -20.4585  -22.1099 N   0  0  0  0  0  0  0  0  0  0  0  0
   28.5754  -20.0056  -20.9061 C   0  0  0  0  0  0  0  0  0  0  0  0
   27.9449  -18.9210  -20.8738 O   0  0  0  0  0  0  0  0  0  0  0  0
   28.7111  -20.7860  -19.6560 C   0  0  0  0  0  0  0  0  0  0  0  0
   29.5597  -22.0026  -20.0027 C   0  0  2  0  0  0  0  0  0  0  0  0
   28.6577  -22.9619  -20.6160 N   0  0  0  0  0  0  0  0  0  0  0  0
   30.1969  -22.6203  -18.8270 C   0  0  0  0  0  0  0  0  0  0  0  0
   30.9152  -21.9047  -18.0508 O   0  0  0  0  0  0  0  0  0  0  0  0
   30.0354  -23.9858  -18.5319 N   0  0  0  0  0  0  0  0  0  0  0  0
   30.6121  -24.5947  -17.3252 C   0  0  1  0  0  0  0  0  0  0  0  0
   29.6249  -25.6566  -16.8143 C   0  0  0  0  0  0  0  0  0  0  0  0
   28.2947  -25.0435  -16.6091 C   0  0  0  0  0  0  0  0  0  0  0  0
   27.0670  -25.5290  -16.9830 C   0  0  0  0  0  0  0  0  0  0  0  0
   26.1279  -24.6487  -16.5883 N   0  0  0  0  0  0  0  0  0  0  0  0
   26.7391  -23.6258  -15.9793 C   0  0  0  0  0  0  0  0  0  0  0  0
   28.0601  -23.8622  -15.9904 N   0  0  0  0  0  0  0  0  0  0  0  0
   31.8384  -25.3251  -17.7177 C   0  0  0  0  0  0  0  0  0  0  0  0
   31.9511  -25.6097  -18.9648 O   0  0  0  0  0  0  0  0  0  0  0  0
   32.8398  -25.6963  -16.7941 N   0  0  0  0  0  0  0  0  0  0  0  0
   32.8033  -25.4370  -15.3832 C   0  0  0  0  0  0  0  0  0  0  0  0
   34.2654  -25.0607  -15.1372 C   0  0  0  0  0  0  0  0  0  0  0  0
   34.9687  -26.1804  -15.8699 C   0  0  0  0  0  0  0  0  0  0  0  0
   34.0696  -26.3924  -17.0787 C   0  0  1  0  0  0  0  0  0  0  0  0
   33.8853  -27.8382  -17.3182 C   0  0  0  0  0  0  0  0  0  0  0  0
   32.8120  -28.3786  -16.9859 O   0  0  0  0  0  0  0  0  0  0  0  0
   34.8888  -28.5990  -17.9084 O   0  0  0  0  0  0  0  0  0  0  0  0
  2  1  1  0
  3  2  2  0
  4  2  1  0
  5  4  1  0
  5  6  1  1
  7  5  1  0
  8  7  2  0
  9  7  1  0
 10  9  1  0
 11 12  1  0
 10 11  1  6
 12 13  2  0
 13 14  1  0
 15 14  1  0
 16 12  1  0
 16 15  2  0
 17 19  1  0
 17 10  1  0
 18 17  2  0
 19 20  1  0
 21 20  1  0
 22 21  1  0
 23 19  1  0
 23 22  1  0
 23 24  1  1
 24 26  1  0
 25 24  2  0
M  END
$$$$
