NHP.pdb
     RDKit          3D

 26 27  0  0  1  0  0  0  0  0999 V2000
   22.2020  -18.0884  -17.8559 N   0  0  0  0  0  0  0  0  0  0  0  0
   22.7367  -16.8093  -18.0752 C   0  0  0  0  0  0  0  0  0  0  0  0
   23.9705  -16.6131  -17.9560 O   0  0  0  0  0  0  0  0  0  0  0  0
   21.8688  -15.6699  -18.4477 C   0  0  0  0  0  0  0  0  0  0  0  0
   21.8287  -14.7498  -17.2343 C   0  0  2  0  0  0  0  0  0  0  0  0
   21.0912  -15.4669  -16.2086 N   0  0  0  0  0  0  0  0  0  0  0  0
   21.1606  -13.4646  -17.5019 C   0  0  0  0  0  0  0  0  0  0  0  0
   20.8297  -13.1634  -18.6978 O   0  0  0  0  0  0  0  0  0  0  0  0
   20.8736  -12.5528  -16.4702 N   0  0  0  0  0  0  0  0  0  0  0  0
   20.1677  -11.2890  -16.7227 C   0  0  1  0  0  0  0  0  0  0  0  0
   18.7562  -11.4092  -16.1257 C   0  0  0  0  0  0  0  0  0  0  0  0
   17.9305  -12.2975  -16.9722 C   0  0  0  0  0  0  0  0  0  0  0  0
   17.4167  -13.5317  -16.6628 C   0  0  0  0  0  0  0  0  0  0  0  0
   16.7201  -13.9764  -17.7257 N   0  0  0  0  0  0  0  0  0  0  0  0
   16.7881  -13.0517  -18.6906 C   0  0  0  0  0  0  0  0  0  0  0  0
   17.5256  -12.0268  -18.2356 N   0  0  0  0  0  0  0  0  0  0  0  0
   20.8495  -10.2190  -15.9599 C   0  0  0  0  0  0  0  0  0  0  0  0
   21.4098  -10.5781  -14.8617 O   0  0  0  0  0  0  0  0  0  0  0  0
   20.8957   -8.8764  -16.3944 N   0  0  0  0  0  0  0  0  0  0  0  0
   20.3270   -8.3801  -17.6148 C   0  0  0  0  0  0  0  0  0  0  0  0
   21.4207   -7.4022  -18.0474 C   0  0  0  0  0  0  0  0  0  0  0  0
   21.6607   -6.6610  -16.7519 C   0  0  0  0  0  0  0  0  0  0  0  0
   21.5101   -7.7636  -15.7145 C   0  0  1  0  0  0  0  0  0  0  0  0
   20.7228   -7.2678  -14.5673 C   0  0  0  0  0  0  0  0  0  0  0  0
   19.5227   -7.5904  -14.4674 O   0  0  0  0  0  0  0  0  0  0  0  0
   21.3020   -6.4513  -13.6018 O   0  0  0  0  0  0  0  0  0  0  0  0
  2  1  1  0
  3  2  2  0
  4  2  1  0
  5  4  1  0
  5  6  1  1
  7  5  1  0
  8  7  2  0
  9  7  1  0
 10  9  1  0
 11 12  1  0
 10 11  1  1
 12 13  2  0
 13 14  1  0
 15 14  1  0
 16 12  1  0
 16 15  2  0
 17 19  1  0
 17 10  1  0
 18 17  2  0
 19 20  1  0
 21 20  1  0
 22 21  1  0
 23 19  1  0
 23 22  1  0
 23 24  1  1
 24 26  1  0
 25 24  2  0
M  END
$$$$
