NHP.pdb
     RDKit          3D

 26 27  0  0  1  0  0  0  0  0999 V2000
   29.5756  -19.3396  -20.2808 N   0  0  0  0  0  0  0  0  0  0  0  0
   29.6487  -18.0225  -19.8011 C   0  0  0  0  0  0  0  0  0  0  0  0
   30.2862  -17.1526  -20.4429 O   0  0  0  0  0  0  0  0  0  0  0  0
   28.9842  -17.6292  -18.5386 C   0  0  0  0  0  0  0  0  0  0  0  0
   28.4896  -18.9193  -17.8970 C   0  0  2  0  0  0  0  0  0  0  0  0
   27.4480  -19.4306  -18.7707 N   0  0  0  0  0  0  0  0  0  0  0  0
   27.9350  -18.7208  -16.5469 C   0  0  0  0  0  0  0  0  0  0  0  0
   28.6679  -18.2132  -15.6329 O   0  0  0  0  0  0  0  0  0  0  0  0
   26.6109  -19.0764  -16.2331 N   0  0  0  0  0  0  0  0  0  0  0  0
   25.9973  -18.7311  -14.9434 C   0  0  1  0  0  0  0  0  0  0  0  0
   24.8037  -17.8032  -15.2217 C   0  0  0  0  0  0  0  0  0  0  0  0
   25.2888  -16.5156  -15.7642 C   0  0  0  0  0  0  0  0  0  0  0  0
   26.0059  -15.5377  -15.1220 C   0  0  0  0  0  0  0  0  0  0  0  0
   26.2400  -14.5428  -15.9985 N   0  0  0  0  0  0  0  0  0  0  0  0
   25.6854  -14.8748  -17.1702 C   0  0  0  0  0  0  0  0  0  0  0  0
   25.1040  -16.0765  -17.0316 N   0  0  0  0  0  0  0  0  0  0  0  0
   25.4321  -19.9667  -14.3556 C   0  0  0  0  0  0  0  0  0  0  0  0
   24.8735  -20.7788  -15.1785 O   0  0  0  0  0  0  0  0  0  0  0  0
   25.4928  -20.2578  -12.9753 N   0  0  0  0  0  0  0  0  0  0  0  0
   26.0997  -19.4232  -11.9781 C   0  0  0  0  0  0  0  0  0  0  0  0
   26.7740  -20.4850  -11.1076 C   0  0  0  0  0  0  0  0  0  0  0  0
   25.6415  -21.4730  -10.9450 C   0  0  0  0  0  0  0  0  0  0  0  0
   24.9702  -21.4246  -12.3095 C   0  0  1  0  0  0  0  0  0  0  0  0
   23.5026  -21.4002  -12.1449 C   0  0  0  0  0  0  0  0  0  0  0  0
   22.8954  -20.3169  -12.2556 O   0  0  0  0  0  0  0  0  0  0  0  0
   22.7941  -22.5652  -11.8713 O   0  0  0  0  0  0  0  0  0  0  0  0
  2  1  1  0
  3  2  2  0
  4  2  1  0
  5  4  1  0
  5  6  1  6
  7  5  1  0
  8  7  2  0
  9  7  1  0
 10  9  1  0
 11 12  1  0
 10 11  1  6
 12 13  2  0
 13 14  1  0
 15 14  1  0
 16 12  1  0
 16 15  2  0
 17 19  1  0
 17 10  1  0
 18 17  2  0
 19 20  1  0
 21 20  1  0
 22 21  1  0
 23 19  1  0
 23 22  1  0
 23 24  1  1
 24 26  1  0
 25 24  2  0
M  END
$$$$
