NHP.pdb
     RDKit          3D

 26 27  0  0  1  0  0  0  0  0999 V2000
   25.0590  -37.2222  -16.1801 N   0  0  0  0  0  0  0  0  0  0  0  0
   24.8626  -36.7271  -14.8816 C   0  0  0  0  0  0  0  0  0  0  0  0
   23.7142  -36.7236  -14.3755 O   0  0  0  0  0  0  0  0  0  0  0  0
   25.9923  -36.2003  -14.0837 C   0  0  0  0  0  0  0  0  0  0  0  0
   25.7270  -34.7116  -13.8999 C   0  0  2  0  0  0  0  0  0  0  0  0
   26.6975  -34.0233  -14.7332 N   0  0  0  0  0  0  0  0  0  0  0  0
   25.8808  -34.2621  -12.5055 C   0  0  0  0  0  0  0  0  0  0  0  0
   27.0034  -34.4110  -11.9157 O   0  0  0  0  0  0  0  0  0  0  0  0
   24.8190  -33.6686  -11.7998 N   0  0  0  0  0  0  0  0  0  0  0  0
   24.9624  -33.2249  -10.4064 C   0  0  1  0  0  0  0  0  0  0  0  0
   23.6321  -32.5868   -9.9746 C   0  0  0  0  0  0  0  0  0  0  0  0
   23.7452  -32.0884   -8.5867 C   0  0  0  0  0  0  0  0  0  0  0  0
   24.2366  -30.8828   -8.1528 C   0  0  0  0  0  0  0  0  0  0  0  0
   24.1418  -30.8480   -6.8103 N   0  0  0  0  0  0  0  0  0  0  0  0
   23.6055  -32.0020   -6.3959 C   0  0  0  0  0  0  0  0  0  0  0  0
   23.3628  -32.7612   -7.4757 N   0  0  0  0  0  0  0  0  0  0  0  0
   25.1411  -34.4236   -9.5563 C   0  0  0  0  0  0  0  0  0  0  0  0
   24.4469  -35.4540   -9.8806 O   0  0  0  0  0  0  0  0  0  0  0  0
   26.0179  -34.4567   -8.4501 N   0  0  0  0  0  0  0  0  0  0  0  0
   26.8461  -33.3682   -8.0161 C   0  0  0  0  0  0  0  0  0  0  0  0
   28.1224  -34.1268   -7.6478 C   0  0  0  0  0  0  0  0  0  0  0  0
   27.5475  -35.2573   -6.8252 C   0  0  0  0  0  0  0  0  0  0  0  0
   26.2505  -35.5652   -7.5584 C   0  0  1  0  0  0  0  0  0  0  0  0
   25.1613  -35.7741   -6.5829 C   0  0  0  0  0  0  0  0  0  0  0  0
   24.2240  -34.9536   -6.5318 O   0  0  0  0  0  0  0  0  0  0  0  0
   25.1682  -36.8702   -5.7269 O   0  0  0  0  0  0  0  0  0  0  0  0
  2  1  1  0
  3  2  2  0
  4  2  1  0
  5  4  1  0
  5  6  1  6
  7  5  1  0
  8  7  2  0
  9  7  1  0
 10  9  1  0
 11 12  1  0
 10 11  1  1
 12 13  2  0
 13 14  1  0
 15 14  1  0
 16 12  1  0
 16 15  2  0
 17 19  1  0
 17 10  1  0
 18 17  2  0
 19 20  1  0
 21 20  1  0
 22 21  1  0
 23 19  1  0
 23 22  1  0
 23 24  1  1
 24 26  1  0
 25 24  2  0
M  END
$$$$
