NHP.pdb
     RDKit          3D

 26 27  0  0  1  0  0  0  0  0999 V2000
   18.2043  -11.8446  -18.0310 N   0  0  0  0  0  0  0  0  0  0  0  0
   17.8674  -11.9813  -16.6753 C   0  0  0  0  0  0  0  0  0  0  0  0
   17.6534  -13.1191  -16.1909 O   0  0  0  0  0  0  0  0  0  0  0  0
   17.7555  -10.8000  -15.7909 C   0  0  0  0  0  0  0  0  0  0  0  0
   18.0382   -9.5847  -16.6648 C   0  0  2  0  0  0  0  0  0  0  0  0
   19.2890   -9.8623  -17.3493 N   0  0  0  0  0  0  0  0  0  0  0  0
   18.1739   -8.3355  -15.8960 C   0  0  0  0  0  0  0  0  0  0  0  0
   17.2094   -7.9424  -15.1574 O   0  0  0  0  0  0  0  0  0  0  0  0
   19.3442   -7.5577  -15.9518 N   0  0  0  0  0  0  0  0  0  0  0  0
   19.4863   -6.3097  -15.1892 C   0  0  1  0  0  0  0  0  0  0  0  0
   20.7947   -6.3933  -14.3865 C   0  0  0  0  0  0  0  0  0  0  0  0
   20.6442   -7.3719  -13.2877 C   0  0  0  0  0  0  0  0  0  0  0  0
   19.5457   -8.1292  -12.9672 C   0  0  0  0  0  0  0  0  0  0  0  0
   19.8549   -8.8888  -11.8994 N   0  0  0  0  0  0  0  0  0  0  0  0
   21.1176   -8.6229  -11.5450 C   0  0  0  0  0  0  0  0  0  0  0  0
   21.6023   -7.6983  -12.3884 N   0  0  0  0  0  0  0  0  0  0  0  0
   19.6618   -5.1982  -16.1511 C   0  0  0  0  0  0  0  0  0  0  0  0
   20.2063   -5.5036  -17.2732 O   0  0  0  0  0  0  0  0  0  0  0  0
   19.2606   -3.8730  -15.8747 N   0  0  0  0  0  0  0  0  0  0  0  0
   18.6293   -3.4338  -14.6632 C   0  0  0  0  0  0  0  0  0  0  0  0
   17.5991   -2.4562  -15.2316 C   0  0  0  0  0  0  0  0  0  0  0  0
   18.4641   -1.6614  -16.1832 C   0  0  0  0  0  0  0  0  0  0  0  0
   19.4016   -2.7250  -16.7350 C   0  0  1  0  0  0  0  0  0  0  0  0
   20.7800   -2.1973  -16.7908 C   0  0  0  0  0  0  0  0  0  0  0  0
   21.6004   -2.5435  -15.9181 O   0  0  0  0  0  0  0  0  0  0  0  0
   21.1717   -1.3252  -17.8008 O   0  0  0  0  0  0  0  0  0  0  0  0
  2  1  1  0
  3  2  2  0
  4  2  1  0
  5  4  1  0
  5  6  1  1
  7  5  1  0
  8  7  2  0
  9  7  1  0
 10  9  1  0
 11 12  1  0
 10 11  1  1
 12 13  2  0
 13 14  1  0
 15 14  1  0
 16 12  1  0
 16 15  2  0
 17 19  1  0
 17 10  1  0
 18 17  2  0
 19 20  1  0
 21 20  1  0
 22 21  1  0
 23 19  1  0
 23 22  1  0
 23 24  1  1
 24 26  1  0
 25 24  2  0
M  END
$$$$
