INP.pdb
     RDKit          3D

 24 24  0  0  1  0  0  0  0  0999 V2000
    8.0594  -12.0985   18.7340 C   0  0  0  0  0  0  0  0  0  0  0  0
    8.3092  -13.4797   19.1971 C   0  0  0  0  0  0  0  0  0  0  0  0
    7.8225  -13.8947   20.5253 C   0  0  2  0  0  0  0  0  0  0  0  0
    8.3701  -12.9808   21.6310 C   0  0  0  0  0  0  0  0  0  0  0  0
    7.9602  -15.3038   20.9533 C   0  0  2  0  0  0  0  0  0  0  0  0
    7.2302  -16.1066   19.9268 N   0  0  0  0  0  0  0  0  0  0  0  0
    7.4549  -15.6725   22.2808 C   0  0  0  0  0  0  0  0  0  0  0  0
    6.2664  -15.9277   22.4831 O   0  0  0  0  0  0  0  0  0  0  0  0
    7.3171  -19.2782   26.3736 N   0  0  0  0  0  0  0  0  0  0  0  0
    6.9009  -17.9589   26.0440 C   0  0  0  0  0  0  0  0  0  0  0  0
    6.2171  -17.3663   26.9078 O   0  0  0  0  0  0  0  0  0  0  0  0
    7.2757  -17.3863   24.7691 C   0  0  0  0  0  0  0  0  0  0  0  0
    7.8821  -16.0194   24.7707 C   0  0  2  0  0  0  0  0  0  0  0  0
    8.3368  -15.7455   23.3769 N   0  0  0  0  0  0  0  0  0  0  0  0
    9.0809  -15.8235   25.5782 C   0  0  0  0  0  0  0  0  0  0  0  0
   10.1375  -16.4353   25.0982 O   0  0  0  0  0  0  0  0  0  0  0  0
    9.3113  -15.1047   26.7614 N   0  0  0  0  0  0  0  0  0  0  0  0
    8.4715  -14.2548   27.5454 C   0  0  0  0  0  0  0  0  0  0  0  0
    9.3407  -13.3948   28.4333 C   0  0  0  0  0  0  0  0  0  0  0  0
   10.7592  -13.7063   28.0323 C   0  0  0  0  0  0  0  0  0  0  0  0
   10.6127  -15.1049   27.4832 C   0  0  1  0  0  0  0  0  0  0  0  0
   10.5790  -16.0347   28.6290 C   0  0  0  0  0  0  0  0  0  0  0  0
   11.4709  -16.0273   29.4912 O   0  0  0  0  0  0  0  0  0  0  0  0
    9.5355  -16.9250   28.7401 O   0  0  0  0  0  0  0  0  0  0  0  0
  1  2  1  0
  3  5  1  0
  3  2  1  0
  3  4  1  1
  5  6  1  6
  7  5  1  0
  7  8  2  0
 10 12  1  0
 10  9  1  0
 11 10  2  0
 13 12  1  6
 13 14  1  0
 14  7  1  0
 15 17  1  0
 15 13  1  0
 16 15  2  0
 17 18  1  0
 18 19  1  0
 19 20  1  0
 21 17  1  0
 21 22  1  1
 21 20  1  0
 22 24  1  0
 23 22  2  0
M  END
$$$$
