INP.pdb
     RDKit          3D

 24 24  0  0  1  0  0  0  0  0999 V2000
    8.2505  -12.0818   18.4704 C   0  0  0  0  0  0  0  0  0  0  0  0
    8.3888  -13.4661   18.9696 C   0  0  0  0  0  0  0  0  0  0  0  0
    7.9024  -13.7979   20.3211 C   0  0  2  0  0  0  0  0  0  0  0  0
    8.4767  -12.8373   21.3724 C   0  0  0  0  0  0  0  0  0  0  0  0
    8.0132  -15.1843   20.8244 C   0  0  2  0  0  0  0  0  0  0  0  0
    7.2705  -16.0274   19.8403 N   0  0  0  0  0  0  0  0  0  0  0  0
    7.4987  -15.4720   22.1683 C   0  0  0  0  0  0  0  0  0  0  0  0
    6.3101  -15.3284   22.4607 O   0  0  0  0  0  0  0  0  0  0  0  0
    6.1406  -18.9558   22.9792 N   0  0  0  0  0  0  0  0  0  0  0  0
    6.2389  -18.0481   24.0695 C   0  0  0  0  0  0  0  0  0  0  0  0
    5.1567  -17.6125   24.5213 O   0  0  0  0  0  0  0  0  0  0  0  0
    7.5412  -17.6851   24.5850 C   0  0  0  0  0  0  0  0  0  0  0  0
    7.9207  -16.2388   24.5633 C   0  0  2  0  0  0  0  0  0  0  0  0
    8.3708  -15.9298   23.1754 N   0  0  0  0  0  0  0  0  0  0  0  0
    9.0457  -15.8327   25.3982 C   0  0  0  0  0  0  0  0  0  0  0  0
   10.2084  -16.2170   24.9276 O   0  0  0  0  0  0  0  0  0  0  0  0
    9.1134  -15.1100   26.5993 N   0  0  0  0  0  0  0  0  0  0  0  0
    8.1123  -14.4569   27.3825 C   0  0  0  0  0  0  0  0  0  0  0  0
    8.7839  -13.4653   28.3041 C   0  0  0  0  0  0  0  0  0  0  0  0
   10.2421  -13.4870   27.9256 C   0  0  0  0  0  0  0  0  0  0  0  0
   10.3784  -14.8746   27.3469 C   0  0  1  0  0  0  0  0  0  0  0  0
   10.5075  -15.8192   28.4737 C   0  0  0  0  0  0  0  0  0  0  0  0
    9.6131  -16.6388   28.7331 O   0  0  0  0  0  0  0  0  0  0  0  0
   11.6443  -15.7878   29.2487 O   0  0  0  0  0  0  0  0  0  0  0  0
  1  2  1  0
  3  5  1  0
  3  2  1  0
  3  4  1  1
  5  6  1  6
  7  5  1  0
  7  8  2  0
 10 12  1  0
 10  9  1  0
 11 10  2  0
 13 12  1  6
 13 14  1  0
 14  7  1  0
 15 17  1  0
 15 13  1  0
 16 15  2  0
 17 18  1  0
 18 19  1  0
 19 20  1  0
 21 17  1  0
 21 22  1  1
 21 20  1  0
 22 24  1  0
 23 22  2  0
M  END
$$$$
