INP.pdb
     RDKit          3D

 24 24  0  0  1  0  0  0  0  0999 V2000
    8.3064  -11.6647   19.1598 C   0  0  0  0  0  0  0  0  0  0  0  0
    8.0452  -13.1013   19.3890 C   0  0  0  0  0  0  0  0  0  0  0  0
    9.1481  -13.9737   19.8315 C   0  0  2  0  0  0  0  0  0  0  0  0
   10.3511  -13.8775   18.8822 C   0  0  0  0  0  0  0  0  0  0  0  0
    8.8855  -15.3977   20.1331 C   0  0  2  0  0  0  0  0  0  0  0  0
    8.3452  -15.9812   18.8688 N   0  0  0  0  0  0  0  0  0  0  0  0
    7.9572  -15.7101   21.2259 C   0  0  0  0  0  0  0  0  0  0  0  0
    6.8909  -16.2974   21.0337 O   0  0  0  0  0  0  0  0  0  0  0  0
    7.1031  -17.4521   26.1835 N   0  0  0  0  0  0  0  0  0  0  0  0
    6.6086  -17.7517   24.8843 C   0  0  0  0  0  0  0  0  0  0  0  0
    5.6375  -18.5389   24.8339 O   0  0  0  0  0  0  0  0  0  0  0  0
    7.2316  -17.1524   23.7240 C   0  0  0  0  0  0  0  0  0  0  0  0
    7.4026  -15.6669   23.7145 C   0  0  2  0  0  0  0  0  0  0  0  0
    8.2716  -15.3383   22.5478 N   0  0  0  0  0  0  0  0  0  0  0  0
    8.0953  -15.0689   24.8504 C   0  0  0  0  0  0  0  0  0  0  0  0
    9.3913  -15.2715   24.8351 O   0  0  0  0  0  0  0  0  0  0  0  0
    7.6356  -14.3203   25.9449 N   0  0  0  0  0  0  0  0  0  0  0  0
    6.3211  -14.0455   26.4337 C   0  0  0  0  0  0  0  0  0  0  0  0
    6.3805  -12.8381   27.3405 C   0  0  0  0  0  0  0  0  0  0  0  0
    7.8004  -12.3414   27.2577 C   0  0  0  0  0  0  0  0  0  0  0  0
    8.5371  -13.6065   26.8895 C   0  0  1  0  0  0  0  0  0  0  0  0
    8.7296  -14.3888   28.1262 C   0  0  0  0  0  0  0  0  0  0  0  0
    8.1769  -15.4879   28.2860 O   0  0  0  0  0  0  0  0  0  0  0  0
    9.5398  -13.8864   29.1187 O   0  0  0  0  0  0  0  0  0  0  0  0
  1  2  1  0
  3  5  1  0
  3  2  1  0
  3  4  1  6
  5  6  1  6
  7  5  1  0
  7  8  2  0
 10 12  1  0
 10  9  1  0
 11 10  2  0
 13 12  1  1
 13 14  1  0
 14  7  1  0
 15 17  1  0
 15 13  1  0
 16 15  2  0
 17 18  1  0
 18 19  1  0
 19 20  1  0
 21 17  1  0
 21 22  1  1
 21 20  1  0
 22 24  1  0
 23 22  2  0
M  END
$$$$
