INP.pdb
     RDKit          3D

 24 24  0  0  1  0  0  0  0  0999 V2000
    8.0652  -12.0677   18.2942 C   0  0  0  0  0  0  0  0  0  0  0  0
    8.2756  -13.4304   18.8264 C   0  0  0  0  0  0  0  0  0  0  0  0
    7.6998  -13.7912   20.1347 C   0  0  2  0  0  0  0  0  0  0  0  0
    8.1630  -12.8245   21.2340 C   0  0  0  0  0  0  0  0  0  0  0  0
    7.8159  -15.1788   20.6335 C   0  0  2  0  0  0  0  0  0  0  0  0
    7.1699  -16.0332   19.5926 N   0  0  0  0  0  0  0  0  0  0  0  0
    7.2166  -15.4947   21.9352 C   0  0  0  0  0  0  0  0  0  0  0  0
    6.0038  -15.4104   22.1373 O   0  0  0  0  0  0  0  0  0  0  0  0
    6.7502  -17.4653   26.8202 N   0  0  0  0  0  0  0  0  0  0  0  0
    7.0344  -18.3119   25.7134 C   0  0  0  0  0  0  0  0  0  0  0  0
    6.9305  -19.5412   25.9207 O   0  0  0  0  0  0  0  0  0  0  0  0
    7.4171  -17.7299   24.4451 C   0  0  0  0  0  0  0  0  0  0  0  0
    7.4954  -16.2391   24.3581 C   0  0  2  0  0  0  0  0  0  0  0  0
    8.0319  -15.9116   23.0056 N   0  0  0  0  0  0  0  0  0  0  0  0
    8.4098  -15.5657   25.2734 C   0  0  0  0  0  0  0  0  0  0  0  0
    9.6728  -15.7161   24.9519 O   0  0  0  0  0  0  0  0  0  0  0  0
    8.1897  -14.7903   26.4224 N   0  0  0  0  0  0  0  0  0  0  0  0
    6.9951  -14.4181   27.1129 C   0  0  0  0  0  0  0  0  0  0  0  0
    7.2910  -13.2240   27.9906 C   0  0  0  0  0  0  0  0  0  0  0  0
    8.7134  -12.8373   27.6788 C   0  0  0  0  0  0  0  0  0  0  0  0
    9.2826  -14.1533   27.2061 C   0  0  1  0  0  0  0  0  0  0  0  0
    9.6095  -14.9551   28.4014 C   0  0  0  0  0  0  0  0  0  0  0  0
    8.9894  -15.9958   28.6685 O   0  0  0  0  0  0  0  0  0  0  0  0
   10.6235  -14.5374   29.2328 O   0  0  0  0  0  0  0  0  0  0  0  0
  1  2  1  0
  3  5  1  0
  3  2  1  0
  3  4  1  1
  5  6  1  6
  7  5  1  0
  7  8  2  0
 10 12  1  0
 10  9  1  0
 11 10  2  0
 13 12  1  1
 13 14  1  0
 14  7  1  0
 15 17  1  0
 15 13  1  0
 16 15  2  0
 17 18  1  0
 18 19  1  0
 19 20  1  0
 21 17  1  0
 21 22  1  1
 21 20  1  0
 22 24  1  0
 23 22  2  0
M  END
$$$$
