INP.pdb
     RDKit          3D

 24 24  0  0  1  0  0  0  0  0999 V2000
    7.8782  -12.0609   18.5887 C   0  0  0  0  0  0  0  0  0  0  0  0
    8.1273  -13.4149   19.1264 C   0  0  0  0  0  0  0  0  0  0  0  0
    7.6842  -13.7409   20.4942 C   0  0  2  0  0  0  0  0  0  0  0  0
    8.2185  -12.7226   21.5117 C   0  0  0  0  0  0  0  0  0  0  0  0
    7.8850  -15.1056   21.0280 C   0  0  2  0  0  0  0  0  0  0  0  0
    7.2107  -16.0182   20.0568 N   0  0  0  0  0  0  0  0  0  0  0  0
    7.3792  -15.3996   22.3739 C   0  0  0  0  0  0  0  0  0  0  0  0
    6.2048  -15.2030   22.6912 O   0  0  0  0  0  0  0  0  0  0  0  0
    7.6919  -19.1954   26.6987 N   0  0  0  0  0  0  0  0  0  0  0  0
    7.0942  -17.9773   26.2726 C   0  0  0  0  0  0  0  0  0  0  0  0
    6.3751  -17.3941   27.1140 O   0  0  0  0  0  0  0  0  0  0  0  0
    7.3383  -17.4890   24.9326 C   0  0  0  0  0  0  0  0  0  0  0  0
    7.8494  -16.0917   24.7827 C   0  0  2  0  0  0  0  0  0  0  0  0
    8.2437  -15.9256   23.3540 N   0  0  0  0  0  0  0  0  0  0  0  0
    9.0547  -15.7402   25.5250 C   0  0  0  0  0  0  0  0  0  0  0  0
   10.1562  -16.1899   24.9722 O   0  0  0  0  0  0  0  0  0  0  0  0
    9.2521  -15.0129   26.7090 N   0  0  0  0  0  0  0  0  0  0  0  0
    8.3656  -14.2320   27.5130 C   0  0  0  0  0  0  0  0  0  0  0  0
    9.1844  -13.3149   28.3919 C   0  0  0  0  0  0  0  0  0  0  0  0
   10.6147  -13.5183   27.9646 C   0  0  0  0  0  0  0  0  0  0  0  0
   10.5624  -14.9208   27.4084 C   0  0  1  0  0  0  0  0  0  0  0  0
   10.6176  -15.8570   28.5482 C   0  0  0  0  0  0  0  0  0  0  0  0
    9.6486  -16.5744   28.8403 O   0  0  0  0  0  0  0  0  0  0  0  0
   11.7687  -15.9335   29.2986 O   0  0  0  0  0  0  0  0  0  0  0  0
  1  2  1  0
  3  5  1  0
  3  2  1  0
  3  4  1  1
  5  6  1  6
  7  5  1  0
  7  8  2  0
 10 12  1  0
 10  9  1  0
 11 10  2  0
 13 12  1  6
 13 14  1  0
 14  7  1  0
 15 17  1  0
 15 13  1  0
 16 15  2  0
 17 18  1  0
 18 19  1  0
 19 20  1  0
 21 17  1  0
 21 22  1  1
 21 20  1  0
 22 24  1  0
 23 22  2  0
M  END
$$$$
