INP.pdb
     RDKit          3D

 24 24  0  0  1  0  0  0  0  0999 V2000
    6.6606  -11.6303   26.3580 C   0  0  0  0  0  0  0  0  0  0  0  0
    6.5343  -12.9212   25.6493 C   0  0  0  0  0  0  0  0  0  0  0  0
    7.4728  -13.2404   24.5581 C   0  0  2  0  0  0  0  0  0  0  0  0
    7.4166  -12.1827   23.4465 C   0  0  0  0  0  0  0  0  0  0  0  0
    7.4583  -14.5857   23.9438 C   0  0  2  0  0  0  0  0  0  0  0  0
    6.0438  -14.8188   23.5248 N   0  0  0  0  0  0  0  0  0  0  0  0
    7.8959  -15.7215   24.7635 C   0  0  0  0  0  0  0  0  0  0  0  0
    7.1090  -16.3806   25.4455 O   0  0  0  0  0  0  0  0  0  0  0  0
    9.8633  -18.8948   22.4483 N   0  0  0  0  0  0  0  0  0  0  0  0
    9.5923  -18.9213   23.8441 C   0  0  0  0  0  0  0  0  0  0  0  0
    8.6084  -19.6072   24.2001 O   0  0  0  0  0  0  0  0  0  0  0  0
   10.4385  -18.1789   24.7531 C   0  0  0  0  0  0  0  0  0  0  0  0
    9.7850  -17.1829   25.6570 C   0  0  2  0  0  0  0  0  0  0  0  0
    9.2547  -16.0924   24.7887 N   0  0  0  0  0  0  0  0  0  0  0  0
   10.6407  -16.4889   26.6128 C   0  0  0  0  0  0  0  0  0  0  0  0
   11.6743  -15.9032   26.0565 O   0  0  0  0  0  0  0  0  0  0  0  0
   10.5609  -16.3304   28.0051 N   0  0  0  0  0  0  0  0  0  0  0  0
    9.5090  -16.5810   28.9394 C   0  0  0  0  0  0  0  0  0  0  0  0
    9.7938  -15.8160   30.2111 C   0  0  0  0  0  0  0  0  0  0  0  0
   11.0243  -14.9964   29.9215 C   0  0  0  0  0  0  0  0  0  0  0  0
   11.6817  -15.8190   28.8398 C   0  0  1  0  0  0  0  0  0  0  0  0
   12.3991  -16.9298   29.4955 C   0  0  0  0  0  0  0  0  0  0  0  0
   12.0122  -18.1030   29.3816 O   0  0  0  0  0  0  0  0  0  0  0  0
   13.5194  -16.6549   30.2460 O   0  0  0  0  0  0  0  0  0  0  0  0
  1  2  1  0
  3  5  1  0
  3  2  1  0
  3  4  1  6
  5  6  1  1
  7  5  1  0
  7  8  2  0
 10 12  1  0
 10  9  1  0
 11 10  2  0
 13 12  1  6
 13 14  1  0
 14  7  1  0
 15 17  1  0
 15 13  1  0
 16 15  2  0
 17 18  1  0
 18 19  1  0
 19 20  1  0
 21 17  1  0
 21 22  1  1
 21 20  1  0
 22 24  1  0
 23 22  2  0
M  END
$$$$
