INP.pdb
     RDKit          3D

 24 24  0  0  1  0  0  0  0  0999 V2000
    8.1672  -11.9867   18.1971 C   0  0  0  0  0  0  0  0  0  0  0  0
    8.4627  -13.3129   18.7789 C   0  0  0  0  0  0  0  0  0  0  0  0
    7.6413  -13.8093   19.8980 C   0  0  2  0  0  0  0  0  0  0  0  0
    7.6149  -12.8051   21.0593 C   0  0  0  0  0  0  0  0  0  0  0  0
    7.8761  -15.1655   20.4394 C   0  0  2  0  0  0  0  0  0  0  0  0
    7.4498  -16.1062   19.3604 N   0  0  0  0  0  0  0  0  0  0  0  0
    7.1907  -15.5387   21.6822 C   0  0  0  0  0  0  0  0  0  0  0  0
    5.9708  -15.4288   21.8175 O   0  0  0  0  0  0  0  0  0  0  0  0
    6.5256  -17.2035   26.6823 N   0  0  0  0  0  0  0  0  0  0  0  0
    6.7649  -18.1527   25.6507 C   0  0  0  0  0  0  0  0  0  0  0  0
    6.5560  -19.3502   25.9464 O   0  0  0  0  0  0  0  0  0  0  0  0
    7.2229  -17.7024   24.3541 C   0  0  0  0  0  0  0  0  0  0  0  0
    7.3464  -16.2287   24.1321 C   0  0  2  0  0  0  0  0  0  0  0  0
    7.9282  -16.0428   22.7715 N   0  0  0  0  0  0  0  0  0  0  0  0
    8.2549  -15.4971   25.0078 C   0  0  0  0  0  0  0  0  0  0  0  0
    9.5211  -15.7041   24.7341 O   0  0  0  0  0  0  0  0  0  0  0  0
    8.0264  -14.6174   26.0772 N   0  0  0  0  0  0  0  0  0  0  0  0
    6.8244  -14.1167   26.6662 C   0  0  0  0  0  0  0  0  0  0  0  0
    7.1520  -12.8747   27.4623 C   0  0  0  0  0  0  0  0  0  0  0  0
    8.6112  -12.6033   27.2034 C   0  0  0  0  0  0  0  0  0  0  0  0
    9.1163  -13.9862   26.8698 C   0  0  1  0  0  0  0  0  0  0  0  0
    9.3266  -14.7052   28.1416 C   0  0  0  0  0  0  0  0  0  0  0  0
    8.6081  -15.6628   28.4667 O   0  0  0  0  0  0  0  0  0  0  0  0
   10.3412  -14.3031   28.9798 O   0  0  0  0  0  0  0  0  0  0  0  0
  1  2  1  0
  3  5  1  0
  3  2  1  0
  3  4  1  1
  5  6  1  6
  7  5  1  0
  7  8  2  0
 10 12  1  0
 10  9  1  0
 11 10  2  0
 13 12  1  1
 13 14  1  0
 14  7  1  0
 15 17  1  0
 15 13  1  0
 16 15  2  0
 17 18  1  0
 18 19  1  0
 19 20  1  0
 21 17  1  0
 21 22  1  1
 21 20  1  0
 22 24  1  0
 23 22  2  0
M  END
$$$$
