INP.pdb
     RDKit          3D

 24 24  0  0  1  0  0  0  0  0999 V2000
    8.4043  -12.2229   18.2580 C   0  0  0  0  0  0  0  0  0  0  0  0
    8.4520  -13.6140   18.7552 C   0  0  0  0  0  0  0  0  0  0  0  0
    7.8128  -13.9427   20.0424 C   0  0  2  0  0  0  0  0  0  0  0  0
    8.3496  -13.0554   21.1748 C   0  0  0  0  0  0  0  0  0  0  0  0
    7.7728  -15.3460   20.5080 C   0  0  2  0  0  0  0  0  0  0  0  0
    7.0218  -16.0950   19.4564 N   0  0  0  0  0  0  0  0  0  0  0  0
    7.1540  -15.6218   21.8098 C   0  0  0  0  0  0  0  0  0  0  0  0
    5.9345  -15.7354   21.9460 O   0  0  0  0  0  0  0  0  0  0  0  0
    6.5766  -17.3978   26.7076 N   0  0  0  0  0  0  0  0  0  0  0  0
    6.9879  -18.2236   25.6253 C   0  0  0  0  0  0  0  0  0  0  0  0
    6.9721  -19.4564   25.8377 O   0  0  0  0  0  0  0  0  0  0  0  0
    7.3910  -17.6183   24.3744 C   0  0  0  0  0  0  0  0  0  0  0  0
    7.4081  -16.1251   24.2967 C   0  0  2  0  0  0  0  0  0  0  0  0
    7.9580  -15.7672   22.9574 N   0  0  0  0  0  0  0  0  0  0  0  0
    8.2742  -15.4192   25.2343 C   0  0  0  0  0  0  0  0  0  0  0  0
    9.5515  -15.5627   24.9721 O   0  0  0  0  0  0  0  0  0  0  0  0
    7.9955  -14.6189   26.3531 N   0  0  0  0  0  0  0  0  0  0  0  0
    6.7684  -14.2513   26.9866 C   0  0  0  0  0  0  0  0  0  0  0  0
    7.0087  -13.0300   27.8435 C   0  0  0  0  0  0  0  0  0  0  0  0
    8.4353  -12.6253   27.5773 C   0  0  0  0  0  0  0  0  0  0  0  0
    9.0455  -13.9421   27.1617 C   0  0  1  0  0  0  0  0  0  0  0  0
    9.3390  -14.7070   28.3895 C   0  0  0  0  0  0  0  0  0  0  0  0
    8.7238  -15.7493   28.6618 O   0  0  0  0  0  0  0  0  0  0  0  0
   10.3158  -14.2525   29.2458 O   0  0  0  0  0  0  0  0  0  0  0  0
  1  2  1  0
  3  5  1  0
  3  2  1  0
  3  4  1  1
  5  6  1  6
  7  5  1  0
  7  8  2  0
 10 12  1  0
 10  9  1  0
 11 10  2  0
 13 12  1  1
 13 14  1  0
 14  7  1  0
 15 17  1  0
 15 13  1  0
 16 15  2  0
 17 18  1  0
 18 19  1  0
 19 20  1  0
 21 17  1  0
 21 22  1  1
 21 20  1  0
 22 24  1  0
 23 22  2  0
M  END
$$$$
