INP.pdb
     RDKit          3D

 24 24  0  0  1  0  0  0  0  0999 V2000
    7.8408  -11.9747   18.8906 C   0  0  0  0  0  0  0  0  0  0  0  0
    8.0362  -13.3823   19.2971 C   0  0  0  0  0  0  0  0  0  0  0  0
    7.5458  -13.8279   20.6140 C   0  0  2  0  0  0  0  0  0  0  0  0
    8.1194  -12.9625   21.7452 C   0  0  0  0  0  0  0  0  0  0  0  0
    7.6524  -15.2527   20.9964 C   0  0  2  0  0  0  0  0  0  0  0  0
    6.7987  -15.9937   20.0202 N   0  0  0  0  0  0  0  0  0  0  0  0
    7.2468  -15.6331   22.3545 C   0  0  0  0  0  0  0  0  0  0  0  0
    6.0643  -15.6744   22.6991 O   0  0  0  0  0  0  0  0  0  0  0  0
    6.2620  -19.2456   26.2488 N   0  0  0  0  0  0  0  0  0  0  0  0
    7.3871  -18.3993   26.0483 C   0  0  0  0  0  0  0  0  0  0  0  0
    8.1405  -18.2435   27.0349 O   0  0  0  0  0  0  0  0  0  0  0  0
    7.5981  -17.7807   24.7574 C   0  0  0  0  0  0  0  0  0  0  0  0
    7.8879  -16.3140   24.7268 C   0  0  2  0  0  0  0  0  0  0  0  0
    8.2215  -15.9677   23.3150 N   0  0  0  0  0  0  0  0  0  0  0  0
    9.0417  -15.8470   25.4872 C   0  0  0  0  0  0  0  0  0  0  0  0
   10.1897  -16.2138   24.9689 O   0  0  0  0  0  0  0  0  0  0  0  0
    9.1495  -15.0814   26.6584 N   0  0  0  0  0  0  0  0  0  0  0  0
    8.1709  -14.4300   27.4710 C   0  0  0  0  0  0  0  0  0  0  0  0
    8.8589  -13.3884   28.3225 C   0  0  0  0  0  0  0  0  0  0  0  0
   10.2956  -13.3820   27.8690 C   0  0  0  0  0  0  0  0  0  0  0  0
   10.4437  -14.7844   27.3303 C   0  0  1  0  0  0  0  0  0  0  0  0
   10.6590  -15.6852   28.4795 C   0  0  0  0  0  0  0  0  0  0  0  0
    9.8123  -16.5329   28.8013 O   0  0  0  0  0  0  0  0  0  0  0  0
   11.8237  -15.5804   29.2052 O   0  0  0  0  0  0  0  0  0  0  0  0
  1  2  1  0
  3  5  1  0
  3  2  1  0
  3  4  1  1
  5  6  1  6
  7  5  1  0
  7  8  2  0
 10 12  1  0
 10  9  1  0
 11 10  2  0
 13 12  1  6
 13 14  1  0
 14  7  1  0
 15 17  1  0
 15 13  1  0
 16 15  2  0
 17 18  1  0
 18 19  1  0
 19 20  1  0
 21 17  1  0
 21 22  1  1
 21 20  1  0
 22 24  1  0
 23 22  2  0
M  END
$$$$
