INP.pdb
     RDKit          3D

 24 24  0  0  1  0  0  0  0  0999 V2000
    8.3495  -12.0394   18.1657 C   0  0  0  0  0  0  0  0  0  0  0  0
    8.4987  -13.4087   18.7017 C   0  0  0  0  0  0  0  0  0  0  0  0
    7.8135  -13.7715   19.9555 C   0  0  2  0  0  0  0  0  0  0  0  0
    8.1993  -12.8207   21.0978 C   0  0  0  0  0  0  0  0  0  0  0  0
    7.8693  -15.1647   20.4492 C   0  0  2  0  0  0  0  0  0  0  0  0
    7.2304  -15.9926   19.3828 N   0  0  0  0  0  0  0  0  0  0  0  0
    7.2185  -15.4681   21.7290 C   0  0  0  0  0  0  0  0  0  0  0  0
    5.9981  -15.6077   21.8280 O   0  0  0  0  0  0  0  0  0  0  0  0
    6.8866  -17.2374   26.7200 N   0  0  0  0  0  0  0  0  0  0  0  0
    7.0371  -18.0590   25.5690 C   0  0  0  0  0  0  0  0  0  0  0  0
    6.8880  -19.2882   25.7478 O   0  0  0  0  0  0  0  0  0  0  0  0
    7.3451  -17.4538   24.2913 C   0  0  0  0  0  0  0  0  0  0  0  0
    7.4051  -15.9611   24.2239 C   0  0  2  0  0  0  0  0  0  0  0  0
    7.9914  -15.6106   22.8981 N   0  0  0  0  0  0  0  0  0  0  0  0
    8.2716  -15.2854   25.1831 C   0  0  0  0  0  0  0  0  0  0  0  0
    9.5492  -15.4830   24.9597 O   0  0  0  0  0  0  0  0  0  0  0  0
    7.9934  -14.4672   26.2890 N   0  0  0  0  0  0  0  0  0  0  0  0
    6.7661  -13.9826   26.8379 C   0  0  0  0  0  0  0  0  0  0  0  0
    7.0635  -12.7958   27.7247 C   0  0  0  0  0  0  0  0  0  0  0  0
    8.5386  -12.5335   27.5659 C   0  0  0  0  0  0  0  0  0  0  0  0
    9.0440  -13.9023   27.1787 C   0  0  1  0  0  0  0  0  0  0  0  0
    9.1711  -14.6990   28.4147 C   0  0  0  0  0  0  0  0  0  0  0  0
    8.4343  -15.6730   28.6321 O   0  0  0  0  0  0  0  0  0  0  0  0
   10.1278  -14.3521   29.3411 O   0  0  0  0  0  0  0  0  0  0  0  0
  1  2  1  0
  3  5  1  0
  3  2  1  0
  3  4  1  1
  5  6  1  6
  7  5  1  0
  7  8  2  0
 10 12  1  0
 10  9  1  0
 11 10  2  0
 13 12  1  1
 13 14  1  0
 14  7  1  0
 15 17  1  0
 15 13  1  0
 16 15  2  0
 17 18  1  0
 18 19  1  0
 19 20  1  0
 21 17  1  0
 21 22  1  1
 21 20  1  0
 22 24  1  0
 23 22  2  0
M  END
$$$$
