NGH.pdb
     RDKit          3D

 23 23  0  0  1  0  0  0  0  0999 V2000
   26.0741  -21.3394  -22.0698 N   0  0  0  0  0  0  0  0  0  0  0  0
   25.7250  -20.0801  -21.5227 C   0  0  0  0  0  0  0  0  0  0  0  0
   25.3367  -19.1793  -22.3026 O   0  0  0  0  0  0  0  0  0  0  0  0
   25.8330  -19.8824  -20.0662 C   0  0  0  0  0  0  0  0  0  0  0  0
   26.9291  -18.8591  -19.8318 C   0  0  2  0  0  0  0  0  0  0  0  0
   28.2315  -19.4399  -20.0425 N   0  0  0  0  0  0  0  0  0  0  0  0
   26.8190  -18.3935  -18.4326 C   0  0  0  0  0  0  0  0  0  0  0  0
   25.7454  -17.8373  -18.0174 O   0  0  0  0  0  0  0  0  0  0  0  0
   27.9136  -18.5690  -17.5586 N   0  0  0  0  0  0  0  0  0  0  0  0
   27.8396  -17.9872  -16.2536 C   0  0  0  0  0  0  0  0  0  0  0  0
   27.1539  -18.9447  -15.3445 C   0  0  0  0  0  0  0  0  0  0  0  0
   27.0985  -20.1743  -15.6089 O   0  0  0  0  0  0  0  0  0  0  0  0
   26.5241  -18.5097  -14.1254 N   0  0  0  0  0  0  0  0  0  0  0  0
   26.0137  -19.4495  -13.1623 C   0  0  1  0  0  0  0  0  0  0  0  0
   26.4200  -19.0845  -11.7524 C   0  0  0  0  0  0  0  0  0  0  0  0
   25.8260  -19.9964  -10.7517 C   0  0  0  0  0  0  0  0  0  0  0  0
   26.2876  -21.2778  -10.4981 C   0  0  0  0  0  0  0  0  0  0  0  0
   25.5274  -21.8398   -9.5300 N   0  0  0  0  0  0  0  0  0  0  0  0
   24.6139  -20.9317   -9.1882 C   0  0  0  0  0  0  0  0  0  0  0  0
   24.7875  -19.8220   -9.9181 N   0  0  0  0  0  0  0  0  0  0  0  0
   24.5652  -19.6173  -13.3107 C   0  0  0  0  0  0  0  0  0  0  0  0
   23.8915  -18.6953  -13.8321 O   0  0  0  0  0  0  0  0  0  0  0  0
   23.8875  -20.7562  -12.9005 O   0  0  0  0  0  0  0  0  0  0  0  0
  2  1  1  0
  3  2  2  0
  4  2  1  0
  4  5  1  0
  5  7  1  0
  5  6  1  1
  7  9  1  0
  7  8  2  0
  9 10  1  0
 10 11  1  0
 11 12  2  0
 13 11  1  0
 13 14  1  0
 14 15  1  1
 15 16  1  0
 16 17  2  0
 17 18  1  0
 19 18  1  0
 20 16  1  0
 20 19  2  0
 21 14  1  0
 21 23  1  0
 22 21  2  0
M  END
$$$$
