NGH.pdb
     RDKit          3D

 23 23  0  0  1  0  0  0  0  0999 V2000
   23.6820  -31.3898   -7.3143 N   0  0  0  0  0  0  0  0  0  0  0  0
   23.1994  -32.6381   -7.7791 C   0  0  0  0  0  0  0  0  0  0  0  0
   21.9720  -32.8736   -7.6863 O   0  0  0  0  0  0  0  0  0  0  0  0
   24.1562  -33.6035   -8.3490 C   0  0  0  0  0  0  0  0  0  0  0  0
   25.5257  -32.9497   -8.3189 C   0  0  2  0  0  0  0  0  0  0  0  0
   25.9737  -32.6282   -9.6508 N   0  0  0  0  0  0  0  0  0  0  0  0
   26.4682  -33.9068   -7.7008 C   0  0  0  0  0  0  0  0  0  0  0  0
   26.8198  -34.9653   -8.3256 O   0  0  0  0  0  0  0  0  0  0  0  0
   26.9762  -33.6399   -6.4110 N   0  0  0  0  0  0  0  0  0  0  0  0
   27.2893  -34.7485   -5.5624 C   0  0  0  0  0  0  0  0  0  0  0  0
   26.6700  -34.5167   -4.2296 C   0  0  0  0  0  0  0  0  0  0  0  0
   26.0072  -33.4742   -3.9875 O   0  0  0  0  0  0  0  0  0  0  0  0
   26.8011  -35.4707   -3.1598 N   0  0  0  0  0  0  0  0  0  0  0  0
   26.2185  -35.2374   -1.8645 C   0  0  1  0  0  0  0  0  0  0  0  0
   25.1044  -36.2149   -1.5661 C   0  0  0  0  0  0  0  0  0  0  0  0
   24.5428  -36.0176   -0.2128 C   0  0  0  0  0  0  0  0  0  0  0  0
   23.9432  -34.8445    0.2157 C   0  0  0  0  0  0  0  0  0  0  0  0
   23.5387  -34.9956    1.4981 N   0  0  0  0  0  0  0  0  0  0  0  0
   23.8777  -36.2323    1.8608 C   0  0  0  0  0  0  0  0  0  0  0  0
   24.4812  -36.8518    0.8379 N   0  0  0  0  0  0  0  0  0  0  0  0
   27.2492  -35.2153   -0.8227 C   0  0  0  0  0  0  0  0  0  0  0  0
   26.9226  -34.9365    0.3569 O   0  0  0  0  0  0  0  0  0  0  0  0
   28.5860  -35.4899   -1.0721 O   0  0  0  0  0  0  0  0  0  0  0  0
  2  1  1  0
  3  2  2  0
  4  2  1  0
  4  5  1  0
  5  7  1  0
  5  6  1  6
  7  9  1  0
  7  8  2  0
  9 10  1  0
 10 11  1  0
 11 12  2  0
 13 11  1  0
 13 14  1  0
 14 15  1  1
 15 16  1  0
 16 17  2  0
 17 18  1  0
 19 18  1  0
 20 16  1  0
 20 19  2  0
 21 14  1  0
 21 23  1  0
 22 21  2  0
M  END
$$$$
