NGH.pdb
     RDKit          3D

 23 23  0  0  1  0  0  0  0  0999 V2000
   20.1315  -15.9396  -18.1616 N   0  0  0  0  0  0  0  0  0  0  0  0
   19.4378  -14.7122  -18.0226 C   0  0  0  0  0  0  0  0  0  0  0  0
   18.7527  -14.3029  -18.9889 O   0  0  0  0  0  0  0  0  0  0  0  0
   19.5505  -13.9708  -16.7538 C   0  0  0  0  0  0  0  0  0  0  0  0
   19.3162  -12.5045  -17.0680 C   0  0  2  0  0  0  0  0  0  0  0  0
   20.3568  -11.9864  -17.9206 N   0  0  0  0  0  0  0  0  0  0  0  0
   19.3153  -11.7642  -15.7880 C   0  0  0  0  0  0  0  0  0  0  0  0
   18.7469  -12.2573  -14.7546 O   0  0  0  0  0  0  0  0  0  0  0  0
   19.9490  -10.5046  -15.7188 N   0  0  0  0  0  0  0  0  0  0  0  0
   19.9415   -9.8093  -14.4683 C   0  0  0  0  0  0  0  0  0  0  0  0
   20.6271   -8.5011  -14.6477 C   0  0  0  0  0  0  0  0  0  0  0  0
   20.7434   -7.6864  -13.6951 O   0  0  0  0  0  0  0  0  0  0  0  0
   21.1860   -8.1088  -15.9148 N   0  0  0  0  0  0  0  0  0  0  0  0
   21.8967   -6.8675  -16.0747 C   0  0  1  0  0  0  0  0  0  0  0  0
   22.9672   -6.9669  -17.1377 C   0  0  0  0  0  0  0  0  0  0  0  0
   22.4209   -7.4273  -18.4319 C   0  0  0  0  0  0  0  0  0  0  0  0
   21.7928   -6.5996  -19.3483 C   0  0  0  0  0  0  0  0  0  0  0  0
   21.4140   -7.3319  -20.4212 N   0  0  0  0  0  0  0  0  0  0  0  0
   21.7961   -8.5857  -20.1801 C   0  0  0  0  0  0  0  0  0  0  0  0
   22.4015   -8.6501  -18.9870 N   0  0  0  0  0  0  0  0  0  0  0  0
   20.9676   -5.7578  -16.3061 C   0  0  0  0  0  0  0  0  0  0  0  0
   21.4023   -4.5803  -16.2877 O   0  0  0  0  0  0  0  0  0  0  0  0
   19.6137   -5.9399  -16.5481 O   0  0  0  0  0  0  0  0  0  0  0  0
  2  1  1  0
  3  2  2  0
  4  2  1  0
  4  5  1  0
  5  7  1  0
  5  6  1  6
  7  9  1  0
  7  8  2  0
  9 10  1  0
 10 11  1  0
 11 12  2  0
 13 11  1  0
 13 14  1  0
 14 15  1  6
 15 16  1  0
 16 17  2  0
 17 18  1  0
 19 18  1  0
 20 16  1  0
 20 19  2  0
 21 14  1  0
 21 23  1  0
 22 21  2  0
M  END
$$$$
