NGH.pdb
     RDKit          3D

 23 23  0  0  1  0  0  0  0  0999 V2000
   22.3665   -7.7881  -16.6277 N   0  0  0  0  0  0  0  0  0  0  0  0
   21.6520   -8.5818  -15.6967 C   0  0  0  0  0  0  0  0  0  0  0  0
   21.1677   -9.6689  -16.0893 O   0  0  0  0  0  0  0  0  0  0  0  0
   21.5081   -8.0981  -14.3119 C   0  0  0  0  0  0  0  0  0  0  0  0
   20.2283   -8.6968  -13.7577 C   0  0  2  0  0  0  0  0  0  0  0  0
   19.0933   -8.3289  -14.5668 N   0  0  0  0  0  0  0  0  0  0  0  0
   20.0440   -8.1753  -12.3863 C   0  0  0  0  0  0  0  0  0  0  0  0
   21.0074   -8.2061  -11.5465 O   0  0  0  0  0  0  0  0  0  0  0  0
   18.7911   -7.6428  -12.0129 N   0  0  0  0  0  0  0  0  0  0  0  0
   18.6157   -7.2044  -10.6623 C   0  0  0  0  0  0  0  0  0  0  0  0
   17.2529   -6.6237  -10.5242 C   0  0  0  0  0  0  0  0  0  0  0  0
   16.5622   -6.3260  -11.5337 O   0  0  0  0  0  0  0  0  0  0  0  0
   16.6646   -6.3762   -9.2340 N   0  0  0  0  0  0  0  0  0  0  0  0
   15.3120   -5.9030   -9.0992 C   0  0  1  0  0  0  0  0  0  0  0  0
   14.5233   -6.7325   -8.1114 C   0  0  0  0  0  0  0  0  0  0  0  0
   14.2250   -8.0822   -8.6360 C   0  0  0  0  0  0  0  0  0  0  0  0
   12.9918   -8.4653   -9.1376 C   0  0  0  0  0  0  0  0  0  0  0  0
   13.0556   -9.7577   -9.5333 N   0  0  0  0  0  0  0  0  0  0  0  0
   14.2980  -10.1708   -9.2845 C   0  0  0  0  0  0  0  0  0  0  0  0
   15.0058   -9.1694   -8.7455 N   0  0  0  0  0  0  0  0  0  0  0  0
   15.2865   -4.4713   -8.7868 C   0  0  0  0  0  0  0  0  0  0  0  0
   16.2638   -3.9564   -8.1905 O   0  0  0  0  0  0  0  0  0  0  0  0
   14.2257   -3.6412   -9.1188 O   0  0  0  0  0  0  0  0  0  0  0  0
  2  1  1  0
  3  2  2  0
  4  2  1  0
  4  5  1  0
  5  7  1  0
  5  6  1  6
  7  9  1  0
  7  8  2  0
  9 10  1  0
 10 11  1  0
 11 12  2  0
 13 11  1  0
 13 14  1  0
 14 15  1  1
 15 16  1  0
 16 17  2  0
 17 18  1  0
 19 18  1  0
 20 16  1  0
 20 19  2  0
 21 14  1  0
 21 23  1  0
 22 21  2  0
M  END
$$$$
