NGH.pdb
     RDKit          3D

 23 23  0  0  1  0  0  0  0  0999 V2000
   21.0559  -14.3829  -16.6574 N   0  0  0  0  0  0  0  0  0  0  0  0
   20.3244  -13.4306  -15.9055 C   0  0  0  0  0  0  0  0  0  0  0  0
   19.1138  -13.6575  -15.6743 O   0  0  0  0  0  0  0  0  0  0  0  0
   21.0140  -12.2182  -15.4294 C   0  0  0  0  0  0  0  0  0  0  0  0
   20.0241  -11.0716  -15.5248 C   0  0  2  0  0  0  0  0  0  0  0  0
   19.6691  -10.8087  -16.8970 N   0  0  0  0  0  0  0  0  0  0  0  0
   20.6663   -9.8726  -14.9448 C   0  0  0  0  0  0  0  0  0  0  0  0
   21.0046   -9.8509  -13.7121 O   0  0  0  0  0  0  0  0  0  0  0  0
   20.9019   -8.7498  -15.7673 N   0  0  0  0  0  0  0  0  0  0  0  0
   21.6004   -7.6335  -15.2075 C   0  0  0  0  0  0  0  0  0  0  0  0
   22.7901   -7.3448  -16.0529 C   0  0  0  0  0  0  0  0  0  0  0  0
   23.5525   -6.3749  -15.8018 O   0  0  0  0  0  0  0  0  0  0  0  0
   23.1219   -8.1584  -17.1930 N   0  0  0  0  0  0  0  0  0  0  0  0
   24.2873   -7.8944  -17.9954 C   0  0  1  0  0  0  0  0  0  0  0  0
   24.9587   -9.1717  -18.4466 C   0  0  0  0  0  0  0  0  0  0  0  0
   25.5335   -9.9254  -17.3120 C   0  0  0  0  0  0  0  0  0  0  0  0
   25.8814   -9.3558  -16.0980 C   0  0  0  0  0  0  0  0  0  0  0  0
   26.3751  -10.3160  -15.2824 N   0  0  0  0  0  0  0  0  0  0  0  0
   26.3363  -11.4566  -15.9706 C   0  0  0  0  0  0  0  0  0  0  0  0
   25.8319  -11.2292  -17.1905 N   0  0  0  0  0  0  0  0  0  0  0  0
   23.9645   -6.9982  -19.1093 C   0  0  0  0  0  0  0  0  0  0  0  0
   24.8949   -6.5371  -19.8146 O   0  0  0  0  0  0  0  0  0  0  0  0
   22.6676   -6.6258  -19.4320 O   0  0  0  0  0  0  0  0  0  0  0  0
  2  1  1  0
  3  2  2  0
  4  2  1  0
  4  5  1  0
  5  7  1  0
  5  6  1  6
  7  9  1  0
  7  8  2  0
  9 10  1  0
 10 11  1  0
 11 12  2  0
 13 11  1  0
 13 14  1  0
 14 15  1  6
 15 16  1  0
 16 17  2  0
 17 18  1  0
 19 18  1  0
 20 16  1  0
 20 19  2  0
 21 14  1  0
 21 23  1  0
 22 21  2  0
M  END
$$$$
