NGH.pdb
     RDKit          3D

 23 23  0  0  1  0  0  0  0  0999 V2000
   47.3765  -13.5648   -5.8059 N   0  0  0  0  0  0  0  0  0  0  0  0
   47.3880  -12.3427   -5.0893 C   0  0  0  0  0  0  0  0  0  0  0  0
   48.0830  -12.2691   -4.0491 O   0  0  0  0  0  0  0  0  0  0  0  0
   46.5855  -11.2142   -5.5941 C   0  0  0  0  0  0  0  0  0  0  0  0
   45.7806  -11.7277   -6.7740 C   0  0  2  0  0  0  0  0  0  0  0  0
   46.6471  -12.1445   -7.8480 N   0  0  0  0  0  0  0  0  0  0  0  0
   44.9133  -10.6252   -7.2416 C   0  0  0  0  0  0  0  0  0  0  0  0
   45.2945   -9.8592   -8.1915 O   0  0  0  0  0  0  0  0  0  0  0  0
   43.6582  -10.4261   -6.6269 N   0  0  0  0  0  0  0  0  0  0  0  0
   42.7991   -9.4098   -7.1524 C   0  0  0  0  0  0  0  0  0  0  0  0
   43.0774   -8.1354   -6.4367 C   0  0  0  0  0  0  0  0  0  0  0  0
   43.6197   -8.1269   -5.3007 O   0  0  0  0  0  0  0  0  0  0  0  0
   42.7395   -6.8586   -7.0089 N   0  0  0  0  0  0  0  0  0  0  0  0
   43.0336   -5.6248   -6.3287 C   0  0  1  0  0  0  0  0  0  0  0  0
   43.8080   -4.6699   -7.2086 C   0  0  0  0  0  0  0  0  0  0  0  0
   45.2000   -5.1196   -7.4223 C   0  0  0  0  0  0  0  0  0  0  0  0
   45.9997   -5.6675   -6.4326 C   0  0  0  0  0  0  0  0  0  0  0  0
   47.2097   -5.9709   -6.9569 N   0  0  0  0  0  0  0  0  0  0  0  0
   47.1661   -5.6208   -8.2420 C   0  0  0  0  0  0  0  0  0  0  0  0
   45.9619   -5.1087   -8.5283 N   0  0  0  0  0  0  0  0  0  0  0  0
   41.8144   -5.0271   -5.7769 C   0  0  0  0  0  0  0  0  0  0  0  0
   40.6967   -5.4225   -6.1898 O   0  0  0  0  0  0  0  0  0  0  0  0
   41.8276   -4.0335   -4.8089 O   0  0  0  0  0  0  0  0  0  0  0  0
  2  1  1  0
  3  2  2  0
  4  2  1  0
  4  5  1  0
  5  7  1  0
  5  6  1  6
  7  9  1  0
  7  8  2  0
  9 10  1  0
 10 11  1  0
 11 12  2  0
 13 11  1  0
 13 14  1  0
 14 15  1  6
 15 16  1  0
 16 17  2  0
 17 18  1  0
 19 18  1  0
 20 16  1  0
 20 19  2  0
 21 14  1  0
 21 23  1  0
 22 21  2  0
M  END
$$$$
