NIV.pdb
     RDKit          3D

 24 23  0  0  1  0  0  0  0  0999 V2000
   19.3191  -24.4051   -8.3223 N   0  0  0  0  0  0  0  0  0  0  0  0
   18.2725  -23.7708   -7.6096 C   0  0  0  0  0  0  0  0  0  0  0  0
   18.0070  -22.5835   -7.8877 O   0  0  0  0  0  0  0  0  0  0  0  0
   17.5269  -24.4902   -6.5787 C   0  0  0  0  0  0  0  0  0  0  0  0
   17.9668  -25.8827   -6.2962 C   0  0  2  0  0  0  0  0  0  0  0  0
   17.7009  -26.7285   -7.4132 N   0  0  0  0  0  0  0  0  0  0  0  0
   17.4346  -26.4394   -5.0315 C   0  0  0  0  0  0  0  0  0  0  0  0
   16.2325  -26.7838   -4.9565 O   0  0  0  0  0  0  0  0  0  0  0  0
   19.2790  -30.7532   -3.3675 C   0  0  0  0  0  0  0  0  0  0  0  0
   18.4146  -29.5515   -3.5187 C   0  0  0  0  0  0  0  0  0  0  0  0
   18.4873  -28.5234   -2.4701 C   0  0  2  0  0  0  0  0  0  0  0  0
   18.5381  -29.0887   -1.0622 C   0  0  0  0  0  0  0  0  0  0  0  0
   17.7220  -27.2792   -2.6395 C   0  0  2  0  0  0  0  0  0  0  0  0
   18.2434  -26.6011   -3.8836 N   0  0  0  0  0  0  0  0  0  0  0  0
   17.6433  -26.2904   -1.5816 C   0  0  0  0  0  0  0  0  0  0  0  0
   18.6406  -25.5375   -1.2777 O   0  0  0  0  0  0  0  0  0  0  0  0
   14.9228  -23.5081   -1.0968 C   0  0  0  0  0  0  0  0  0  0  0  0
   15.1511  -24.2434    0.1872 C   0  0  1  0  0  0  0  0  0  0  0  0
   14.0911  -25.3077    0.3279 C   0  0  0  0  0  0  0  0  0  0  0  0
   16.5026  -24.9585    0.2234 C   0  0  2  0  0  0  0  0  0  0  0  0
   16.4983  -26.0325   -0.7884 N   0  0  0  0  0  0  0  0  0  0  0  0
   16.6921  -25.5765    1.5385 C   0  0  0  0  0  0  0  0  0  0  0  0
   16.5080  -26.9628    1.6747 O   0  0  0  0  0  0  0  0  0  0  0  0
   17.0103  -24.9721    2.5773 O   0  0  0  0  0  0  0  0  0  0  0  0
  2  3  2  0
  2  1  1  0
  4  2  1  0
  5  6  1  6
  5  4  1  0
  7  5  1  0
  8  7  2  0
  9 10  1  0
 10 11  1  0
 11 12  1  1
 11 13  1  0
 13 14  1  6
 14  7  1  0
 15 13  1  0
 15 21  1  0
 16 15  2  0
 18 17  1  6
 19 18  1  0
 20 18  1  0
 20 21  1  6
 20 22  1  0
 22 23  1  0
 24 22  2  0
M  END
$$$$
