NIV.pdb
     RDKit          3D

 24 23  0  0  1  0  0  0  0  0999 V2000
   24.4239  -11.0859  -21.5035 N   0  0  0  0  0  0  0  0  0  0  0  0
   23.2182  -10.3621  -21.6708 C   0  0  0  0  0  0  0  0  0  0  0  0
   22.9897   -9.8500  -22.7856 O   0  0  0  0  0  0  0  0  0  0  0  0
   22.2711  -10.2217  -20.5664 C   0  0  0  0  0  0  0  0  0  0  0  0
   22.6651  -10.8462  -19.2754 C   0  0  2  0  0  0  0  0  0  0  0  0
   22.6940  -12.2671  -19.3942 N   0  0  0  0  0  0  0  0  0  0  0  0
   21.8607  -10.3963  -18.1164 C   0  0  0  0  0  0  0  0  0  0  0  0
   20.7126  -10.8626  -17.9329 O   0  0  0  0  0  0  0  0  0  0  0  0
   23.4192  -11.0510  -13.3764 C   0  0  0  0  0  0  0  0  0  0  0  0
   22.6281  -10.7322  -14.5957 C   0  0  0  0  0  0  0  0  0  0  0  0
   22.2224   -9.3335  -14.7983 C   0  0  2  0  0  0  0  0  0  0  0  0
   21.7604   -8.6410  -13.5290 C   0  0  0  0  0  0  0  0  0  0  0  0
   21.5037   -8.9726  -16.0295 C   0  0  2  0  0  0  0  0  0  0  0  0
   22.3451   -9.4438  -17.1912 N   0  0  0  0  0  0  0  0  0  0  0  0
   21.0910   -7.6072  -16.2910 C   0  0  0  0  0  0  0  0  0  0  0  0
   21.9260   -6.6292  -16.2778 O   0  0  0  0  0  0  0  0  0  0  0  0
   17.8149   -4.2520  -17.9644 C   0  0  0  0  0  0  0  0  0  0  0  0
   18.2619   -5.6653  -17.7546 C   0  0  1  0  0  0  0  0  0  0  0  0
   18.7282   -6.2243  -19.0760 C   0  0  0  0  0  0  0  0  0  0  0  0
   19.4430   -5.7716  -16.7887 C   0  0  2  0  0  0  0  0  0  0  0  0
   19.7691   -7.1973  -16.5930 N   0  0  0  0  0  0  0  0  0  0  0  0
   19.0619   -5.2121  -15.4890 C   0  0  0  0  0  0  0  0  0  0  0  0
   18.4679   -6.0516  -14.5316 O   0  0  0  0  0  0  0  0  0  0  0  0
   19.2191   -4.0286  -15.1423 O   0  0  0  0  0  0  0  0  0  0  0  0
  2  3  2  0
  2  1  1  0
  4  2  1  0
  5  6  1  6
  5  4  1  0
  7  5  1  0
  8  7  2  0
  9 10  1  0
 10 11  1  0
 11 12  1  1
 11 13  1  0
 13 14  1  6
 14  7  1  0
 15 13  1  0
 15 21  1  0
 16 15  2  0
 18 17  1  6
 19 18  1  0
 20 18  1  0
 20 21  1  1
 20 22  1  0
 22 23  1  0
 24 22  2  0
M  END
$$$$
