NIV.pdb
     RDKit          3D

 24 23  0  0  1  0  0  0  0  0999 V2000
   19.1204  -11.5908  -20.4439 N   0  0  0  0  0  0  0  0  0  0  0  0
   18.9945  -10.2693  -19.9506 C   0  0  0  0  0  0  0  0  0  0  0  0
   18.3589   -9.4435  -20.6372 O   0  0  0  0  0  0  0  0  0  0  0  0
   19.5933   -9.8879  -18.6730 C   0  0  0  0  0  0  0  0  0  0  0  0
   20.3663  -10.9431  -17.9651 C   0  0  2  0  0  0  0  0  0  0  0  0
   19.5284  -12.0543  -17.6536 N   0  0  0  0  0  0  0  0  0  0  0  0
   21.1129  -10.4546  -16.7832 C   0  0  0  0  0  0  0  0  0  0  0  0
   20.5804  -10.4869  -15.6497 O   0  0  0  0  0  0  0  0  0  0  0  0
   25.7887  -12.2758  -15.6637 C   0  0  0  0  0  0  0  0  0  0  0  0
   24.4657  -11.5948  -15.6730 C   0  0  0  0  0  0  0  0  0  0  0  0
   24.4551  -10.1256  -15.6168 C   0  0  2  0  0  0  0  0  0  0  0  0
   25.4913   -9.5425  -14.6732 C   0  0  0  0  0  0  0  0  0  0  0  0
   23.1658   -9.4208  -15.6758 C   0  0  2  0  0  0  0  0  0  0  0  0
   22.4269   -9.9437  -16.8842 N   0  0  0  0  0  0  0  0  0  0  0  0
   23.0963   -7.9724  -15.6917 C   0  0  0  0  0  0  0  0  0  0  0  0
   23.7442   -7.2691  -16.5517 O   0  0  0  0  0  0  0  0  0  0  0  0
   20.5343   -5.7517  -16.6837 C   0  0  0  0  0  0  0  0  0  0  0  0
   20.9215   -5.2535  -15.3261 C   0  0  1  0  0  0  0  0  0  0  0  0
   19.9578   -5.8193  -14.3124 C   0  0  0  0  0  0  0  0  0  0  0  0
   22.3202   -5.7102  -14.9086 C   0  0  2  0  0  0  0  0  0  0  0  0
   22.3269   -7.1820  -14.8029 N   0  0  0  0  0  0  0  0  0  0  0  0
   22.6388   -5.1602  -13.5883 C   0  0  0  0  0  0  0  0  0  0  0  0
   22.6370   -6.0156  -12.4735 O   0  0  0  0  0  0  0  0  0  0  0  0
   22.9194   -3.9721  -13.3534 O   0  0  0  0  0  0  0  0  0  0  0  0
  2  3  2  0
  2  1  1  0
  4  2  1  0
  5  6  1  1
  5  4  1  0
  7  5  1  0
  8  7  2  0
  9 10  1  0
 10 11  1  0
 11 12  1  1
 11 13  1  0
 13 14  1  6
 14  7  1  0
 15 13  1  0
 15 21  1  0
 16 15  2  0
 18 17  1  6
 19 18  1  0
 20 18  1  0
 20 21  1  1
 20 22  1  0
 22 23  1  0
 24 22  2  0
M  END
$$$$
