NIV.pdb
     RDKit          3D

 24 23  0  0  1  0  0  0  0  0999 V2000
   29.2368  -18.0047  -16.1909 N   0  0  0  0  0  0  0  0  0  0  0  0
   27.8709  -18.0805  -16.5575 C   0  0  0  0  0  0  0  0  0  0  0  0
   27.4446  -17.2722  -17.4074 O   0  0  0  0  0  0  0  0  0  0  0  0
   26.9895  -19.0788  -15.9553 C   0  0  0  0  0  0  0  0  0  0  0  0
   27.5990  -19.9627  -14.9261 C   0  0  2  0  0  0  0  0  0  0  0  0
   28.5177  -20.8728  -15.5276 N   0  0  0  0  0  0  0  0  0  0  0  0
   26.6140  -20.6502  -14.0602 C   0  0  0  0  0  0  0  0  0  0  0  0
   26.1443  -21.7591  -14.4051 O   0  0  0  0  0  0  0  0  0  0  0  0
   27.0700  -20.6142   -8.7015 C   0  0  0  0  0  0  0  0  0  0  0  0
   26.7168  -20.9657  -10.1036 C   0  0  0  0  0  0  0  0  0  0  0  0
   25.4062  -20.5283  -10.6063 C   0  0  2  0  0  0  0  0  0  0  0  0
   24.2714  -20.7408   -9.6208 C   0  0  0  0  0  0  0  0  0  0  0  0
   25.0798  -20.7443  -12.0238 C   0  0  2  0  0  0  0  0  0  0  0  0
   26.1737  -20.0952  -12.8371 N   0  0  0  0  0  0  0  0  0  0  0  0
   23.8014  -20.3387  -12.5753 C   0  0  0  0  0  0  0  0  0  0  0  0
   23.5311  -19.1084  -12.8342 O   0  0  0  0  0  0  0  0  0  0  0  0
   19.8903  -21.1214  -15.3999 C   0  0  0  0  0  0  0  0  0  0  0  0
   21.1817  -21.5202  -14.7562 C   0  0  1  0  0  0  0  0  0  0  0  0
   22.3052  -21.2615  -15.7293 C   0  0  0  0  0  0  0  0  0  0  0  0
   21.4894  -20.7045  -13.4995 C   0  0  2  0  0  0  0  0  0  0  0  0
   22.7354  -21.2149  -12.8958 N   0  0  0  0  0  0  0  0  0  0  0  0
   20.4088  -20.8827  -12.5258 C   0  0  0  0  0  0  0  0  0  0  0  0
   19.4533  -19.8641  -12.3718 O   0  0  0  0  0  0  0  0  0  0  0  0
   20.2523  -21.8804  -11.8007 O   0  0  0  0  0  0  0  0  0  0  0  0
  2  3  2  0
  2  1  1  0
  4  2  1  0
  5  6  1  6
  5  4  1  0
  7  5  1  0
  8  7  2  0
  9 10  1  0
 10 11  1  0
 11 12  1  1
 11 13  1  0
 13 14  1  6
 14  7  1  0
 15 13  1  0
 15 21  1  0
 16 15  2  0
 18 17  1  6
 19 18  1  0
 20 18  1  0
 20 21  1  1
 20 22  1  0
 22 23  1  0
 24 22  2  0
M  END
$$$$
