NIV.pdb
     RDKit          3D

 24 23  0  0  1  0  0  0  0  0999 V2000
   16.9024  -17.2330  -16.6682 N   0  0  0  0  0  0  0  0  0  0  0  0
   17.8017  -16.6851  -15.7213 C   0  0  0  0  0  0  0  0  0  0  0  0
   17.9308  -17.2696  -14.6263 O   0  0  0  0  0  0  0  0  0  0  0  0
   18.5555  -15.4695  -16.0224 C   0  0  0  0  0  0  0  0  0  0  0  0
   18.2761  -14.8274  -17.3345 C   0  0  2  0  0  0  0  0  0  0  0  0
   18.6844  -15.6766  -18.4050 N   0  0  0  0  0  0  0  0  0  0  0  0
   18.8229  -13.4575  -17.4652 C   0  0  0  0  0  0  0  0  0  0  0  0
   19.8648  -13.2608  -18.1323 O   0  0  0  0  0  0  0  0  0  0  0  0
   16.5913   -7.8663  -18.0909 C   0  0  0  0  0  0  0  0  0  0  0  0
   17.7684   -8.6694  -17.6626 C   0  0  0  0  0  0  0  0  0  0  0  0
   17.5885  -10.1222  -17.5249 C   0  0  2  0  0  0  0  0  0  0  0  0
   16.2229  -10.5217  -16.9959 C   0  0  0  0  0  0  0  0  0  0  0  0
   18.7227  -10.9392  -17.0681 C   0  0  2  0  0  0  0  0  0  0  0  0
   18.2050  -12.3416  -16.8562 N   0  0  0  0  0  0  0  0  0  0  0  0
   19.5057  -10.5631  -15.9069 C   0  0  0  0  0  0  0  0  0  0  0  0
   19.1074  -10.8076  -14.7088 O   0  0  0  0  0  0  0  0  0  0  0  0
   23.7757   -9.9547  -13.6421 C   0  0  0  0  0  0  0  0  0  0  0  0
   22.9259  -10.2120  -14.8474 C   0  0  1  0  0  0  0  0  0  0  0  0
   22.7753  -11.7031  -15.0213 C   0  0  0  0  0  0  0  0  0  0  0  0
   21.5149   -9.6391  -14.7056 C   0  0  2  0  0  0  0  0  0  0  0  0
   20.7644   -9.9142  -15.9460 N   0  0  0  0  0  0  0  0  0  0  0  0
   21.5934   -8.1856  -14.5372 C   0  0  0  0  0  0  0  0  0  0  0  0
   21.7394   -7.6546  -13.2445 O   0  0  0  0  0  0  0  0  0  0  0  0
   21.5416   -7.3518  -15.4579 O   0  0  0  0  0  0  0  0  0  0  0  0
  2  3  2  0
  2  1  1  0
  4  2  1  0
  5  6  1  6
  5  4  1  0
  7  5  1  0
  8  7  2  0
  9 10  1  0
 10 11  1  0
 11 12  1  1
 11 13  1  0
 13 14  1  1
 14  7  1  0
 15 13  1  0
 15 21  1  0
 16 15  2  0
 18 17  1  1
 19 18  1  0
 20 18  1  0
 20 21  1  6
 20 22  1  0
 22 23  1  0
 24 22  2  0
M  END
$$$$
