NIV.pdb
     RDKit          3D

 24 23  0  0  1  0  0  0  0  0999 V2000
   28.6409  -18.8623  -17.5919 N   0  0  0  0  0  0  0  0  0  0  0  0
   28.3275  -18.5901  -16.2379 C   0  0  0  0  0  0  0  0  0  0  0  0
   28.8346  -17.5801  -15.7087 O   0  0  0  0  0  0  0  0  0  0  0  0
   27.4349  -19.4697  -15.4857 C   0  0  0  0  0  0  0  0  0  0  0  0
   28.0683  -20.3119  -14.4361 C   0  0  2  0  0  0  0  0  0  0  0  0
   29.0110  -21.2109  -15.0164 N   0  0  0  0  0  0  0  0  0  0  0  0
   27.1022  -21.0047  -13.5532 C   0  0  0  0  0  0  0  0  0  0  0  0
   26.6511  -22.1272  -13.8784 O   0  0  0  0  0  0  0  0  0  0  0  0
   27.2321  -20.4327   -8.2257 C   0  0  0  0  0  0  0  0  0  0  0  0
   26.9095  -21.0621   -9.5349 C   0  0  0  0  0  0  0  0  0  0  0  0
   25.6417  -20.6863  -10.1777 C   0  0  2  0  0  0  0  0  0  0  0  0
   24.4252  -20.8814   -9.2908 C   0  0  0  0  0  0  0  0  0  0  0  0
   25.4537  -20.9807  -11.6061 C   0  0  2  0  0  0  0  0  0  0  0  0
   26.6601  -20.4400  -12.3352 N   0  0  0  0  0  0  0  0  0  0  0  0
   24.2636  -20.5526  -12.3158 C   0  0  0  0  0  0  0  0  0  0  0  0
   24.1174  -19.3451  -12.7334 O   0  0  0  0  0  0  0  0  0  0  0  0
   20.5532  -21.3281  -15.3871 C   0  0  0  0  0  0  0  0  0  0  0  0
   21.7515  -21.7520  -14.5961 C   0  0  1  0  0  0  0  0  0  0  0  0
   22.9714  -21.6504  -15.4779 C   0  0  0  0  0  0  0  0  0  0  0  0
   22.0055  -20.8526  -13.3854 C   0  0  2  0  0  0  0  0  0  0  0  0
   23.1606  -21.3821  -12.6352 N   0  0  0  0  0  0  0  0  0  0  0  0
   20.8380  -20.8848  -12.5005 C   0  0  0  0  0  0  0  0  0  0  0  0
   19.8811  -19.8602  -12.5944 O   0  0  0  0  0  0  0  0  0  0  0  0
   20.6064  -21.7598  -11.6481 O   0  0  0  0  0  0  0  0  0  0  0  0
  2  3  2  0
  2  1  1  0
  4  2  1  0
  5  6  1  6
  5  4  1  0
  7  5  1  0
  8  7  2  0
  9 10  1  0
 10 11  1  0
 11 12  1  1
 11 13  1  0
 13 14  1  6
 14  7  1  0
 15 13  1  0
 15 21  1  0
 16 15  2  0
 18 17  1  6
 19 18  1  0
 20 18  1  0
 20 21  1  1
 20 22  1  0
 22 23  1  0
 24 22  2  0
M  END
$$$$
