NIV.pdb
     RDKit          3D

 24 23  0  0  1  0  0  0  0  0999 V2000
   18.2530  -21.4458  -11.3608 N   0  0  0  0  0  0  0  0  0  0  0  0
   19.1813  -21.7642  -12.3819 C   0  0  0  0  0  0  0  0  0  0  0  0
   19.0660  -22.8646  -12.9590 O   0  0  0  0  0  0  0  0  0  0  0  0
   20.2424  -20.8275  -12.7462 C   0  0  0  0  0  0  0  0  0  0  0  0
   21.5828  -21.0862  -12.1558 C   0  0  2  0  0  0  0  0  0  0  0  0
   21.5154  -21.0659  -10.7314 N   0  0  0  0  0  0  0  0  0  0  0  0
   22.6533  -20.2072  -12.6794 C   0  0  0  0  0  0  0  0  0  0  0  0
   22.6562  -18.9872  -12.3946 O   0  0  0  0  0  0  0  0  0  0  0  0
   26.8515  -21.5606  -11.2184 C   0  0  0  0  0  0  0  0  0  0  0  0
   26.0933  -20.4301  -11.8194 C   0  0  0  0  0  0  0  0  0  0  0  0
   26.0534  -20.3399  -13.2864 C   0  0  2  0  0  0  0  0  0  0  0  0
   27.3736  -19.9240  -13.9095 C   0  0  0  0  0  0  0  0  0  0  0  0
   24.8405  -19.8185  -13.9342 C   0  0  2  0  0  0  0  0  0  0  0  0
   23.6917  -20.6982  -13.5031 N   0  0  0  0  0  0  0  0  0  0  0  0
   24.7665  -19.6458  -15.3722 C   0  0  0  0  0  0  0  0  0  0  0  0
   24.7385  -20.6479  -16.1777 O   0  0  0  0  0  0  0  0  0  0  0  0
   22.1631  -18.3865  -17.5967 C   0  0  0  0  0  0  0  0  0  0  0  0
   23.3984  -17.6193  -17.9526 C   0  0  1  0  0  0  0  0  0  0  0  0
   23.3685  -16.2956  -17.2293 C   0  0  0  0  0  0  0  0  0  0  0  0
   24.6796  -18.3319  -17.5168 C   0  0  2  0  0  0  0  0  0  0  0  0
   24.7070  -18.3995  -16.0430 N   0  0  0  0  0  0  0  0  0  0  0  0
   25.8426  -17.5560  -17.9558 C   0  0  0  0  0  0  0  0  0  0  0  0
   26.4039  -17.8205  -19.2164 O   0  0  0  0  0  0  0  0  0  0  0  0
   26.3969  -16.6580  -17.2985 O   0  0  0  0  0  0  0  0  0  0  0  0
  2  3  2  0
  2  1  1  0
  4  2  1  0
  5  6  1  1
  5  4  1  0
  7  5  1  0
  8  7  2  0
  9 10  1  0
 10 11  1  0
 11 12  1  1
 11 13  1  0
 13 14  1  6
 14  7  1  0
 15 13  1  0
 15 21  1  0
 16 15  2  0
 18 17  1  1
 19 18  1  0
 20 18  1  0
 20 21  1  1
 20 22  1  0
 22 23  1  0
 24 22  2  0
M  END
$$$$
