NIV.pdb
     RDKit          3D

 24 23  0  0  1  0  0  0  0  0999 V2000
   32.2640  -16.8068  -19.2488 N   0  0  0  0  0  0  0  0  0  0  0  0
   32.9689  -15.5918  -19.0689 C   0  0  0  0  0  0  0  0  0  0  0  0
   34.1205  -15.6454  -18.5909 O   0  0  0  0  0  0  0  0  0  0  0  0
   32.3612  -14.3137  -19.4342 C   0  0  0  0  0  0  0  0  0  0  0  0
   30.9038  -14.3362  -19.7300 C   0  0  2  0  0  0  0  0  0  0  0  0
   30.6361  -15.1517  -20.8689 N   0  0  0  0  0  0  0  0  0  0  0  0
   30.2899  -12.9936  -19.8444 C   0  0  0  0  0  0  0  0  0  0  0  0
   30.2338  -12.4242  -20.9589 O   0  0  0  0  0  0  0  0  0  0  0  0
   25.4418  -12.1030  -18.8939 C   0  0  0  0  0  0  0  0  0  0  0  0
   26.8510  -11.9162  -19.3337 C   0  0  0  0  0  0  0  0  0  0  0  0
   27.7177  -11.0684  -18.5019 C   0  0  2  0  0  0  0  0  0  0  0  0
   27.0400   -9.8053  -18.0024 C   0  0  0  0  0  0  0  0  0  0  0  0
   29.1397  -10.9424  -18.8548 C   0  0  2  0  0  0  0  0  0  0  0  0
   29.7544  -12.3154  -18.7259 N   0  0  0  0  0  0  0  0  0  0  0  0
   30.0040   -9.9921  -18.1817 C   0  0  0  0  0  0  0  0  0  0  0  0
   30.2862  -10.0953  -16.9313 O   0  0  0  0  0  0  0  0  0  0  0  0
   33.8473   -7.0869  -17.9026 C   0  0  0  0  0  0  0  0  0  0  0  0
   32.9212   -8.0677  -18.5519 C   0  0  1  0  0  0  0  0  0  0  0  0
   33.4049   -9.4633  -18.2447 C   0  0  0  0  0  0  0  0  0  0  0  0
   31.4912   -7.9685  -18.0186 C   0  0  2  0  0  0  0  0  0  0  0  0
   30.6304   -8.8802  -18.7966 N   0  0  0  0  0  0  0  0  0  0  0  0
   30.9933   -6.6035  -18.2092 C   0  0  0  0  0  0  0  0  0  0  0  0
   31.1218   -5.6769  -17.1608 O   0  0  0  0  0  0  0  0  0  0  0  0
   30.4512   -6.1741  -19.2424 O   0  0  0  0  0  0  0  0  0  0  0  0
  2  3  2  0
  2  1  1  0
  4  2  1  0
  5  6  1  6
  5  4  1  0
  7  5  1  0
  8  7  2  0
  9 10  1  0
 10 11  1  0
 11 12  1  6
 11 13  1  0
 13 14  1  1
 14  7  1  0
 15 13  1  0
 15 21  1  0
 16 15  2  0
 18 17  1  1
 19 18  1  0
 20 18  1  0
 20 21  1  6
 20 22  1  0
 22 23  1  0
 24 22  2  0
M  END
$$$$
