NIV.pdb
     RDKit          3D

 24 23  0  0  1  0  0  0  0  0999 V2000
   18.0966  -11.1721  -20.7071 N   0  0  0  0  0  0  0  0  0  0  0  0
   17.4054  -10.3492  -19.7847 C   0  0  0  0  0  0  0  0  0  0  0  0
   16.4733   -9.6391  -20.2140 O   0  0  0  0  0  0  0  0  0  0  0  0
   17.7765  -10.3354  -18.3711 C   0  0  0  0  0  0  0  0  0  0  0  0
   18.9282  -11.1926  -17.9824 C   0  0  2  0  0  0  0  0  0  0  0  0
   18.5071  -12.5420  -17.7933 N   0  0  0  0  0  0  0  0  0  0  0  0
   19.7010  -10.6790  -16.8285 C   0  0  0  0  0  0  0  0  0  0  0  0
   19.2165  -10.7384  -15.6748 O   0  0  0  0  0  0  0  0  0  0  0  0
   25.1307  -11.0227  -14.5092 C   0  0  0  0  0  0  0  0  0  0  0  0
   23.9984  -10.0771  -14.7041 C   0  0  0  0  0  0  0  0  0  0  0  0
   22.8988  -10.5026  -15.5825 C   0  0  2  0  0  0  0  0  0  0  0  0
   23.3561  -11.2912  -16.7963 C   0  0  0  0  0  0  0  0  0  0  0  0
   21.7641   -9.5914  -15.7941 C   0  0  2  0  0  0  0  0  0  0  0  0
   20.9878  -10.1138  -16.9789 N   0  0  0  0  0  0  0  0  0  0  0  0
   21.9627   -8.1660  -15.9730 C   0  0  0  0  0  0  0  0  0  0  0  0
   22.6209   -7.6902  -16.9701 O   0  0  0  0  0  0  0  0  0  0  0  0
   20.2065   -5.5514  -17.2668 C   0  0  0  0  0  0  0  0  0  0  0  0
   20.5847   -5.0266  -15.9167 C   0  0  1  0  0  0  0  0  0  0  0  0
   19.4386   -5.2708  -14.9665 C   0  0  0  0  0  0  0  0  0  0  0  0
   21.8046   -5.7383  -15.3295 C   0  0  2  0  0  0  0  0  0  0  0  0
   21.4660   -7.1578  -15.1108 N   0  0  0  0  0  0  0  0  0  0  0  0
   22.1356   -5.1467  -14.0303 C   0  0  0  0  0  0  0  0  0  0  0  0
   22.8512   -3.9381  -13.9925 O   0  0  0  0  0  0  0  0  0  0  0  0
   21.8340   -5.6274  -12.9242 O   0  0  0  0  0  0  0  0  0  0  0  0
  2  3  2  0
  2  1  1  0
  4  2  1  0
  5  6  1  1
  5  4  1  0
  7  5  1  0
  8  7  2  0
  9 10  1  0
 10 11  1  0
 11 12  1  6
 11 13  1  0
 13 14  1  6
 14  7  1  0
 15 13  1  0
 15 21  1  0
 16 15  2  0
 18 17  1  6
 19 18  1  0
 20 18  1  0
 20 21  1  1
 20 22  1  0
 22 23  1  0
 24 22  2  0
M  END
$$$$
