NIV.pdb
     RDKit          3D

 24 23  0  0  1  0  0  0  0  0999 V2000
   18.1072  -14.2411  -21.2149 N   0  0  0  0  0  0  0  0  0  0  0  0
   19.4404  -13.9345  -20.8484 C   0  0  0  0  0  0  0  0  0  0  0  0
   20.3479  -14.1861  -21.6673 O   0  0  0  0  0  0  0  0  0  0  0  0
   19.7403  -13.3401  -19.5472 C   0  0  0  0  0  0  0  0  0  0  0  0
   20.7256  -14.0653  -18.7014 C   0  0  2  0  0  0  0  0  0  0  0  0
   20.2770  -15.3927  -18.4358 N   0  0  0  0  0  0  0  0  0  0  0  0
   21.1072  -13.3442  -17.4657 C   0  0  0  0  0  0  0  0  0  0  0  0
   20.3500  -13.3686  -16.4680 O   0  0  0  0  0  0  0  0  0  0  0  0
   25.4258  -14.3040  -14.9310 C   0  0  0  0  0  0  0  0  0  0  0  0
   24.0940  -13.8043  -15.3678 C   0  0  0  0  0  0  0  0  0  0  0  0
   23.9614  -12.3653  -15.6389 C   0  0  2  0  0  0  0  0  0  0  0  0
   24.7111  -11.4861  -14.6544 C   0  0  0  0  0  0  0  0  0  0  0  0
   22.6700  -11.8471  -16.1144 C   0  0  2  0  0  0  0  0  0  0  0  0
   22.3142  -12.6156  -17.3643 N   0  0  0  0  0  0  0  0  0  0  0  0
   22.4731  -10.4346  -16.3775 C   0  0  0  0  0  0  0  0  0  0  0  0
   23.2282   -9.7813  -17.1880 O   0  0  0  0  0  0  0  0  0  0  0  0
   19.7300   -6.4597  -16.9601 C   0  0  0  0  0  0  0  0  0  0  0  0
   19.9524   -7.9113  -16.6694 C   0  0  1  0  0  0  0  0  0  0  0  0
   19.8193   -8.6864  -17.9569 C   0  0  0  0  0  0  0  0  0  0  0  0
   21.3537   -8.1947  -16.1261 C   0  0  2  0  0  0  0  0  0  0  0  0
   21.4565   -9.6312  -15.8049 N   0  0  0  0  0  0  0  0  0  0  0  0
   21.5588   -7.4384  -14.8878 C   0  0  0  0  0  0  0  0  0  0  0  0
   22.0197   -6.1133  -14.9652 O   0  0  0  0  0  0  0  0  0  0  0  0
   21.3574   -7.8712  -13.7399 O   0  0  0  0  0  0  0  0  0  0  0  0
  2  3  2  0
  2  1  1  0
  4  2  1  0
  5  6  1  1
  5  4  1  0
  7  5  1  0
  8  7  2  0
  9 10  1  0
 10 11  1  0
 11 12  1  1
 11 13  1  0
 13 14  1  6
 14  7  1  0
 15 13  1  0
 15 21  1  0
 16 15  2  0
 18 17  1  6
 19 18  1  0
 20 18  1  0
 20 21  1  1
 20 22  1  0
 22 23  1  0
 24 22  2  0
M  END
$$$$
