DVE.pdb
     RDKit          3D

 25 24  0  0  1  0  0  0  0  0999 V2000
    7.3383  -17.0168   17.3409 N   0  0  0  0  0  0  0  0  0  0  0  0
    8.7164  -17.3633   17.5068 C   0  0  1  0  0  0  0  0  0  0  0  0
    9.5186  -17.2865   16.2347 C   0  0  0  0  0  0  0  0  0  0  0  0
    8.9027  -18.0561   15.1493 C   0  0  0  0  0  0  0  0  0  0  0  0
    8.4521  -17.4342   14.1515 O   0  0  0  0  0  0  0  0  0  0  0  0
    9.3370  -16.5110   18.5490 C   0  0  0  0  0  0  0  0  0  0  0  0
   10.5819  -16.5054   18.7090 O   0  0  0  0  0  0  0  0  0  0  0  0
    8.7750  -19.4395   15.1344 O   0  0  0  0  0  0  0  0  0  0  0  0
    6.7819  -14.4954   21.3067 C   0  0  0  0  0  0  0  0  0  0  0  0
    8.0534  -13.8517   20.8659 C   0  0  2  0  0  0  0  0  0  0  0  0
    7.7841  -12.9361   19.7002 C   0  0  0  0  0  0  0  0  0  0  0  0
    9.1103  -14.8855   20.4847 C   0  0  2  0  0  0  0  0  0  0  0  0
    8.5708  -15.6741   19.4025 N   0  0  0  0  0  0  0  0  0  0  0  0
    9.2996  -15.7519   21.6660 C   0  0  0  0  0  0  0  0  0  0  0  0
    8.4590  -16.6710   21.8681 O   0  0  0  0  0  0  0  0  0  0  0  0
   10.3821  -15.5902   22.5735 N   0  0  0  0  0  0  0  0  0  0  0  0
   10.7116  -16.7285   23.4388 C   0  0  1  0  0  0  0  0  0  0  0  0
   12.0717  -17.2509   23.1040 C   0  0  0  0  0  0  0  0  0  0  0  0
   12.1610  -18.7269   23.3246 C   0  0  0  0  0  0  0  0  0  0  0  0
   13.5338  -19.2438   23.0150 C   0  0  0  0  0  0  0  0  0  0  0  0
   14.4339  -18.4605   22.6737 O   0  0  0  0  0  0  0  0  0  0  0  0
   10.6909  -16.2026   24.8180 C   0  0  0  0  0  0  0  0  0  0  0  0
   10.7731  -14.9305   24.9656 O   0  0  0  0  0  0  0  0  0  0  0  0
   13.7837  -20.5898   23.1131 O   0  0  0  0  0  0  0  0  0  0  0  0
   10.5858  -16.9877   25.9490 O   0  0  0  0  0  0  0  0  0  0  0  0
  2  1  1  6
  2  6  1  0
  2  3  1  0
  4  3  1  0
  4  5  2  0
  6  7  2  0
  8  4  1  0
 10  9  1  6
 10 12  1  0
 11 10  1  0
 12 14  1  0
 13  6  1  0
 12 13  1  6
 14 15  2  0
 16 14  1  0
 16 17  1  0
 17 22  1  0
 18 19  1  0
 17 18  1  6
 19 20  1  0
 20 24  1  0
 21 20  2  0
 22 25  1  0
 23 22  2  0
M  END
$$$$
