DVE.pdb
     RDKit          3D

 25 24  0  0  1  0  0  0  0  0999 V2000
   10.3909  -17.4427   16.9317 N   0  0  0  0  0  0  0  0  0  0  0  0
    9.5416  -17.6687   18.0605 C   0  0  1  0  0  0  0  0  0  0  0  0
    9.6913  -19.0386   18.6677 C   0  0  0  0  0  0  0  0  0  0  0  0
    9.3438  -20.1012   17.7190 C   0  0  0  0  0  0  0  0  0  0  0  0
    8.8952  -19.7751   16.5886 O   0  0  0  0  0  0  0  0  0  0  0  0
    9.7735  -16.6296   19.0922 C   0  0  0  0  0  0  0  0  0  0  0  0
   10.9139  -16.1284   19.2462 O   0  0  0  0  0  0  0  0  0  0  0  0
    9.4725  -21.4610   17.9727 O   0  0  0  0  0  0  0  0  0  0  0  0
    7.0283  -13.7886   20.1729 C   0  0  0  0  0  0  0  0  0  0  0  0
    7.5488  -14.5972   21.3132 C   0  0  2  0  0  0  0  0  0  0  0  0
    7.6277  -13.7420   22.5509 C   0  0  0  0  0  0  0  0  0  0  0  0
    8.9186  -15.1972   21.0047 C   0  0  2  0  0  0  0  0  0  0  0  0
    8.7386  -16.1575   19.9419 N   0  0  0  0  0  0  0  0  0  0  0  0
    9.3551  -15.9045   22.2258 C   0  0  0  0  0  0  0  0  0  0  0  0
    8.6351  -16.8480   22.6541 O   0  0  0  0  0  0  0  0  0  0  0  0
   10.5436  -15.5649   22.9285 N   0  0  0  0  0  0  0  0  0  0  0  0
   10.9128  -16.4054   24.0731 C   0  0  1  0  0  0  0  0  0  0  0  0
   12.3728  -16.2656   24.3630 C   0  0  0  0  0  0  0  0  0  0  0  0
   13.2056  -16.6805   23.1929 C   0  0  0  0  0  0  0  0  0  0  0  0
   14.6426  -16.2970   23.3812 C   0  0  0  0  0  0  0  0  0  0  0  0
   15.3126  -16.8121   24.2901 O   0  0  0  0  0  0  0  0  0  0  0  0
   10.1155  -15.9059   25.2107 C   0  0  0  0  0  0  0  0  0  0  0  0
   10.2369  -16.5200   26.3309 O   0  0  0  0  0  0  0  0  0  0  0  0
   15.2079  -15.3720   22.5395 O   0  0  0  0  0  0  0  0  0  0  0  0
    9.2575  -14.8259   25.1454 O   0  0  0  0  0  0  0  0  0  0  0  0
  2  1  1  6
  2  6  1  0
  2  3  1  0
  4  3  1  0
  4  5  2  0
  6  7  2  0
  8  4  1  0
 10  9  1  6
 10 12  1  0
 11 10  1  0
 12 14  1  0
 13  6  1  0
 12 13  1  6
 14 15  2  0
 16 14  1  0
 16 17  1  0
 17 22  1  0
 18 19  1  0
 17 18  1  1
 19 20  1  0
 20 24  1  0
 21 20  2  0
 22 25  1  0
 23 22  2  0
M  END
$$$$
