DVE.pdb
     RDKit          3D

 25 24  0  0  1  0  0  0  0  0999 V2000
    8.9793  -17.1224   16.0917 N   0  0  0  0  0  0  0  0  0  0  0  0
    8.3588  -17.3045   17.3678 C   0  0  1  0  0  0  0  0  0  0  0  0
    8.4377  -18.7166   17.8847 C   0  0  0  0  0  0  0  0  0  0  0  0
    7.7775  -19.6685   16.9858 C   0  0  0  0  0  0  0  0  0  0  0  0
    8.3860  -20.7272   16.6790 O   0  0  0  0  0  0  0  0  0  0  0  0
    8.9421  -16.3692   18.3591 C   0  0  0  0  0  0  0  0  0  0  0  0
   10.1716  -16.1167   18.3500 O   0  0  0  0  0  0  0  0  0  0  0  0
    6.5133  -19.4918   16.4372 O   0  0  0  0  0  0  0  0  0  0  0  0
    6.8493  -13.1602   19.9443 C   0  0  0  0  0  0  0  0  0  0  0  0
    7.4814  -14.0698   20.9435 C   0  0  2  0  0  0  0  0  0  0  0  0
    7.9186  -13.2787   22.1486 C   0  0  0  0  0  0  0  0  0  0  0  0
    8.6714  -14.8223   20.3527 C   0  0  2  0  0  0  0  0  0  0  0  0
    8.1561  -15.7239   19.3500 N   0  0  0  0  0  0  0  0  0  0  0  0
    9.2617  -15.6108   21.4535 C   0  0  0  0  0  0  0  0  0  0  0  0
    8.6912  -16.6862   21.7849 O   0  0  0  0  0  0  0  0  0  0  0  0
   10.4362  -15.2068   22.1457 N   0  0  0  0  0  0  0  0  0  0  0  0
   11.1355  -16.2254   22.9371 C   0  0  1  0  0  0  0  0  0  0  0  0
   12.6139  -16.0814   22.7679 C   0  0  0  0  0  0  0  0  0  0  0  0
   13.3608  -17.0401   23.6385 C   0  0  0  0  0  0  0  0  0  0  0  0
   14.8427  -16.9021   23.4579 C   0  0  0  0  0  0  0  0  0  0  0  0
   15.6193  -17.6463   24.0772 O   0  0  0  0  0  0  0  0  0  0  0  0
   10.7546  -15.9734   24.3409 C   0  0  0  0  0  0  0  0  0  0  0  0
   10.2661  -14.8205   24.6218 O   0  0  0  0  0  0  0  0  0  0  0  0
   15.3300  -15.9461   22.6022 O   0  0  0  0  0  0  0  0  0  0  0  0
   10.8869  -16.8948   25.3609 O   0  0  0  0  0  0  0  0  0  0  0  0
  2  1  1  6
  2  6  1  0
  2  3  1  0
  4  3  1  0
  4  5  2  0
  6  7  2  0
  8  4  1  0
 10  9  1  6
 10 12  1  0
 11 10  1  0
 12 14  1  0
 13  6  1  0
 12 13  1  6
 14 15  2  0
 16 14  1  0
 16 17  1  0
 17 22  1  0
 18 19  1  0
 17 18  1  1
 19 20  1  0
 20 24  1  0
 21 20  2  0
 22 25  1  0
 23 22  2  0
M  END
$$$$
