DVE.pdb
     RDKit          3D

 25 24  0  0  1  0  0  0  0  0999 V2000
    7.8428  -14.9567   20.7069 N   0  0  0  0  0  0  0  0  0  0  0  0
    7.2762  -15.3985   21.9440 C   0  0  1  0  0  0  0  0  0  0  0  0
    7.2092  -16.8968   22.0798 C   0  0  0  0  0  0  0  0  0  0  0  0
    6.3340  -17.5014   21.0706 C   0  0  0  0  0  0  0  0  0  0  0  0
    6.6197  -17.3437   19.8546 O   0  0  0  0  0  0  0  0  0  0  0  0
    8.0242  -14.8197   23.0856 C   0  0  0  0  0  0  0  0  0  0  0  0
    9.2768  -14.7462   23.0547 O   0  0  0  0  0  0  0  0  0  0  0  0
    5.1963  -18.2465   21.3547 O   0  0  0  0  0  0  0  0  0  0  0  0
    6.2947  -11.9544   25.3817 C   0  0  0  0  0  0  0  0  0  0  0  0
    6.9965  -12.9885   26.1962 C   0  0  2  0  0  0  0  0  0  0  0  0
    7.6381  -12.3432   27.3968 C   0  0  0  0  0  0  0  0  0  0  0  0
    8.0487  -13.7357   25.3801 C   0  0  2  0  0  0  0  0  0  0  0  0
    7.3753  -14.3286   24.2491 N   0  0  0  0  0  0  0  0  0  0  0  0
    8.5723  -14.8101   26.2480 C   0  0  0  0  0  0  0  0  0  0  0  0
    7.7593  -15.6734   26.6792 O   0  0  0  0  0  0  0  0  0  0  0  0
    9.9436  -14.9063   26.6114 N   0  0  0  0  0  0  0  0  0  0  0  0
   10.3451  -16.0578   27.4273 C   0  0  1  0  0  0  0  0  0  0  0  0
   11.7516  -16.4495   27.1058 C   0  0  0  0  0  0  0  0  0  0  0  0
   11.9241  -16.7215   25.6459 C   0  0  0  0  0  0  0  0  0  0  0  0
   13.3204  -17.1702   25.3348 C   0  0  0  0  0  0  0  0  0  0  0  0
   14.2917  -16.4951   25.7105 O   0  0  0  0  0  0  0  0  0  0  0  0
   10.2474  -15.6084   28.8301 C   0  0  0  0  0  0  0  0  0  0  0  0
   10.1201  -14.3487   29.0385 O   0  0  0  0  0  0  0  0  0  0  0  0
   13.5124  -18.3331   24.6314 O   0  0  0  0  0  0  0  0  0  0  0  0
   10.2804  -16.4529   29.9222 O   0  0  0  0  0  0  0  0  0  0  0  0
  2  1  1  6
  2  6  1  0
  2  3  1  0
  4  3  1  0
  4  5  2  0
  6  7  2  0
  8  4  1  0
 10  9  1  6
 10 12  1  0
 11 10  1  0
 12 14  1  0
 13  6  1  0
 12 13  1  6
 14 15  2  0
 16 14  1  0
 16 17  1  0
 17 22  1  0
 18 19  1  0
 17 18  1  6
 19 20  1  0
 20 24  1  0
 21 20  2  0
 22 25  1  0
 23 22  2  0
M  END
$$$$
