DVE.pdb
     RDKit          3D

 25 24  0  0  1  0  0  0  0  0999 V2000
   10.2193  -17.6702   16.9021 N   0  0  0  0  0  0  0  0  0  0  0  0
    9.1229  -17.5662   17.8152 C   0  0  1  0  0  0  0  0  0  0  0  0
    8.6066  -18.8961   18.2973 C   0  0  0  0  0  0  0  0  0  0  0  0
    7.8749  -19.6142   17.2491 C   0  0  0  0  0  0  0  0  0  0  0  0
    8.4409  -19.7999   16.1399 O   0  0  0  0  0  0  0  0  0  0  0  0
    9.4986  -16.7193   18.9725 C   0  0  0  0  0  0  0  0  0  0  0  0
   10.6403  -16.8122   19.4856 O   0  0  0  0  0  0  0  0  0  0  0  0
    6.5858  -20.1141   17.3853 O   0  0  0  0  0  0  0  0  0  0  0  0
    7.5548  -13.0912   19.7352 C   0  0  0  0  0  0  0  0  0  0  0  0
    7.7207  -14.0103   20.8984 C   0  0  2  0  0  0  0  0  0  0  0  0
    7.9107  -13.2080   22.1592 C   0  0  0  0  0  0  0  0  0  0  0  0
    8.8967  -14.9645   20.7043 C   0  0  2  0  0  0  0  0  0  0  0  0
    8.6046  -15.7786   19.5485 N   0  0  0  0  0  0  0  0  0  0  0  0
    8.9438  -15.8267   21.9028 C   0  0  0  0  0  0  0  0  0  0  0  0
    7.9181  -16.5045   22.1864 O   0  0  0  0  0  0  0  0  0  0  0  0
   10.0899  -15.9199   22.7392 N   0  0  0  0  0  0  0  0  0  0  0  0
   10.0685  -16.9326   23.8007 C   0  0  1  0  0  0  0  0  0  0  0  0
   11.0031  -18.0496   23.4635 C   0  0  0  0  0  0  0  0  0  0  0  0
   12.3911  -17.5488   23.2235 C   0  0  0  0  0  0  0  0  0  0  0  0
   13.3332  -18.6742   22.9176 C   0  0  0  0  0  0  0  0  0  0  0  0
   13.3646  -19.1709   21.7806 O   0  0  0  0  0  0  0  0  0  0  0  0
   10.5194  -16.2403   25.0241 C   0  0  0  0  0  0  0  0  0  0  0  0
   10.4999  -16.9069   26.1204 O   0  0  0  0  0  0  0  0  0  0  0  0
   14.1586  -19.1483   23.9064 O   0  0  0  0  0  0  0  0  0  0  0  0
   10.9607  -14.9323   25.0607 O   0  0  0  0  0  0  0  0  0  0  0  0
  2  1  1  6
  2  6  1  0
  2  3  1  0
  4  3  1  0
  4  5  2  0
  6  7  2  0
  8  4  1  0
 10  9  1  6
 10 12  1  0
 11 10  1  0
 12 14  1  0
 13  6  1  0
 12 13  1  6
 14 15  2  0
 16 14  1  0
 16 17  1  0
 17 22  1  0
 18 19  1  0
 17 18  1  6
 19 20  1  0
 20 24  1  0
 21 20  2  0
 22 25  1  0
 23 22  2  0
M  END
$$$$
