DVE.pdb
     RDKit          3D

 25 24  0  0  1  0  0  0  0  0999 V2000
    6.8432  -16.1032   21.7124 N   0  0  0  0  0  0  0  0  0  0  0  0
    8.2722  -16.1668   21.7373 C   0  0  1  0  0  0  0  0  0  0  0  0
    8.9247  -15.6430   20.4853 C   0  0  0  0  0  0  0  0  0  0  0  0
    8.5309  -16.4088   19.2986 C   0  0  0  0  0  0  0  0  0  0  0  0
    7.3039  -16.5642   19.0630 O   0  0  0  0  0  0  0  0  0  0  0  0
    8.7965  -15.4452   22.9214 C   0  0  0  0  0  0  0  0  0  0  0  0
   10.0333  -15.3198   23.0946 O   0  0  0  0  0  0  0  0  0  0  0  0
    9.4188  -16.9858   18.3992 O   0  0  0  0  0  0  0  0  0  0  0  0
    6.7413  -12.4221   24.6883 C   0  0  0  0  0  0  0  0  0  0  0  0
    7.2282  -13.4305   25.6739 C   0  0  2  0  0  0  0  0  0  0  0  0
    7.6393  -12.7407   26.9485 C   0  0  0  0  0  0  0  0  0  0  0  0
    8.3948  -14.2462   25.1218 C   0  0  2  0  0  0  0  0  0  0  0  0
    7.9440  -14.8704   23.9006 N   0  0  0  0  0  0  0  0  0  0  0  0
    8.6878  -15.2944   26.1204 C   0  0  0  0  0  0  0  0  0  0  0  0
    7.8203  -16.1905   26.3115 O   0  0  0  0  0  0  0  0  0  0  0  0
    9.8980  -15.3304   26.8659 N   0  0  0  0  0  0  0  0  0  0  0  0
   10.2336  -16.5870   27.5451 C   0  0  1  0  0  0  0  0  0  0  0  0
   11.4603  -17.1875   26.9370 C   0  0  0  0  0  0  0  0  0  0  0  0
   11.9352  -18.3708   27.7174 C   0  0  0  0  0  0  0  0  0  0  0  0
   13.1254  -19.0115   27.0688 C   0  0  0  0  0  0  0  0  0  0  0  0
   14.0162  -19.5233   27.7651 O   0  0  0  0  0  0  0  0  0  0  0  0
   10.4857  -16.2259   28.9541 C   0  0  0  0  0  0  0  0  0  0  0  0
   10.6737  -14.9849   29.2205 O   0  0  0  0  0  0  0  0  0  0  0  0
   13.2190  -19.0258   25.6995 O   0  0  0  0  0  0  0  0  0  0  0  0
   10.5274  -17.1328   29.9946 O   0  0  0  0  0  0  0  0  0  0  0  0
  2  1  1  6
  2  6  1  0
  2  3  1  0
  4  3  1  0
  4  5  2  0
  6  7  2  0
  8  4  1  0
 10  9  1  6
 10 12  1  0
 11 10  1  0
 12 14  1  0
 13  6  1  0
 12 13  1  6
 14 15  2  0
 16 14  1  0
 16 17  1  0
 17 22  1  0
 18 19  1  0
 17 18  1  6
 19 20  1  0
 20 24  1  0
 21 20  2  0
 22 25  1  0
 23 22  2  0
M  END
$$$$
