DVE.pdb
     RDKit          3D

 25 24  0  0  1  0  0  0  0  0999 V2000
    9.0935  -17.3939   16.2283 N   0  0  0  0  0  0  0  0  0  0  0  0
    8.3821  -17.4485   17.4683 C   0  0  1  0  0  0  0  0  0  0  0  0
    8.3393  -18.8225   18.0831 C   0  0  0  0  0  0  0  0  0  0  0  0
    7.8798  -19.8372   17.1296 C   0  0  0  0  0  0  0  0  0  0  0  0
    8.1447  -21.0457   17.3631 O   0  0  0  0  0  0  0  0  0  0  0  0
    8.9577  -16.4803   18.4321 C   0  0  0  0  0  0  0  0  0  0  0  0
   10.1888  -16.2359   18.4310 O   0  0  0  0  0  0  0  0  0  0  0  0
    7.1638  -19.5662   15.9702 O   0  0  0  0  0  0  0  0  0  0  0  0
    6.8604  -13.2270   19.9531 C   0  0  0  0  0  0  0  0  0  0  0  0
    7.4843  -14.1271   20.9660 C   0  0  2  0  0  0  0  0  0  0  0  0
    7.9185  -13.3233   22.1639 C   0  0  0  0  0  0  0  0  0  0  0  0
    8.6745  -14.8907   20.3900 C   0  0  2  0  0  0  0  0  0  0  0  0
    8.1622  -15.7935   19.3869 N   0  0  0  0  0  0  0  0  0  0  0  0
    9.2490  -15.6778   21.5000 C   0  0  0  0  0  0  0  0  0  0  0  0
    8.6805  -16.7587   21.8170 O   0  0  0  0  0  0  0  0  0  0  0  0
   10.4063  -15.2668   22.2166 N   0  0  0  0  0  0  0  0  0  0  0  0
   11.1263  -16.2931   22.9790 C   0  0  1  0  0  0  0  0  0  0  0  0
   12.5994  -16.0501   22.9029 C   0  0  0  0  0  0  0  0  0  0  0  0
   13.3578  -17.0093   23.7629 C   0  0  0  0  0  0  0  0  0  0  0  0
   14.8355  -16.7719   23.6749 C   0  0  0  0  0  0  0  0  0  0  0  0
   15.3510  -16.4352   22.5973 O   0  0  0  0  0  0  0  0  0  0  0  0
   10.6574  -16.1597   24.3724 C   0  0  0  0  0  0  0  0  0  0  0  0
   10.1165  -15.0458   24.7088 O   0  0  0  0  0  0  0  0  0  0  0  0
   15.6103  -16.9305   24.7967 O   0  0  0  0  0  0  0  0  0  0  0  0
   10.7606  -17.1523   25.3269 O   0  0  0  0  0  0  0  0  0  0  0  0
  2  1  1  6
  2  6  1  0
  2  3  1  0
  4  3  1  0
  4  5  2  0
  6  7  2  0
  8  4  1  0
 10  9  1  6
 10 12  1  0
 11 10  1  0
 12 14  1  0
 13  6  1  0
 12 13  1  6
 14 15  2  0
 16 14  1  0
 16 17  1  0
 17 22  1  0
 18 19  1  0
 17 18  1  1
 19 20  1  0
 20 24  1  0
 21 20  2  0
 22 25  1  0
 23 22  2  0
M  END
$$$$
