DVE.pdb
     RDKit          3D

 25 24  0  0  1  0  0  0  0  0999 V2000
    8.3137  -17.0205   16.4560 N   0  0  0  0  0  0  0  0  0  0  0  0
    9.7072  -16.7810   16.6737 C   0  0  1  0  0  0  0  0  0  0  0  0
   10.4118  -16.1783   15.4871 C   0  0  0  0  0  0  0  0  0  0  0  0
   10.2899  -17.0176   14.2910 C   0  0  0  0  0  0  0  0  0  0  0  0
    9.9489  -18.2212   14.4331 O   0  0  0  0  0  0  0  0  0  0  0  0
    9.8992  -15.9218   17.8665 C   0  0  0  0  0  0  0  0  0  0  0  0
   11.0538  -15.6166   18.2524 O   0  0  0  0  0  0  0  0  0  0  0  0
   10.5246  -16.5827   12.9925 O   0  0  0  0  0  0  0  0  0  0  0  0
    7.3758  -12.8940   19.0146 C   0  0  0  0  0  0  0  0  0  0  0  0
    7.6157  -13.9239   20.0668 C   0  0  2  0  0  0  0  0  0  0  0  0
    7.6089  -13.2752   21.4264 C   0  0  0  0  0  0  0  0  0  0  0  0
    8.9337  -14.6629   19.8473 C   0  0  2  0  0  0  0  0  0  0  0  0
    8.8088  -15.4103   18.6185 N   0  0  0  0  0  0  0  0  0  0  0  0
    9.0818  -15.6068   20.9737 C   0  0  0  0  0  0  0  0  0  0  0  0
    8.5660  -16.7526   20.8591 O   0  0  0  0  0  0  0  0  0  0  0  0
    9.7765  -15.2754   22.1693 N   0  0  0  0  0  0  0  0  0  0  0  0
   10.4881  -16.3586   22.8572 C   0  0  1  0  0  0  0  0  0  0  0  0
   11.9453  -16.3062   22.5274 C   0  0  0  0  0  0  0  0  0  0  0  0
   12.3889  -17.5400   21.8092 C   0  0  0  0  0  0  0  0  0  0  0  0
   13.8700  -17.5346   21.5768 C   0  0  0  0  0  0  0  0  0  0  0  0
   14.3662  -16.7786   20.7268 O   0  0  0  0  0  0  0  0  0  0  0  0
   10.2814  -16.1211   24.2995 C   0  0  0  0  0  0  0  0  0  0  0  0
    9.9448  -14.9365   24.6600 O   0  0  0  0  0  0  0  0  0  0  0  0
   14.6695  -18.3731   22.3129 O   0  0  0  0  0  0  0  0  0  0  0  0
   10.4229  -17.0875   25.2757 O   0  0  0  0  0  0  0  0  0  0  0  0
  2  1  1  6
  2  6  1  0
  2  3  1  0
  4  3  1  0
  4  5  2  0
  6  7  2  0
  8  4  1  0
 10  9  1  6
 10 12  1  0
 11 10  1  0
 12 14  1  0
 13  6  1  0
 12 13  1  6
 14 15  2  0
 16 14  1  0
 16 17  1  0
 17 22  1  0
 18 19  1  0
 17 18  1  1
 19 20  1  0
 20 24  1  0
 21 20  2  0
 22 25  1  0
 23 22  2  0
M  END
$$$$
