YSQ.pdb
     RDKit          3D

 28 28  0  0  1  0  0  0  0  0999 V2000
   36.4942   -7.7437  -15.4910 O   0  0  0  0  0  0  0  0  0  0  0  0
   35.2413   -8.0088  -16.0693 C   0  0  0  0  0  0  0  0  0  0  0  0
   34.1106   -7.4362  -15.5510 C   0  0  0  0  0  0  0  0  0  0  0  0
   32.8736   -7.7090  -16.1362 C   0  0  0  0  0  0  0  0  0  0  0  0
   32.7548   -8.5449  -17.2300 C   0  0  0  0  0  0  0  0  0  0  0  0
   31.4689   -8.8497  -17.8659 C   0  0  0  0  0  0  0  0  0  0  0  0
   30.8398  -10.1245  -17.3227 C   0  0  2  0  0  0  0  0  0  0  0  0
   31.5658  -11.2965  -17.7258 N   0  0  0  0  0  0  0  0  0  0  0  0
   29.4662  -10.1862  -17.8437 C   0  0  0  0  0  0  0  0  0  0  0  0
   29.2005  -10.8764  -18.8401 O   0  0  0  0  0  0  0  0  0  0  0  0
   33.9111   -9.1071  -17.7301 C   0  0  0  0  0  0  0  0  0  0  0  0
   35.1570   -8.8468  -17.1592 C   0  0  0  0  0  0  0  0  0  0  0  0
   26.5316  -10.0009  -15.3420 O   0  0  0  0  0  0  0  0  0  0  0  0
   26.2609  -10.3934  -16.6596 C   0  0  0  0  0  0  0  0  0  0  0  0
   27.0923   -9.5733  -17.6262 C   0  0  2  0  0  0  0  0  0  0  0  0
   28.4506   -9.4529  -17.2003 N   0  0  0  0  0  0  0  0  0  0  0  0
   26.4608   -8.2366  -17.8105 C   0  0  0  0  0  0  0  0  0  0  0  0
   26.8780   -7.2164  -17.1967 O   0  0  0  0  0  0  0  0  0  0  0  0
   22.9781   -7.4317  -22.7119 N   0  0  0  0  0  0  0  0  0  0  0  0
   24.3499   -7.0860  -22.6636 C   0  0  0  0  0  0  0  0  0  0  0  0
   25.0266   -7.0511  -23.7220 O   0  0  0  0  0  0  0  0  0  0  0  0
   24.9743   -6.7632  -21.3786 C   0  0  0  0  0  0  0  0  0  0  0  0
   24.0304   -6.9020  -20.2428 C   0  0  0  0  0  0  0  0  0  0  0  0
   24.5995   -6.8570  -18.8658 C   0  0  2  0  0  0  0  0  0  0  0  0
   25.3699   -8.1048  -18.6918 N   0  0  0  0  0  0  0  0  0  0  0  0
   23.7501   -6.5814  -17.7418 C   0  0  0  0  0  0  0  0  0  0  0  0
   23.2693   -5.2661  -17.5769 O   0  0  0  0  0  0  0  0  0  0  0  0
   23.3772   -7.3947  -16.8684 O   0  0  0  0  0  0  0  0  0  0  0  0
  2  1  1  0
  3  2  2  0
  4  3  1  0
  5 11  1  0
  5  4  2  0
  6  5  1  0
  7  6  1  0
  7  8  1  6
  9  7  1  0
  9 10  2  0
 11 12  2  0
 12  2  1  0
 14 13  1  0
 15 16  1  0
 15 14  1  1
 16  9  1  0
 17 15  1  0
 18 17  2  0
 20 19  1  0
 21 20  2  0
 22 20  1  0
 24 23  1  6
 23 22  1  0
 24 25  1  0
 25 17  1  0
 26 24  1  0
 26 27  1  0
 28 26  2  0
M  END
$$$$
