YSQ.pdb
     RDKit          3D

 28 28  0  0  1  0  0  0  0  0999 V2000
   17.4613  -15.0563  -17.0457 O   0  0  0  0  0  0  0  0  0  0  0  0
   17.6512  -13.7110  -16.6871 C   0  0  0  0  0  0  0  0  0  0  0  0
   18.9122  -13.2371  -16.4420 C   0  0  0  0  0  0  0  0  0  0  0  0
   19.0849  -11.8988  -16.0868 C   0  0  0  0  0  0  0  0  0  0  0  0
   18.0146  -11.0320  -15.9742 C   0  0  0  0  0  0  0  0  0  0  0  0
   18.1654   -9.6212  -15.6032 C   0  0  0  0  0  0  0  0  0  0  0  0
   18.2568   -9.4232  -14.0970 C   0  0  2  0  0  0  0  0  0  0  0  0
   17.0421   -9.8016  -13.4302 N   0  0  0  0  0  0  0  0  0  0  0  0
   18.5296   -7.9975  -13.8630 C   0  0  0  0  0  0  0  0  0  0  0  0
   17.5974   -7.1991  -13.6800 O   0  0  0  0  0  0  0  0  0  0  0  0
   16.7564  -11.5381  -16.2272 C   0  0  0  0  0  0  0  0  0  0  0  0
   16.5631  -12.8729  -16.5835 C   0  0  0  0  0  0  0  0  0  0  0  0
   22.3808   -6.8970  -13.1753 O   0  0  0  0  0  0  0  0  0  0  0  0
   21.4051   -5.9637  -12.8008 C   0  0  0  0  0  0  0  0  0  0  0  0
   20.1525   -6.1614  -13.6314 C   0  0  2  0  0  0  0  0  0  0  0  0
   19.8626   -7.5433  -13.8482 N   0  0  0  0  0  0  0  0  0  0  0  0
   20.2931   -5.4277  -14.9204 C   0  0  0  0  0  0  0  0  0  0  0  0
   20.7661   -5.9822  -15.9502 O   0  0  0  0  0  0  0  0  0  0  0  0
   17.0113   -1.8401  -19.8940 N   0  0  0  0  0  0  0  0  0  0  0  0
   17.2511   -2.4432  -18.6360 C   0  0  0  0  0  0  0  0  0  0  0  0
   16.4022   -3.2282  -18.1435 O   0  0  0  0  0  0  0  0  0  0  0  0
   18.4931   -2.1544  -17.9154 C   0  0  0  0  0  0  0  0  0  0  0  0
   18.6420   -2.9831  -16.6942 C   0  0  0  0  0  0  0  0  0  0  0  0
   20.0256   -3.2466  -16.2060 C   0  0  2  0  0  0  0  0  0  0  0  0
   19.8888   -4.0805  -14.9948 N   0  0  0  0  0  0  0  0  0  0  0  0
   20.9441   -2.1598  -16.0167 C   0  0  0  0  0  0  0  0  0  0  0  0
   21.1941   -1.7206  -14.7003 O   0  0  0  0  0  0  0  0  0  0  0  0
   21.5650   -1.5408  -16.9081 O   0  0  0  0  0  0  0  0  0  0  0  0
  2  1  1  0
  3  2  2  0
  4  3  1  0
  5 11  1  0
  5  4  2  0
  6  5  1  0
  7  6  1  0
  7  8  1  1
  9  7  1  0
  9 10  2  0
 11 12  2  0
 12  2  1  0
 14 13  1  0
 15 16  1  0
 15 14  1  6
 16  9  1  0
 17 15  1  0
 18 17  2  0
 20 19  1  0
 21 20  2  0
 22 20  1  0
 24 23  1  1
 23 22  1  0
 24 25  1  0
 25 17  1  0
 26 24  1  0
 26 27  1  0
 28 26  2  0
M  END
$$$$
