YSQ.pdb
     RDKit          3D

 28 28  0  0  1  0  0  0  0  0999 V2000
   22.8250  -10.6137  -26.0767 O   0  0  0  0  0  0  0  0  0  0  0  0
   22.6729  -10.2865  -24.7187 C   0  0  0  0  0  0  0  0  0  0  0  0
   23.5284  -10.8097  -23.7862 C   0  0  0  0  0  0  0  0  0  0  0  0
   23.3647  -10.4754  -22.4414 C   0  0  0  0  0  0  0  0  0  0  0  0
   22.3590   -9.6268  -22.0198 C   0  0  0  0  0  0  0  0  0  0  0  0
   22.1629   -9.2575  -20.6141 C   0  0  0  0  0  0  0  0  0  0  0  0
   21.6808  -10.4270  -19.7680 C   0  0  2  0  0  0  0  0  0  0  0  0
   20.3509  -10.8365  -20.1247 N   0  0  0  0  0  0  0  0  0  0  0  0
   21.7066   -9.9869  -18.3653 C   0  0  0  0  0  0  0  0  0  0  0  0
   20.6983   -9.4866  -17.8430 O   0  0  0  0  0  0  0  0  0  0  0  0
   21.5128   -9.1153  -22.9819 C   0  0  0  0  0  0  0  0  0  0  0  0
   21.6599   -9.4374  -24.3312 C   0  0  0  0  0  0  0  0  0  0  0  0
   23.7936  -11.8574  -15.4283 O   0  0  0  0  0  0  0  0  0  0  0  0
   24.0407  -10.4794  -15.4879 C   0  0  0  0  0  0  0  0  0  0  0  0
   22.9190   -9.7832  -16.2329 C   0  0  2  0  0  0  0  0  0  0  0  0
   22.8895  -10.1383  -17.6163 N   0  0  0  0  0  0  0  0  0  0  0  0
   23.0463   -8.3097  -16.0534 C   0  0  0  0  0  0  0  0  0  0  0  0
   23.5107   -7.5692  -16.9631 O   0  0  0  0  0  0  0  0  0  0  0  0
   21.4156   -3.7712  -17.6218 N   0  0  0  0  0  0  0  0  0  0  0  0
   20.6606   -3.6312  -16.4326 C   0  0  0  0  0  0  0  0  0  0  0  0
   19.8666   -2.6658  -16.3025 O   0  0  0  0  0  0  0  0  0  0  0  0
   20.8034   -4.6179  -15.3596 C   0  0  0  0  0  0  0  0  0  0  0  0
   21.7621   -5.6948  -15.7081 C   0  0  0  0  0  0  0  0  0  0  0  0
   22.5841   -6.2680  -14.6046 C   0  0  2  0  0  0  0  0  0  0  0  0
   22.6386   -7.7252  -14.8385 N   0  0  0  0  0  0  0  0  0  0  0  0
   22.2827   -5.9479  -13.2380 C   0  0  0  0  0  0  0  0  0  0  0  0
   22.7328   -4.7125  -12.7284 O   0  0  0  0  0  0  0  0  0  0  0  0
   21.6502   -6.6568  -12.4253 O   0  0  0  0  0  0  0  0  0  0  0  0
  2  1  1  0
  3  2  2  0
  4  3  1  0
  5 11  1  0
  5  4  2  0
  6  5  1  0
  7  6  1  0
  7  8  1  6
  9  7  1  0
  9 10  2  0
 11 12  2  0
 12  2  1  0
 14 13  1  0
 15 16  1  0
 15 14  1  1
 16  9  1  0
 17 15  1  0
 18 17  2  0
 20 19  1  0
 21 20  2  0
 22 20  1  0
 24 23  1  6
 23 22  1  0
 24 25  1  0
 25 17  1  0
 26 24  1  0
 26 27  1  0
 28 26  2  0
M  END
$$$$
