YSQ.pdb
     RDKit          3D

 28 28  0  0  1  0  0  0  0  0999 V2000
   29.3306  -27.9136  -17.1886 O   0  0  0  0  0  0  0  0  0  0  0  0
   28.7735  -26.7001  -16.7511 C   0  0  0  0  0  0  0  0  0  0  0  0
   27.4523  -26.6392  -16.3968 C   0  0  0  0  0  0  0  0  0  0  0  0
   26.9134  -25.4269  -15.9644 C   0  0  0  0  0  0  0  0  0  0  0  0
   27.6779  -24.2788  -15.8825 C   0  0  0  0  0  0  0  0  0  0  0  0
   27.1393  -22.9913  -15.4316 C   0  0  0  0  0  0  0  0  0  0  0  0
   26.7238  -22.0974  -16.5910 C   0  0  2  0  0  0  0  0  0  0  0  0
   27.8558  -21.4924  -17.2360 N   0  0  0  0  0  0  0  0  0  0  0  0
   25.8476  -21.0528  -16.0405 C   0  0  0  0  0  0  0  0  0  0  0  0
   26.3294  -20.0166  -15.5568 O   0  0  0  0  0  0  0  0  0  0  0  0
   29.0056  -24.3710  -16.2460 C   0  0  0  0  0  0  0  0  0  0  0  0
   29.5629  -25.5735  -16.6809 C   0  0  0  0  0  0  0  0  0  0  0  0
   22.9649  -19.5097  -17.6891 O   0  0  0  0  0  0  0  0  0  0  0  0
   23.3849  -19.0696  -16.4268 C   0  0  0  0  0  0  0  0  0  0  0  0
   23.5818  -20.2555  -15.5033 C   0  0  2  0  0  0  0  0  0  0  0  0
   24.4519  -21.2384  -16.0668 N   0  0  0  0  0  0  0  0  0  0  0  0
   22.2551  -20.8390  -15.1582 C   0  0  0  0  0  0  0  0  0  0  0  0
   22.1254  -22.0570  -14.8562 O   0  0  0  0  0  0  0  0  0  0  0  0
   19.3499  -23.9680  -14.2579 N   0  0  0  0  0  0  0  0  0  0  0  0
   18.2621  -23.2731  -13.6767 C   0  0  0  0  0  0  0  0  0  0  0  0
   17.1742  -23.8679  -13.4716 O   0  0  0  0  0  0  0  0  0  0  0  0
   18.4118  -21.8631  -13.3101 C   0  0  0  0  0  0  0  0  0  0  0  0
   19.7139  -21.3024  -13.7466 C   0  0  0  0  0  0  0  0  0  0  0  0
   19.7344  -20.5141  -15.0116 C   0  0  2  0  0  0  0  0  0  0  0  0
   21.1146  -20.0127  -15.1684 N   0  0  0  0  0  0  0  0  0  0  0  0
   18.7547  -19.4901  -15.2406 C   0  0  0  0  0  0  0  0  0  0  0  0
   19.1106  -18.1540  -14.9639 O   0  0  0  0  0  0  0  0  0  0  0  0
   17.5909  -19.6502  -15.6685 O   0  0  0  0  0  0  0  0  0  0  0  0
  2  1  1  0
  3  2  2  0
  4  3  1  0
  5 11  1  0
  5  4  2  0
  6  5  1  0
  7  6  1  0
  7  8  1  1
  9  7  1  0
  9 10  2  0
 11 12  2  0
 12  2  1  0
 14 13  1  0
 15 16  1  0
 15 14  1  6
 16  9  1  0
 17 15  1  0
 18 17  2  0
 20 19  1  0
 21 20  2  0
 22 20  1  0
 24 23  1  1
 23 22  1  0
 24 25  1  0
 25 17  1  0
 26 24  1  0
 26 27  1  0
 28 26  2  0
M  END
$$$$
