DVM.pdb
     RDKit          3D

 24 23  0  0  1  0  0  0  0  0999 V2000
   18.2108  -11.8126  -18.3902 N   0  0  0  0  0  0  0  0  0  0  0  0
   19.3453  -10.9573  -18.8396 C   0  0  1  0  0  0  0  0  0  0  0  0
   18.7748   -9.9133  -19.7309 C   0  0  0  0  0  0  0  0  0  0  0  0
   18.3860  -10.3813  -21.0689 C   0  0  0  0  0  0  0  0  0  0  0  0
   18.5439  -11.6045  -21.3380 O   0  0  0  0  0  0  0  0  0  0  0  0
   20.0354  -10.4407  -17.6418 C   0  0  0  0  0  0  0  0  0  0  0  0
   19.3762  -10.0633  -16.6190 O   0  0  0  0  0  0  0  0  0  0  0  0
   17.8681   -9.4676  -21.9757 O   0  0  0  0  0  0  0  0  0  0  0  0
   22.8265  -12.0584  -15.3883 C   0  0  0  0  0  0  0  0  0  0  0  0
   23.1101  -10.6066  -15.6469 C   0  0  2  0  0  0  0  0  0  0  0  0
   23.6977   -9.9045  -14.4447 C   0  0  0  0  0  0  0  0  0  0  0  0
   22.0590   -9.8155  -16.2909 C   0  0  2  0  0  0  0  0  0  0  0  0
   21.4316  -10.2974  -17.4818 N   0  0  0  0  0  0  0  0  0  0  0  0
   22.1592   -8.3342  -16.1663 C   0  0  0  0  0  0  0  0  0  0  0  0
   22.9846   -7.6887  -16.9106 O   0  0  0  0  0  0  0  0  0  0  0  0
   17.4332   -3.9674  -15.7377 C   0  0  0  0  0  0  0  0  0  0  0  0
   18.9237   -2.9855  -15.9334 S   0  0  0  0  0  0  0  0  0  0  0  0
   20.4171   -3.8585  -15.4990 C   0  0  0  0  0  0  0  0  0  0  0  0
   20.3600   -5.3481  -15.6178 C   0  0  0  0  0  0  0  0  0  0  0  0
   21.6082   -6.0660  -15.2146 C   0  0  2  0  0  0  0  0  0  0  0  0
   21.4224   -7.5279  -15.2801 N   0  0  0  0  0  0  0  0  0  0  0  0
   22.1616   -5.6898  -13.9092 C   0  0  0  0  0  0  0  0  0  0  0  0
   21.9616   -6.4721  -12.9421 O   0  0  0  0  0  0  0  0  0  0  0  0
   22.8818   -4.5621  -13.6376 O   0  0  0  0  0  0  0  0  0  0  0  0
  2  1  1  1
  2  3  1  0
  3  4  1  0
  4  8  1  0
  4  5  2  0
  6  2  1  0
  7  6  2  0
 10  9  1  1
 10 12  1  0
 11 10  1  0
 12 13  1  6
 12 14  1  0
 13  6  1  0
 14 21  1  0
 15 14  2  0
 17 16  1  0
 18 17  1  0
 19 18  1  0
 20 19  1  1
 20 22  1  0
 21 20  1  0
 22 24  1  0
 23 22  2  0
M  END
$$$$
