DVM.pdb
     RDKit          3D

 24 23  0  0  1  0  0  0  0  0999 V2000
   28.5097  -23.5802  -17.0782 N   0  0  0  0  0  0  0  0  0  0  0  0
   27.8956  -22.3240  -17.5934 C   0  0  1  0  0  0  0  0  0  0  0  0
   27.2820  -22.6487  -18.9080 C   0  0  0  0  0  0  0  0  0  0  0  0
   28.2295  -22.7652  -20.0257 C   0  0  0  0  0  0  0  0  0  0  0  0
   27.8246  -23.3061  -21.0920 O   0  0  0  0  0  0  0  0  0  0  0  0
   26.9522  -21.8214  -16.5760 C   0  0  0  0  0  0  0  0  0  0  0  0
   26.2408  -22.6252  -15.8899 O   0  0  0  0  0  0  0  0  0  0  0  0
   29.5205  -22.2828  -19.8646 O   0  0  0  0  0  0  0  0  0  0  0  0
   25.9528  -17.5221  -14.7676 C   0  0  0  0  0  0  0  0  0  0  0  0
   26.3463  -18.9034  -14.3292 C   0  0  2  0  0  0  0  0  0  0  0  0
   27.8076  -19.0025  -13.9572 C   0  0  0  0  0  0  0  0  0  0  0  0
   25.9090  -20.0278  -15.1597 C   0  0  2  0  0  0  0  0  0  0  0  0
   26.7208  -20.4661  -16.2520 N   0  0  0  0  0  0  0  0  0  0  0  0
   24.4400  -20.2059  -15.3330 C   0  0  0  0  0  0  0  0  0  0  0  0
   23.8751  -19.8046  -16.4155 O   0  0  0  0  0  0  0  0  0  0  0  0
   20.3501  -25.0979  -14.2182 C   0  0  0  0  0  0  0  0  0  0  0  0
   19.4201  -23.6451  -14.7167 S   0  0  0  0  0  0  0  0  0  0  0  0
   20.0193  -22.1293  -13.9926 C   0  0  0  0  0  0  0  0  0  0  0  0
   21.5049  -22.0048  -13.8761 C   0  0  0  0  0  0  0  0  0  0  0  0
   22.1093  -20.8703  -14.6402 C   0  0  2  0  0  0  0  0  0  0  0  0
   23.5619  -20.7842  -14.3988 N   0  0  0  0  0  0  0  0  0  0  0  0
   21.4875  -19.5593  -14.4250 C   0  0  0  0  0  0  0  0  0  0  0  0
   21.9913  -18.8107  -13.5456 O   0  0  0  0  0  0  0  0  0  0  0  0
   20.4044  -19.0651  -15.0935 O   0  0  0  0  0  0  0  0  0  0  0  0
  2  1  1  1
  2  3  1  0
  3  4  1  0
  4  8  1  0
  4  5  2  0
  6  2  1  0
  7  6  2  0
 10  9  1  6
 10 12  1  0
 11 10  1  0
 12 13  1  6
 12 14  1  0
 13  6  1  0
 14 21  1  0
 15 14  2  0
 17 16  1  0
 18 17  1  0
 19 18  1  0
 20 19  1  1
 20 22  1  0
 21 20  1  0
 22 24  1  0
 23 22  2  0
M  END
$$$$
