DVM.pdb
     RDKit          3D

 24 23  0  0  1  0  0  0  0  0999 V2000
   19.4867  -10.7735  -19.2710 N   0  0  0  0  0  0  0  0  0  0  0  0
   20.7519   -9.9885  -19.2109 C   0  0  1  0  0  0  0  0  0  0  0  0
   20.6274   -8.8886  -20.2032 C   0  0  0  0  0  0  0  0  0  0  0  0
   20.7244   -9.3047  -21.6096 C   0  0  0  0  0  0  0  0  0  0  0  0
   20.8988  -10.5307  -21.8542 O   0  0  0  0  0  0  0  0  0  0  0  0
   20.9541   -9.5467  -17.8175 C   0  0  0  0  0  0  0  0  0  0  0  0
   19.9699   -9.1708  -17.1012 O   0  0  0  0  0  0  0  0  0  0  0  0
   20.6240   -8.3415  -22.6033 O   0  0  0  0  0  0  0  0  0  0  0  0
   22.2792  -11.3330  -14.7029 C   0  0  0  0  0  0  0  0  0  0  0  0
   22.8715   -9.9548  -14.7723 C   0  0  2  0  0  0  0  0  0  0  0  0
   22.9870   -9.3011  -13.4147 C   0  0  0  0  0  0  0  0  0  0  0  0
   22.3391   -9.0390  -15.7840 C   0  0  2  0  0  0  0  0  0  0  0  0
   22.1897   -9.4786  -17.1362 N   0  0  0  0  0  0  0  0  0  0  0  0
   22.6355   -7.5901  -15.6035 C   0  0  0  0  0  0  0  0  0  0  0  0
   23.4566   -7.0058  -16.4012 O   0  0  0  0  0  0  0  0  0  0  0  0
   22.0939   -0.6362  -17.5101 C   0  0  0  0  0  0  0  0  0  0  0  0
   21.7675   -2.4016  -17.4803 S   0  0  0  0  0  0  0  0  0  0  0  0
   22.2303   -3.1885  -15.9482 C   0  0  0  0  0  0  0  0  0  0  0  0
   22.0372   -4.6703  -15.8916 C   0  0  0  0  0  0  0  0  0  0  0  0
   22.3639   -5.3039  -14.5772 C   0  0  2  0  0  0  0  0  0  0  0  0
   22.0977   -6.7545  -14.6082 N   0  0  0  0  0  0  0  0  0  0  0  0
   21.7183   -4.7015  -13.4058 C   0  0  0  0  0  0  0  0  0  0  0  0
   20.7781   -5.3410  -12.8632 O   0  0  0  0  0  0  0  0  0  0  0  0
   22.0419   -3.5022  -12.8391 O   0  0  0  0  0  0  0  0  0  0  0  0
  2  1  1  1
  2  3  1  0
  3  4  1  0
  4  8  1  0
  4  5  2  0
  6  2  1  0
  7  6  2  0
 10  9  1  1
 10 12  1  0
 11 10  1  0
 12 13  1  6
 12 14  1  0
 13  6  1  0
 14 21  1  0
 15 14  2  0
 17 16  1  0
 18 17  1  0
 19 18  1  0
 20 19  1  6
 20 22  1  0
 21 20  1  0
 22 24  1  0
 23 22  2  0
M  END
$$$$
