DVM.pdb
     RDKit          3D

 24 23  0  0  1  0  0  0  0  0999 V2000
   19.1842  -28.5956  -10.8188 N   0  0  0  0  0  0  0  0  0  0  0  0
   17.9076  -28.3020  -10.1085 C   0  0  1  0  0  0  0  0  0  0  0  0
   17.2227  -29.6035   -9.8917 C   0  0  0  0  0  0  0  0  0  0  0  0
   16.7497  -30.2695  -11.1136 C   0  0  0  0  0  0  0  0  0  0  0  0
   16.0742  -29.5899  -11.9354 O   0  0  0  0  0  0  0  0  0  0  0  0
   18.2272  -27.5565   -8.8757 C   0  0  0  0  0  0  0  0  0  0  0  0
   19.2743  -27.8252   -8.2018 O   0  0  0  0  0  0  0  0  0  0  0  0
   17.0594  -31.6074  -11.3121 O   0  0  0  0  0  0  0  0  0  0  0  0
   16.8527  -23.4132   -7.2991 C   0  0  0  0  0  0  0  0  0  0  0  0
   18.0705  -24.2912   -7.3294 C   0  0  2  0  0  0  0  0  0  0  0  0
   19.0013  -23.9574   -8.4721 C   0  0  0  0  0  0  0  0  0  0  0  0
   17.8687  -25.7346   -7.1836 C   0  0  2  0  0  0  0  0  0  0  0  0
   17.4590  -26.5151   -8.3092 N   0  0  0  0  0  0  0  0  0  0  0  0
   17.3979  -26.2180   -5.8552 C   0  0  0  0  0  0  0  0  0  0  0  0
   16.2775  -26.8417   -5.7671 O   0  0  0  0  0  0  0  0  0  0  0  0
   20.8939  -27.3077   -0.3293 C   0  0  0  0  0  0  0  0  0  0  0  0
   19.2155  -27.3110    0.3086 S   0  0  0  0  0  0  0  0  0  0  0  0
   17.9810  -26.9427   -0.9248 C   0  0  0  0  0  0  0  0  0  0  0  0
   18.5006  -26.5646   -2.2750 C   0  0  0  0  0  0  0  0  0  0  0  0
   17.4633  -26.4516   -3.3462 C   0  0  2  0  0  0  0  0  0  0  0  0
   18.0702  -26.0545   -4.6307 N   0  0  0  0  0  0  0  0  0  0  0  0
   16.3271  -25.5765   -3.0378 C   0  0  0  0  0  0  0  0  0  0  0  0
   16.3889  -24.3795   -3.4261 O   0  0  0  0  0  0  0  0  0  0  0  0
   15.1957  -25.9376   -2.3642 O   0  0  0  0  0  0  0  0  0  0  0  0
  2  1  1  1
  2  3  1  0
  3  4  1  0
  4  8  1  0
  4  5  2  0
  6  2  1  0
  7  6  2  0
 10  9  1  6
 10 12  1  0
 11 10  1  0
 12 13  1  6
 12 14  1  0
 13  6  1  0
 14 21  1  0
 15 14  2  0
 17 16  1  0
 18 17  1  0
 19 18  1  0
 20 19  1  1
 20 22  1  0
 21 20  1  0
 22 24  1  0
 23 22  2  0
M  END
$$$$
