DVM.pdb
     RDKit          3D

 24 23  0  0  1  0  0  0  0  0999 V2000
   23.8212  -23.5727  -15.6712 N   0  0  0  0  0  0  0  0  0  0  0  0
   23.5687  -22.2718  -14.9898 C   0  0  1  0  0  0  0  0  0  0  0  0
   22.2624  -22.3947  -14.2909 C   0  0  0  0  0  0  0  0  0  0  0  0
   21.0891  -22.4714  -15.1728 C   0  0  0  0  0  0  0  0  0  0  0  0
   21.1571  -21.9076  -16.3002 O   0  0  0  0  0  0  0  0  0  0  0  0
   24.7177  -21.9818  -14.1103 C   0  0  0  0  0  0  0  0  0  0  0  0
   25.3087  -22.9159  -13.4770 O   0  0  0  0  0  0  0  0  0  0  0  0
   19.9624  -23.1522  -14.7339 O   0  0  0  0  0  0  0  0  0  0  0  0
   27.8103  -19.1621  -14.4094 C   0  0  0  0  0  0  0  0  0  0  0  0
   27.2124  -19.3439  -13.0439 C   0  0  2  0  0  0  0  0  0  0  0  0
   28.2469  -19.2946  -11.9435 C   0  0  0  0  0  0  0  0  0  0  0  0
   26.2624  -20.4438  -12.8616 C   0  0  2  0  0  0  0  0  0  0  0  0
   25.2764  -20.7083  -13.8626 N   0  0  0  0  0  0  0  0  0  0  0  0
   25.8665  -20.7667  -11.4620 C   0  0  0  0  0  0  0  0  0  0  0  0
   24.6223  -20.9007  -11.1689 O   0  0  0  0  0  0  0  0  0  0  0  0
   29.3540  -19.0250   -6.1449 C   0  0  0  0  0  0  0  0  0  0  0  0
   28.0350  -19.9916   -5.4031 S   0  0  0  0  0  0  0  0  0  0  0  0
   26.8400  -20.5940   -6.5821 C   0  0  0  0  0  0  0  0  0  0  0  0
   27.2790  -20.5982   -8.0115 C   0  0  0  0  0  0  0  0  0  0  0  0
   26.2526  -21.0730   -8.9900 C   0  0  2  0  0  0  0  0  0  0  0  0
   26.7421  -20.9425  -10.3754 N   0  0  0  0  0  0  0  0  0  0  0  0
   24.9274  -20.4563   -8.8671 C   0  0  0  0  0  0  0  0  0  0  0  0
   24.7502  -19.3371   -9.4178 O   0  0  0  0  0  0  0  0  0  0  0  0
   23.8546  -20.9839   -8.2075 O   0  0  0  0  0  0  0  0  0  0  0  0
  2  1  1  1
  2  3  1  0
  3  4  1  0
  4  8  1  0
  4  5  2  0
  6  2  1  0
  7  6  2  0
 10  9  1  6
 10 12  1  0
 11 10  1  0
 12 13  1  6
 12 14  1  0
 13  6  1  0
 14 21  1  0
 15 14  2  0
 17 16  1  0
 18 17  1  0
 19 18  1  0
 20 19  1  1
 20 22  1  0
 21 20  1  0
 22 24  1  0
 23 22  2  0
M  END
$$$$
