DVM.pdb
     RDKit          3D

 24 23  0  0  1  0  0  0  0  0999 V2000
   13.1612  -10.6011  -10.9141 N   0  0  0  0  0  0  0  0  0  0  0  0
   14.6091  -10.3623  -10.6553 C   0  0  1  0  0  0  0  0  0  0  0  0
   15.3636  -11.0841  -11.7135 C   0  0  0  0  0  0  0  0  0  0  0  0
   15.2646  -12.5495  -11.6592 C   0  0  0  0  0  0  0  0  0  0  0  0
   14.6167  -13.1340  -12.5714 O   0  0  0  0  0  0  0  0  0  0  0  0
   14.8358   -8.9046  -10.6167 C   0  0  0  0  0  0  0  0  0  0  0  0
   13.8922   -8.0888  -10.8757 O   0  0  0  0  0  0  0  0  0  0  0  0
   15.8795  -13.2259  -10.6153 O   0  0  0  0  0  0  0  0  0  0  0  0
   15.3970   -4.8156   -8.7150 C   0  0  0  0  0  0  0  0  0  0  0  0
   15.1642   -6.2416   -9.1237 C   0  0  2  0  0  0  0  0  0  0  0  0
   14.7682   -7.1235   -7.9622 C   0  0  0  0  0  0  0  0  0  0  0  0
   16.1703   -6.8734   -9.9805 C   0  0  2  0  0  0  0  0  0  0  0  0
   16.0552   -8.2590  -10.3136 N   0  0  0  0  0  0  0  0  0  0  0  0
   17.5595   -6.3423   -9.8923 C   0  0  0  0  0  0  0  0  0  0  0  0
   18.3123   -6.6931   -8.9114 O   0  0  0  0  0  0  0  0  0  0  0  0
   22.5229   -9.6882  -13.7792 C   0  0  0  0  0  0  0  0  0  0  0  0
   20.8912   -9.2123  -13.2001 S   0  0  0  0  0  0  0  0  0  0  0  0
   20.8139   -7.5450  -12.5714 C   0  0  0  0  0  0  0  0  0  0  0  0
   19.5254   -7.1519  -11.9222 C   0  0  0  0  0  0  0  0  0  0  0  0
   19.4684   -5.7426  -11.4254 C   0  0  2  0  0  0  0  0  0  0  0  0
   18.1637   -5.4543  -10.8004 N   0  0  0  0  0  0  0  0  0  0  0  0
   19.7885   -4.7085  -12.4154 C   0  0  0  0  0  0  0  0  0  0  0  0
   18.8493   -4.2802  -13.1378 O   0  0  0  0  0  0  0  0  0  0  0  0
   21.0190   -4.1579  -12.6317 O   0  0  0  0  0  0  0  0  0  0  0  0
  2  1  1  6
  2  3  1  0
  3  4  1  0
  4  8  1  0
  4  5  2  0
  6  2  1  0
  7  6  2  0
 10  9  1  1
 10 12  1  0
 11 10  1  0
 12 13  1  1
 12 14  1  0
 13  6  1  0
 14 21  1  0
 15 14  2  0
 17 16  1  0
 18 17  1  0
 19 18  1  0
 20 19  1  6
 20 22  1  0
 21 20  1  0
 22 24  1  0
 23 22  2  0
M  END
$$$$
