DVM.pdb
     RDKit          3D

 24 23  0  0  1  0  0  0  0  0999 V2000
   25.0359  -14.6605  -19.1244 N   0  0  0  0  0  0  0  0  0  0  0  0
   24.2234  -13.4796  -19.5317 C   0  0  1  0  0  0  0  0  0  0  0  0
   22.8256  -13.9544  -19.7066 C   0  0  0  0  0  0  0  0  0  0  0  0
   22.6435  -14.9896  -20.7339 C   0  0  0  0  0  0  0  0  0  0  0  0
   23.3090  -14.8885  -21.8018 O   0  0  0  0  0  0  0  0  0  0  0  0
   24.3978  -12.4268  -18.5124 C   0  0  0  0  0  0  0  0  0  0  0  0
   24.4420  -12.7174  -17.2728 O   0  0  0  0  0  0  0  0  0  0  0  0
   21.7532  -16.0262  -20.4923 O   0  0  0  0  0  0  0  0  0  0  0  0
   27.2837  -10.0004  -17.8870 C   0  0  0  0  0  0  0  0  0  0  0  0
   25.9808   -9.2648  -17.7588 C   0  0  2  0  0  0  0  0  0  0  0  0
   26.0029   -8.2276  -16.6600 C   0  0  0  0  0  0  0  0  0  0  0  0
   24.7519  -10.0617  -17.7430 C   0  0  2  0  0  0  0  0  0  0  0  0
   24.5238  -11.0415  -18.7588 N   0  0  0  0  0  0  0  0  0  0  0  0
   23.5330   -9.4088  -17.1883 C   0  0  0  0  0  0  0  0  0  0  0  0
   22.7468   -8.7615  -17.9724 O   0  0  0  0  0  0  0  0  0  0  0  0
   17.7957   -8.8033  -11.7195 C   0  0  0  0  0  0  0  0  0  0  0  0
   19.3156   -9.5826  -12.2732 S   0  0  0  0  0  0  0  0  0  0  0  0
   20.0943   -8.7407  -13.6392 C   0  0  0  0  0  0  0  0  0  0  0  0
   21.3231   -9.3902  -14.1908 C   0  0  0  0  0  0  0  0  0  0  0  0
   21.9225   -8.7094  -15.3796 C   0  0  2  0  0  0  0  0  0  0  0  0
   23.1324   -9.4166  -15.8401 N   0  0  0  0  0  0  0  0  0  0  0  0
   22.2108   -7.2808  -15.2128 C   0  0  0  0  0  0  0  0  0  0  0  0
   23.3650   -6.9590  -14.8234 O   0  0  0  0  0  0  0  0  0  0  0  0
   21.3404   -6.2543  -15.4424 O   0  0  0  0  0  0  0  0  0  0  0  0
  2  1  1  1
  2  3  1  0
  3  4  1  0
  4  8  1  0
  4  5  2  0
  6  2  1  0
  7  6  2  0
 10  9  1  1
 10 12  1  0
 11 10  1  0
 12 13  1  6
 12 14  1  0
 13  6  1  0
 14 21  1  0
 15 14  2  0
 17 16  1  0
 18 17  1  0
 19 18  1  0
 20 19  1  1
 20 22  1  0
 21 20  1  0
 22 24  1  0
 23 22  2  0
M  END
$$$$
