DVM.pdb
     RDKit          3D

 24 23  0  0  1  0  0  0  0  0999 V2000
   15.2648  -11.6896  -17.0597 N   0  0  0  0  0  0  0  0  0  0  0  0
   16.0638  -11.2030  -15.8998 C   0  0  1  0  0  0  0  0  0  0  0  0
   16.9267  -12.3322  -15.4635 C   0  0  0  0  0  0  0  0  0  0  0  0
   16.2210  -13.4298  -14.7870 C   0  0  0  0  0  0  0  0  0  0  0  0
   15.0182  -13.2439  -14.4520 O   0  0  0  0  0  0  0  0  0  0  0  0
   16.7936   -9.9909  -16.3192 C   0  0  0  0  0  0  0  0  0  0  0  0
   16.5252   -9.4151  -17.4234 O   0  0  0  0  0  0  0  0  0  0  0  0
   16.8999  -14.6152  -14.5432 O   0  0  0  0  0  0  0  0  0  0  0  0
   16.8473   -6.0808  -15.5287 C   0  0  0  0  0  0  0  0  0  0  0  0
   17.4949   -7.0330  -16.4924 C   0  0  2  0  0  0  0  0  0  0  0  0
   16.5212   -7.5884  -17.5059 C   0  0  0  0  0  0  0  0  0  0  0  0
   18.3671   -8.0702  -15.9367 C   0  0  2  0  0  0  0  0  0  0  0  0
   17.8280   -9.3511  -15.6007 N   0  0  0  0  0  0  0  0  0  0  0  0
   19.5124   -7.6109  -15.1018 C   0  0  0  0  0  0  0  0  0  0  0  0
   19.4458   -7.7113  -13.8222 O   0  0  0  0  0  0  0  0  0  0  0  0
   26.6932  -10.0401  -14.5292 C   0  0  0  0  0  0  0  0  0  0  0  0
   25.1614   -9.7831  -15.4300 S   0  0  0  0  0  0  0  0  0  0  0  0
   24.1342   -8.4977  -14.7418 C   0  0  0  0  0  0  0  0  0  0  0  0
   22.8209   -8.2778  -15.4221 C   0  0  0  0  0  0  0  0  0  0  0  0
   21.9830   -7.1810  -14.8467 C   0  0  2  0  0  0  0  0  0  0  0  0
   20.7096   -7.0480  -15.5793 N   0  0  0  0  0  0  0  0  0  0  0  0
   22.6382   -5.8728  -14.7403 C   0  0  0  0  0  0  0  0  0  0  0  0
   22.3909   -5.0208  -15.6349 O   0  0  0  0  0  0  0  0  0  0  0  0
   23.4986   -5.4839  -13.7541 O   0  0  0  0  0  0  0  0  0  0  0  0
  2  1  1  6
  2  3  1  0
  3  4  1  0
  4  8  1  0
  4  5  2  0
  6  2  1  0
  7  6  2  0
 10  9  1  1
 10 12  1  0
 11 10  1  0
 12 13  1  1
 12 14  1  0
 13  6  1  0
 14 21  1  0
 15 14  2  0
 17 16  1  0
 18 17  1  0
 19 18  1  0
 20 19  1  6
 20 22  1  0
 21 20  1  0
 22 24  1  0
 23 22  2  0
M  END
$$$$
