SVN.pdb
     RDKit          3D

 22 21  0  0  1  0  0  0  0  0999 V2000
   26.4114  -14.1117  -15.7431 O   0  0  0  0  0  0  0  0  0  0  0  0
   25.8359  -12.9265  -16.1806 C   0  0  0  0  0  0  0  0  0  0  0  0
   24.5531  -13.2950  -16.8929 C   0  0  2  0  0  0  0  0  0  0  0  0
   24.8506  -14.0983  -18.0403 N   0  0  0  0  0  0  0  0  0  0  0  0
   23.8363  -12.0645  -17.3430 C   0  0  0  0  0  0  0  0  0  0  0  0
   24.0848  -11.4550  -18.3924 O   0  0  0  0  0  0  0  0  0  0  0  0
   19.9836  -11.5315  -15.9185 C   0  0  0  0  0  0  0  0  0  0  0  0
   20.6091  -10.8888  -17.1590 C   0  0  2  0  0  0  0  0  0  0  0  0
   20.4758  -11.8324  -18.3057 C   0  0  0  0  0  0  0  0  0  0  0  0
   21.9922  -10.3956  -16.8888 C   0  0  2  0  0  0  0  0  0  0  0  0
   22.7938  -11.5633  -16.4987 N   0  0  0  0  0  0  0  0  0  0  0  0
   22.0716   -9.3362  -15.8569 C   0  0  0  0  0  0  0  0  0  0  0  0
   22.1964   -9.6536  -14.6491 O   0  0  0  0  0  0  0  0  0  0  0  0
   22.2093   -4.3987  -13.5316 N   0  0  0  0  0  0  0  0  0  0  0  0
   22.5612   -4.4360  -14.9077 C   0  0  0  0  0  0  0  0  0  0  0  0
   22.9742   -3.3105  -15.3695 O   0  0  0  0  0  0  0  0  0  0  0  0
   22.4974   -5.5900  -15.7940 C   0  0  0  0  0  0  0  0  0  0  0  0
   22.1216   -6.8956  -15.1543 C   0  0  2  0  0  0  0  0  0  0  0  0
   22.0138   -7.9528  -16.1571 N   0  0  0  0  0  0  0  0  0  0  0  0
   20.7789   -6.7961  -14.5293 C   0  0  0  0  0  0  0  0  0  0  0  0
   19.6035   -7.1655  -15.1781 O   0  0  0  0  0  0  0  0  0  0  0  0
   20.6989   -6.3501  -13.3418 O   0  0  0  0  0  0  0  0  0  0  0  0
  1  2  1  0
  3  5  1  0
  3  2  1  0
  3  4  1  6
  5  6  2  0
  5 11  1  0
  8  7  1  1
  8  9  1  0
  8 10  1  0
 10 12  1  0
 10 11  1  1
 12 13  2  0
 12 19  1  0
 15 17  1  0
 15 14  1  0
 16 15  2  0
 18 17  1  6
 19 18  1  0
 20 18  1  0
 20 21  1  0
 22 20  2  0
M  END
$$$$
