SVN.pdb
     RDKit          3D

 22 21  0  0  1  0  0  0  0  0999 V2000
   12.3222   -6.2837   -8.0046 O   0  0  0  0  0  0  0  0  0  0  0  0
   13.3364   -6.1174   -8.9380 C   0  0  0  0  0  0  0  0  0  0  0  0
   14.5321   -6.8955   -8.4344 C   0  0  2  0  0  0  0  0  0  0  0  0
   15.0951   -6.2340   -7.2961 N   0  0  0  0  0  0  0  0  0  0  0  0
   15.5763   -6.9903   -9.4980 C   0  0  0  0  0  0  0  0  0  0  0  0
   16.5040   -6.1819   -9.6409 O   0  0  0  0  0  0  0  0  0  0  0  0
   15.7230  -10.6849  -11.5244 C   0  0  0  0  0  0  0  0  0  0  0  0
   16.9203   -9.7477  -11.3474 C   0  0  2  0  0  0  0  0  0  0  0  0
   17.6514  -10.1343  -10.1068 C   0  0  0  0  0  0  0  0  0  0  0  0
   16.5175   -8.3128  -11.4364 C   0  0  2  0  0  0  0  0  0  0  0  0
   15.4913   -8.0923  -10.4085 N   0  0  0  0  0  0  0  0  0  0  0  0
   16.0222   -7.8995  -12.7695 C   0  0  0  0  0  0  0  0  0  0  0  0
   14.8507   -8.1892  -13.1141 O   0  0  0  0  0  0  0  0  0  0  0  0
   15.9048   -3.8997  -17.0921 N   0  0  0  0  0  0  0  0  0  0  0  0
   16.6806   -5.0584  -16.8197 C   0  0  0  0  0  0  0  0  0  0  0  0
   17.0568   -5.6915  -17.8724 O   0  0  0  0  0  0  0  0  0  0  0  0
   17.0674   -5.5616  -15.5088 C   0  0  0  0  0  0  0  0  0  0  0  0
   16.3437   -6.7874  -15.0306 C   0  0  2  0  0  0  0  0  0  0  0  0
   16.8091   -7.1796  -13.7023 N   0  0  0  0  0  0  0  0  0  0  0  0
   16.6409   -7.9403  -15.9171 C   0  0  0  0  0  0  0  0  0  0  0  0
   15.7681   -8.3921  -16.9037 O   0  0  0  0  0  0  0  0  0  0  0  0
   17.7482   -8.5459  -15.7668 O   0  0  0  0  0  0  0  0  0  0  0  0
  1  2  1  0
  3  5  1  0
  3  2  1  0
  3  4  1  1
  5  6  2  0
  5 11  1  0
  8  7  1  1
  8  9  1  0
  8 10  1  0
 10 12  1  0
 10 11  1  1
 12 13  2  0
 12 19  1  0
 15 17  1  0
 15 14  1  0
 16 15  2  0
 18 17  1  6
 19 18  1  0
 20 18  1  0
 20 21  1  0
 22 20  2  0
M  END
$$$$
