SVN.pdb
     RDKit          3D

 22 21  0  0  1  0  0  0  0  0999 V2000
   18.4234  -14.6284  -15.2375 O   0  0  0  0  0  0  0  0  0  0  0  0
   18.1889  -13.2622  -15.3148 C   0  0  0  0  0  0  0  0  0  0  0  0
   16.7533  -13.0360  -14.8945 C   0  0  2  0  0  0  0  0  0  0  0  0
   15.8701  -13.4888  -15.9266 N   0  0  0  0  0  0  0  0  0  0  0  0
   16.5044  -11.5830  -14.6550 C   0  0  0  0  0  0  0  0  0  0  0  0
   16.2081  -10.7691  -15.5406 O   0  0  0  0  0  0  0  0  0  0  0  0
   15.3824   -8.2520  -11.1879 C   0  0  0  0  0  0  0  0  0  0  0  0
   15.6941   -9.6793  -11.6449 C   0  0  2  0  0  0  0  0  0  0  0  0
   16.4113  -10.3878  -10.5463 C   0  0  0  0  0  0  0  0  0  0  0  0
   16.3734   -9.6987  -12.9743 C   0  0  2  0  0  0  0  0  0  0  0  0
   16.6181  -11.1082  -13.3088 N   0  0  0  0  0  0  0  0  0  0  0  0
   17.6323   -8.9205  -13.0278 C   0  0  0  0  0  0  0  0  0  0  0  0
   18.5656   -9.1936  -12.2343 O   0  0  0  0  0  0  0  0  0  0  0  0
   22.1815   -7.3042  -16.2068 N   0  0  0  0  0  0  0  0  0  0  0  0
   21.4120   -7.2297  -15.0147 C   0  0  0  0  0  0  0  0  0  0  0  0
   21.9184   -6.4640  -14.1159 O   0  0  0  0  0  0  0  0  0  0  0  0
   20.1561   -7.9151  -14.7422 C   0  0  0  0  0  0  0  0  0  0  0  0
   19.1034   -7.1110  -14.0348 C   0  0  2  0  0  0  0  0  0  0  0  0
   17.8528   -7.8608  -13.9420 N   0  0  0  0  0  0  0  0  0  0  0  0
   18.7815   -5.8870  -14.8105 C   0  0  0  0  0  0  0  0  0  0  0  0
   18.0118   -5.8966  -15.9709 O   0  0  0  0  0  0  0  0  0  0  0  0
   19.2324   -4.7741  -14.3940 O   0  0  0  0  0  0  0  0  0  0  0  0
  1  2  1  0
  3  5  1  0
  3  2  1  0
  3  4  1  6
  5  6  2  0
  5 11  1  0
  8  7  1  1
  8  9  1  0
  8 10  1  0
 10 12  1  0
 10 11  1  1
 12 13  2  0
 12 19  1  0
 15 17  1  0
 15 14  1  0
 16 15  2  0
 18 17  1  6
 19 18  1  0
 20 18  1  0
 20 21  1  0
 22 20  2  0
M  END
$$$$
