SVN.pdb
     RDKit          3D

 22 21  0  0  1  0  0  0  0  0999 V2000
   25.5585  -13.4371  -15.3650 O   0  0  0  0  0  0  0  0  0  0  0  0
   24.8084  -12.2951  -15.6115 C   0  0  0  0  0  0  0  0  0  0  0  0
   24.0059  -12.5562  -16.8671 C   0  0  2  0  0  0  0  0  0  0  0  0
   24.8885  -12.6864  -17.9870 N   0  0  0  0  0  0  0  0  0  0  0  0
   23.0654  -11.4256  -17.1276 C   0  0  0  0  0  0  0  0  0  0  0  0
   23.3133  -10.4676  -17.8729 O   0  0  0  0  0  0  0  0  0  0  0  0
   18.3201  -10.1125  -16.9955 C   0  0  0  0  0  0  0  0  0  0  0  0
   19.4745  -11.1090  -16.8626 C   0  0  2  0  0  0  0  0  0  0  0  0
   19.1333  -12.0979  -15.8002 C   0  0  0  0  0  0  0  0  0  0  0  0
   20.7871  -10.4164  -16.6996 C   0  0  2  0  0  0  0  0  0  0  0  0
   21.7950  -11.4598  -16.4677 N   0  0  0  0  0  0  0  0  0  0  0  0
   20.8151   -9.4092  -15.6141 C   0  0  0  0  0  0  0  0  0  0  0  0
   21.0519   -9.7719  -14.4362 O   0  0  0  0  0  0  0  0  0  0  0  0
   21.2824   -4.6989  -13.0010 N   0  0  0  0  0  0  0  0  0  0  0  0
   22.1858   -5.1451  -14.0027 C   0  0  0  0  0  0  0  0  0  0  0  0
   23.2510   -4.4330  -14.0967 O   0  0  0  0  0  0  0  0  0  0  0  0
   22.0128   -6.2893  -14.8871 C   0  0  0  0  0  0  0  0  0  0  0  0
   20.6992   -7.0102  -14.7872 C   0  0  2  0  0  0  0  0  0  0  0  0
   20.5852   -8.0279  -15.8294 N   0  0  0  0  0  0  0  0  0  0  0  0
   19.5754   -6.0689  -15.0200 C   0  0  0  0  0  0  0  0  0  0  0  0
   18.9331   -5.3759  -13.9971 O   0  0  0  0  0  0  0  0  0  0  0  0
   19.1792   -5.8874  -16.2140 O   0  0  0  0  0  0  0  0  0  0  0  0
  1  2  1  0
  3  5  1  0
  3  2  1  0
  3  4  1  6
  5  6  2  0
  5 11  1  0
  8  7  1  1
  8  9  1  0
  8 10  1  0
 10 12  1  0
 10 11  1  1
 12 13  2  0
 12 19  1  0
 15 17  1  0
 15 14  1  0
 16 15  2  0
 18 17  1  6
 19 18  1  0
 20 18  1  0
 20 21  1  0
 22 20  2  0
M  END
$$$$
