SVN.pdb
     RDKit          3D

 22 21  0  0  1  0  0  0  0  0999 V2000
   15.3303  -13.3748  -15.2514 O   0  0  0  0  0  0  0  0  0  0  0  0
   16.5582  -12.7421  -15.1127 C   0  0  0  0  0  0  0  0  0  0  0  0
   17.4620  -13.2896  -16.1953 C   0  0  2  0  0  0  0  0  0  0  0  0
   17.8006  -14.6493  -15.9010 N   0  0  0  0  0  0  0  0  0  0  0  0
   18.7207  -12.4896  -16.2758 C   0  0  0  0  0  0  0  0  0  0  0  0
   19.7670  -12.7701  -15.6749 O   0  0  0  0  0  0  0  0  0  0  0  0
   18.8432   -9.5869  -19.3678 C   0  0  0  0  0  0  0  0  0  0  0  0
   20.0593  -10.3075  -18.7806 C   0  0  2  0  0  0  0  0  0  0  0  0
   20.3218  -11.5360  -19.5838 C   0  0  0  0  0  0  0  0  0  0  0  0
   19.9202  -10.5184  -17.3090 C   0  0  2  0  0  0  0  0  0  0  0  0
   18.7076  -11.3223  -17.1051 N   0  0  0  0  0  0  0  0  0  0  0  0
   19.8607   -9.2687  -16.5164 C   0  0  0  0  0  0  0  0  0  0  0  0
   18.7552   -8.7062  -16.3255 O   0  0  0  0  0  0  0  0  0  0  0  0
   22.9147   -4.8731  -13.8960 N   0  0  0  0  0  0  0  0  0  0  0  0
   22.3575   -6.1202  -13.5046 C   0  0  0  0  0  0  0  0  0  0  0  0
   21.9249   -6.1396  -12.2950 O   0  0  0  0  0  0  0  0  0  0  0  0
   22.2400   -7.3191  -14.3232 C   0  0  0  0  0  0  0  0  0  0  0  0
   20.9499   -7.4839  -15.0740 C   0  0  2  0  0  0  0  0  0  0  0  0
   21.0034   -8.6544  -15.9468 N   0  0  0  0  0  0  0  0  0  0  0  0
   20.7238   -6.3234  -15.9715 C   0  0  0  0  0  0  0  0  0  0  0  0
   19.9909   -5.1994  -15.5993 O   0  0  0  0  0  0  0  0  0  0  0  0
   21.2243   -6.3587  -17.1393 O   0  0  0  0  0  0  0  0  0  0  0  0
  1  2  1  0
  3  5  1  0
  3  2  1  0
  3  4  1  1
  5  6  2  0
  5 11  1  0
  8  7  1  6
  8  9  1  0
  8 10  1  0
 10 12  1  0
 10 11  1  6
 12 13  2  0
 12 19  1  0
 15 17  1  0
 15 14  1  0
 16 15  2  0
 18 17  1  6
 19 18  1  0
 20 18  1  0
 20 21  1  0
 22 20  2  0
M  END
$$$$
