DFE.pdb
     RDKit          3D

 29 29  0  0  1  0  0  0  0  0999 V2000
    9.3008  -17.4294   20.5436 N   0  0  0  0  0  0  0  0  0  0  0  0
   10.5765  -17.1219   21.1213 C   0  0  1  0  0  0  0  0  0  0  0  0
   11.5538  -16.6719   20.0933 C   0  0  0  0  0  0  0  0  0  0  0  0
   11.7852  -17.6482   19.0241 C   0  0  0  0  0  0  0  0  0  0  0  0
   10.8715  -18.2783   18.4799 O   0  0  0  0  0  0  0  0  0  0  0  0
   10.3989  -16.1340   22.2169 C   0  0  0  0  0  0  0  0  0  0  0  0
   11.3923  -15.4845   22.6499 O   0  0  0  0  0  0  0  0  0  0  0  0
   13.1146  -17.8739   18.6016 O   0  0  0  0  0  0  0  0  0  0  0  0
    9.1097  -15.9355   22.7639 N   0  0  0  0  0  0  0  0  0  0  0  0
    8.8402  -15.1020   23.8845 C   0  0  1  0  0  0  0  0  0  0  0  0
    7.4440  -14.4973   23.9143 C   0  0  0  0  0  0  0  0  0  0  0  0
    7.2567  -13.6297   25.0954 C   0  0  0  0  0  0  0  0  0  0  0  0
    6.3498  -14.0342   26.0496 C   0  0  0  0  0  0  0  0  0  0  0  0
    6.1330  -13.2503   27.1593 C   0  0  0  0  0  0  0  0  0  0  0  0
    6.8172  -12.0620   27.3234 C   0  0  0  0  0  0  0  0  0  0  0  0
    7.7130  -11.6727   26.3702 C   0  0  0  0  0  0  0  0  0  0  0  0
    7.9400  -12.4636   25.2379 C   0  0  0  0  0  0  0  0  0  0  0  0
    9.2051  -15.6756   25.1975 C   0  0  0  0  0  0  0  0  0  0  0  0
    8.5636  -16.6914   25.5975 O   0  0  0  0  0  0  0  0  0  0  0  0
   10.2200  -15.1583   26.0223 N   0  0  0  0  0  0  0  0  0  0  0  0
   10.6914  -15.9597   27.1550 C   0  0  1  0  0  0  0  0  0  0  0  0
   12.1963  -16.0081   27.1468 C   0  0  0  0  0  0  0  0  0  0  0  0
   12.6933  -16.6329   25.8753 C   0  0  0  0  0  0  0  0  0  0  0  0
   14.1819  -16.8009   25.9080 C   0  0  0  0  0  0  0  0  0  0  0  0
   14.8900  -15.9227   25.4060 O   0  0  0  0  0  0  0  0  0  0  0  0
   10.2163  -15.3212   28.3942 C   0  0  0  0  0  0  0  0  0  0  0  0
    9.7226  -14.1418   28.3620 O   0  0  0  0  0  0  0  0  0  0  0  0
   14.7025  -17.9191   26.4917 O   0  0  0  0  0  0  0  0  0  0  0  0
   10.2646  -15.9247   29.6186 O   0  0  0  0  0  0  0  0  0  0  0  0
  2  1  1  6
  2  3  1  0
  4  3  1  0
  4  8  1  0
  5  4  2  0
  6  2  1  0
  6  7  2  0
  9  6  1  0
 10  9  1  0
 11 12  1  0
 10 11  1  1
 12 17  2  0
 13 12  1  0
 13 14  2  0
 14 15  1  0
 15 16  2  0
 17 16  1  0
 18 10  1  0
 19 18  2  0
 20 18  1  0
 21 20  1  0
 21 22  1  1
 22 23  1  0
 23 24  1  0
 24 28  1  0
 25 24  2  0
 26 21  1  0
 27 26  2  0
 29 26  1  0
M  END
$$$$
