DFE.pdb
     RDKit          3D

 29 29  0  0  1  0  0  0  0  0999 V2000
    8.7285  -16.9553   19.8059 N   0  0  0  0  0  0  0  0  0  0  0  0
   10.0266  -17.0391   20.4089 C   0  0  1  0  0  0  0  0  0  0  0  0
   11.0939  -16.5586   19.4901 C   0  0  0  0  0  0  0  0  0  0  0  0
   11.0766  -17.1984   18.1709 C   0  0  0  0  0  0  0  0  0  0  0  0
   12.0378  -17.1637   17.3945 O   0  0  0  0  0  0  0  0  0  0  0  0
   10.0173  -16.3164   21.7070 C   0  0  0  0  0  0  0  0  0  0  0  0
   11.0292  -16.3598   22.4622 O   0  0  0  0  0  0  0  0  0  0  0  0
    9.9057  -17.8836   17.7758 O   0  0  0  0  0  0  0  0  0  0  0  0
    8.8652  -15.5860   22.0812 N   0  0  0  0  0  0  0  0  0  0  0  0
    8.6727  -15.0062   23.3656 C   0  0  1  0  0  0  0  0  0  0  0  0
    7.4773  -14.0708   23.4757 C   0  0  0  0  0  0  0  0  0  0  0  0
    7.3766  -13.4803   24.8261 C   0  0  0  0  0  0  0  0  0  0  0  0
    6.2634  -13.7859   25.5771 C   0  0  0  0  0  0  0  0  0  0  0  0
    6.1211  -13.2471   26.8350 C   0  0  0  0  0  0  0  0  0  0  0  0
    7.0851  -12.4029   27.3499 C   0  0  0  0  0  0  0  0  0  0  0  0
    8.1833  -12.1080   26.5951 C   0  0  0  0  0  0  0  0  0  0  0  0
    8.3365  -12.6513   25.3143 C   0  0  0  0  0  0  0  0  0  0  0  0
    8.7171  -15.9562   24.4978 C   0  0  0  0  0  0  0  0  0  0  0  0
    7.7024  -16.6874   24.6959 O   0  0  0  0  0  0  0  0  0  0  0  0
    9.8181  -16.0920   25.3622 N   0  0  0  0  0  0  0  0  0  0  0  0
    9.9502  -17.3167   26.1562 C   0  0  1  0  0  0  0  0  0  0  0  0
   11.2288  -18.0212   25.7873 C   0  0  0  0  0  0  0  0  0  0  0  0
   11.3756  -19.2887   26.5784 C   0  0  0  0  0  0  0  0  0  0  0  0
   12.6697  -19.9726   26.2580 C   0  0  0  0  0  0  0  0  0  0  0  0
   12.8381  -20.4225   25.1206 O   0  0  0  0  0  0  0  0  0  0  0  0
    9.9786  -16.9368   27.5788 C   0  0  0  0  0  0  0  0  0  0  0  0
   10.2950  -15.7455   27.9205 O   0  0  0  0  0  0  0  0  0  0  0  0
   13.6168  -20.0740   27.2352 O   0  0  0  0  0  0  0  0  0  0  0  0
    9.6758  -17.7984   28.5944 O   0  0  0  0  0  0  0  0  0  0  0  0
  2  1  1  6
  2  3  1  0
  4  3  1  0
  4  8  1  0
  5  4  2  0
  6  2  1  0
  6  7  2  0
  9  6  1  0
 10  9  1  0
 11 12  1  0
 10 11  1  6
 12 17  2  0
 13 12  1  0
 13 14  2  0
 14 15  1  0
 15 16  2  0
 17 16  1  0
 18 10  1  0
 19 18  2  0
 20 18  1  0
 21 20  1  0
 21 22  1  6
 22 23  1  0
 23 24  1  0
 24 28  1  0
 25 24  2  0
 26 21  1  0
 27 26  2  0
 29 26  1  0
M  END
$$$$
