DFE.pdb
     RDKit          3D

 29 29  0  0  1  0  0  0  0  0999 V2000
    8.9806  -17.1551   20.1112 N   0  0  0  0  0  0  0  0  0  0  0  0
   10.1579  -17.3184   20.9131 C   0  0  1  0  0  0  0  0  0  0  0  0
   11.3994  -17.1126   20.1189 C   0  0  0  0  0  0  0  0  0  0  0  0
   11.4381  -17.8737   18.8663 C   0  0  0  0  0  0  0  0  0  0  0  0
   11.9055  -17.4175   17.8168 O   0  0  0  0  0  0  0  0  0  0  0  0
   10.0785  -16.4248   22.0974 C   0  0  0  0  0  0  0  0  0  0  0  0
   11.1238  -16.1441   22.7491 O   0  0  0  0  0  0  0  0  0  0  0  0
   10.9162  -19.1868   18.8659 O   0  0  0  0  0  0  0  0  0  0  0  0
    8.8227  -15.8990   22.4813 N   0  0  0  0  0  0  0  0  0  0  0  0
    8.6015  -15.1570   23.6744 C   0  0  1  0  0  0  0  0  0  0  0  0
    7.3366  -14.3109   23.6797 C   0  0  0  0  0  0  0  0  0  0  0  0
    7.2108  -13.5358   24.9311 C   0  0  0  0  0  0  0  0  0  0  0  0
    7.9872  -12.4063   25.0653 C   0  0  0  0  0  0  0  0  0  0  0  0
    7.9130  -11.6617   26.2199 C   0  0  0  0  0  0  0  0  0  0  0  0
    7.0666  -12.0379   27.2442 C   0  0  0  0  0  0  0  0  0  0  0  0
    6.3029  -13.1595   27.0983 C   0  0  0  0  0  0  0  0  0  0  0  0
    6.3719  -13.9233   25.9275 C   0  0  0  0  0  0  0  0  0  0  0  0
    8.7372  -15.9277   24.9289 C   0  0  0  0  0  0  0  0  0  0  0  0
    7.8847  -16.8349   25.1604 O   0  0  0  0  0  0  0  0  0  0  0  0
    9.7555  -15.7103   25.8743 N   0  0  0  0  0  0  0  0  0  0  0  0
   10.0926  -16.7833   26.8138 C   0  0  1  0  0  0  0  0  0  0  0  0
   11.3695  -17.4520   26.3782 C   0  0  0  0  0  0  0  0  0  0  0  0
   11.7269  -18.5637   27.3218 C   0  0  0  0  0  0  0  0  0  0  0  0
   13.0121  -19.2181   26.9154 C   0  0  0  0  0  0  0  0  0  0  0  0
   13.5714  -19.9757   27.7139 O   0  0  0  0  0  0  0  0  0  0  0  0
   10.2696  -16.1831   28.1469 C   0  0  0  0  0  0  0  0  0  0  0  0
   10.4274  -14.9196   28.2680 O   0  0  0  0  0  0  0  0  0  0  0  0
   13.5192  -18.9532   25.6765 O   0  0  0  0  0  0  0  0  0  0  0  0
   10.2731  -16.9078   29.3046 O   0  0  0  0  0  0  0  0  0  0  0  0
  2  1  1  6
  2  3  1  0
  4  3  1  0
  4  8  1  0
  5  4  2  0
  6  2  1  0
  6  7  2  0
  9  6  1  0
 10  9  1  0
 11 12  1  0
 10 11  1  6
 12 17  2  0
 13 12  1  0
 13 14  2  0
 14 15  1  0
 15 16  2  0
 17 16  1  0
 18 10  1  0
 19 18  2  0
 20 18  1  0
 21 20  1  0
 21 22  1  6
 22 23  1  0
 23 24  1  0
 24 28  1  0
 25 24  2  0
 26 21  1  0
 27 26  2  0
 29 26  1  0
M  END
$$$$
