DFE.pdb
     RDKit          3D

 29 29  0  0  1  0  0  0  0  0999 V2000
    7.4066  -17.0594   20.2585 N   0  0  0  0  0  0  0  0  0  0  0  0
    8.6284  -16.3101   20.2981 C   0  0  1  0  0  0  0  0  0  0  0  0
    8.6447  -15.2270   19.2778 C   0  0  0  0  0  0  0  0  0  0  0  0
    8.5661  -15.7097   17.8955 C   0  0  0  0  0  0  0  0  0  0  0  0
    8.6999  -16.9001   17.5907 O   0  0  0  0  0  0  0  0  0  0  0  0
    8.8551  -15.8046   21.6767 C   0  0  0  0  0  0  0  0  0  0  0  0
    9.8978  -15.1432   21.9443 O   0  0  0  0  0  0  0  0  0  0  0  0
    8.3263  -14.7665   16.8710 O   0  0  0  0  0  0  0  0  0  0  0  0
    7.8926  -16.0755   22.6772 N   0  0  0  0  0  0  0  0  0  0  0  0
    8.0711  -15.7741   24.0558 C   0  0  1  0  0  0  0  0  0  0  0  0
    6.7976  -15.4053   24.8029 C   0  0  0  0  0  0  0  0  0  0  0  0
    6.8020  -13.9847   25.2086 C   0  0  0  0  0  0  0  0  0  0  0  0
    6.4321  -13.6870   26.5013 C   0  0  0  0  0  0  0  0  0  0  0  0
    6.4081  -12.3761   26.9185 C   0  0  0  0  0  0  0  0  0  0  0  0
    6.7518  -11.3576   26.0515 C   0  0  0  0  0  0  0  0  0  0  0  0
    7.1163  -11.6664   24.7731 C   0  0  0  0  0  0  0  0  0  0  0  0
    7.1434  -12.9970   24.3398 C   0  0  0  0  0  0  0  0  0  0  0  0
    8.8742  -16.7559   24.8155 C   0  0  0  0  0  0  0  0  0  0  0  0
    8.5574  -17.9782   24.7211 O   0  0  0  0  0  0  0  0  0  0  0  0
    9.9649  -16.4092   25.6329 N   0  0  0  0  0  0  0  0  0  0  0  0
   10.9347  -17.4450   25.9993 C   0  0  1  0  0  0  0  0  0  0  0  0
   12.2676  -17.1320   25.3725 C   0  0  0  0  0  0  0  0  0  0  0  0
   13.2909  -18.1517   25.7812 C   0  0  0  0  0  0  0  0  0  0  0  0
   14.6101  -17.8783   25.1254 C   0  0  0  0  0  0  0  0  0  0  0  0
   15.4784  -18.7559   25.1490 O   0  0  0  0  0  0  0  0  0  0  0  0
   11.0596  -17.4539   27.4667 C   0  0  0  0  0  0  0  0  0  0  0  0
   11.7898  -18.3305   28.0451 O   0  0  0  0  0  0  0  0  0  0  0  0
   14.8053  -16.6686   24.5251 O   0  0  0  0  0  0  0  0  0  0  0  0
   10.4302  -16.5564   28.2815 O   0  0  0  0  0  0  0  0  0  0  0  0
  2  1  1  1
  2  3  1  0
  4  3  1  0
  4  8  1  0
  5  4  2  0
  6  2  1  0
  6  7  2  0
  9  6  1  0
 10  9  1  0
 11 12  1  0
 10 11  1  1
 12 17  2  0
 13 12  1  0
 13 14  2  0
 14 15  1  0
 15 16  2  0
 17 16  1  0
 18 10  1  0
 19 18  2  0
 20 18  1  0
 21 20  1  0
 21 22  1  6
 22 23  1  0
 23 24  1  0
 24 28  1  0
 25 24  2  0
 26 21  1  0
 27 26  2  0
 29 26  1  0
M  END
$$$$
