DFE.pdb
     RDKit          3D

 29 29  0  0  1  0  0  0  0  0999 V2000
    9.7138  -16.0949   18.9115 N   0  0  0  0  0  0  0  0  0  0  0  0
    9.1167  -16.8458   19.9769 C   0  0  1  0  0  0  0  0  0  0  0  0
    9.6212  -18.2452   20.0159 C   0  0  0  0  0  0  0  0  0  0  0  0
    9.3603  -19.0066   18.7902 C   0  0  0  0  0  0  0  0  0  0  0  0
    8.2335  -19.4027   18.4721 O   0  0  0  0  0  0  0  0  0  0  0  0
    9.3160  -16.1270   21.2619 C   0  0  0  0  0  0  0  0  0  0  0  0
   10.4779  -15.9985   21.7410 O   0  0  0  0  0  0  0  0  0  0  0  0
   10.4504  -19.2971   17.9393 O   0  0  0  0  0  0  0  0  0  0  0  0
    8.1919  -15.5946   21.9355 N   0  0  0  0  0  0  0  0  0  0  0  0
    8.2618  -14.9008   23.1752 C   0  0  1  0  0  0  0  0  0  0  0  0
    7.0978  -13.9602   23.4515 C   0  0  0  0  0  0  0  0  0  0  0  0
    7.1827  -13.3803   24.8077 C   0  0  0  0  0  0  0  0  0  0  0  0
    6.3029  -13.8459   25.7593 C   0  0  0  0  0  0  0  0  0  0  0  0
    6.3368  -13.3243   27.0320 C   0  0  0  0  0  0  0  0  0  0  0  0
    7.2455  -12.3382   27.3621 C   0  0  0  0  0  0  0  0  0  0  0  0
    8.1117  -11.8856   26.4096 C   0  0  0  0  0  0  0  0  0  0  0  0
    8.0844  -12.4101   25.1122 C   0  0  0  0  0  0  0  0  0  0  0  0
    8.5617  -15.7441   24.3520 C   0  0  0  0  0  0  0  0  0  0  0  0
    7.7445  -16.6671   24.6415 O   0  0  0  0  0  0  0  0  0  0  0  0
    9.6985  -15.5790   25.1634 N   0  0  0  0  0  0  0  0  0  0  0  0
   10.2127  -16.7318   25.9078 C   0  0  1  0  0  0  0  0  0  0  0  0
   11.6502  -16.9748   25.5311 C   0  0  0  0  0  0  0  0  0  0  0  0
   12.2138  -18.1175   26.3252 C   0  0  0  0  0  0  0  0  0  0  0  0
   13.6373  -18.3851   25.9412 C   0  0  0  0  0  0  0  0  0  0  0  0
   13.9289  -19.4906   25.4748 O   0  0  0  0  0  0  0  0  0  0  0  0
   10.1151  -16.4267   27.3453 C   0  0  0  0  0  0  0  0  0  0  0  0
    9.8912  -15.2293   27.7352 O   0  0  0  0  0  0  0  0  0  0  0  0
   14.5613  -17.3972   26.1207 O   0  0  0  0  0  0  0  0  0  0  0  0
   10.2479  -17.3684   28.3257 O   0  0  0  0  0  0  0  0  0  0  0  0
  2  1  1  6
  2  3  1  0
  4  3  1  0
  4  8  1  0
  5  4  2  0
  6  2  1  0
  6  7  2  0
  9  6  1  0
 10  9  1  0
 11 12  1  0
 10 11  1  1
 12 17  2  0
 13 12  1  0
 13 14  2  0
 14 15  1  0
 15 16  2  0
 17 16  1  0
 18 10  1  0
 19 18  2  0
 20 18  1  0
 21 20  1  0
 21 22  1  6
 22 23  1  0
 23 24  1  0
 24 28  1  0
 25 24  2  0
 26 21  1  0
 27 26  2  0
 29 26  1  0
M  END
$$$$
