WCV.pdb
     RDKit          3D

 28 29  0  0  1  0  0  0  0  0999 V2000
   28.3166  -21.0629  -15.4376 N   0  0  0  0  0  0  0  0  0  0  0  0
   27.3291  -20.1935  -14.8759 C   0  0  1  0  0  0  0  0  0  0  0  0
   26.6096  -19.3004  -15.8068 C   0  0  0  0  0  0  0  0  0  0  0  0
   27.3965  -18.3321  -16.5566 C   0  0  0  0  0  0  0  0  0  0  0  0
   28.0574  -18.4464  -17.7582 C   0  0  0  0  0  0  0  0  0  0  0  0
   28.6307  -17.2398  -18.0301 N   0  0  0  0  0  0  0  0  0  0  0  0
   28.3608  -16.3708  -17.0521 C   0  0  0  0  0  0  0  0  0  0  0  0
   28.6763  -15.0308  -16.8069 C   0  0  0  0  0  0  0  0  0  0  0  0
   28.2363  -14.3868  -15.6696 C   0  0  0  0  0  0  0  0  0  0  0  0
   27.4579  -15.0544  -14.7258 C   0  0  0  0  0  0  0  0  0  0  0  0
   27.1517  -16.3659  -14.9749 C   0  0  0  0  0  0  0  0  0  0  0  0
   27.5858  -17.0215  -16.1060 C   0  0  0  0  0  0  0  0  0  0  0  0
   26.4632  -20.9055  -13.8864 C   0  0  0  0  0  0  0  0  0  0  0  0
   25.8845  -21.9442  -14.2521 O   0  0  0  0  0  0  0  0  0  0  0  0
   26.2820  -20.4379  -12.5638 N   0  0  0  0  0  0  0  0  0  0  0  0
   25.2272  -20.8911  -11.6761 C   0  0  1  0  0  0  0  0  0  0  0  0
   25.5018  -20.5868  -10.2598 C   0  0  0  0  0  0  0  0  0  0  0  0
   27.1548  -21.2155   -9.8656 S   0  0  0  0  0  0  0  0  0  0  0  0
   23.8902  -20.4732  -12.1771 C   0  0  0  0  0  0  0  0  0  0  0  0
   23.6654  -19.2696  -12.3905 O   0  0  0  0  0  0  0  0  0  0  0  0
   21.6207  -23.2003  -14.3405 C   0  0  0  0  0  0  0  0  0  0  0  0
   21.4093  -21.7295  -14.3325 C   0  0  1  0  0  0  0  0  0  0  0  0
   20.0410  -21.4026  -14.8904 C   0  0  0  0  0  0  0  0  0  0  0  0
   21.5861  -21.0756  -12.9765 C   0  0  2  0  0  0  0  0  0  0  0  0
   22.8931  -21.4547  -12.4048 N   0  0  0  0  0  0  0  0  0  0  0  0
   20.4887  -21.4076  -12.0482 C   0  0  0  0  0  0  0  0  0  0  0  0
   19.2362  -20.7952  -12.1018 O   0  0  0  0  0  0  0  0  0  0  0  0
   20.6194  -22.2690  -11.1458 O   0  0  0  0  0  0  0  0  0  0  0  0
  2  1  1  6
  2  3  1  0
  3  4  1  0
  4  5  2  0
  6  5  1  0
  7  6  1  0
  8  7  2  0
  9  8  1  0
 10  9  2  0
 10 11  1  0
 11 12  2  0
 12  7  1  0
 12  4  1  0
 13  2  1  0
 13 14  2  0
 15 13  1  0
 16 15  1  0
 17 18  1  0
 16 17  1  1
 19 16  1  0
 20 19  2  0
 22 21  1  1
 22 24  1  0
 23 22  1  0
 24 25  1  1
 24 26  1  0
 25 19  1  0
 26 28  2  0
 26 27  1  0
M  END
$$$$
