WCV.pdb
     RDKit          3D

 28 29  0  0  1  0  0  0  0  0999 V2000
   26.9924  -18.8435  -17.5854 N   0  0  0  0  0  0  0  0  0  0  0  0
   27.0255  -18.5565  -16.1843 C   0  0  1  0  0  0  0  0  0  0  0  0
   25.8931  -17.7894  -15.6265 C   0  0  0  0  0  0  0  0  0  0  0  0
   25.5232  -16.5504  -16.2950 C   0  0  0  0  0  0  0  0  0  0  0  0
   24.3840  -16.2057  -16.9860 C   0  0  0  0  0  0  0  0  0  0  0  0
   24.5293  -14.9161  -17.4036 N   0  0  0  0  0  0  0  0  0  0  0  0
   25.7101  -14.4338  -17.0069 C   0  0  0  0  0  0  0  0  0  0  0  0
   26.3729  -13.2100  -17.1427 C   0  0  0  0  0  0  0  0  0  0  0  0
   27.6262  -13.0093  -16.6036 C   0  0  0  0  0  0  0  0  0  0  0  0
   28.2733  -14.0244  -15.9013 C   0  0  0  0  0  0  0  0  0  0  0  0
   27.6161  -15.2190  -15.7712 C   0  0  0  0  0  0  0  0  0  0  0  0
   26.3648  -15.4333  -16.3059 C   0  0  0  0  0  0  0  0  0  0  0  0
   27.4349  -19.7515  -15.3841 C   0  0  0  0  0  0  0  0  0  0  0  0
   26.8665  -20.8343  -15.6121 O   0  0  0  0  0  0  0  0  0  0  0  0
   28.4350  -19.6882  -14.3859 N   0  0  0  0  0  0  0  0  0  0  0  0
   28.3631  -20.3841  -13.1144 C   0  0  1  0  0  0  0  0  0  0  0  0
   29.6200  -20.3055  -12.3477 C   0  0  0  0  0  0  0  0  0  0  0  0
   29.3462  -21.1074  -10.7461 S   0  0  0  0  0  0  0  0  0  0  0  0
   27.1302  -20.0113  -12.3698 C   0  0  0  0  0  0  0  0  0  0  0  0
   26.8917  -18.8132  -12.1417 O   0  0  0  0  0  0  0  0  0  0  0  0
   23.6475  -20.4813  -13.2294 C   0  0  0  0  0  0  0  0  0  0  0  0
   23.7988  -21.1057  -11.8894 C   0  0  1  0  0  0  0  0  0  0  0  0
   23.7477  -22.6130  -12.0147 C   0  0  0  0  0  0  0  0  0  0  0  0
   25.0482  -20.6899  -11.1386 C   0  0  2  0  0  0  0  0  0  0  0  0
   26.2453  -21.0289  -11.9328 N   0  0  0  0  0  0  0  0  0  0  0  0
   25.1195  -21.2930   -9.7942 C   0  0  0  0  0  0  0  0  0  0  0  0
   24.4070  -20.7995   -8.7009 O   0  0  0  0  0  0  0  0  0  0  0  0
   25.8335  -22.2957   -9.5528 O   0  0  0  0  0  0  0  0  0  0  0  0
  2  1  1  6
  2  3  1  0
  3  4  1  0
  4  5  2  0
  6  5  1  0
  7  6  1  0
  8  7  2  0
  9  8  1  0
 10  9  2  0
 10 11  1  0
 11 12  2  0
 12  7  1  0
 12  4  1  0
 13  2  1  0
 13 14  2  0
 15 13  1  0
 16 15  1  0
 17 18  1  0
 16 17  1  1
 19 16  1  0
 20 19  2  0
 22 21  1  6
 22 24  1  0
 23 22  1  0
 24 25  1  6
 24 26  1  0
 25 19  1  0
 26 28  2  0
 26 27  1  0
M  END
$$$$
