WCV.pdb
     RDKit          3D

 28 29  0  0  1  0  0  0  0  0999 V2000
   26.0484  -20.6311  -15.4932 N   0  0  0  0  0  0  0  0  0  0  0  0
   25.6280  -19.8927  -14.3423 C   0  0  1  0  0  0  0  0  0  0  0  0
   26.5066  -18.7959  -13.8874 C   0  0  0  0  0  0  0  0  0  0  0  0
   27.9104  -19.1063  -13.6596 C   0  0  0  0  0  0  0  0  0  0  0  0
   29.0337  -18.7791  -14.3840 C   0  0  0  0  0  0  0  0  0  0  0  0
   30.1114  -19.3004  -13.7319 N   0  0  0  0  0  0  0  0  0  0  0  0
   29.7162  -19.9423  -12.6291 C   0  0  0  0  0  0  0  0  0  0  0  0
   30.3657  -20.6434  -11.6084 C   0  0  0  0  0  0  0  0  0  0  0  0
   29.6612  -21.2128  -10.5685 C   0  0  0  0  0  0  0  0  0  0  0  0
   28.2734  -21.1047  -10.5014 C   0  0  0  0  0  0  0  0  0  0  0  0
   27.6455  -20.4145  -11.5041 C   0  0  0  0  0  0  0  0  0  0  0  0
   28.3368  -19.8422  -12.5492 C   0  0  0  0  0  0  0  0  0  0  0  0
   24.1730  -19.5533  -14.4035 C   0  0  0  0  0  0  0  0  0  0  0  0
   23.7598  -18.6098  -13.7061 O   0  0  0  0  0  0  0  0  0  0  0  0
   23.2627  -20.2658  -15.2186 N   0  0  0  0  0  0  0  0  0  0  0  0
   21.8191  -20.1744  -15.1011 C   0  0  1  0  0  0  0  0  0  0  0  0
   21.1310  -20.2955  -16.3994 C   0  0  0  0  0  0  0  0  0  0  0  0
   19.3463  -20.2437  -16.0905 S   0  0  0  0  0  0  0  0  0  0  0  0
   21.3134  -21.0614  -14.0190 C   0  0  0  0  0  0  0  0  0  0  0  0
   21.3942  -22.2945  -14.1506 O   0  0  0  0  0  0  0  0  0  0  0  0
   22.2888  -20.8098  -10.3451 C   0  0  0  0  0  0  0  0  0  0  0  0
   20.8057  -20.8411  -10.4317 C   0  0  1  0  0  0  0  0  0  0  0  0
   20.2428  -19.4693  -10.1293 C   0  0  0  0  0  0  0  0  0  0  0  0
   20.2629  -21.3442  -11.7546 C   0  0  2  0  0  0  0  0  0  0  0  0
   20.7480  -20.4861  -12.8533 N   0  0  0  0  0  0  0  0  0  0  0  0
   18.7899  -21.4251  -11.7602 C   0  0  0  0  0  0  0  0  0  0  0  0
   18.0747  -22.3199  -10.9638 O   0  0  0  0  0  0  0  0  0  0  0  0
   18.0867  -20.6862  -12.4903 O   0  0  0  0  0  0  0  0  0  0  0  0
  2  1  1  6
  2  3  1  0
  3  4  1  0
  4  5  2  0
  6  5  1  0
  7  6  1  0
  8  7  2  0
  9  8  1  0
 10  9  2  0
 10 11  1  0
 11 12  2  0
 12  7  1  0
 12  4  1  0
 13  2  1  0
 13 14  2  0
 15 13  1  0
 16 15  1  0
 17 18  1  0
 16 17  1  6
 19 16  1  0
 20 19  2  0
 22 21  1  6
 22 24  1  0
 23 22  1  0
 24 25  1  6
 24 26  1  0
 25 19  1  0
 26 28  2  0
 26 27  1  0
M  END
$$$$
