WCV.pdb
     RDKit          3D

 28 29  0  0  1  0  0  0  0  0999 V2000
   28.0653  -20.5969  -10.1232 N   0  0  0  0  0  0  0  0  0  0  0  0
   26.6949  -20.7227   -9.7325 C   0  0  1  0  0  0  0  0  0  0  0  0
   26.2608  -19.9628   -8.5427 C   0  0  0  0  0  0  0  0  0  0  0  0
   27.2844  -19.5583   -7.5901 C   0  0  0  0  0  0  0  0  0  0  0  0
   28.0730  -18.4316   -7.5403 C   0  0  0  0  0  0  0  0  0  0  0  0
   28.8618  -18.5288   -6.4327 N   0  0  0  0  0  0  0  0  0  0  0  0
   28.6055  -19.6676   -5.7832 C   0  0  0  0  0  0  0  0  0  0  0  0
   29.0944  -20.2735   -4.6216 C   0  0  0  0  0  0  0  0  0  0  0  0
   28.6147  -21.4930   -4.1923 C   0  0  0  0  0  0  0  0  0  0  0  0
   27.6212  -22.1617   -4.9053 C   0  0  0  0  0  0  0  0  0  0  0  0
   27.1465  -21.5601   -6.0405 C   0  0  0  0  0  0  0  0  0  0  0  0
   27.6178  -20.3431   -6.4812 C   0  0  0  0  0  0  0  0  0  0  0  0
   25.7743  -20.6375  -10.9077 C   0  0  0  0  0  0  0  0  0  0  0  0
   25.8288  -19.6223  -11.6246 O   0  0  0  0  0  0  0  0  0  0  0  0
   24.8524  -21.6628  -11.2237 N   0  0  0  0  0  0  0  0  0  0  0  0
   23.9753  -21.6427  -12.3797 C   0  0  1  0  0  0  0  0  0  0  0  0
   24.0392  -22.8873  -13.1675 C   0  0  0  0  0  0  0  0  0  0  0  0
   25.7854  -23.2707  -13.4622 S   0  0  0  0  0  0  0  0  0  0  0  0
   22.6094  -21.1860  -12.0067 C   0  0  0  0  0  0  0  0  0  0  0  0
   22.1369  -21.5070  -10.9030 O   0  0  0  0  0  0  0  0  0  0  0  0
   21.2230  -17.5439  -12.3518 C   0  0  0  0  0  0  0  0  0  0  0  0
   20.3031  -18.5098  -13.0068 C   0  0  1  0  0  0  0  0  0  0  0  0
   20.4187  -18.3925  -14.5112 C   0  0  0  0  0  0  0  0  0  0  0  0
   20.4985  -19.9519  -12.5827 C   0  0  2  0  0  0  0  0  0  0  0  0
   21.8680  -20.3903  -12.9159 N   0  0  0  0  0  0  0  0  0  0  0  0
   19.4961  -20.8522  -13.1836 C   0  0  0  0  0  0  0  0  0  0  0  0
   19.8063  -21.7775  -14.1807 O   0  0  0  0  0  0  0  0  0  0  0  0
   18.2929  -20.8376  -12.8297 O   0  0  0  0  0  0  0  0  0  0  0  0
  2  1  1  6
  2  3  1  0
  3  4  1  0
  4  5  2  0
  6  5  1  0
  7  6  1  0
  8  7  2  0
  9  8  1  0
 10  9  2  0
 10 11  1  0
 11 12  2  0
 12  7  1  0
 12  4  1  0
 13  2  1  0
 13 14  2  0
 15 13  1  0
 16 15  1  0
 17 18  1  0
 16 17  1  1
 19 16  1  0
 20 19  2  0
 22 21  1  1
 22 24  1  0
 23 22  1  0
 24 25  1  6
 24 26  1  0
 25 19  1  0
 26 28  2  0
 26 27  1  0
M  END
$$$$
