WCV.pdb
     RDKit          3D

 28 29  0  0  1  0  0  0  0  0999 V2000
   23.7928  -35.7781  -10.9176 N   0  0  0  0  0  0  0  0  0  0  0  0
   24.2886  -34.9361   -9.8728 C   0  0  1  0  0  0  0  0  0  0  0  0
   23.4523  -33.7827   -9.4827 C   0  0  0  0  0  0  0  0  0  0  0  0
   23.1271  -32.8063  -10.5121 C   0  0  0  0  0  0  0  0  0  0  0  0
   22.6465  -32.9726  -11.7909 C   0  0  0  0  0  0  0  0  0  0  0  0
   22.4954  -31.7336  -12.3391 N   0  0  0  0  0  0  0  0  0  0  0  0
   22.8605  -30.7943  -11.4623 C   0  0  0  0  0  0  0  0  0  0  0  0
   22.9118  -29.3970  -11.4762 C   0  0  0  0  0  0  0  0  0  0  0  0
   23.3489  -28.6843  -10.3795 C   0  0  0  0  0  0  0  0  0  0  0  0
   23.7530  -29.3380   -9.2168 C   0  0  0  0  0  0  0  0  0  0  0  0
   23.6975  -30.7065   -9.2110 C   0  0  0  0  0  0  0  0  0  0  0  0
   23.2644  -31.4306  -10.2999 C   0  0  0  0  0  0  0  0  0  0  0  0
   24.8377  -35.7332   -8.7330 C   0  0  0  0  0  0  0  0  0  0  0  0
   24.2654  -36.7950   -8.4289 O   0  0  0  0  0  0  0  0  0  0  0  0
   25.9729  -35.3201   -7.9972 N   0  0  0  0  0  0  0  0  0  0  0  0
   26.4451  -35.9745   -6.7910 C   0  0  1  0  0  0  0  0  0  0  0  0
   27.7496  -36.6369   -6.9732 C   0  0  0  0  0  0  0  0  0  0  0  0
   28.9194  -35.4010   -7.5956 S   0  0  0  0  0  0  0  0  0  0  0  0
   26.3414  -35.0685   -5.6155 C   0  0  0  0  0  0  0  0  0  0  0  0
   26.6051  -33.8613   -5.7481 O   0  0  0  0  0  0  0  0  0  0  0  0
   24.5809  -36.5933   -1.9890 C   0  0  0  0  0  0  0  0  0  0  0  0
   24.5255  -35.1697   -2.4113 C   0  0  1  0  0  0  0  0  0  0  0  0
   24.3273  -34.2810   -1.2025 C   0  0  0  0  0  0  0  0  0  0  0  0
   25.7277  -34.7020   -3.2072 C   0  0  2  0  0  0  0  0  0  0  0  0
   25.9421  -35.5962   -4.3619 N   0  0  0  0  0  0  0  0  0  0  0  0
   26.9452  -34.6098   -2.3790 C   0  0  0  0  0  0  0  0  0  0  0  0
   27.2130  -33.5285   -1.5390 O   0  0  0  0  0  0  0  0  0  0  0  0
   27.8207  -35.5080   -2.3825 O   0  0  0  0  0  0  0  0  0  0  0  0
  2  1  1  6
  2  3  1  0
  3  4  1  0
  4  5  2  0
  6  5  1  0
  7  6  1  0
  8  7  2  0
  9  8  1  0
 10  9  2  0
 10 11  1  0
 11 12  2  0
 12  7  1  0
 12  4  1  0
 13  2  1  0
 13 14  2  0
 15 13  1  0
 16 15  1  0
 17 18  1  0
 16 17  1  6
 19 16  1  0
 20 19  2  0
 22 21  1  1
 22 24  1  0
 23 22  1  0
 24 25  1  6
 24 26  1  0
 25 19  1  0
 26 28  2  0
 26 27  1  0
M  END
$$$$
