WCV.pdb
     RDKit          3D

 28 29  0  0  1  0  0  0  0  0999 V2000
   26.1446  -20.2470  -15.6940 N   0  0  0  0  0  0  0  0  0  0  0  0
   25.0312  -19.6361  -15.0355 C   0  0  1  0  0  0  0  0  0  0  0  0
   24.0267  -18.9690  -15.8886 C   0  0  0  0  0  0  0  0  0  0  0  0
   24.5086  -18.0225  -16.8840 C   0  0  0  0  0  0  0  0  0  0  0  0
   25.1563  -18.2267  -18.0810 C   0  0  0  0  0  0  0  0  0  0  0  0
   25.3756  -17.0051  -18.6449 N   0  0  0  0  0  0  0  0  0  0  0  0
   24.8954  -16.0404  -17.8554 C   0  0  0  0  0  0  0  0  0  0  0  0
   24.8388  -14.6449  -17.9242 C   0  0  0  0  0  0  0  0  0  0  0  0
   24.2587  -13.9002  -16.9190 C   0  0  0  0  0  0  0  0  0  0  0  0
   23.7064  -14.5186  -15.7987 C   0  0  0  0  0  0  0  0  0  0  0  0
   23.7642  -15.8858  -15.7405 C   0  0  0  0  0  0  0  0  0  0  0  0
   24.3419  -16.6416  -16.7368 C   0  0  0  0  0  0  0  0  0  0  0  0
   24.4680  -20.5179  -13.9672 C   0  0  0  0  0  0  0  0  0  0  0  0
   23.8762  -21.5558  -14.3134 O   0  0  0  0  0  0  0  0  0  0  0  0
   24.5841  -20.2099  -12.5916 N   0  0  0  0  0  0  0  0  0  0  0  0
   23.9349  -20.9581  -11.5310 C   0  0  1  0  0  0  0  0  0  0  0  0
   24.6098  -20.8069  -10.2289 C   0  0  0  0  0  0  0  0  0  0  0  0
   26.3635  -21.1985  -10.4620 S   0  0  0  0  0  0  0  0  0  0  0  0
   22.4669  -20.7164  -11.5274 C   0  0  0  0  0  0  0  0  0  0  0  0
   22.0384  -19.5535  -11.4354 O   0  0  0  0  0  0  0  0  0  0  0  0
   20.0105  -21.1753  -14.0788 C   0  0  0  0  0  0  0  0  0  0  0  0
   19.5118  -21.9774  -12.9316 C   0  0  1  0  0  0  0  0  0  0  0  0
   19.7208  -23.4513  -13.2039 C   0  0  0  0  0  0  0  0  0  0  0  0
   20.1186  -21.6063  -11.5930 C   0  0  2  0  0  0  0  0  0  0  0  0
   21.5791  -21.8168  -11.6301 N   0  0  0  0  0  0  0  0  0  0  0  0
   19.5071  -22.3512  -10.4761 C   0  0  0  0  0  0  0  0  0  0  0  0
   18.2186  -22.0948  -10.0065 O   0  0  0  0  0  0  0  0  0  0  0  0
   20.1173  -23.2684   -9.8761 O   0  0  0  0  0  0  0  0  0  0  0  0
  2  1  1  6
  2  3  1  0
  3  4  1  0
  4  5  2  0
  6  5  1  0
  7  6  1  0
  8  7  2  0
  9  8  1  0
 10  9  2  0
 10 11  1  0
 11 12  2  0
 12  7  1  0
 12  4  1  0
 13  2  1  0
 13 14  2  0
 15 13  1  0
 16 15  1  0
 17 18  1  0
 16 17  1  1
 19 16  1  0
 20 19  2  0
 22 21  1  6
 22 24  1  0
 23 22  1  0
 24 25  1  6
 24 26  1  0
 25 19  1  0
 26 28  2  0
 26 27  1  0
M  END
$$$$
