WCV.pdb
     RDKit          3D

 28 29  0  0  1  0  0  0  0  0999 V2000
   23.5515  -19.3248  -17.2392 N   0  0  0  0  0  0  0  0  0  0  0  0
   24.2952  -18.7821  -16.1443 C   0  0  1  0  0  0  0  0  0  0  0  0
   23.5988  -17.8176  -15.2688 C   0  0  0  0  0  0  0  0  0  0  0  0
   23.2473  -16.5237  -15.8356 C   0  0  0  0  0  0  0  0  0  0  0  0
   22.1018  -16.0998  -16.4696 C   0  0  0  0  0  0  0  0  0  0  0  0
   22.2727  -14.7873  -16.7961 N   0  0  0  0  0  0  0  0  0  0  0  0
   23.4757  -14.3661  -16.3964 C   0  0  0  0  0  0  0  0  0  0  0  0
   24.1687  -13.1532  -16.4604 C   0  0  0  0  0  0  0  0  0  0  0  0
   25.4398  -13.0252  -15.9410 C   0  0  0  0  0  0  0  0  0  0  0  0
   26.0753  -14.1055  -15.3316 C   0  0  0  0  0  0  0  0  0  0  0  0
   25.3885  -15.2890  -15.2714 C   0  0  0  0  0  0  0  0  0  0  0  0
   24.1192  -15.4310  -15.7873 C   0  0  0  0  0  0  0  0  0  0  0  0
   25.0751  -19.8376  -15.4277 C   0  0  0  0  0  0  0  0  0  0  0  0
   24.4616  -20.8292  -14.9943 O   0  0  0  0  0  0  0  0  0  0  0  0
   26.4722  -19.7427  -15.2278 N   0  0  0  0  0  0  0  0  0  0  0  0
   27.1962  -20.4455  -14.1848 C   0  0  1  0  0  0  0  0  0  0  0  0
   28.6498  -20.4881  -14.4271 C   0  0  0  0  0  0  0  0  0  0  0  0
   28.9506  -21.6175  -15.8117 S   0  0  0  0  0  0  0  0  0  0  0  0
   26.7817  -19.9746  -12.8358 C   0  0  0  0  0  0  0  0  0  0  0  0
   26.3552  -18.8156  -12.6964 O   0  0  0  0  0  0  0  0  0  0  0  0
   24.1805  -22.1051  -11.3332 C   0  0  0  0  0  0  0  0  0  0  0  0
   24.5915  -20.7572  -10.8616 C   0  0  1  0  0  0  0  0  0  0  0  0
   23.7475  -20.3473   -9.6742 C   0  0  0  0  0  0  0  0  0  0  0  0
   26.0629  -20.6315  -10.5200 C   0  0  2  0  0  0  0  0  0  0  0  0
   26.8784  -20.8559  -11.7297 N   0  0  0  0  0  0  0  0  0  0  0  0
   26.4655  -21.5473   -9.4357 C   0  0  0  0  0  0  0  0  0  0  0  0
   26.4618  -21.1798   -8.0898 O   0  0  0  0  0  0  0  0  0  0  0  0
   26.8396  -22.7227   -9.6634 O   0  0  0  0  0  0  0  0  0  0  0  0
  2  1  1  1
  2  3  1  0
  3  4  1  0
  4  5  2  0
  6  5  1  0
  7  6  1  0
  8  7  2  0
  9  8  1  0
 10  9  2  0
 10 11  1  0
 11 12  2  0
 12  7  1  0
 12  4  1  0
 13  2  1  0
 13 14  2  0
 15 13  1  0
 16 15  1  0
 17 18  1  0
 16 17  1  6
 19 16  1  0
 20 19  2  0
 22 21  1  1
 22 24  1  0
 23 22  1  0
 24 25  1  6
 24 26  1  0
 25 19  1  0
 26 28  2  0
 26 27  1  0
M  END
$$$$
