WCV.pdb
     RDKit          3D

 28 29  0  0  1  0  0  0  0  0999 V2000
   15.7564  -20.5257    3.0321 N   0  0  0  0  0  0  0  0  0  0  0  0
   16.2956  -19.6280    4.0067 C   0  0  1  0  0  0  0  0  0  0  0  0
   15.7919  -18.2395    3.9958 C   0  0  0  0  0  0  0  0  0  0  0  0
   15.9975  -17.4567    2.7859 C   0  0  0  0  0  0  0  0  0  0  0  0
   15.3829  -17.5218    1.5563 C   0  0  0  0  0  0  0  0  0  0  0  0
   15.9317  -16.5534    0.7692 N   0  0  0  0  0  0  0  0  0  0  0  0
   16.8655  -15.8819    1.4486 C   0  0  0  0  0  0  0  0  0  0  0  0
   17.7244  -14.8176    1.1575 C   0  0  0  0  0  0  0  0  0  0  0  0
   18.6057  -14.3290    2.0989 C   0  0  0  0  0  0  0  0  0  0  0  0
   18.6663  -14.8823    3.3766 C   0  0  0  0  0  0  0  0  0  0  0  0
   17.8200  -15.9230    3.6539 C   0  0  0  0  0  0  0  0  0  0  0  0
   16.9360  -16.4215    2.7225 C   0  0  0  0  0  0  0  0  0  0  0  0
   16.3746  -20.2614    5.3589 C   0  0  0  0  0  0  0  0  0  0  0  0
   15.4444  -21.0073    5.7137 O   0  0  0  0  0  0  0  0  0  0  0  0
   17.4605  -20.0386    6.2375 N   0  0  0  0  0  0  0  0  0  0  0  0
   17.5863  -20.6472    7.5490 C   0  0  1  0  0  0  0  0  0  0  0  0
   17.5037  -22.1186    7.5068 C   0  0  0  0  0  0  0  0  0  0  0  0
   18.6580  -22.7048    6.2390 S   0  0  0  0  0  0  0  0  0  0  0  0
   18.7502  -20.0885    8.2884 C   0  0  0  0  0  0  0  0  0  0  0  0
   19.7622  -19.7350    7.6596 O   0  0  0  0  0  0  0  0  0  0  0  0
   18.1972  -18.8225   12.2899 C   0  0  0  0  0  0  0  0  0  0  0  0
   19.3361  -18.3782   11.4451 C   0  0  1  0  0  0  0  0  0  0  0  0
   20.4795  -17.9170   12.3227 C   0  0  0  0  0  0  0  0  0  0  0  0
   19.8280  -19.4156   10.4554 C   0  0  2  0  0  0  0  0  0  0  0  0
   18.6864  -19.9666    9.6992 N   0  0  0  0  0  0  0  0  0  0  0  0
   20.5959  -20.4923   11.1093 C   0  0  0  0  0  0  0  0  0  0  0  0
   21.9561  -20.3865   11.4013 O   0  0  0  0  0  0  0  0  0  0  0  0
   20.0647  -21.5783   11.4439 O   0  0  0  0  0  0  0  0  0  0  0  0
  2  1  1  6
  2  3  1  0
  3  4  1  0
  4  5  2  0
  6  5  1  0
  7  6  1  0
  8  7  2  0
  9  8  1  0
 10  9  2  0
 10 11  1  0
 11 12  2  0
 12  7  1  0
 12  4  1  0
 13  2  1  0
 13 14  2  0
 15 13  1  0
 16 15  1  0
 17 18  1  0
 16 17  1  6
 19 16  1  0
 20 19  2  0
 22 21  1  1
 22 24  1  0
 23 22  1  0
 24 25  1  1
 24 26  1  0
 25 19  1  0
 26 28  2  0
 26 27  1  0
M  END
$$$$
