WCV.pdb
     RDKit          3D

 28 29  0  0  1  0  0  0  0  0999 V2000
   19.6801  -11.4361  -16.8374 N   0  0  0  0  0  0  0  0  0  0  0  0
   19.7815  -10.1379  -17.4298 C   0  0  1  0  0  0  0  0  0  0  0  0
   19.2332   -9.9738  -18.7915 C   0  0  0  0  0  0  0  0  0  0  0  0
   19.7155  -10.8768  -19.8263 C   0  0  0  0  0  0  0  0  0  0  0  0
   20.9005  -11.5676  -19.9375 C   0  0  0  0  0  0  0  0  0  0  0  0
   20.8505  -12.2892  -21.0931 N   0  0  0  0  0  0  0  0  0  0  0  0
   19.6865  -12.0825  -21.7151 C   0  0  0  0  0  0  0  0  0  0  0  0
   19.1034  -12.5461  -22.8985 C   0  0  0  0  0  0  0  0  0  0  0  0
   17.8444  -12.1377  -23.2856 C   0  0  0  0  0  0  0  0  0  0  0  0
   17.1098  -11.2475  -22.5044 C   0  0  0  0  0  0  0  0  0  0  0  0
   17.6876  -10.8002  -21.3459 C   0  0  0  0  0  0  0  0  0  0  0  0
   18.9448  -11.1989  -20.9482 C   0  0  0  0  0  0  0  0  0  0  0  0
   19.4099   -9.0584  -16.4642 C   0  0  0  0  0  0  0  0  0  0  0  0
   18.2537   -9.0529  -16.0052 O   0  0  0  0  0  0  0  0  0  0  0  0
   20.3214   -8.0536  -16.0637 N   0  0  0  0  0  0  0  0  0  0  0  0
   20.0317   -7.0409  -15.0654 C   0  0  1  0  0  0  0  0  0  0  0  0
   20.9954   -7.0460  -13.9496 C   0  0  0  0  0  0  0  0  0  0  0  0
   20.7367   -8.5658  -12.9975 S   0  0  0  0  0  0  0  0  0  0  0  0
   19.7890   -5.7177  -15.7007 C   0  0  0  0  0  0  0  0  0  0  0  0
   20.5651   -5.3103  -16.5818 O   0  0  0  0  0  0  0  0  0  0  0  0
   16.4650   -2.4131  -17.0680 C   0  0  0  0  0  0  0  0  0  0  0  0
   16.9233   -3.6852  -16.4517 C   0  0  1  0  0  0  0  0  0  0  0  0
   16.7146   -4.8307  -17.4184 C   0  0  0  0  0  0  0  0  0  0  0  0
   18.3603   -3.6690  -15.9694 C   0  0  2  0  0  0  0  0  0  0  0  0
   18.6751   -4.9421  -15.2920 N   0  0  0  0  0  0  0  0  0  0  0  0
   18.6415   -2.5197  -15.0882 C   0  0  0  0  0  0  0  0  0  0  0  0
   19.1185   -1.2973  -15.5621 O   0  0  0  0  0  0  0  0  0  0  0  0
   18.4668   -2.5755  -13.8473 O   0  0  0  0  0  0  0  0  0  0  0  0
  2  1  1  1
  2  3  1  0
  3  4  1  0
  4  5  2  0
  6  5  1  0
  7  6  1  0
  8  7  2  0
  9  8  1  0
 10  9  2  0
 10 11  1  0
 11 12  2  0
 12  7  1  0
 12  4  1  0
 13  2  1  0
 13 14  2  0
 15 13  1  0
 16 15  1  0
 17 18  1  0
 16 17  1  1
 19 16  1  0
 20 19  2  0
 22 21  1  6
 22 24  1  0
 23 22  1  0
 24 25  1  1
 24 26  1  0
 25 19  1  0
 26 28  2  0
 26 27  1  0
M  END
$$$$
