WCV.pdb
     RDKit          3D

 28 29  0  0  1  0  0  0  0  0999 V2000
   29.0438  -20.9719   -9.8652 N   0  0  0  0  0  0  0  0  0  0  0  0
   27.6242  -20.9087   -9.6997 C   0  0  1  0  0  0  0  0  0  0  0  0
   27.0944  -19.8422   -8.8258 C   0  0  0  0  0  0  0  0  0  0  0  0
   27.8423  -19.5264   -7.6175 C   0  0  0  0  0  0  0  0  0  0  0  0
   28.8645  -18.6311   -7.3997 C   0  0  0  0  0  0  0  0  0  0  0  0
   29.2076  -18.7093   -6.0826 N   0  0  0  0  0  0  0  0  0  0  0  0
   28.4472  -19.6151   -5.4615 C   0  0  0  0  0  0  0  0  0  0  0  0
   28.3560  -20.0968   -4.1520 C   0  0  0  0  0  0  0  0  0  0  0  0
   27.4384  -21.0666   -3.8067 C   0  0  0  0  0  0  0  0  0  0  0  0
   26.5678  -21.5977   -4.7567 C   0  0  0  0  0  0  0  0  0  0  0  0
   26.6624  -21.1186   -6.0363 C   0  0  0  0  0  0  0  0  0  0  0  0
   27.5752  -20.1513   -6.3949 C   0  0  0  0  0  0  0  0  0  0  0  0
   26.9072  -21.0739  -11.0013 C   0  0  0  0  0  0  0  0  0  0  0  0
   27.4307  -20.5991  -12.0251 O   0  0  0  0  0  0  0  0  0  0  0  0
   25.6653  -21.7433  -11.1024 N   0  0  0  0  0  0  0  0  0  0  0  0
   24.9513  -21.9534  -12.3483 C   0  0  1  0  0  0  0  0  0  0  0  0
   24.3832  -23.3093  -12.4600 C   0  0  0  0  0  0  0  0  0  0  0  0
   23.6377  -23.4669  -14.1040 S   0  0  0  0  0  0  0  0  0  0  0  0
   24.0077  -20.8355  -12.6190 C   0  0  0  0  0  0  0  0  0  0  0  0
   23.3741  -20.3280  -11.6780 O   0  0  0  0  0  0  0  0  0  0  0  0
   23.5484  -19.1916  -16.6776 C   0  0  0  0  0  0  0  0  0  0  0  0
   23.3325  -18.4637  -15.4002 C   0  0  1  0  0  0  0  0  0  0  0  0
   22.3801  -17.3083  -15.6201 C   0  0  0  0  0  0  0  0  0  0  0  0
   22.8415  -19.3300  -14.2573 C   0  0  2  0  0  0  0  0  0  0  0  0
   23.8467  -20.3653  -13.9465 N   0  0  0  0  0  0  0  0  0  0  0  0
   21.5282  -19.9391  -14.5416 C   0  0  0  0  0  0  0  0  0  0  0  0
   20.3187  -19.3237  -14.2176 O   0  0  0  0  0  0  0  0  0  0  0  0
   21.4213  -21.0589  -15.0967 O   0  0  0  0  0  0  0  0  0  0  0  0
  2  1  1  6
  2  3  1  0
  3  4  1  0
  4  5  2  0
  6  5  1  0
  7  6  1  0
  8  7  2  0
  9  8  1  0
 10  9  2  0
 10 11  1  0
 11 12  2  0
 12  7  1  0
 12  4  1  0
 13  2  1  0
 13 14  2  0
 15 13  1  0
 16 15  1  0
 17 18  1  0
 16 17  1  1
 19 16  1  0
 20 19  2  0
 22 21  1  6
 22 24  1  0
 23 22  1  0
 24 25  1  6
 24 26  1  0
 25 19  1  0
 26 28  2  0
 26 27  1  0
M  END
$$$$
