WCV.pdb
     RDKit          3D

 28 29  0  0  1  0  0  0  0  0999 V2000
   20.3918  -23.7080  -13.4185 N   0  0  0  0  0  0  0  0  0  0  0  0
   19.8416  -22.8517  -12.4133 C   0  0  1  0  0  0  0  0  0  0  0  0
   19.1507  -21.6298  -12.8733 C   0  0  0  0  0  0  0  0  0  0  0  0
   19.9430  -20.6303  -13.5747 C   0  0  0  0  0  0  0  0  0  0  0  0
   20.7385  -20.7345  -14.6928 C   0  0  0  0  0  0  0  0  0  0  0  0
   21.2493  -19.4975  -14.9524 N   0  0  0  0  0  0  0  0  0  0  0  0
   20.8112  -18.6189  -14.0465 C   0  0  0  0  0  0  0  0  0  0  0  0
   21.0000  -17.2511  -13.8258 C   0  0  0  0  0  0  0  0  0  0  0  0
   20.3922  -16.6042  -12.7704 C   0  0  0  0  0  0  0  0  0  0  0  0
   19.5651  -17.2969  -11.8880 C   0  0  0  0  0  0  0  0  0  0  0  0
   19.3840  -18.6358  -12.1128 C   0  0  0  0  0  0  0  0  0  0  0  0
   19.9862  -19.2944  -13.1622 C   0  0  0  0  0  0  0  0  0  0  0  0
   19.1186  -23.6282  -11.3597 C   0  0  0  0  0  0  0  0  0  0  0  0
   18.3922  -24.5718  -11.7196 O   0  0  0  0  0  0  0  0  0  0  0  0
   19.2319  -23.3245   -9.9829 N   0  0  0  0  0  0  0  0  0  0  0  0
   18.4619  -23.9743   -8.9385 C   0  0  1  0  0  0  0  0  0  0  0  0
   19.0806  -23.8436   -7.6066 C   0  0  0  0  0  0  0  0  0  0  0  0
   18.0372  -24.7287   -6.4188 S   0  0  0  0  0  0  0  0  0  0  0  0
   17.0249  -23.5980   -9.0208 C   0  0  0  0  0  0  0  0  0  0  0  0
   16.7099  -22.3984   -9.0995 O   0  0  0  0  0  0  0  0  0  0  0  0
   14.1976  -25.0138  -11.3145 C   0  0  0  0  0  0  0  0  0  0  0  0
   13.8127  -25.1440   -9.8851 C   0  0  1  0  0  0  0  0  0  0  0  0
   13.9132  -26.5912   -9.4542 C   0  0  0  0  0  0  0  0  0  0  0  0
   14.6043  -24.2646   -8.9376 C   0  0  2  0  0  0  0  0  0  0  0  0
   16.0366  -24.6141   -9.0093 N   0  0  0  0  0  0  0  0  0  0  0  0
   14.1098  -24.3504   -7.5503 C   0  0  0  0  0  0  0  0  0  0  0  0
   12.9638  -23.6879   -7.1094 O   0  0  0  0  0  0  0  0  0  0  0  0
   14.6980  -25.0312   -6.6762 O   0  0  0  0  0  0  0  0  0  0  0  0
  2  1  1  6
  2  3  1  0
  3  4  1  0
  4  5  2  0
  6  5  1  0
  7  6  1  0
  8  7  2  0
  9  8  1  0
 10  9  2  0
 10 11  1  0
 11 12  2  0
 12  7  1  0
 12  4  1  0
 13  2  1  0
 13 14  2  0
 15 13  1  0
 16 15  1  0
 17 18  1  0
 16 17  1  1
 19 16  1  0
 20 19  2  0
 22 21  1  6
 22 24  1  0
 23 22  1  0
 24 25  1  1
 24 26  1  0
 25 19  1  0
 26 28  2  0
 26 27  1  0
M  END
$$$$
