NQT.pdb
     RDKit          3D

 25 24  0  0  1  0  0  0  0  0999 V2000
   21.0057  -14.5966  -15.3466 N   0  0  0  0  0  0  0  0  0  0  0  0
   20.7317  -14.2360  -16.6720 C   0  0  0  0  0  0  0  0  0  0  0  0
   20.6987  -15.0604  -17.6224 O   0  0  0  0  0  0  0  0  0  0  0  0
   20.4601  -12.8043  -17.0048 C   0  0  0  0  0  0  0  0  0  0  0  0
   18.9745  -12.5568  -16.8094 C   0  0  2  0  0  0  0  0  0  0  0  0
   18.1764  -13.3218  -17.7127 N   0  0  0  0  0  0  0  0  0  0  0  0
   18.6510  -11.1213  -16.7952 C   0  0  0  0  0  0  0  0  0  0  0  0
   18.5445  -10.5516  -17.9259 O   0  0  0  0  0  0  0  0  0  0  0  0
   14.2999   -8.0860  -13.6614 N   0  0  0  0  0  0  0  0  0  0  0  0
   14.3457   -8.7751  -14.9037 C   0  0  0  0  0  0  0  0  0  0  0  0
   13.2554   -9.1173  -15.4225 O   0  0  0  0  0  0  0  0  0  0  0  0
   15.5911   -9.1045  -15.6062 C   0  0  0  0  0  0  0  0  0  0  0  0
   16.8406   -8.6689  -14.9349 C   0  0  0  0  0  0  0  0  0  0  0  0
   18.1146   -8.9998  -15.6783 C   0  0  2  0  0  0  0  0  0  0  0  0
   18.4622  -10.3853  -15.5929 N   0  0  0  0  0  0  0  0  0  0  0  0
   19.1818   -8.1849  -15.0090 C   0  0  0  0  0  0  0  0  0  0  0  0
   19.4326   -8.4545  -13.8038 O   0  0  0  0  0  0  0  0  0  0  0  0
   22.8198   -8.0790  -15.4914 C   0  0  0  0  0  0  0  0  0  0  0  0
   22.2873   -6.6760  -15.6707 C   0  0  1  0  0  0  0  0  0  0  0  0
   22.1067   -6.3850  -17.0292 O   0  0  0  0  0  0  0  0  0  0  0  0
   20.9509   -6.4804  -14.9916 C   0  0  2  0  0  0  0  0  0  0  0  0
   19.8814   -7.1648  -15.6744 N   0  0  0  0  0  0  0  0  0  0  0  0
   20.6631   -5.0262  -14.8497 C   0  0  0  0  0  0  0  0  0  0  0  0
   21.4384   -4.1851  -14.0850 O   0  0  0  0  0  0  0  0  0  0  0  0
   19.6688   -4.5637  -15.4592 O   0  0  0  0  0  0  0  0  0  0  0  0
  2  1  1  0
  2  3  2  0
  4  2  1  0
  5  4  1  0
  5  7  1  0
  5  6  1  6
  7  8  2  0
 10  9  1  0
 10 12  1  0
 11 10  2  0
 13 12  1  0
 14 13  1  1
 15 14  1  0
 15  7  1  0
 16 14  1  0
 16 17  2  0
 19 18  1  6
 19 21  1  0
 20 19  1  0
 21 22  1  6
 21 23  1  0
 22 16  1  0
 23 24  1  0
 25 23  2  0
M  END
$$$$
