NQT.pdb
     RDKit          3D

 25 24  0  0  1  0  0  0  0  0999 V2000
   21.9493  -10.2830  -14.4495 N   0  0  0  0  0  0  0  0  0  0  0  0
   21.5388   -9.0121  -14.8715 C   0  0  0  0  0  0  0  0  0  0  0  0
   22.1132   -8.3660  -15.7862 O   0  0  0  0  0  0  0  0  0  0  0  0
   20.3598   -8.3646  -14.2197 C   0  0  0  0  0  0  0  0  0  0  0  0
   19.1455   -9.2366  -14.4869 C   0  0  2  0  0  0  0  0  0  0  0  0
   18.9076   -9.4177  -15.8829 N   0  0  0  0  0  0  0  0  0  0  0  0
   17.9649   -8.7854  -13.7333 C   0  0  0  0  0  0  0  0  0  0  0  0
   17.2369   -7.9058  -14.2909 O   0  0  0  0  0  0  0  0  0  0  0  0
   14.0066  -12.2200  -10.1876 N   0  0  0  0  0  0  0  0  0  0  0  0
   13.5189  -10.8853  -10.2135 C   0  0  0  0  0  0  0  0  0  0  0  0
   12.3691  -10.6746   -9.7567 O   0  0  0  0  0  0  0  0  0  0  0  0
   14.2830   -9.7496  -10.7418 C   0  0  0  0  0  0  0  0  0  0  0  0
   15.6395  -10.0705  -11.2506 C   0  0  0  0  0  0  0  0  0  0  0  0
   16.3893   -8.9037  -11.8519 C   0  0  2  0  0  0  0  0  0  0  0  0
   17.6323   -9.2905  -12.4460 N   0  0  0  0  0  0  0  0  0  0  0  0
   16.6627   -7.9792  -10.7022 C   0  0  0  0  0  0  0  0  0  0  0  0
   17.5060   -8.3652   -9.8490 O   0  0  0  0  0  0  0  0  0  0  0  0
   17.5271   -4.1149  -10.9286 C   0  0  0  0  0  0  0  0  0  0  0  0
   16.4339   -4.4030   -9.9255 C   0  0  1  0  0  0  0  0  0  0  0  0
   15.1748   -4.1207  -10.4711 O   0  0  0  0  0  0  0  0  0  0  0  0
   16.4189   -5.8526   -9.4967 C   0  0  2  0  0  0  0  0  0  0  0  0
   16.0209   -6.7376  -10.5628 N   0  0  0  0  0  0  0  0  0  0  0  0
   15.5488   -6.0174   -8.2994 C   0  0  0  0  0  0  0  0  0  0  0  0
   15.8718   -5.4970   -7.0673 O   0  0  0  0  0  0  0  0  0  0  0  0
   14.4799   -6.6599   -8.4361 O   0  0  0  0  0  0  0  0  0  0  0  0
  2  1  1  0
  2  3  2  0
  4  2  1  0
  5  4  1  0
  5  7  1  0
  5  6  1  6
  7  8  2  0
 10  9  1  0
 10 12  1  0
 11 10  2  0
 13 12  1  0
 14 13  1  1
 15 14  1  0
 15  7  1  0
 16 14  1  0
 16 17  2  0
 19 18  1  6
 19 21  1  0
 20 19  1  0
 21 22  1  6
 21 23  1  0
 22 16  1  0
 23 24  1  0
 25 23  2  0
M  END
$$$$
