NQT.pdb
     RDKit          3D

 25 24  0  0  1  0  0  0  0  0999 V2000
   29.6630  -20.0958  -17.4020 N   0  0  0  0  0  0  0  0  0  0  0  0
   28.4432  -19.4186  -17.5249 C   0  0  0  0  0  0  0  0  0  0  0  0
   28.2765  -18.4201  -18.2728 O   0  0  0  0  0  0  0  0  0  0  0  0
   27.2599  -19.8838  -16.7390 C   0  0  0  0  0  0  0  0  0  0  0  0
   27.7073  -21.0486  -15.8733 C   0  0  2  0  0  0  0  0  0  0  0  0
   28.1468  -22.1620  -16.6515 N   0  0  0  0  0  0  0  0  0  0  0  0
   26.7071  -21.3926  -14.8502 C   0  0  0  0  0  0  0  0  0  0  0  0
   25.8619  -22.2892  -15.1606 O   0  0  0  0  0  0  0  0  0  0  0  0
   26.3140  -19.8467   -8.4789 N   0  0  0  0  0  0  0  0  0  0  0  0
   25.2635  -20.7387   -8.8268 C   0  0  0  0  0  0  0  0  0  0  0  0
   24.5339  -21.1709   -7.9016 O   0  0  0  0  0  0  0  0  0  0  0  0
   24.9892  -21.1772  -10.1998 C   0  0  0  0  0  0  0  0  0  0  0  0
   25.9723  -20.7392  -11.2213 C   0  0  0  0  0  0  0  0  0  0  0  0
   25.6682  -21.1844  -12.6336 C   0  0  2  0  0  0  0  0  0  0  0  0
   26.6654  -20.7696  -13.5724 N   0  0  0  0  0  0  0  0  0  0  0  0
   24.3652  -20.5262  -12.9800 C   0  0  0  0  0  0  0  0  0  0  0  0
   24.3277  -19.2682  -12.9153 O   0  0  0  0  0  0  0  0  0  0  0  0
   22.5097  -19.7152  -15.8618 C   0  0  0  0  0  0  0  0  0  0  0  0
   21.5635  -20.5346  -15.0146 C   0  0  1  0  0  0  0  0  0  0  0  0
   21.5225  -21.8619  -15.4613 O   0  0  0  0  0  0  0  0  0  0  0  0
   21.9787  -20.5662  -13.5614 C   0  0  2  0  0  0  0  0  0  0  0  0
   23.2280  -21.2572  -13.3610 N   0  0  0  0  0  0  0  0  0  0  0  0
   20.8902  -21.1601  -12.7366 C   0  0  0  0  0  0  0  0  0  0  0  0
   19.6694  -20.5491  -12.5640 O   0  0  0  0  0  0  0  0  0  0  0  0
   21.1107  -22.2640  -12.1827 O   0  0  0  0  0  0  0  0  0  0  0  0
  2  1  1  0
  2  3  2  0
  4  2  1  0
  5  4  1  0
  5  7  1  0
  5  6  1  6
  7  8  2  0
 10  9  1  0
 10 12  1  0
 11 10  2  0
 13 12  1  0
 14 13  1  1
 15 14  1  0
 15  7  1  0
 16 14  1  0
 16 17  2  0
 19 18  1  6
 19 21  1  0
 20 19  1  0
 21 22  1  6
 21 23  1  0
 22 16  1  0
 23 24  1  0
 25 23  2  0
M  END
$$$$
