NQT.pdb
     RDKit          3D

 25 24  0  0  1  0  0  0  0  0999 V2000
   15.6112  -14.2833  -16.1806 N   0  0  0  0  0  0  0  0  0  0  0  0
   16.5951  -13.3790  -15.7612 C   0  0  0  0  0  0  0  0  0  0  0  0
   17.5478  -13.6939  -15.0014 O   0  0  0  0  0  0  0  0  0  0  0  0
   16.5362  -11.9591  -16.2244 C   0  0  0  0  0  0  0  0  0  0  0  0
   17.1700  -11.0941  -15.1491 C   0  0  2  0  0  0  0  0  0  0  0  0
   16.4609  -11.1646  -13.9119 N   0  0  0  0  0  0  0  0  0  0  0  0
   17.4169   -9.7216  -15.6187 C   0  0  0  0  0  0  0  0  0  0  0  0
   17.9665   -9.6011  -16.7580 O   0  0  0  0  0  0  0  0  0  0  0  0
   13.7157   -5.0345  -14.4772 N   0  0  0  0  0  0  0  0  0  0  0  0
   13.7529   -5.9807  -15.5372 C   0  0  0  0  0  0  0  0  0  0  0  0
   12.6821   -6.2159  -16.1479 O   0  0  0  0  0  0  0  0  0  0  0  0
   14.9679   -6.6910  -15.9520 C   0  0  0  0  0  0  0  0  0  0  0  0
   16.2105   -6.3072  -15.2376 C   0  0  0  0  0  0  0  0  0  0  0  0
   17.3609   -7.2760  -15.3902 C   0  0  2  0  0  0  0  0  0  0  0  0
   17.0688   -8.5717  -14.8576 N   0  0  0  0  0  0  0  0  0  0  0  0
   18.4903   -6.6693  -14.6108 C   0  0  0  0  0  0  0  0  0  0  0  0
   18.4652   -6.8208  -13.3600 O   0  0  0  0  0  0  0  0  0  0  0  0
   23.0598   -5.3147  -13.9894 C   0  0  0  0  0  0  0  0  0  0  0  0
   21.9322   -6.0346  -14.6926 C   0  0  1  0  0  0  0  0  0  0  0  0
   21.8601   -7.3696  -14.2738 O   0  0  0  0  0  0  0  0  0  0  0  0
   20.5872   -5.4054  -14.4091 C   0  0  2  0  0  0  0  0  0  0  0  0
   19.5367   -5.9615  -15.2248 N   0  0  0  0  0  0  0  0  0  0  0  0
   20.6758   -3.9274  -14.5695 C   0  0  0  0  0  0  0  0  0  0  0  0
   19.9872   -3.2419  -15.5437 O   0  0  0  0  0  0  0  0  0  0  0  0
   21.4130   -3.2952  -13.7753 O   0  0  0  0  0  0  0  0  0  0  0  0
  2  1  1  0
  2  3  2  0
  4  2  1  0
  5  4  1  0
  5  7  1  0
  5  6  1  1
  7  8  2  0
 10  9  1  0
 10 12  1  0
 11 10  2  0
 13 12  1  0
 14 13  1  1
 15 14  1  0
 15  7  1  0
 16 14  1  0
 16 17  2  0
 19 18  1  1
 19 21  1  0
 20 19  1  0
 21 22  1  6
 21 23  1  0
 22 16  1  0
 23 24  1  0
 25 23  2  0
M  END
$$$$
