NQT.pdb
     RDKit          3D

 25 24  0  0  1  0  0  0  0  0999 V2000
   14.4664   -5.9234   -7.4949 N   0  0  0  0  0  0  0  0  0  0  0  0
   14.7311   -6.1589   -8.8499 C   0  0  0  0  0  0  0  0  0  0  0  0
   13.8906   -5.9603   -9.7654 O   0  0  0  0  0  0  0  0  0  0  0  0
   16.0735   -6.6728   -9.2598 C   0  0  0  0  0  0  0  0  0  0  0  0
   15.8540   -7.8736  -10.1634 C   0  0  2  0  0  0  0  0  0  0  0  0
   15.3854   -9.0133   -9.4425 N   0  0  0  0  0  0  0  0  0  0  0  0
   17.0229   -8.1447  -11.0152 C   0  0  0  0  0  0  0  0  0  0  0  0
   18.0762   -8.5411  -10.4253 O   0  0  0  0  0  0  0  0  0  0  0  0
   16.0554  -10.7897  -16.0163 N   0  0  0  0  0  0  0  0  0  0  0  0
   16.7812  -11.3832  -14.9481 C   0  0  0  0  0  0  0  0  0  0  0  0
   16.6016  -12.6056  -14.7281 O   0  0  0  0  0  0  0  0  0  0  0  0
   17.7223  -10.6476  -14.0959 C   0  0  0  0  0  0  0  0  0  0  0  0
   17.8466   -9.1968  -14.3812 C   0  0  0  0  0  0  0  0  0  0  0  0
   18.1662   -8.3343  -13.1815 C   0  0  2  0  0  0  0  0  0  0  0  0
   17.0026   -7.9801  -12.4277 N   0  0  0  0  0  0  0  0  0  0  0  0
   18.7814   -7.0884  -13.7473 C   0  0  0  0  0  0  0  0  0  0  0  0
   17.9897   -6.2027  -14.1681 O   0  0  0  0  0  0  0  0  0  0  0  0
   20.5669   -4.2767  -12.2440 C   0  0  0  0  0  0  0  0  0  0  0  0
   21.4650   -4.8737  -13.3029 C   0  0  1  0  0  0  0  0  0  0  0  0
   22.3900   -5.7550  -12.7278 O   0  0  0  0  0  0  0  0  0  0  0  0
   20.6880   -5.6558  -14.3372 C   0  0  2  0  0  0  0  0  0  0  0  0
   20.1711   -6.8962  -13.8151 N   0  0  0  0  0  0  0  0  0  0  0  0
   21.5344   -5.8831  -15.5413 C   0  0  0  0  0  0  0  0  0  0  0  0
   22.0039   -4.8549  -16.3258 O   0  0  0  0  0  0  0  0  0  0  0  0
   21.8228   -7.0671  -15.8395 O   0  0  0  0  0  0  0  0  0  0  0  0
  2  1  1  0
  2  3  2  0
  4  2  1  0
  5  4  1  0
  5  7  1  0
  5  6  1  1
  7  8  2  0
 10  9  1  0
 10 12  1  0
 11 10  2  0
 13 12  1  0
 14 13  1  6
 15 14  1  0
 15  7  1  0
 16 14  1  0
 16 17  2  0
 19 18  1  1
 19 21  1  0
 20 19  1  0
 21 22  1  1
 21 23  1  0
 22 16  1  0
 23 24  1  0
 25 23  2  0
M  END
$$$$
