NQT.pdb
     RDKit          3D

 25 24  0  0  1  0  0  0  0  0999 V2000
   21.8028  -13.6368  -18.5430 N   0  0  0  0  0  0  0  0  0  0  0  0
   22.2686  -12.4802  -19.1809 C   0  0  0  0  0  0  0  0  0  0  0  0
   23.2486  -12.4705  -19.9705 O   0  0  0  0  0  0  0  0  0  0  0  0
   21.5854  -11.1746  -18.9299 C   0  0  0  0  0  0  0  0  0  0  0  0
   20.4419  -11.4281  -17.9631 C   0  0  2  0  0  0  0  0  0  0  0  0
   19.3543  -12.1157  -18.5817 N   0  0  0  0  0  0  0  0  0  0  0  0
   20.0453  -10.2069  -17.2444 C   0  0  0  0  0  0  0  0  0  0  0  0
   19.3870   -9.3457  -17.9075 O   0  0  0  0  0  0  0  0  0  0  0  0
   17.7377  -10.0231  -11.5487 N   0  0  0  0  0  0  0  0  0  0  0  0
   17.1206  -10.1073  -12.8263 C   0  0  0  0  0  0  0  0  0  0  0  0
   15.9573  -10.5747  -12.8833 O   0  0  0  0  0  0  0  0  0  0  0  0
   17.7669   -9.6797  -14.0722 C   0  0  0  0  0  0  0  0  0  0  0  0
   19.1414   -9.1393  -13.9289 C   0  0  0  0  0  0  0  0  0  0  0  0
   19.8400   -8.8157  -15.2298 C   0  0  2  0  0  0  0  0  0  0  0  0
   20.3687   -9.9764  -15.8787 N   0  0  0  0  0  0  0  0  0  0  0  0
   20.9727   -7.9076  -14.8511 C   0  0  0  0  0  0  0  0  0  0  0  0
   22.0029   -8.4518  -14.3709 O   0  0  0  0  0  0  0  0  0  0  0  0
   23.1127   -5.5513  -16.8789 C   0  0  0  0  0  0  0  0  0  0  0  0
   22.5060   -4.7884  -15.7238 C   0  0  1  0  0  0  0  0  0  0  0  0
   21.3945   -4.0489  -16.1486 O   0  0  0  0  0  0  0  0  0  0  0  0
   22.0353   -5.7049  -14.6176 C   0  0  2  0  0  0  0  0  0  0  0  0
   20.9101   -6.5140  -15.0149 N   0  0  0  0  0  0  0  0  0  0  0  0
   21.7289   -4.9091  -13.3967 C   0  0  0  0  0  0  0  0  0  0  0  0
   22.6851   -4.1885  -12.7186 O   0  0  0  0  0  0  0  0  0  0  0  0
   20.5449   -4.9055  -12.9817 O   0  0  0  0  0  0  0  0  0  0  0  0
  2  1  1  0
  2  3  2  0
  4  2  1  0
  5  4  1  0
  5  7  1  0
  5  6  1  6
  7  8  2  0
 10  9  1  0
 10 12  1  0
 11 10  2  0
 13 12  1  0
 14 13  1  1
 15 14  1  0
 15  7  1  0
 16 14  1  0
 16 17  2  0
 19 18  1  6
 19 21  1  0
 20 19  1  0
 21 22  1  6
 21 23  1  0
 22 16  1  0
 23 24  1  0
 25 23  2  0
M  END
$$$$
