NQT.pdb
     RDKit          3D

 25 24  0  0  1  0  0  0  0  0999 V2000
   16.3467  -12.8397  -15.0886 N   0  0  0  0  0  0  0  0  0  0  0  0
   15.1984  -12.0435  -15.1844 C   0  0  0  0  0  0  0  0  0  0  0  0
   14.1205  -12.4400  -15.6991 O   0  0  0  0  0  0  0  0  0  0  0  0
   15.2250  -10.6456  -14.6558 C   0  0  0  0  0  0  0  0  0  0  0  0
   16.2437  -10.5949  -13.5306 C   0  0  2  0  0  0  0  0  0  0  0  0
   15.8765  -11.4292  -12.4318 N   0  0  0  0  0  0  0  0  0  0  0  0
   16.5748   -9.2133  -13.1471 C   0  0  0  0  0  0  0  0  0  0  0  0
   16.5857   -8.3516  -14.0809 O   0  0  0  0  0  0  0  0  0  0  0  0
   15.7230   -6.1800   -7.5482 N   0  0  0  0  0  0  0  0  0  0  0  0
   14.8338   -6.6801   -8.5380 C   0  0  0  0  0  0  0  0  0  0  0  0
   13.6180   -6.7688   -8.2397 O   0  0  0  0  0  0  0  0  0  0  0  0
   15.2593   -7.0946   -9.8796 C   0  0  0  0  0  0  0  0  0  0  0  0
   16.7214   -7.0550  -10.1295 C   0  0  0  0  0  0  0  0  0  0  0  0
   17.1428   -7.4586  -11.5240 C   0  0  2  0  0  0  0  0  0  0  0  0
   16.8712   -8.8345  -11.8087 N   0  0  0  0  0  0  0  0  0  0  0  0
   18.6255   -7.2331  -11.5661 C   0  0  0  0  0  0  0  0  0  0  0  0
   19.3050   -7.7371  -10.6322 O   0  0  0  0  0  0  0  0  0  0  0  0
   21.3418   -8.6883  -13.1078 C   0  0  0  0  0  0  0  0  0  0  0  0
   21.3848   -7.2414  -13.5426 C   0  0  1  0  0  0  0  0  0  0  0  0
   20.7573   -7.0791  -14.7846 O   0  0  0  0  0  0  0  0  0  0  0  0
   20.6801   -6.3293  -12.5646 C   0  0  2  0  0  0  0  0  0  0  0  0
   19.2486   -6.4982  -12.5881 N   0  0  0  0  0  0  0  0  0  0  0  0
   21.0652   -4.9143  -12.8241 C   0  0  0  0  0  0  0  0  0  0  0  0
   22.3661   -4.4719  -12.7523 O   0  0  0  0  0  0  0  0  0  0  0  0
   20.1541   -4.1040  -13.1196 O   0  0  0  0  0  0  0  0  0  0  0  0
  2  1  1  0
  2  3  2  0
  4  2  1  0
  5  4  1  0
  5  7  1  0
  5  6  1  1
  7  8  2  0
 10  9  1  0
 10 12  1  0
 11 10  2  0
 13 12  1  0
 14 13  1  1
 15 14  1  0
 15  7  1  0
 16 14  1  0
 16 17  2  0
 19 18  1  1
 19 21  1  0
 20 19  1  0
 21 22  1  6
 21 23  1  0
 22 16  1  0
 23 24  1  0
 25 23  2  0
M  END
$$$$
