GWL.pdb
     RDKit          3D

 27 28  0  0  1  0  0  0  0  0999 V2000
   28.2993  -21.1475  -16.1025 N   0  0  0  0  0  0  0  0  0  0  0  0
   27.7640  -21.9737  -15.0524 C   0  0  0  0  0  0  0  0  0  0  0  0
   26.9913  -21.1104  -14.1009 C   0  0  0  0  0  0  0  0  0  0  0  0
   26.9715  -19.8605  -14.2522 O   0  0  0  0  0  0  0  0  0  0  0  0
   26.3018  -21.7666  -13.0476 N   0  0  0  0  0  0  0  0  0  0  0  0
   25.5220  -20.9845  -12.1113 C   0  0  1  0  0  0  0  0  0  0  0  0
   24.0773  -21.4468  -12.1419 C   0  0  0  0  0  0  0  0  0  0  0  0
   23.4403  -21.2860  -13.4501 C   0  0  0  0  0  0  0  0  0  0  0  0
   23.3127  -22.2364  -14.4342 C   0  0  0  0  0  0  0  0  0  0  0  0
   22.6656  -21.6811  -15.4815 N   0  0  0  0  0  0  0  0  0  0  0  0
   22.3725  -20.3852  -15.1896 C   0  0  0  0  0  0  0  0  0  0  0  0
   21.7267  -19.4164  -15.9285 C   0  0  0  0  0  0  0  0  0  0  0  0
   21.5469  -18.1595  -15.4081 C   0  0  0  0  0  0  0  0  0  0  0  0
   22.0187  -17.8874  -14.1477 C   0  0  0  0  0  0  0  0  0  0  0  0
   22.6577  -18.8541  -13.4226 C   0  0  0  0  0  0  0  0  0  0  0  0
   22.8548  -20.1300  -13.9182 C   0  0  0  0  0  0  0  0  0  0  0  0
   26.0142  -21.2887  -10.7359 C   0  0  0  0  0  0  0  0  0  0  0  0
   26.3063  -22.4619  -10.4308 O   0  0  0  0  0  0  0  0  0  0  0  0
   27.8823  -18.1191   -5.7719 C   0  0  0  0  0  0  0  0  0  0  0  0
   27.7889  -19.5004   -6.4161 C   0  0  2  0  0  0  0  0  0  0  0  0
   28.9766  -20.2960   -6.0730 C   0  0  0  0  0  0  0  0  0  0  0  0
   27.2902  -19.4711   -7.7947 C   0  0  0  0  0  0  0  0  0  0  0  0
   26.5873  -20.6461   -8.3604 C   0  0  2  0  0  0  0  0  0  0  0  0
   26.1717  -20.3121   -9.7407 N   0  0  0  0  0  0  0  0  0  0  0  0
   25.3687  -21.0926   -7.6649 C   0  0  0  0  0  0  0  0  0  0  0  0
   24.2480  -20.5931   -8.0430 O   0  0  0  0  0  0  0  0  0  0  0  0
   25.3299  -22.0190   -6.6277 O   0  0  0  0  0  0  0  0  0  0  0  0
  1  2  1  0
  2  3  1  0
  3  4  2  0
  5  6  1  0
  5  3  1  0
  6 17  1  0
  7  8  1  0
  6  7  1  1
  8 16  1  0
  9 10  1  0
  9  8  2  0
 10 11  1  0
 11 16  2  0
 11 12  1  0
 12 13  2  0
 13 14  1  0
 15 14  2  0
 16 15  1  0
 17 24  1  0
 17 18  2  0
 20 19  1  6
 20 21  1  0
 22 20  1  0
 23 22  1  1
 23 25  1  0
 24 23  1  0
 25 26  2  0
 25 27  1  0
M  END
$$$$
