GWL.pdb
     RDKit          3D

 27 28  0  0  1  0  0  0  0  0999 V2000
   21.8103  -20.5918  -10.4630 N   0  0  0  0  0  0  0  0  0  0  0  0
   22.9070  -21.2617   -9.8146 C   0  0  0  0  0  0  0  0  0  0  0  0
   24.1921  -20.6253  -10.2519 C   0  0  0  0  0  0  0  0  0  0  0  0
   24.1772  -19.6433  -11.0401 O   0  0  0  0  0  0  0  0  0  0  0  0
   25.3945  -21.1795   -9.7396 N   0  0  0  0  0  0  0  0  0  0  0  0
   26.6674  -20.7047  -10.2405 C   0  0  1  0  0  0  0  0  0  0  0  0
   27.7431  -20.9355   -9.1958 C   0  0  0  0  0  0  0  0  0  0  0  0
   27.5616  -20.1345   -7.9840 C   0  0  0  0  0  0  0  0  0  0  0  0
   26.6497  -19.1263   -7.7837 C   0  0  0  0  0  0  0  0  0  0  0  0
   26.8144  -18.6453   -6.5325 N   0  0  0  0  0  0  0  0  0  0  0  0
   27.8195  -19.3274   -5.9201 C   0  0  0  0  0  0  0  0  0  0  0  0
   28.3534  -19.2065   -4.6543 C   0  0  0  0  0  0  0  0  0  0  0  0
   29.3815  -20.0250   -4.2598 C   0  0  0  0  0  0  0  0  0  0  0  0
   29.8646  -20.9592   -5.1425 C   0  0  0  0  0  0  0  0  0  0  0  0
   29.3292  -21.0719   -6.3952 C   0  0  0  0  0  0  0  0  0  0  0  0
   28.2929  -20.2624   -6.8233 C   0  0  0  0  0  0  0  0  0  0  0  0
   27.0484  -21.5537  -11.4068 C   0  0  0  0  0  0  0  0  0  0  0  0
   27.1840  -22.7841  -11.2559 O   0  0  0  0  0  0  0  0  0  0  0  0
   23.0867  -22.8664  -14.4238 C   0  0  0  0  0  0  0  0  0  0  0  0
   24.5969  -22.8472  -14.6490 C   0  0  2  0  0  0  0  0  0  0  0  0
   25.0886  -24.2140  -14.8752 C   0  0  0  0  0  0  0  0  0  0  0  0
   25.3126  -21.9433  -13.7430 C   0  0  0  0  0  0  0  0  0  0  0  0
   26.7659  -21.7113  -13.9128 C   0  0  2  0  0  0  0  0  0  0  0  0
   27.2694  -21.0403  -12.6939 N   0  0  0  0  0  0  0  0  0  0  0  0
   27.1782  -20.8640  -15.0442 C   0  0  0  0  0  0  0  0  0  0  0  0
   27.8585  -21.4127  -15.9847 O   0  0  0  0  0  0  0  0  0  0  0  0
   26.8875  -19.5105  -15.1813 O   0  0  0  0  0  0  0  0  0  0  0  0
  1  2  1  0
  2  3  1  0
  3  4  2  0
  5  6  1  0
  5  3  1  0
  6 17  1  0
  7  8  1  0
  6  7  1  1
  8 16  1  0
  9 10  1  0
  9  8  2  0
 10 11  1  0
 11 16  2  0
 11 12  1  0
 12 13  2  0
 13 14  1  0
 15 14  2  0
 16 15  1  0
 17 24  1  0
 17 18  2  0
 20 19  1  1
 20 21  1  0
 22 20  1  0
 23 22  1  1
 23 25  1  0
 24 23  1  0
 25 26  2  0
 25 27  1  0
M  END
$$$$
