GWL.pdb
     RDKit          3D

 27 28  0  0  1  0  0  0  0  0999 V2000
   28.2906  -22.4414  -15.5137 N   0  0  0  0  0  0  0  0  0  0  0  0
   28.6252  -21.4493  -14.5260 C   0  0  0  0  0  0  0  0  0  0  0  0
   27.7568  -21.6512  -13.3207 C   0  0  0  0  0  0  0  0  0  0  0  0
   26.7161  -22.3558  -13.4000 O   0  0  0  0  0  0  0  0  0  0  0  0
   28.1650  -21.0186  -12.1170 N   0  0  0  0  0  0  0  0  0  0  0  0
   27.3325  -21.1282  -10.9375 C   0  0  1  0  0  0  0  0  0  0  0  0
   28.0133  -20.4407   -9.7689 C   0  0  0  0  0  0  0  0  0  0  0  0
   27.2103  -20.4374   -8.5448 C   0  0  0  0  0  0  0  0  0  0  0  0
   25.8559  -20.6440   -8.4396 C   0  0  0  0  0  0  0  0  0  0  0  0
   25.5115  -20.5559   -7.1367 N   0  0  0  0  0  0  0  0  0  0  0  0
   26.6232  -20.2953   -6.3972 C   0  0  0  0  0  0  0  0  0  0  0  0
   26.7843  -20.1206   -5.0387 C   0  0  0  0  0  0  0  0  0  0  0  0
   28.0286  -19.8640   -4.5205 C   0  0  0  0  0  0  0  0  0  0  0  0
   29.1015  -19.7853   -5.3738 C   0  0  0  0  0  0  0  0  0  0  0  0
   28.9323  -19.9599   -6.7188 C   0  0  0  0  0  0  0  0  0  0  0  0
   27.6919  -20.2196   -7.2725 C   0  0  0  0  0  0  0  0  0  0  0  0
   26.0796  -20.3567  -11.1854 C   0  0  0  0  0  0  0  0  0  0  0  0
   26.1490  -19.1523  -11.5008 O   0  0  0  0  0  0  0  0  0  0  0  0
   21.5421  -20.2763  -13.9466 C   0  0  0  0  0  0  0  0  0  0  0  0
   22.9614  -19.7667  -14.1867 C   0  0  2  0  0  0  0  0  0  0  0  0
   23.2551  -19.7579  -15.6271 C   0  0  0  0  0  0  0  0  0  0  0  0
   23.9425  -20.2962  -13.2342 C   0  0  0  0  0  0  0  0  0  0  0  0
   23.6257  -20.3513  -11.7880 C   0  0  2  0  0  0  0  0  0  0  0  0
   24.7971  -20.9168  -11.0825 N   0  0  0  0  0  0  0  0  0  0  0  0
   22.4728  -21.1757  -11.3889 C   0  0  0  0  0  0  0  0  0  0  0  0
   22.6223  -22.4509  -11.3870 O   0  0  0  0  0  0  0  0  0  0  0  0
   21.2281  -20.6847  -11.0082 O   0  0  0  0  0  0  0  0  0  0  0  0
  1  2  1  0
  2  3  1  0
  3  4  2  0
  5  6  1  0
  5  3  1  0
  6 17  1  0
  7  8  1  0
  6  7  1  1
  8 16  1  0
  9 10  1  0
  9  8  2  0
 10 11  1  0
 11 16  2  0
 11 12  1  0
 12 13  2  0
 13 14  1  0
 15 14  2  0
 16 15  1  0
 17 24  1  0
 17 18  2  0
 20 19  1  6
 20 21  1  0
 22 20  1  0
 23 22  1  6
 23 25  1  0
 24 23  1  0
 25 26  2  0
 25 27  1  0
M  END
$$$$
