GWL.pdb
     RDKit          3D

 27 28  0  0  1  0  0  0  0  0999 V2000
   26.9111  -24.5739  -16.1760 N   0  0  0  0  0  0  0  0  0  0  0  0
   26.8998  -23.1552  -15.9333 C   0  0  0  0  0  0  0  0  0  0  0  0
   26.0601  -22.8758  -14.7231 C   0  0  0  0  0  0  0  0  0  0  0  0
   25.2807  -23.7575  -14.2751 O   0  0  0  0  0  0  0  0  0  0  0  0
   26.1912  -21.5936  -14.1278 N   0  0  0  0  0  0  0  0  0  0  0  0
   25.3594  -21.2465  -12.9946 C   0  0  1  0  0  0  0  0  0  0  0  0
   25.9344  -20.0287  -12.2959 C   0  0  0  0  0  0  0  0  0  0  0  0
   26.4044  -20.3029  -10.9368 C   0  0  0  0  0  0  0  0  0  0  0  0
   25.6782  -20.2160   -9.7736 C   0  0  0  0  0  0  0  0  0  0  0  0
   26.4840  -20.5495   -8.7424 N   0  0  0  0  0  0  0  0  0  0  0  0
   27.7211  -20.8510   -9.2212 C   0  0  0  0  0  0  0  0  0  0  0  0
   28.8712  -21.2441   -8.5696 C   0  0  0  0  0  0  0  0  0  0  0  0
   30.0152  -21.4960   -9.2840 C   0  0  0  0  0  0  0  0  0  0  0  0
   29.9929  -21.3504  -10.6492 C   0  0  0  0  0  0  0  0  0  0  0  0
   28.8484  -20.9604  -11.2865 C   0  0  0  0  0  0  0  0  0  0  0  0
   27.6793  -20.6988  -10.5957 C   0  0  0  0  0  0  0  0  0  0  0  0
   24.0270  -20.8218  -13.5149 C   0  0  0  0  0  0  0  0  0  0  0  0
   23.9507  -20.2463  -14.6185 O   0  0  0  0  0  0  0  0  0  0  0  0
   20.5238  -23.7471  -16.1366 C   0  0  0  0  0  0  0  0  0  0  0  0
   20.5134  -22.3854  -15.4456 C   0  0  2  0  0  0  0  0  0  0  0  0
   20.4742  -21.3126  -16.4499 C   0  0  0  0  0  0  0  0  0  0  0  0
   21.4326  -22.3000  -14.3063 C   0  0  0  0  0  0  0  0  0  0  0  0
   21.5115  -21.0589  -13.5010 C   0  0  2  0  0  0  0  0  0  0  0  0
   22.8258  -21.0350  -12.8217 N   0  0  0  0  0  0  0  0  0  0  0  0
   20.5026  -20.8857  -12.4426 C   0  0  0  0  0  0  0  0  0  0  0  0
   19.4842  -20.1485  -12.7030 O   0  0  0  0  0  0  0  0  0  0  0  0
   20.5598  -21.4604  -11.1770 O   0  0  0  0  0  0  0  0  0  0  0  0
  1  2  1  0
  2  3  1  0
  3  4  2  0
  5  6  1  0
  5  3  1  0
  6 17  1  0
  7  8  1  0
  6  7  1  6
  8 16  1  0
  9 10  1  0
  9  8  2  0
 10 11  1  0
 11 16  2  0
 11 12  1  0
 12 13  2  0
 13 14  1  0
 15 14  2  0
 16 15  1  0
 17 24  1  0
 17 18  2  0
 20 19  1  6
 20 21  1  0
 22 20  1  0
 23 22  1  1
 23 25  1  0
 24 23  1  0
 25 26  2  0
 25 27  1  0
M  END
$$$$
