GWL.pdb
     RDKit          3D

 27 28  0  0  1  0  0  0  0  0999 V2000
   27.6244  -22.5808  -16.4359 N   0  0  0  0  0  0  0  0  0  0  0  0
   27.9924  -21.5630  -15.4870 C   0  0  0  0  0  0  0  0  0  0  0  0
   27.1413  -21.7104  -14.2616 C   0  0  0  0  0  0  0  0  0  0  0  0
   26.1218  -22.4492  -14.2830 O   0  0  0  0  0  0  0  0  0  0  0  0
   27.5410  -20.9878  -13.1068 N   0  0  0  0  0  0  0  0  0  0  0  0
   26.7606  -21.0987  -11.8922 C   0  0  1  0  0  0  0  0  0  0  0  0
   27.5030  -20.4336  -10.7483 C   0  0  0  0  0  0  0  0  0  0  0  0
   26.7566  -20.4344   -9.4889 C   0  0  0  0  0  0  0  0  0  0  0  0
   25.4535  -20.8256   -9.2961 C   0  0  0  0  0  0  0  0  0  0  0  0
   25.1505  -20.6687   -7.9894 N   0  0  0  0  0  0  0  0  0  0  0  0
   26.2384  -20.1819   -7.3337 C   0  0  0  0  0  0  0  0  0  0  0  0
   26.4241  -19.8609   -6.0054 C   0  0  0  0  0  0  0  0  0  0  0  0
   27.6350  -19.3789   -5.5764 C   0  0  0  0  0  0  0  0  0  0  0  0
   28.6502  -19.2238   -6.4879 C   0  0  0  0  0  0  0  0  0  0  0  0
   28.4570  -19.5446   -7.8025 C   0  0  0  0  0  0  0  0  0  0  0  0
   27.2491  -20.0323   -8.2666 C   0  0  0  0  0  0  0  0  0  0  0  0
   25.5091  -20.3072  -12.0756 C   0  0  0  0  0  0  0  0  0  0  0  0
   25.5795  -19.1202  -12.4510 O   0  0  0  0  0  0  0  0  0  0  0  0
   22.8737  -18.5403  -14.9368 C   0  0  0  0  0  0  0  0  0  0  0  0
   23.3601  -19.9866  -14.9965 C   0  0  2  0  0  0  0  0  0  0  0  0
   23.2343  -20.5027  -16.3673 C   0  0  0  0  0  0  0  0  0  0  0  0
   22.9232  -20.7988  -13.8566 C   0  0  0  0  0  0  0  0  0  0  0  0
   23.0151  -20.2631  -12.4783 C   0  0  2  0  0  0  0  0  0  0  0  0
   24.2270  -20.8290  -11.8455 N   0  0  0  0  0  0  0  0  0  0  0  0
   21.8992  -20.5698  -11.5680 C   0  0  0  0  0  0  0  0  0  0  0  0
   20.9611  -19.7000  -11.4586 O   0  0  0  0  0  0  0  0  0  0  0  0
   21.7742  -21.7323  -10.8141 O   0  0  0  0  0  0  0  0  0  0  0  0
  1  2  1  0
  2  3  1  0
  3  4  2  0
  5  6  1  0
  5  3  1  0
  6 17  1  0
  7  8  1  0
  6  7  1  1
  8 16  1  0
  9 10  1  0
  9  8  2  0
 10 11  1  0
 11 16  2  0
 11 12  1  0
 12 13  2  0
 13 14  1  0
 15 14  2  0
 16 15  1  0
 17 24  1  0
 17 18  2  0
 20 19  1  6
 20 21  1  0
 22 20  1  0
 23 22  1  6
 23 25  1  0
 24 23  1  0
 25 26  2  0
 25 27  1  0
M  END
$$$$
