GWL.pdb
     RDKit          3D

 27 28  0  0  1  0  0  0  0  0999 V2000
   28.2973  -23.1229  -17.3646 N   0  0  0  0  0  0  0  0  0  0  0  0
   28.0739  -21.8513  -16.7282 C   0  0  0  0  0  0  0  0  0  0  0  0
   27.4018  -22.0801  -15.4077 C   0  0  0  0  0  0  0  0  0  0  0  0
   26.8929  -23.2007  -15.1411 O   0  0  0  0  0  0  0  0  0  0  0  0
   27.3731  -20.9890  -14.4998 N   0  0  0  0  0  0  0  0  0  0  0  0
   26.7201  -21.1472  -13.2172 C   0  0  1  0  0  0  0  0  0  0  0  0
   27.2728  -20.1301  -12.2364 C   0  0  0  0  0  0  0  0  0  0  0  0
   26.6863  -20.2303  -10.8988 C   0  0  0  0  0  0  0  0  0  0  0  0
   25.3540  -20.1645  -10.5691 C   0  0  0  0  0  0  0  0  0  0  0  0
   25.2394  -20.2984   -9.2301 N   0  0  0  0  0  0  0  0  0  0  0  0
   26.4779  -20.4500   -8.6884 C   0  0  0  0  0  0  0  0  0  0  0  0
   26.8770  -20.6205   -7.3794 C   0  0  0  0  0  0  0  0  0  0  0  0
   28.2088  -20.7544   -7.0777 C   0  0  0  0  0  0  0  0  0  0  0  0
   29.1290  -20.7158   -8.0961 C   0  0  0  0  0  0  0  0  0  0  0  0
   28.7242  -20.5465   -9.3906 C   0  0  0  0  0  0  0  0  0  0  0  0
   27.3901  -20.4084   -9.7278 C   0  0  0  0  0  0  0  0  0  0  0  0
   25.2790  -20.8008  -13.3888 C   0  0  0  0  0  0  0  0  0  0  0  0
   24.9639  -19.7031  -13.8893 O   0  0  0  0  0  0  0  0  0  0  0  0
   20.8619  -24.2855  -15.3694 C   0  0  0  0  0  0  0  0  0  0  0  0
   21.1522  -22.8837  -14.8382 C   0  0  2  0  0  0  0  0  0  0  0  0
   20.7173  -21.8758  -15.8160 C   0  0  0  0  0  0  0  0  0  0  0  0
   22.4589  -22.7647  -14.1834 C   0  0  0  0  0  0  0  0  0  0  0  0
   22.8538  -21.4959  -13.5282 C   0  0  2  0  0  0  0  0  0  0  0  0
   24.2313  -21.6549  -13.0121 N   0  0  0  0  0  0  0  0  0  0  0  0
   22.0386  -21.0543  -12.3843 C   0  0  0  0  0  0  0  0  0  0  0  0
   21.2318  -20.0727  -12.5691 O   0  0  0  0  0  0  0  0  0  0  0  0
   22.0675  -21.6178  -11.1127 O   0  0  0  0  0  0  0  0  0  0  0  0
  1  2  1  0
  2  3  1  0
  3  4  2  0
  5  6  1  0
  5  3  1  0
  6 17  1  0
  7  8  1  0
  6  7  1  1
  8 16  1  0
  9 10  1  0
  9  8  2  0
 10 11  1  0
 11 16  2  0
 11 12  1  0
 12 13  2  0
 13 14  1  0
 15 14  2  0
 16 15  1  0
 17 24  1  0
 17 18  2  0
 20 19  1  6
 20 21  1  0
 22 20  1  0
 23 22  1  1
 23 25  1  0
 24 23  1  0
 25 26  2  0
 25 27  1  0
M  END
$$$$
