GWL.pdb
     RDKit          3D

 27 28  0  0  1  0  0  0  0  0999 V2000
   28.0385  -22.2484  -15.3307 N   0  0  0  0  0  0  0  0  0  0  0  0
   28.0771  -21.0950  -14.4704 C   0  0  0  0  0  0  0  0  0  0  0  0
   27.3146  -21.3987  -13.2158 C   0  0  0  0  0  0  0  0  0  0  0  0
   26.3947  -22.2585  -13.2256 O   0  0  0  0  0  0  0  0  0  0  0  0
   27.6803  -20.6797  -12.0476 N   0  0  0  0  0  0  0  0  0  0  0  0
   26.9095  -20.8534  -10.8343 C   0  0  1  0  0  0  0  0  0  0  0  0
   27.5870  -20.1201   -9.6919 C   0  0  0  0  0  0  0  0  0  0  0  0
   26.9669  -20.3682   -8.3893 C   0  0  0  0  0  0  0  0  0  0  0  0
   25.7436  -20.9458   -8.1484 C   0  0  0  0  0  0  0  0  0  0  0  0
   25.5474  -20.9867   -6.8128 N   0  0  0  0  0  0  0  0  0  0  0  0
   26.6257  -20.4441   -6.1858 C   0  0  0  0  0  0  0  0  0  0  0  0
   26.8949  -20.2624   -4.8455 C   0  0  0  0  0  0  0  0  0  0  0  0
   28.0744  -19.6815   -4.4528 C   0  0  0  0  0  0  0  0  0  0  0  0
   28.9742  -19.2880   -5.4124 C   0  0  0  0  0  0  0  0  0  0  0  0
   28.6989  -19.4722   -6.7386 C   0  0  0  0  0  0  0  0  0  0  0  0
   27.5198  -20.0541   -7.1670 C   0  0  0  0  0  0  0  0  0  0  0  0
   25.5934  -20.1765  -11.0244 C   0  0  0  0  0  0  0  0  0  0  0  0
   25.5588  -18.9575  -11.2847 O   0  0  0  0  0  0  0  0  0  0  0  0
   21.6030  -21.4408  -14.9066 C   0  0  0  0  0  0  0  0  0  0  0  0
   21.7684  -20.5697  -13.6633 C   0  0  2  0  0  0  0  0  0  0  0  0
   21.6278  -19.1509  -14.0215 C   0  0  0  0  0  0  0  0  0  0  0  0
   22.8565  -21.0068  -12.7828 C   0  0  0  0  0  0  0  0  0  0  0  0
   23.1164  -20.2985  -11.5077 C   0  0  2  0  0  0  0  0  0  0  0  0
   24.3628  -20.8434  -10.9255 N   0  0  0  0  0  0  0  0  0  0  0  0
   22.0906  -20.4171  -10.4580 C   0  0  0  0  0  0  0  0  0  0  0  0
   22.1113  -21.4663   -9.7183 O   0  0  0  0  0  0  0  0  0  0  0  0
   21.0966  -19.4794  -10.1973 O   0  0  0  0  0  0  0  0  0  0  0  0
  1  2  1  0
  2  3  1  0
  3  4  2  0
  5  6  1  0
  5  3  1  0
  6 17  1  0
  7  8  1  0
  6  7  1  1
  8 16  1  0
  9 10  1  0
  9  8  2  0
 10 11  1  0
 11 16  2  0
 11 12  1  0
 12 13  2  0
 13 14  1  0
 15 14  2  0
 16 15  1  0
 17 24  1  0
 17 18  2  0
 20 19  1  6
 20 21  1  0
 22 20  1  0
 23 22  1  6
 23 25  1  0
 24 23  1  0
 25 26  2  0
 25 27  1  0
M  END
$$$$
