GWL.pdb
     RDKit          3D

 27 28  0  0  1  0  0  0  0  0999 V2000
   28.9942  -21.1805  -14.3468 N   0  0  0  0  0  0  0  0  0  0  0  0
   28.4306  -20.1888  -13.4689 C   0  0  0  0  0  0  0  0  0  0  0  0
   27.3996  -20.8409  -12.5974 C   0  0  0  0  0  0  0  0  0  0  0  0
   26.8299  -21.8993  -12.9728 O   0  0  0  0  0  0  0  0  0  0  0  0
   27.1105  -20.2123  -11.3577 N   0  0  0  0  0  0  0  0  0  0  0  0
   26.0996  -20.7799  -10.4904 C   0  0  1  0  0  0  0  0  0  0  0  0
   26.2610  -20.2226   -9.0885 C   0  0  0  0  0  0  0  0  0  0  0  0
   27.5519  -20.5438   -8.4775 C   0  0  0  0  0  0  0  0  0  0  0  0
   28.5721  -21.2799   -9.0302 C   0  0  0  0  0  0  0  0  0  0  0  0
   29.5841  -21.3423   -8.1381 N   0  0  0  0  0  0  0  0  0  0  0  0
   29.2339  -20.6574   -7.0162 C   0  0  0  0  0  0  0  0  0  0  0  0
   29.9215  -20.4351   -5.8416 C   0  0  0  0  0  0  0  0  0  0  0  0
   29.3473  -19.6980   -4.8368 C   0  0  0  0  0  0  0  0  0  0  0  0
   28.0851  -19.1901   -5.0220 C   0  0  0  0  0  0  0  0  0  0  0  0
   27.4112  -19.4154   -6.1896 C   0  0  0  0  0  0  0  0  0  0  0  0
   27.9617  -20.1539   -7.2211 C   0  0  0  0  0  0  0  0  0  0  0  0
   24.7672  -20.3031  -10.9634 C   0  0  0  0  0  0  0  0  0  0  0  0
   24.5471  -19.0792  -11.0554 O   0  0  0  0  0  0  0  0  0  0  0  0
   23.1328  -19.6552  -14.8054 C   0  0  0  0  0  0  0  0  0  0  0  0
   23.1637  -21.1175  -14.3664 C   0  0  2  0  0  0  0  0  0  0  0  0
   23.1601  -21.9960  -15.5451 C   0  0  0  0  0  0  0  0  0  0  0  0
   22.2881  -21.4050  -13.2259 C   0  0  0  0  0  0  0  0  0  0  0  0
   22.4700  -20.6851  -11.9439 C   0  0  2  0  0  0  0  0  0  0  0  0
   23.7213  -21.1683  -11.3193 N   0  0  0  0  0  0  0  0  0  0  0  0
   21.4165  -20.8540  -10.9291 C   0  0  0  0  0  0  0  0  0  0  0  0
   20.2858  -20.2839  -11.1412 O   0  0  0  0  0  0  0  0  0  0  0  0
   21.5441  -21.5871   -9.7537 O   0  0  0  0  0  0  0  0  0  0  0  0
  1  2  1  0
  2  3  1  0
  3  4  2  0
  5  6  1  0
  5  3  1  0
  6 17  1  0
  7  8  1  0
  6  7  1  1
  8 16  1  0
  9 10  1  0
  9  8  2  0
 10 11  1  0
 11 16  2  0
 11 12  1  0
 12 13  2  0
 13 14  1  0
 15 14  2  0
 16 15  1  0
 17 24  1  0
 17 18  2  0
 20 19  1  6
 20 21  1  0
 22 20  1  0
 23 22  1  6
 23 25  1  0
 24 23  1  0
 25 26  2  0
 25 27  1  0
M  END
$$$$
