MEI.pdb
     RDKit          3D

 26 25  0  0  1  0  0  0  0  0999 V2000
   13.2528  -11.5293  -18.3482 C   0  0  0  0  0  0  0  0  0  0  0  0
   13.4534  -11.2560  -16.5612 S   0  0  0  0  0  0  0  0  0  0  0  0
   15.2213  -11.1376  -16.2305 C   0  0  0  0  0  0  0  0  0  0  0  0
   15.5078  -10.8712  -14.7642 C   0  0  0  0  0  0  0  0  0  0  0  0
   17.0032  -10.7069  -14.6392 C   0  0  2  0  0  0  0  0  0  0  0  0
   17.6009  -12.0215  -14.6119 N   0  0  0  0  0  0  0  0  0  0  0  0
   17.4194   -9.9541  -13.4633 C   0  0  0  0  0  0  0  0  0  0  0  0
   17.2415  -10.3822  -12.3169 O   0  0  0  0  0  0  0  0  0  0  0  0
   18.0444   -8.6980  -13.6298 N   0  0  0  0  0  0  0  0  0  0  0  0
   18.5211   -7.8647  -12.5255 C   0  0  1  0  0  0  0  0  0  0  0  0
   19.6692   -7.0217  -12.9408 C   0  0  0  0  0  0  0  0  0  0  0  0
   20.1044   -6.1152  -11.8302 C   0  0  0  0  0  0  0  0  0  0  0  0
   21.2397   -5.2654  -12.3002 C   0  0  0  0  0  0  0  0  0  0  0  0
   21.0483   -4.4545  -13.2211 O   0  0  0  0  0  0  0  0  0  0  0  0
   17.3366   -7.1356  -12.0404 C   0  0  0  0  0  0  0  0  0  0  0  0
   16.4678   -6.7048  -12.8286 O   0  0  0  0  0  0  0  0  0  0  0  0
   22.4693   -5.3980  -11.7059 O   0  0  0  0  0  0  0  0  0  0  0  0
   12.7313   -6.2644   -9.6280 C   0  0  0  0  0  0  0  0  0  0  0  0
   13.9293   -6.1830   -8.6721 C   0  0  0  0  0  0  0  0  0  0  0  0
   15.1111   -6.8784   -9.2377 C   0  0  2  0  0  0  0  0  0  0  0  0
   16.0224   -7.2971   -8.0751 C   0  0  0  0  0  0  0  0  0  0  0  0
   15.9523   -6.0734  -10.1907 C   0  0  2  0  0  0  0  0  0  0  0  0
   17.1042   -6.8736  -10.6488 N   0  0  0  0  0  0  0  0  0  0  0  0
   16.3941   -4.7865   -9.6509 C   0  0  0  0  0  0  0  0  0  0  0  0
   15.5948   -3.8676   -9.4026 O   0  0  0  0  0  0  0  0  0  0  0  0
   17.7370   -4.5767   -9.4065 O   0  0  0  0  0  0  0  0  0  0  0  0
  2  1  1  0
  3  4  1  0
  3  2  1  0
  4  5  1  0
  5  6  1  1
  7  5  1  0
  7  8  2  0
  9  7  1  0
 10  9  1  0
 11 12  1  0
 10 11  1  6
 12 13  1  0
 13 14  2  0
 15 10  1  0
 16 15  2  0
 17 13  1  0
 19 18  1  0
 20 19  1  0
 20 21  1  1
 22 20  1  0
 22 23  1  1
 23 15  1  0
 24 22  1  0
 25 24  2  0
 26 24  1  0
M  END
$$$$
