MEI.pdb
     RDKit          3D

 26 25  0  0  1  0  0  0  0  0999 V2000
   18.5710  -17.7851  -12.2929 C   0  0  0  0  0  0  0  0  0  0  0  0
   20.0277  -18.6338  -11.6100 S   0  0  0  0  0  0  0  0  0  0  0  0
   19.9226  -20.3640  -12.1038 C   0  0  0  0  0  0  0  0  0  0  0  0
   21.0434  -21.1941  -11.5056 C   0  0  0  0  0  0  0  0  0  0  0  0
   22.3234  -20.7203  -12.1505 C   0  0  2  0  0  0  0  0  0  0  0  0
   22.2983  -21.1083  -13.5416 N   0  0  0  0  0  0  0  0  0  0  0  0
   23.5305  -21.2364  -11.5187 C   0  0  0  0  0  0  0  0  0  0  0  0
   23.7279  -22.4493  -11.3804 O   0  0  0  0  0  0  0  0  0  0  0  0
   24.5077  -20.3313  -11.0477 N   0  0  0  0  0  0  0  0  0  0  0  0
   25.8501  -20.7225  -10.6164 C   0  0  1  0  0  0  0  0  0  0  0  0
   26.8454  -20.5219  -11.6981 C   0  0  0  0  0  0  0  0  0  0  0  0
   27.5229  -21.8095  -12.0554 C   0  0  0  0  0  0  0  0  0  0  0  0
   28.4732  -21.5730  -13.1837 C   0  0  0  0  0  0  0  0  0  0  0  0
   28.5290  -20.4459  -13.7023 O   0  0  0  0  0  0  0  0  0  0  0  0
   26.0996  -19.9738   -9.3726 C   0  0  0  0  0  0  0  0  0  0  0  0
   25.5825  -18.8543   -9.1702 O   0  0  0  0  0  0  0  0  0  0  0  0
   29.2637  -22.6045  -13.6240 O   0  0  0  0  0  0  0  0  0  0  0  0
   27.8580  -21.7117   -4.0112 C   0  0  0  0  0  0  0  0  0  0  0  0
   28.1689  -21.2224   -5.4323 C   0  0  0  0  0  0  0  0  0  0  0  0
   27.1446  -20.2567   -5.8999 C   0  0  2  0  0  0  0  0  0  0  0  0
   25.8076  -21.0007   -6.0274 C   0  0  0  0  0  0  0  0  0  0  0  0
   27.4158  -19.6045   -7.2285 C   0  0  2  0  0  0  0  0  0  0  0  0
   26.9430  -20.4724   -8.3240 N   0  0  0  0  0  0  0  0  0  0  0  0
   28.8159  -19.2278   -7.4299 C   0  0  0  0  0  0  0  0  0  0  0  0
   29.3758  -18.3729   -6.7225 O   0  0  0  0  0  0  0  0  0  0  0  0
   29.5455  -19.8342   -8.4334 O   0  0  0  0  0  0  0  0  0  0  0  0
  2  1  1  0
  3  4  1  0
  3  2  1  0
  4  5  1  0
  5  6  1  6
  7  5  1  0
  7  8  2  0
  9  7  1  0
 10  9  1  0
 11 12  1  0
 10 11  1  6
 12 13  1  0
 13 14  2  0
 15 10  1  0
 16 15  2  0
 17 13  1  0
 19 18  1  0
 20 19  1  0
 20 21  1  6
 22 20  1  0
 22 23  1  6
 23 15  1  0
 24 22  1  0
 25 24  2  0
 26 24  1  0
M  END
$$$$
