MEI.pdb
     RDKit          3D

 26 25  0  0  1  0  0  0  0  0999 V2000
   23.3552  -24.5123  -20.7103 C   0  0  0  0  0  0  0  0  0  0  0  0
   22.8881  -26.2632  -20.8667 S   0  0  0  0  0  0  0  0  0  0  0  0
   23.5758  -27.1323  -19.4453 C   0  0  0  0  0  0  0  0  0  0  0  0
   24.6332  -26.3086  -18.7335 C   0  0  0  0  0  0  0  0  0  0  0  0
   23.9132  -25.4923  -17.6875 C   0  0  2  0  0  0  0  0  0  0  0  0
   22.8891  -24.7161  -18.3470 N   0  0  0  0  0  0  0  0  0  0  0  0
   24.7841  -24.6082  -16.9243 C   0  0  0  0  0  0  0  0  0  0  0  0
   25.8027  -25.0230  -16.3591 O   0  0  0  0  0  0  0  0  0  0  0  0
   24.4617  -23.2364  -16.8222 N   0  0  0  0  0  0  0  0  0  0  0  0
   25.2339  -22.2665  -16.0450 C   0  0  1  0  0  0  0  0  0  0  0  0
   25.4088  -20.9945  -16.7882 C   0  0  0  0  0  0  0  0  0  0  0  0
   26.2456  -20.0246  -16.0111 C   0  0  0  0  0  0  0  0  0  0  0  0
   27.6336  -20.0139  -16.5637 C   0  0  0  0  0  0  0  0  0  0  0  0
   27.9577  -19.1265  -17.3699 O   0  0  0  0  0  0  0  0  0  0  0  0
   24.5426  -22.1583  -14.7487 C   0  0  0  0  0  0  0  0  0  0  0  0
   23.3187  -22.3868  -14.6411 O   0  0  0  0  0  0  0  0  0  0  0  0
   28.5211  -20.9837  -16.1702 O   0  0  0  0  0  0  0  0  0  0  0  0
   25.9240  -20.5496   -8.8302 C   0  0  0  0  0  0  0  0  0  0  0  0
   24.8555  -20.9984   -9.8363 C   0  0  0  0  0  0  0  0  0  0  0  0
   25.4585  -21.2926  -11.1592 C   0  0  2  0  0  0  0  0  0  0  0  0
   26.2916  -20.0760  -11.5871 C   0  0  0  0  0  0  0  0  0  0  0  0
   24.4886  -21.5782  -12.2735 C   0  0  2  0  0  0  0  0  0  0  0  0
   25.2187  -21.7873  -13.5385 N   0  0  0  0  0  0  0  0  0  0  0  0
   23.4513  -20.5579  -12.4336 C   0  0  0  0  0  0  0  0  0  0  0  0
   23.5036  -19.7015  -13.3328 O   0  0  0  0  0  0  0  0  0  0  0  0
   22.3782  -20.5372  -11.5646 O   0  0  0  0  0  0  0  0  0  0  0  0
  2  1  1  0
  3  4  1  0
  3  2  1  0
  4  5  1  0
  5  6  1  6
  7  5  1  0
  7  8  2  0
  9  7  1  0
 10  9  1  0
 11 12  1  0
 10 11  1  6
 12 13  1  0
 13 14  2  0
 15 10  1  0
 16 15  2  0
 17 13  1  0
 19 18  1  0
 20 19  1  0
 20 21  1  6
 22 20  1  0
 22 23  1  6
 23 15  1  0
 24 22  1  0
 25 24  2  0
 26 24  1  0
M  END
$$$$
