MEI.pdb
     RDKit          3D

 26 25  0  0  1  0  0  0  0  0999 V2000
   17.3891  -17.6917  -20.4358 C   0  0  0  0  0  0  0  0  0  0  0  0
   18.6224  -17.7548  -19.1003 S   0  0  0  0  0  0  0  0  0  0  0  0
   19.4137  -16.1373  -19.0223 C   0  0  0  0  0  0  0  0  0  0  0  0
   18.4009  -15.0162  -18.8790 C   0  0  0  0  0  0  0  0  0  0  0  0
   19.1882  -13.7309  -18.7961 C   0  0  2  0  0  0  0  0  0  0  0  0
   20.0706  -13.8149  -17.6557 N   0  0  0  0  0  0  0  0  0  0  0  0
   18.3610  -12.5363  -18.6895 C   0  0  0  0  0  0  0  0  0  0  0  0
   17.5179  -12.2470  -19.5467 O   0  0  0  0  0  0  0  0  0  0  0  0
   18.5213  -11.6789  -17.5781 N   0  0  0  0  0  0  0  0  0  0  0  0
   17.7103  -10.4850  -17.3377 C   0  0  1  0  0  0  0  0  0  0  0  0
   17.1338  -10.4893  -15.9706 C   0  0  0  0  0  0  0  0  0  0  0  0
   16.3621   -9.2328  -15.7051 C   0  0  0  0  0  0  0  0  0  0  0  0
   15.6918   -9.3350  -14.3738 C   0  0  0  0  0  0  0  0  0  0  0  0
   15.8442  -10.3648  -13.6965 O   0  0  0  0  0  0  0  0  0  0  0  0
   18.5833   -9.3427  -17.6585 C   0  0  0  0  0  0  0  0  0  0  0  0
   19.7730   -9.3040  -17.2782 O   0  0  0  0  0  0  0  0  0  0  0  0
   14.9220   -8.2906  -13.9270 O   0  0  0  0  0  0  0  0  0  0  0  0
   18.2694   -6.3327  -22.3165 C   0  0  0  0  0  0  0  0  0  0  0  0
   18.8592   -7.0562  -21.0982 C   0  0  0  0  0  0  0  0  0  0  0  0
   18.6080   -6.2928  -19.8514 C   0  0  2  0  0  0  0  0  0  0  0  0
   19.4444   -5.0063  -19.9007 C   0  0  0  0  0  0  0  0  0  0  0  0
   18.9570   -6.9980  -18.5689 C   0  0  2  0  0  0  0  0  0  0  0  0
   18.1321   -8.2120  -18.4184 N   0  0  0  0  0  0  0  0  0  0  0  0
   18.8578   -6.1505  -17.3796 C   0  0  0  0  0  0  0  0  0  0  0  0
   17.8033   -6.0492  -16.7296 O   0  0  0  0  0  0  0  0  0  0  0  0
   19.9632   -5.4377  -16.9586 O   0  0  0  0  0  0  0  0  0  0  0  0
  2  1  1  0
  3  4  1  0
  3  2  1  0
  4  5  1  0
  5  6  1  1
  7  5  1  0
  7  8  2  0
  9  7  1  0
 10  9  1  0
 11 12  1  0
 10 11  1  1
 12 13  1  0
 13 14  2  0
 15 10  1  0
 16 15  2  0
 17 13  1  0
 19 18  1  0
 20 19  1  0
 20 21  1  6
 22 20  1  0
 22 23  1  1
 23 15  1  0
 24 22  1  0
 25 24  2  0
 26 24  1  0
M  END
$$$$
