MEI.pdb
     RDKit          3D

 26 25  0  0  1  0  0  0  0  0999 V2000
   27.0900  -20.8806   -8.4328 C   0  0  0  0  0  0  0  0  0  0  0  0
   25.6646  -20.7715   -7.3082 S   0  0  0  0  0  0  0  0  0  0  0  0
   24.1761  -20.7768   -8.3246 C   0  0  0  0  0  0  0  0  0  0  0  0
   24.4658  -20.3694   -9.7575 C   0  0  0  0  0  0  0  0  0  0  0  0
   23.1324  -20.2824  -10.4598 C   0  0  2  0  0  0  0  0  0  0  0  0
   22.3877  -21.4844  -10.1650 N   0  0  0  0  0  0  0  0  0  0  0  0
   23.2340  -20.1096  -11.9029 C   0  0  0  0  0  0  0  0  0  0  0  0
   23.7831  -19.1221  -12.4055 O   0  0  0  0  0  0  0  0  0  0  0  0
   22.6915  -21.0940  -12.7589 N   0  0  0  0  0  0  0  0  0  0  0  0
   22.7713  -21.0474  -14.2192 C   0  0  1  0  0  0  0  0  0  0  0  0
   23.6370  -22.1300  -14.7482 C   0  0  0  0  0  0  0  0  0  0  0  0
   24.6273  -21.5960  -15.7376 C   0  0  0  0  0  0  0  0  0  0  0  0
   25.4504  -22.7223  -16.2720 C   0  0  0  0  0  0  0  0  0  0  0  0
   26.3969  -22.4714  -17.0360 O   0  0  0  0  0  0  0  0  0  0  0  0
   21.3762  -21.0574  -14.6919 C   0  0  0  0  0  0  0  0  0  0  0  0
   20.4225  -21.2429  -13.9060 O   0  0  0  0  0  0  0  0  0  0  0  0
   25.1443  -24.0097  -15.9089 O   0  0  0  0  0  0  0  0  0  0  0  0
   17.6895  -17.2829  -15.4729 C   0  0  0  0  0  0  0  0  0  0  0  0
   17.9523  -18.6178  -16.1831 C   0  0  0  0  0  0  0  0  0  0  0  0
   19.2949  -19.1481  -15.8422 C   0  0  2  0  0  0  0  0  0  0  0  0
   20.3443  -18.1245  -16.2984 C   0  0  0  0  0  0  0  0  0  0  0  0
   19.6594  -20.4652  -16.4718 C   0  0  2  0  0  0  0  0  0  0  0  0
   21.0231  -20.8585  -16.0686 N   0  0  0  0  0  0  0  0  0  0  0  0
   19.5212  -20.4850  -17.9289 C   0  0  0  0  0  0  0  0  0  0  0  0
   20.5067  -20.5606  -18.6826 O   0  0  0  0  0  0  0  0  0  0  0  0
   18.2627  -20.4180  -18.4934 O   0  0  0  0  0  0  0  0  0  0  0  0
  2  1  1  0
  3  4  1  0
  3  2  1  0
  4  5  1  0
  5  6  1  6
  7  5  1  0
  7  8  2  0
  9  7  1  0
 10  9  1  0
 11 12  1  0
 10 11  1  6
 12 13  1  0
 13 14  2  0
 15 10  1  0
 16 15  2  0
 17 13  1  0
 19 18  1  0
 20 19  1  0
 20 21  1  6
 22 20  1  0
 22 23  1  6
 23 15  1  0
 24 22  1  0
 25 24  2  0
 26 24  1  0
M  END
$$$$
