MEI.pdb
     RDKit          3D

 26 25  0  0  1  0  0  0  0  0999 V2000
   30.7141  -21.5516  -11.5617 C   0  0  0  0  0  0  0  0  0  0  0  0
   31.3523  -22.8644  -12.6470 S   0  0  0  0  0  0  0  0  0  0  0  0
   30.7998  -22.4933  -14.3220 C   0  0  0  0  0  0  0  0  0  0  0  0
   29.5637  -21.6128  -14.3300 C   0  0  0  0  0  0  0  0  0  0  0  0
   29.1109  -21.5171  -15.7669 C   0  0  2  0  0  0  0  0  0  0  0  0
   30.1618  -20.8852  -16.5301 N   0  0  0  0  0  0  0  0  0  0  0  0
   27.8648  -20.7839  -15.9468 C   0  0  0  0  0  0  0  0  0  0  0  0
   27.8150  -19.5509  -15.8667 O   0  0  0  0  0  0  0  0  0  0  0  0
   26.6752  -21.4952  -16.2206 N   0  0  0  0  0  0  0  0  0  0  0  0
   25.3308  -20.9402  -16.0611 C   0  0  1  0  0  0  0  0  0  0  0  0
   24.4790  -21.2400  -17.2382 C   0  0  0  0  0  0  0  0  0  0  0  0
   23.0862  -20.7232  -17.0437 C   0  0  0  0  0  0  0  0  0  0  0  0
   23.0326  -19.2829  -17.4369 C   0  0  0  0  0  0  0  0  0  0  0  0
   23.5393  -18.9301  -18.5146 O   0  0  0  0  0  0  0  0  0  0  0  0
   24.8408  -21.4554  -14.7710 C   0  0  0  0  0  0  0  0  0  0  0  0
   24.9714  -22.6578  -14.4567 O   0  0  0  0  0  0  0  0  0  0  0  0
   22.4258  -18.3800  -16.6006 O   0  0  0  0  0  0  0  0  0  0  0  0
   25.4075  -20.7647   -9.0328 C   0  0  0  0  0  0  0  0  0  0  0  0
   24.3321  -21.1851  -10.0438 C   0  0  0  0  0  0  0  0  0  0  0  0
   24.7110  -20.7877  -11.4218 C   0  0  2  0  0  0  0  0  0  0  0  0
   24.8686  -19.2608  -11.4538 C   0  0  0  0  0  0  0  0  0  0  0  0
   23.7308  -21.1537  -12.5032 C   0  0  2  0  0  0  0  0  0  0  0  0
   24.1882  -20.6225  -13.8015 N   0  0  0  0  0  0  0  0  0  0  0  0
   22.3561  -20.7351  -12.2246 C   0  0  0  0  0  0  0  0  0  0  0  0
   21.8051  -19.8201  -12.8601 O   0  0  0  0  0  0  0  0  0  0  0  0
   21.6411  -21.3694  -11.2277 O   0  0  0  0  0  0  0  0  0  0  0  0
  2  1  1  0
  3  4  1  0
  3  2  1  0
  4  5  1  0
  5  6  1  6
  7  5  1  0
  7  8  2  0
  9  7  1  0
 10  9  1  0
 11 12  1  0
 10 11  1  6
 12 13  1  0
 13 14  2  0
 15 10  1  0
 16 15  2  0
 17 13  1  0
 19 18  1  0
 20 19  1  0
 20 21  1  1
 22 20  1  0
 22 23  1  6
 23 15  1  0
 24 22  1  0
 25 24  2  0
 26 24  1  0
M  END
$$$$
