MEI.pdb
     RDKit          3D

 26 25  0  0  1  0  0  0  0  0999 V2000
   26.3624  -32.9124   -8.9879 C   0  0  0  0  0  0  0  0  0  0  0  0
   24.8143  -31.9886   -8.7459 S   0  0  0  0  0  0  0  0  0  0  0  0
   23.6750  -33.0704   -7.8625 C   0  0  0  0  0  0  0  0  0  0  0  0
   22.2999  -32.4460   -7.7131 C   0  0  0  0  0  0  0  0  0  0  0  0
   21.4352  -33.4676   -7.0149 C   0  0  2  0  0  0  0  0  0  0  0  0
   21.0786  -34.4876   -7.9733 N   0  0  0  0  0  0  0  0  0  0  0  0
   20.2281  -32.9117   -6.4176 C   0  0  0  0  0  0  0  0  0  0  0  0
   19.1833  -32.7735   -7.0645 O   0  0  0  0  0  0  0  0  0  0  0  0
   20.2444  -32.5168   -5.0612 N   0  0  0  0  0  0  0  0  0  0  0  0
   19.0859  -31.9772   -4.3486 C   0  0  1  0  0  0  0  0  0  0  0  0
   18.8095  -32.7428   -3.1082 C   0  0  0  0  0  0  0  0  0  0  0  0
   19.9990  -32.7444   -2.1972 C   0  0  0  0  0  0  0  0  0  0  0  0
   19.6858  -33.5440   -0.9747 C   0  0  0  0  0  0  0  0  0  0  0  0
   19.7494  -34.7831   -1.0288 O   0  0  0  0  0  0  0  0  0  0  0  0
   19.3678  -30.5432   -4.1641 C   0  0  0  0  0  0  0  0  0  0  0  0
   20.5325  -30.1243   -3.9920 O   0  0  0  0  0  0  0  0  0  0  0  0
   19.3344  -32.8941    0.1816 O   0  0  0  0  0  0  0  0  0  0  0  0
   16.3122  -26.7671   -6.8361 C   0  0  0  0  0  0  0  0  0  0  0  0
   17.4144  -27.6335   -6.2116 C   0  0  0  0  0  0  0  0  0  0  0  0
   17.6137  -27.2940   -4.7815 C   0  0  2  0  0  0  0  0  0  0  0  0
   18.0503  -25.8246   -4.6943 C   0  0  0  0  0  0  0  0  0  0  0  0
   18.6491  -28.1066   -4.0523 C   0  0  2  0  0  0  0  0  0  0  0  0
   18.3376  -29.5442   -4.1684 N   0  0  0  0  0  0  0  0  0  0  0  0
   18.8252  -27.7236   -2.6506 C   0  0  0  0  0  0  0  0  0  0  0  0
   18.2404  -28.3162   -1.7278 O   0  0  0  0  0  0  0  0  0  0  0  0
   19.6640  -26.6735   -2.3330 O   0  0  0  0  0  0  0  0  0  0  0  0
  2  1  1  0
  3  4  1  0
  3  2  1  0
  4  5  1  0
  5  6  1  6
  7  5  1  0
  7  8  2  0
  9  7  1  0
 10  9  1  0
 11 12  1  0
 10 11  1  1
 12 13  1  0
 13 14  2  0
 15 10  1  0
 16 15  2  0
 17 13  1  0
 19 18  1  0
 20 19  1  0
 20 21  1  6
 22 20  1  0
 22 23  1  1
 23 15  1  0
 24 22  1  0
 25 24  2  0
 26 24  1  0
M  END
$$$$
