PAC.pdb
     RDKit          3D

 19 19  0  0  1  0  0  0  0  0999 V2000
   71.0017   66.5792  -16.0017 N   0  0  0  0  0  0  0  0  0  0  0  0
   72.4473   66.7938  -16.0088 C   0  0  0  0  0  0  0  0  0  0  0  0
   72.7495   67.7254  -14.8716 C   0  0  0  0  0  0  0  0  0  0  0  0
   71.4891   67.7155  -14.0431 C   0  0  0  0  0  0  0  0  0  0  0  0
   70.7104   66.5197  -14.5876 C   0  0  1  0  0  0  0  0  0  0  0  0
   69.2632   66.7349  -14.3856 C   0  0  0  0  0  0  0  0  0  0  0  0
   68.4565   65.9429  -14.9396 O   0  0  0  0  0  0  0  0  0  0  0  0
   66.3697   67.4094  -13.6656 C   0  0  0  0  0  0  0  0  0  0  0  0
   67.4857   68.4001  -13.9661 C   0  0  2  0  0  0  0  0  0  0  0  0
   68.7508   67.8026  -13.5893 N   0  0  0  0  0  0  0  0  0  0  0  0
   67.2559   69.6646  -13.2095 C   0  0  0  0  0  0  0  0  0  0  0  0
   66.5340   70.5582  -13.7201 O   0  0  0  0  0  0  0  0  0  0  0  0
   67.8160   69.9072  -11.9355 N   0  0  0  0  0  0  0  0  0  0  0  0
   67.2115   70.8674  -11.0421 C   0  0  1  0  0  0  0  0  0  0  0  0
   67.5472   70.5411   -9.6010 C   0  0  0  0  0  0  0  0  0  0  0  0
   69.0937   71.3023   -9.0796 S   0  0  0  0  0  0  0  0  0  0  0  0
   67.7699   72.2013  -11.3305 C   0  0  0  0  0  0  0  0  0  0  0  0
   67.3354   73.2953  -10.6023 O   0  0  0  0  0  0  0  0  0  0  0  0
   68.6363   72.4149  -12.2164 O   0  0  0  0  0  0  0  0  0  0  0  0
  1  2  1  0
  3  2  1  0
  4  3  1  0
  4  5  1  0
  5  1  1  0
  5  6  1  6
  7  6  2  0
  9  8  1  1
  9 10  1  0
  9 11  1  0
 10  6  1  0
 11 13  1  0
 12 11  2  0
 13 14  1  0
 14 15  1  1
 14 17  1  0
 15 16  1  0
 17 19  2  0
 17 18  1  0
M  END
$$$$
