PAC.pdb
     RDKit          3D

 19 19  0  0  1  0  0  0  0  0999 V2000
   26.9863  -20.9514  -15.0873 N   0  0  0  0  0  0  0  0  0  0  0  0
   27.6047  -20.7479  -16.3957 C   0  0  0  0  0  0  0  0  0  0  0  0
   28.1633  -19.3549  -16.3956 C   0  0  0  0  0  0  0  0  0  0  0  0
   28.1467  -18.9521  -14.9421 C   0  0  0  0  0  0  0  0  0  0  0  0
   27.9069  -20.2691  -14.2068 C   0  0  1  0  0  0  0  0  0  0  0  0
   27.2334  -20.0042  -12.9192 C   0  0  0  0  0  0  0  0  0  0  0  0
   27.8525  -19.3445  -12.0438 O   0  0  0  0  0  0  0  0  0  0  0  0
   23.7571  -20.2095  -11.5802 C   0  0  0  0  0  0  0  0  0  0  0  0
   25.2561  -19.9866  -11.4365 C   0  0  2  0  0  0  0  0  0  0  0  0
   25.9138  -20.4673  -12.6349 N   0  0  0  0  0  0  0  0  0  0  0  0
   25.7614  -20.7097  -10.2341 C   0  0  0  0  0  0  0  0  0  0  0  0
   25.9106  -21.9568  -10.2903 O   0  0  0  0  0  0  0  0  0  0  0  0
   26.0828  -20.0538   -9.0249 N   0  0  0  0  0  0  0  0  0  0  0  0
   26.2436  -20.8086   -7.8042 C   0  0  1  0  0  0  0  0  0  0  0  0
   26.8743  -19.9515   -6.7255 C   0  0  0  0  0  0  0  0  0  0  0  0
   28.3795  -19.1456   -7.2982 S   0  0  0  0  0  0  0  0  0  0  0  0
   24.9119  -21.2144   -7.3182 C   0  0  0  0  0  0  0  0  0  0  0  0
   24.8125  -22.1008   -6.2598 O   0  0  0  0  0  0  0  0  0  0  0  0
   23.8346  -20.7975   -7.8146 O   0  0  0  0  0  0  0  0  0  0  0  0
  1  2  1  0
  3  2  1  0
  4  3  1  0
  4  5  1  0
  5  1  1  0
  5  6  1  1
  7  6  2  0
  9  8  1  6
  9 10  1  0
  9 11  1  0
 10  6  1  0
 11 13  1  0
 12 11  2  0
 13 14  1  0
 14 15  1  1
 14 17  1  0
 15 16  1  0
 17 19  2  0
 17 18  1  0
M  END
$$$$
