PAC.pdb
     RDKit          3D

 19 19  0  0  1  0  0  0  0  0999 V2000
   26.0031  -14.6507  -17.0129 N   0  0  0  0  0  0  0  0  0  0  0  0
   26.6318  -15.8089  -17.6446 C   0  0  0  0  0  0  0  0  0  0  0  0
   25.5489  -16.8274  -17.8503 C   0  0  0  0  0  0  0  0  0  0  0  0
   24.2712  -16.0521  -17.6464 C   0  0  0  0  0  0  0  0  0  0  0  0
   24.7252  -14.5943  -17.6852 C   0  0  1  0  0  0  0  0  0  0  0  0
   23.7993  -13.7638  -16.8886 C   0  0  0  0  0  0  0  0  0  0  0  0
   22.6480  -13.5420  -17.3470 O   0  0  0  0  0  0  0  0  0  0  0  0
   23.5353  -12.4295  -13.4274 C   0  0  0  0  0  0  0  0  0  0  0  0
   23.1775  -12.4241  -14.9070 C   0  0  2  0  0  0  0  0  0  0  0  0
   24.1622  -13.2075  -15.6255 N   0  0  0  0  0  0  0  0  0  0  0  0
   23.1495  -11.0222  -15.4147 C   0  0  0  0  0  0  0  0  0  0  0  0
   24.2291  -10.4749  -15.7548 O   0  0  0  0  0  0  0  0  0  0  0  0
   21.9570  -10.2740  -15.5325 N   0  0  0  0  0  0  0  0  0  0  0  0
   21.9734   -8.9626  -16.1372 C   0  0  1  0  0  0  0  0  0  0  0  0
   20.7853   -8.7853  -17.0605 C   0  0  0  0  0  0  0  0  0  0  0  0
   20.7274  -10.0545  -18.3369 S   0  0  0  0  0  0  0  0  0  0  0  0
   21.8566   -7.9480  -15.0736 C   0  0  0  0  0  0  0  0  0  0  0  0
   21.9806   -6.6069  -15.3929 O   0  0  0  0  0  0  0  0  0  0  0  0
   21.6466   -8.2285  -13.8661 O   0  0  0  0  0  0  0  0  0  0  0  0
  1  2  1  0
  3  2  1  0
  4  3  1  0
  4  5  1  0
  5  1  1  0
  5  6  1  1
  7  6  2  0
  9  8  1  1
  9 10  1  0
  9 11  1  0
 10  6  1  0
 11 13  1  0
 12 11  2  0
 13 14  1  0
 14 15  1  6
 14 17  1  0
 15 16  1  0
 17 19  2  0
 17 18  1  0
M  END
$$$$
