PAC.pdb
     RDKit          3D

 19 19  0  0  1  0  0  0  0  0999 V2000
   23.5872  -12.6280  -17.4861 N   0  0  0  0  0  0  0  0  0  0  0  0
   24.8576  -13.1956  -17.0392 C   0  0  0  0  0  0  0  0  0  0  0  0
   24.9089  -13.0160  -15.5501 C   0  0  0  0  0  0  0  0  0  0  0  0
   23.4903  -12.6694  -15.1723 C   0  0  0  0  0  0  0  0  0  0  0  0
   22.6890  -13.0203  -16.4243 C   0  0  1  0  0  0  0  0  0  0  0  0
   21.4743  -12.1825  -16.4883 C   0  0  0  0  0  0  0  0  0  0  0  0
   20.6278  -12.2827  -15.5619 O   0  0  0  0  0  0  0  0  0  0  0  0
   18.8410  -11.6205  -17.6389 C   0  0  0  0  0  0  0  0  0  0  0  0
   19.9534  -10.5821  -17.5992 C   0  0  2  0  0  0  0  0  0  0  0  0
   21.2284  -11.2692  -17.5570 N   0  0  0  0  0  0  0  0  0  0  0  0
   19.7871   -9.7094  -16.4014 C   0  0  0  0  0  0  0  0  0  0  0  0
   18.9889  -10.0616  -15.4962 O   0  0  0  0  0  0  0  0  0  0  0  0
   20.4903   -8.4956  -16.2347 N   0  0  0  0  0  0  0  0  0  0  0  0
   20.2927   -7.6929  -15.0506 C   0  0  1  0  0  0  0  0  0  0  0  0
   21.6123   -7.4400  -14.3503 C   0  0  0  0  0  0  0  0  0  0  0  0
   22.3415   -8.9595  -13.7158 S   0  0  0  0  0  0  0  0  0  0  0  0
   19.7512   -6.3811  -15.4513 C   0  0  0  0  0  0  0  0  0  0  0  0
   19.3369   -5.4877  -14.4786 O   0  0  0  0  0  0  0  0  0  0  0  0
   19.6387   -6.0123  -16.6480 O   0  0  0  0  0  0  0  0  0  0  0  0
  1  2  1  0
  3  2  1  0
  4  3  1  0
  4  5  1  0
  5  1  1  0
  5  6  1  6
  7  6  2  0
  9  8  1  1
  9 10  1  0
  9 11  1  0
 10  6  1  0
 11 13  1  0
 12 11  2  0
 13 14  1  0
 14 15  1  6
 14 17  1  0
 15 16  1  0
 17 19  2  0
 17 18  1  0
M  END
$$$$
