PAC.pdb
     RDKit          3D

 19 19  0  0  1  0  0  0  0  0999 V2000
   20.0686  -12.5343  -16.1161 N   0  0  0  0  0  0  0  0  0  0  0  0
   19.8413  -13.7618  -16.8760 C   0  0  0  0  0  0  0  0  0  0  0  0
   18.7906  -13.4456  -17.8999 C   0  0  0  0  0  0  0  0  0  0  0  0
   18.7247  -11.9386  -17.9060 C   0  0  0  0  0  0  0  0  0  0  0  0
   19.9796  -11.5208  -17.1423 C   0  0  1  0  0  0  0  0  0  0  0  0
   19.7587  -10.2078  -16.5030 C   0  0  0  0  0  0  0  0  0  0  0  0
   19.7467   -9.1811  -17.2316 O   0  0  0  0  0  0  0  0  0  0  0  0
   18.4391   -8.9310  -13.2829 C   0  0  0  0  0  0  0  0  0  0  0  0
   19.2182   -8.7542  -14.5787 C   0  0  2  0  0  0  0  0  0  0  0  0
   19.5597  -10.0634  -15.0973 N   0  0  0  0  0  0  0  0  0  0  0  0
   20.4498   -7.9532  -14.3222 C   0  0  0  0  0  0  0  0  0  0  0  0
   21.4482   -8.5175  -13.8072 O   0  0  0  0  0  0  0  0  0  0  0  0
   20.5479   -6.5787  -14.6334 N   0  0  0  0  0  0  0  0  0  0  0  0
   21.7867   -5.8676  -14.4203 C   0  0  1  0  0  0  0  0  0  0  0  0
   22.0462   -4.8954  -15.5531 C   0  0  0  0  0  0  0  0  0  0  0  0
   21.9572   -5.6966  -17.1635 S   0  0  0  0  0  0  0  0  0  0  0  0
   21.6725   -5.0760  -13.1815 C   0  0  0  0  0  0  0  0  0  0  0  0
   22.8032   -4.4905  -12.6388 O   0  0  0  0  0  0  0  0  0  0  0  0
   20.5884   -4.8937  -12.5711 O   0  0  0  0  0  0  0  0  0  0  0  0
  1  2  1  0
  3  2  1  0
  4  3  1  0
  4  5  1  0
  5  1  1  0
  5  6  1  1
  7  6  2  0
  9  8  1  1
  9 10  1  0
  9 11  1  0
 10  6  1  0
 11 13  1  0
 12 11  2  0
 13 14  1  0
 14 15  1  6
 14 17  1  0
 15 16  1  0
 17 19  2  0
 17 18  1  0
M  END
$$$$
