PAC.pdb
     RDKit          3D

 19 19  0  0  1  0  0  0  0  0999 V2000
   19.5209  -10.6155  -19.0277 N   0  0  0  0  0  0  0  0  0  0  0  0
   18.9799  -11.8011  -19.6892 C   0  0  0  0  0  0  0  0  0  0  0  0
   19.7666  -12.9739  -19.1812 C   0  0  0  0  0  0  0  0  0  0  0  0
   20.4914  -12.4351  -17.9730 C   0  0  0  0  0  0  0  0  0  0  0  0
   19.7899  -11.1070  -17.6957 C   0  0  1  0  0  0  0  0  0  0  0  0
   20.7240  -10.1824  -17.0218 C   0  0  0  0  0  0  0  0  0  0  0  0
   21.1086  -10.4631  -15.8564 O   0  0  0  0  0  0  0  0  0  0  0  0
   22.8355   -7.2237  -17.8556 C   0  0  0  0  0  0  0  0  0  0  0  0
   22.0825   -8.1223  -16.8847 C   0  0  2  0  0  0  0  0  0  0  0  0
   21.2027   -8.9895  -17.6419 N   0  0  0  0  0  0  0  0  0  0  0  0
   21.3009   -7.2881  -15.9269 C   0  0  0  0  0  0  0  0  0  0  0  0
   20.1504   -6.9007  -16.2534 O   0  0  0  0  0  0  0  0  0  0  0  0
   21.7969   -6.9098  -14.6594 N   0  0  0  0  0  0  0  0  0  0  0  0
   21.0086   -6.0719  -13.7863 C   0  0  1  0  0  0  0  0  0  0  0  0
   21.2419   -6.4432  -12.3360 C   0  0  0  0  0  0  0  0  0  0  0  0
   20.6111   -8.0853  -11.9501 S   0  0  0  0  0  0  0  0  0  0  0  0
   21.4404   -4.6721  -13.9548 C   0  0  0  0  0  0  0  0  0  0  0  0
   20.6561   -3.6502  -13.4482 O   0  0  0  0  0  0  0  0  0  0  0  0
   22.5003   -4.3381  -14.5428 O   0  0  0  0  0  0  0  0  0  0  0  0
  1  2  1  0
  3  2  1  0
  4  3  1  0
  4  5  1  0
  5  1  1  0
  5  6  1  6
  7  6  2  0
  9  8  1  6
  9 10  1  0
  9 11  1  0
 10  6  1  0
 11 13  1  0
 12 11  2  0
 13 14  1  0
 14 15  1  1
 14 17  1  0
 15 16  1  0
 17 19  2  0
 17 18  1  0
M  END
$$$$
