PAC.pdb
     RDKit          3D

 19 19  0  0  1  0  0  0  0  0999 V2000
   26.4929  -17.1571  -14.4346 N   0  0  0  0  0  0  0  0  0  0  0  0
   26.4497  -15.9052  -15.1873 C   0  0  0  0  0  0  0  0  0  0  0  0
   27.4205  -16.0520  -16.3224 C   0  0  0  0  0  0  0  0  0  0  0  0
   27.7120  -17.5312  -16.3681 C   0  0  0  0  0  0  0  0  0  0  0  0
   26.6235  -18.1396  -15.4862 C   0  0  1  0  0  0  0  0  0  0  0  0
   27.1071  -19.4072  -14.9024 C   0  0  0  0  0  0  0  0  0  0  0  0
   27.2083  -20.4125  -15.6533 O   0  0  0  0  0  0  0  0  0  0  0  0
   29.2889  -20.7335  -12.5038 C   0  0  0  0  0  0  0  0  0  0  0  0
   27.8638  -20.8317  -13.0299 C   0  0  2  0  0  0  0  0  0  0  0  0
   27.4613  -19.5310  -13.5255 N   0  0  0  0  0  0  0  0  0  0  0  0
   26.9527  -21.2832  -11.9390 C   0  0  0  0  0  0  0  0  0  0  0  0
   27.0785  -22.4476  -11.4819 O   0  0  0  0  0  0  0  0  0  0  0  0
   25.9464  -20.4570  -11.3907 N   0  0  0  0  0  0  0  0  0  0  0  0
   24.9530  -21.0086  -10.4994 C   0  0  1  0  0  0  0  0  0  0  0  0
   24.9455  -20.2624   -9.1807 C   0  0  0  0  0  0  0  0  0  0  0  0
   26.5696  -20.2510   -8.4026 S   0  0  0  0  0  0  0  0  0  0  0  0
   23.6210  -20.8357  -11.1078 C   0  0  0  0  0  0  0  0  0  0  0  0
   22.4973  -21.2683  -10.4251 O   0  0  0  0  0  0  0  0  0  0  0  0
   23.4349  -20.3082  -12.2338 O   0  0  0  0  0  0  0  0  0  0  0  0
  1  2  1  0
  3  2  1  0
  4  3  1  0
  4  5  1  0
  5  1  1  0
  5  6  1  1
  7  6  2  0
  9  8  1  1
  9 10  1  0
  9 11  1  0
 10  6  1  0
 11 13  1  0
 12 11  2  0
 13 14  1  0
 14 15  1  1
 14 17  1  0
 15 16  1  0
 17 19  2  0
 17 18  1  0
M  END
$$$$
