FLH.pdb
     RDKit          3D

 30 31  0  0  1  0  0  0  0  0999 V2000
    6.6264  -16.9222   25.4164 N   0  0  0  0  0  0  0  0  0  0  0  0
    7.1376  -15.7625   24.7190 C   0  0  1  0  0  0  0  0  0  0  0  0
    8.1621  -15.0444   25.5725 C   0  0  0  0  0  0  0  0  0  0  0  0
    7.6389  -13.8335   26.2149 C   0  0  0  0  0  0  0  0  0  0  0  0
    8.4799  -13.0394   26.9658 C   0  0  0  0  0  0  0  0  0  0  0  0
    7.9944  -11.9171   27.5612 C   0  0  0  0  0  0  0  0  0  0  0  0
    6.6578  -11.5522   27.4267 C   0  0  0  0  0  0  0  0  0  0  0  0
    5.8109  -12.3396   26.6785 C   0  0  0  0  0  0  0  0  0  0  0  0
    6.3233  -13.4687   26.0862 C   0  0  0  0  0  0  0  0  0  0  0  0
    7.8131  -16.1281   23.4514 C   0  0  0  0  0  0  0  0  0  0  0  0
    7.9520  -17.3435   23.1613 O   0  0  0  0  0  0  0  0  0  0  0  0
    6.4488  -13.8753   20.1086 C   0  0  0  0  0  0  0  0  0  0  0  0
    7.6885  -13.2259   20.7439 C   0  0  2  0  0  0  0  0  0  0  0  0
    7.8484  -11.8858   20.0982 C   0  0  0  0  0  0  0  0  0  0  0  0
    8.8242  -14.1588   20.4856 C   0  0  0  0  0  0  0  0  0  0  0  0
    8.7778  -15.4577   21.2177 C   0  0  2  0  0  0  0  0  0  0  0  0
    8.3023  -15.1528   22.5652 N   0  0  0  0  0  0  0  0  0  0  0  0
   10.1145  -16.1010   21.2787 C   0  0  0  0  0  0  0  0  0  0  0  0
   10.6092  -16.6944   20.2620 O   0  0  0  0  0  0  0  0  0  0  0  0
   10.8313  -16.0381   22.5044 N   0  0  0  0  0  0  0  0  0  0  0  0
   12.1413  -16.6850   22.5619 C   0  0  1  0  0  0  0  0  0  0  0  0
   13.2211  -15.6705   22.2668 C   0  0  0  0  0  0  0  0  0  0  0  0
   13.3272  -15.4910   20.8000 C   0  0  0  0  0  0  0  0  0  0  0  0
   13.6680  -14.2557   20.2357 C   0  0  0  0  0  0  0  0  0  0  0  0
   13.6817  -14.4100   18.9131 N   0  0  0  0  0  0  0  0  0  0  0  0
   13.3661  -15.6769   18.6550 C   0  0  0  0  0  0  0  0  0  0  0  0
   13.1501  -16.3387   19.7851 N   0  0  0  0  0  0  0  0  0  0  0  0
   12.2921  -17.1809   23.9514 C   0  0  0  0  0  0  0  0  0  0  0  0
   13.3504  -17.7286   24.3831 O   0  0  0  0  0  0  0  0  0  0  0  0
   11.2682  -17.0834   24.9074 O   0  0  0  0  0  0  0  0  0  0  0  0
  2 10  1  0
  2  3  1  0
  2  1  1  1
  3  4  1  0
  4  5  2  0
  4  9  1  0
  5  6  1  0
  6  7  2  0
  8  7  1  0
  9  8  2  0
 10 17  1  0
 11 10  2  0
 13 12  1  6
 14 13  1  0
 15 13  1  0
 16 15  1  6
 17 16  1  0
 18 20  1  0
 18 16  1  0
 19 18  2  0
 21 20  1  0
 21 28  1  0
 22 23  1  0
 21 22  1  1
 23 24  2  0
 24 25  1  0
 26 25  1  0
 27 23  1  0
 27 26  2  0
 28 30  1  0
 29 28  2  0
M  END
$$$$
