FLH.pdb
     RDKit          3D

 30 31  0  0  1  0  0  0  0  0999 V2000
    7.3754  -16.7851   21.8603 N   0  0  0  0  0  0  0  0  0  0  0  0
    8.7910  -16.4976   21.7827 C   0  0  1  0  0  0  0  0  0  0  0  0
    9.0749  -15.5592   20.6283 C   0  0  0  0  0  0  0  0  0  0  0  0
    8.2083  -14.3754   20.6136 C   0  0  0  0  0  0  0  0  0  0  0  0
    6.8526  -14.5172   20.8231 C   0  0  0  0  0  0  0  0  0  0  0  0
    6.0496  -13.4196   20.8092 C   0  0  0  0  0  0  0  0  0  0  0  0
    6.5723  -12.1487   20.5866 C   0  0  0  0  0  0  0  0  0  0  0  0
    7.9252  -11.9980   20.3765 C   0  0  0  0  0  0  0  0  0  0  0  0
    8.7170  -13.1209   20.3949 C   0  0  0  0  0  0  0  0  0  0  0  0
    9.2924  -15.8348   23.0099 C   0  0  0  0  0  0  0  0  0  0  0  0
   10.4202  -15.2796   22.9875 O   0  0  0  0  0  0  0  0  0  0  0  0
    8.1840  -12.3895   25.8877 C   0  0  0  0  0  0  0  0  0  0  0  0
    7.1688  -13.5239   25.6764 C   0  0  2  0  0  0  0  0  0  0  0  0
    5.9319  -13.1363   26.4236 C   0  0  0  0  0  0  0  0  0  0  0  0
    7.8195  -14.7645   26.1905 C   0  0  0  0  0  0  0  0  0  0  0  0
    9.0271  -15.2222   25.4439 C   0  0  2  0  0  0  0  0  0  0  0  0
    8.5411  -15.8102   24.1978 N   0  0  0  0  0  0  0  0  0  0  0  0
    9.8021  -16.2255   26.2165 C   0  0  0  0  0  0  0  0  0  0  0  0
   10.3301  -15.9295   27.3410 O   0  0  0  0  0  0  0  0  0  0  0  0
    9.9409  -17.5296   25.6686 N   0  0  0  0  0  0  0  0  0  0  0  0
   10.6177  -18.5410   26.4789 C   0  0  1  0  0  0  0  0  0  0  0  0
   12.1113  -18.3228   26.4187 C   0  0  0  0  0  0  0  0  0  0  0  0
   12.5957  -18.6698   25.0622 C   0  0  0  0  0  0  0  0  0  0  0  0
   11.7120  -19.0387   24.0407 C   0  0  0  0  0  0  0  0  0  0  0  0
   12.4390  -19.2883   22.9532 N   0  0  0  0  0  0  0  0  0  0  0  0
   13.7157  -19.0875   23.2710 C   0  0  0  0  0  0  0  0  0  0  0  0
   13.8227  -18.7141   24.5403 N   0  0  0  0  0  0  0  0  0  0  0  0
   10.1417  -18.3377   27.8686 C   0  0  0  0  0  0  0  0  0  0  0  0
    9.3078  -17.4402   28.1936 O   0  0  0  0  0  0  0  0  0  0  0  0
   10.5789  -19.1279   28.9439 O   0  0  0  0  0  0  0  0  0  0  0  0
  2 10  1  0
  2  3  1  0
  2  1  1  1
  3  4  1  0
  4  5  2  0
  4  9  1  0
  5  6  1  0
  6  7  2  0
  8  7  1  0
  9  8  2  0
 10 17  1  0
 11 10  2  0
 13 12  1  1
 14 13  1  0
 15 13  1  0
 16 15  1  1
 17 16  1  0
 18 20  1  0
 18 16  1  0
 19 18  2  0
 21 20  1  0
 21 28  1  0
 22 23  1  0
 21 22  1  1
 23 24  2  0
 24 25  1  0
 26 25  1  0
 27 23  1  0
 27 26  2  0
 28 30  1  0
 29 28  2  0
M  END
$$$$
