FLH.pdb
     RDKit          3D

 30 31  0  0  1  0  0  0  0  0999 V2000
    6.8693  -16.6162   25.4317 N   0  0  0  0  0  0  0  0  0  0  0  0
    7.2427  -15.5347   24.5466 C   0  0  1  0  0  0  0  0  0  0  0  0
    8.3171  -14.6792   25.1850 C   0  0  0  0  0  0  0  0  0  0  0  0
    7.7809  -13.5880   26.0063 C   0  0  0  0  0  0  0  0  0  0  0  0
    7.8772  -13.6549   27.3804 C   0  0  0  0  0  0  0  0  0  0  0  0
    7.3798  -12.6432   28.1412 C   0  0  0  0  0  0  0  0  0  0  0  0
    6.7721  -11.5355   27.5569 C   0  0  0  0  0  0  0  0  0  0  0  0
    6.6717  -11.4606   26.1853 C   0  0  0  0  0  0  0  0  0  0  0  0
    7.1811  -12.4942   25.4368 C   0  0  0  0  0  0  0  0  0  0  0  0
    7.7933  -16.0308   23.2630 C   0  0  0  0  0  0  0  0  0  0  0  0
    7.8404  -17.2700   23.0563 O   0  0  0  0  0  0  0  0  0  0  0  0
    6.3375  -14.1726   19.7562 C   0  0  0  0  0  0  0  0  0  0  0  0
    7.5897  -13.4545   20.2843 C   0  0  2  0  0  0  0  0  0  0  0  0
    7.7133  -12.1820   19.5071 C   0  0  0  0  0  0  0  0  0  0  0  0
    8.7270  -14.3986   20.0797 C   0  0  0  0  0  0  0  0  0  0  0  0
    8.7419  -15.5996   20.9643 C   0  0  2  0  0  0  0  0  0  0  0  0
    8.2641  -15.1532   22.2708 N   0  0  0  0  0  0  0  0  0  0  0  0
   10.1054  -16.1745   21.0858 C   0  0  0  0  0  0  0  0  0  0  0  0
   10.6626  -16.7674   20.1016 O   0  0  0  0  0  0  0  0  0  0  0  0
   10.7763  -16.0463   22.3322 N   0  0  0  0  0  0  0  0  0  0  0  0
   12.1367  -16.5728   22.4314 C   0  0  1  0  0  0  0  0  0  0  0  0
   13.1263  -15.4323   22.3865 C   0  0  0  0  0  0  0  0  0  0  0  0
   13.5286  -15.1969   20.9802 C   0  0  0  0  0  0  0  0  0  0  0  0
   13.1077  -16.0423   19.9464 C   0  0  0  0  0  0  0  0  0  0  0  0
   13.6270  -15.5766   18.8120 N   0  0  0  0  0  0  0  0  0  0  0  0
   14.3389  -14.4933   19.1132 C   0  0  0  0  0  0  0  0  0  0  0  0
   14.2871  -14.2544   20.4179 N   0  0  0  0  0  0  0  0  0  0  0  0
   12.2185  -17.2498   23.7483 C   0  0  0  0  0  0  0  0  0  0  0  0
   11.2315  -17.3603   24.5357 O   0  0  0  0  0  0  0  0  0  0  0  0
   13.4034  -17.8270   24.2326 O   0  0  0  0  0  0  0  0  0  0  0  0
  2 10  1  0
  2  3  1  0
  2  1  1  1
  3  4  1  0
  4  5  2  0
  4  9  1  0
  5  6  1  0
  6  7  2  0
  8  7  1  0
  9  8  2  0
 10 17  1  0
 11 10  2  0
 13 12  1  6
 14 13  1  0
 15 13  1  0
 16 15  1  6
 17 16  1  0
 18 20  1  0
 18 16  1  0
 19 18  2  0
 21 20  1  0
 21 28  1  0
 22 23  1  0
 21 22  1  1
 23 24  2  0
 24 25  1  0
 26 25  1  0
 27 23  1  0
 27 26  2  0
 28 30  1  0
 29 28  2  0
M  END
$$$$
