FLH.pdb
     RDKit          3D

 30 31  0  0  1  0  0  0  0  0999 V2000
    7.8152  -17.9563   21.8199 N   0  0  0  0  0  0  0  0  0  0  0  0
    8.2587  -16.6456   21.3982 C   0  0  1  0  0  0  0  0  0  0  0  0
    7.1483  -15.9262   20.6611 C   0  0  0  0  0  0  0  0  0  0  0  0
    7.5496  -14.6142   20.1410 C   0  0  0  0  0  0  0  0  0  0  0  0
    8.3101  -14.5366   18.9932 C   0  0  0  0  0  0  0  0  0  0  0  0
    8.6819  -13.3202   18.5115 C   0  0  0  0  0  0  0  0  0  0  0  0
    8.3077  -12.1456   19.1580 C   0  0  0  0  0  0  0  0  0  0  0  0
    7.5482  -12.2139   20.3049 C   0  0  0  0  0  0  0  0  0  0  0  0
    7.1842  -13.4534   20.7732 C   0  0  0  0  0  0  0  0  0  0  0  0
    8.6378  -15.7898   22.5474 C   0  0  0  0  0  0  0  0  0  0  0  0
    9.7010  -15.1216   22.4875 O   0  0  0  0  0  0  0  0  0  0  0  0
    5.5779  -13.1109   27.0002 C   0  0  0  0  0  0  0  0  0  0  0  0
    7.0172  -13.4545   26.5844 C   0  0  2  0  0  0  0  0  0  0  0  0
    7.7023  -12.1553   26.2995 C   0  0  0  0  0  0  0  0  0  0  0  0
    6.9035  -14.3493   25.3957 C   0  0  0  0  0  0  0  0  0  0  0  0
    8.1885  -14.8853   24.8604 C   0  0  2  0  0  0  0  0  0  0  0  0
    7.8406  -15.7053   23.7022 N   0  0  0  0  0  0  0  0  0  0  0  0
    8.9052  -15.7030   25.8712 C   0  0  0  0  0  0  0  0  0  0  0  0
    9.2963  -15.1949   26.9756 O   0  0  0  0  0  0  0  0  0  0  0  0
    9.1451  -17.0724   25.5753 N   0  0  0  0  0  0  0  0  0  0  0  0
   10.0294  -17.8183   26.4694 C   0  0  1  0  0  0  0  0  0  0  0  0
    9.6933  -19.2896   26.4035 C   0  0  0  0  0  0  0  0  0  0  0  0
    8.3635  -19.5092   27.0186 C   0  0  0  0  0  0  0  0  0  0  0  0
    7.9104  -18.7227   28.0847 C   0  0  0  0  0  0  0  0  0  0  0  0
    6.6957  -19.1573   28.4147 N   0  0  0  0  0  0  0  0  0  0  0  0
    6.3967  -20.1659   27.5996 C   0  0  0  0  0  0  0  0  0  0  0  0
    7.3949  -20.3875   26.7532 N   0  0  0  0  0  0  0  0  0  0  0  0
   11.4050  -17.5997   25.9603 C   0  0  0  0  0  0  0  0  0  0  0  0
   12.4301  -18.1411   26.4725 O   0  0  0  0  0  0  0  0  0  0  0  0
   11.6852  -16.7701   24.8625 O   0  0  0  0  0  0  0  0  0  0  0  0
  2 10  1  0
  2  3  1  0
  2  1  1  1
  3  4  1  0
  4  5  2  0
  4  9  1  0
  5  6  1  0
  6  7  2  0
  8  7  1  0
  9  8  2  0
 10 17  1  0
 11 10  2  0
 13 12  1  6
 14 13  1  0
 15 13  1  0
 16 15  1  1
 17 16  1  0
 18 20  1  0
 18 16  1  0
 19 18  2  0
 21 20  1  0
 21 28  1  0
 22 23  1  0
 21 22  1  6
 23 24  2  0
 24 25  1  0
 26 25  1  0
 27 23  1  0
 27 26  2  0
 28 30  1  0
 29 28  2  0
M  END
$$$$
