FLH.pdb
     RDKit          3D

 30 31  0  0  1  0  0  0  0  0999 V2000
    6.0088  -17.8088   25.0290 N   0  0  0  0  0  0  0  0  0  0  0  0
    6.6196  -16.5239   24.7671 C   0  0  1  0  0  0  0  0  0  0  0  0
    7.4746  -16.0983   25.9425 C   0  0  0  0  0  0  0  0  0  0  0  0
    7.3179  -14.6824   26.2939 C   0  0  0  0  0  0  0  0  0  0  0  0
    8.4163  -13.9513   26.6950 C   0  0  0  0  0  0  0  0  0  0  0  0
    8.2705  -12.6389   27.0208 C   0  0  0  0  0  0  0  0  0  0  0  0
    7.0274  -12.0157   26.9569 C   0  0  0  0  0  0  0  0  0  0  0  0
    5.9251  -12.7384   26.5573 C   0  0  0  0  0  0  0  0  0  0  0  0
    6.0961  -14.0628   26.2331 C   0  0  0  0  0  0  0  0  0  0  0  0
    7.5066  -16.5608   23.5802 C   0  0  0  0  0  0  0  0  0  0  0  0
    7.8652  -17.6742   23.1194 O   0  0  0  0  0  0  0  0  0  0  0  0
    7.7016  -12.0920   19.9887 C   0  0  0  0  0  0  0  0  0  0  0  0
    7.6831  -13.6228   20.1255 C   0  0  2  0  0  0  0  0  0  0  0  0
    6.2720  -14.0075   20.4405 C   0  0  0  0  0  0  0  0  0  0  0  0
    8.6545  -13.9545   21.2087 C   0  0  0  0  0  0  0  0  0  0  0  0
    8.6528  -15.3726   21.6712 C   0  0  2  0  0  0  0  0  0  0  0  0
    7.9576  -15.3846   22.9562 N   0  0  0  0  0  0  0  0  0  0  0  0
   10.0318  -15.8996   21.8292 C   0  0  0  0  0  0  0  0  0  0  0  0
   10.7983  -16.0579   20.8202 O   0  0  0  0  0  0  0  0  0  0  0  0
   10.4774  -16.2245   23.1392 N   0  0  0  0  0  0  0  0  0  0  0  0
   11.9139  -16.4011   23.3464 C   0  0  1  0  0  0  0  0  0  0  0  0
   12.6379  -15.1227   22.9946 C   0  0  0  0  0  0  0  0  0  0  0  0
   13.3141  -15.2948   21.6876 C   0  0  0  0  0  0  0  0  0  0  0  0
   13.1017  -16.4304   20.8965 C   0  0  0  0  0  0  0  0  0  0  0  0
   13.8401  -16.2958   19.7965 N   0  0  0  0  0  0  0  0  0  0  0  0
   14.4855  -15.1355   19.8877 C   0  0  0  0  0  0  0  0  0  0  0  0
   14.1764  -14.5228   21.0239 N   0  0  0  0  0  0  0  0  0  0  0  0
   12.0867  -16.6883   24.7910 C   0  0  0  0  0  0  0  0  0  0  0  0
   11.7014  -15.9018   25.7072 O   0  0  0  0  0  0  0  0  0  0  0  0
   12.6950  -17.8622   25.2640 O   0  0  0  0  0  0  0  0  0  0  0  0
  2 10  1  0
  2  3  1  0
  2  1  1  1
  3  4  1  0
  4  5  2  0
  4  9  1  0
  5  6  1  0
  6  7  2  0
  8  7  1  0
  9  8  2  0
 10 17  1  0
 11 10  2  0
 13 12  1  1
 14 13  1  0
 15 13  1  0
 16 15  1  1
 17 16  1  0
 18 20  1  0
 18 16  1  0
 19 18  2  0
 21 20  1  0
 21 28  1  0
 22 23  1  0
 21 22  1  1
 23 24  2  0
 24 25  1  0
 26 25  1  0
 27 23  1  0
 27 26  2  0
 28 30  1  0
 29 28  2  0
M  END
$$$$
