FLH.pdb
     RDKit          3D

 30 31  0  0  1  0  0  0  0  0999 V2000
    5.9907  -16.8935   25.1282 N   0  0  0  0  0  0  0  0  0  0  0  0
    6.8416  -15.8499   24.5997 C   0  0  1  0  0  0  0  0  0  0  0  0
    7.8453  -15.4096   25.6449 C   0  0  0  0  0  0  0  0  0  0  0  0
    7.6408  -14.0312   26.1042 C   0  0  0  0  0  0  0  0  0  0  0  0
    8.7227  -13.1861   26.2354 C   0  0  0  0  0  0  0  0  0  0  0  0
    8.5326  -11.9085   26.6614 C   0  0  0  0  0  0  0  0  0  0  0  0
    7.2604  -11.4346   26.9691 C   0  0  0  0  0  0  0  0  0  0  0  0
    6.1743  -12.2719   26.8409 C   0  0  0  0  0  0  0  0  0  0  0  0
    6.3902  -13.5584   26.4090 C   0  0  0  0  0  0  0  0  0  0  0  0
    7.6179  -16.3073   23.4228 C   0  0  0  0  0  0  0  0  0  0  0  0
    7.7597  -17.5408   23.2259 O   0  0  0  0  0  0  0  0  0  0  0  0
    6.3949  -14.6114   19.7259 C   0  0  0  0  0  0  0  0  0  0  0  0
    7.4735  -13.7660   20.4217 C   0  0  2  0  0  0  0  0  0  0  0  0
    7.5546  -12.4738   19.6720 C   0  0  0  0  0  0  0  0  0  0  0  0
    8.7287  -14.5716   20.3717 C   0  0  0  0  0  0  0  0  0  0  0  0
    8.7512  -15.7935   21.2270 C   0  0  2  0  0  0  0  0  0  0  0  0
    8.1996  -15.3991   22.5212 N   0  0  0  0  0  0  0  0  0  0  0  0
   10.1291  -16.3198   21.3956 C   0  0  0  0  0  0  0  0  0  0  0  0
   10.7359  -16.9029   20.4351 O   0  0  0  0  0  0  0  0  0  0  0  0
   10.7572  -16.1561   22.6601 N   0  0  0  0  0  0  0  0  0  0  0  0
   12.1421  -16.6049   22.7965 C   0  0  1  0  0  0  0  0  0  0  0  0
   13.0613  -15.4068   22.8409 C   0  0  0  0  0  0  0  0  0  0  0  0
   13.3963  -15.0037   21.4551 C   0  0  0  0  0  0  0  0  0  0  0  0
   13.1309  -15.8402   20.3642 C   0  0  0  0  0  0  0  0  0  0  0  0
   13.5404  -15.2080   19.2660 N   0  0  0  0  0  0  0  0  0  0  0  0
   14.0386  -14.0330   19.6434 C   0  0  0  0  0  0  0  0  0  0  0  0
   13.9572  -13.8984   20.9614 N   0  0  0  0  0  0  0  0  0  0  0  0
   12.2113  -17.3320   24.0872 C   0  0  0  0  0  0  0  0  0  0  0  0
   13.2864  -17.8082   24.5601 O   0  0  0  0  0  0  0  0  0  0  0  0
   11.0842  -17.5534   24.8950 O   0  0  0  0  0  0  0  0  0  0  0  0
  2 10  1  0
  2  3  1  0
  2  1  1  1
  3  4  1  0
  4  5  2  0
  4  9  1  0
  5  6  1  0
  6  7  2  0
  8  7  1  0
  9  8  2  0
 10 17  1  0
 11 10  2  0
 13 12  1  6
 14 13  1  0
 15 13  1  0
 16 15  1  6
 17 16  1  0
 18 20  1  0
 18 16  1  0
 19 18  2  0
 21 20  1  0
 21 28  1  0
 22 23  1  0
 21 22  1  1
 23 24  2  0
 24 25  1  0
 26 25  1  0
 27 23  1  0
 27 26  2  0
 28 30  1  0
 29 28  2  0
M  END
$$$$
