FLH.pdb
     RDKit          3D

 30 31  0  0  1  0  0  0  0  0999 V2000
   10.9488  -15.9316   21.0619 N   0  0  0  0  0  0  0  0  0  0  0  0
   10.0993  -15.2614   22.0220 C   0  0  1  0  0  0  0  0  0  0  0  0
    8.6500  -15.6388   21.7960 C   0  0  0  0  0  0  0  0  0  0  0  0
    7.9409  -14.7166   20.9018 C   0  0  0  0  0  0  0  0  0  0  0  0
    7.7531  -13.4042   21.2815 C   0  0  0  0  0  0  0  0  0  0  0  0
    7.0955  -12.5498   20.4524 C   0  0  0  0  0  0  0  0  0  0  0  0
    6.6058  -12.9764   19.2212 C   0  0  0  0  0  0  0  0  0  0  0  0
    6.7890  -14.2854   18.8341 C   0  0  0  0  0  0  0  0  0  0  0  0
    7.4561  -15.1307   19.6878 C   0  0  0  0  0  0  0  0  0  0  0  0
   10.4301  -15.6384   23.4167 C   0  0  0  0  0  0  0  0  0  0  0  0
   11.2734  -16.5483   23.6202 O   0  0  0  0  0  0  0  0  0  0  0  0
    8.5113  -13.5764   28.8710 C   0  0  0  0  0  0  0  0  0  0  0  0
    9.5194  -14.5396   28.2243 C   0  0  2  0  0  0  0  0  0  0  0  0
   10.8750  -14.1259   28.7036 C   0  0  0  0  0  0  0  0  0  0  0  0
    9.3347  -14.4055   26.7496 C   0  0  0  0  0  0  0  0  0  0  0  0
   10.1698  -15.3081   25.9052 C   0  0  2  0  0  0  0  0  0  0  0  0
    9.8265  -15.0060   24.5175 N   0  0  0  0  0  0  0  0  0  0  0  0
    9.9022  -16.7383   26.2003 C   0  0  0  0  0  0  0  0  0  0  0  0
    8.7142  -17.2063   26.1794 O   0  0  0  0  0  0  0  0  0  0  0  0
   11.0086  -17.5758   26.5079 N   0  0  0  0  0  0  0  0  0  0  0  0
   10.7280  -18.9412   26.9492 C   0  0  1  0  0  0  0  0  0  0  0  0
   11.6459  -19.9041   26.2333 C   0  0  0  0  0  0  0  0  0  0  0  0
   11.3152  -19.9034   24.7892 C   0  0  0  0  0  0  0  0  0  0  0  0
   10.0174  -20.1670   24.3345 C   0  0  0  0  0  0  0  0  0  0  0  0
   10.0367  -20.0953   23.0049 N   0  0  0  0  0  0  0  0  0  0  0  0
   11.2819  -19.8016   22.6384 C   0  0  0  0  0  0  0  0  0  0  0  0
   12.0621  -19.6834   23.7058 N   0  0  0  0  0  0  0  0  0  0  0  0
   11.0163  -18.9685   28.4037 C   0  0  0  0  0  0  0  0  0  0  0  0
   10.8593  -19.9992   29.1243 O   0  0  0  0  0  0  0  0  0  0  0  0
   11.4895  -17.8476   29.1047 O   0  0  0  0  0  0  0  0  0  0  0  0
  2 10  1  0
  2  3  1  0
  2  1  1  6
  3  4  1  0
  4  5  2  0
  4  9  1  0
  5  6  1  0
  6  7  2  0
  8  7  1  0
  9  8  2  0
 10 17  1  0
 11 10  2  0
 13 12  1  1
 14 13  1  0
 15 13  1  0
 16 15  1  1
 17 16  1  0
 18 20  1  0
 18 16  1  0
 19 18  2  0
 21 20  1  0
 21 28  1  0
 22 23  1  0
 21 22  1  6
 23 24  2  0
 24 25  1  0
 26 25  1  0
 27 23  1  0
 27 26  2  0
 28 30  1  0
 29 28  2  0
M  END
$$$$
