YLW.pdb
     RDKit          3D

 35 37  0  0  1  0  0  0  0  0999 V2000
   10.1067  -24.4036   18.2692 O   0  0  0  0  0  0  0  0  0  0  0  0
   10.2282  -23.2041   18.9697 C   0  0  0  0  0  0  0  0  0  0  0  0
    9.0663  -22.4771   19.2384 C   0  0  0  0  0  0  0  0  0  0  0  0
    9.2108  -21.3040   19.9260 C   0  0  0  0  0  0  0  0  0  0  0  0
   10.4209  -20.8158   20.3565 C   0  0  0  0  0  0  0  0  0  0  0  0
   10.5071  -19.5251   21.0953 C   0  0  0  0  0  0  0  0  0  0  0  0
   10.3240  -18.4055   20.1269 C   0  0  2  0  0  0  0  0  0  0  0  0
   11.3490  -18.4246   19.0856 N   0  0  0  0  0  0  0  0  0  0  0  0
   10.3556  -17.0831   20.7713 C   0  0  0  0  0  0  0  0  0  0  0  0
   11.4270  -16.4202   20.8825 O   0  0  0  0  0  0  0  0  0  0  0  0
   11.5698  -21.5362   20.0905 C   0  0  0  0  0  0  0  0  0  0  0  0
   11.4578  -22.7401   19.3901 C   0  0  0  0  0  0  0  0  0  0  0  0
    8.5487  -13.2510   19.5177 C   0  0  0  0  0  0  0  0  0  0  0  0
    7.5056  -14.2453   20.0690 C   0  0  2  0  0  0  0  0  0  0  0  0
    6.1481  -13.5978   19.8711 C   0  0  0  0  0  0  0  0  0  0  0  0
    7.8712  -14.4348   21.5124 C   0  0  0  0  0  0  0  0  0  0  0  0
    9.1053  -15.2060   21.7818 C   0  0  2  0  0  0  0  0  0  0  0  0
    9.1229  -16.5445   21.2775 N   0  0  0  0  0  0  0  0  0  0  0  0
    9.4770  -15.1983   23.2338 C   0  0  0  0  0  0  0  0  0  0  0  0
    9.7509  -14.1093   23.7794 O   0  0  0  0  0  0  0  0  0  0  0  0
    9.5234  -16.3937   23.9846 N   0  0  0  0  0  0  0  0  0  0  0  0
   10.0272  -16.4561   25.3444 C   0  0  1  0  0  0  0  0  0  0  0  0
    8.9257  -16.6186   26.3491 C   0  0  0  0  0  0  0  0  0  0  0  0
    7.8364  -15.6371   26.1651 C   0  0  0  0  0  0  0  0  0  0  0  0
    6.5368  -15.8214   25.7540 C   0  0  0  0  0  0  0  0  0  0  0  0
    5.8903  -14.6258   25.7316 N   0  0  0  0  0  0  0  0  0  0  0  0
    6.7313  -13.6673   26.1158 C   0  0  0  0  0  0  0  0  0  0  0  0
    6.5989  -12.3141   26.2656 C   0  0  0  0  0  0  0  0  0  0  0  0
    7.6933  -11.5639   26.6911 C   0  0  0  0  0  0  0  0  0  0  0  0
    8.9017  -12.1736   26.9621 C   0  0  0  0  0  0  0  0  0  0  0  0
    9.0369  -13.5336   26.8133 C   0  0  0  0  0  0  0  0  0  0  0  0
    7.9392  -14.2690   26.3880 C   0  0  0  0  0  0  0  0  0  0  0  0
   10.9842  -17.5714   25.5116 C   0  0  0  0  0  0  0  0  0  0  0  0
   11.1824  -18.4382   24.4623 O   0  0  0  0  0  0  0  0  0  0  0  0
   11.5868  -17.7043   26.5872 O   0  0  0  0  0  0  0  0  0  0  0  0
  2  1  1  0
  3  2  2  0
  4  3  1  0
  5  4  2  0
  5 11  1  0
  6  5  1  0
  7  6  1  0
  7  8  1  6
  9 18  1  0
  9  7  1  0
 10  9  2  0
 11 12  2  0
 12  2  1  0
 14 13  1  1
 14 16  1  0
 15 14  1  0
 17 16  1  1
 17 18  1  0
 17 19  1  0
 19 21  1  0
 19 20  2  0
 21 22  1  0
 22 23  1  1
 22 33  1  0
 24 23  1  0
 25 24  2  0
 26 25  1  0
 27 26  1  0
 27 32  2  0
 28 27  1  0
 29 28  2  0
 29 30  1  0
 30 31  2  0
 31 32  1  0
 32 24  1  0
 33 34  1  0
 35 33  2  0
M  END
$$$$
