YLW.pdb
     RDKit          3D

 35 37  0  0  1  0  0  0  0  0999 V2000
    7.0853  -14.7234   27.2967 O   0  0  0  0  0  0  0  0  0  0  0  0
    6.6694  -15.4543   26.1845 C   0  0  0  0  0  0  0  0  0  0  0  0
    6.3638  -14.7565   25.0138 C   0  0  0  0  0  0  0  0  0  0  0  0
    5.9578  -15.4948   23.9369 C   0  0  0  0  0  0  0  0  0  0  0  0
    5.8383  -16.8635   23.9512 C   0  0  0  0  0  0  0  0  0  0  0  0
    5.3826  -17.6053   22.7424 C   0  0  0  0  0  0  0  0  0  0  0  0
    6.3935  -18.6514   22.4128 C   0  0  2  0  0  0  0  0  0  0  0  0
    7.0116  -19.1983   23.6187 N   0  0  0  0  0  0  0  0  0  0  0  0
    7.4666  -18.1523   21.5386 C   0  0  0  0  0  0  0  0  0  0  0  0
    7.4334  -18.3103   20.2841 O   0  0  0  0  0  0  0  0  0  0  0  0
    6.1414  -17.5530   25.1099 C   0  0  0  0  0  0  0  0  0  0  0  0
    6.5601  -16.8291   26.2292 C   0  0  0  0  0  0  0  0  0  0  0  0
    7.8480  -12.7977   21.4864 C   0  0  0  0  0  0  0  0  0  0  0  0
    8.4631  -13.9468   20.6609 C   0  0  2  0  0  0  0  0  0  0  0  0
    7.9276  -13.7965   19.2496 C   0  0  0  0  0  0  0  0  0  0  0  0
    8.0064  -15.2045   21.3411 C   0  0  0  0  0  0  0  0  0  0  0  0
    9.0368  -16.2439   21.5608 C   0  0  2  0  0  0  0  0  0  0  0  0
    8.5726  -17.4638   22.1459 N   0  0  0  0  0  0  0  0  0  0  0  0
   10.2176  -15.7240   22.3236 C   0  0  0  0  0  0  0  0  0  0  0  0
   10.9402  -14.8539   21.7951 O   0  0  0  0  0  0  0  0  0  0  0  0
   10.5221  -16.2017   23.6175 N   0  0  0  0  0  0  0  0  0  0  0  0
   11.7923  -15.9543   24.2748 C   0  0  1  0  0  0  0  0  0  0  0  0
   11.6322  -15.7270   25.7484 C   0  0  0  0  0  0  0  0  0  0  0  0
   10.2171  -15.6048   26.1563 C   0  0  0  0  0  0  0  0  0  0  0  0
    9.2722  -16.5785   26.3826 C   0  0  0  0  0  0  0  0  0  0  0  0
    8.0961  -15.9997   26.7426 N   0  0  0  0  0  0  0  0  0  0  0  0
    8.2470  -14.6765   26.7570 C   0  0  0  0  0  0  0  0  0  0  0  0
    7.3972  -13.6432   27.0416 C   0  0  0  0  0  0  0  0  0  0  0  0
    7.8645  -12.3330   26.9613 C   0  0  0  0  0  0  0  0  0  0  0  0
    9.1711  -12.0728   26.6001 C   0  0  0  0  0  0  0  0  0  0  0  0
   10.0274  -13.1099   26.3146 C   0  0  0  0  0  0  0  0  0  0  0  0
    9.5489  -14.4102   26.3977 C   0  0  0  0  0  0  0  0  0  0  0  0
   12.7299  -17.0801   24.0719 C   0  0  0  0  0  0  0  0  0  0  0  0
   12.2851  -18.2036   23.4151 O   0  0  0  0  0  0  0  0  0  0  0  0
   13.8924  -16.9917   24.4945 O   0  0  0  0  0  0  0  0  0  0  0  0
  2  1  1  0
  3  2  2  0
  4  3  1  0
  5  4  2  0
  5 11  1  0
  6  5  1  0
  7  6  1  0
  7  8  1  1
  9 18  1  0
  9  7  1  0
 10  9  2  0
 11 12  2  0
 12  2  1  0
 14 13  1  1
 14 16  1  0
 15 14  1  0
 17 16  1  1
 17 18  1  0
 17 19  1  0
 19 21  1  0
 19 20  2  0
 21 22  1  0
 22 23  1  1
 22 33  1  0
 24 23  1  0
 25 24  2  0
 26 25  1  0
 27 26  1  0
 27 32  2  0
 28 27  1  0
 29 28  2  0
 29 30  1  0
 30 31  2  0
 31 32  1  0
 32 24  1  0
 33 34  1  0
 35 33  2  0
M  END
$$$$
