YLW.pdb
     RDKit          3D

 35 37  0  0  1  0  0  0  0  0999 V2000
    0.6964  -20.6022   21.7028 O   0  0  0  0  0  0  0  0  0  0  0  0
    1.9409  -19.9938   21.8615 C   0  0  0  0  0  0  0  0  0  0  0  0
    2.8663  -20.5987   22.7149 C   0  0  0  0  0  0  0  0  0  0  0  0
    4.0793  -19.9832   22.8549 C   0  0  0  0  0  0  0  0  0  0  0  0
    4.4243  -18.8207   22.2088 C   0  0  0  0  0  0  0  0  0  0  0  0
    5.7627  -18.1991   22.4129 C   0  0  0  0  0  0  0  0  0  0  0  0
    6.4749  -18.1543   21.1031 C   0  0  2  0  0  0  0  0  0  0  0  0
    6.6871  -19.4950   20.5622 N   0  0  0  0  0  0  0  0  0  0  0  0
    7.7832  -17.4862   21.1879 C   0  0  0  0  0  0  0  0  0  0  0  0
    8.8676  -18.1220   21.0481 O   0  0  0  0  0  0  0  0  0  0  0  0
    3.5081  -18.2232   21.3643 C   0  0  0  0  0  0  0  0  0  0  0  0
    2.2587  -18.8264   21.1980 C   0  0  0  0  0  0  0  0  0  0  0  0
    8.5697  -13.9606   18.6499 C   0  0  0  0  0  0  0  0  0  0  0  0
    7.9548  -13.5530   20.0049 C   0  0  2  0  0  0  0  0  0  0  0  0
    7.7081  -12.0580   19.9326 C   0  0  0  0  0  0  0  0  0  0  0  0
    8.9798  -13.9393   21.0312 C   0  0  0  0  0  0  0  0  0  0  0  0
    9.0584  -15.3772   21.3724 C   0  0  2  0  0  0  0  0  0  0  0  0
    7.8083  -16.0700   21.4317 N   0  0  0  0  0  0  0  0  0  0  0  0
    9.8434  -15.6240   22.6251 C   0  0  0  0  0  0  0  0  0  0  0  0
   11.0406  -15.2724   22.6644 O   0  0  0  0  0  0  0  0  0  0  0  0
    9.2541  -16.2443   23.7488 N   0  0  0  0  0  0  0  0  0  0  0  0
   10.0023  -16.5999   24.9406 C   0  0  1  0  0  0  0  0  0  0  0  0
    9.7384  -15.6574   26.0768 C   0  0  0  0  0  0  0  0  0  0  0  0
    8.3162  -15.2686   26.1768 C   0  0  0  0  0  0  0  0  0  0  0  0
    7.1771  -16.0209   26.0077 C   0  0  0  0  0  0  0  0  0  0  0  0
    6.0808  -15.2400   26.1976 N   0  0  0  0  0  0  0  0  0  0  0  0
    6.4725  -14.0000   26.4852 C   0  0  0  0  0  0  0  0  0  0  0  0
    5.7914  -12.8455   26.7577 C   0  0  0  0  0  0  0  0  0  0  0  0
    6.5047  -11.6781   27.0221 C   0  0  0  0  0  0  0  0  0  0  0  0
    7.8850  -11.6794   27.0123 C   0  0  0  0  0  0  0  0  0  0  0  0
    8.5717  -12.8388   26.7398 C   0  0  0  0  0  0  0  0  0  0  0  0
    7.8490  -13.9945   26.4773 C   0  0  0  0  0  0  0  0  0  0  0  0
    9.6821  -17.9737   25.3854 C   0  0  0  0  0  0  0  0  0  0  0  0
   10.4930  -18.5743   26.3198 O   0  0  0  0  0  0  0  0  0  0  0  0
    8.6949  -18.5557   24.9114 O   0  0  0  0  0  0  0  0  0  0  0  0
  2  1  1  0
  3  2  2  0
  4  3  1  0
  5  4  2  0
  5 11  1  0
  6  5  1  0
  7  6  1  0
  7  8  1  1
  9 18  1  0
  9  7  1  0
 10  9  2  0
 11 12  2  0
 12  2  1  0
 14 13  1  6
 14 16  1  0
 15 14  1  0
 17 16  1  1
 17 18  1  0
 17 19  1  0
 19 21  1  0
 19 20  2  0
 21 22  1  0
 22 23  1  1
 22 33  1  0
 24 23  1  0
 25 24  2  0
 26 25  1  0
 27 26  1  0
 27 32  2  0
 28 27  1  0
 29 28  2  0
 29 30  1  0
 30 31  2  0
 31 32  1  0
 32 24  1  0
 33 34  1  0
 35 33  2  0
M  END
$$$$
