YLW.pdb
     RDKit          3D

 35 37  0  0  1  0  0  0  0  0999 V2000
    7.0237  -13.4689   14.7451 O   0  0  0  0  0  0  0  0  0  0  0  0
    7.2690  -13.8821   16.0541 C   0  0  0  0  0  0  0  0  0  0  0  0
    7.4345  -15.2479   16.2942 C   0  0  0  0  0  0  0  0  0  0  0  0
    7.6732  -15.6287   17.5856 C   0  0  0  0  0  0  0  0  0  0  0  0
    7.7563  -14.7489   18.6378 C   0  0  0  0  0  0  0  0  0  0  0  0
    8.0120  -15.2334   20.0231 C   0  0  0  0  0  0  0  0  0  0  0  0
    9.2620  -14.5969   20.5302 C   0  0  2  0  0  0  0  0  0  0  0  0
   10.4031  -14.8942   19.6672 N   0  0  0  0  0  0  0  0  0  0  0  0
    9.6038  -15.0207   21.8972 C   0  0  0  0  0  0  0  0  0  0  0  0
   10.6576  -15.6726   22.1501 O   0  0  0  0  0  0  0  0  0  0  0  0
    7.5928  -13.3976   18.3990 C   0  0  0  0  0  0  0  0  0  0  0  0
    7.3479  -12.9741   17.0902 C   0  0  0  0  0  0  0  0  0  0  0  0
    7.9286  -12.1070   24.4851 C   0  0  0  0  0  0  0  0  0  0  0  0
    7.2293  -13.4024   24.9469 C   0  0  2  0  0  0  0  0  0  0  0  0
    6.3029  -13.0097   26.0820 C   0  0  0  0  0  0  0  0  0  0  0  0
    8.3413  -14.3159   25.3737 C   0  0  0  0  0  0  0  0  0  0  0  0
    9.0187  -15.0735   24.2978 C   0  0  2  0  0  0  0  0  0  0  0  0
    8.7045  -14.6696   22.9621 N   0  0  0  0  0  0  0  0  0  0  0  0
    8.8393  -16.5544   24.4433 C   0  0  0  0  0  0  0  0  0  0  0  0
    7.7236  -16.9945   24.7897 O   0  0  0  0  0  0  0  0  0  0  0  0
    9.9045  -17.4491   24.1987 N   0  0  0  0  0  0  0  0  0  0  0  0
   10.8388  -17.8684   25.2273 C   0  0  1  0  0  0  0  0  0  0  0  0
   11.2553  -16.7310   26.1115 C   0  0  0  0  0  0  0  0  0  0  0  0
   10.8419  -16.9205   27.5176 C   0  0  0  0  0  0  0  0  0  0  0  0
   10.7752  -18.0665   28.2755 C   0  0  0  0  0  0  0  0  0  0  0  0
   10.3370  -17.7629   29.5259 N   0  0  0  0  0  0  0  0  0  0  0  0
   10.1156  -16.4519   29.6048 C   0  0  0  0  0  0  0  0  0  0  0  0
    9.6750  -15.6386   30.6124 C   0  0  0  0  0  0  0  0  0  0  0  0
    9.5397  -14.2720   30.3771 C   0  0  0  0  0  0  0  0  0  0  0  0
    9.8468  -13.7368   29.1423 C   0  0  0  0  0  0  0  0  0  0  0  0
   10.2908  -14.5522   28.1283 C   0  0  0  0  0  0  0  0  0  0  0  0
   10.4203  -15.9118   28.3758 C   0  0  0  0  0  0  0  0  0  0  0  0
   10.2618  -18.9352   26.0740 C   0  0  0  0  0  0  0  0  0  0  0  0
   11.1121  -19.7662   26.7652 O   0  0  0  0  0  0  0  0  0  0  0  0
    9.0301  -19.0604   26.1453 O   0  0  0  0  0  0  0  0  0  0  0  0
  2  1  1  0
  3  2  2  0
  4  3  1  0
  5  4  2  0
  5 11  1  0
  6  5  1  0
  7  6  1  0
  7  8  1  6
  9 18  1  0
  9  7  1  0
 10  9  2  0
 11 12  2  0
 12  2  1  0
 14 13  1  1
 14 16  1  0
 15 14  1  0
 17 16  1  1
 17 18  1  0
 17 19  1  0
 19 21  1  0
 19 20  2  0
 21 22  1  0
 22 23  1  1
 22 33  1  0
 24 23  1  0
 25 24  2  0
 26 25  1  0
 27 26  1  0
 27 32  2  0
 28 27  1  0
 29 28  2  0
 29 30  1  0
 30 31  2  0
 31 32  1  0
 32 24  1  0
 33 34  1  0
 35 33  2  0
M  END
$$$$
