YLW.pdb
     RDKit          3D

 35 37  0  0  1  0  0  0  0  0999 V2000
   11.7410  -23.0956   16.6756 O   0  0  0  0  0  0  0  0  0  0  0  0
   11.6734  -21.7946   17.1728 C   0  0  0  0  0  0  0  0  0  0  0  0
   12.3296  -21.5126   18.3730 C   0  0  0  0  0  0  0  0  0  0  0  0
   12.2485  -20.2302   18.8407 C   0  0  0  0  0  0  0  0  0  0  0  0
   11.5653  -19.2256   18.1989 C   0  0  0  0  0  0  0  0  0  0  0  0
   11.5114  -17.8504   18.7690 C   0  0  0  0  0  0  0  0  0  0  0  0
   11.0048  -17.9319   20.1696 C   0  0  2  0  0  0  0  0  0  0  0  0
    9.6418  -18.4567   20.2169 N   0  0  0  0  0  0  0  0  0  0  0  0
   11.0146  -16.6306   20.8563 C   0  0  0  0  0  0  0  0  0  0  0  0
   12.0689  -15.9400   20.9628 O   0  0  0  0  0  0  0  0  0  0  0  0
   10.9167  -19.5055   17.0112 C   0  0  0  0  0  0  0  0  0  0  0  0
   10.9800  -20.8062   16.5046 C   0  0  0  0  0  0  0  0  0  0  0  0
    9.0972  -12.7866   19.9920 C   0  0  0  0  0  0  0  0  0  0  0  0
    8.0596  -13.7906   20.5356 C   0  0  2  0  0  0  0  0  0  0  0  0
    6.7141  -13.0926   20.4764 C   0  0  0  0  0  0  0  0  0  0  0  0
    8.5101  -14.0996   21.9337 C   0  0  0  0  0  0  0  0  0  0  0  0
    9.7651  -14.8730   22.0637 C   0  0  2  0  0  0  0  0  0  0  0  0
    9.7803  -16.1454   21.4103 N   0  0  0  0  0  0  0  0  0  0  0  0
   10.1977  -15.0223   23.4910 C   0  0  0  0  0  0  0  0  0  0  0  0
   10.7883  -14.0714   24.0437 O   0  0  0  0  0  0  0  0  0  0  0  0
    9.9509  -16.2123   24.2107 N   0  0  0  0  0  0  0  0  0  0  0  0
   10.4452  -16.4414   25.5560 C   0  0  1  0  0  0  0  0  0  0  0  0
    9.7577  -15.5732   26.5671 C   0  0  0  0  0  0  0  0  0  0  0  0
    8.3251  -15.3714   26.2658 C   0  0  0  0  0  0  0  0  0  0  0  0
    7.4014  -16.2375   25.7285 C   0  0  0  0  0  0  0  0  0  0  0  0
    6.1958  -15.6171   25.6302 N   0  0  0  0  0  0  0  0  0  0  0  0
    6.3072  -14.3713   26.0877 C   0  0  0  0  0  0  0  0  0  0  0  0
    5.4182  -13.3391   26.2107 C   0  0  0  0  0  0  0  0  0  0  0  0
    5.8515  -12.1237   26.7366 C   0  0  0  0  0  0  0  0  0  0  0  0
    7.1631  -11.9562   27.1329 C   0  0  0  0  0  0  0  0  0  0  0  0
    8.0582  -12.9925   27.0112 C   0  0  0  0  0  0  0  0  0  0  0  0
    7.6137  -14.1976   26.4850 C   0  0  0  0  0  0  0  0  0  0  0  0
   10.2750  -17.8550   25.9569 C   0  0  0  0  0  0  0  0  0  0  0  0
   10.8347  -18.2813   27.1386 O   0  0  0  0  0  0  0  0  0  0  0  0
    9.6349  -18.6253   25.2257 O   0  0  0  0  0  0  0  0  0  0  0  0
  2  1  1  0
  3  2  2  0
  4  3  1  0
  5  4  2  0
  5 11  1  0
  6  5  1  0
  7  6  1  0
  7  8  1  6
  9 18  1  0
  9  7  1  0
 10  9  2  0
 11 12  2  0
 12  2  1  0
 14 13  1  1
 14 16  1  0
 15 14  1  0
 17 16  1  1
 17 18  1  0
 17 19  1  0
 19 21  1  0
 19 20  2  0
 21 22  1  0
 22 23  1  1
 22 33  1  0
 24 23  1  0
 25 24  2  0
 26 25  1  0
 27 26  1  0
 27 32  2  0
 28 27  1  0
 29 28  2  0
 29 30  1  0
 30 31  2  0
 31 32  1  0
 32 24  1  0
 33 34  1  0
 35 33  2  0
M  END
$$$$
