YLW.pdb
     RDKit          3D

 35 37  0  0  1  0  0  0  0  0999 V2000
    3.7320  -23.7934   22.6513 O   0  0  0  0  0  0  0  0  0  0  0  0
    4.6947  -22.7847   22.6526 C   0  0  0  0  0  0  0  0  0  0  0  0
    6.0383  -23.1559   22.7392 C   0  0  0  0  0  0  0  0  0  0  0  0
    6.9637  -22.1493   22.7393 C   0  0  0  0  0  0  0  0  0  0  0  0
    6.6411  -20.8160   22.6601 C   0  0  0  0  0  0  0  0  0  0  0  0
    7.7011  -19.7694   22.6727 C   0  0  0  0  0  0  0  0  0  0  0  0
    7.8117  -19.1830   21.3057 C   0  0  2  0  0  0  0  0  0  0  0  0
    8.1961  -20.1906   20.3197 N   0  0  0  0  0  0  0  0  0  0  0  0
    8.7859  -18.0826   21.2342 C   0  0  0  0  0  0  0  0  0  0  0  0
    9.9936  -18.2800   20.9141 O   0  0  0  0  0  0  0  0  0  0  0  0
    5.3114  -20.4498   22.5740 C   0  0  0  0  0  0  0  0  0  0  0  0
    4.3396  -21.4538   22.5707 C   0  0  0  0  0  0  0  0  0  0  0  0
    8.0275  -14.3142   18.8421 C   0  0  0  0  0  0  0  0  0  0  0  0
    7.4860  -14.3404   20.2865 C   0  0  2  0  0  0  0  0  0  0  0  0
    6.6337  -13.0961   20.4487 C   0  0  0  0  0  0  0  0  0  0  0  0
    8.7060  -14.3457   21.1610 C   0  0  0  0  0  0  0  0  0  0  0  0
    9.2693  -15.6729   21.4949 C   0  0  2  0  0  0  0  0  0  0  0  0
    8.3317  -16.7525   21.5351 N   0  0  0  0  0  0  0  0  0  0  0  0
   10.0794  -15.6478   22.7557 C   0  0  0  0  0  0  0  0  0  0  0  0
   11.1106  -14.9453   22.7947 O   0  0  0  0  0  0  0  0  0  0  0  0
    9.6974  -16.4019   23.8872 N   0  0  0  0  0  0  0  0  0  0  0  0
   10.3687  -16.3007   25.1701 C   0  0  1  0  0  0  0  0  0  0  0  0
    9.9694  -15.0660   25.9219 C   0  0  0  0  0  0  0  0  0  0  0  0
    8.5046  -14.8770   25.9715 C   0  0  0  0  0  0  0  0  0  0  0  0
    7.4868  -15.7867   25.8023 C   0  0  0  0  0  0  0  0  0  0  0  0
    6.2874  -15.1610   25.9351 N   0  0  0  0  0  0  0  0  0  0  0  0
    6.4940  -13.8694   26.1856 C   0  0  0  0  0  0  0  0  0  0  0  0
    5.6511  -12.8131   26.3973 C   0  0  0  0  0  0  0  0  0  0  0  0
    6.1868  -11.5491   26.6354 C   0  0  0  0  0  0  0  0  0  0  0  0
    7.5536  -11.3575   26.6603 C   0  0  0  0  0  0  0  0  0  0  0  0
    8.4027  -12.4178   26.4489 C   0  0  0  0  0  0  0  0  0  0  0  0
    7.8560  -13.6714   26.2120 C   0  0  0  0  0  0  0  0  0  0  0  0
   10.0863  -17.4792   26.0181 C   0  0  0  0  0  0  0  0  0  0  0  0
   10.8166  -17.6580   27.1697 O   0  0  0  0  0  0  0  0  0  0  0  0
    9.2022  -18.2797   25.6782 O   0  0  0  0  0  0  0  0  0  0  0  0
  2  1  1  0
  3  2  2  0
  4  3  1  0
  5  4  2  0
  5 11  1  0
  6  5  1  0
  7  6  1  0
  7  8  1  6
  9 18  1  0
  9  7  1  0
 10  9  2  0
 11 12  2  0
 12  2  1  0
 14 13  1  6
 14 16  1  0
 15 14  1  0
 17 16  1  1
 17 18  1  0
 17 19  1  0
 19 21  1  0
 19 20  2  0
 21 22  1  0
 22 23  1  1
 22 33  1  0
 24 23  1  0
 25 24  2  0
 26 25  1  0
 27 26  1  0
 27 32  2  0
 28 27  1  0
 29 28  2  0
 29 30  1  0
 30 31  2  0
 31 32  1  0
 32 24  1  0
 33 34  1  0
 35 33  2  0
M  END
$$$$
