YLW.pdb
     RDKit          3D

 35 37  0  0  1  0  0  0  0  0999 V2000
   10.5053  -23.1428   16.5061 O   0  0  0  0  0  0  0  0  0  0  0  0
   10.5060  -21.8466   17.0200 C   0  0  0  0  0  0  0  0  0  0  0  0
   11.6023  -21.4411   17.7844 C   0  0  0  0  0  0  0  0  0  0  0  0
   11.5799  -20.1662   18.2779 C   0  0  0  0  0  0  0  0  0  0  0  0
   10.5503  -19.2822   18.0623 C   0  0  0  0  0  0  0  0  0  0  0  0
   10.5873  -17.9083   18.6368 C   0  0  0  0  0  0  0  0  0  0  0  0
   10.4608  -18.0055   20.1198 C   0  0  2  0  0  0  0  0  0  0  0  0
    9.1977  -18.6279   20.5104 N   0  0  0  0  0  0  0  0  0  0  0  0
   10.5476  -16.6967   20.7866 C   0  0  0  0  0  0  0  0  0  0  0  0
   11.5933  -15.9873   20.7310 O   0  0  0  0  0  0  0  0  0  0  0  0
    9.4662  -19.6843   17.3055 C   0  0  0  0  0  0  0  0  0  0  0  0
    9.4573  -20.9811   16.7852 C   0  0  0  0  0  0  0  0  0  0  0  0
    8.8538  -12.9697   19.8187 C   0  0  0  0  0  0  0  0  0  0  0  0
    7.7987  -13.9078   20.4407 C   0  0  2  0  0  0  0  0  0  0  0  0
    6.4617  -13.2056   20.2977 C   0  0  0  0  0  0  0  0  0  0  0  0
    8.2283  -14.0876   21.8676 C   0  0  0  0  0  0  0  0  0  0  0  0
    9.4319  -14.9190   22.0916 C   0  0  2  0  0  0  0  0  0  0  0  0
    9.3995  -16.2264   21.5122 N   0  0  0  0  0  0  0  0  0  0  0  0
    9.8020  -15.0077   23.5414 C   0  0  0  0  0  0  0  0  0  0  0  0
   10.0843  -13.9584   24.1560 O   0  0  0  0  0  0  0  0  0  0  0  0
    9.8376  -16.2493   24.2138 N   0  0  0  0  0  0  0  0  0  0  0  0
   10.2149  -16.3841   25.6089 C   0  0  1  0  0  0  0  0  0  0  0  0
    9.0349  -16.6696   26.4892 C   0  0  0  0  0  0  0  0  0  0  0  0
    7.8338  -15.9015   26.1002 C   0  0  0  0  0  0  0  0  0  0  0  0
    6.7389  -16.2825   25.3599 C   0  0  0  0  0  0  0  0  0  0  0  0
    5.8732  -15.2398   25.2541 N   0  0  0  0  0  0  0  0  0  0  0  0
    6.3725  -14.1900   25.9038 C   0  0  0  0  0  0  0  0  0  0  0  0
    5.9193  -12.9153   26.1058 C   0  0  0  0  0  0  0  0  0  0  0  0
    6.6939  -12.0244   26.8459 C   0  0  0  0  0  0  0  0  0  0  0  0
    7.9070  -12.4176   27.3743 C   0  0  0  0  0  0  0  0  0  0  0  0
    8.3641  -13.6986   27.1735 C   0  0  0  0  0  0  0  0  0  0  0  0
    7.5830  -14.5757   26.4337 C   0  0  0  0  0  0  0  0  0  0  0  0
   11.2110  -17.4617   25.7937 C   0  0  0  0  0  0  0  0  0  0  0  0
   11.5307  -18.2606   24.7209 O   0  0  0  0  0  0  0  0  0  0  0  0
   11.7368  -17.6246   26.9050 O   0  0  0  0  0  0  0  0  0  0  0  0
  2  1  1  0
  3  2  2  0
  4  3  1  0
  5  4  2  0
  5 11  1  0
  6  5  1  0
  7  6  1  0
  7  8  1  6
  9 18  1  0
  9  7  1  0
 10  9  2  0
 11 12  2  0
 12  2  1  0
 14 13  1  6
 14 16  1  0
 15 14  1  0
 17 16  1  1
 17 18  1  0
 17 19  1  0
 19 21  1  0
 19 20  2  0
 21 22  1  0
 22 23  1  1
 22 33  1  0
 24 23  1  0
 25 24  2  0
 26 25  1  0
 27 26  1  0
 27 32  2  0
 28 27  1  0
 29 28  2  0
 29 30  1  0
 30 31  2  0
 31 32  1  0
 32 24  1  0
 33 34  1  0
 35 33  2  0
M  END
$$$$
