LSA.pdb
     RDKit          3D

 20 19  0  0  1  0  0  0  0  0999 V2000
   25.1217  -11.8567  -17.7273 C   0  0  0  0  0  0  0  0  0  0  0  0
   23.7970  -12.2519  -17.0229 C   0  0  1  0  0  0  0  0  0  0  0  0
   24.1992  -12.8136  -15.6730 C   0  0  0  0  0  0  0  0  0  0  0  0
   22.9949  -11.0129  -16.9821 C   0  0  0  0  0  0  0  0  0  0  0  0
   21.6993  -11.0571  -16.2745 C   0  0  2  0  0  0  0  0  0  0  0  0
   20.7744  -11.9615  -17.0155 N   0  0  0  0  0  0  0  0  0  0  0  0
   21.0027   -9.7728  -16.1493 C   0  0  0  0  0  0  0  0  0  0  0  0
   20.6448   -9.0454  -17.1087 O   0  0  0  0  0  0  0  0  0  0  0  0
   19.7001   -8.4849  -12.3522 O   0  0  0  0  0  0  0  0  0  0  0  0
   19.0596   -8.0914  -13.4994 C   0  0  0  0  0  0  0  0  0  0  0  0
   19.9782   -8.0384  -14.7003 C   0  0  2  0  0  0  0  0  0  0  0  0
   20.6865   -9.2724  -14.8501 N   0  0  0  0  0  0  0  0  0  0  0  0
   20.9520   -6.9142  -14.5886 C   0  0  0  0  0  0  0  0  0  0  0  0
   22.0700   -7.1013  -14.0479 O   0  0  0  0  0  0  0  0  0  0  0  0
   20.9901   -3.3991  -15.8162 C   0  0  0  0  0  0  0  0  0  0  0  0
   21.5324   -4.5538  -14.9901 C   0  0  2  0  0  0  0  0  0  0  0  0
   20.5916   -5.6481  -15.0993 N   0  0  0  0  0  0  0  0  0  0  0  0
   21.5503   -4.1455  -13.5559 C   0  0  0  0  0  0  0  0  0  0  0  0
   20.7196   -4.5613  -12.7129 O   0  0  0  0  0  0  0  0  0  0  0  0
   22.5215   -3.2584  -13.0833 O   0  0  0  0  0  0  0  0  0  0  0  0
  2  1  1  6
  3  2  1  0
  4  2  1  0
  4  5  1  0
  5  7  1  0
  5  6  1  6
  7  8  2  0
  9 10  1  0
 11 10  1  1
 11 13  1  0
 12 11  1  0
 12  7  1  0
 13 14  2  0
 13 17  1  0
 16 15  1  6
 16 18  1  0
 17 16  1  0
 18 19  2  0
 18 20  1  0
M  END
$$$$
