LSA.pdb
     RDKit          3D

 20 19  0  0  1  0  0  0  0  0999 V2000
   25.8329  -19.6006  -20.4074 C   0  0  0  0  0  0  0  0  0  0  0  0
   24.6889  -18.7901  -19.7429 C   0  0  1  0  0  0  0  0  0  0  0  0
   23.6823  -18.5186  -20.8439 C   0  0  0  0  0  0  0  0  0  0  0  0
   24.2056  -19.6383  -18.6352 C   0  0  0  0  0  0  0  0  0  0  0  0
   23.0145  -19.1819  -17.8906 C   0  0  2  0  0  0  0  0  0  0  0  0
   23.3765  -17.9768  -17.0912 N   0  0  0  0  0  0  0  0  0  0  0  0
   22.4526  -20.1487  -16.9419 C   0  0  0  0  0  0  0  0  0  0  0  0
   22.5435  -21.3976  -17.0400 O   0  0  0  0  0  0  0  0  0  0  0  0
   20.6449  -18.7992  -13.3472 O   0  0  0  0  0  0  0  0  0  0  0  0
   21.2545  -20.0232  -13.4534 C   0  0  0  0  0  0  0  0  0  0  0  0
   21.1909  -20.5954  -14.8526 C   0  0  2  0  0  0  0  0  0  0  0  0
   21.7374  -19.6743  -15.8010 N   0  0  0  0  0  0  0  0  0  0  0  0
   19.7900  -20.9348  -15.2361 C   0  0  0  0  0  0  0  0  0  0  0  0
   19.0909  -20.1029  -15.8659 O   0  0  0  0  0  0  0  0  0  0  0  0
   17.7881  -24.0492  -15.1978 C   0  0  0  0  0  0  0  0  0  0  0  0
   17.9179  -22.5361  -15.2569 C   0  0  2  0  0  0  0  0  0  0  0  0
   19.2736  -22.1993  -14.8785 N   0  0  0  0  0  0  0  0  0  0  0  0
   17.0237  -21.9410  -14.2224 C   0  0  0  0  0  0  0  0  0  0  0  0
   17.4452  -21.4700  -13.1389 O   0  0  0  0  0  0  0  0  0  0  0  0
   15.6423  -21.8841  -14.4271 O   0  0  0  0  0  0  0  0  0  0  0  0
  2  1  1  6
  3  2  1  0
  4  2  1  0
  4  5  1  0
  5  7  1  0
  5  6  1  1
  7  8  2  0
  9 10  1  0
 11 10  1  1
 11 13  1  0
 12 11  1  0
 12  7  1  0
 13 14  2  0
 13 17  1  0
 16 15  1  1
 16 18  1  0
 17 16  1  0
 18 19  2  0
 18 20  1  0
M  END
$$$$
