LSA.pdb
     RDKit          3D

 20 19  0  0  1  0  0  0  0  0999 V2000
   17.2284  -10.2426  -17.7796 C   0  0  0  0  0  0  0  0  0  0  0  0
   18.1323  -10.4376  -16.5337 C   0  0  1  0  0  0  0  0  0  0  0  0
   19.4881  -10.8554  -17.0691 C   0  0  0  0  0  0  0  0  0  0  0  0
   18.1005   -9.1427  -15.8251 C   0  0  0  0  0  0  0  0  0  0  0  0
   18.9661   -8.9882  -14.6383 C   0  0  2  0  0  0  0  0  0  0  0  0
   18.3891   -9.7779  -13.5131 N   0  0  0  0  0  0  0  0  0  0  0  0
   19.1185   -7.6174  -14.1404 C   0  0  0  0  0  0  0  0  0  0  0  0
   18.2648   -6.9930  -13.4628 O   0  0  0  0  0  0  0  0  0  0  0  0
   22.2077   -5.8432  -12.2927 O   0  0  0  0  0  0  0  0  0  0  0  0
   21.9240   -5.3226  -13.5294 C   0  0  0  0  0  0  0  0  0  0  0  0
   20.4916   -5.5590  -13.9554 C   0  0  2  0  0  0  0  0  0  0  0  0
   20.3185   -6.8988  -14.4261 N   0  0  0  0  0  0  0  0  0  0  0  0
   20.0770   -4.5987  -15.0187 C   0  0  0  0  0  0  0  0  0  0  0  0
   20.4424   -4.7789  -16.2068 O   0  0  0  0  0  0  0  0  0  0  0  0
   17.5964   -1.8928  -15.2592 C   0  0  0  0  0  0  0  0  0  0  0  0
   18.9075   -2.5344  -15.6823 C   0  0  2  0  0  0  0  0  0  0  0  0
   19.2728   -3.4942  -14.6626 N   0  0  0  0  0  0  0  0  0  0  0  0
   19.9700   -1.4878  -15.6861 C   0  0  0  0  0  0  0  0  0  0  0  0
   19.9775   -0.5196  -16.4836 O   0  0  0  0  0  0  0  0  0  0  0  0
   21.0279   -1.5481  -14.7748 O   0  0  0  0  0  0  0  0  0  0  0  0
  2  1  1  6
  3  2  1  0
  4  2  1  0
  4  5  1  0
  5  7  1  0
  5  6  1  1
  7  8  2  0
  9 10  1  0
 11 10  1  6
 11 13  1  0
 12 11  1  0
 12  7  1  0
 13 14  2  0
 13 17  1  0
 16 15  1  1
 16 18  1  0
 17 16  1  0
 18 19  2  0
 18 20  1  0
M  END
$$$$
