LSA.pdb
     RDKit          3D

 20 19  0  0  1  0  0  0  0  0999 V2000
   25.6886  -33.3823  -15.7919 C   0  0  0  0  0  0  0  0  0  0  0  0
   27.0675  -33.2082  -16.4814 C   0  0  1  0  0  0  0  0  0  0  0  0
   26.7986  -33.3008  -17.9708 C   0  0  0  0  0  0  0  0  0  0  0  0
   27.5764  -31.9058  -16.0074 C   0  0  0  0  0  0  0  0  0  0  0  0
   28.8717  -31.4392  -16.5421 C   0  0  2  0  0  0  0  0  0  0  0  0
   29.9731  -32.1181  -15.8014 N   0  0  0  0  0  0  0  0  0  0  0  0
   29.1243  -29.9998  -16.4220 C   0  0  0  0  0  0  0  0  0  0  0  0
   29.5520  -29.4221  -15.3919 O   0  0  0  0  0  0  0  0  0  0  0  0
   29.3653  -27.1926  -19.8159 O   0  0  0  0  0  0  0  0  0  0  0  0
   30.0727  -27.3603  -18.6530 C   0  0  0  0  0  0  0  0  0  0  0  0
   29.2001  -27.7579  -17.4828 C   0  0  2  0  0  0  0  0  0  0  0  0
   28.8776  -29.1504  -17.5427 N   0  0  0  0  0  0  0  0  0  0  0  0
   27.9433  -26.9554  -17.4466 C   0  0  0  0  0  0  0  0  0  0  0  0
   26.8649  -27.4564  -17.8508 O   0  0  0  0  0  0  0  0  0  0  0  0
   27.1213  -23.4926  -16.3318 C   0  0  0  0  0  0  0  0  0  0  0  0
   26.7859  -24.8363  -16.9576 C   0  0  2  0  0  0  0  0  0  0  0  0
   27.9937  -25.6337  -16.9527 N   0  0  0  0  0  0  0  0  0  0  0  0
   26.4223  -24.6179  -18.3873 C   0  0  0  0  0  0  0  0  0  0  0  0
   27.2680  -24.5783  -19.3128 O   0  0  0  0  0  0  0  0  0  0  0  0
   25.0867  -24.4439  -18.7606 O   0  0  0  0  0  0  0  0  0  0  0  0
  2  1  1  1
  3  2  1  0
  4  2  1  0
  4  5  1  0
  5  7  1  0
  5  6  1  1
  7  8  2  0
  9 10  1  0
 11 10  1  6
 11 13  1  0
 12 11  1  0
 12  7  1  0
 13 14  2  0
 13 17  1  0
 16 15  1  6
 16 18  1  0
 17 16  1  0
 18 19  2  0
 18 20  1  0
M  END
$$$$
