LSA.pdb
     RDKit          3D

 20 19  0  0  1  0  0  0  0  0999 V2000
   15.0319   -6.3893   -7.5653 C   0  0  0  0  0  0  0  0  0  0  0  0
   14.8039   -7.4111   -8.7104 C   0  0  1  0  0  0  0  0  0  0  0  0
   13.5172   -6.9869   -9.3916 C   0  0  0  0  0  0  0  0  0  0  0  0
   16.0194   -7.3358   -9.5451 C   0  0  0  0  0  0  0  0  0  0  0  0
   16.0774   -8.1860  -10.7514 C   0  0  2  0  0  0  0  0  0  0  0  0
   16.3252   -9.5965  -10.3372 N   0  0  0  0  0  0  0  0  0  0  0  0
   17.1331   -7.8501  -11.7120 C   0  0  0  0  0  0  0  0  0  0  0  0
   18.3227   -8.2490  -11.6511 O   0  0  0  0  0  0  0  0  0  0  0  0
   16.1849   -5.4808  -15.0763 O   0  0  0  0  0  0  0  0  0  0  0  0
   17.1461   -6.4557  -15.1580 C   0  0  0  0  0  0  0  0  0  0  0  0
   17.8082   -6.7453  -13.8288 C   0  0  2  0  0  0  0  0  0  0  0  0
   16.8268   -7.0044  -12.8207 N   0  0  0  0  0  0  0  0  0  0  0  0
   18.6788   -5.6131  -13.3989 C   0  0  0  0  0  0  0  0  0  0  0  0
   18.2293   -4.7326  -12.6242 O   0  0  0  0  0  0  0  0  0  0  0  0
   22.2808   -4.8101  -13.8970 C   0  0  0  0  0  0  0  0  0  0  0  0
   20.8769   -4.5005  -13.4043 C   0  0  2  0  0  0  0  0  0  0  0  0
   20.0057   -5.5546  -13.8779 N   0  0  0  0  0  0  0  0  0  0  0  0
   20.4134   -3.2388  -14.0503 C   0  0  0  0  0  0  0  0  0  0  0  0
   20.8299   -2.1034  -13.7173 O   0  0  0  0  0  0  0  0  0  0  0  0
   19.4702   -3.2749  -15.0811 O   0  0  0  0  0  0  0  0  0  0  0  0
  2  1  1  1
  3  2  1  0
  4  2  1  0
  4  5  1  0
  5  7  1  0
  5  6  1  1
  7  8  2  0
  9 10  1  0
 11 10  1  6
 11 13  1  0
 12 11  1  0
 12  7  1  0
 13 14  2  0
 13 17  1  0
 16 15  1  6
 16 18  1  0
 17 16  1  0
 18 19  2  0
 18 20  1  0
M  END
$$$$
