LSA.pdb
     RDKit          3D

 20 19  0  0  1  0  0  0  0  0999 V2000
   19.2600  -13.3902  -19.8218 C   0  0  0  0  0  0  0  0  0  0  0  0
   19.7352  -13.2132  -18.3555 C   0  0  1  0  0  0  0  0  0  0  0  0
   21.1797  -13.6741  -18.3316 C   0  0  0  0  0  0  0  0  0  0  0  0
   19.5186  -11.7856  -18.0473 C   0  0  0  0  0  0  0  0  0  0  0  0
   19.8754  -11.3138  -16.6940 C   0  0  2  0  0  0  0  0  0  0  0  0
   19.0232  -12.0205  -15.6954 N   0  0  0  0  0  0  0  0  0  0  0  0
   19.6846   -9.8800  -16.4531 C   0  0  0  0  0  0  0  0  0  0  0  0
   19.7797   -8.9795  -17.3236 O   0  0  0  0  0  0  0  0  0  0  0  0
   18.3674   -8.6251  -12.6698 O   0  0  0  0  0  0  0  0  0  0  0  0
   18.0637   -7.8927  -13.7889 C   0  0  0  0  0  0  0  0  0  0  0  0
   19.0884   -8.0462  -14.8914 C   0  0  2  0  0  0  0  0  0  0  0  0
   19.3634   -9.4285  -15.1373 N   0  0  0  0  0  0  0  0  0  0  0  0
   20.3567   -7.3370  -14.5551 C   0  0  0  0  0  0  0  0  0  0  0  0
   21.2430   -7.9179  -13.8810 O   0  0  0  0  0  0  0  0  0  0  0  0
   21.7985   -4.0503  -15.5462 C   0  0  0  0  0  0  0  0  0  0  0  0
   21.7986   -5.3497  -14.7580 C   0  0  2  0  0  0  0  0  0  0  0  0
   20.5359   -6.0115  -15.0073 N   0  0  0  0  0  0  0  0  0  0  0  0
   21.8319   -5.0238  -13.3031 C   0  0  0  0  0  0  0  0  0  0  0  0
   20.8141   -5.0482  -12.5703 O   0  0  0  0  0  0  0  0  0  0  0  0
   23.0333   -4.6686  -12.6834 O   0  0  0  0  0  0  0  0  0  0  0  0
  2  1  1  6
  3  2  1  0
  4  2  1  0
  4  5  1  0
  5  7  1  0
  5  6  1  1
  7  8  2  0
  9 10  1  0
 11 10  1  1
 11 13  1  0
 12 11  1  0
 12  7  1  0
 13 14  2  0
 13 17  1  0
 16 15  1  6
 16 18  1  0
 17 16  1  0
 18 19  2  0
 18 20  1  0
M  END
$$$$
