LSA.pdb
     RDKit          3D

 20 19  0  0  1  0  0  0  0  0999 V2000
   11.2215  -10.2649   -8.4336 C   0  0  0  0  0  0  0  0  0  0  0  0
   12.0856  -10.2651   -9.7222 C   0  0  1  0  0  0  0  0  0  0  0  0
   11.3677   -9.3557  -10.7005 C   0  0  0  0  0  0  0  0  0  0  0  0
   13.4222   -9.8076   -9.2929 C   0  0  0  0  0  0  0  0  0  0  0  0
   14.4357   -9.5704  -10.3408 C   0  0  2  0  0  0  0  0  0  0  0  0
   15.1567  -10.8464  -10.6136 N   0  0  0  0  0  0  0  0  0  0  0  0
   15.4661   -8.5803  -10.0117 C   0  0  0  0  0  0  0  0  0  0  0  0
   16.3719   -8.7337   -9.1551 O   0  0  0  0  0  0  0  0  0  0  0  0
   17.0849   -6.3034  -12.6990 O   0  0  0  0  0  0  0  0  0  0  0  0
   17.5582   -6.3163  -11.4119 C   0  0  0  0  0  0  0  0  0  0  0  0
   16.4548   -6.3340  -10.3768 C   0  0  2  0  0  0  0  0  0  0  0  0
   15.4770   -7.3280  -10.6970 N   0  0  0  0  0  0  0  0  0  0  0  0
   15.7944   -5.0012  -10.2660 C   0  0  0  0  0  0  0  0  0  0  0  0
   14.8847   -4.6808  -11.0705 O   0  0  0  0  0  0  0  0  0  0  0  0
   16.1067   -2.1359   -7.9077 C   0  0  0  0  0  0  0  0  0  0  0  0
   15.6638   -2.7783   -9.2120 C   0  0  2  0  0  0  0  0  0  0  0  0
   16.2111   -4.1176   -9.2466 N   0  0  0  0  0  0  0  0  0  0  0  0
   16.2842   -2.0323  -10.3445 C   0  0  0  0  0  0  0  0  0  0  0  0
   17.2600   -2.4679  -11.0014 O   0  0  0  0  0  0  0  0  0  0  0  0
   15.7872   -0.7835  -10.7278 O   0  0  0  0  0  0  0  0  0  0  0  0
  2  1  1  1
  3  2  1  0
  4  2  1  0
  4  5  1  0
  5  7  1  0
  5  6  1  1
  7  8  2  0
  9 10  1  0
 11 10  1  6
 11 13  1  0
 12 11  1  0
 12  7  1  0
 13 14  2  0
 13 17  1  0
 16 15  1  1
 16 18  1  0
 17 16  1  0
 18 19  2  0
 18 20  1  0
M  END
$$$$
