LSA.pdb
     RDKit          3D

 20 19  0  0  1  0  0  0  0  0999 V2000
   32.3318  -32.3630   -6.5664 C   0  0  0  0  0  0  0  0  0  0  0  0
   32.8561  -33.8192   -6.4570 C   0  0  1  0  0  0  0  0  0  0  0  0
   34.2342  -33.7156   -5.8328 C   0  0  0  0  0  0  0  0  0  0  0  0
   31.8464  -34.5355   -5.6525 C   0  0  0  0  0  0  0  0  0  0  0  0
   32.1113  -35.9499   -5.3197 C   0  0  2  0  0  0  0  0  0  0  0  0
   32.0407  -36.7616   -6.5682 N   0  0  0  0  0  0  0  0  0  0  0  0
   31.1708  -36.5651   -4.3778 C   0  0  0  0  0  0  0  0  0  0  0  0
   30.0725  -37.0897   -4.6882 O   0  0  0  0  0  0  0  0  0  0  0  0
   30.8290  -38.8221   -0.1828 O   0  0  0  0  0  0  0  0  0  0  0  0
   31.5439  -38.0043   -1.0202 C   0  0  0  0  0  0  0  0  0  0  0  0
   30.6834  -37.3367   -2.0704 C   0  0  2  0  0  0  0  0  0  0  0  0
   31.4907  -36.5914   -2.9867 N   0  0  0  0  0  0  0  0  0  0  0  0
   29.6715  -36.4345   -1.4485 C   0  0  0  0  0  0  0  0  0  0  0  0
   29.9379  -35.2207   -1.2664 O   0  0  0  0  0  0  0  0  0  0  0  0
   26.1033  -36.8336   -0.4881 C   0  0  0  0  0  0  0  0  0  0  0  0
   27.4326  -36.0969   -0.4776 C   0  0  2  0  0  0  0  0  0  0  0  0
   28.4205  -36.9708   -1.0732 N   0  0  0  0  0  0  0  0  0  0  0  0
   27.8472  -35.8836    0.9389 C   0  0  0  0  0  0  0  0  0  0  0  0
   28.8277  -36.4649    1.4626 O   0  0  0  0  0  0  0  0  0  0  0  0
   27.1384  -35.0023    1.7601 O   0  0  0  0  0  0  0  0  0  0  0  0
  2  1  1  1
  3  2  1  0
  4  2  1  0
  4  5  1  0
  5  7  1  0
  5  6  1  6
  7  8  2  0
  9 10  1  0
 11 10  1  1
 11 13  1  0
 12 11  1  0
 12  7  1  0
 13 14  2  0
 13 17  1  0
 16 15  1  1
 16 18  1  0
 17 16  1  0
 18 19  2  0
 18 20  1  0
M  END
$$$$
