LSA.pdb
     RDKit          3D

 20 19  0  0  1  0  0  0  0  0999 V2000
   28.3646  -12.8973  -15.8102 C   0  0  0  0  0  0  0  0  0  0  0  0
   27.8456  -13.7436  -17.0025 C   0  0  1  0  0  0  0  0  0  0  0  0
   26.4188  -13.2889  -17.2410 C   0  0  0  0  0  0  0  0  0  0  0  0
   28.7898  -13.4786  -18.1063 C   0  0  0  0  0  0  0  0  0  0  0  0
   28.4987  -14.0881  -19.4198 C   0  0  2  0  0  0  0  0  0  0  0  0
   28.5968  -15.5706  -19.2972 N   0  0  0  0  0  0  0  0  0  0  0  0
   29.4038  -13.7068  -20.5087 C   0  0  0  0  0  0  0  0  0  0  0  0
   30.3905  -14.3783  -20.9002 O   0  0  0  0  0  0  0  0  0  0  0  0
   28.4796  -12.9554  -24.0055 O   0  0  0  0  0  0  0  0  0  0  0  0
   29.1367  -11.8440  -23.5428 C   0  0  0  0  0  0  0  0  0  0  0  0
   29.9944  -12.1274  -22.3291 C   0  0  2  0  0  0  0  0  0  0  0  0
   29.1811  -12.4814  -21.2066 N   0  0  0  0  0  0  0  0  0  0  0  0
   30.8439  -10.9523  -21.9795 C   0  0  0  0  0  0  0  0  0  0  0  0
   30.4283  -10.0972  -21.1588 O   0  0  0  0  0  0  0  0  0  0  0  0
   34.3194   -9.9382  -22.8585 C   0  0  0  0  0  0  0  0  0  0  0  0
   32.9658   -9.7207  -22.2025 C   0  0  2  0  0  0  0  0  0  0  0  0
   32.1125  -10.8249  -22.5859 N   0  0  0  0  0  0  0  0  0  0  0  0
   32.3530   -8.4870  -22.7739 C   0  0  0  0  0  0  0  0  0  0  0  0
   31.4488   -8.5084  -23.6431 O   0  0  0  0  0  0  0  0  0  0  0  0
   32.7752   -7.2238  -22.3500 O   0  0  0  0  0  0  0  0  0  0  0  0
  2  1  1  1
  3  2  1  0
  4  2  1  0
  4  5  1  0
  5  7  1  0
  5  6  1  1
  7  8  2  0
  9 10  1  0
 11 10  1  6
 11 13  1  0
 12 11  1  0
 12  7  1  0
 13 14  2  0
 13 17  1  0
 16 15  1  6
 16 18  1  0
 17 16  1  0
 18 19  2  0
 18 20  1  0
M  END
$$$$
