PAA.pdb
     RDKit          3D

 18 18  0  0  1  0  0  0  0  0999 V2000
   28.0063  -18.5454  -15.6863 N   0  0  0  0  0  0  0  0  0  0  0  0
   26.8950  -18.4917  -16.6242 C   0  0  0  0  0  0  0  0  0  0  0  0
   25.8405  -17.6842  -15.9218 C   0  0  0  0  0  0  0  0  0  0  0  0
   26.3723  -17.3773  -14.5336 C   0  0  0  0  0  0  0  0  0  0  0  0
   27.4197  -18.4607  -14.3642 C   0  0  1  0  0  0  0  0  0  0  0  0
   26.7897  -19.7505  -13.9879 C   0  0  0  0  0  0  0  0  0  0  0  0
   26.6122  -20.6111  -14.8830 O   0  0  0  0  0  0  0  0  0  0  0  0
   26.3040  -21.5123  -10.7663 C   0  0  0  0  0  0  0  0  0  0  0  0
   25.9506  -21.3709  -12.2504 C   0  0  2  0  0  0  0  0  0  0  0  0
   26.3763  -20.0690  -12.6782 N   0  0  0  0  0  0  0  0  0  0  0  0
   24.4933  -21.5757  -12.3808 C   0  0  0  0  0  0  0  0  0  0  0  0
   23.9066  -22.6617  -12.1687 O   0  0  0  0  0  0  0  0  0  0  0  0
   21.5350  -19.3085  -12.7775 C   0  0  0  0  0  0  0  0  0  0  0  0
   22.2963  -20.6082  -13.0665 C   0  0  2  0  0  0  0  0  0  0  0  0
   23.7073  -20.4564  -12.7753 N   0  0  0  0  0  0  0  0  0  0  0  0
   22.0776  -20.8843  -14.5211 C   0  0  0  0  0  0  0  0  0  0  0  0
   20.7918  -21.1274  -14.9811 O   0  0  0  0  0  0  0  0  0  0  0  0
   23.0144  -20.9046  -15.3435 O   0  0  0  0  0  0  0  0  0  0  0  0
  1  2  1  0
  1  5  1  0
  2  3  1  0
  3  4  1  0
  5  4  1  0
  5  6  1  6
  6  7  2  0
  9  8  1  1
  9 10  1  0
 10  6  1  0
 11 15  1  0
 11  9  1  0
 12 11  2  0
 14 13  1  6
 14 15  1  0
 14 16  1  0
 16 18  2  0
 16 17  1  0
M  END
$$$$
