PAA.pdb
     RDKit          3D

 18 18  0  0  1  0  0  0  0  0999 V2000
   19.0795  -10.6432  -18.5090 N   0  0  0  0  0  0  0  0  0  0  0  0
   17.8752   -9.8445  -18.3386 C   0  0  0  0  0  0  0  0  0  0  0  0
   18.2983   -8.4403  -18.6652 C   0  0  0  0  0  0  0  0  0  0  0  0
   19.7927   -8.4802  -18.9282 C   0  0  0  0  0  0  0  0  0  0  0  0
   20.1909   -9.7601  -18.2190 C   0  0  1  0  0  0  0  0  0  0  0  0
   20.3146   -9.5377  -16.7571 C   0  0  0  0  0  0  0  0  0  0  0  0
   19.2755   -9.5876  -16.0563 O   0  0  0  0  0  0  0  0  0  0  0  0
   23.0065   -9.8495  -14.3024 C   0  0  0  0  0  0  0  0  0  0  0  0
   21.6936   -9.1573  -14.6829 C   0  0  2  0  0  0  0  0  0  0  0  0
   21.5358   -9.2723  -16.1046 N   0  0  0  0  0  0  0  0  0  0  0  0
   21.7805   -7.7567  -14.2210 C   0  0  0  0  0  0  0  0  0  0  0  0
   21.9249   -7.4103  -13.0262 O   0  0  0  0  0  0  0  0  0  0  0  0
   22.5237   -4.5400  -15.9358 C   0  0  0  0  0  0  0  0  0  0  0  0
   21.8062   -5.3383  -14.8404 C   0  0  2  0  0  0  0  0  0  0  0  0
   21.6934   -6.7350  -15.2083 N   0  0  0  0  0  0  0  0  0  0  0  0
   20.4543   -4.7097  -14.7084 C   0  0  0  0  0  0  0  0  0  0  0  0
   20.3243   -3.5168  -14.0128 O   0  0  0  0  0  0  0  0  0  0  0  0
   19.4308   -5.2209  -15.2038 O   0  0  0  0  0  0  0  0  0  0  0  0
  1  2  1  0
  1  5  1  0
  2  3  1  0
  3  4  1  0
  5  4  1  0
  5  6  1  1
  6  7  2  0
  9  8  1  6
  9 10  1  0
 10  6  1  0
 11 15  1  0
 11  9  1  0
 12 11  2  0
 14 13  1  6
 14 15  1  0
 14 16  1  0
 16 18  2  0
 16 17  1  0
M  END
$$$$
