PAA.pdb
     RDKit          3D

 18 18  0  0  1  0  0  0  0  0999 V2000
   19.2023  -12.1775  -17.8872 N   0  0  0  0  0  0  0  0  0  0  0  0
   17.8385  -11.9044  -17.4594 C   0  0  0  0  0  0  0  0  0  0  0  0
   17.5499  -10.5188  -17.9637 C   0  0  0  0  0  0  0  0  0  0  0  0
   18.8295  -10.0056  -18.5988 C   0  0  0  0  0  0  0  0  0  0  0  0
   19.8699  -10.8929  -17.9434 C   0  0  1  0  0  0  0  0  0  0  0  0
   20.1914  -10.4103  -16.5775 C   0  0  0  0  0  0  0  0  0  0  0  0
   19.3494  -10.5949  -15.6663 O   0  0  0  0  0  0  0  0  0  0  0  0
   23.1867   -9.8146  -14.6527 C   0  0  0  0  0  0  0  0  0  0  0  0
   21.7528   -9.3419  -14.9134 C   0  0  2  0  0  0  0  0  0  0  0  0
   21.3922   -9.7533  -16.2401 N   0  0  0  0  0  0  0  0  0  0  0  0
   21.7298   -7.8755  -14.7352 C   0  0  0  0  0  0  0  0  0  0  0  0
   22.0228   -7.2846  -13.6705 O   0  0  0  0  0  0  0  0  0  0  0  0
   21.2359   -4.9716  -17.1030 C   0  0  0  0  0  0  0  0  0  0  0  0
   21.1830   -5.6517  -15.7294 C   0  0  2  0  0  0  0  0  0  0  0  0
   21.3472   -7.0855  -15.8558 N   0  0  0  0  0  0  0  0  0  0  0  0
   19.8366   -5.3155  -15.1687 C   0  0  0  0  0  0  0  0  0  0  0  0
   19.6764   -4.1466  -14.4395 O   0  0  0  0  0  0  0  0  0  0  0  0
   18.8439   -6.0517  -15.3330 O   0  0  0  0  0  0  0  0  0  0  0  0
  1  2  1  0
  1  5  1  0
  2  3  1  0
  3  4  1  0
  5  4  1  0
  5  6  1  1
  6  7  2  0
  9  8  1  6
  9 10  1  0
 10  6  1  0
 11 15  1  0
 11  9  1  0
 12 11  2  0
 14 13  1  6
 14 15  1  0
 14 16  1  0
 16 18  2  0
 16 17  1  0
M  END
$$$$
