PAA.pdb
     RDKit          3D

 18 18  0  0  1  0  0  0  0  0999 V2000
   22.4485  -10.5353  -15.6398 N   0  0  0  0  0  0  0  0  0  0  0  0
   23.6143  -10.1846  -14.8428 C   0  0  0  0  0  0  0  0  0  0  0  0
   23.0720   -9.3455  -13.7207 C   0  0  0  0  0  0  0  0  0  0  0  0
   21.5868   -9.1693  -13.9802 C   0  0  0  0  0  0  0  0  0  0  0  0
   21.5040   -9.4501  -15.4680 C   0  0  1  0  0  0  0  0  0  0  0  0
   21.9225   -8.2631  -16.2540 C   0  0  0  0  0  0  0  0  0  0  0  0
   23.1229   -7.9036  -16.1978 O   0  0  0  0  0  0  0  0  0  0  0  0
   20.5884   -6.4337  -19.1555 C   0  0  0  0  0  0  0  0  0  0  0  0
   21.4459   -6.4036  -17.8861 C   0  0  2  0  0  0  0  0  0  0  0  0
   21.0480   -7.5107  -17.0644 N   0  0  0  0  0  0  0  0  0  0  0  0
   21.2315   -5.0939  -17.2370 C   0  0  0  0  0  0  0  0  0  0  0  0
   21.6441   -4.0010  -17.6887 O   0  0  0  0  0  0  0  0  0  0  0  0
   18.9688   -3.8875  -14.5118 C   0  0  0  0  0  0  0  0  0  0  0  0
   20.2867   -3.8416  -15.2948 C   0  0  2  0  0  0  0  0  0  0  0  0
   20.5047   -5.0807  -16.0132 N   0  0  0  0  0  0  0  0  0  0  0  0
   21.3540   -3.6245  -14.2681 C   0  0  0  0  0  0  0  0  0  0  0  0
   21.6694   -2.3312  -13.8786 O   0  0  0  0  0  0  0  0  0  0  0  0
   21.9764   -4.5692  -13.7443 O   0  0  0  0  0  0  0  0  0  0  0  0
  1  2  1  0
  1  5  1  0
  2  3  1  0
  3  4  1  0
  5  4  1  0
  5  6  1  6
  6  7  2  0
  9  8  1  6
  9 10  1  0
 10  6  1  0
 11 15  1  0
 11  9  1  0
 12 11  2  0
 14 13  1  1
 14 15  1  0
 14 16  1  0
 16 18  2  0
 16 17  1  0
M  END
$$$$
