RFW.pdb
     RDKit          3D

 37 39  0  0  1  0  0  0  0  0999 V2000
   28.6699  -28.6076  -16.6344 N   0  0  0  0  0  0  0  0  0  0  0  0
   29.5218  -28.7043  -17.7717 C   0  0  0  0  0  0  0  0  0  0  0  0
   30.2321  -29.7897  -17.9461 N   0  0  0  0  0  0  0  0  0  0  0  0
   29.6444  -27.6772  -18.7381 N   0  0  0  0  0  0  0  0  0  0  0  0
   28.7505  -26.5390  -18.6557 C   0  0  0  0  0  0  0  0  0  0  0  0
   27.3190  -26.9126  -19.0195 C   0  0  0  0  0  0  0  0  0  0  0  0
   26.4415  -26.2644  -17.9860 C   0  0  0  0  0  0  0  0  0  0  0  0
   26.4000  -24.7788  -18.0319 C   0  0  2  0  0  0  0  0  0  0  0  0
   27.4987  -24.1397  -18.6782 N   0  0  0  0  0  0  0  0  0  0  0  0
   26.1391  -24.2088  -16.6679 C   0  0  0  0  0  0  0  0  0  0  0  0
   25.3771  -24.7827  -15.8548 O   0  0  0  0  0  0  0  0  0  0  0  0
   30.9122  -29.8655  -18.7352 N   0  0  0  0  0  0  0  0  0  0  0  0
   26.7594  -22.9933  -16.2709 C   0  0  1  0  0  0  0  0  0  0  0  0
   26.5191  -22.2542  -15.0826 C   0  0  0  0  0  0  0  0  0  0  0  0
   27.6981  -21.4506  -14.5590 C   0  0  0  0  0  0  0  0  0  0  0  0
   27.3194  -20.7522  -13.3160 C   0  0  0  0  0  0  0  0  0  0  0  0
   27.2764  -21.5178  -12.1558 C   0  0  0  0  0  0  0  0  0  0  0  0
   26.9265  -20.9965  -10.9297 C   0  0  0  0  0  0  0  0  0  0  0  0
   26.6030  -19.6598  -10.8358 C   0  0  0  0  0  0  0  0  0  0  0  0
   26.6369  -18.8793  -11.9664 C   0  0  0  0  0  0  0  0  0  0  0  0
   26.9936  -19.4366  -13.1863 C   0  0  0  0  0  0  0  0  0  0  0  0
   25.2648  -21.4846  -15.0930 O   0  0  0  0  0  0  0  0  0  0  0  0
   25.0147  -20.6384  -15.9890 N   0  0  0  0  0  0  0  0  0  0  0  0
   24.3022  -21.6868  -14.0788 C   0  0  2  0  0  0  0  0  0  0  0  0
   23.0721  -20.9312  -14.1085 C   0  0  0  0  0  0  0  0  0  0  0  0
   22.0366  -21.7763  -13.3832 C   0  0  0  0  0  0  0  0  0  0  0  0
   20.7781  -21.0629  -13.1207 C   0  0  0  0  0  0  0  0  0  0  0  0
   19.6156  -21.0222  -13.8735 N   0  0  0  0  0  0  0  0  0  0  0  0
   18.7178  -20.2400  -13.2515 C   0  0  0  0  0  0  0  0  0  0  0  0
   19.2764  -19.7695  -12.1037 C   0  0  0  0  0  0  0  0  0  0  0  0
   18.7941  -18.9321  -11.1016 C   0  0  0  0  0  0  0  0  0  0  0  0
   19.5782  -18.5985  -10.0161 C   0  0  0  0  0  0  0  0  0  0  0  0
   20.8591  -19.1009   -9.9200 C   0  0  0  0  0  0  0  0  0  0  0  0
   21.3471  -19.9312  -10.9066 C   0  0  0  0  0  0  0  0  0  0  0  0
   20.5551  -20.2699  -12.0061 C   0  0  0  0  0  0  0  0  0  0  0  0
   23.2405  -19.6080  -13.4499 O   0  0  0  0  0  0  0  0  0  0  0  0
   24.0214  -19.3914  -12.4982 O   0  0  0  0  0  0  0  0  0  0  0  0
  2  3  2  0
  2  1  1  0
  4  2  1  0
  5  4  1  0
  6  5  1  0
  7  6  1  0
  8 10  1  0
  8  7  1  0
  8  9  1  1
 10 12  1  0
 11 10  2  0
 12 13  1  0
 13 14  1  1
 13 21  1  0
 15 14  1  0
 16 15  2  0
 17 16  1  0
 18 17  2  0
 18 19  1  0
 19 20  2  0
 20 15  1  0
 21 23  1  0
 21 22  2  0
 23 24  1  0
 24 35  1  0
 24 25  1  1
 26 27  2  0
 26 25  1  0
 28 27  1  0
 29 34  2  0
 29 28  1  0
 30 29  1  0
 31 32  1  0
 31 30  2  0
 32 33  2  0
 33 34  1  0
 34 26  1  0
 35 37  1  0
 36 35  2  0
M  END
$$$$
