RFW.pdb
     RDKit          3D

 37 39  0  0  1  0  0  0  0  0999 V2000
   30.5840  -16.4090  -18.1487 N   0  0  0  0  0  0  0  0  0  0  0  0
   30.5592  -17.7413  -18.6517 C   0  0  0  0  0  0  0  0  0  0  0  0
   31.5806  -18.1819  -19.3414 N   0  0  0  0  0  0  0  0  0  0  0  0
   29.4758  -18.6283  -18.4438 N   0  0  0  0  0  0  0  0  0  0  0  0
   28.3887  -18.2037  -17.5839 C   0  0  0  0  0  0  0  0  0  0  0  0
   28.7448  -18.3377  -16.1087 C   0  0  0  0  0  0  0  0  0  0  0  0
   27.5637  -18.9934  -15.4507 C   0  0  0  0  0  0  0  0  0  0  0  0
   27.7189  -20.4458  -15.1728 C   0  0  2  0  0  0  0  0  0  0  0  0
   28.1053  -21.2589  -16.2787 N   0  0  0  0  0  0  0  0  0  0  0  0
   26.5082  -20.9881  -14.4702 C   0  0  0  0  0  0  0  0  0  0  0  0
   25.4323  -21.1870  -15.0819 O   0  0  0  0  0  0  0  0  0  0  0  0
   31.5729  -19.1382  -19.7611 N   0  0  0  0  0  0  0  0  0  0  0  0
   26.5623  -21.2885  -13.0822 C   0  0  2  0  0  0  0  0  0  0  0  0
   25.4923  -21.7189  -12.2540 C   0  0  0  0  0  0  0  0  0  0  0  0
   25.8913  -22.2394  -10.8828 C   0  0  0  0  0  0  0  0  0  0  0  0
   26.3809  -21.1282  -10.0451 C   0  0  0  0  0  0  0  0  0  0  0  0
   25.4551  -20.5265   -9.1995 C   0  0  0  0  0  0  0  0  0  0  0  0
   25.7738  -19.4713   -8.3733 C   0  0  0  0  0  0  0  0  0  0  0  0
   27.0625  -18.9819   -8.3757 C   0  0  0  0  0  0  0  0  0  0  0  0
   27.9981  -19.5573   -9.2016 C   0  0  0  0  0  0  0  0  0  0  0  0
   27.6434  -20.6191  -10.0218 C   0  0  0  0  0  0  0  0  0  0  0  0
   24.3563  -20.7850  -12.2003 O   0  0  0  0  0  0  0  0  0  0  0  0
   24.5223  -19.5495  -12.0350 N   0  0  0  0  0  0  0  0  0  0  0  0
   23.0358  -21.2686  -12.3365 C   0  0  1  0  0  0  0  0  0  0  0  0
   22.0158  -20.4013  -12.8773 C   0  0  0  0  0  0  0  0  0  0  0  0
   22.4967  -19.9907  -14.2603 C   0  0  0  0  0  0  0  0  0  0  0  0
   21.5412  -19.1391  -14.9837 C   0  0  0  0  0  0  0  0  0  0  0  0
   20.9139  -17.9739  -14.5730 N   0  0  0  0  0  0  0  0  0  0  0  0
   20.1178  -17.5329  -15.5611 C   0  0  0  0  0  0  0  0  0  0  0  0
   20.2159  -18.3925  -16.6111 C   0  0  0  0  0  0  0  0  0  0  0  0
   19.6147  -18.4105  -17.8666 C   0  0  0  0  0  0  0  0  0  0  0  0
   19.8876  -19.4168  -18.7706 C   0  0  0  0  0  0  0  0  0  0  0  0
   20.7687  -20.4211  -18.4277 C   0  0  0  0  0  0  0  0  0  0  0  0
   21.3699  -20.4132  -17.1870 C   0  0  0  0  0  0  0  0  0  0  0  0
   21.0950  -19.3955  -16.2706 C   0  0  0  0  0  0  0  0  0  0  0  0
   20.7040  -21.0989  -12.9513 O   0  0  0  0  0  0  0  0  0  0  0  0
   19.6155  -20.5860  -12.6124 O   0  0  0  0  0  0  0  0  0  0  0  0
  2  3  2  0
  2  1  1  0
  4  2  1  0
  5  4  1  0
  6  5  1  0
  7  6  1  0
  8 10  1  0
  8  7  1  0
  8  9  1  6
 10 12  1  0
 11 10  2  0
 12 13  1  0
 13 14  1  1
 13 21  1  0
 15 14  1  0
 16 15  2  0
 17 16  1  0
 18 17  2  0
 18 19  1  0
 19 20  2  0
 20 15  1  0
 21 23  1  0
 21 22  2  0
 23 24  1  0
 24 35  1  0
 24 25  1  1
 26 27  2  0
 26 25  1  0
 28 27  1  0
 29 34  2  0
 29 28  1  0
 30 29  1  0
 31 32  1  0
 31 30  2  0
 32 33  2  0
 33 34  1  0
 34 26  1  0
 35 37  1  0
 36 35  2  0
M  END
$$$$
