RFW.pdb
     RDKit          3D

 37 39  0  0  1  0  0  0  0  0999 V2000
   21.9135  -20.6940  -20.0129 N   0  0  0  0  0  0  0  0  0  0  0  0
   23.2759  -20.3514  -19.7784 C   0  0  0  0  0  0  0  0  0  0  0  0
   23.7327  -19.2097  -20.2264 N   0  0  0  0  0  0  0  0  0  0  0  0
   24.1762  -21.1890  -19.0772 N   0  0  0  0  0  0  0  0  0  0  0  0
   23.6652  -22.4055  -18.4768 C   0  0  0  0  0  0  0  0  0  0  0  0
   22.5886  -22.1183  -17.4379 C   0  0  0  0  0  0  0  0  0  0  0  0
   23.0746  -22.7259  -16.1523 C   0  0  0  0  0  0  0  0  0  0  0  0
   23.0571  -21.8170  -14.9757 C   0  0  2  0  0  0  0  0  0  0  0  0
   22.8264  -20.4371  -15.2516 N   0  0  0  0  0  0  0  0  0  0  0  0
   24.2736  -22.0253  -14.1211 C   0  0  0  0  0  0  0  0  0  0  0  0
   24.5152  -23.1334  -13.5874 O   0  0  0  0  0  0  0  0  0  0  0  0
   24.7370  -18.9490  -20.1071 N   0  0  0  0  0  0  0  0  0  0  0  0
   25.1829  -20.9557  -13.8997 C   0  0  1  0  0  0  0  0  0  0  0  0
   26.2615  -20.9221  -12.9769 C   0  0  0  0  0  0  0  0  0  0  0  0
   27.5049  -20.1847  -13.4464 C   0  0  0  0  0  0  0  0  0  0  0  0
   28.6047  -20.3888  -12.4846 C   0  0  0  0  0  0  0  0  0  0  0  0
   29.1977  -21.6467  -12.4690 C   0  0  0  0  0  0  0  0  0  0  0  0
   30.2254  -21.9773  -11.6134 C   0  0  0  0  0  0  0  0  0  0  0  0
   30.6951  -21.0290  -10.7300 C   0  0  0  0  0  0  0  0  0  0  0  0
   30.1275  -19.7774  -10.7234 C   0  0  0  0  0  0  0  0  0  0  0  0
   29.0934  -19.4776  -11.5988 C   0  0  0  0  0  0  0  0  0  0  0  0
   25.8712  -20.5639  -11.6040 O   0  0  0  0  0  0  0  0  0  0  0  0
   25.0883  -19.6089  -11.3662 N   0  0  0  0  0  0  0  0  0  0  0  0
   26.3777  -21.2999  -10.5095 C   0  0  2  0  0  0  0  0  0  0  0  0
   26.0084  -20.9179   -9.1669 C   0  0  0  0  0  0  0  0  0  0  0  0
   26.7528  -21.8625   -8.2363 C   0  0  0  0  0  0  0  0  0  0  0  0
   26.6420  -21.4947   -6.8172 C   0  0  0  0  0  0  0  0  0  0  0  0
   25.5736  -21.6487   -5.9485 N   0  0  0  0  0  0  0  0  0  0  0  0
   25.9167  -21.1675   -4.7421 C   0  0  0  0  0  0  0  0  0  0  0  0
   27.1931  -20.7015   -4.8098 C   0  0  0  0  0  0  0  0  0  0  0  0
   28.0258  -20.1092   -3.8643 C   0  0  0  0  0  0  0  0  0  0  0  0
   29.3072  -19.7165   -4.1929 C   0  0  0  0  0  0  0  0  0  0  0  0
   29.7726  -19.9125   -5.4765 C   0  0  0  0  0  0  0  0  0  0  0  0
   28.9565  -20.4983   -6.4209 C   0  0  0  0  0  0  0  0  0  0  0  0
   27.6592  -20.8964   -6.0903 C   0  0  0  0  0  0  0  0  0  0  0  0
   26.3711  -19.5011   -8.8946 O   0  0  0  0  0  0  0  0  0  0  0  0
   25.7609  -18.7614   -8.0926 O   0  0  0  0  0  0  0  0  0  0  0  0
  2  3  2  0
  2  1  1  0
  4  2  1  0
  5  4  1  0
  6  5  1  0
  7  6  1  0
  8 10  1  0
  8  7  1  0
  8  9  1  6
 10 12  1  0
 11 10  2  0
 12 13  1  0
 13 14  1  6
 13 21  1  0
 15 14  1  0
 16 15  2  0
 17 16  1  0
 18 17  2  0
 18 19  1  0
 19 20  2  0
 20 15  1  0
 21 23  1  0
 21 22  2  0
 23 24  1  0
 24 35  1  0
 24 25  1  6
 26 27  2  0
 26 25  1  0
 28 27  1  0
 29 34  2  0
 29 28  1  0
 30 29  1  0
 31 32  1  0
 31 30  2  0
 32 33  2  0
 33 34  1  0
 34 26  1  0
 35 37  1  0
 36 35  2  0
M  END
$$$$
