RFW.pdb
     RDKit          3D

 37 39  0  0  1  0  0  0  0  0999 V2000
   26.0631  -25.5974  -16.6625 N   0  0  0  0  0  0  0  0  0  0  0  0
   25.5134  -24.9696  -17.8167 C   0  0  0  0  0  0  0  0  0  0  0  0
   24.5252  -25.5499  -18.4488 N   0  0  0  0  0  0  0  0  0  0  0  0
   25.9831  -23.7349  -18.3254 N   0  0  0  0  0  0  0  0  0  0  0  0
   27.4142  -23.5170  -18.4014 C   0  0  0  0  0  0  0  0  0  0  0  0
   27.7999  -22.1119  -17.9567 C   0  0  0  0  0  0  0  0  0  0  0  0
   27.1011  -21.8806  -16.6466 C   0  0  0  0  0  0  0  0  0  0  0  0
   27.9834  -21.8778  -15.4498 C   0  0  2  0  0  0  0  0  0  0  0  0
   29.0196  -22.8573  -15.4315 N   0  0  0  0  0  0  0  0  0  0  0  0
   27.1718  -21.8922  -14.1871 C   0  0  0  0  0  0  0  0  0  0  0  0
   26.5420  -22.9144  -13.8269 O   0  0  0  0  0  0  0  0  0  0  0  0
   24.1298  -25.1363  -19.3225 N   0  0  0  0  0  0  0  0  0  0  0  0
   27.1025  -20.7322  -13.3690 C   0  0  1  0  0  0  0  0  0  0  0  0
   26.3280  -20.5558  -12.1921 C   0  0  0  0  0  0  0  0  0  0  0  0
   27.0137  -19.8084  -11.0602 C   0  0  0  0  0  0  0  0  0  0  0  0
   28.2372  -20.5245  -10.6521 C   0  0  0  0  0  0  0  0  0  0  0  0
   29.3178  -20.4659  -11.5257 C   0  0  0  0  0  0  0  0  0  0  0  0
   30.5155  -21.0987  -11.2753 C   0  0  0  0  0  0  0  0  0  0  0  0
   30.6616  -21.8241  -10.1123 C   0  0  0  0  0  0  0  0  0  0  0  0
   29.6099  -21.8993   -9.2308 C   0  0  0  0  0  0  0  0  0  0  0  0
   28.4167  -21.2498   -9.5140 C   0  0  0  0  0  0  0  0  0  0  0  0
   24.9556  -20.0842  -12.4370 O   0  0  0  0  0  0  0  0  0  0  0  0
   24.7150  -18.9004  -12.7866 N   0  0  0  0  0  0  0  0  0  0  0  0
   23.8651  -20.9689  -12.2814 C   0  0  1  0  0  0  0  0  0  0  0  0
   22.5895  -20.6313  -12.8680 C   0  0  0  0  0  0  0  0  0  0  0  0
   22.8516  -20.3938  -14.3470 C   0  0  0  0  0  0  0  0  0  0  0  0
   21.6414  -20.0523  -15.1088 C   0  0  0  0  0  0  0  0  0  0  0  0
   20.6795  -19.0895  -14.8484 N   0  0  0  0  0  0  0  0  0  0  0  0
   19.7456  -19.1308  -15.8132 C   0  0  0  0  0  0  0  0  0  0  0  0
   20.0830  -20.1060  -16.6997 C   0  0  0  0  0  0  0  0  0  0  0  0
   19.4748  -20.5643  -17.8651 C   0  0  0  0  0  0  0  0  0  0  0  0
   20.0312  -21.5909  -18.6005 C   0  0  0  0  0  0  0  0  0  0  0  0
   21.2075  -22.1735  -18.1769 C   0  0  0  0  0  0  0  0  0  0  0  0
   21.8186  -21.7275  -17.0243 C   0  0  0  0  0  0  0  0  0  0  0  0
   21.2569  -20.6886  -16.2785 C   0  0  0  0  0  0  0  0  0  0  0  0
   21.6018  -21.7255  -12.6677 O   0  0  0  0  0  0  0  0  0  0  0  0
   20.4108  -21.5444  -12.3342 O   0  0  0  0  0  0  0  0  0  0  0  0
  2  3  2  0
  2  1  1  0
  4  2  1  0
  5  4  1  0
  6  5  1  0
  7  6  1  0
  8 10  1  0
  8  7  1  0
  8  9  1  6
 10 12  1  0
 11 10  2  0
 12 13  1  0
 13 14  1  1
 13 21  1  0
 15 14  1  0
 16 15  2  0
 17 16  1  0
 18 17  2  0
 18 19  1  0
 19 20  2  0
 20 15  1  0
 21 23  1  0
 21 22  2  0
 23 24  1  0
 24 35  1  0
 24 25  1  1
 26 27  2  0
 26 25  1  0
 28 27  1  0
 29 34  2  0
 29 28  1  0
 30 29  1  0
 31 32  1  0
 31 30  2  0
 32 33  2  0
 33 34  1  0
 34 26  1  0
 35 37  1  0
 36 35  2  0
M  END
$$$$
