RFW.pdb
     RDKit          3D

 37 39  0  0  1  0  0  0  0  0999 V2000
   28.9228  -20.8538  -22.2599 N   0  0  0  0  0  0  0  0  0  0  0  0
   29.5551  -19.8008  -21.5389 C   0  0  0  0  0  0  0  0  0  0  0  0
   30.4886  -19.0962  -22.1264 N   0  0  0  0  0  0  0  0  0  0  0  0
   29.2249  -19.4688  -20.2030 N   0  0  0  0  0  0  0  0  0  0  0  0
   28.8384  -20.5349  -19.3001 C   0  0  0  0  0  0  0  0  0  0  0  0
   27.3658  -20.8971  -19.4450 C   0  0  0  0  0  0  0  0  0  0  0  0
   26.8268  -21.0264  -18.0482 C   0  0  0  0  0  0  0  0  0  0  0  0
   27.5004  -22.0460  -17.2012 C   0  0  2  0  0  0  0  0  0  0  0  0
   27.6822  -23.3315  -17.7910 N   0  0  0  0  0  0  0  0  0  0  0  0
   26.8513  -22.1322  -15.8503 C   0  0  0  0  0  0  0  0  0  0  0  0
   25.8261  -22.8282  -15.6614 O   0  0  0  0  0  0  0  0  0  0  0  0
   30.7785  -19.3016  -23.1085 N   0  0  0  0  0  0  0  0  0  0  0  0
   27.3950  -21.4167  -14.7494 C   0  0  2  0  0  0  0  0  0  0  0  0
   26.8004  -21.2187  -13.4753 C   0  0  0  0  0  0  0  0  0  0  0  0
   27.7467  -20.7806  -12.3696 C   0  0  0  0  0  0  0  0  0  0  0  0
   27.0164  -20.6806  -11.0917 C   0  0  0  0  0  0  0  0  0  0  0  0
   26.8381  -21.8610  -10.3783 C   0  0  0  0  0  0  0  0  0  0  0  0
   26.1645  -21.9135   -9.1778 C   0  0  0  0  0  0  0  0  0  0  0  0
   25.6402  -20.7528   -8.6506 C   0  0  0  0  0  0  0  0  0  0  0  0
   25.8012  -19.5716   -9.3344 C   0  0  0  0  0  0  0  0  0  0  0  0
   26.4851  -19.5541  -10.5418 C   0  0  0  0  0  0  0  0  0  0  0  0
   25.5563  -20.4331  -13.5047 O   0  0  0  0  0  0  0  0  0  0  0  0
   25.5344  -19.2428  -13.9099 N   0  0  0  0  0  0  0  0  0  0  0  0
   24.3430  -21.0128  -13.0711 C   0  0  1  0  0  0  0  0  0  0  0  0
   23.1999  -20.1650  -12.8272 C   0  0  0  0  0  0  0  0  0  0  0  0
   22.6698  -19.7626  -14.1946 C   0  0  0  0  0  0  0  0  0  0  0  0
   22.1027  -20.8849  -14.9563 C   0  0  0  0  0  0  0  0  0  0  0  0
   21.2535  -21.8954  -14.5347 N   0  0  0  0  0  0  0  0  0  0  0  0
   20.9929  -22.7098  -15.5708 C   0  0  0  0  0  0  0  0  0  0  0  0
   21.6590  -22.2464  -16.6627 C   0  0  0  0  0  0  0  0  0  0  0  0
   21.7388  -22.7033  -17.9754 C   0  0  0  0  0  0  0  0  0  0  0  0
   22.5016  -22.0387  -18.9138 C   0  0  0  0  0  0  0  0  0  0  0  0
   23.1965  -20.9045  -18.5485 C   0  0  0  0  0  0  0  0  0  0  0  0
   23.1247  -20.4431  -17.2513 C   0  0  0  0  0  0  0  0  0  0  0  0
   22.3532  -21.1144  -16.3000 C   0  0  0  0  0  0  0  0  0  0  0  0
   22.1609  -20.8807  -12.0390 O   0  0  0  0  0  0  0  0  0  0  0  0
   22.2231  -22.0902  -11.7296 O   0  0  0  0  0  0  0  0  0  0  0  0
  2  3  2  0
  2  1  1  0
  4  2  1  0
  5  4  1  0
  6  5  1  0
  7  6  1  0
  8 10  1  0
  8  7  1  0
  8  9  1  6
 10 12  1  0
 11 10  2  0
 12 13  1  0
 13 14  1  1
 13 21  1  0
 15 14  1  0
 16 15  2  0
 17 16  1  0
 18 17  2  0
 18 19  1  0
 19 20  2  0
 20 15  1  0
 21 23  1  0
 21 22  2  0
 23 24  1  0
 24 35  1  0
 24 25  1  1
 26 27  2  0
 26 25  1  0
 28 27  1  0
 29 34  2  0
 29 28  1  0
 30 29  1  0
 31 32  1  0
 31 30  2  0
 32 33  2  0
 33 34  1  0
 34 26  1  0
 35 37  1  0
 36 35  2  0
M  END
$$$$
