RFW.pdb
     RDKit          3D

 37 39  0  0  1  0  0  0  0  0999 V2000
   31.4464  -23.6153  -20.7181 N   0  0  0  0  0  0  0  0  0  0  0  0
   30.5734  -24.4578  -21.4640 C   0  0  0  0  0  0  0  0  0  0  0  0
   30.9139  -24.8160  -22.6760 N   0  0  0  0  0  0  0  0  0  0  0  0
   29.3403  -24.9367  -20.9601 N   0  0  0  0  0  0  0  0  0  0  0  0
   29.0326  -24.7178  -19.5605 C   0  0  0  0  0  0  0  0  0  0  0  0
   28.6503  -23.2697  -19.2820 C   0  0  0  0  0  0  0  0  0  0  0  0
   27.5481  -23.3163  -18.2616 C   0  0  0  0  0  0  0  0  0  0  0  0
   27.9064  -23.9622  -16.9712 C   0  0  2  0  0  0  0  0  0  0  0  0
   27.9324  -25.3880  -16.9686 N   0  0  0  0  0  0  0  0  0  0  0  0
   27.0755  -23.4115  -15.8487 C   0  0  0  0  0  0  0  0  0  0  0  0
   25.9188  -23.8378  -15.6221 O   0  0  0  0  0  0  0  0  0  0  0  0
   30.2863  -25.4179  -23.2544 N   0  0  0  0  0  0  0  0  0  0  0  0
   27.5930  -22.3842  -15.0141 C   0  0  1  0  0  0  0  0  0  0  0  0
   26.9159  -21.7055  -13.9668 C   0  0  0  0  0  0  0  0  0  0  0  0
   27.8065  -20.9923  -12.9626 C   0  0  0  0  0  0  0  0  0  0  0  0
   26.9909  -20.4610  -11.8541 C   0  0  0  0  0  0  0  0  0  0  0  0
   26.6305  -19.1197  -11.9288 C   0  0  0  0  0  0  0  0  0  0  0  0
   25.8821  -18.4924  -10.9573 C   0  0  0  0  0  0  0  0  0  0  0  0
   25.4664  -19.2144   -9.8591 C   0  0  0  0  0  0  0  0  0  0  0  0
   25.8082  -20.5418   -9.7591 C   0  0  0  0  0  0  0  0  0  0  0  0
   26.5636  -21.1429  -10.7560 C   0  0  0  0  0  0  0  0  0  0  0  0
   25.7859  -20.8765  -14.4155 O   0  0  0  0  0  0  0  0  0  0  0  0
   25.9543  -19.8683  -15.1480 N   0  0  0  0  0  0  0  0  0  0  0  0
   24.4684  -21.2048  -14.0246 C   0  0  1  0  0  0  0  0  0  0  0  0
   23.3757  -20.3527  -14.4307 C   0  0  0  0  0  0  0  0  0  0  0  0
   22.3338  -21.2669  -15.0562 C   0  0  0  0  0  0  0  0  0  0  0  0
   21.4698  -21.9314  -14.0696 C   0  0  0  0  0  0  0  0  0  0  0  0
   20.6938  -21.3776  -13.0641 N   0  0  0  0  0  0  0  0  0  0  0  0
   20.0690  -22.3637  -12.3992 C   0  0  0  0  0  0  0  0  0  0  0  0
   20.4252  -23.5531  -12.9554 C   0  0  0  0  0  0  0  0  0  0  0  0
   20.0756  -24.8678  -12.6598 C   0  0  0  0  0  0  0  0  0  0  0  0
   20.5868  -25.9204  -13.3911 C   0  0  0  0  0  0  0  0  0  0  0  0
   21.4574  -25.6691  -14.4311 C   0  0  0  0  0  0  0  0  0  0  0  0
   21.8104  -24.3709  -14.7327 C   0  0  0  0  0  0  0  0  0  0  0  0
   21.2941  -23.3041  -13.9936 C   0  0  0  0  0  0  0  0  0  0  0  0
   22.8123  -19.6142  -13.2687 O   0  0  0  0  0  0  0  0  0  0  0  0
   22.0914  -18.5975  -13.3651 O   0  0  0  0  0  0  0  0  0  0  0  0
  2  3  2  0
  2  1  1  0
  4  2  1  0
  5  4  1  0
  6  5  1  0
  7  6  1  0
  8 10  1  0
  8  7  1  0
  8  9  1  6
 10 12  1  0
 11 10  2  0
 12 13  1  0
 13 14  1  1
 13 21  1  0
 15 14  1  0
 16 15  2  0
 17 16  1  0
 18 17  2  0
 18 19  1  0
 19 20  2  0
 20 15  1  0
 21 23  1  0
 21 22  2  0
 23 24  1  0
 24 35  1  0
 24 25  1  1
 26 27  2  0
 26 25  1  0
 28 27  1  0
 29 34  2  0
 29 28  1  0
 30 29  1  0
 31 32  1  0
 31 30  2  0
 32 33  2  0
 33 34  1  0
 34 26  1  0
 35 37  1  0
 36 35  2  0
M  END
$$$$
