RFW.pdb
     RDKit          3D

 37 39  0  0  1  0  0  0  0  0999 V2000
   26.4627  -29.1266  -17.9360 N   0  0  0  0  0  0  0  0  0  0  0  0
   25.1345  -28.7017  -17.6466 C   0  0  0  0  0  0  0  0  0  0  0  0
   24.2331  -29.5965  -17.3307 N   0  0  0  0  0  0  0  0  0  0  0  0
   24.7294  -27.3458  -17.6818 N   0  0  0  0  0  0  0  0  0  0  0  0
   25.7307  -26.3307  -17.9430 C   0  0  0  0  0  0  0  0  0  0  0  0
   26.8696  -26.3819  -16.9324 C   0  0  0  0  0  0  0  0  0  0  0  0
   26.5173  -25.3964  -15.8541 C   0  0  0  0  0  0  0  0  0  0  0  0
   26.1212  -24.0463  -16.3346 C   0  0  2  0  0  0  0  0  0  0  0  0
   27.1832  -23.1939  -16.7578 N   0  0  0  0  0  0  0  0  0  0  0  0
   25.2164  -23.3708  -15.3453 C   0  0  0  0  0  0  0  0  0  0  0  0
   24.2646  -23.9831  -14.8064 O   0  0  0  0  0  0  0  0  0  0  0  0
   23.2612  -29.3125  -17.0743 N   0  0  0  0  0  0  0  0  0  0  0  0
   25.4263  -22.0085  -14.9993 C   0  0  1  0  0  0  0  0  0  0  0  0
   24.6952  -21.2391  -14.0562 C   0  0  0  0  0  0  0  0  0  0  0  0
   25.4961  -20.1910  -13.3012 C   0  0  0  0  0  0  0  0  0  0  0  0
   25.6908  -20.6168  -11.9023 C   0  0  0  0  0  0  0  0  0  0  0  0
   24.6809  -20.2923  -11.0027 C   0  0  0  0  0  0  0  0  0  0  0  0
   24.7393  -20.6175   -9.6654 C   0  0  0  0  0  0  0  0  0  0  0  0
   25.8408  -21.2936   -9.1861 C   0  0  0  0  0  0  0  0  0  0  0  0
   26.8540  -21.6270  -10.0527 C   0  0  0  0  0  0  0  0  0  0  0  0
   26.7634  -21.2839  -11.3943 C   0  0  0  0  0  0  0  0  0  0  0  0
   23.4138  -20.7215  -14.5620 O   0  0  0  0  0  0  0  0  0  0  0  0
   23.2842  -20.3170  -15.7457 N   0  0  0  0  0  0  0  0  0  0  0  0
   22.2866  -20.6695  -13.7118 C   0  0  2  0  0  0  0  0  0  0  0  0
   21.0827  -20.0173  -14.1704 C   0  0  0  0  0  0  0  0  0  0  0  0
   20.0617  -20.1767  -13.0547 C   0  0  0  0  0  0  0  0  0  0  0  0
   18.7369  -19.6353  -13.3914 C   0  0  0  0  0  0  0  0  0  0  0  0
   17.6608  -20.2579  -14.0031 N   0  0  0  0  0  0  0  0  0  0  0  0
   16.6510  -19.3789  -14.1141 C   0  0  0  0  0  0  0  0  0  0  0  0
   17.0513  -18.1917  -13.5840 C   0  0  0  0  0  0  0  0  0  0  0  0
   16.4096  -16.9643  -13.4435 C   0  0  0  0  0  0  0  0  0  0  0  0
   17.0494  -15.8910  -12.8578 C   0  0  0  0  0  0  0  0  0  0  0  0
   18.3441  -16.0336  -12.4040 C   0  0  0  0  0  0  0  0  0  0  0  0
   18.9893  -17.2447  -12.5380 C   0  0  0  0  0  0  0  0  0  0  0  0
   18.3434  -18.3322  -13.1306 C   0  0  0  0  0  0  0  0  0  0  0  0
   21.3318  -18.5812  -14.4678 O   0  0  0  0  0  0  0  0  0  0  0  0
   22.1141  -17.8547  -13.8177 O   0  0  0  0  0  0  0  0  0  0  0  0
  2  3  2  0
  2  1  1  0
  4  2  1  0
  5  4  1  0
  6  5  1  0
  7  6  1  0
  8 10  1  0
  8  7  1  0
  8  9  1  1
 10 12  1  0
 11 10  2  0
 12 13  1  0
 13 14  1  1
 13 21  1  0
 15 14  1  0
 16 15  2  0
 17 16  1  0
 18 17  2  0
 18 19  1  0
 19 20  2  0
 20 15  1  0
 21 23  1  0
 21 22  2  0
 23 24  1  0
 24 35  1  0
 24 25  1  1
 26 27  2  0
 26 25  1  0
 28 27  1  0
 29 34  2  0
 29 28  1  0
 30 29  1  0
 31 32  1  0
 31 30  2  0
 32 33  2  0
 33 34  1  0
 34 26  1  0
 35 37  1  0
 36 35  2  0
M  END
$$$$
