RFW.pdb
     RDKit          3D

 37 39  0  0  1  0  0  0  0  0999 V2000
   26.0204  -24.2237  -21.6380 N   0  0  0  0  0  0  0  0  0  0  0  0
   24.8003  -23.5076  -21.4739 C   0  0  0  0  0  0  0  0  0  0  0  0
   23.8135  -23.7298  -22.3046 N   0  0  0  0  0  0  0  0  0  0  0  0
   24.5923  -22.5553  -20.4474 N   0  0  0  0  0  0  0  0  0  0  0  0
   25.5143  -22.5305  -19.3291 C   0  0  0  0  0  0  0  0  0  0  0  0
   25.3151  -23.7222  -18.4012 C   0  0  0  0  0  0  0  0  0  0  0  0
   26.3404  -23.5807  -17.3117 C   0  0  0  0  0  0  0  0  0  0  0  0
   27.0711  -22.2859  -17.2938 C   0  0  2  0  0  0  0  0  0  0  0  0
   28.1368  -22.1534  -18.2321 N   0  0  0  0  0  0  0  0  0  0  0  0
   27.5008  -21.9337  -15.8993 C   0  0  0  0  0  0  0  0  0  0  0  0
   28.5031  -22.4687  -15.3697 O   0  0  0  0  0  0  0  0  0  0  0  0
   22.9180  -23.1976  -22.2295 N   0  0  0  0  0  0  0  0  0  0  0  0
   26.7688  -20.9759  -15.1465 C   0  0  2  0  0  0  0  0  0  0  0  0
   27.1135  -20.4323  -13.8809 C   0  0  0  0  0  0  0  0  0  0  0  0
   27.2630  -18.9205  -13.8339 C   0  0  0  0  0  0  0  0  0  0  0  0
   28.1444  -18.4672  -14.9266 C   0  0  0  0  0  0  0  0  0  0  0  0
   29.5118  -18.6396  -14.7404 C   0  0  0  0  0  0  0  0  0  0  0  0
   30.4474  -18.2500  -15.6734 C   0  0  0  0  0  0  0  0  0  0  0  0
   30.0224  -17.6631  -16.8460 C   0  0  0  0  0  0  0  0  0  0  0  0
   28.6767  -17.4802  -17.0566 C   0  0  0  0  0  0  0  0  0  0  0  0
   27.7607  -17.8841  -16.0955 C   0  0  0  0  0  0  0  0  0  0  0  0
   26.3205  -20.9614  -12.7598 O   0  0  0  0  0  0  0  0  0  0  0  0
   25.0852  -21.1726  -12.8643 N   0  0  0  0  0  0  0  0  0  0  0  0
   26.9442  -21.2469  -11.5246 C   0  0  2  0  0  0  0  0  0  0  0  0
   26.1331  -21.6311  -10.3934 C   0  0  0  0  0  0  0  0  0  0  0  0
   27.0879  -21.7900   -9.2205 C   0  0  0  0  0  0  0  0  0  0  0  0
   27.2100  -20.5787   -8.3963 C   0  0  0  0  0  0  0  0  0  0  0  0
   26.3935  -19.4603   -8.3485 N   0  0  0  0  0  0  0  0  0  0  0  0
   26.8890  -18.5939   -7.4493 C   0  0  0  0  0  0  0  0  0  0  0  0
   28.0167  -19.1297   -6.9090 C   0  0  0  0  0  0  0  0  0  0  0  0
   28.9085  -18.6625   -5.9475 C   0  0  0  0  0  0  0  0  0  0  0  0
   30.0003  -19.4151   -5.5657 C   0  0  0  0  0  0  0  0  0  0  0  0
   30.2137  -20.6491   -6.1438 C   0  0  0  0  0  0  0  0  0  0  0  0
   29.3370  -21.1218   -7.0972 C   0  0  0  0  0  0  0  0  0  0  0  0
   28.2313  -20.3615   -7.4849 C   0  0  0  0  0  0  0  0  0  0  0  0
   25.0961  -20.6043  -10.1048 O   0  0  0  0  0  0  0  0  0  0  0  0
   24.0581  -20.8209   -9.4428 O   0  0  0  0  0  0  0  0  0  0  0  0
  2  3  2  0
  2  1  1  0
  4  2  1  0
  5  4  1  0
  6  5  1  0
  7  6  1  0
  8 10  1  0
  8  7  1  0
  8  9  1  6
 10 12  1  0
 11 10  2  0
 12 13  1  0
 13 14  1  6
 13 21  1  0
 15 14  1  0
 16 15  2  0
 17 16  1  0
 18 17  2  0
 18 19  1  0
 19 20  2  0
 20 15  1  0
 21 23  1  0
 21 22  2  0
 23 24  1  0
 24 35  1  0
 24 25  1  6
 26 27  2  0
 26 25  1  0
 28 27  1  0
 29 34  2  0
 29 28  1  0
 30 29  1  0
 31 32  1  0
 31 30  2  0
 32 33  2  0
 33 34  1  0
 34 26  1  0
 35 37  1  0
 36 35  2  0
M  END
$$$$
