RFW.pdb
     RDKit          3D

 37 39  0  0  1  0  0  0  0  0999 V2000
   29.2073  -17.5646  -17.7380 N   0  0  0  0  0  0  0  0  0  0  0  0
   28.1435  -16.6334  -17.5658 C   0  0  0  0  0  0  0  0  0  0  0  0
   27.7949  -15.8702  -18.5703 N   0  0  0  0  0  0  0  0  0  0  0  0
   27.4317  -16.4856  -16.3512 N   0  0  0  0  0  0  0  0  0  0  0  0
   27.8478  -17.2697  -15.2051 C   0  0  0  0  0  0  0  0  0  0  0  0
   27.8079  -18.7649  -15.4942 C   0  0  0  0  0  0  0  0  0  0  0  0
   26.8972  -19.3669  -14.4615 C   0  0  0  0  0  0  0  0  0  0  0  0
   27.4775  -20.4943  -13.6851 C   0  0  2  0  0  0  0  0  0  0  0  0
   28.2654  -21.4255  -14.4238 N   0  0  0  0  0  0  0  0  0  0  0  0
   26.4228  -21.1760  -12.8626 C   0  0  0  0  0  0  0  0  0  0  0  0
   25.7836  -22.1593  -13.3049 O   0  0  0  0  0  0  0  0  0  0  0  0
   27.0460  -15.1502  -18.4631 N   0  0  0  0  0  0  0  0  0  0  0  0
   26.1275  -20.7115  -11.5524 C   0  0  2  0  0  0  0  0  0  0  0  0
   24.9733  -21.0015  -10.7778 C   0  0  0  0  0  0  0  0  0  0  0  0
   25.1364  -20.8510   -9.2742 C   0  0  0  0  0  0  0  0  0  0  0  0
   26.5640  -20.9321   -8.9117 C   0  0  0  0  0  0  0  0  0  0  0  0
   26.9789  -20.1679   -7.8262 C   0  0  0  0  0  0  0  0  0  0  0  0
   28.2846  -20.1400   -7.3881 C   0  0  0  0  0  0  0  0  0  0  0  0
   29.2299  -20.8978   -8.0455 C   0  0  0  0  0  0  0  0  0  0  0  0
   28.8481  -21.6626   -9.1217 C   0  0  0  0  0  0  0  0  0  0  0  0
   27.5240  -21.6676   -9.5371 C   0  0  0  0  0  0  0  0  0  0  0  0
   23.7366  -20.3829  -11.2814 O   0  0  0  0  0  0  0  0  0  0  0  0
   23.6871  -19.1678  -11.6017 N   0  0  0  0  0  0  0  0  0  0  0  0
   22.5625  -21.1571  -11.4167 C   0  0  1  0  0  0  0  0  0  0  0  0
   21.5938  -20.8043  -12.4277 C   0  0  0  0  0  0  0  0  0  0  0  0
   22.2904  -20.9895  -13.7667 C   0  0  0  0  0  0  0  0  0  0  0  0
   21.4556  -20.6161  -14.9179 C   0  0  0  0  0  0  0  0  0  0  0  0
   21.0051  -19.3659  -15.3101 N   0  0  0  0  0  0  0  0  0  0  0  0
   20.2665  -19.4959  -16.4247 C   0  0  0  0  0  0  0  0  0  0  0  0
   20.2279  -20.8122  -16.7663 C   0  0  0  0  0  0  0  0  0  0  0  0
   19.6137  -21.4903  -17.8156 C   0  0  0  0  0  0  0  0  0  0  0  0
   19.7293  -22.8598  -17.9408 C   0  0  0  0  0  0  0  0  0  0  0  0
   20.4638  -23.5697  -17.0140 C   0  0  0  0  0  0  0  0  0  0  0  0
   21.0765  -22.9084  -15.9708 C   0  0  0  0  0  0  0  0  0  0  0  0
   20.9606  -21.5224  -15.8423 C   0  0  0  0  0  0  0  0  0  0  0  0
   20.3823  -21.6621  -12.3308 O   0  0  0  0  0  0  0  0  0  0  0  0
   19.2129  -21.2453  -12.4769 O   0  0  0  0  0  0  0  0  0  0  0  0
  2  3  2  0
  2  1  1  0
  4  2  1  0
  5  4  1  0
  6  5  1  0
  7  6  1  0
  8 10  1  0
  8  7  1  0
  8  9  1  6
 10 12  1  0
 11 10  2  0
 12 13  1  0
 13 14  1  6
 13 21  1  0
 15 14  1  0
 16 15  2  0
 17 16  1  0
 18 17  2  0
 18 19  1  0
 19 20  2  0
 20 15  1  0
 21 23  1  0
 21 22  2  0
 23 24  1  0
 24 35  1  0
 24 25  1  1
 26 27  2  0
 26 25  1  0
 28 27  1  0
 29 34  2  0
 29 28  1  0
 30 29  1  0
 31 32  1  0
 31 30  2  0
 32 33  2  0
 33 34  1  0
 34 26  1  0
 35 37  1  0
 36 35  2  0
M  END
$$$$
