NDY.pdb
     RDKit          3D

 29 29  0  0  1  0  0  0  0  0999 V2000
   19.8284  -13.6144  -16.4514 N   0  0  0  0  0  0  0  0  0  0  0  0
   19.6723  -13.1220  -17.7752 C   0  0  0  0  0  0  0  0  0  0  0  0
   19.6015  -13.9648  -18.7032 O   0  0  0  0  0  0  0  0  0  0  0  0
   19.5981  -11.6600  -18.0195 C   0  0  0  0  0  0  0  0  0  0  0  0
   19.6308  -10.9715  -16.6937 C   0  0  2  0  0  0  0  0  0  0  0  0
   18.6395  -11.5210  -15.8085 N   0  0  0  0  0  0  0  0  0  0  0  0
   19.6203   -9.5030  -16.7607 C   0  0  0  0  0  0  0  0  0  0  0  0
   20.4129   -8.9533  -17.5616 O   0  0  0  0  0  0  0  0  0  0  0  0
   18.7516   -8.7311  -15.9530 N   0  0  0  0  0  0  0  0  0  0  0  0
   18.7166   -7.3005  -16.0169 C   0  0  1  0  0  0  0  0  0  0  0  0
   17.3682   -6.7233  -16.2470 C   0  0  0  0  0  0  0  0  0  0  0  0
   17.4208   -5.2408  -16.2077 C   0  0  0  0  0  0  0  0  0  0  0  0
   18.2101   -4.5930  -16.9378 O   0  0  0  0  0  0  0  0  0  0  0  0
   19.3479   -6.7817  -14.7487 C   0  0  0  0  0  0  0  0  0  0  0  0
   19.0485   -7.1711  -13.6131 O   0  0  0  0  0  0  0  0  0  0  0  0
   16.6045   -4.4810  -15.3649 O   0  0  0  0  0  0  0  0  0  0  0  0
   25.2964   -6.5155  -18.4342 O   0  0  0  0  0  0  0  0  0  0  0  0
   24.5635   -6.4347  -17.2559 C   0  0  0  0  0  0  0  0  0  0  0  0
   24.5363   -5.2807  -16.5356 C   0  0  0  0  0  0  0  0  0  0  0  0
   23.8059   -5.2077  -15.3654 C   0  0  0  0  0  0  0  0  0  0  0  0
   23.0941   -6.2811  -14.8978 C   0  0  0  0  0  0  0  0  0  0  0  0
   22.3093   -6.2161  -13.6495 C   0  0  0  0  0  0  0  0  0  0  0  0
   21.1281   -5.2513  -13.8189 C   0  0  2  0  0  0  0  0  0  0  0  0
   20.3409   -5.7901  -14.8929 N   0  0  0  0  0  0  0  0  0  0  0  0
   21.6721   -3.9226  -14.0634 C   0  0  0  0  0  0  0  0  0  0  0  0
   22.3787   -3.3353  -13.2153 O   0  0  0  0  0  0  0  0  0  0  0  0
   23.1247   -7.4563  -15.6354 C   0  0  0  0  0  0  0  0  0  0  0  0
   23.8542   -7.5254  -16.8020 C   0  0  0  0  0  0  0  0  0  0  0  0
   21.4131   -3.2770  -15.2565 O   0  0  0  0  0  0  0  0  0  0  0  0
  1  2  1  0
  2  3  2  0
  4  2  1  0
  4  5  1  0
  5  7  1  0
  5  6  1  1
  7  8  2  0
  9 10  1  0
  9  7  1  0
 10 11  1  1
 12 11  1  0
 13 12  2  0
 14 15  2  0
 14 10  1  0
 16 12  1  0
 17 18  1  0
 18 19  2  0
 18 28  1  0
 19 20  1  0
 20 21  2  0
 21 22  1  0
 23 22  1  6
 23 24  1  0
 23 25  1  0
 24 14  1  0
 25 29  1  0
 26 25  2  0
 27 21  1  0
 28 27  2  0
M  END
$$$$
