NDY.pdb
     RDKit          3D

 29 29  0  0  1  0  0  0  0  0999 V2000
   13.6072  -10.3150  -15.6543 N   0  0  0  0  0  0  0  0  0  0  0  0
   14.0132   -9.6585  -14.4613 C   0  0  0  0  0  0  0  0  0  0  0  0
   13.1325   -9.0498  -13.8053 O   0  0  0  0  0  0  0  0  0  0  0  0
   15.4332   -9.7091  -14.0324 C   0  0  0  0  0  0  0  0  0  0  0  0
   16.1818  -10.5404  -15.0231 C   0  0  2  0  0  0  0  0  0  0  0  0
   15.9658  -11.9414  -14.7806 N   0  0  0  0  0  0  0  0  0  0  0  0
   17.5962  -10.1765  -15.1902 C   0  0  0  0  0  0  0  0  0  0  0  0
   18.4500  -10.8821  -14.6031 O   0  0  0  0  0  0  0  0  0  0  0  0
   17.9876   -9.0705  -15.9819 N   0  0  0  0  0  0  0  0  0  0  0  0
   19.3541   -8.6563  -16.0956 C   0  0  1  0  0  0  0  0  0  0  0  0
   19.8925   -8.6695  -17.4792 C   0  0  0  0  0  0  0  0  0  0  0  0
   20.0423  -10.0625  -17.9684 C   0  0  0  0  0  0  0  0  0  0  0  0
   20.9007  -10.8392  -17.4831 O   0  0  0  0  0  0  0  0  0  0  0  0
   19.4619   -7.2937  -15.4569 C   0  0  0  0  0  0  0  0  0  0  0  0
   18.6464   -6.3791  -15.6279 O   0  0  0  0  0  0  0  0  0  0  0  0
   19.2465  -10.5914  -18.9885 O   0  0  0  0  0  0  0  0  0  0  0  0
   16.6656   -8.1004   -9.7146 O   0  0  0  0  0  0  0  0  0  0  0  0
   17.7911   -7.6556  -10.3983 C   0  0  0  0  0  0  0  0  0  0  0  0
   18.7066   -8.5421  -10.8749 C   0  0  0  0  0  0  0  0  0  0  0  0
   19.8229   -8.0928  -11.5535 C   0  0  0  0  0  0  0  0  0  0  0  0
   20.0418   -6.7570  -11.7660 C   0  0  0  0  0  0  0  0  0  0  0  0
   21.2298   -6.2639  -12.4898 C   0  0  0  0  0  0  0  0  0  0  0  0
   20.8436   -5.8479  -13.9155 C   0  0  2  0  0  0  0  0  0  0  0  0
   20.5719   -7.0729  -14.6147 N   0  0  0  0  0  0  0  0  0  0  0  0
   21.9411   -5.0607  -14.4605 C   0  0  0  0  0  0  0  0  0  0  0  0
   22.2438   -3.9418  -13.9916 O   0  0  0  0  0  0  0  0  0  0  0  0
   19.1056   -5.8561  -11.2781 C   0  0  0  0  0  0  0  0  0  0  0  0
   17.9936   -6.3079  -10.6019 C   0  0  0  0  0  0  0  0  0  0  0  0
   22.6796   -5.5443  -15.5225 O   0  0  0  0  0  0  0  0  0  0  0  0
  1  2  1  0
  2  3  2  0
  4  2  1  0
  4  5  1  0
  5  7  1  0
  5  6  1  1
  7  8  2  0
  9 10  1  0
  9  7  1  0
 10 11  1  6
 12 11  1  0
 13 12  2  0
 14 15  2  0
 14 10  1  0
 16 12  1  0
 17 18  1  0
 18 19  2  0
 18 28  1  0
 19 20  1  0
 20 21  2  0
 21 22  1  0
 23 22  1  1
 23 24  1  0
 23 25  1  0
 24 14  1  0
 25 29  1  0
 26 25  2  0
 27 21  1  0
 28 27  2  0
M  END
$$$$
