NDY.pdb
     RDKit          3D

 29 29  0  0  1  0  0  0  0  0999 V2000
   17.9290  -13.7905  -15.4523 N   0  0  0  0  0  0  0  0  0  0  0  0
   18.1498  -13.4314  -16.8093 C   0  0  0  0  0  0  0  0  0  0  0  0
   18.2065  -14.3592  -17.6533 O   0  0  0  0  0  0  0  0  0  0  0  0
   18.3033  -12.0034  -17.1839 C   0  0  0  0  0  0  0  0  0  0  0  0
   18.1958  -11.1883  -15.9360 C   0  0  2  0  0  0  0  0  0  0  0  0
   16.9113  -11.3713  -15.3158 N   0  0  0  0  0  0  0  0  0  0  0  0
   18.5903   -9.7799  -16.0834 C   0  0  0  0  0  0  0  0  0  0  0  0
   19.7597   -9.5423  -16.4679 O   0  0  0  0  0  0  0  0  0  0  0  0
   17.6895   -8.7252  -15.8020 N   0  0  0  0  0  0  0  0  0  0  0  0
   18.0664   -7.3475  -15.9101 C   0  0  1  0  0  0  0  0  0  0  0  0
   16.9354   -6.4111  -16.1298 C   0  0  0  0  0  0  0  0  0  0  0  0
   17.4165   -5.0075  -16.1548 C   0  0  0  0  0  0  0  0  0  0  0  0
   17.0516   -4.1736  -15.2904 O   0  0  0  0  0  0  0  0  0  0  0  0
   18.8573   -7.0029  -14.6724 C   0  0  0  0  0  0  0  0  0  0  0  0
   18.5200   -7.3125  -13.5231 O   0  0  0  0  0  0  0  0  0  0  0  0
   18.2957   -4.5308  -17.1313 O   0  0  0  0  0  0  0  0  0  0  0  0
   24.9095   -6.7003  -18.6954 O   0  0  0  0  0  0  0  0  0  0  0  0
   24.2173   -6.7428  -17.4909 C   0  0  0  0  0  0  0  0  0  0  0  0
   24.4243   -5.7920  -16.5398 C   0  0  0  0  0  0  0  0  0  0  0  0
   23.7328   -5.8407  -15.3449 C   0  0  0  0  0  0  0  0  0  0  0  0
   22.8276   -6.8351  -15.0818 C   0  0  0  0  0  0  0  0  0  0  0  0
   22.0819   -6.8983  -13.8096 C   0  0  0  0  0  0  0  0  0  0  0  0
   20.9437   -5.8691  -13.8139 C   0  0  2  0  0  0  0  0  0  0  0  0
   20.0545   -6.2817  -14.8640 N   0  0  0  0  0  0  0  0  0  0  0  0
   21.5376   -4.5517  -13.9949 C   0  0  0  0  0  0  0  0  0  0  0  0
   21.3286   -3.8721  -15.0235 O   0  0  0  0  0  0  0  0  0  0  0  0
   22.6196   -7.8030  -16.0544 C   0  0  0  0  0  0  0  0  0  0  0  0
   23.3110   -7.7512  -17.2449 C   0  0  0  0  0  0  0  0  0  0  0  0
   22.3556   -4.0206  -13.0172 O   0  0  0  0  0  0  0  0  0  0  0  0
  1  2  1  0
  2  3  2  0
  4  2  1  0
  4  5  1  0
  5  7  1  0
  5  6  1  6
  7  8  2  0
  9 10  1  0
  9  7  1  0
 10 11  1  1
 12 11  1  0
 13 12  2  0
 14 15  2  0
 14 10  1  0
 16 12  1  0
 17 18  1  0
 18 19  2  0
 18 28  1  0
 19 20  1  0
 20 21  2  0
 21 22  1  0
 23 22  1  6
 23 24  1  0
 23 25  1  0
 24 14  1  0
 25 29  1  0
 26 25  2  0
 27 21  1  0
 28 27  2  0
M  END
$$$$
