NDY.pdb
     RDKit          3D

 29 29  0  0  1  0  0  0  0  0999 V2000
   18.8469  -17.9311  -16.2585 N   0  0  0  0  0  0  0  0  0  0  0  0
   18.8666  -18.6574  -15.0372 C   0  0  0  0  0  0  0  0  0  0  0  0
   17.7758  -19.1155  -14.6169 O   0  0  0  0  0  0  0  0  0  0  0  0
   20.1454  -18.8510  -14.3091 C   0  0  0  0  0  0  0  0  0  0  0  0
   21.2339  -18.2270  -15.1208 C   0  0  2  0  0  0  0  0  0  0  0  0
   20.6862  -17.4779  -16.2194 N   0  0  0  0  0  0  0  0  0  0  0  0
   22.3179  -19.1422  -15.5061 C   0  0  0  0  0  0  0  0  0  0  0  0
   22.8484  -19.8272  -14.6000 O   0  0  0  0  0  0  0  0  0  0  0  0
   22.7535  -19.2505  -16.8484 N   0  0  0  0  0  0  0  0  0  0  0  0
   23.7942  -20.1513  -17.2449 C   0  0  1  0  0  0  0  0  0  0  0  0
   23.8680  -20.4085  -18.7053 C   0  0  0  0  0  0  0  0  0  0  0  0
   24.8989  -21.4334  -19.0038 C   0  0  0  0  0  0  0  0  0  0  0  0
   26.0878  -21.1152  -19.2507 O   0  0  0  0  0  0  0  0  0  0  0  0
   25.0897  -19.6047  -16.6979 C   0  0  0  0  0  0  0  0  0  0  0  0
   25.4941  -18.4514  -16.8902 O   0  0  0  0  0  0  0  0  0  0  0  0
   24.6143  -22.8017  -19.0291 O   0  0  0  0  0  0  0  0  0  0  0  0
   24.1140  -21.0899   -9.7952 O   0  0  0  0  0  0  0  0  0  0  0  0
   24.7801  -20.5795  -10.9033 C   0  0  0  0  0  0  0  0  0  0  0  0
   26.1370  -20.4784  -10.9091 C   0  0  0  0  0  0  0  0  0  0  0  0
   26.7923  -19.9700  -12.0139 C   0  0  0  0  0  0  0  0  0  0  0  0
   26.1062  -19.5563  -13.1254 C   0  0  0  0  0  0  0  0  0  0  0  0
   26.7942  -19.0119  -14.3123 C   0  0  0  0  0  0  0  0  0  0  0  0
   27.1206  -20.1424  -15.2973 C   0  0  2  0  0  0  0  0  0  0  0  0
   25.8721  -20.4840  -15.9202 N   0  0  0  0  0  0  0  0  0  0  0  0
   27.7456  -21.2206  -14.5437 C   0  0  0  0  0  0  0  0  0  0  0  0
   28.8457  -21.0692  -13.9689 O   0  0  0  0  0  0  0  0  0  0  0  0
   24.7223  -19.6610  -13.1153 C   0  0  0  0  0  0  0  0  0  0  0  0
   24.0723  -20.1686  -12.0117 C   0  0  0  0  0  0  0  0  0  0  0  0
   27.1239  -22.4501  -14.4488 O   0  0  0  0  0  0  0  0  0  0  0  0
  1  2  1  0
  2  3  2  0
  4  2  1  0
  4  5  1  0
  5  7  1  0
  5  6  1  6
  7  8  2  0
  9 10  1  0
  9  7  1  0
 10 11  1  6
 12 11  1  0
 13 12  2  0
 14 15  2  0
 14 10  1  0
 16 12  1  0
 17 18  1  0
 18 19  2  0
 18 28  1  0
 19 20  1  0
 20 21  2  0
 21 22  1  0
 23 22  1  1
 23 24  1  0
 23 25  1  0
 24 14  1  0
 25 29  1  0
 26 25  2  0
 27 21  1  0
 28 27  2  0
M  END
$$$$
