NDY.pdb
     RDKit          3D

 29 29  0  0  1  0  0  0  0  0999 V2000
   47.9805  -13.3490   -6.9609 N   0  0  0  0  0  0  0  0  0  0  0  0
   46.8308  -12.7029   -6.4317 C   0  0  0  0  0  0  0  0  0  0  0  0
   46.4690  -13.0202   -5.2721 O   0  0  0  0  0  0  0  0  0  0  0  0
   46.1062  -11.6940   -7.2441 C   0  0  0  0  0  0  0  0  0  0  0  0
   44.6800  -12.1279   -7.3483 C   0  0  2  0  0  0  0  0  0  0  0  0
   44.5522  -13.2526   -8.2354 N   0  0  0  0  0  0  0  0  0  0  0  0
   43.7239  -11.0447   -7.6189 C   0  0  0  0  0  0  0  0  0  0  0  0
   43.6903  -10.5777   -8.7819 O   0  0  0  0  0  0  0  0  0  0  0  0
   42.8703  -10.5409   -6.6086 N   0  0  0  0  0  0  0  0  0  0  0  0
   41.9195   -9.4993   -6.8593 C   0  0  1  0  0  0  0  0  0  0  0  0
   40.7434   -9.5027   -5.9532 C   0  0  0  0  0  0  0  0  0  0  0  0
   39.8240  -10.6164   -6.2946 C   0  0  0  0  0  0  0  0  0  0  0  0
   39.1482  -11.2024   -5.4139 O   0  0  0  0  0  0  0  0  0  0  0  0
   42.6688   -8.1907   -6.8130 C   0  0  0  0  0  0  0  0  0  0  0  0
   43.5769   -7.9373   -6.0119 O   0  0  0  0  0  0  0  0  0  0  0  0
   39.6546  -11.0780   -7.6031 O   0  0  0  0  0  0  0  0  0  0  0  0
   47.3283   -1.5039   -9.1208 O   0  0  0  0  0  0  0  0  0  0  0  0
   46.5948   -2.6694   -8.9319 C   0  0  0  0  0  0  0  0  0  0  0  0
   45.3251   -2.6169   -8.4457 C   0  0  0  0  0  0  0  0  0  0  0  0
   44.6021   -3.7794   -8.2603 C   0  0  0  0  0  0  0  0  0  0  0  0
   45.1331   -5.0073   -8.5561 C   0  0  0  0  0  0  0  0  0  0  0  0
   44.3712   -6.2566   -8.3632 C   0  0  0  0  0  0  0  0  0  0  0  0
   42.9377   -5.9367   -7.9190 C   0  0  2  0  0  0  0  0  0  0  0  0
   42.2919   -7.2092   -7.7537 N   0  0  0  0  0  0  0  0  0  0  0  0
   42.3424   -5.0732   -8.9295 C   0  0  0  0  0  0  0  0  0  0  0  0
   41.6487   -5.5341   -9.8622 O   0  0  0  0  0  0  0  0  0  0  0  0
   46.4286   -5.0565   -9.0516 C   0  0  0  0  0  0  0  0  0  0  0  0
   47.1465   -3.8951   -9.2352 C   0  0  0  0  0  0  0  0  0  0  0  0
   42.5367   -3.7070   -8.8746 O   0  0  0  0  0  0  0  0  0  0  0  0
  1  2  1  0
  2  3  2  0
  4  2  1  0
  4  5  1  0
  5  7  1  0
  5  6  1  6
  7  8  2  0
  9 10  1  0
  9  7  1  0
 10 11  1  1
 12 11  1  0
 13 12  2  0
 14 15  2  0
 14 10  1  0
 16 12  1  0
 17 18  1  0
 18 19  2  0
 18 28  1  0
 19 20  1  0
 20 21  2  0
 21 22  1  0
 23 22  1  6
 23 24  1  0
 23 25  1  0
 24 14  1  0
 25 29  1  0
 26 25  2  0
 27 21  1  0
 28 27  2  0
M  END
$$$$
