NDY.pdb
     RDKit          3D

 29 29  0  0  1  0  0  0  0  0999 V2000
   20.0003  -13.5600  -16.7279 N   0  0  0  0  0  0  0  0  0  0  0  0
   20.3444  -12.8832  -17.9291 C   0  0  0  0  0  0  0  0  0  0  0  0
   20.7646  -13.5781  -18.8867 O   0  0  0  0  0  0  0  0  0  0  0  0
   20.2006  -11.4087  -18.0178 C   0  0  0  0  0  0  0  0  0  0  0  0
   19.6286  -10.9253  -16.7247 C   0  0  2  0  0  0  0  0  0  0  0  0
   18.3710  -11.5671  -16.4512 N   0  0  0  0  0  0  0  0  0  0  0  0
   19.5965   -9.4636  -16.5725 C   0  0  0  0  0  0  0  0  0  0  0  0
   20.6468   -8.8301  -16.8320 O   0  0  0  0  0  0  0  0  0  0  0  0
   18.4272   -8.7889  -16.1475 N   0  0  0  0  0  0  0  0  0  0  0  0
   18.3748   -7.3646  -16.0042 C   0  0  1  0  0  0  0  0  0  0  0  0
   17.0040   -6.8001  -15.9225 C   0  0  0  0  0  0  0  0  0  0  0  0
   16.2572   -7.0574  -17.1787 C   0  0  0  0  0  0  0  0  0  0  0  0
   15.0951   -7.5320  -17.1654 O   0  0  0  0  0  0  0  0  0  0  0  0
   19.2097   -7.0064  -14.7997 C   0  0  0  0  0  0  0  0  0  0  0  0
   19.0786   -7.5244  -13.6838 O   0  0  0  0  0  0  0  0  0  0  0  0
   16.7943   -6.7911  -18.4414 O   0  0  0  0  0  0  0  0  0  0  0  0
   25.1332   -6.8653  -18.7046 O   0  0  0  0  0  0  0  0  0  0  0  0
   24.4132   -6.8063  -17.5172 C   0  0  0  0  0  0  0  0  0  0  0  0
   24.5404   -5.7389  -16.6830 C   0  0  0  0  0  0  0  0  0  0  0  0
   23.8217   -5.6871  -15.5043 C   0  0  0  0  0  0  0  0  0  0  0  0
   22.9684   -6.6958  -15.1414 C   0  0  0  0  0  0  0  0  0  0  0  0
   22.1945   -6.6524  -13.8854 C   0  0  0  0  0  0  0  0  0  0  0  0
   21.1120   -5.5681  -13.9702 C   0  0  2  0  0  0  0  0  0  0  0  0
   20.1966   -6.0151  -14.9830 N   0  0  0  0  0  0  0  0  0  0  0  0
   21.7734   -4.3025  -14.2563 C   0  0  0  0  0  0  0  0  0  0  0  0
   21.6714   -3.7446  -15.3707 O   0  0  0  0  0  0  0  0  0  0  0  0
   22.8417   -7.7828  -15.9950 C   0  0  0  0  0  0  0  0  0  0  0  0
   23.5600   -7.8310  -17.1696 C   0  0  0  0  0  0  0  0  0  0  0  0
   22.5377   -3.6856  -13.2855 O   0  0  0  0  0  0  0  0  0  0  0  0
  1  2  1  0
  2  3  2  0
  4  2  1  0
  4  5  1  0
  5  7  1  0
  5  6  1  6
  7  8  2  0
  9 10  1  0
  9  7  1  0
 10 11  1  1
 12 11  1  0
 13 12  2  0
 14 15  2  0
 14 10  1  0
 16 12  1  0
 17 18  1  0
 18 19  2  0
 18 28  1  0
 19 20  1  0
 20 21  2  0
 21 22  1  0
 23 22  1  6
 23 24  1  0
 23 25  1  0
 24 14  1  0
 25 29  1  0
 26 25  2  0
 27 21  1  0
 28 27  2  0
M  END
$$$$
