NDY.pdb
     RDKit          3D

 29 29  0  0  1  0  0  0  0  0999 V2000
   29.3311  -35.7260   -6.7024 N   0  0  0  0  0  0  0  0  0  0  0  0
   29.2358  -35.8917   -5.2943 C   0  0  0  0  0  0  0  0  0  0  0  0
   29.9259  -36.7994   -4.7688 O   0  0  0  0  0  0  0  0  0  0  0  0
   28.3450  -35.0082   -4.5013 C   0  0  0  0  0  0  0  0  0  0  0  0
   27.2034  -35.8348   -4.0048 C   0  0  2  0  0  0  0  0  0  0  0  0
   27.6004  -37.2073   -3.8406 N   0  0  0  0  0  0  0  0  0  0  0  0
   25.9479  -35.6635   -4.7499 C   0  0  0  0  0  0  0  0  0  0  0  0
   25.4476  -36.6808   -5.2852 O   0  0  0  0  0  0  0  0  0  0  0  0
   25.3215  -34.3996   -4.8648 N   0  0  0  0  0  0  0  0  0  0  0  0
   24.0796  -34.2208   -5.5558 C   0  0  1  0  0  0  0  0  0  0  0  0
   23.1043  -33.3436   -4.8604 C   0  0  0  0  0  0  0  0  0  0  0  0
   21.7309  -33.5831   -5.3690 C   0  0  0  0  0  0  0  0  0  0  0  0
   21.1436  -34.6767   -5.1817 O   0  0  0  0  0  0  0  0  0  0  0  0
   24.4077  -33.7202   -6.9406 C   0  0  0  0  0  0  0  0  0  0  0  0
   25.1267  -32.7407   -7.1737 O   0  0  0  0  0  0  0  0  0  0  0  0
   21.0130  -32.6177   -6.0806 O   0  0  0  0  0  0  0  0  0  0  0  0
   26.3888  -33.5928  -15.2629 O   0  0  0  0  0  0  0  0  0  0  0  0
   26.0608  -33.9434  -13.9585 C   0  0  0  0  0  0  0  0  0  0  0  0
   26.4400  -33.1576  -12.9145 C   0  0  0  0  0  0  0  0  0  0  0  0
   26.1106  -33.5124  -11.6207 C   0  0  0  0  0  0  0  0  0  0  0  0
   25.4005  -34.6525  -11.3499 C   0  0  0  0  0  0  0  0  0  0  0  0
   25.0416  -35.0425   -9.9724 C   0  0  0  0  0  0  0  0  0  0  0  0
   23.9942  -34.0746   -9.4062 C   0  0  2  0  0  0  0  0  0  0  0  0
   23.8473  -34.4313   -8.0225 N   0  0  0  0  0  0  0  0  0  0  0  0
   22.7853  -34.2112  -10.2068 C   0  0  0  0  0  0  0  0  0  0  0  0
   21.7574  -34.7628   -9.7565 O   0  0  0  0  0  0  0  0  0  0  0  0
   25.0157  -35.4513  -12.4177 C   0  0  0  0  0  0  0  0  0  0  0  0
   25.3461  -35.0942  -13.7066 C   0  0  0  0  0  0  0  0  0  0  0  0
   22.7521  -33.7256  -11.4992 O   0  0  0  0  0  0  0  0  0  0  0  0
  1  2  1  0
  2  3  2  0
  4  2  1  0
  4  5  1  0
  5  7  1  0
  5  6  1  6
  7  8  2  0
  9 10  1  0
  9  7  1  0
 10 11  1  1
 12 11  1  0
 13 12  2  0
 14 15  2  0
 14 10  1  0
 16 12  1  0
 17 18  1  0
 18 19  2  0
 18 28  1  0
 19 20  1  0
 20 21  2  0
 21 22  1  0
 23 22  1  6
 23 24  1  0
 23 25  1  0
 24 14  1  0
 25 29  1  0
 26 25  2  0
 27 21  1  0
 28 27  2  0
M  END
$$$$
