NDY.pdb
     RDKit          3D

 29 29  0  0  1  0  0  0  0  0999 V2000
   19.5490  -18.9645  -13.4230 N   0  0  0  0  0  0  0  0  0  0  0  0
   18.7017  -17.9651  -13.9730 C   0  0  0  0  0  0  0  0  0  0  0  0
   17.6902  -18.3484  -14.6105 O   0  0  0  0  0  0  0  0  0  0  0  0
   19.0267  -16.5294  -13.7831 C   0  0  0  0  0  0  0  0  0  0  0  0
   18.6174  -15.7992  -15.0210 C   0  0  2  0  0  0  0  0  0  0  0  0
   19.3047  -16.3203  -16.1718 N   0  0  0  0  0  0  0  0  0  0  0  0
   18.6601  -14.3337  -14.9152 C   0  0  0  0  0  0  0  0  0  0  0  0
   18.9319  -13.8406  -13.7951 O   0  0  0  0  0  0  0  0  0  0  0  0
   18.4033  -13.5029  -16.0319 N   0  0  0  0  0  0  0  0  0  0  0  0
   18.4563  -12.0738  -15.9508 C   0  0  1  0  0  0  0  0  0  0  0  0
   18.5528  -11.3819  -17.2609 C   0  0  0  0  0  0  0  0  0  0  0  0
   18.7138   -9.9193  -17.0688 C   0  0  0  0  0  0  0  0  0  0  0  0
   17.8177   -9.1101  -17.4123 O   0  0  0  0  0  0  0  0  0  0  0  0
   17.2521  -11.6269  -15.1595 C   0  0  0  0  0  0  0  0  0  0  0  0
   16.0992  -12.0277  -15.3618 O   0  0  0  0  0  0  0  0  0  0  0  0
   19.8601   -9.3567  -16.5002 O   0  0  0  0  0  0  0  0  0  0  0  0
   13.9256  -15.3454  -10.8487 O   0  0  0  0  0  0  0  0  0  0  0  0
   14.6075  -14.1614  -11.1037 C   0  0  0  0  0  0  0  0  0  0  0  0
   13.9688  -12.9629  -11.0193 C   0  0  0  0  0  0  0  0  0  0  0  0
   14.6529  -11.7901  -11.2743 C   0  0  0  0  0  0  0  0  0  0  0  0
   15.9797  -11.7953  -11.6161 C   0  0  0  0  0  0  0  0  0  0  0  0
   16.7223  -10.5496  -11.8903 C   0  0  0  0  0  0  0  0  0  0  0  0
   16.4558  -10.0824  -13.3275 C   0  0  2  0  0  0  0  0  0  0  0  0
   17.4810  -10.6923  -14.1278 N   0  0  0  0  0  0  0  0  0  0  0  0
   16.4615   -8.6260  -13.3287 C   0  0  0  0  0  0  0  0  0  0  0  0
   15.5954   -7.9647  -12.7155 O   0  0  0  0  0  0  0  0  0  0  0  0
   16.6274  -13.0198  -11.7012 C   0  0  0  0  0  0  0  0  0  0  0  0
   15.9419  -14.1873  -11.4463 C   0  0  0  0  0  0  0  0  0  0  0  0
   17.4401   -7.9379  -14.0187 O   0  0  0  0  0  0  0  0  0  0  0  0
  1  2  1  0
  2  3  2  0
  4  2  1  0
  4  5  1  0
  5  7  1  0
  5  6  1  6
  7  8  2  0
  9 10  1  0
  9  7  1  0
 10 11  1  6
 12 11  1  0
 13 12  2  0
 14 15  2  0
 14 10  1  0
 16 12  1  0
 17 18  1  0
 18 19  2  0
 18 28  1  0
 19 20  1  0
 20 21  2  0
 21 22  1  0
 23 22  1  1
 23 24  1  0
 23 25  1  0
 24 14  1  0
 25 29  1  0
 26 25  2  0
 27 21  1  0
 28 27  2  0
M  END
$$$$
