GCK.pdb
     RDKit          3D

 20 19  0  0  1  0  0  0  0  0999 V2000
    7.5606  -15.2844   20.3570 N   0  0  0  0  0  0  0  0  0  0  0  0
    6.7825  -15.0609   21.5381 C   0  0  0  0  0  0  0  0  0  0  0  0
    7.6033  -14.6229   22.6843 C   0  0  0  0  0  0  0  0  0  0  0  0
    8.8506  -14.7781   22.7324 O   0  0  0  0  0  0  0  0  0  0  0  0
    6.9827  -13.9976   23.7917 N   0  0  0  0  0  0  0  0  0  0  0  0
    7.6552  -13.5975   24.9845 C   0  0  1  0  0  0  0  0  0  0  0  0
    6.8001  -12.6988   25.8492 C   0  0  0  0  0  0  0  0  0  0  0  0
    7.7723  -12.1509   27.2900 S   0  0  0  0  0  0  0  0  0  0  0  0
    8.1050  -14.7403   25.8177 C   0  0  0  0  0  0  0  0  0  0  0  0
    7.3065  -15.6538   26.1306 O   0  0  0  0  0  0  0  0  0  0  0  0
    9.4334  -14.8255   26.2748 N   0  0  0  0  0  0  0  0  0  0  0  0
    9.8397  -15.9902   27.0583 C   0  0  1  0  0  0  0  0  0  0  0  0
   10.9393  -16.7363   26.3544 C   0  0  0  0  0  0  0  0  0  0  0  0
   11.3039  -17.9533   27.1543 C   0  0  0  0  0  0  0  0  0  0  0  0
   12.3698  -18.7843   26.4421 C   0  0  0  0  0  0  0  0  0  0  0  0
   12.6264  -19.9862   27.3475 C   0  0  0  0  0  0  0  0  0  0  0  0
   11.9738  -21.1376   26.8000 N   0  0  0  0  0  0  0  0  0  0  0  0
   10.1684  -15.6135   28.4318 C   0  0  0  0  0  0  0  0  0  0  0  0
   10.3183  -14.3737   28.6969 O   0  0  0  0  0  0  0  0  0  0  0  0
   10.3326  -16.4797   29.4902 O   0  0  0  0  0  0  0  0  0  0  0  0
  1  2  1  0
  3  2  1  0
  3  5  1  0
  4  3  2  0
  6  5  1  0
  6  7  1  1
  8  7  1  0
  9  6  1  0
 10  9  2  0
 11  9  1  0
 12 13  1  6
 12 11  1  0
 13 14  1  0
 14 15  1  0
 15 16  1  0
 16 17  1  0
 18 12  1  0
 19 18  2  0
 20 18  1  0
M  END
$$$$
