GCK.pdb
     RDKit          3D

 20 19  0  0  1  0  0  0  0  0999 V2000
   -7.9674  -21.0006   21.3577 N   0  0  0  0  0  0  0  0  0  0  0  0
   -7.7613  -22.4151   21.4409 C   0  0  0  0  0  0  0  0  0  0  0  0
   -7.1586  -22.8265   22.7243 C   0  0  0  0  0  0  0  0  0  0  0  0
   -6.8735  -24.0212   22.9951 O   0  0  0  0  0  0  0  0  0  0  0  0
   -6.8792  -21.8515   23.7111 N   0  0  0  0  0  0  0  0  0  0  0  0
   -6.2477  -22.1159   24.9626 C   0  0  1  0  0  0  0  0  0  0  0  0
   -4.9986  -21.2868   25.1594 C   0  0  0  0  0  0  0  0  0  0  0  0
   -5.4098  -19.5237   24.9503 S   0  0  0  0  0  0  0  0  0  0  0  0
   -7.1359  -21.8883   26.1295 C   0  0  0  0  0  0  0  0  0  0  0  0
   -7.9452  -20.9317   26.1371 O   0  0  0  0  0  0  0  0  0  0  0  0
   -7.0913  -22.7374   27.2512 N   0  0  0  0  0  0  0  0  0  0  0  0
   -8.0093  -22.4931   28.3616 C   0  0  1  0  0  0  0  0  0  0  0  0
   -8.6169  -23.7858   28.8317 C   0  0  0  0  0  0  0  0  0  0  0  0
   -7.7805  -24.3520   29.9424 C   0  0  0  0  0  0  0  0  0  0  0  0
   -8.3051  -25.7152   30.3901 C   0  0  0  0  0  0  0  0  0  0  0  0
   -7.3908  -26.1524   31.5316 C   0  0  0  0  0  0  0  0  0  0  0  0
   -7.8221  -27.4280   32.0197 N   0  0  0  0  0  0  0  0  0  0  0  0
   -7.3605  -21.7262   29.4234 C   0  0  0  0  0  0  0  0  0  0  0  0
   -8.1004  -21.1669   30.3007 O   0  0  0  0  0  0  0  0  0  0  0  0
   -6.0035  -21.5459   29.5768 O   0  0  0  0  0  0  0  0  0  0  0  0
  1  2  1  0
  3  2  1  0
  3  5  1  0
  4  3  2  0
  6  5  1  0
  6  7  1  1
  8  7  1  0
  9  6  1  0
 10  9  2  0
 11  9  1  0
 12 13  1  1
 12 11  1  0
 13 14  1  0
 14 15  1  0
 15 16  1  0
 16 17  1  0
 18 12  1  0
 19 18  2  0
 20 18  1  0
M  END
$$$$
