GCK.pdb
     RDKit          3D

 20 19  0  0  1  0  0  0  0  0999 V2000
    3.4099  -18.2155   20.1578 N   0  0  0  0  0  0  0  0  0  0  0  0
    3.8286  -16.8934   20.5142 C   0  0  0  0  0  0  0  0  0  0  0  0
    5.2809  -16.8058   20.7639 C   0  0  0  0  0  0  0  0  0  0  0  0
    6.0251  -17.8171   20.8392 O   0  0  0  0  0  0  0  0  0  0  0  0
    5.8878  -15.5382   20.9297 N   0  0  0  0  0  0  0  0  0  0  0  0
    7.2575  -15.3280   21.2682 C   0  0  1  0  0  0  0  0  0  0  0  0
    7.6743  -13.8848   21.0959 C   0  0  0  0  0  0  0  0  0  0  0  0
    7.5499  -13.4306   19.3353 S   0  0  0  0  0  0  0  0  0  0  0  0
    7.5901  -15.7372   22.6554 C   0  0  0  0  0  0  0  0  0  0  0  0
    6.9558  -15.2663   23.6280 O   0  0  0  0  0  0  0  0  0  0  0  0
    8.6215  -16.6602   22.9114 N   0  0  0  0  0  0  0  0  0  0  0  0
    8.8637  -17.0882   24.2875 C   0  0  1  0  0  0  0  0  0  0  0  0
    8.8509  -18.5891   24.3782 C   0  0  0  0  0  0  0  0  0  0  0  0
    7.4332  -19.0662   24.5059 C   0  0  0  0  0  0  0  0  0  0  0  0
    7.3654  -20.5916   24.5561 C   0  0  0  0  0  0  0  0  0  0  0  0
    5.8862  -20.9319   24.7184 C   0  0  0  0  0  0  0  0  0  0  0  0
    5.7189  -22.3529   24.6552 N   0  0  0  0  0  0  0  0  0  0  0  0
   10.0772  -16.4756   24.8246 C   0  0  0  0  0  0  0  0  0  0  0  0
   10.8705  -15.8953   24.0098 O   0  0  0  0  0  0  0  0  0  0  0  0
   10.4561  -16.4587   26.1489 O   0  0  0  0  0  0  0  0  0  0  0  0
  1  2  1  0
  3  2  1  0
  3  5  1  0
  4  3  2  0
  6  5  1  0
  6  7  1  1
  8  7  1  0
  9  6  1  0
 10  9  2  0
 11  9  1  0
 12 13  1  6
 12 11  1  0
 13 14  1  0
 14 15  1  0
 15 16  1  0
 16 17  1  0
 18 12  1  0
 19 18  2  0
 20 18  1  0
M  END
$$$$
