GCK.pdb
     RDKit          3D

 20 19  0  0  1  0  0  0  0  0999 V2000
    4.8852  -19.2672   18.4408 N   0  0  0  0  0  0  0  0  0  0  0  0
    4.7795  -18.1544   19.3357 C   0  0  0  0  0  0  0  0  0  0  0  0
    6.0707  -17.4702   19.5456 C   0  0  0  0  0  0  0  0  0  0  0  0
    7.1794  -18.0065   19.2901 O   0  0  0  0  0  0  0  0  0  0  0  0
    6.0890  -16.1507   20.0565 N   0  0  0  0  0  0  0  0  0  0  0  0
    7.2701  -15.4066   20.3508 C   0  0  1  0  0  0  0  0  0  0  0  0
    6.9864  -13.9330   20.5362 C   0  0  0  0  0  0  0  0  0  0  0  0
    8.5620  -13.0394   20.7366 S   0  0  0  0  0  0  0  0  0  0  0  0
    7.9843  -15.8901   21.5584 C   0  0  0  0  0  0  0  0  0  0  0  0
    7.3818  -16.0068   22.6509 O   0  0  0  0  0  0  0  0  0  0  0  0
    9.3497  -16.2277   21.5066 N   0  0  0  0  0  0  0  0  0  0  0  0
    9.9910  -16.7709   22.7021 C   0  0  1  0  0  0  0  0  0  0  0  0
   10.4828  -18.1680   22.4426 C   0  0  0  0  0  0  0  0  0  0  0  0
   11.1078  -18.7141   23.6937 C   0  0  0  0  0  0  0  0  0  0  0  0
   11.8049  -20.0472   23.4271 C   0  0  0  0  0  0  0  0  0  0  0  0
   12.4398  -20.4514   24.7552 C   0  0  0  0  0  0  0  0  0  0  0  0
   13.0309  -21.7489   24.6203 N   0  0  0  0  0  0  0  0  0  0  0  0
   11.0236  -15.8663   23.2040 C   0  0  0  0  0  0  0  0  0  0  0  0
   11.6198  -15.1089   22.3668 O   0  0  0  0  0  0  0  0  0  0  0  0
   11.4232  -15.7447   24.5167 O   0  0  0  0  0  0  0  0  0  0  0  0
  1  2  1  0
  3  2  1  0
  3  5  1  0
  4  3  2  0
  6  5  1  0
  6  7  1  1
  8  7  1  0
  9  6  1  0
 10  9  2  0
 11  9  1  0
 12 13  1  6
 12 11  1  0
 13 14  1  0
 14 15  1  0
 15 16  1  0
 16 17  1  0
 18 12  1  0
 19 18  2  0
 20 18  1  0
M  END
$$$$
