GCK.pdb
     RDKit          3D

 20 19  0  0  1  0  0  0  0  0999 V2000
    2.9199  -19.1185   21.0874 N   0  0  0  0  0  0  0  0  0  0  0  0
    3.4963  -18.3995   22.1833 C   0  0  0  0  0  0  0  0  0  0  0  0
    4.9423  -18.1596   22.0070 C   0  0  0  0  0  0  0  0  0  0  0  0
    5.8067  -19.0650   22.1304 O   0  0  0  0  0  0  0  0  0  0  0  0
    5.4025  -16.8609   21.6843 N   0  0  0  0  0  0  0  0  0  0  0  0
    6.7741  -16.4897   21.5590 C   0  0  1  0  0  0  0  0  0  0  0  0
    6.9449  -15.1569   20.8655 C   0  0  0  0  0  0  0  0  0  0  0  0
    5.3184  -14.5646   20.2954 S   0  0  0  0  0  0  0  0  0  0  0  0
    7.4867  -16.4230   22.8591 C   0  0  0  0  0  0  0  0  0  0  0  0
    6.8462  -16.3501   23.9336 O   0  0  0  0  0  0  0  0  0  0  0  0
    8.8929  -16.4398   22.9168 N   0  0  0  0  0  0  0  0  0  0  0  0
    9.5462  -16.8819   24.1469 C   0  0  1  0  0  0  0  0  0  0  0  0
    9.0311  -18.2342   24.5558 C   0  0  0  0  0  0  0  0  0  0  0  0
    9.7137  -18.6628   25.8224 C   0  0  0  0  0  0  0  0  0  0  0  0
    9.2457  -20.0494   26.2608 C   0  0  0  0  0  0  0  0  0  0  0  0
   10.0104  -20.3534   27.5465 C   0  0  0  0  0  0  0  0  0  0  0  0
    9.6604  -21.6642   28.0053 N   0  0  0  0  0  0  0  0  0  0  0  0
   11.0013  -16.8180   24.0237 C   0  0  0  0  0  0  0  0  0  0  0  0
   11.5194  -17.0443   22.8791 O   0  0  0  0  0  0  0  0  0  0  0  0
   11.8865  -16.5290   25.0389 O   0  0  0  0  0  0  0  0  0  0  0  0
  1  2  1  0
  3  2  1  0
  3  5  1  0
  4  3  2  0
  6  5  1  0
  6  7  1  1
  8  7  1  0
  9  6  1  0
 10  9  2  0
 11  9  1  0
 12 13  1  6
 12 11  1  0
 13 14  1  0
 14 15  1  0
 15 16  1  0
 16 17  1  0
 18 12  1  0
 19 18  2  0
 20 18  1  0
M  END
$$$$
