GCK.pdb
     RDKit          3D

 20 19  0  0  1  0  0  0  0  0999 V2000
    7.2259  -12.8877   19.9103 N   0  0  0  0  0  0  0  0  0  0  0  0
    6.5707  -13.4916   21.0312 C   0  0  0  0  0  0  0  0  0  0  0  0
    7.4354  -13.5588   22.2258 C   0  0  0  0  0  0  0  0  0  0  0  0
    8.6910  -13.5136   22.1657 O   0  0  0  0  0  0  0  0  0  0  0  0
    6.8498  -13.6796   23.5083 N   0  0  0  0  0  0  0  0  0  0  0  0
    7.5730  -13.9065   24.7168 C   0  0  1  0  0  0  0  0  0  0  0  0
    6.7264  -13.6592   25.9450 C   0  0  0  0  0  0  0  0  0  0  0  0
    6.3225  -11.8851   26.0480 S   0  0  0  0  0  0  0  0  0  0  0  0
    8.1355  -15.2760   24.8175 C   0  0  0  0  0  0  0  0  0  0  0  0
    7.3794  -16.2747   24.8478 O   0  0  0  0  0  0  0  0  0  0  0  0
    9.5258  -15.4858   24.8812 N   0  0  0  0  0  0  0  0  0  0  0  0
   10.0307  -16.8498   25.0232 C   0  0  1  0  0  0  0  0  0  0  0  0
   11.0970  -17.1220   23.9984 C   0  0  0  0  0  0  0  0  0  0  0  0
   10.4529  -17.3562   22.6627 C   0  0  0  0  0  0  0  0  0  0  0  0
   11.4961  -17.6816   21.5951 C   0  0  0  0  0  0  0  0  0  0  0  0
   10.7044  -17.9775   20.3240 C   0  0  0  0  0  0  0  0  0  0  0  0
   11.6143  -18.1649   19.2340 N   0  0  0  0  0  0  0  0  0  0  0  0
   10.4521  -17.1160   26.3973 C   0  0  0  0  0  0  0  0  0  0  0  0
   10.9109  -18.2751   26.6728 O   0  0  0  0  0  0  0  0  0  0  0  0
   10.4056  -16.2222   27.4445 O   0  0  0  0  0  0  0  0  0  0  0  0
  1  2  1  0
  3  2  1  0
  3  5  1  0
  4  3  2  0
  6  5  1  0
  6  7  1  1
  8  7  1  0
  9  6  1  0
 10  9  2  0
 11  9  1  0
 12 13  1  6
 12 11  1  0
 13 14  1  0
 14 15  1  0
 15 16  1  0
 16 17  1  0
 18 12  1  0
 19 18  2  0
 20 18  1  0
M  END
$$$$
