LSN.pdb
     RDKit          3D

 23 22  0  0  1  0  0  0  0  0999 V2000
   24.8270  -21.3370   -8.2220 C   0  0  0  0  0  0  0  0  0  0  0  0
   25.9362  -20.5676   -8.8571 C   0  0  2  0  0  0  0  0  0  0  0  0
   26.4364  -19.4369   -7.9579 C   0  0  0  0  0  0  0  0  0  0  0  0
   25.7500  -20.1373  -10.2586 C   0  0  0  0  0  0  0  0  0  0  0  0
   25.3176  -21.1124  -11.2746 C   0  0  2  0  0  0  0  0  0  0  0  0
   26.1815  -22.1920  -11.5936 N   0  0  0  0  0  0  0  0  0  0  0  0
   24.9657  -20.4191  -12.5571 C   0  0  0  0  0  0  0  0  0  0  0  0
   24.3149  -19.3434  -12.5008 O   0  0  0  0  0  0  0  0  0  0  0  0
   25.5537  -20.1607  -17.3928 O   0  0  0  0  0  0  0  0  0  0  0  0
   25.6757  -20.8331  -16.1957 C   0  0  0  0  0  0  0  0  0  0  0  0
   24.9570  -20.1521  -15.0439 C   0  0  2  0  0  0  0  0  0  0  0  0
   25.3187  -20.8948  -13.8428 N   0  0  0  0  0  0  0  0  0  0  0  0
   23.5100  -20.1337  -15.2654 C   0  0  0  0  0  0  0  0  0  0  0  0
   22.7790  -21.0773  -14.8725 O   0  0  0  0  0  0  0  0  0  0  0  0
   18.6727  -18.6669  -16.5008 N   0  0  0  0  0  0  0  0  0  0  0  0
   19.3825  -17.6747  -15.7502 C   0  0  0  0  0  0  0  0  0  0  0  0
   18.7828  -16.6765  -15.2829 O   0  0  0  0  0  0  0  0  0  0  0  0
   20.8206  -17.8401  -15.5342 C   0  0  0  0  0  0  0  0  0  0  0  0
   21.4348  -19.0393  -16.1596 C   0  0  2  0  0  0  0  0  0  0  0  0
   22.8801  -19.0399  -15.9365 N   0  0  0  0  0  0  0  0  0  0  0  0
   21.1465  -19.1212  -17.6209 C   0  0  0  0  0  0  0  0  0  0  0  0
   22.0191  -18.9692  -18.4857 O   0  0  0  0  0  0  0  0  0  0  0  0
   19.8509  -19.3776  -18.0359 O   0  0  0  0  0  0  0  0  0  0  0  0
  2  3  1  1
  2  1  1  0
  4  2  1  0
  5  6  1  6
  5  4  1  0
  5  7  1  0
  7 12  1  0
  7  8  2  0
  9 10  1  0
 11 10  1  6
 11 13  1  0
 12 11  1  0
 13 20  1  0
 14 13  2  0
 16 15  1  0
 17 16  2  0
 18 16  1  0
 19 18  1  6
 20 19  1  0
 21 19  1  0
 21 23  1  0
 22 21  2  0
M  END
$$$$
