LSN.pdb
     RDKit          3D

 23 22  0  0  1  0  0  0  0  0999 V2000
   25.0871  -17.4031  -19.9071 C   0  0  0  0  0  0  0  0  0  0  0  0
   25.9771  -18.6004  -19.9146 C   0  0  2  0  0  0  0  0  0  0  0  0
   25.7299  -19.4895  -21.1335 C   0  0  0  0  0  0  0  0  0  0  0  0
   26.0860  -19.3748  -18.6606 C   0  0  0  0  0  0  0  0  0  0  0  0
   26.2981  -18.6750  -17.3817 C   0  0  2  0  0  0  0  0  0  0  0  0
   27.3035  -17.6760  -17.3107 N   0  0  0  0  0  0  0  0  0  0  0  0
   26.5559  -19.6570  -16.2779 C   0  0  0  0  0  0  0  0  0  0  0  0
   25.7572  -20.6181  -16.1287 O   0  0  0  0  0  0  0  0  0  0  0  0
   29.3829  -19.0045  -13.1117 O   0  0  0  0  0  0  0  0  0  0  0  0
   29.0831  -20.2558  -13.6060 C   0  0  0  0  0  0  0  0  0  0  0  0
   27.6711  -20.3666  -14.1545 C   0  0  2  0  0  0  0  0  0  0  0  0
   27.6483  -19.5788  -15.3809 N   0  0  0  0  0  0  0  0  0  0  0  0
   26.6895  -19.8929  -13.1771 C   0  0  0  0  0  0  0  0  0  0  0  0
   25.9578  -18.9000  -13.4177 O   0  0  0  0  0  0  0  0  0  0  0  0
   21.6990  -20.9953  -12.4747 N   0  0  0  0  0  0  0  0  0  0  0  0
   22.8547  -20.3743  -11.8999 C   0  0  0  0  0  0  0  0  0  0  0  0
   22.7506  -19.3029  -11.2552 O   0  0  0  0  0  0  0  0  0  0  0  0
   24.1630  -21.0068  -12.0746 C   0  0  0  0  0  0  0  0  0  0  0  0
   25.2523  -20.4900  -11.2070 C   0  0  2  0  0  0  0  0  0  0  0  0
   26.5305  -20.5457  -11.9153 N   0  0  0  0  0  0  0  0  0  0  0  0
   25.3510  -21.2404   -9.9214 C   0  0  0  0  0  0  0  0  0  0  0  0
   25.2378  -20.6943   -8.8163 O   0  0  0  0  0  0  0  0  0  0  0  0
   25.5787  -22.6054   -9.9571 O   0  0  0  0  0  0  0  0  0  0  0  0
  2  3  1  6
  2  1  1  0
  4  2  1  0
  5  6  1  6
  5  4  1  0
  5  7  1  0
  7 12  1  0
  7  8  2  0
  9 10  1  0
 11 10  1  1
 11 13  1  0
 12 11  1  0
 13 20  1  0
 14 13  2  0
 16 15  1  0
 17 16  2  0
 18 16  1  0
 19 18  1  6
 20 19  1  0
 21 19  1  0
 21 23  1  0
 22 21  2  0
M  END
$$$$
