LSN.pdb
     RDKit          3D

 23 22  0  0  1  0  0  0  0  0999 V2000
   23.3128  -14.0248  -15.6733 C   0  0  0  0  0  0  0  0  0  0  0  0
   22.9514  -13.3321  -16.9442 C   0  0  2  0  0  0  0  0  0  0  0  0
   24.0430  -13.4763  -18.0048 C   0  0  0  0  0  0  0  0  0  0  0  0
   22.4379  -11.9500  -16.8434 C   0  0  0  0  0  0  0  0  0  0  0  0
   21.2712  -11.6606  -15.9917 C   0  0  2  0  0  0  0  0  0  0  0  0
   20.1910  -12.5809  -15.9809 N   0  0  0  0  0  0  0  0  0  0  0  0
   20.7097  -10.3061  -16.3062 C   0  0  0  0  0  0  0  0  0  0  0  0
   21.5038   -9.3874  -16.6368 O   0  0  0  0  0  0  0  0  0  0  0  0
   16.7984   -9.1391  -15.4139 O   0  0  0  0  0  0  0  0  0  0  0  0
   17.3460   -8.7185  -16.6068 C   0  0  0  0  0  0  0  0  0  0  0  0
   18.8628   -8.6422  -16.5821 C   0  0  2  0  0  0  0  0  0  0  0  0
   19.3322   -9.9836  -16.2576 N   0  0  0  0  0  0  0  0  0  0  0  0
   19.3226   -7.6477  -15.6111 C   0  0  0  0  0  0  0  0  0  0  0  0
   19.7711   -7.9921  -14.4889 O   0  0  0  0  0  0  0  0  0  0  0  0
   21.1560   -3.3841  -13.3827 N   0  0  0  0  0  0  0  0  0  0  0  0
   21.8823   -4.5444  -13.8044 C   0  0  0  0  0  0  0  0  0  0  0  0
   23.0709   -4.7208  -13.4433 O   0  0  0  0  0  0  0  0  0  0  0  0
   21.2186   -5.5251  -14.6647 C   0  0  0  0  0  0  0  0  0  0  0  0
   19.7829   -5.2704  -14.9480 C   0  0  2  0  0  0  0  0  0  0  0  0
   19.2769   -6.2502  -15.9084 N   0  0  0  0  0  0  0  0  0  0  0  0
   19.5473   -3.8891  -15.4597 C   0  0  0  0  0  0  0  0  0  0  0  0
   19.1219   -3.6602  -16.5995 O   0  0  0  0  0  0  0  0  0  0  0  0
   19.8133   -2.8122  -14.6314 O   0  0  0  0  0  0  0  0  0  0  0  0
  2  3  1  6
  2  1  1  0
  4  2  1  0
  5  6  1  6
  5  4  1  0
  5  7  1  0
  7 12  1  0
  7  8  2  0
  9 10  1  0
 11 10  1  1
 11 13  1  0
 12 11  1  0
 13 20  1  0
 14 13  2  0
 16 15  1  0
 17 16  2  0
 18 16  1  0
 19 18  1  6
 20 19  1  0
 21 19  1  0
 21 23  1  0
 22 21  2  0
M  END
$$$$
