LSN.pdb
     RDKit          3D

 23 22  0  0  1  0  0  0  0  0999 V2000
   27.2297  -21.2547   -6.5953 C   0  0  0  0  0  0  0  0  0  0  0  0
   27.5686  -20.1643   -7.5553 C   0  0  2  0  0  0  0  0  0  0  0  0
   27.8991  -18.8542   -6.8398 C   0  0  0  0  0  0  0  0  0  0  0  0
   26.6656  -19.9682   -8.7086 C   0  0  0  0  0  0  0  0  0  0  0  0
   26.3430  -21.1039   -9.5897 C   0  0  2  0  0  0  0  0  0  0  0  0
   27.3706  -22.0271   -9.9145 N   0  0  0  0  0  0  0  0  0  0  0  0
   25.7438  -20.6211  -10.8769 C   0  0  0  0  0  0  0  0  0  0  0  0
   24.7861  -19.8061  -10.8266 O   0  0  0  0  0  0  0  0  0  0  0  0
   27.8243  -20.8929  -14.1151 O   0  0  0  0  0  0  0  0  0  0  0  0
   26.5064  -20.8073  -14.5100 C   0  0  0  0  0  0  0  0  0  0  0  0
   25.5518  -20.5050  -13.3680 C   0  0  2  0  0  0  0  0  0  0  0  0
   26.1850  -21.0218  -12.1609 N   0  0  0  0  0  0  0  0  0  0  0  0
   24.2407  -21.1115  -13.6052 C   0  0  0  0  0  0  0  0  0  0  0  0
   23.9792  -22.2741  -13.2063 O   0  0  0  0  0  0  0  0  0  0  0  0
   19.5614  -22.8044  -13.0158 N   0  0  0  0  0  0  0  0  0  0  0  0
   19.9132  -21.4293  -12.8236 C   0  0  0  0  0  0  0  0  0  0  0  0
   19.0328  -20.5752  -12.5596 O   0  0  0  0  0  0  0  0  0  0  0  0
   21.3169  -21.0314  -12.9392 C   0  0  0  0  0  0  0  0  0  0  0  0
   21.8432  -20.9111  -14.3231 C   0  0  2  0  0  0  0  0  0  0  0  0
   23.2131  -20.3998  -14.2989 N   0  0  0  0  0  0  0  0  0  0  0  0
   20.9888  -20.0339  -15.1751 C   0  0  0  0  0  0  0  0  0  0  0  0
   21.3468  -18.9099  -15.5503 O   0  0  0  0  0  0  0  0  0  0  0  0
   19.7413  -20.4886  -15.5670 O   0  0  0  0  0  0  0  0  0  0  0  0
  2  3  1  1
  2  1  1  0
  4  2  1  0
  5  6  1  6
  5  4  1  0
  5  7  1  0
  7 12  1  0
  7  8  2  0
  9 10  1  0
 11 10  1  6
 11 13  1  0
 12 11  1  0
 13 20  1  0
 14 13  2  0
 16 15  1  0
 17 16  2  0
 18 16  1  0
 19 18  1  1
 20 19  1  0
 21 19  1  0
 21 23  1  0
 22 21  2  0
M  END
$$$$
