LSN.pdb
     RDKit          3D

 23 22  0  0  1  0  0  0  0  0999 V2000
   18.9934  -15.2772  -19.3688 C   0  0  0  0  0  0  0  0  0  0  0  0
   18.2264  -14.9531  -18.1309 C   0  0  2  0  0  0  0  0  0  0  0  0
   16.7552  -14.6629  -18.4289 C   0  0  0  0  0  0  0  0  0  0  0  0
   18.8207  -13.9712  -17.2000 C   0  0  0  0  0  0  0  0  0  0  0  0
   20.2606  -14.0282  -16.8938 C   0  0  2  0  0  0  0  0  0  0  0  0
   20.7657  -15.1603  -16.2032 N   0  0  0  0  0  0  0  0  0  0  0  0
   20.6891  -12.8067  -16.1365 C   0  0  0  0  0  0  0  0  0  0  0  0
   19.8780  -12.2845  -15.3282 O   0  0  0  0  0  0  0  0  0  0  0  0
   24.4697  -11.7087  -14.6348 O   0  0  0  0  0  0  0  0  0  0  0  0
   23.8203  -10.8993  -15.5421 C   0  0  0  0  0  0  0  0  0  0  0  0
   22.3071  -11.0156  -15.4809 C   0  0  2  0  0  0  0  0  0  0  0  0
   21.9576  -12.1921  -16.2675 N   0  0  0  0  0  0  0  0  0  0  0  0
   21.6663   -9.8019  -15.9903 C   0  0  0  0  0  0  0  0  0  0  0  0
   21.4234   -9.6586  -17.2149 O   0  0  0  0  0  0  0  0  0  0  0  0
   16.8056   -6.9729  -16.0213 N   0  0  0  0  0  0  0  0  0  0  0  0
   18.2259   -6.8102  -16.1105 C   0  0  0  0  0  0  0  0  0  0  0  0
   18.7205   -5.7522  -16.5692 O   0  0  0  0  0  0  0  0  0  0  0  0
   19.0961   -7.8967  -15.6585 C   0  0  0  0  0  0  0  0  0  0  0  0
   20.5480   -7.5861  -15.6124 C   0  0  2  0  0  0  0  0  0  0  0  0
   21.2946   -8.7387  -15.1099 N   0  0  0  0  0  0  0  0  0  0  0  0
   20.8400   -6.3872  -14.7741 C   0  0  0  0  0  0  0  0  0  0  0  0
   21.5189   -6.4415  -13.7404 O   0  0  0  0  0  0  0  0  0  0  0  0
   20.3338   -5.1582  -15.1614 O   0  0  0  0  0  0  0  0  0  0  0  0
  2  3  1  6
  2  1  1  0
  4  2  1  0
  5  6  1  1
  5  4  1  0
  5  7  1  0
  7 12  1  0
  7  8  2  0
  9 10  1  0
 11 10  1  6
 11 13  1  0
 12 11  1  0
 13 20  1  0
 14 13  2  0
 16 15  1  0
 17 16  2  0
 18 16  1  0
 19 18  1  1
 20 19  1  0
 21 19  1  0
 21 23  1  0
 22 21  2  0
M  END
$$$$
