LSN.pdb
     RDKit          3D

 23 22  0  0  1  0  0  0  0  0999 V2000
   26.3405  -34.2230  -12.5029 C   0  0  0  0  0  0  0  0  0  0  0  0
   25.5571  -34.2346  -11.2333 C   0  0  2  0  0  0  0  0  0  0  0  0
   24.1130  -33.7809  -11.4480 C   0  0  0  0  0  0  0  0  0  0  0  0
   26.1769  -33.6104  -10.0458 C   0  0  0  0  0  0  0  0  0  0  0  0
   25.4579  -33.6048   -8.7600 C   0  0  2  0  0  0  0  0  0  0  0  0
   24.4753  -32.6063   -8.5336 N   0  0  0  0  0  0  0  0  0  0  0  0
   26.4241  -33.5584   -7.6139 C   0  0  0  0  0  0  0  0  0  0  0  0
   27.5008  -34.2030   -7.7081 O   0  0  0  0  0  0  0  0  0  0  0  0
   25.3672  -32.1618   -3.8228 O   0  0  0  0  0  0  0  0  0  0  0  0
   26.6565  -31.9402   -4.2571 C   0  0  0  0  0  0  0  0  0  0  0  0
   27.1268  -32.9468   -5.2928 C   0  0  2  0  0  0  0  0  0  0  0  0
   26.2082  -32.8311   -6.4187 N   0  0  0  0  0  0  0  0  0  0  0  0
   27.1489  -34.3008   -4.7366 C   0  0  0  0  0  0  0  0  0  0  0  0
   26.7774  -35.2903   -5.4164 O   0  0  0  0  0  0  0  0  0  0  0  0
   28.3833  -38.4744   -1.9789 N   0  0  0  0  0  0  0  0  0  0  0  0
   28.9867  -38.0239   -3.1974 C   0  0  0  0  0  0  0  0  0  0  0  0
   29.7975  -38.7538   -3.8171 O   0  0  0  0  0  0  0  0  0  0  0  0
   28.6447  -36.6972   -3.7124 C   0  0  0  0  0  0  0  0  0  0  0  0
   27.6951  -35.9079   -2.8866 C   0  0  2  0  0  0  0  0  0  0  0  0
   27.5950  -34.5423   -3.4000 N   0  0  0  0  0  0  0  0  0  0  0  0
   28.0885  -35.8820   -1.4479 C   0  0  0  0  0  0  0  0  0  0  0  0
   28.1001  -36.8960   -0.7379 O   0  0  0  0  0  0  0  0  0  0  0  0
   28.4573  -34.6770   -0.8747 O   0  0  0  0  0  0  0  0  0  0  0  0
  2  3  1  6
  2  1  1  0
  4  2  1  0
  5  6  1  6
  5  4  1  0
  5  7  1  0
  7 12  1  0
  7  8  2  0
  9 10  1  0
 11 10  1  1
 11 13  1  0
 12 11  1  0
 13 20  1  0
 14 13  2  0
 16 15  1  0
 17 16  2  0
 18 16  1  0
 19 18  1  6
 20 19  1  0
 21 19  1  0
 21 23  1  0
 22 21  2  0
M  END
$$$$
