LSN.pdb
     RDKit          3D

 23 22  0  0  1  0  0  0  0  0999 V2000
   27.3598  -20.1948   -4.5024 C   0  0  0  0  0  0  0  0  0  0  0  0
   28.1036  -19.5673   -5.6332 C   0  0  2  0  0  0  0  0  0  0  0  0
   28.8636  -18.3156   -5.1935 C   0  0  0  0  0  0  0  0  0  0  0  0
   27.3724  -19.3701   -6.9022 C   0  0  0  0  0  0  0  0  0  0  0  0
   26.8085  -20.5310   -7.6125 C   0  0  2  0  0  0  0  0  0  0  0  0
   27.5736  -21.7242   -7.6820 N   0  0  0  0  0  0  0  0  0  0  0  0
   26.4223  -20.1578   -9.0127 C   0  0  0  0  0  0  0  0  0  0  0  0
   25.8684  -19.0448   -9.2079 O   0  0  0  0  0  0  0  0  0  0  0  0
   27.0660  -20.6893  -13.7441 O   0  0  0  0  0  0  0  0  0  0  0  0
   27.3226  -20.9985  -12.4256 C   0  0  0  0  0  0  0  0  0  0  0  0
   26.2260  -20.5497  -11.4752 C   0  0  2  0  0  0  0  0  0  0  0  0
   26.6399  -20.9792  -10.1450 N   0  0  0  0  0  0  0  0  0  0  0  0
   24.9328  -21.1177  -11.8601 C   0  0  0  0  0  0  0  0  0  0  0  0
   24.4669  -22.1295  -11.2784 O   0  0  0  0  0  0  0  0  0  0  0  0
   19.6103  -19.8441  -11.9817 N   0  0  0  0  0  0  0  0  0  0  0  0
   20.5710  -20.8965  -11.8362 C   0  0  0  0  0  0  0  0  0  0  0  0
   20.1997  -22.0892  -11.7181 O   0  0  0  0  0  0  0  0  0  0  0  0
   21.9960  -20.5624  -11.8269 C   0  0  0  0  0  0  0  0  0  0  0  0
   22.7443  -20.8861  -13.0685 C   0  0  2  0  0  0  0  0  0  0  0  0
   24.1561  -20.5387  -12.9114 N   0  0  0  0  0  0  0  0  0  0  0  0
   22.1802  -20.1913  -14.2621 C   0  0  0  0  0  0  0  0  0  0  0  0
   22.6416  -19.1291  -14.6994 O   0  0  0  0  0  0  0  0  0  0  0  0
   21.0949  -20.7515  -14.9138 O   0  0  0  0  0  0  0  0  0  0  0  0
  2  3  1  1
  2  1  1  0
  4  2  1  0
  5  6  1  6
  5  4  1  0
  5  7  1  0
  7 12  1  0
  7  8  2  0
  9 10  1  0
 11 10  1  6
 11 13  1  0
 12 11  1  0
 13 20  1  0
 14 13  2  0
 16 15  1  0
 17 16  2  0
 18 16  1  0
 19 18  1  1
 20 19  1  0
 21 19  1  0
 21 23  1  0
 22 21  2  0
M  END
$$$$
