LSN.pdb
     RDKit          3D

 23 22  0  0  1  0  0  0  0  0999 V2000
   20.0953  -12.8146  -18.3578 C   0  0  0  0  0  0  0  0  0  0  0  0
   18.8507  -12.0247  -18.5874 C   0  0  2  0  0  0  0  0  0  0  0  0
   18.5178  -11.9009  -20.0744 C   0  0  0  0  0  0  0  0  0  0  0  0
   18.7174  -10.7408  -17.8678 C   0  0  0  0  0  0  0  0  0  0  0  0
   18.9775  -10.6810  -16.4189 C   0  0  2  0  0  0  0  0  0  0  0  0
   18.0712  -11.3250  -15.5372 N   0  0  0  0  0  0  0  0  0  0  0  0
   19.1181   -9.2585  -15.9652 C   0  0  0  0  0  0  0  0  0  0  0  0
   18.1065   -8.5110  -16.0057 O   0  0  0  0  0  0  0  0  0  0  0  0
   21.2134   -7.5313  -12.8516 O   0  0  0  0  0  0  0  0  0  0  0  0
   21.5467   -7.1589  -14.1361 C   0  0  0  0  0  0  0  0  0  0  0  0
   20.3951   -7.2814  -15.1189 C   0  0  2  0  0  0  0  0  0  0  0  0
   20.3235   -8.6898  -15.4879 N   0  0  0  0  0  0  0  0  0  0  0  0
   20.6033   -6.4170  -16.2820 C   0  0  0  0  0  0  0  0  0  0  0  0
   21.3682   -6.7587  -17.2187 O   0  0  0  0  0  0  0  0  0  0  0  0
   20.8737   -3.8220  -20.2332 N   0  0  0  0  0  0  0  0  0  0  0  0
   19.5734   -4.3730  -19.9940 C   0  0  0  0  0  0  0  0  0  0  0  0
   18.8017   -4.6287  -20.9497 O   0  0  0  0  0  0  0  0  0  0  0  0
   19.1544   -4.6349  -18.6163 C   0  0  0  0  0  0  0  0  0  0  0  0
   20.1500   -4.3064  -17.5639 C   0  0  2  0  0  0  0  0  0  0  0  0
   19.9419   -5.1543  -16.3907 N   0  0  0  0  0  0  0  0  0  0  0  0
   20.0958   -2.8692  -17.1678 C   0  0  0  0  0  0  0  0  0  0  0  0
   20.8842   -2.0225  -17.6082 O   0  0  0  0  0  0  0  0  0  0  0  0
   19.1260   -2.4567  -16.2702 O   0  0  0  0  0  0  0  0  0  0  0  0
  2  3  1  6
  2  1  1  0
  4  2  1  0
  5  6  1  1
  5  4  1  0
  5  7  1  0
  7 12  1  0
  7  8  2  0
  9 10  1  0
 11 10  1  1
 11 13  1  0
 12 11  1  0
 13 20  1  0
 14 13  2  0
 16 15  1  0
 17 16  2  0
 18 16  1  0
 19 18  1  6
 20 19  1  0
 21 19  1  0
 21 23  1  0
 22 21  2  0
M  END
$$$$
