LSN.pdb
     RDKit          3D

 23 22  0  0  1  0  0  0  0  0999 V2000
   33.2827  -12.3659  -17.9967 C   0  0  0  0  0  0  0  0  0  0  0  0
   33.4524  -10.8930  -18.1622 C   0  0  2  0  0  0  0  0  0  0  0  0
   34.8315  -10.4205  -17.7016 C   0  0  0  0  0  0  0  0  0  0  0  0
   32.3624  -10.0234  -17.6723 C   0  0  0  0  0  0  0  0  0  0  0  0
   30.9619  -10.3534  -17.9884 C   0  0  2  0  0  0  0  0  0  0  0  0
   30.6591  -10.8802  -19.2708 N   0  0  0  0  0  0  0  0  0  0  0  0
   30.0752   -9.1645  -17.7656 C   0  0  0  0  0  0  0  0  0  0  0  0
   30.1163   -8.5838  -16.6498 O   0  0  0  0  0  0  0  0  0  0  0  0
   28.1642   -5.1654  -19.0318 O   0  0  0  0  0  0  0  0  0  0  0  0
   28.8577   -6.3387  -19.2377 C   0  0  0  0  0  0  0  0  0  0  0  0
   28.3232   -7.5068  -18.4274 C   0  0  2  0  0  0  0  0  0  0  0  0
   29.1844   -8.6423  -18.7339 N   0  0  0  0  0  0  0  0  0  0  0  0
   26.9214   -7.7745  -18.7540 C   0  0  0  0  0  0  0  0  0  0  0  0
   26.6063   -8.4610  -19.7582 O   0  0  0  0  0  0  0  0  0  0  0  0
   23.6903   -8.8628  -14.8495 N   0  0  0  0  0  0  0  0  0  0  0  0
   23.7566   -8.8938  -16.2800 C   0  0  0  0  0  0  0  0  0  0  0  0
   23.8973   -9.9813  -16.8900 O   0  0  0  0  0  0  0  0  0  0  0  0
   23.6578   -7.6373  -17.0240 C   0  0  0  0  0  0  0  0  0  0  0  0
   24.4683   -7.5557  -18.2662 C   0  0  2  0  0  0  0  0  0  0  0  0
   25.8635   -7.2634  -17.9396 N   0  0  0  0  0  0  0  0  0  0  0  0
   23.9431   -6.5302  -19.2138 C   0  0  0  0  0  0  0  0  0  0  0  0
   23.2716   -6.8217  -20.2121 O   0  0  0  0  0  0  0  0  0  0  0  0
   24.2135   -5.1939  -18.9738 O   0  0  0  0  0  0  0  0  0  0  0  0
  2  3  1  1
  2  1  1  0
  4  2  1  0
  5  6  1  6
  5  4  1  0
  5  7  1  0
  7 12  1  0
  7  8  2  0
  9 10  1  0
 11 10  1  6
 11 13  1  0
 12 11  1  0
 13 20  1  0
 14 13  2  0
 16 15  1  0
 17 16  2  0
 18 16  1  0
 19 18  1  1
 20 19  1  0
 21 19  1  0
 21 23  1  0
 22 21  2  0
M  END
$$$$
