YWT.pdb
     RDKit          3D

 34 36  0  0  1  0  0  0  0  0999 V2000
   33.4138  -36.2168  -21.1690 O   0  0  0  0  0  0  0  0  0  0  0  0
   32.4362  -35.3340  -20.6994 C   0  0  0  0  0  0  0  0  0  0  0  0
   31.1419  -35.7483  -20.5276 C   0  0  0  0  0  0  0  0  0  0  0  0
   30.1681  -34.8711  -20.0604 C   0  0  0  0  0  0  0  0  0  0  0  0
   30.4621  -33.5588  -19.7531 C   0  0  0  0  0  0  0  0  0  0  0  0
   29.3919  -32.6716  -19.2614 C   0  0  0  0  0  0  0  0  0  0  0  0
   29.5945  -32.2441  -17.8362 C   0  0  2  0  0  0  0  0  0  0  0  0
   29.4854  -33.3256  -16.8927 N   0  0  0  0  0  0  0  0  0  0  0  0
   28.5697  -31.2030  -17.5249 C   0  0  0  0  0  0  0  0  0  0  0  0
   27.4055  -31.5547  -17.2050 O   0  0  0  0  0  0  0  0  0  0  0  0
   31.7695  -33.1562  -19.9311 C   0  0  0  0  0  0  0  0  0  0  0  0
   32.7466  -34.0247  -20.3965 C   0  0  0  0  0  0  0  0  0  0  0  0
   28.8666  -29.8141  -17.5779 N   0  0  0  0  0  0  0  0  0  0  0  0
   27.9142  -28.7673  -17.2725 C   0  0  1  0  0  0  0  0  0  0  0  0
   28.5915  -27.5133  -16.8242 C   0  0  0  0  0  0  0  0  0  0  0  0
   27.6404  -26.3936  -16.6115 C   0  0  0  0  0  0  0  0  0  0  0  0
   26.4604  -26.3947  -15.8964 C   0  0  0  0  0  0  0  0  0  0  0  0
   25.8898  -25.1808  -15.9460 N   0  0  0  0  0  0  0  0  0  0  0  0
   26.6712  -24.3840  -16.6788 C   0  0  0  0  0  0  0  0  0  0  0  0
   26.5973  -23.0440  -17.0709 C   0  0  0  0  0  0  0  0  0  0  0  0
   27.5935  -22.5099  -17.8487 C   0  0  0  0  0  0  0  0  0  0  0  0
   28.6707  -23.2479  -18.2607 C   0  0  0  0  0  0  0  0  0  0  0  0
   28.7580  -24.5565  -17.8870 C   0  0  0  0  0  0  0  0  0  0  0  0
   27.7549  -25.1052  -17.1003 C   0  0  0  0  0  0  0  0  0  0  0  0
   27.0431  -28.5912  -18.4573 C   0  0  0  0  0  0  0  0  0  0  0  0
   27.6211  -28.4199  -19.5649 O   0  0  0  0  0  0  0  0  0  0  0  0
   24.5566  -30.8030  -20.1539 C   0  0  0  0  0  0  0  0  0  0  0  0
   23.8478  -29.4976  -19.8295 C   0  0  1  0  0  0  0  0  0  0  0  0
   23.0824  -29.6640  -18.6731 O   0  0  0  0  0  0  0  0  0  0  0  0
   24.9024  -28.4357  -19.6538 C   0  0  2  0  0  0  0  0  0  0  0  0
   25.6450  -28.6025  -18.4262 N   0  0  0  0  0  0  0  0  0  0  0  0
   24.1795  -27.1134  -19.6552 C   0  0  0  0  0  0  0  0  0  0  0  0
   23.7230  -26.5681  -20.8457 O   0  0  0  0  0  0  0  0  0  0  0  0
   23.9669  -26.4672  -18.6009 O   0  0  0  0  0  0  0  0  0  0  0  0
  2  1  1  0
  3  2  2  0
  4  3  1  0
  5 11  1  0
  5  4  2  0
  6  7  1  0
  6  5  1  0
  7  9  1  0
  7  8  1  1
  9 10  2  0
 11 12  2  0
 12  2  1  0
 13 14  1  0
 13  9  1  0
 14 25  1  0
 15 16  1  0
 14 15  1  6
 16 24  1  0
 17 16  2  0
 17 18  1  0
 18 19  1  0
 19 20  1  0
 20 21  2  0
 22 21  1  0
 23 22  2  0
 24 19  2  0
 24 23  1  0
 25 31  1  0
 26 25  2  0
 28 27  1  1
 28 29  1  0
 30 28  1  0
 30 31  1  1
 32 30  1  0
 33 32  1  0
 34 32  2  0
M  END
$$$$
