YWT.pdb
     RDKit          3D

 34 36  0  0  1  0  0  0  0  0999 V2000
   23.4453  -14.6701  -20.7238 O   0  0  0  0  0  0  0  0  0  0  0  0
   23.6863  -15.6414  -19.7469 C   0  0  0  0  0  0  0  0  0  0  0  0
   23.1913  -16.9112  -19.8839 C   0  0  0  0  0  0  0  0  0  0  0  0
   23.4301  -17.8787  -18.9129 C   0  0  0  0  0  0  0  0  0  0  0  0
   24.1691  -17.6027  -17.7812 C   0  0  0  0  0  0  0  0  0  0  0  0
   24.3923  -18.6651  -16.7835 C   0  0  0  0  0  0  0  0  0  0  0  0
   25.7526  -19.2922  -16.8903 C   0  0  2  0  0  0  0  0  0  0  0  0
   25.8837  -20.1889  -18.0085 N   0  0  0  0  0  0  0  0  0  0  0  0
   26.0108  -20.0348  -15.6204 C   0  0  0  0  0  0  0  0  0  0  0  0
   25.5086  -21.1759  -15.4560 O   0  0  0  0  0  0  0  0  0  0  0  0
   24.6610  -16.3197  -17.6572 C   0  0  0  0  0  0  0  0  0  0  0  0
   24.4273  -15.3491  -18.6210 C   0  0  0  0  0  0  0  0  0  0  0  0
   26.8123  -19.4918  -14.5797 N   0  0  0  0  0  0  0  0  0  0  0  0
   27.0780  -20.1625  -13.3246 C   0  0  1  0  0  0  0  0  0  0  0  0
   28.3046  -19.6295  -12.6584 C   0  0  0  0  0  0  0  0  0  0  0  0
   28.6863  -20.4085  -11.4539 C   0  0  0  0  0  0  0  0  0  0  0  0
   29.4993  -21.5206  -11.3738 C   0  0  0  0  0  0  0  0  0  0  0  0
   29.5947  -21.9313  -10.0995 N   0  0  0  0  0  0  0  0  0  0  0  0
   28.8613  -21.1118   -9.3426 C   0  0  0  0  0  0  0  0  0  0  0  0
   28.5833  -21.0414   -7.9742 C   0  0  0  0  0  0  0  0  0  0  0  0
   27.7659  -20.0469   -7.4994 C   0  0  0  0  0  0  0  0  0  0  0  0
   27.2050  -19.1091   -8.3244 C   0  0  0  0  0  0  0  0  0  0  0  0
   27.4660  -19.1635   -9.6617 C   0  0  0  0  0  0  0  0  0  0  0  0
   28.2918  -20.1660  -10.1510 C   0  0  0  0  0  0  0  0  0  0  0  0
   25.8537  -20.0696  -12.4962 C   0  0  0  0  0  0  0  0  0  0  0  0
   25.2929  -18.9415  -12.4389 O   0  0  0  0  0  0  0  0  0  0  0  0
   22.5618  -20.5061  -12.7564 C   0  0  0  0  0  0  0  0  0  0  0  0
   22.8650  -21.3932  -11.5594 C   0  0  1  0  0  0  0  0  0  0  0  0
   22.9728  -22.7193  -11.9843 O   0  0  0  0  0  0  0  0  0  0  0  0
   24.1455  -20.8998  -10.9369 C   0  0  2  0  0  0  0  0  0  0  0  0
   25.2903  -21.1344  -11.7859 N   0  0  0  0  0  0  0  0  0  0  0  0
   24.2979  -21.6399   -9.6330 C   0  0  0  0  0  0  0  0  0  0  0  0
   23.3355  -21.5153   -8.6425 O   0  0  0  0  0  0  0  0  0  0  0  0
   25.2814  -22.3826   -9.3974 O   0  0  0  0  0  0  0  0  0  0  0  0
  2  1  1  0
  3  2  2  0
  4  3  1  0
  5 11  1  0
  5  4  2  0
  6  7  1  0
  6  5  1  0
  7  9  1  0
  7  8  1  6
  9 10  2  0
 11 12  2  0
 12  2  1  0
 13 14  1  0
 13  9  1  0
 14 25  1  0
 15 16  1  0
 14 15  1  1
 16 24  1  0
 17 16  2  0
 17 18  1  0
 18 19  1  0
 19 20  1  0
 20 21  2  0
 22 21  1  0
 23 22  2  0
 24 19  2  0
 24 23  1  0
 25 31  1  0
 26 25  2  0
 28 27  1  6
 28 29  1  0
 30 28  1  0
 30 31  1  6
 32 30  1  0
 33 32  1  0
 34 32  2  0
M  END
$$$$
