YWT.pdb
     RDKit          3D

 34 36  0  0  1  0  0  0  0  0999 V2000
   23.7776  -16.1745  -21.8746 O   0  0  0  0  0  0  0  0  0  0  0  0
   24.0046  -16.9793  -20.7537 C   0  0  0  0  0  0  0  0  0  0  0  0
   24.1879  -16.4218  -19.5160 C   0  0  0  0  0  0  0  0  0  0  0  0
   24.4140  -17.2212  -18.3998 C   0  0  0  0  0  0  0  0  0  0  0  0
   24.4626  -18.5968  -18.4914 C   0  0  0  0  0  0  0  0  0  0  0  0
   24.7051  -19.3966  -17.2767 C   0  0  0  0  0  0  0  0  0  0  0  0
   26.1233  -19.8776  -17.1658 C   0  0  2  0  0  0  0  0  0  0  0  0
   26.4812  -20.8428  -18.1716 N   0  0  0  0  0  0  0  0  0  0  0  0
   26.2930  -20.4810  -15.8101 C   0  0  0  0  0  0  0  0  0  0  0  0
   25.8320  -21.6280  -15.5796 O   0  0  0  0  0  0  0  0  0  0  0  0
   24.2762  -19.1437  -19.7442 C   0  0  0  0  0  0  0  0  0  0  0  0
   24.0502  -18.3535  -20.8623 C   0  0  0  0  0  0  0  0  0  0  0  0
   26.9641  -19.7977  -14.7599 N   0  0  0  0  0  0  0  0  0  0  0  0
   27.1213  -20.3219  -13.4195 C   0  0  1  0  0  0  0  0  0  0  0  0
   28.2261  -19.6384  -12.6816 C   0  0  0  0  0  0  0  0  0  0  0  0
   28.5899  -20.3349  -11.4222 C   0  0  0  0  0  0  0  0  0  0  0  0
   29.4656  -21.3867  -11.2460 C   0  0  0  0  0  0  0  0  0  0  0  0
   29.5173  -21.7315   -9.9498 N   0  0  0  0  0  0  0  0  0  0  0  0
   28.6938  -20.9278   -9.2727 C   0  0  0  0  0  0  0  0  0  0  0  0
   28.3381  -20.8131   -7.9255 C   0  0  0  0  0  0  0  0  0  0  0  0
   27.4352  -19.8534   -7.5427 C   0  0  0  0  0  0  0  0  0  0  0  0
   26.8623  -18.9929   -8.4405 C   0  0  0  0  0  0  0  0  0  0  0  0
   27.1984  -19.0914   -9.7584 C   0  0  0  0  0  0  0  0  0  0  0  0
   28.1108  -20.0593  -10.1548 C   0  0  0  0  0  0  0  0  0  0  0  0
   25.8048  -20.2385  -12.7460 C   0  0  0  0  0  0  0  0  0  0  0  0
   25.2182  -19.1229  -12.7852 O   0  0  0  0  0  0  0  0  0  0  0  0
   22.5071  -21.0249  -13.3188 C   0  0  0  0  0  0  0  0  0  0  0  0
   22.7727  -21.7333  -12.0000 C   0  0  1  0  0  0  0  0  0  0  0  0
   23.0117  -23.0875  -12.2444 O   0  0  0  0  0  0  0  0  0  0  0  0
   23.9575  -21.0648  -11.3520 C   0  0  2  0  0  0  0  0  0  0  0  0
   25.1822  -21.2995  -12.0809 N   0  0  0  0  0  0  0  0  0  0  0  0
   24.0578  -21.6323   -9.9595 C   0  0  0  0  0  0  0  0  0  0  0  0
   23.0345  -21.4274   -9.0463 O   0  0  0  0  0  0  0  0  0  0  0  0
   25.0506  -22.2987   -9.5796 O   0  0  0  0  0  0  0  0  0  0  0  0
  2  1  1  0
  3  2  2  0
  4  3  1  0
  5 11  1  0
  5  4  2  0
  6  7  1  0
  6  5  1  0
  7  9  1  0
  7  8  1  6
  9 10  2  0
 11 12  2  0
 12  2  1  0
 13 14  1  0
 13  9  1  0
 14 25  1  0
 15 16  1  0
 14 15  1  1
 16 24  1  0
 17 16  2  0
 17 18  1  0
 18 19  1  0
 19 20  1  0
 20 21  2  0
 22 21  1  0
 23 22  2  0
 24 19  2  0
 24 23  1  0
 25 31  1  0
 26 25  2  0
 28 27  1  6
 28 29  1  0
 30 28  1  0
 30 31  1  6
 32 30  1  0
 33 32  1  0
 34 32  2  0
M  END
$$$$
