YWT.pdb
     RDKit          3D

 34 36  0  0  1  0  0  0  0  0999 V2000
   28.1600  -15.0904  -18.2874 O   0  0  0  0  0  0  0  0  0  0  0  0
   27.6793  -15.9863  -17.3272 C   0  0  0  0  0  0  0  0  0  0  0  0
   27.8655  -15.7485  -15.9911 C   0  0  0  0  0  0  0  0  0  0  0  0
   27.3879  -16.6390  -15.0346 C   0  0  0  0  0  0  0  0  0  0  0  0
   26.7124  -17.7888  -15.3880 C   0  0  0  0  0  0  0  0  0  0  0  0
   26.2273  -18.6982  -14.3337 C   0  0  0  0  0  0  0  0  0  0  0  0
   27.2644  -19.6911  -13.8941 C   0  0  2  0  0  0  0  0  0  0  0  0
   27.5664  -20.6837  -14.8916 N   0  0  0  0  0  0  0  0  0  0  0  0
   26.7567  -20.3608  -12.6592 C   0  0  0  0  0  0  0  0  0  0  0  0
   26.1675  -21.4678  -12.7516 O   0  0  0  0  0  0  0  0  0  0  0  0
   26.5326  -18.0146  -16.7371 C   0  0  0  0  0  0  0  0  0  0  0  0
   27.0058  -17.1316  -17.6972 C   0  0  0  0  0  0  0  0  0  0  0  0
   26.9174  -19.7851  -11.3697 N   0  0  0  0  0  0  0  0  0  0  0  0
   26.4058  -20.3711  -10.1487 C   0  0  1  0  0  0  0  0  0  0  0  0
   27.1616  -19.9026   -8.9481 C   0  0  0  0  0  0  0  0  0  0  0  0
   26.6088  -20.4378   -7.6787 C   0  0  0  0  0  0  0  0  0  0  0  0
   25.4734  -21.1994   -7.4913 C   0  0  0  0  0  0  0  0  0  0  0  0
   25.3170  -21.4813   -6.1884 N   0  0  0  0  0  0  0  0  0  0  0  0
   26.3260  -20.9204   -5.5178 C   0  0  0  0  0  0  0  0  0  0  0  0
   26.6880  -20.8724   -4.1681 C   0  0  0  0  0  0  0  0  0  0  0  0
   27.8188  -20.1912   -3.7940 C   0  0  0  0  0  0  0  0  0  0  0  0
   28.6163  -19.5487   -4.7029 C   0  0  0  0  0  0  0  0  0  0  0  0
   28.2774  -19.5858   -6.0232 C   0  0  0  0  0  0  0  0  0  0  0  0
   27.1352  -20.2725   -6.4109 C   0  0  0  0  0  0  0  0  0  0  0  0
   24.9518  -20.0945  -10.0911 C   0  0  0  0  0  0  0  0  0  0  0  0
   24.5944  -18.9002  -10.2817 O   0  0  0  0  0  0  0  0  0  0  0  0
   23.0120  -20.0094  -12.4249 C   0  0  0  0  0  0  0  0  0  0  0  0
   22.2426  -21.0137  -11.5817 C   0  0  1  0  0  0  0  0  0  0  0  0
   22.5913  -22.3079  -11.9743 O   0  0  0  0  0  0  0  0  0  0  0  0
   22.5857  -20.7563  -10.1371 C   0  0  2  0  0  0  0  0  0  0  0  0
   23.9676  -21.0566   -9.8430 N   0  0  0  0  0  0  0  0  0  0  0  0
   21.6720  -21.6329   -9.3198 C   0  0  0  0  0  0  0  0  0  0  0  0
   20.3021  -21.4185   -9.3333 O   0  0  0  0  0  0  0  0  0  0  0  0
   22.1062  -22.5716   -8.6095 O   0  0  0  0  0  0  0  0  0  0  0  0
  2  1  1  0
  3  2  2  0
  4  3  1  0
  5 11  1  0
  5  4  2  0
  6  7  1  0
  6  5  1  0
  7  9  1  0
  7  8  1  6
  9 10  2  0
 11 12  2  0
 12  2  1  0
 13 14  1  0
 13  9  1  0
 14 25  1  0
 15 16  1  0
 14 15  1  1
 16 24  1  0
 17 16  2  0
 17 18  1  0
 18 19  1  0
 19 20  1  0
 20 21  2  0
 22 21  1  0
 23 22  2  0
 24 19  2  0
 24 23  1  0
 25 31  1  0
 26 25  2  0
 28 27  1  6
 28 29  1  0
 30 28  1  0
 30 31  1  6
 32 30  1  0
 33 32  1  0
 34 32  2  0
M  END
$$$$
