YWT.pdb
     RDKit          3D

 34 36  0  0  1  0  0  0  0  0999 V2000
   24.4444  -42.6235  -12.8162 O   0  0  0  0  0  0  0  0  0  0  0  0
   25.1031  -41.9691  -11.7704 C   0  0  0  0  0  0  0  0  0  0  0  0
   25.7261  -42.6811  -10.7799 C   0  0  0  0  0  0  0  0  0  0  0  0
   26.3817  -42.0315   -9.7387 C   0  0  0  0  0  0  0  0  0  0  0  0
   26.4319  -40.6551   -9.6605 C   0  0  0  0  0  0  0  0  0  0  0  0
   27.1405  -40.0177   -8.5355 C   0  0  0  0  0  0  0  0  0  0  0  0
   28.5217  -39.5550   -8.9003 C   0  0  2  0  0  0  0  0  0  0  0  0
   29.3972  -40.6249   -9.3006 N   0  0  0  0  0  0  0  0  0  0  0  0
   29.0954  -38.8574   -7.7107 C   0  0  0  0  0  0  0  0  0  0  0  0
   30.0359  -39.3936   -7.0710 O   0  0  0  0  0  0  0  0  0  0  0  0
   25.8000  -39.9517  -10.6651 C   0  0  0  0  0  0  0  0  0  0  0  0
   25.1440  -40.5919  -11.7069 C   0  0  0  0  0  0  0  0  0  0  0  0
   28.6109  -37.5956   -7.2710 N   0  0  0  0  0  0  0  0  0  0  0  0
   29.1036  -36.8986   -6.1016 C   0  0  1  0  0  0  0  0  0  0  0  0
   29.1185  -35.4181   -6.3023 C   0  0  0  0  0  0  0  0  0  0  0  0
   29.6012  -34.6831   -5.1064 C   0  0  0  0  0  0  0  0  0  0  0  0
   28.8599  -34.0153   -4.1532 C   0  0  0  0  0  0  0  0  0  0  0  0
   29.6727  -33.4784   -3.2296 N   0  0  0  0  0  0  0  0  0  0  0  0
   30.9311  -33.7803   -3.5576 C   0  0  0  0  0  0  0  0  0  0  0  0
   32.1772  -33.5020   -2.9878 C   0  0  0  0  0  0  0  0  0  0  0  0
   33.3173  -33.9715   -3.5899 C   0  0  0  0  0  0  0  0  0  0  0  0
   33.2812  -34.7114   -4.7414 C   0  0  0  0  0  0  0  0  0  0  0  0
   32.0739  -34.9917   -5.3101 C   0  0  0  0  0  0  0  0  0  0  0  0
   30.9153  -34.5208   -4.7081 C   0  0  0  0  0  0  0  0  0  0  0  0
   28.2975  -37.3412   -4.9405 C   0  0  0  0  0  0  0  0  0  0  0  0
   27.0662  -37.5237   -5.1424 O   0  0  0  0  0  0  0  0  0  0  0  0
   28.2617  -40.3921   -2.6901 C   0  0  0  0  0  0  0  0  0  0  0  0
   28.4494  -39.1543   -1.8274 C   0  0  1  0  0  0  0  0  0  0  0  0
   29.8048  -39.0043   -1.5256 O   0  0  0  0  0  0  0  0  0  0  0  0
   27.9144  -37.9746   -2.5973 C   0  0  2  0  0  0  0  0  0  0  0  0
   28.8062  -37.5653   -3.6573 N   0  0  0  0  0  0  0  0  0  0  0  0
   27.7377  -36.8594   -1.5992 C   0  0  0  0  0  0  0  0  0  0  0  0
   28.5438  -35.7327   -1.6607 O   0  0  0  0  0  0  0  0  0  0  0  0
   26.8722  -36.9057   -0.6920 O   0  0  0  0  0  0  0  0  0  0  0  0
  2  1  1  0
  3  2  2  0
  4  3  1  0
  5 11  1  0
  5  4  2  0
  6  7  1  0
  6  5  1  0
  7  9  1  0
  7  8  1  1
  9 10  2  0
 11 12  2  0
 12  2  1  0
 13 14  1  0
 13  9  1  0
 14 25  1  0
 15 16  1  0
 14 15  1  6
 16 24  1  0
 17 16  2  0
 17 18  1  0
 18 19  1  0
 19 20  1  0
 20 21  2  0
 22 21  1  0
 23 22  2  0
 24 19  2  0
 24 23  1  0
 25 31  1  0
 26 25  2  0
 28 27  1  6
 28 29  1  0
 30 28  1  0
 30 31  1  6
 32 30  1  0
 33 32  1  0
 34 32  2  0
M  END
$$$$
