YWT.pdb
     RDKit          3D

 34 36  0  0  1  0  0  0  0  0999 V2000
   29.0681  -15.1750  -17.1294 O   0  0  0  0  0  0  0  0  0  0  0  0
   28.4780  -16.1862  -16.3645 C   0  0  0  0  0  0  0  0  0  0  0  0
   28.0413  -15.9369  -15.0904 C   0  0  0  0  0  0  0  0  0  0  0  0
   27.4540  -16.9419  -14.3281 C   0  0  0  0  0  0  0  0  0  0  0  0
   27.2879  -18.2205  -14.8188 C   0  0  0  0  0  0  0  0  0  0  0  0
   26.6590  -19.2478  -13.9685 C   0  0  0  0  0  0  0  0  0  0  0  0
   27.6502  -19.9965  -13.1247 C   0  0  2  0  0  0  0  0  0  0  0  0
   28.4635  -20.9158  -13.8763 N   0  0  0  0  0  0  0  0  0  0  0  0
   26.8853  -20.7428  -12.0811 C   0  0  0  0  0  0  0  0  0  0  0  0
   26.5167  -21.9235  -12.3078 O   0  0  0  0  0  0  0  0  0  0  0  0
   27.7325  -18.4562  -16.1033 C   0  0  0  0  0  0  0  0  0  0  0  0
   28.3193  -17.4595  -16.8700 C   0  0  0  0  0  0  0  0  0  0  0  0
   26.5556  -20.1598  -10.8275 N   0  0  0  0  0  0  0  0  0  0  0  0
   25.6111  -20.7293   -9.8897 C   0  0  1  0  0  0  0  0  0  0  0  0
   25.8799  -20.2824   -8.4897 C   0  0  0  0  0  0  0  0  0  0  0  0
   27.2627  -20.5900   -8.0459 C   0  0  0  0  0  0  0  0  0  0  0  0
   28.2851  -21.1722   -8.7668 C   0  0  0  0  0  0  0  0  0  0  0  0
   29.3844  -21.2792   -8.0040 N   0  0  0  0  0  0  0  0  0  0  0  0
   29.1038  -20.7793   -6.7983 C   0  0  0  0  0  0  0  0  0  0  0  0
   29.8351  -20.6235   -5.6168 C   0  0  0  0  0  0  0  0  0  0  0  0
   29.2371  -20.0558   -4.5201 C   0  0  0  0  0  0  0  0  0  0  0  0
   27.9358  -19.6305   -4.5385 C   0  0  0  0  0  0  0  0  0  0  0  0
   27.2086  -19.7751   -5.6829 C   0  0  0  0  0  0  0  0  0  0  0  0
   27.8051  -20.3485   -6.7973 C   0  0  0  0  0  0  0  0  0  0  0  0
   24.2480  -20.4097  -10.3731 C   0  0  0  0  0  0  0  0  0  0  0  0
   23.8204  -19.2476  -10.1345 O   0  0  0  0  0  0  0  0  0  0  0  0
   22.9047  -20.3852  -13.8424 C   0  0  0  0  0  0  0  0  0  0  0  0
   21.9359  -21.2118  -13.0119 C   0  0  1  0  0  0  0  0  0  0  0  0
   22.1747  -22.5688  -13.2407 O   0  0  0  0  0  0  0  0  0  0  0  0
   22.1437  -20.8438  -11.5655 C   0  0  2  0  0  0  0  0  0  0  0  0
   23.4197  -21.2992  -11.0648 N   0  0  0  0  0  0  0  0  0  0  0  0
   21.0179  -21.4862  -10.7967 C   0  0  0  0  0  0  0  0  0  0  0  0
   19.7110  -21.0643  -10.9887 O   0  0  0  0  0  0  0  0  0  0  0  0
   21.2150  -22.4090   -9.9697 O   0  0  0  0  0  0  0  0  0  0  0  0
  2  1  1  0
  3  2  2  0
  4  3  1  0
  5 11  1  0
  5  4  2  0
  6  7  1  0
  6  5  1  0
  7  9  1  0
  7  8  1  6
  9 10  2  0
 11 12  2  0
 12  2  1  0
 13 14  1  0
 13  9  1  0
 14 25  1  0
 15 16  1  0
 14 15  1  1
 16 24  1  0
 17 16  2  0
 17 18  1  0
 18 19  1  0
 19 20  1  0
 20 21  2  0
 22 21  1  0
 23 22  2  0
 24 19  2  0
 24 23  1  0
 25 31  1  0
 26 25  2  0
 28 27  1  6
 28 29  1  0
 30 28  1  0
 30 31  1  1
 32 30  1  0
 33 32  1  0
 34 32  2  0
M  END
$$$$
