YWT.pdb
     RDKit          3D

 34 36  0  0  1  0  0  0  0  0999 V2000
   10.7334  -14.2061  -11.8698 O   0  0  0  0  0  0  0  0  0  0  0  0
   11.6653  -13.2645  -11.4219 C   0  0  0  0  0  0  0  0  0  0  0  0
   12.5705  -13.5841  -10.4448 C   0  0  0  0  0  0  0  0  0  0  0  0
   13.4983  -12.6483   -9.9981 C   0  0  0  0  0  0  0  0  0  0  0  0
   13.5456  -11.3705  -10.5158 C   0  0  0  0  0  0  0  0  0  0  0  0
   14.5494  -10.4181  -10.0064 C   0  0  0  0  0  0  0  0  0  0  0  0
   15.7362  -10.2763  -10.9154 C   0  0  2  0  0  0  0  0  0  0  0  0
   16.6017  -11.4262  -10.9110 N   0  0  0  0  0  0  0  0  0  0  0  0
   16.5023   -9.0715  -10.4766 C   0  0  0  0  0  0  0  0  0  0  0  0
   17.2749   -9.1539   -9.4879 O   0  0  0  0  0  0  0  0  0  0  0  0
   12.6279  -11.0634  -11.4990 C   0  0  0  0  0  0  0  0  0  0  0  0
   11.6994  -11.9908  -11.9499 C   0  0  0  0  0  0  0  0  0  0  0  0
   16.3880   -7.8217  -11.1439 N   0  0  0  0  0  0  0  0  0  0  0  0
   17.1113   -6.6273  -10.7617 C   0  0  1  0  0  0  0  0  0  0  0  0
   18.0568   -6.1843  -11.8303 C   0  0  0  0  0  0  0  0  0  0  0  0
   19.2135   -7.1013  -11.9876 C   0  0  0  0  0  0  0  0  0  0  0  0
   20.2939   -7.2710  -11.1463 C   0  0  0  0  0  0  0  0  0  0  0  0
   21.1264   -8.1979  -11.6458 N   0  0  0  0  0  0  0  0  0  0  0  0
   20.6141   -8.6393  -12.7970 C   0  0  0  0  0  0  0  0  0  0  0  0
   21.0239   -9.5820  -13.7448 C   0  0  0  0  0  0  0  0  0  0  0  0
   20.2479   -9.8093  -14.8533 C   0  0  0  0  0  0  0  0  0  0  0  0
   19.0729   -9.1404  -15.0696 C   0  0  0  0  0  0  0  0  0  0  0  0
   18.6589   -8.2177  -14.1549 C   0  0  0  0  0  0  0  0  0  0  0  0
   19.4375   -7.9810  -13.0305 C   0  0  0  0  0  0  0  0  0  0  0  0
   16.1151   -5.6016  -10.3753 C   0  0  0  0  0  0  0  0  0  0  0  0
   15.1327   -5.4459  -11.1505 O   0  0  0  0  0  0  0  0  0  0  0  0
   13.8759   -2.5178   -7.3674 C   0  0  0  0  0  0  0  0  0  0  0  0
   14.8740   -3.6552   -7.5146 C   0  0  1  0  0  0  0  0  0  0  0  0
   14.3243   -4.8227   -6.9802 O   0  0  0  0  0  0  0  0  0  0  0  0
   15.1847   -3.8044   -8.9816 C   0  0  2  0  0  0  0  0  0  0  0  0
   16.1935   -4.8088   -9.2260 N   0  0  0  0  0  0  0  0  0  0  0  0
   15.6607   -2.4553   -9.4553 C   0  0  0  0  0  0  0  0  0  0  0  0
   14.7464   -1.4519   -9.7386 O   0  0  0  0  0  0  0  0  0  0  0  0
   16.8779   -2.1926   -9.6090 O   0  0  0  0  0  0  0  0  0  0  0  0
  2  1  1  0
  3  2  2  0
  4  3  1  0
  5 11  1  0
  5  4  2  0
  6  7  1  0
  6  5  1  0
  7  9  1  0
  7  8  1  1
  9 10  2  0
 11 12  2  0
 12  2  1  0
 13 14  1  0
 13  9  1  0
 14 25  1  0
 15 16  1  0
 14 15  1  6
 16 24  1  0
 17 16  2  0
 17 18  1  0
 18 19  1  0
 19 20  1  0
 20 21  2  0
 22 21  1  0
 23 22  2  0
 24 19  2  0
 24 23  1  0
 25 31  1  0
 26 25  2  0
 28 27  1  6
 28 29  1  0
 30 28  1  0
 30 31  1  1
 32 30  1  0
 33 32  1  0
 34 32  2  0
M  END
$$$$
