YWT.pdb
     RDKit          3D

 34 36  0  0  1  0  0  0  0  0999 V2000
   25.8726  -21.6667   -7.1012 O   0  0  0  0  0  0  0  0  0  0  0  0
   26.0261  -21.2995   -8.4418 C   0  0  0  0  0  0  0  0  0  0  0  0
   25.8171  -20.0065   -8.8428 C   0  0  0  0  0  0  0  0  0  0  0  0
   25.9694  -19.6396  -10.1763 C   0  0  0  0  0  0  0  0  0  0  0  0
   26.3342  -20.5542  -11.1425 C   0  0  0  0  0  0  0  0  0  0  0  0
   26.4817  -20.1119  -12.5413 C   0  0  0  0  0  0  0  0  0  0  0  0
   25.1644  -19.8969  -13.2294 C   0  0  2  0  0  0  0  0  0  0  0  0
   24.4759  -21.1211  -13.5439 N   0  0  0  0  0  0  0  0  0  0  0  0
   25.4283  -19.1340  -14.4862 C   0  0  0  0  0  0  0  0  0  0  0  0
   25.4789  -19.7454  -15.5839 O   0  0  0  0  0  0  0  0  0  0  0  0
   26.5412  -21.8522  -10.7236 C   0  0  0  0  0  0  0  0  0  0  0  0
   26.3914  -22.2263   -9.3957 C   0  0  0  0  0  0  0  0  0  0  0  0
   25.6265  -17.7266  -14.4856 N   0  0  0  0  0  0  0  0  0  0  0  0
   25.7983  -16.9297  -15.6820 C   0  0  1  0  0  0  0  0  0  0  0  0
   25.5788  -15.4757  -15.4176 C   0  0  0  0  0  0  0  0  0  0  0  0
   25.8068  -14.6345  -16.6192 C   0  0  0  0  0  0  0  0  0  0  0  0
   25.1098  -14.6333  -17.8101 C   0  0  0  0  0  0  0  0  0  0  0  0
   25.6297  -13.7226  -18.6479 N   0  0  0  0  0  0  0  0  0  0  0  0
   26.6529  -13.1267  -18.0310 C   0  0  0  0  0  0  0  0  0  0  0  0
   27.5553  -12.1225  -18.3947 C   0  0  0  0  0  0  0  0  0  0  0  0
   28.5202  -11.7242  -17.5043 C   0  0  0  0  0  0  0  0  0  0  0  0
   28.6348  -12.2790  -16.2578 C   0  0  0  0  0  0  0  0  0  0  0  0
   27.7627  -13.2597  -15.8874 C   0  0  0  0  0  0  0  0  0  0  0  0
   26.7833  -13.6691  -16.7816 C   0  0  0  0  0  0  0  0  0  0  0  0
   27.1312  -17.2452  -16.2458 C   0  0  0  0  0  0  0  0  0  0  0  0
   28.1122  -17.1691  -15.4571 O   0  0  0  0  0  0  0  0  0  0  0  0
   29.1094  -20.0337  -17.1883 C   0  0  0  0  0  0  0  0  0  0  0  0
   29.0204  -19.1941  -18.4528 C   0  0  1  0  0  0  0  0  0  0  0  0
   28.0216  -19.7122  -19.2803 O   0  0  0  0  0  0  0  0  0  0  0  0
   28.7242  -17.7754  -18.0401 C   0  0  2  0  0  0  0  0  0  0  0  0
   27.3666  -17.6152  -17.5737 N   0  0  0  0  0  0  0  0  0  0  0  0
   28.9666  -16.9189  -19.2561 C   0  0  0  0  0  0  0  0  0  0  0  0
   30.2489  -16.7728  -19.7634 O   0  0  0  0  0  0  0  0  0  0  0  0
   28.0367  -16.3166  -19.8451 O   0  0  0  0  0  0  0  0  0  0  0  0
  2  1  1  0
  3  2  2  0
  4  3  1  0
  5 11  1  0
  5  4  2  0
  6  7  1  0
  6  5  1  0
  7  9  1  0
  7  8  1  6
  9 10  2  0
 11 12  2  0
 12  2  1  0
 13 14  1  0
 13  9  1  0
 14 25  1  0
 15 16  1  0
 14 15  1  1
 16 24  1  0
 17 16  2  0
 17 18  1  0
 18 19  1  0
 19 20  1  0
 20 21  2  0
 22 21  1  0
 23 22  2  0
 24 19  2  0
 24 23  1  0
 25 31  1  0
 26 25  2  0
 28 27  1  1
 28 29  1  0
 30 28  1  0
 30 31  1  6
 32 30  1  0
 33 32  1  0
 34 32  2  0
M  END
$$$$
