YWT.pdb
     RDKit          3D

 34 36  0  0  1  0  0  0  0  0999 V2000
   22.4362   -9.6479    7.0714 O   0  0  0  0  0  0  0  0  0  0  0  0
   21.5131  -10.6905    6.9428 C   0  0  0  0  0  0  0  0  0  0  0  0
   21.3192  -11.5848    7.9620 C   0  0  0  0  0  0  0  0  0  0  0  0
   20.4012  -12.6227    7.8356 C   0  0  0  0  0  0  0  0  0  0  0  0
   19.6537  -12.7934    6.6887 C   0  0  0  0  0  0  0  0  0  0  0  0
   18.6945  -13.9103    6.6075 C   0  0  0  0  0  0  0  0  0  0  0  0
   17.3269  -13.4764    6.1646 C   0  0  2  0  0  0  0  0  0  0  0  0
   16.6034  -12.7462    7.1720 N   0  0  0  0  0  0  0  0  0  0  0  0
   16.5615  -14.7027    5.7887 C   0  0  0  0  0  0  0  0  0  0  0  0
   15.7198  -15.1792    6.5924 O   0  0  0  0  0  0  0  0  0  0  0  0
   19.8599  -11.8850    5.6711 C   0  0  0  0  0  0  0  0  0  0  0  0
   20.7735  -10.8473    5.7892 C   0  0  0  0  0  0  0  0  0  0  0  0
   16.7527  -15.3575    4.5418 N   0  0  0  0  0  0  0  0  0  0  0  0
   15.9808  -16.4983    4.0962 C   0  0  1  0  0  0  0  0  0  0  0  0
   16.0777  -16.6917    2.6179 C   0  0  0  0  0  0  0  0  0  0  0  0
   15.1784  -17.7629    2.1205 C   0  0  0  0  0  0  0  0  0  0  0  0
   13.8004  -17.7619    2.0501 C   0  0  0  0  0  0  0  0  0  0  0  0
   13.3637  -18.9239    1.5394 N   0  0  0  0  0  0  0  0  0  0  0  0
   14.4268  -19.6865    1.2735 C   0  0  0  0  0  0  0  0  0  0  0  0
   14.5942  -20.9694    0.7434 C   0  0  0  0  0  0  0  0  0  0  0  0
   15.8586  -21.4808    0.5939 C   0  0  0  0  0  0  0  0  0  0  0  0
   16.9767  -20.7743    0.9481 C   0  0  0  0  0  0  0  0  0  0  0  0
   16.8310  -19.5215    1.4666 C   0  0  0  0  0  0  0  0  0  0  0  0
   15.5557  -18.9961    1.6216 C   0  0  0  0  0  0  0  0  0  0  0  0
   16.4150  -17.6728    4.8873 C   0  0  0  0  0  0  0  0  0  0  0  0
   17.6562  -17.8099    5.0630 O   0  0  0  0  0  0  0  0  0  0  0  0
   16.4161  -18.6599    8.3821 C   0  0  0  0  0  0  0  0  0  0  0  0
   15.6165  -19.7145    7.6337 C   0  0  1  0  0  0  0  0  0  0  0  0
   14.2562  -19.4109    7.7233 O   0  0  0  0  0  0  0  0  0  0  0  0
   16.0944  -19.7223    6.2046 C   0  0  2  0  0  0  0  0  0  0  0  0
   15.5512  -18.6225    5.4419 N   0  0  0  0  0  0  0  0  0  0  0  0
   15.6548  -21.0380    5.6157 C   0  0  0  0  0  0  0  0  0  0  0  0
   16.1645  -22.2294    6.1095 O   0  0  0  0  0  0  0  0  0  0  0  0
   14.8275  -21.1056    4.6749 O   0  0  0  0  0  0  0  0  0  0  0  0
  2  1  1  0
  3  2  2  0
  4  3  1  0
  5 11  1  0
  5  4  2  0
  6  7  1  0
  6  5  1  0
  7  9  1  0
  7  8  1  1
  9 10  2  0
 11 12  2  0
 12  2  1  0
 13 14  1  0
 13  9  1  0
 14 25  1  0
 15 16  1  0
 14 15  1  6
 16 24  1  0
 17 16  2  0
 17 18  1  0
 18 19  1  0
 19 20  1  0
 20 21  2  0
 22 21  1  0
 23 22  2  0
 24 19  2  0
 24 23  1  0
 25 31  1  0
 26 25  2  0
 28 27  1  1
 28 29  1  0
 30 28  1  0
 30 31  1  6
 32 30  1  0
 33 32  1  0
 34 32  2  0
M  END
$$$$
