PTG.pdb
     RDKit          3D

 19 19  0  0  1  0  0  0  0  0999 V2000
   20.5358  -12.1469  -18.0279 N   0  0  0  0  0  0  0  0  0  0  0  0
   20.3864  -13.5872  -17.9339 C   0  0  0  0  0  0  0  0  0  0  0  0
   19.8933  -13.7435  -16.4929 C   0  0  0  0  0  0  0  0  0  0  0  0
   18.8162  -12.6509  -16.4674 C   0  0  0  0  0  0  0  0  0  0  0  0
   19.5317  -11.5434  -17.2219 C   0  0  1  0  0  0  0  0  0  0  0  0
   20.0810  -10.6175  -16.1942 C   0  0  0  0  0  0  0  0  0  0  0  0
   19.4442  -10.2006  -15.2207 O   0  0  0  0  0  0  0  0  0  0  0  0
   23.4213  -11.1710  -14.5359 C   0  0  0  0  0  0  0  0  0  0  0  0
   23.3685   -9.7435  -15.0102 C   0  0  1  0  0  0  0  0  0  0  0  0
   24.3770   -9.6045  -15.9651 O   0  0  0  0  0  0  0  0  0  0  0  0
   22.0480   -9.2702  -15.4761 C   0  0  2  0  0  0  0  0  0  0  0  0
   21.4268  -10.2035  -16.3702 N   0  0  0  0  0  0  0  0  0  0  0  0
   21.9515   -7.8544  -15.8495 C   0  0  0  0  0  0  0  0  0  0  0  0
   22.1206   -7.5792  -17.0780 O   0  0  0  0  0  0  0  0  0  0  0  0
   21.6978   -6.7856  -14.9859 N   0  0  0  0  0  0  0  0  0  0  0  0
   21.6647   -5.3943  -15.4232 C   0  0  0  0  0  0  0  0  0  0  0  0
   21.3568   -4.4807  -14.3024 C   0  0  0  0  0  0  0  0  0  0  0  0
   21.1179   -5.0032  -13.1848 O   0  0  0  0  0  0  0  0  0  0  0  0
   21.3145   -3.1067  -14.3998 O   0  0  0  0  0  0  0  0  0  0  0  0
  1  2  1  0
  3  2  1  0
  4  3  1  0
  4  5  1  0
  5  6  1  1
  5  1  1  0
  6 12  1  0
  7  6  2  0
  9  8  1  6
 10  9  1  0
 11  9  1  0
 11 13  1  0
 11 12  1  6
 13 15  1  0
 13 14  2  0
 15 16  1  0
 16 17  1  0
 17 18  2  0
 17 19  1  0
M  END
$$$$
