PTG.pdb
     RDKit          3D

 19 19  0  0  1  0  0  0  0  0999 V2000
   18.1552   -8.6535  -15.7936 N   0  0  0  0  0  0  0  0  0  0  0  0
   17.8356   -9.9389  -16.3860 C   0  0  0  0  0  0  0  0  0  0  0  0
   18.8966  -10.8366  -15.7436 C   0  0  0  0  0  0  0  0  0  0  0  0
   18.7719  -10.3813  -14.2835 C   0  0  0  0  0  0  0  0  0  0  0  0
   18.6374   -8.8804  -14.4753 C   0  0  1  0  0  0  0  0  0  0  0  0
   19.9870   -8.3003  -14.2353 C   0  0  0  0  0  0  0  0  0  0  0  0
   20.6442   -8.4696  -13.2026 O   0  0  0  0  0  0  0  0  0  0  0  0
   22.9318   -8.6588  -16.7410 C   0  0  0  0  0  0  0  0  0  0  0  0
   22.6270   -7.2162  -16.4380 C   0  0  1  0  0  0  0  0  0  0  0  0
   22.0261   -6.6883  -17.5819 O   0  0  0  0  0  0  0  0  0  0  0  0
   21.8563   -6.9691  -15.2012 C   0  0  2  0  0  0  0  0  0  0  0  0
   20.5286   -7.5054  -15.2784 N   0  0  0  0  0  0  0  0  0  0  0  0
   21.9810   -5.6341  -14.6050 C   0  0  0  0  0  0  0  0  0  0  0  0
   23.1496   -5.2730  -14.2621 O   0  0  0  0  0  0  0  0  0  0  0  0
   20.9412   -4.7292  -14.3751 N   0  0  0  0  0  0  0  0  0  0  0  0
   21.1312   -3.4441  -13.7116 C   0  0  0  0  0  0  0  0  0  0  0  0
   21.3270   -2.3526  -14.6895 C   0  0  0  0  0  0  0  0  0  0  0  0
   20.8462   -1.2286  -14.3991 O   0  0  0  0  0  0  0  0  0  0  0  0
   21.9954   -2.4838  -15.8874 O   0  0  0  0  0  0  0  0  0  0  0  0
  1  2  1  0
  3  2  1  0
  4  3  1  0
  4  5  1  0
  5  6  1  6
  5  1  1  0
  6 12  1  0
  7  6  2  0
  9  8  1  6
 10  9  1  0
 11  9  1  0
 11 13  1  0
 11 12  1  6
 13 15  1  0
 13 14  2  0
 15 16  1  0
 16 17  1  0
 17 18  2  0
 17 19  1  0
M  END
$$$$
