PTG.pdb
     RDKit          3D

 19 19  0  0  1  0  0  0  0  0999 V2000
   17.2458  -10.1687  -15.6966 N   0  0  0  0  0  0  0  0  0  0  0  0
   16.6495  -11.1143  -16.6218 C   0  0  0  0  0  0  0  0  0  0  0  0
   17.8806  -11.8999  -17.0816 C   0  0  0  0  0  0  0  0  0  0  0  0
   18.5464  -12.1572  -15.7232 C   0  0  0  0  0  0  0  0  0  0  0  0
   18.3464  -10.8052  -15.0599 C   0  0  1  0  0  0  0  0  0  0  0  0
   19.6266  -10.0626  -15.2181 C   0  0  0  0  0  0  0  0  0  0  0  0
   20.7152  -10.4498  -14.7798 O   0  0  0  0  0  0  0  0  0  0  0  0
   22.2416   -6.9595  -17.8245 C   0  0  0  0  0  0  0  0  0  0  0  0
   20.9526   -7.6756  -17.5221 C   0  0  1  0  0  0  0  0  0  0  0  0
   20.9075   -8.7862  -18.3664 O   0  0  0  0  0  0  0  0  0  0  0  0
   20.7208   -8.0074  -16.1006 C   0  0  2  0  0  0  0  0  0  0  0  0
   19.5616   -8.8327  -15.9228 N   0  0  0  0  0  0  0  0  0  0  0  0
   20.8922   -6.9162  -15.1346 C   0  0  0  0  0  0  0  0  0  0  0  0
   19.8858   -6.1651  -14.9431 O   0  0  0  0  0  0  0  0  0  0  0  0
   22.0525   -6.6233  -14.4131 N   0  0  0  0  0  0  0  0  0  0  0  0
   22.1217   -5.5758  -13.4003 C   0  0  0  0  0  0  0  0  0  0  0  0
   21.9877   -4.2313  -14.0005 C   0  0  0  0  0  0  0  0  0  0  0  0
   22.7218   -3.9666  -14.9854 O   0  0  0  0  0  0  0  0  0  0  0  0
   21.1196   -3.2575  -13.5566 O   0  0  0  0  0  0  0  0  0  0  0  0
  1  2  1  0
  3  2  1  0
  4  3  1  0
  4  5  1  0
  5  6  1  6
  5  1  1  0
  6 12  1  0
  7  6  2  0
  9  8  1  1
 10  9  1  0
 11  9  1  0
 11 13  1  0
 11 12  1  6
 13 15  1  0
 13 14  2  0
 15 16  1  0
 16 17  1  0
 17 18  2  0
 17 19  1  0
M  END
$$$$
