PTG.pdb
     RDKit          3D

 19 19  0  0  1  0  0  0  0  0999 V2000
   18.0132  -11.0914  -15.3010 N   0  0  0  0  0  0  0  0  0  0  0  0
   19.0226  -10.1640  -15.7772 C   0  0  0  0  0  0  0  0  0  0  0  0
   20.2569  -11.0681  -15.8331 C   0  0  0  0  0  0  0  0  0  0  0  0
   19.6514  -12.2906  -16.5356 C   0  0  0  0  0  0  0  0  0  0  0  0
   18.3118  -12.3792  -15.8248 C   0  0  1  0  0  0  0  0  0  0  0  0
   18.4590  -13.4217  -14.7728 C   0  0  0  0  0  0  0  0  0  0  0  0
   18.8704  -13.2031  -13.6282 O   0  0  0  0  0  0  0  0  0  0  0  0
   16.7323  -17.5452  -12.9879 C   0  0  0  0  0  0  0  0  0  0  0  0
   16.8176  -16.4794  -14.0474 C   0  0  1  0  0  0  0  0  0  0  0  0
   15.7736  -15.5870  -13.7983 O   0  0  0  0  0  0  0  0  0  0  0  0
   18.1330  -15.8206  -14.1907 C   0  0  2  0  0  0  0  0  0  0  0  0
   18.0953  -14.7440  -15.1371 N   0  0  0  0  0  0  0  0  0  0  0  0
   19.3049  -16.7011  -14.2589 C   0  0  0  0  0  0  0  0  0  0  0  0
   19.6063  -17.1562  -15.4059 O   0  0  0  0  0  0  0  0  0  0  0  0
   20.1134  -17.0885  -13.1870 N   0  0  0  0  0  0  0  0  0  0  0  0
   21.3403  -17.8608  -13.3487 C   0  0  0  0  0  0  0  0  0  0  0  0
   21.0849  -19.3131  -13.2425 C   0  0  0  0  0  0  0  0  0  0  0  0
   19.8949  -19.6752  -13.0644 O   0  0  0  0  0  0  0  0  0  0  0  0
   22.0555  -20.2879  -13.3250 O   0  0  0  0  0  0  0  0  0  0  0  0
  1  2  1  0
  3  2  1  0
  4  3  1  0
  4  5  1  0
  5  6  1  1
  5  1  1  0
  6 12  1  0
  7  6  2  0
  9  8  1  1
 10  9  1  0
 11  9  1  0
 11 13  1  0
 11 12  1  6
 13 15  1  0
 13 14  2  0
 15 16  1  0
 16 17  1  0
 17 18  2  0
 17 19  1  0
M  END
$$$$
