PTG.pdb
     RDKit          3D

 19 19  0  0  1  0  0  0  0  0999 V2000
   23.0710  -13.0688  -16.4960 N   0  0  0  0  0  0  0  0  0  0  0  0
   24.3418  -13.7646  -16.4159 C   0  0  0  0  0  0  0  0  0  0  0  0
   25.2023  -12.7326  -15.6819 C   0  0  0  0  0  0  0  0  0  0  0  0
   24.2352  -12.3422  -14.5562 C   0  0  0  0  0  0  0  0  0  0  0  0
   22.9302  -12.2669  -15.3303 C   0  0  1  0  0  0  0  0  0  0  0  0
   22.6992  -10.8277  -15.6314 C   0  0  0  0  0  0  0  0  0  0  0  0
   23.2683  -10.2050  -16.5345 O   0  0  0  0  0  0  0  0  0  0  0  0
   19.6297   -9.6871  -16.8079 C   0  0  0  0  0  0  0  0  0  0  0  0
   19.9090   -8.8207  -15.6092 C   0  0  1  0  0  0  0  0  0  0  0  0
   18.9785   -9.1808  -14.6331 O   0  0  0  0  0  0  0  0  0  0  0  0
   21.3048   -8.8286  -15.1227 C   0  0  2  0  0  0  0  0  0  0  0  0
   21.7585  -10.1528  -14.8111 N   0  0  0  0  0  0  0  0  0  0  0  0
   21.6739   -7.7770  -14.1682 C   0  0  0  0  0  0  0  0  0  0  0  0
   22.0123   -8.1601  -13.0053 O   0  0  0  0  0  0  0  0  0  0  0  0
   21.6836   -6.4015  -14.4140 N   0  0  0  0  0  0  0  0  0  0  0  0
   21.9741   -5.4072  -13.3868 C   0  0  0  0  0  0  0  0  0  0  0  0
   21.8668   -4.0316  -13.9178 C   0  0  0  0  0  0  0  0  0  0  0  0
   21.5567   -3.9063  -15.1291 O   0  0  0  0  0  0  0  0  0  0  0  0
   22.0820   -2.8876  -13.1803 O   0  0  0  0  0  0  0  0  0  0  0  0
  1  2  1  0
  3  2  1  0
  4  3  1  0
  4  5  1  0
  5  6  1  6
  5  1  1  0
  6 12  1  0
  7  6  2  0
  9  8  1  6
 10  9  1  0
 11  9  1  0
 11 13  1  0
 11 12  1  1
 13 15  1  0
 13 14  2  0
 15 16  1  0
 16 17  1  0
 17 18  2  0
 17 19  1  0
M  END
$$$$
