PTG.pdb
     RDKit          3D

 19 19  0  0  1  0  0  0  0  0999 V2000
   25.4409  -12.1084  -16.6762 N   0  0  0  0  0  0  0  0  0  0  0  0
   26.8632  -12.3953  -16.6970 C   0  0  0  0  0  0  0  0  0  0  0  0
   27.4474  -11.0426  -16.2809 C   0  0  0  0  0  0  0  0  0  0  0  0
   26.5376  -10.7233  -15.0871 C   0  0  0  0  0  0  0  0  0  0  0  0
   25.1939  -11.1652  -15.6411 C   0  0  1  0  0  0  0  0  0  0  0  0
   24.5078   -9.9340  -16.1195 C   0  0  0  0  0  0  0  0  0  0  0  0
   24.7184   -9.3997  -17.2137 O   0  0  0  0  0  0  0  0  0  0  0  0
   21.4462   -9.8677  -17.2221 C   0  0  0  0  0  0  0  0  0  0  0  0
   21.3789   -8.8228  -16.1406 C   0  0  1  0  0  0  0  0  0  0  0  0
   20.5880   -9.3560  -15.1216 O   0  0  0  0  0  0  0  0  0  0  0  0
   22.6797   -8.3054  -15.6662 C   0  0  2  0  0  0  0  0  0  0  0  0
   23.5545   -9.3587  -15.2399 N   0  0  0  0  0  0  0  0  0  0  0  0
   22.6406   -7.1120  -14.8133 C   0  0  0  0  0  0  0  0  0  0  0  0
   22.5681   -7.3121  -13.5610 O   0  0  0  0  0  0  0  0  0  0  0  0
   22.6704   -5.7836  -15.2458 N   0  0  0  0  0  0  0  0  0  0  0  0
   22.6791   -4.6453  -14.3335 C   0  0  0  0  0  0  0  0  0  0  0  0
   21.3132   -4.1338  -14.0915 C   0  0  0  0  0  0  0  0  0  0  0  0
   20.3629   -4.7604  -14.6238 O   0  0  0  0  0  0  0  0  0  0  0  0
   21.0147   -3.0260  -13.3282 O   0  0  0  0  0  0  0  0  0  0  0  0
  1  2  1  0
  3  2  1  0
  4  3  1  0
  4  5  1  0
  5  6  1  6
  5  1  1  0
  6 12  1  0
  7  6  2  0
  9  8  1  6
 10  9  1  0
 11  9  1  0
 11 13  1  0
 11 12  1  1
 13 15  1  0
 13 14  2  0
 15 16  1  0
 16 17  1  0
 17 18  2  0
 17 19  1  0
M  END
$$$$
