DVV.pdb
     RDKit          3D

 23 22  0  0  1  0  0  0  0  0999 V2000
   12.1447  -16.3918   19.7871 N   0  0  0  0  0  0  0  0  0  0  0  0
   11.8000  -17.2259   20.9237 C   0  0  1  0  0  0  0  0  0  0  0  0
   13.0728  -17.9249   21.3496 C   0  0  0  0  0  0  0  0  0  0  0  0
   13.4295  -18.9341   20.3313 C   0  0  0  0  0  0  0  0  0  0  0  0
   12.5879  -19.6814   19.8044 O   0  0  0  0  0  0  0  0  0  0  0  0
   11.2510  -16.3740   22.0020 C   0  0  0  0  0  0  0  0  0  0  0  0
   11.8880  -15.3702   22.4128 O   0  0  0  0  0  0  0  0  0  0  0  0
   14.7561  -19.0504   19.9506 O   0  0  0  0  0  0  0  0  0  0  0  0
    7.2215  -14.9798   24.4826 C   0  0  0  0  0  0  0  0  0  0  0  0
    7.8645  -15.8005   23.3736 C   0  0  1  0  0  0  0  0  0  0  0  0
    7.4712  -15.2820   22.0267 C   0  0  0  0  0  0  0  0  0  0  0  0
    9.3836  -15.7515   23.5881 C   0  0  2  0  0  0  0  0  0  0  0  0
    9.9920  -16.6347   22.6272 N   0  0  0  0  0  0  0  0  0  0  0  0
    9.6095  -16.1921   24.9877 C   0  0  0  0  0  0  0  0  0  0  0  0
    9.6331  -17.4183   25.2714 O   0  0  0  0  0  0  0  0  0  0  0  0
   11.2839  -13.5473   27.9942 C   0  0  0  0  0  0  0  0  0  0  0  0
   10.1796  -14.5190   28.3677 C   0  0  1  0  0  0  0  0  0  0  0  0
    8.8514  -13.8125   28.5155 C   0  0  0  0  0  0  0  0  0  0  0  0
   10.1179  -15.6777   27.4089 C   0  0  2  0  0  0  0  0  0  0  0  0
    9.8071  -15.2860   26.0616 N   0  0  0  0  0  0  0  0  0  0  0  0
    9.0544  -16.6011   27.8776 C   0  0  0  0  0  0  0  0  0  0  0  0
    9.2620  -17.4863   28.9257 O   0  0  0  0  0  0  0  0  0  0  0  0
    7.9230  -16.6136   27.3385 O   0  0  0  0  0  0  0  0  0  0  0  0
  2  1  1  6
  3  2  1  0
  4  3  1  0
  4  8  1  0
  5  4  2  0
  6  2  1  0
  7  6  2  0
 10  9  1  1
 10 11  1  0
 12 13  1  6
 12 10  1  0
 13  6  1  0
 14 12  1  0
 15 14  2  0
 17 18  1  6
 17 19  1  0
 17 16  1  0
 19 20  1  6
 20 14  1  0
 21 22  1  0
 21 19  1  0
 23 21  2  0
M  END
$$$$
