DVV.pdb
     RDKit          3D

 23 22  0  0  1  0  0  0  0  0999 V2000
   12.3671  -16.5672   19.8588 N   0  0  0  0  0  0  0  0  0  0  0  0
   11.7515  -17.3220   20.9347 C   0  0  1  0  0  0  0  0  0  0  0  0
   12.8464  -18.1615   21.5563 C   0  0  0  0  0  0  0  0  0  0  0  0
   12.9903  -19.4115   20.7822 C   0  0  0  0  0  0  0  0  0  0  0  0
   12.3646  -19.6242   19.7298 O   0  0  0  0  0  0  0  0  0  0  0  0
   11.1572  -16.3805   21.9096 C   0  0  0  0  0  0  0  0  0  0  0  0
   11.8327  -15.4257   22.3721 O   0  0  0  0  0  0  0  0  0  0  0  0
   13.8580  -20.3842   21.2505 O   0  0  0  0  0  0  0  0  0  0  0  0
    7.0508  -14.8376   24.2351 C   0  0  0  0  0  0  0  0  0  0  0  0
    7.6885  -15.6361   23.1070 C   0  0  1  0  0  0  0  0  0  0  0  0
    7.2803  -15.0980   21.7724 C   0  0  0  0  0  0  0  0  0  0  0  0
    9.2092  -15.5817   23.3089 C   0  0  2  0  0  0  0  0  0  0  0  0
    9.8099  -16.4972   22.3735 N   0  0  0  0  0  0  0  0  0  0  0  0
    9.4449  -15.9757   24.7207 C   0  0  0  0  0  0  0  0  0  0  0  0
    9.6900  -17.1754   25.0126 O   0  0  0  0  0  0  0  0  0  0  0  0
   10.3319  -14.4787   29.4300 C   0  0  0  0  0  0  0  0  0  0  0  0
    9.7236  -14.1757   28.0731 C   0  0  1  0  0  0  0  0  0  0  0  0
   10.2382  -12.8668   27.5190 C   0  0  0  0  0  0  0  0  0  0  0  0
    9.9086  -15.3240   27.1177 C   0  0  2  0  0  0  0  0  0  0  0  0
    9.4097  -15.0525   25.7976 N   0  0  0  0  0  0  0  0  0  0  0  0
    9.1687  -16.4913   27.6592 C   0  0  0  0  0  0  0  0  0  0  0  0
    9.7923  -17.4596   28.4330 O   0  0  0  0  0  0  0  0  0  0  0  0
    7.9452  -16.6443   27.4344 O   0  0  0  0  0  0  0  0  0  0  0  0
  2  1  1  6
  3  2  1  0
  4  3  1  0
  4  8  1  0
  5  4  2  0
  6  2  1  0
  7  6  2  0
 10  9  1  1
 10 11  1  0
 12 13  1  6
 12 10  1  0
 13  6  1  0
 14 12  1  0
 15 14  2  0
 17 18  1  6
 17 19  1  0
 17 16  1  0
 19 20  1  6
 20 14  1  0
 21 22  1  0
 21 19  1  0
 23 21  2  0
M  END
$$$$
