DVV.pdb
     RDKit          3D

 23 22  0  0  1  0  0  0  0  0999 V2000
    9.1991  -15.3185   20.6042 N   0  0  0  0  0  0  0  0  0  0  0  0
    8.4901  -15.9683   21.6911 C   0  0  1  0  0  0  0  0  0  0  0  0
    8.9320  -17.4155   21.6924 C   0  0  0  0  0  0  0  0  0  0  0  0
    8.4251  -18.0729   20.4704 C   0  0  0  0  0  0  0  0  0  0  0  0
    7.2337  -18.0134   20.1221 O   0  0  0  0  0  0  0  0  0  0  0  0
    8.8232  -15.2884   22.9626 C   0  0  0  0  0  0  0  0  0  0  0  0
   10.0191  -15.0387   23.2617 O   0  0  0  0  0  0  0  0  0  0  0  0
    9.3155  -18.7839   19.6830 O   0  0  0  0  0  0  0  0  0  0  0  0
    7.1462  -12.9725   27.0287 C   0  0  0  0  0  0  0  0  0  0  0  0
    6.8361  -13.5883   25.6717 C   0  0  1  0  0  0  0  0  0  0  0  0
    6.2923  -12.5619   24.7293 C   0  0  0  0  0  0  0  0  0  0  0  0
    8.1327  -14.2211   25.1478 C   0  0  2  0  0  0  0  0  0  0  0  0
    7.8281  -14.8836   23.9060 N   0  0  0  0  0  0  0  0  0  0  0  0
    8.5769  -15.1669   26.2024 C   0  0  0  0  0  0  0  0  0  0  0  0
    7.8109  -16.0855   26.5950 O   0  0  0  0  0  0  0  0  0  0  0  0
   12.5868  -16.2677   26.5751 C   0  0  0  0  0  0  0  0  0  0  0  0
   11.8700  -16.0103   27.8877 C   0  0  1  0  0  0  0  0  0  0  0  0
   12.3253  -14.7142   28.5187 C   0  0  0  0  0  0  0  0  0  0  0  0
   10.3756  -16.0827   27.7227 C   0  0  2  0  0  0  0  0  0  0  0  0
    9.8544  -15.0972   26.8158 N   0  0  0  0  0  0  0  0  0  0  0  0
    9.7585  -15.8566   29.0537 C   0  0  0  0  0  0  0  0  0  0  0  0
    9.0973  -14.6769   29.3641 O   0  0  0  0  0  0  0  0  0  0  0  0
    9.8139  -16.7302   29.9506 O   0  0  0  0  0  0  0  0  0  0  0  0
  2  1  1  6
  3  2  1  0
  4  3  1  0
  4  8  1  0
  5  4  2  0
  6  2  1  0
  7  6  2  0
 10  9  1  1
 10 11  1  0
 12 13  1  6
 12 10  1  0
 13  6  1  0
 14 12  1  0
 15 14  2  0
 17 18  1  6
 17 19  1  0
 17 16  1  0
 19 20  1  6
 20 14  1  0
 21 22  1  0
 21 19  1  0
 23 21  2  0
M  END
$$$$
