DVV.pdb
     RDKit          3D

 23 22  0  0  1  0  0  0  0  0999 V2000
    8.4530  -14.9554   20.5682 N   0  0  0  0  0  0  0  0  0  0  0  0
    7.8349  -15.6072   21.7083 C   0  0  1  0  0  0  0  0  0  0  0  0
    8.1669  -17.0794   21.5978 C   0  0  0  0  0  0  0  0  0  0  0  0
    7.4671  -17.6421   20.4246 C   0  0  0  0  0  0  0  0  0  0  0  0
    8.0565  -17.9408   19.3721 O   0  0  0  0  0  0  0  0  0  0  0  0
    8.3679  -15.0133   22.9544 C   0  0  0  0  0  0  0  0  0  0  0  0
    9.6033  -14.8250   23.0973 O   0  0  0  0  0  0  0  0  0  0  0  0
    6.0991  -17.8437   20.5034 O   0  0  0  0  0  0  0  0  0  0  0  0
    7.4130  -12.8589   27.3230 C   0  0  0  0  0  0  0  0  0  0  0  0
    6.8817  -13.3728   25.9924 C   0  0  1  0  0  0  0  0  0  0  0  0
    6.3394  -12.2521   25.1633 C   0  0  0  0  0  0  0  0  0  0  0  0
    8.0341  -14.1035   25.2893 C   0  0  2  0  0  0  0  0  0  0  0  0
    7.5296  -14.6265   24.0460 N   0  0  0  0  0  0  0  0  0  0  0  0
    8.4646  -15.1742   26.2233 C   0  0  0  0  0  0  0  0  0  0  0  0
    7.6282  -16.0036   26.6673 O   0  0  0  0  0  0  0  0  0  0  0  0
   11.8312  -17.2951   25.6891 C   0  0  0  0  0  0  0  0  0  0  0  0
   11.7005  -16.8222   27.1252 C   0  0  1  0  0  0  0  0  0  0  0  0
   12.6961  -15.7284   27.4374 C   0  0  0  0  0  0  0  0  0  0  0  0
   10.2842  -16.4283   27.4487 C   0  0  2  0  0  0  0  0  0  0  0  0
    9.8058  -15.3256   26.6611 N   0  0  0  0  0  0  0  0  0  0  0  0
   10.2371  -16.0291   28.8776 C   0  0  0  0  0  0  0  0  0  0  0  0
   10.3068  -16.9623   29.9020 O   0  0  0  0  0  0  0  0  0  0  0  0
   10.1317  -14.8256   29.2112 O   0  0  0  0  0  0  0  0  0  0  0  0
  2  1  1  6
  3  2  1  0
  4  3  1  0
  4  8  1  0
  5  4  2  0
  6  2  1  0
  7  6  2  0
 10  9  1  1
 10 11  1  0
 12 13  1  6
 12 10  1  0
 13  6  1  0
 14 12  1  0
 15 14  2  0
 17 18  1  6
 17 19  1  0
 17 16  1  0
 19 20  1  6
 20 14  1  0
 21 22  1  0
 21 19  1  0
 23 21  2  0
M  END
$$$$
