DVV.pdb
     RDKit          3D

 23 22  0  0  1  0  0  0  0  0999 V2000
    9.7276  -17.3872   15.9997 N   0  0  0  0  0  0  0  0  0  0  0  0
    8.6597  -17.3083   16.9793 C   0  0  1  0  0  0  0  0  0  0  0  0
    8.3126  -18.7319   17.3571 C   0  0  0  0  0  0  0  0  0  0  0  0
    7.3120  -19.2512   16.4021 C   0  0  0  0  0  0  0  0  0  0  0  0
    6.7379  -20.3420   16.5596 O   0  0  0  0  0  0  0  0  0  0  0  0
    9.1277  -16.5265   18.1454 C   0  0  0  0  0  0  0  0  0  0  0  0
   10.3078  -16.6446   18.5643 O   0  0  0  0  0  0  0  0  0  0  0  0
    7.0035  -18.4898   15.2871 O   0  0  0  0  0  0  0  0  0  0  0  0
    8.0209  -13.1120   21.5935 C   0  0  0  0  0  0  0  0  0  0  0  0
    7.6523  -13.7838   20.2784 C   0  0  1  0  0  0  0  0  0  0  0  0
    7.5511  -12.7800   19.1740 C   0  0  0  0  0  0  0  0  0  0  0  0
    8.7199  -14.8489   19.9920 C   0  0  2  0  0  0  0  0  0  0  0  0
    8.2856  -15.6106   18.8497 N   0  0  0  0  0  0  0  0  0  0  0  0
    8.8104  -15.6731   21.2235 C   0  0  0  0  0  0  0  0  0  0  0  0
    7.8349  -16.3808   21.5870 O   0  0  0  0  0  0  0  0  0  0  0  0
   11.7057  -17.7840   24.7031 C   0  0  0  0  0  0  0  0  0  0  0  0
   11.5776  -16.8685   23.4995 C   0  0  1  0  0  0  0  0  0  0  0  0
   12.3547  -17.4014   22.3174 C   0  0  0  0  0  0  0  0  0  0  0  0
   10.1354  -16.5911   23.1695 C   0  0  2  0  0  0  0  0  0  0  0  0
    9.9675  -15.7138   22.0437 N   0  0  0  0  0  0  0  0  0  0  0  0
    9.5128  -15.9468   24.3530 C   0  0  0  0  0  0  0  0  0  0  0  0
    8.8928  -16.6874   25.3492 O   0  0  0  0  0  0  0  0  0  0  0  0
    9.5253  -14.7016   24.4947 O   0  0  0  0  0  0  0  0  0  0  0  0
  2  1  1  6
  3  2  1  0
  4  3  1  0
  4  8  1  0
  5  4  2  0
  6  2  1  0
  7  6  2  0
 10  9  1  1
 10 11  1  0
 12 13  1  6
 12 10  1  0
 13  6  1  0
 14 12  1  0
 15 14  2  0
 17 18  1  6
 17 19  1  0
 17 16  1  0
 19 20  1  6
 20 14  1  0
 21 22  1  0
 21 19  1  0
 23 21  2  0
M  END
$$$$
