DVV.pdb
     RDKit          3D

 23 22  0  0  1  0  0  0  0  0999 V2000
   12.2586  -16.6294   20.0960 N   0  0  0  0  0  0  0  0  0  0  0  0
   11.5308  -17.3977   21.0892 C   0  0  1  0  0  0  0  0  0  0  0  0
   12.4870  -18.4490   21.6093 C   0  0  0  0  0  0  0  0  0  0  0  0
   12.6655  -19.4887   20.5750 C   0  0  0  0  0  0  0  0  0  0  0  0
   11.7646  -20.2859   20.2633 O   0  0  0  0  0  0  0  0  0  0  0  0
   11.0713  -16.4898   22.1637 C   0  0  0  0  0  0  0  0  0  0  0  0
   11.8567  -15.6492   22.6721 O   0  0  0  0  0  0  0  0  0  0  0  0
   13.8871  -19.5766   19.9284 O   0  0  0  0  0  0  0  0  0  0  0  0
    7.2170  -14.6109   24.6492 C   0  0  0  0  0  0  0  0  0  0  0  0
    7.7359  -15.4685   23.5037 C   0  0  1  0  0  0  0  0  0  0  0  0
    7.3744  -14.8711   22.1809 C   0  0  0  0  0  0  0  0  0  0  0  0
    9.2550  -15.5997   23.6802 C   0  0  2  0  0  0  0  0  0  0  0  0
    9.7370  -16.5132   22.6766 N   0  0  0  0  0  0  0  0  0  0  0  0
    9.4601  -16.1106   25.0590 C   0  0  0  0  0  0  0  0  0  0  0  0
    9.3443  -17.3397   25.3045 O   0  0  0  0  0  0  0  0  0  0  0  0
   11.4501  -13.6561   28.0140 C   0  0  0  0  0  0  0  0  0  0  0  0
   10.3846  -14.6424   28.4555 C   0  0  1  0  0  0  0  0  0  0  0  0
    9.0895  -13.9394   28.7925 C   0  0  0  0  0  0  0  0  0  0  0  0
   10.2021  -15.7444   27.4466 C   0  0  2  0  0  0  0  0  0  0  0  0
    9.7897  -15.2706   26.1541 N   0  0  0  0  0  0  0  0  0  0  0  0
    9.1528  -16.6614   27.9580 C   0  0  0  0  0  0  0  0  0  0  0  0
    9.3986  -17.5519   28.9932 O   0  0  0  0  0  0  0  0  0  0  0  0
    7.9990  -16.6634   27.4684 O   0  0  0  0  0  0  0  0  0  0  0  0
  2  1  1  6
  3  2  1  0
  4  3  1  0
  4  8  1  0
  5  4  2  0
  6  2  1  0
  7  6  2  0
 10  9  1  1
 10 11  1  0
 12 13  1  6
 12 10  1  0
 13  6  1  0
 14 12  1  0
 15 14  2  0
 17 18  1  6
 17 19  1  0
 17 16  1  0
 19 20  1  6
 20 14  1  0
 21 22  1  0
 21 19  1  0
 23 21  2  0
M  END
$$$$
