DVV.pdb
     RDKit          3D

 23 22  0  0  1  0  0  0  0  0999 V2000
   12.3354  -16.7852   20.2016 N   0  0  0  0  0  0  0  0  0  0  0  0
   12.6894  -17.1989   21.5470 C   0  0  1  0  0  0  0  0  0  0  0  0
   14.0817  -16.6682   21.8110 C   0  0  0  0  0  0  0  0  0  0  0  0
   15.0368  -17.3659   20.9258 C   0  0  0  0  0  0  0  0  0  0  0  0
   14.9391  -18.5746   20.6542 O   0  0  0  0  0  0  0  0  0  0  0  0
   11.6995  -16.6494   22.4998 C   0  0  0  0  0  0  0  0  0  0  0  0
   11.7272  -15.4341   22.8232 O   0  0  0  0  0  0  0  0  0  0  0  0
   16.0826  -16.6416   20.3781 O   0  0  0  0  0  0  0  0  0  0  0  0
    7.5691  -17.4406   25.1478 C   0  0  0  0  0  0  0  0  0  0  0  0
    8.5243  -17.9171   24.0628 C   0  0  1  0  0  0  0  0  0  0  0  0
    7.8283  -18.0172   22.7426 C   0  0  0  0  0  0  0  0  0  0  0  0
    9.6997  -16.9308   24.0206 C   0  0  2  0  0  0  0  0  0  0  0  0
   10.6753  -17.4487   23.0965 N   0  0  0  0  0  0  0  0  0  0  0  0
   10.2166  -16.8567   25.4103 C   0  0  0  0  0  0  0  0  0  0  0  0
   10.9771  -17.7565   25.8537 O   0  0  0  0  0  0  0  0  0  0  0  0
   10.6688  -14.2476   29.6722 C   0  0  0  0  0  0  0  0  0  0  0  0
   10.0452  -14.3685   28.2939 C   0  0  1  0  0  0  0  0  0  0  0  0
   10.3516  -13.1573   27.4429 C   0  0  0  0  0  0  0  0  0  0  0  0
   10.4315  -15.6609   27.6259 C   0  0  2  0  0  0  0  0  0  0  0  0
    9.8955  -15.7988   26.2996 N   0  0  0  0  0  0  0  0  0  0  0  0
    9.9072  -16.7762   28.4534 C   0  0  0  0  0  0  0  0  0  0  0  0
   10.6847  -17.4020   29.4172 O   0  0  0  0  0  0  0  0  0  0  0  0
    8.7347  -17.1949   28.3089 O   0  0  0  0  0  0  0  0  0  0  0  0
  2  1  1  6
  3  2  1  0
  4  3  1  0
  4  8  1  0
  5  4  2  0
  6  2  1  0
  7  6  2  0
 10  9  1  1
 10 11  1  0
 12 13  1  6
 12 10  1  0
 13  6  1  0
 14 12  1  0
 15 14  2  0
 17 18  1  6
 17 19  1  0
 17 16  1  0
 19 20  1  6
 20 14  1  0
 21 22  1  0
 21 19  1  0
 23 21  2  0
M  END
$$$$
