DVV.pdb
     RDKit          3D

 23 22  0  0  1  0  0  0  0  0999 V2000
   12.0806  -16.0973   19.6164 N   0  0  0  0  0  0  0  0  0  0  0  0
   12.1054  -16.8257   20.8715 C   0  0  1  0  0  0  0  0  0  0  0  0
   13.5625  -17.0150   21.2336 C   0  0  0  0  0  0  0  0  0  0  0  0
   14.0280  -18.3071   20.6894 C   0  0  0  0  0  0  0  0  0  0  0  0
   13.2895  -19.0656   20.0386 O   0  0  0  0  0  0  0  0  0  0  0  0
   11.3781  -16.0474   21.8986 C   0  0  0  0  0  0  0  0  0  0  0  0
   11.7297  -14.8732   22.1812 O   0  0  0  0  0  0  0  0  0  0  0  0
   15.3408  -18.6863   20.9153 O   0  0  0  0  0  0  0  0  0  0  0  0
    7.2355  -15.5299   24.5176 C   0  0  0  0  0  0  0  0  0  0  0  0
    8.0128  -16.1833   23.3837 C   0  0  1  0  0  0  0  0  0  0  0  0
    7.4802  -15.7556   22.0530 C   0  0  0  0  0  0  0  0  0  0  0  0
    9.4896  -15.8042   23.5615 C   0  0  2  0  0  0  0  0  0  0  0  0
   10.2575  -16.5715   22.6152 N   0  0  0  0  0  0  0  0  0  0  0  0
    9.8265  -16.1361   24.9688 C   0  0  0  0  0  0  0  0  0  0  0  0
   10.2970  -17.2669   25.2592 O   0  0  0  0  0  0  0  0  0  0  0  0
   10.5126  -14.4895   29.6596 C   0  0  0  0  0  0  0  0  0  0  0  0
    9.9203  -14.2513   28.2828 C   0  0  1  0  0  0  0  0  0  0  0  0
   10.4092  -12.9491   27.6910 C   0  0  0  0  0  0  0  0  0  0  0  0
   10.1528  -15.4270   27.3721 C   0  0  2  0  0  0  0  0  0  0  0  0
    9.6448  -15.2268   26.0427 N   0  0  0  0  0  0  0  0  0  0  0  0
    9.4601  -16.6017   27.9583 C   0  0  0  0  0  0  0  0  0  0  0  0
   10.0906  -17.4518   28.8556 O   0  0  0  0  0  0  0  0  0  0  0  0
    8.2723  -16.8688   27.6608 O   0  0  0  0  0  0  0  0  0  0  0  0
  2  1  1  6
  3  2  1  0
  4  3  1  0
  4  8  1  0
  5  4  2  0
  6  2  1  0
  7  6  2  0
 10  9  1  1
 10 11  1  0
 12 13  1  6
 12 10  1  0
 13  6  1  0
 14 12  1  0
 15 14  2  0
 17 18  1  6
 17 19  1  0
 17 16  1  0
 19 20  1  6
 20 14  1  0
 21 22  1  0
 21 19  1  0
 23 21  2  0
M  END
$$$$
