DVV.pdb
     RDKit          3D

 23 22  0  0  1  0  0  0  0  0999 V2000
    8.3367  -14.8410   20.5302 N   0  0  0  0  0  0  0  0  0  0  0  0
    7.7908  -15.5020   21.7013 C   0  0  1  0  0  0  0  0  0  0  0  0
    8.1583  -16.9652   21.5833 C   0  0  0  0  0  0  0  0  0  0  0  0
    7.4928  -17.5324   20.3926 C   0  0  0  0  0  0  0  0  0  0  0  0
    8.0276  -18.3913   19.6710 O   0  0  0  0  0  0  0  0  0  0  0  0
    8.3644  -14.8853   22.9180 C   0  0  0  0  0  0  0  0  0  0  0  0
    9.6005  -14.6695   23.0054 O   0  0  0  0  0  0  0  0  0  0  0  0
    6.2218  -17.0871   20.0694 O   0  0  0  0  0  0  0  0  0  0  0  0
    7.6066  -12.7448   27.3234 C   0  0  0  0  0  0  0  0  0  0  0  0
    7.0392  -13.1890   25.9827 C   0  0  1  0  0  0  0  0  0  0  0  0
    6.6248  -12.0108   25.1595 C   0  0  0  0  0  0  0  0  0  0  0  0
    8.1172  -14.0290   25.2837 C   0  0  2  0  0  0  0  0  0  0  0  0
    7.5660  -14.5062   24.0417 N   0  0  0  0  0  0  0  0  0  0  0  0
    8.4428  -15.1324   26.2220 C   0  0  0  0  0  0  0  0  0  0  0  0
    7.5375  -15.9048   26.6325 O   0  0  0  0  0  0  0  0  0  0  0  0
   11.0665  -17.8278   25.5982 C   0  0  0  0  0  0  0  0  0  0  0  0
   11.3321  -17.2452   26.9742 C   0  0  1  0  0  0  0  0  0  0  0  0
   12.5832  -16.3969   26.9807 C   0  0  0  0  0  0  0  0  0  0  0  0
   10.1293  -16.5109   27.5030 C   0  0  2  0  0  0  0  0  0  0  0  0
    9.7555  -15.3784   26.7010 N   0  0  0  0  0  0  0  0  0  0  0  0
   10.4561  -16.0228   28.8662 C   0  0  0  0  0  0  0  0  0  0  0  0
   10.5475  -16.8836   29.9505 O   0  0  0  0  0  0  0  0  0  0  0  0
   10.6623  -14.8064   29.0870 O   0  0  0  0  0  0  0  0  0  0  0  0
  2  1  1  6
  3  2  1  0
  4  3  1  0
  4  8  1  0
  5  4  2  0
  6  2  1  0
  7  6  2  0
 10  9  1  1
 10 11  1  0
 12 13  1  6
 12 10  1  0
 13  6  1  0
 14 12  1  0
 15 14  2  0
 17 18  1  6
 17 19  1  0
 17 16  1  0
 19 20  1  6
 20 14  1  0
 21 22  1  0
 21 19  1  0
 23 21  2  0
M  END
$$$$
