MEW.pdb
     RDKit          3D

 32 33  0  0  1  0  0  0  0  0999 V2000
   25.8435  -16.5990  -19.4173 C   0  0  0  0  0  0  0  0  0  0  0  0
   27.6273  -16.3366  -19.2299 S   0  0  0  0  0  0  0  0  0  0  0  0
   28.2205  -17.1481  -17.7333 C   0  0  0  0  0  0  0  0  0  0  0  0
   27.0850  -17.2687  -16.7266 C   0  0  0  0  0  0  0  0  0  0  0  0
   27.6548  -17.8746  -15.4618 C   0  0  2  0  0  0  0  0  0  0  0  0
   28.3365  -19.1028  -15.7438 N   0  0  0  0  0  0  0  0  0  0  0  0
   26.5708  -18.0651  -14.4380 C   0  0  0  0  0  0  0  0  0  0  0  0
   25.4893  -17.4415  -14.5587 O   0  0  0  0  0  0  0  0  0  0  0  0
   26.7160  -18.9205  -13.3396 N   0  0  0  0  0  0  0  0  0  0  0  0
   25.8898  -20.0090  -13.0062 C   0  0  1  0  0  0  0  0  0  0  0  0
   25.5349  -20.9745  -14.0943 C   0  0  0  0  0  0  0  0  0  0  0  0
   24.6127  -22.0402  -13.4993 C   0  0  0  0  0  0  0  0  0  0  0  0
   24.6786  -23.2716  -14.3166 C   0  0  0  0  0  0  0  0  0  0  0  0
   24.8597  -24.3795  -13.7436 O   0  0  0  0  0  0  0  0  0  0  0  0
   26.3035  -20.7213  -11.7977 C   0  0  0  0  0  0  0  0  0  0  0  0
   26.8850  -21.8538  -11.8377 O   0  0  0  0  0  0  0  0  0  0  0  0
   24.5409  -23.1892  -15.6891 O   0  0  0  0  0  0  0  0  0  0  0  0
   26.0555  -20.1408  -10.5190 N   0  0  0  0  0  0  0  0  0  0  0  0
   26.5869  -20.7697   -9.3006 C   0  0  1  0  0  0  0  0  0  0  0  0
   27.6312  -19.8399   -8.7272 C   0  0  0  0  0  0  0  0  0  0  0  0
   28.2611  -20.3622   -7.5149 C   0  0  0  0  0  0  0  0  0  0  0  0
   28.9055  -21.5729   -7.4172 C   0  0  0  0  0  0  0  0  0  0  0  0
   29.3506  -21.7114   -6.1703 N   0  0  0  0  0  0  0  0  0  0  0  0
   29.0134  -20.6189   -5.4457 C   0  0  0  0  0  0  0  0  0  0  0  0
   29.2322  -20.2653   -4.1254 C   0  0  0  0  0  0  0  0  0  0  0  0
   28.7706  -19.0645   -3.6370 C   0  0  0  0  0  0  0  0  0  0  0  0
   28.0884  -18.2172   -4.4745 C   0  0  0  0  0  0  0  0  0  0  0  0
   27.8659  -18.5498   -5.7719 C   0  0  0  0  0  0  0  0  0  0  0  0
   28.3265  -19.7531   -6.2684 C   0  0  0  0  0  0  0  0  0  0  0  0
   25.4776  -21.0434   -8.4035 C   0  0  0  0  0  0  0  0  0  0  0  0
   25.5828  -21.9912   -7.4065 O   0  0  0  0  0  0  0  0  0  0  0  0
   24.3965  -20.4197   -8.5187 O   0  0  0  0  0  0  0  0  0  0  0  0
  2  1  1  0
  3  2  1  0
  4  3  1  0
  5  4  1  0
  5  6  1  6
  7  9  1  0
  7  5  1  0
  8  7  2  0
 10  9  1  0
 10 11  1  6
 11 12  1  0
 12 13  1  0
 13 14  2  0
 13 17  1  0
 15 10  1  0
 16 15  2  0
 18 15  1  0
 19 30  1  0
 19 18  1  0
 19 20  1  1
 21 20  1  0
 21 29  1  0
 22 23  1  0
 22 21  2  0
 23 24  1  0
 24 29  2  0
 24 25  1  0
 25 26  2  0
 26 27  1  0
 28 27  2  0
 29 28  1  0
 30 31  1  0
 32 30  2  0
M  END
$$$$
