MEW.pdb
     RDKit          3D

 32 33  0  0  1  0  0  0  0  0999 V2000
   13.8896  -15.1019  -17.1856 C   0  0  0  0  0  0  0  0  0  0  0  0
   15.2556  -13.9962  -16.7411 S   0  0  0  0  0  0  0  0  0  0  0  0
   15.3690  -12.6420  -17.9257 C   0  0  0  0  0  0  0  0  0  0  0  0
   16.4574  -11.6688  -17.4949 C   0  0  0  0  0  0  0  0  0  0  0  0
   16.5884  -10.6178  -18.5765 C   0  0  2  0  0  0  0  0  0  0  0  0
   16.9304  -11.2153  -19.8330 N   0  0  0  0  0  0  0  0  0  0  0  0
   17.5876   -9.5707  -18.1708 C   0  0  0  0  0  0  0  0  0  0  0  0
   18.7193   -9.5533  -18.7109 O   0  0  0  0  0  0  0  0  0  0  0  0
   17.3073   -8.5991  -17.2029 N   0  0  0  0  0  0  0  0  0  0  0  0
   18.1756   -7.5905  -16.7474 C   0  0  1  0  0  0  0  0  0  0  0  0
   17.5642   -6.3553  -16.1622 C   0  0  0  0  0  0  0  0  0  0  0  0
   18.6912   -5.3643  -15.8655 C   0  0  0  0  0  0  0  0  0  0  0  0
   18.1198   -4.0830  -15.3959 C   0  0  0  0  0  0  0  0  0  0  0  0
   17.4932   -4.0546  -14.3026 O   0  0  0  0  0  0  0  0  0  0  0  0
   19.2632   -8.0799  -15.9010 C   0  0  0  0  0  0  0  0  0  0  0  0
   19.0524   -8.7165  -14.8181 O   0  0  0  0  0  0  0  0  0  0  0  0
   18.2809   -2.9422  -16.1588 O   0  0  0  0  0  0  0  0  0  0  0  0
   20.6158   -7.8454  -16.2873 N   0  0  0  0  0  0  0  0  0  0  0  0
   21.7227   -8.4113  -15.5019 C   0  0  1  0  0  0  0  0  0  0  0  0
   22.5015   -9.3329  -16.4119 C   0  0  0  0  0  0  0  0  0  0  0  0
   23.6731   -9.9228  -15.7650 C   0  0  0  0  0  0  0  0  0  0  0  0
   23.6472  -10.6687  -14.6104 C   0  0  0  0  0  0  0  0  0  0  0  0
   24.8933  -11.0369  -14.3211 N   0  0  0  0  0  0  0  0  0  0  0  0
   25.7383  -10.5499  -15.2598 C   0  0  0  0  0  0  0  0  0  0  0  0
   27.1094  -10.6423  -15.4256 C   0  0  0  0  0  0  0  0  0  0  0  0
   27.7268  -10.0380  -16.4967 C   0  0  0  0  0  0  0  0  0  0  0  0
   26.9675   -9.3398  -17.4027 C   0  0  0  0  0  0  0  0  0  0  0  0
   25.6218   -9.2402  -17.2536 C   0  0  0  0  0  0  0  0  0  0  0  0
   24.9958   -9.8442  -16.1813 C   0  0  0  0  0  0  0  0  0  0  0  0
   22.5045   -7.3162  -14.9544 C   0  0  0  0  0  0  0  0  0  0  0  0
   23.1022   -7.4155  -13.7149 O   0  0  0  0  0  0  0  0  0  0  0  0
   22.6521   -6.2531  -15.6017 O   0  0  0  0  0  0  0  0  0  0  0  0
  2  1  1  0
  3  2  1  0
  4  3  1  0
  5  4  1  0
  5  6  1  6
  7  9  1  0
  7  5  1  0
  8  7  2  0
 10  9  1  0
 10 11  1  1
 11 12  1  0
 12 13  1  0
 13 14  2  0
 13 17  1  0
 15 10  1  0
 16 15  2  0
 18 15  1  0
 19 30  1  0
 19 18  1  0
 19 20  1  6
 21 20  1  0
 21 29  1  0
 22 23  1  0
 22 21  2  0
 23 24  1  0
 24 29  2  0
 24 25  1  0
 25 26  2  0
 26 27  1  0
 28 27  2  0
 29 28  1  0
 30 31  1  0
 32 30  2  0
M  END
$$$$
