MEW.pdb
     RDKit          3D

 32 33  0  0  1  0  0  0  0  0999 V2000
   31.9421  -27.0193  -25.9792 C   0  0  0  0  0  0  0  0  0  0  0  0
   31.0251  -27.7221  -24.5823 S   0  0  0  0  0  0  0  0  0  0  0  0
   29.9363  -29.0403  -25.1543 C   0  0  0  0  0  0  0  0  0  0  0  0
   29.2590  -29.7039  -23.9635 C   0  0  0  0  0  0  0  0  0  0  0  0
   30.1569  -30.8276  -23.4917 C   0  0  2  0  0  0  0  0  0  0  0  0
   30.0572  -31.9625  -24.3605 N   0  0  0  0  0  0  0  0  0  0  0  0
   29.8382  -31.1900  -22.0681 C   0  0  0  0  0  0  0  0  0  0  0  0
   28.8251  -31.8860  -21.8189 O   0  0  0  0  0  0  0  0  0  0  0  0
   30.6336  -30.7797  -20.9918 N   0  0  0  0  0  0  0  0  0  0  0  0
   30.3928  -31.0226  -19.6273 C   0  0  1  0  0  0  0  0  0  0  0  0
   31.5513  -30.9164  -18.6847 C   0  0  0  0  0  0  0  0  0  0  0  0
   32.5418  -32.0317  -19.0244 C   0  0  0  0  0  0  0  0  0  0  0  0
   33.7601  -31.8876  -18.1976 C   0  0  0  0  0  0  0  0  0  0  0  0
   33.7771  -32.3822  -17.0384 O   0  0  0  0  0  0  0  0  0  0  0  0
   29.2268  -30.3186  -19.0948 C   0  0  0  0  0  0  0  0  0  0  0  0
   29.1041  -29.0526  -19.1614 O   0  0  0  0  0  0  0  0  0  0  0  0
   34.8559  -31.2167  -18.7062 O   0  0  0  0  0  0  0  0  0  0  0  0
   28.1785  -31.0611  -18.4756 N   0  0  0  0  0  0  0  0  0  0  0  0
   27.0117  -30.3695  -17.9077 C   0  0  1  0  0  0  0  0  0  0  0  0
   26.0105  -31.4257  -17.5005 C   0  0  0  0  0  0  0  0  0  0  0  0
   24.7545  -30.8647  -17.0037 C   0  0  0  0  0  0  0  0  0  0  0  0
   24.2061  -29.6711  -17.4097 C   0  0  0  0  0  0  0  0  0  0  0  0
   23.0670  -29.4859  -16.7463 N   0  0  0  0  0  0  0  0  0  0  0  0
   22.8538  -30.5311  -15.9130 C   0  0  0  0  0  0  0  0  0  0  0  0
   21.8378  -30.8267  -15.0205 C   0  0  0  0  0  0  0  0  0  0  0  0
   21.8707  -31.9877  -14.2826 C   0  0  0  0  0  0  0  0  0  0  0  0
   22.9245  -32.8534  -14.4402 C   0  0  0  0  0  0  0  0  0  0  0  0
   23.9284  -32.5775  -15.3115 C   0  0  0  0  0  0  0  0  0  0  0  0
   23.9017  -31.4143  -16.0552 C   0  0  0  0  0  0  0  0  0  0  0  0
   27.4644  -29.5265  -16.8147 C   0  0  0  0  0  0  0  0  0  0  0  0
   28.2422  -30.0355  -15.7953 O   0  0  0  0  0  0  0  0  0  0  0  0
   27.1550  -28.3124  -16.7765 O   0  0  0  0  0  0  0  0  0  0  0  0
  2  1  1  0
  3  2  1  0
  4  3  1  0
  5  4  1  0
  5  6  1  6
  7  9  1  0
  7  5  1  0
  8  7  2  0
 10  9  1  0
 10 11  1  1
 11 12  1  0
 12 13  1  0
 13 14  2  0
 13 17  1  0
 15 10  1  0
 16 15  2  0
 18 15  1  0
 19 30  1  0
 19 18  1  0
 19 20  1  1
 21 20  1  0
 21 29  1  0
 22 23  1  0
 22 21  2  0
 23 24  1  0
 24 29  2  0
 24 25  1  0
 25 26  2  0
 26 27  1  0
 28 27  2  0
 29 28  1  0
 30 31  1  0
 32 30  2  0
M  END
$$$$
