MEW.pdb
     RDKit          3D

 32 33  0  0  1  0  0  0  0  0999 V2000
   23.9019  -15.4703  -17.8872 C   0  0  0  0  0  0  0  0  0  0  0  0
   25.2712  -14.4722  -17.2429 S   0  0  0  0  0  0  0  0  0  0  0  0
   26.4270  -15.5162  -16.3350 C   0  0  0  0  0  0  0  0  0  0  0  0
   25.6838  -16.2947  -15.2585 C   0  0  0  0  0  0  0  0  0  0  0  0
   26.7101  -17.0720  -14.4623 C   0  0  2  0  0  0  0  0  0  0  0  0
   27.8252  -17.4392  -15.2836 N   0  0  0  0  0  0  0  0  0  0  0  0
   26.0748  -18.2739  -13.8210 C   0  0  0  0  0  0  0  0  0  0  0  0
   24.9720  -18.1526  -13.2362 O   0  0  0  0  0  0  0  0  0  0  0  0
   26.6673  -19.5418  -13.8482 N   0  0  0  0  0  0  0  0  0  0  0  0
   26.1993  -20.7029  -13.2067 C   0  0  1  0  0  0  0  0  0  0  0  0
   26.4543  -22.0192  -13.8733 C   0  0  0  0  0  0  0  0  0  0  0  0
   25.6932  -23.0971  -13.0993 C   0  0  0  0  0  0  0  0  0  0  0  0
   24.5819  -23.6162  -13.9264 C   0  0  0  0  0  0  0  0  0  0  0  0
   23.8057  -24.4810  -13.4382 O   0  0  0  0  0  0  0  0  0  0  0  0
   26.5310  -20.7710  -11.7840 C   0  0  0  0  0  0  0  0  0  0  0  0
   27.7307  -20.8627  -11.3661 O   0  0  0  0  0  0  0  0  0  0  0  0
   24.4122  -23.1475  -15.2152 O   0  0  0  0  0  0  0  0  0  0  0  0
   25.4854  -20.7337  -10.8150 N   0  0  0  0  0  0  0  0  0  0  0  0
   25.7856  -20.9280   -9.3887 C   0  0  1  0  0  0  0  0  0  0  0  0
   26.7519  -19.8421   -8.9750 C   0  0  0  0  0  0  0  0  0  0  0  0
   27.8124  -20.3239   -8.0905 C   0  0  0  0  0  0  0  0  0  0  0  0
   28.7677  -21.2513   -8.4334 C   0  0  0  0  0  0  0  0  0  0  0  0
   29.5614  -21.4437   -7.3822 N   0  0  0  0  0  0  0  0  0  0  0  0
   29.1495  -20.6636   -6.3555 C   0  0  0  0  0  0  0  0  0  0  0  0
   29.6190  -20.4865   -5.0655 C   0  0  0  0  0  0  0  0  0  0  0  0
   28.9970  -19.6070   -4.2092 C   0  0  0  0  0  0  0  0  0  0  0  0
   27.9023  -18.9042   -4.6479 C   0  0  0  0  0  0  0  0  0  0  0  0
   27.4300  -19.0670   -5.9103 C   0  0  0  0  0  0  0  0  0  0  0  0
   28.0494  -19.9478   -6.7747 C   0  0  0  0  0  0  0  0  0  0  0  0
   24.5343  -20.9230   -8.6509 C   0  0  0  0  0  0  0  0  0  0  0  0
   24.4665  -21.3957   -7.3565 O   0  0  0  0  0  0  0  0  0  0  0  0
   23.4850  -20.4861   -9.1795 O   0  0  0  0  0  0  0  0  0  0  0  0
  2  1  1  0
  3  2  1  0
  4  3  1  0
  5  4  1  0
  5  6  1  6
  7  9  1  0
  7  5  1  0
  8  7  2  0
 10  9  1  0
 10 11  1  6
 11 12  1  0
 12 13  1  0
 13 14  2  0
 13 17  1  0
 15 10  1  0
 16 15  2  0
 18 15  1  0
 19 30  1  0
 19 18  1  0
 19 20  1  1
 21 20  1  0
 21 29  1  0
 22 23  1  0
 22 21  2  0
 23 24  1  0
 24 29  2  0
 24 25  1  0
 25 26  2  0
 26 27  1  0
 28 27  2  0
 29 28  1  0
 30 31  1  0
 32 30  2  0
M  END
$$$$
