MEW.pdb
     RDKit          3D

 32 33  0  0  1  0  0  0  0  0999 V2000
   27.4146  -15.6595  -18.5695 C   0  0  0  0  0  0  0  0  0  0  0  0
   26.2683  -14.2618  -18.4328 S   0  0  0  0  0  0  0  0  0  0  0  0
   24.8507  -14.7184  -17.4169 C   0  0  0  0  0  0  0  0  0  0  0  0
   23.8158  -13.6024  -17.4431 C   0  0  0  0  0  0  0  0  0  0  0  0
   24.5299  -12.3060  -17.1254 C   0  0  2  0  0  0  0  0  0  0  0  0
   25.0922  -12.3402  -15.8080 N   0  0  0  0  0  0  0  0  0  0  0  0
   23.5989  -11.1389  -17.3003 C   0  0  0  0  0  0  0  0  0  0  0  0
   23.0443  -10.9508  -18.4093 O   0  0  0  0  0  0  0  0  0  0  0  0
   23.3186  -10.2392  -16.2652 N   0  0  0  0  0  0  0  0  0  0  0  0
   22.4646   -9.1233  -16.3290 C   0  0  1  0  0  0  0  0  0  0  0  0
   21.9051   -8.5985  -15.0430 C   0  0  0  0  0  0  0  0  0  0  0  0
   20.8193   -7.5755  -15.3818 C   0  0  0  0  0  0  0  0  0  0  0  0
   20.2697   -6.9981  -14.1356 C   0  0  0  0  0  0  0  0  0  0  0  0
   20.2993   -5.7485  -13.9730 O   0  0  0  0  0  0  0  0  0  0  0  0
   22.9758   -8.0298  -17.1547 C   0  0  0  0  0  0  0  0  0  0  0  0
   24.1325   -7.5257  -16.9808 O   0  0  0  0  0  0  0  0  0  0  0  0
   19.7346   -7.8330  -13.1733 O   0  0  0  0  0  0  0  0  0  0  0  0
   22.1632   -7.4967  -18.1983 N   0  0  0  0  0  0  0  0  0  0  0  0
   22.7033   -6.4854  -19.1190 C   0  0  1  0  0  0  0  0  0  0  0  0
   22.1941   -6.8127  -20.5038 C   0  0  0  0  0  0  0  0  0  0  0  0
   22.6841   -5.8911  -21.5283 C   0  0  0  0  0  0  0  0  0  0  0  0
   23.7542   -5.0406  -21.3803 C   0  0  0  0  0  0  0  0  0  0  0  0
   23.9063   -4.3574  -22.5126 N   0  0  0  0  0  0  0  0  0  0  0  0
   22.9601   -4.7394  -23.4020 C   0  0  0  0  0  0  0  0  0  0  0  0
   22.6812   -4.3485  -24.7003 C   0  0  0  0  0  0  0  0  0  0  0  0
   21.6352   -4.9149  -25.3920 C   0  0  0  0  0  0  0  0  0  0  0  0
   20.8677   -5.8749  -24.7803 C   0  0  0  0  0  0  0  0  0  0  0  0
   21.1287   -6.2688  -23.5075 C   0  0  0  0  0  0  0  0  0  0  0  0
   22.1768   -5.7046  -22.8077 C   0  0  0  0  0  0  0  0  0  0  0  0
   22.3140   -5.1712  -18.6378 C   0  0  0  0  0  0  0  0  0  0  0  0
   23.1311   -4.0741  -18.8174 O   0  0  0  0  0  0  0  0  0  0  0  0
   21.2212   -5.0075  -18.0462 O   0  0  0  0  0  0  0  0  0  0  0  0
  2  1  1  0
  3  2  1  0
  4  3  1  0
  5  4  1  0
  5  6  1  1
  7  9  1  0
  7  5  1  0
  8  7  2  0
 10  9  1  0
 10 11  1  1
 11 12  1  0
 12 13  1  0
 13 14  2  0
 13 17  1  0
 15 10  1  0
 16 15  2  0
 18 15  1  0
 19 30  1  0
 19 18  1  0
 19 20  1  6
 21 20  1  0
 21 29  1  0
 22 23  1  0
 22 21  2  0
 23 24  1  0
 24 29  2  0
 24 25  1  0
 25 26  2  0
 26 27  1  0
 28 27  2  0
 29 28  1  0
 30 31  1  0
 32 30  2  0
M  END
$$$$
