MEW.pdb
     RDKit          3D

 32 33  0  0  1  0  0  0  0  0999 V2000
   30.9191  -25.2850  -15.7881 C   0  0  0  0  0  0  0  0  0  0  0  0
   30.8068  -25.3814  -17.5948 S   0  0  0  0  0  0  0  0  0  0  0  0
   30.1418  -23.8428  -18.2586 C   0  0  0  0  0  0  0  0  0  0  0  0
   29.5788  -22.9932  -17.1279 C   0  0  0  0  0  0  0  0  0  0  0  0
   28.9186  -21.7809  -17.7490 C   0  0  2  0  0  0  0  0  0  0  0  0
   29.8945  -20.9058  -18.3274 N   0  0  0  0  0  0  0  0  0  0  0  0
   28.0691  -21.0693  -16.7333 C   0  0  0  0  0  0  0  0  0  0  0  0
   28.6194  -20.4402  -15.7983 O   0  0  0  0  0  0  0  0  0  0  0  0
   26.6703  -21.0769  -16.7853 N   0  0  0  0  0  0  0  0  0  0  0  0
   25.7902  -20.5380  -15.8295 C   0  0  1  0  0  0  0  0  0  0  0  0
   24.5141  -19.9284  -16.3215 C   0  0  0  0  0  0  0  0  0  0  0  0
   23.8323  -19.2382  -15.1387 C   0  0  0  0  0  0  0  0  0  0  0  0
   23.7867  -17.7778  -15.3702 C   0  0  0  0  0  0  0  0  0  0  0  0
   24.1246  -16.9981  -14.4393 O   0  0  0  0  0  0  0  0  0  0  0  0
   25.5365  -21.4199  -14.6908 C   0  0  0  0  0  0  0  0  0  0  0  0
   25.1325  -22.6194  -14.8326 O   0  0  0  0  0  0  0  0  0  0  0  0
   23.3768  -17.2927  -16.5974 O   0  0  0  0  0  0  0  0  0  0  0  0
   25.7446  -20.9358  -13.3656 N   0  0  0  0  0  0  0  0  0  0  0  0
   25.4476  -21.7900  -12.2062 C   0  0  1  0  0  0  0  0  0  0  0  0
   26.6405  -21.7311  -11.2803 C   0  0  0  0  0  0  0  0  0  0  0  0
   26.4069  -20.9069  -10.0949 C   0  0  0  0  0  0  0  0  0  0  0  0
   25.2119  -20.3096   -9.7699 C   0  0  0  0  0  0  0  0  0  0  0  0
   25.3731  -19.6428   -8.6292 N   0  0  0  0  0  0  0  0  0  0  0  0
   26.6474  -19.7882   -8.1964 C   0  0  0  0  0  0  0  0  0  0  0  0
   27.3208  -19.3099   -7.0855 C   0  0  0  0  0  0  0  0  0  0  0  0
   28.6463  -19.6196   -6.8840 C   0  0  0  0  0  0  0  0  0  0  0  0
   29.2973  -20.4101   -7.7983 C   0  0  0  0  0  0  0  0  0  0  0  0
   28.6506  -20.8867   -8.8928 C   0  0  0  0  0  0  0  0  0  0  0  0
   27.3205  -20.5799   -9.1011 C   0  0  0  0  0  0  0  0  0  0  0  0
   24.2059  -21.3343  -11.6057 C   0  0  0  0  0  0  0  0  0  0  0  0
   23.4435  -22.1725  -10.8186 O   0  0  0  0  0  0  0  0  0  0  0  0
   23.8005  -20.1630  -11.7923 O   0  0  0  0  0  0  0  0  0  0  0  0
  2  1  1  0
  3  2  1  0
  4  3  1  0
  5  4  1  0
  5  6  1  1
  7  9  1  0
  7  5  1  0
  8  7  2  0
 10  9  1  0
 10 11  1  6
 11 12  1  0
 12 13  1  0
 13 14  2  0
 13 17  1  0
 15 10  1  0
 16 15  2  0
 18 15  1  0
 19 30  1  0
 19 18  1  0
 19 20  1  1
 21 20  1  0
 21 29  1  0
 22 23  1  0
 22 21  2  0
 23 24  1  0
 24 29  2  0
 24 25  1  0
 25 26  2  0
 26 27  1  0
 28 27  2  0
 29 28  1  0
 30 31  1  0
 32 30  2  0
M  END
$$$$
