MEK.pdb
     RDKit          3D

 27 26  0  0  1  0  0  0  0  0999 V2000
   28.7115  -16.2619  -19.3674 C   0  0  0  0  0  0  0  0  0  0  0  0
   28.3357  -14.7541  -20.3317 S   0  0  0  0  0  0  0  0  0  0  0  0
   27.2869  -13.7194  -19.2557 C   0  0  0  0  0  0  0  0  0  0  0  0
   26.8247  -12.4994  -19.9975 C   0  0  0  0  0  0  0  0  0  0  0  0
   25.9100  -11.6880  -19.1008 C   0  0  2  0  0  0  0  0  0  0  0  0
   25.5809  -12.5295  -17.9326 N   0  0  0  0  0  0  0  0  0  0  0  0
   24.6205  -11.3276  -19.7655 C   0  0  0  0  0  0  0  0  0  0  0  0
   24.6544  -10.6394  -20.8407 O   0  0  0  0  0  0  0  0  0  0  0  0
   23.3612  -11.7086  -19.2694 N   0  0  0  0  0  0  0  0  0  0  0  0
   22.0689  -11.3412  -19.8511 C   0  0  1  0  0  0  0  0  0  0  0  0
   21.1371  -12.5199  -19.7372 C   0  0  0  0  0  0  0  0  0  0  0  0
   20.9010  -13.0253  -18.3601 C   0  0  0  0  0  0  0  0  0  0  0  0
   19.9585  -14.1876  -18.4888 C   0  0  0  0  0  0  0  0  0  0  0  0
   19.6703  -14.6898  -19.5866 O   0  0  0  0  0  0  0  0  0  0  0  0
   21.5710  -10.1422  -19.1491 C   0  0  0  0  0  0  0  0  0  0  0  0
   22.2643   -9.5844  -18.2238 O   0  0  0  0  0  0  0  0  0  0  0  0
   19.4067  -14.6949  -17.3200 O   0  0  0  0  0  0  0  0  0  0  0  0
   20.3388   -9.4861  -19.3930 N   0  0  0  0  0  0  0  0  0  0  0  0
   20.0301   -8.1799  -18.8430 C   0  0  1  0  0  0  0  0  0  0  0  0
   21.1345   -7.1851  -19.1133 C   0  0  0  0  0  0  0  0  0  0  0  0
   20.8721   -5.8055  -18.6041 C   0  0  0  0  0  0  0  0  0  0  0  0
   22.1399   -4.9927  -18.8757 C   0  0  0  0  0  0  0  0  0  0  0  0
   21.9980   -3.6054  -18.2486 C   0  0  0  0  0  0  0  0  0  0  0  0
   23.1783   -2.8524  -18.6238 N   0  0  0  0  0  0  0  0  0  0  0  0
   18.7216   -7.7303  -19.3471 C   0  0  0  0  0  0  0  0  0  0  0  0
   17.9601   -6.7234  -18.7760 O   0  0  0  0  0  0  0  0  0  0  0  0
   18.2313   -8.2783  -20.3671 O   0  0  0  0  0  0  0  0  0  0  0  0
  2  1  1  0
  3  2  1  0
  4  3  1  0
  5  4  1  0
  5  6  1  1
  7  8  2  0
  7  5  1  0
  9  7  1  0
 10  9  1  0
 11 12  1  0
 10 11  1  1
 13 14  2  0
 13 12  1  0
 15 10  1  0
 15 16  2  0
 17 13  1  0
 18 15  1  0
 19 20  1  6
 19 18  1  0
 21 20  1  0
 22 21  1  0
 23 22  1  0
 23 24  1  0
 25 19  1  0
 26 25  1  0
 27 25  2  0
M  END
$$$$
