MEK.pdb
     RDKit          3D

 27 26  0  0  1  0  0  0  0  0999 V2000
   35.8165  -33.8843  -13.0003 C   0  0  0  0  0  0  0  0  0  0  0  0
   36.4583  -33.3909  -14.6402 S   0  0  0  0  0  0  0  0  0  0  0  0
   35.0937  -33.6725  -15.8179 C   0  0  0  0  0  0  0  0  0  0  0  0
   33.9231  -32.7977  -15.4764 C   0  0  0  0  0  0  0  0  0  0  0  0
   32.7865  -33.0893  -16.4367 C   0  0  2  0  0  0  0  0  0  0  0  0
   33.3641  -33.1524  -17.7945 N   0  0  0  0  0  0  0  0  0  0  0  0
   31.7477  -32.0144  -16.4458 C   0  0  0  0  0  0  0  0  0  0  0  0
   31.1259  -31.7512  -15.3620 O   0  0  0  0  0  0  0  0  0  0  0  0
   31.4152  -31.2692  -17.5910 N   0  0  0  0  0  0  0  0  0  0  0  0
   30.5647  -30.0778  -17.6157 C   0  0  1  0  0  0  0  0  0  0  0  0
   31.2252  -29.0325  -18.4769 C   0  0  0  0  0  0  0  0  0  0  0  0
   30.4483  -27.7832  -18.6855 C   0  0  0  0  0  0  0  0  0  0  0  0
   31.2953  -26.8946  -19.5508 C   0  0  0  0  0  0  0  0  0  0  0  0
   32.5357  -26.9296  -19.5243 O   0  0  0  0  0  0  0  0  0  0  0  0
   29.2310  -30.4733  -18.1089 C   0  0  0  0  0  0  0  0  0  0  0  0
   29.1048  -31.1889  -19.1672 O   0  0  0  0  0  0  0  0  0  0  0  0
   30.6375  -26.0138  -20.3988 O   0  0  0  0  0  0  0  0  0  0  0  0
   27.9898  -30.1390  -17.5122 N   0  0  0  0  0  0  0  0  0  0  0  0
   26.7238  -30.6310  -18.0212 C   0  0  1  0  0  0  0  0  0  0  0  0
   25.6755  -30.7023  -16.9358 C   0  0  0  0  0  0  0  0  0  0  0  0
   25.3830  -32.0801  -16.4381 C   0  0  0  0  0  0  0  0  0  0  0  0
   25.9063  -32.1442  -15.0014 C   0  0  0  0  0  0  0  0  0  0  0  0
   25.7099  -33.5575  -14.4520 C   0  0  0  0  0  0  0  0  0  0  0  0
   26.3683  -33.6013  -13.1614 N   0  0  0  0  0  0  0  0  0  0  0  0
   26.3019  -29.8097  -19.1684 C   0  0  0  0  0  0  0  0  0  0  0  0
   26.9345  -28.6483  -19.5818 O   0  0  0  0  0  0  0  0  0  0  0  0
   25.2996  -30.1590  -19.8426 O   0  0  0  0  0  0  0  0  0  0  0  0
  2  1  1  0
  3  2  1  0
  4  3  1  0
  5  4  1  0
  5  6  1  6
  7  8  2  0
  7  5  1  0
  9  7  1  0
 10  9  1  0
 11 12  1  0
 10 11  1  6
 13 14  2  0
 13 12  1  0
 15 10  1  0
 15 16  2  0
 17 13  1  0
 18 15  1  0
 19 20  1  1
 19 18  1  0
 21 20  1  0
 22 21  1  0
 23 22  1  0
 23 24  1  0
 25 19  1  0
 26 25  1  0
 27 25  2  0
M  END
$$$$
