MEK.pdb
     RDKit          3D

 27 26  0  0  1  0  0  0  0  0999 V2000
   29.2319  -20.0648   -9.5887 C   0  0  0  0  0  0  0  0  0  0  0  0
   29.3449  -20.8746  -11.2245 S   0  0  0  0  0  0  0  0  0  0  0  0
   28.2444  -22.3273  -11.1418 C   0  0  0  0  0  0  0  0  0  0  0  0
   27.1466  -22.2067  -12.1580 C   0  0  0  0  0  0  0  0  0  0  0  0
   26.2309  -21.0627  -11.7685 C   0  0  2  0  0  0  0  0  0  0  0  0
   25.6190  -21.4123  -10.4706 N   0  0  0  0  0  0  0  0  0  0  0  0
   25.1165  -20.8571  -12.7435 C   0  0  0  0  0  0  0  0  0  0  0  0
   25.4042  -20.5924  -13.9591 O   0  0  0  0  0  0  0  0  0  0  0  0
   23.7571  -20.9413  -12.3939 N   0  0  0  0  0  0  0  0  0  0  0  0
   22.6354  -20.9736  -13.3343 C   0  0  1  0  0  0  0  0  0  0  0  0
   21.4163  -21.4863  -12.6121 C   0  0  0  0  0  0  0  0  0  0  0  0
   20.1744  -21.5729  -13.4232 C   0  0  0  0  0  0  0  0  0  0  0  0
   19.1042  -22.0963  -12.5088 C   0  0  0  0  0  0  0  0  0  0  0  0
   18.9464  -23.3092  -12.2978 O   0  0  0  0  0  0  0  0  0  0  0  0
   22.4530  -19.6151  -13.8816 C   0  0  0  0  0  0  0  0  0  0  0  0
   22.8531  -18.5830  -13.2316 O   0  0  0  0  0  0  0  0  0  0  0  0
   18.2784  -21.1651  -11.8933 O   0  0  0  0  0  0  0  0  0  0  0  0
   21.8527  -19.2916  -15.1240 N   0  0  0  0  0  0  0  0  0  0  0  0
   21.8677  -17.9477  -15.6694 C   0  0  1  0  0  0  0  0  0  0  0  0
   23.1376  -17.6721  -16.4400 C   0  0  0  0  0  0  0  0  0  0  0  0
   23.6504  -16.2741  -16.3213 C   0  0  0  0  0  0  0  0  0  0  0  0
   24.2719  -15.9220  -17.6747 C   0  0  0  0  0  0  0  0  0  0  0  0
   24.8749  -14.5185  -17.6069 C   0  0  0  0  0  0  0  0  0  0  0  0
   25.3986  -14.2226  -18.9257 N   0  0  0  0  0  0  0  0  0  0  0  0
   20.6538  -17.7293  -16.4739 C   0  0  0  0  0  0  0  0  0  0  0  0
   20.0182  -18.7061  -17.2234 O   0  0  0  0  0  0  0  0  0  0  0  0
   20.1308  -16.5862  -16.5048 O   0  0  0  0  0  0  0  0  0  0  0  0
  2  1  1  0
  3  2  1  0
  4  3  1  0
  5  4  1  0
  5  6  1  1
  7  8  2  0
  7  5  1  0
  9  7  1  0
 10  9  1  0
 11 12  1  0
 10 11  1  1
 13 14  2  0
 13 12  1  0
 15 10  1  0
 15 16  2  0
 17 13  1  0
 18 15  1  0
 19 20  1  6
 19 18  1  0
 21 20  1  0
 22 21  1  0
 23 22  1  0
 23 24  1  0
 25 19  1  0
 26 25  1  0
 27 25  2  0
M  END
$$$$
