MEK.pdb
     RDKit          3D

 27 26  0  0  1  0  0  0  0  0999 V2000
   30.8354  -19.3091  -12.5123 C   0  0  0  0  0  0  0  0  0  0  0  0
   29.2080  -19.1292  -13.3270 S   0  0  0  0  0  0  0  0  0  0  0  0
   28.2055  -20.5451  -12.7624 C   0  0  0  0  0  0  0  0  0  0  0  0
   26.7996  -20.4236  -13.2734 C   0  0  0  0  0  0  0  0  0  0  0  0
   25.9940  -21.6192  -12.8039 C   0  0  2  0  0  0  0  0  0  0  0  0
   26.4811  -22.7971  -13.5498 N   0  0  0  0  0  0  0  0  0  0  0  0
   24.5341  -21.4823  -13.0947 C   0  0  0  0  0  0  0  0  0  0  0  0
   24.0730  -21.9827  -14.1753 O   0  0  0  0  0  0  0  0  0  0  0  0
   23.6320  -20.8290  -12.2365 N   0  0  0  0  0  0  0  0  0  0  0  0
   22.1919  -20.6893  -12.4597 C   0  0  1  0  0  0  0  0  0  0  0  0
   21.5423  -20.2724  -11.1656 C   0  0  0  0  0  0  0  0  0  0  0  0
   20.0690  -20.0859  -11.2137 C   0  0  0  0  0  0  0  0  0  0  0  0
   19.4801  -21.4291  -11.5375 C   0  0  0  0  0  0  0  0  0  0  0  0
   19.9654  -22.4875  -11.1076 O   0  0  0  0  0  0  0  0  0  0  0  0
   21.9862  -19.7147  -13.5488 C   0  0  0  0  0  0  0  0  0  0  0  0
   22.5207  -18.5485  -13.4998 O   0  0  0  0  0  0  0  0  0  0  0  0
   18.3538  -21.4538  -12.3491 O   0  0  0  0  0  0  0  0  0  0  0  0
   21.2218  -19.9272  -14.7231 N   0  0  0  0  0  0  0  0  0  0  0  0
   21.0876  -18.9195  -15.7576 C   0  0  1  0  0  0  0  0  0  0  0  0
   21.5787  -19.4230  -17.0946 C   0  0  0  0  0  0  0  0  0  0  0  0
   23.0612  -19.5743  -17.1998 C   0  0  0  0  0  0  0  0  0  0  0  0
   23.3451  -20.1147  -18.6031 C   0  0  0  0  0  0  0  0  0  0  0  0
   24.8430  -20.3845  -18.7500 C   0  0  0  0  0  0  0  0  0  0  0  0
   25.0450  -20.9150  -20.0837 N   0  0  0  0  0  0  0  0  0  0  0  0
   19.6945  -18.4442  -15.8040 C   0  0  0  0  0  0  0  0  0  0  0  0
   19.3020  -17.1961  -16.2600 O   0  0  0  0  0  0  0  0  0  0  0  0
   18.7706  -19.2002  -15.4090 O   0  0  0  0  0  0  0  0  0  0  0  0
  2  1  1  0
  3  2  1  0
  4  3  1  0
  5  4  1  0
  5  6  1  6
  7  8  2  0
  7  5  1  0
  9  7  1  0
 10  9  1  0
 11 12  1  0
 10 11  1  1
 13 14  2  0
 13 12  1  0
 15 10  1  0
 15 16  2  0
 17 13  1  0
 18 15  1  0
 19 20  1  6
 19 18  1  0
 21 20  1  0
 22 21  1  0
 23 22  1  0
 23 24  1  0
 25 19  1  0
 26 25  1  0
 27 25  2  0
M  END
$$$$
