KCC.pdb
     RDKit          3D

 22 21  0  0  1  0  0  0  0  0999 V2000
   27.3794  -22.2728  -16.2535 N   0  0  0  0  0  0  0  0  0  0  0  0
   26.7236  -21.1005  -15.7823 C   0  0  1  0  0  0  0  0  0  0  0  0
   25.9083  -20.4048  -16.8578 C   0  0  0  0  0  0  0  0  0  0  0  0
   26.5333  -19.1061  -17.2669 C   0  0  0  0  0  0  0  0  0  0  0  0
   28.0220  -19.2269  -17.2720 C   0  0  0  0  0  0  0  0  0  0  0  0
   28.6933  -17.9255  -17.6111 C   0  0  0  0  0  0  0  0  0  0  0  0
   30.1390  -18.1274  -17.5556 N   0  0  0  0  0  0  0  0  0  0  0  0
   25.7825  -21.4810  -14.6978 C   0  0  0  0  0  0  0  0  0  0  0  0
   25.0817  -22.5241  -14.8516 O   0  0  0  0  0  0  0  0  0  0  0  0
   25.6550  -20.7222  -13.5252 N   0  0  0  0  0  0  0  0  0  0  0  0
   24.7137  -21.1518  -12.5134 C   0  0  1  0  0  0  0  0  0  0  0  0
   25.1820  -20.5866  -11.2015 C   0  0  0  0  0  0  0  0  0  0  0  0
   26.7255  -21.4415  -10.7267 S   0  0  0  0  0  0  0  0  0  0  0  0
   23.3670  -20.7531  -12.8947 C   0  0  0  0  0  0  0  0  0  0  0  0
   23.1179  -19.5443  -13.1107 O   0  0  0  0  0  0  0  0  0  0  0  0
   22.2801  -21.6638  -13.0445 N   0  0  0  0  0  0  0  0  0  0  0  0
   20.9498  -21.2218  -13.3071 C   0  0  1  0  0  0  0  0  0  0  0  0
   20.1974  -22.2522  -14.1122 C   0  0  0  0  0  0  0  0  0  0  0  0
   21.0544  -22.7146  -15.6184 S   0  0  0  0  0  0  0  0  0  0  0  0
   20.2752  -20.8644  -12.0582 C   0  0  0  0  0  0  0  0  0  0  0  0
   20.8215  -21.2659  -10.8536 O   0  0  0  0  0  0  0  0  0  0  0  0
   19.2061  -20.2009  -11.9963 O   0  0  0  0  0  0  0  0  0  0  0  0
  2  3  1  0
  2  8  1  0
  2  1  1  6
  4  3  1  0
  5  4  1  0
  6  5  1  0
  6  7  1  0
  8  9  2  0
 10 11  1  0
 10  8  1  0
 11 14  1  0
 12 13  1  0
 11 12  1  1
 14 16  1  0
 14 15  2  0
 16 17  1  0
 17 20  1  0
 17 18  1  1
 19 18  1  0
 20 22  2  0
 20 21  1  0
M  END
$$$$
