KCC.pdb
     RDKit          3D

 22 21  0  0  1  0  0  0  0  0999 V2000
   21.0073  -13.1331  -16.1966 N   0  0  0  0  0  0  0  0  0  0  0  0
   20.5860  -12.0261  -16.9864 C   0  0  1  0  0  0  0  0  0  0  0  0
   19.2461  -12.2567  -17.6625 C   0  0  0  0  0  0  0  0  0  0  0  0
   19.3707  -13.1972  -18.8220 C   0  0  0  0  0  0  0  0  0  0  0  0
   18.0309  -13.4455  -19.4335 C   0  0  0  0  0  0  0  0  0  0  0  0
   18.1161  -14.3448  -20.6349 C   0  0  0  0  0  0  0  0  0  0  0  0
   16.7576  -14.6404  -21.0834 N   0  0  0  0  0  0  0  0  0  0  0  0
   20.4329  -10.8398  -16.1056 C   0  0  0  0  0  0  0  0  0  0  0  0
   19.8297  -10.9869  -15.0023 O   0  0  0  0  0  0  0  0  0  0  0  0
   20.9341   -9.5797  -16.4635 N   0  0  0  0  0  0  0  0  0  0  0  0
   20.6708   -8.4509  -15.5971 C   0  0  1  0  0  0  0  0  0  0  0  0
   21.9500   -8.1393  -14.8714 C   0  0  0  0  0  0  0  0  0  0  0  0
   21.6738   -6.6639  -13.8295 S   0  0  0  0  0  0  0  0  0  0  0  0
   20.1373   -7.3455  -16.3792 C   0  0  0  0  0  0  0  0  0  0  0  0
   20.6518   -7.0673  -17.4873 O   0  0  0  0  0  0  0  0  0  0  0  0
   19.0411   -6.5336  -15.9642 N   0  0  0  0  0  0  0  0  0  0  0  0
   18.5570   -5.4498  -16.7548 C   0  0  1  0  0  0  0  0  0  0  0  0
   17.0977   -5.6440  -17.0848 C   0  0  0  0  0  0  0  0  0  0  0  0
   16.3528   -4.1844  -17.8140 S   0  0  0  0  0  0  0  0  0  0  0  0
   18.8310   -4.1734  -16.0928 C   0  0  0  0  0  0  0  0  0  0  0  0
   19.1539   -3.0684  -16.8579 O   0  0  0  0  0  0  0  0  0  0  0  0
   18.7939   -4.0010  -14.8453 O   0  0  0  0  0  0  0  0  0  0  0  0
  2  3  1  0
  2  8  1  0
  2  1  1  1
  4  3  1  0
  5  4  1  0
  6  5  1  0
  6  7  1  0
  8  9  2  0
 10 11  1  0
 10  8  1  0
 11 14  1  0
 12 13  1  0
 11 12  1  6
 14 16  1  0
 14 15  2  0
 16 17  1  0
 17 20  1  0
 17 18  1  1
 19 18  1  0
 20 22  2  0
 20 21  1  0
M  END
$$$$
