KCC.pdb
     RDKit          3D

 22 21  0  0  1  0  0  0  0  0999 V2000
   19.6658  -13.9720  -15.9599 N   0  0  0  0  0  0  0  0  0  0  0  0
   19.3741  -12.8316  -16.7606 C   0  0  1  0  0  0  0  0  0  0  0  0
   17.9743  -12.8626  -17.3481 C   0  0  0  0  0  0  0  0  0  0  0  0
   17.8099  -13.9942  -18.3159 C   0  0  0  0  0  0  0  0  0  0  0  0
   16.4165  -14.0175  -18.8535 C   0  0  0  0  0  0  0  0  0  0  0  0
   16.2079  -15.1373  -19.8341 C   0  0  0  0  0  0  0  0  0  0  0  0
   14.8177  -15.1017  -20.2815 N   0  0  0  0  0  0  0  0  0  0  0  0
   19.4659  -11.6150  -15.9132 C   0  0  0  0  0  0  0  0  0  0  0  0
   18.9738  -11.6587  -14.7475 O   0  0  0  0  0  0  0  0  0  0  0  0
   20.0760  -10.4372  -16.3687 N   0  0  0  0  0  0  0  0  0  0  0  0
   20.0831   -9.2750  -15.5064 C   0  0  1  0  0  0  0  0  0  0  0  0
   21.4871   -9.1090  -14.9952 C   0  0  0  0  0  0  0  0  0  0  0  0
   21.5522   -7.5910  -13.9802 S   0  0  0  0  0  0  0  0  0  0  0  0
   19.5655   -8.1234  -16.2303 C   0  0  0  0  0  0  0  0  0  0  0  0
   19.9370   -7.9159  -17.4088 O   0  0  0  0  0  0  0  0  0  0  0  0
   18.6406   -7.1880  -15.6802 N   0  0  0  0  0  0  0  0  0  0  0  0
   18.2667   -5.9959  -16.3678 C   0  0  1  0  0  0  0  0  0  0  0  0
   16.7657   -5.8996  -16.4856 C   0  0  0  0  0  0  0  0  0  0  0  0
   16.2182   -4.2906  -17.0587 S   0  0  0  0  0  0  0  0  0  0  0  0
   18.8683   -4.8264  -15.7251 C   0  0  0  0  0  0  0  0  0  0  0  0
   19.0704   -3.6758  -16.4639 O   0  0  0  0  0  0  0  0  0  0  0  0
   19.2255   -4.7882  -14.5176 O   0  0  0  0  0  0  0  0  0  0  0  0
  2  3  1  0
  2  8  1  0
  2  1  1  1
  4  3  1  0
  5  4  1  0
  6  5  1  0
  6  7  1  0
  8  9  2  0
 10 11  1  0
 10  8  1  0
 11 14  1  0
 12 13  1  0
 11 12  1  6
 14 16  1  0
 14 15  2  0
 16 17  1  0
 17 20  1  0
 17 18  1  1
 19 18  1  0
 20 22  2  0
 20 21  1  0
M  END
$$$$
