KCC.pdb
     RDKit          3D

 22 21  0  0  1  0  0  0  0  0999 V2000
   27.8434  -23.4588  -15.3876 N   0  0  0  0  0  0  0  0  0  0  0  0
   27.3261  -22.5428  -16.3467 C   0  0  1  0  0  0  0  0  0  0  0  0
   27.8490  -22.7957  -17.7496 C   0  0  0  0  0  0  0  0  0  0  0  0
   29.3362  -22.9763  -17.7571 C   0  0  0  0  0  0  0  0  0  0  0  0
   29.6813  -24.4294  -17.7580 C   0  0  0  0  0  0  0  0  0  0  0  0
   31.1661  -24.6575  -17.8093 C   0  0  0  0  0  0  0  0  0  0  0  0
   31.6880  -24.0099  -19.0103 N   0  0  0  0  0  0  0  0  0  0  0  0
   25.8485  -22.6867  -16.3982 C   0  0  0  0  0  0  0  0  0  0  0  0
   25.2044  -21.9626  -17.2128 O   0  0  0  0  0  0  0  0  0  0  0  0
   25.1617  -23.5930  -15.5772 N   0  0  0  0  0  0  0  0  0  0  0  0
   23.7233  -23.6948  -15.6988 C   0  0  1  0  0  0  0  0  0  0  0  0
   23.3381  -25.0843  -15.2736 C   0  0  0  0  0  0  0  0  0  0  0  0
   23.6229  -25.2336  -13.4749 S   0  0  0  0  0  0  0  0  0  0  0  0
   23.0893  -22.6327  -14.9318 C   0  0  0  0  0  0  0  0  0  0  0  0
   23.7382  -22.0461  -14.0346 O   0  0  0  0  0  0  0  0  0  0  0  0
   21.7460  -22.1992  -15.1329 N   0  0  0  0  0  0  0  0  0  0  0  0
   21.1660  -21.1442  -14.3683 C   0  0  1  0  0  0  0  0  0  0  0  0
   21.9942  -19.8884  -14.4827 C   0  0  0  0  0  0  0  0  0  0  0  0
   21.3636  -18.5487  -13.4706 S   0  0  0  0  0  0  0  0  0  0  0  0
   19.7671  -20.9463  -14.7512 C   0  0  0  0  0  0  0  0  0  0  0  0
   18.8219  -20.7142  -13.7697 O   0  0  0  0  0  0  0  0  0  0  0  0
   19.3483  -20.9721  -15.9391 O   0  0  0  0  0  0  0  0  0  0  0  0
  2  3  1  0
  2  8  1  0
  2  1  1  1
  4  3  1  0
  5  4  1  0
  6  5  1  0
  6  7  1  0
  8  9  2  0
 10 11  1  0
 10  8  1  0
 11 14  1  0
 12 13  1  0
 11 12  1  1
 14 16  1  0
 14 15  2  0
 16 17  1  0
 17 20  1  0
 17 18  1  6
 19 18  1  0
 20 22  2  0
 20 21  1  0
M  END
$$$$
