KCC.pdb
     RDKit          3D

 22 21  0  0  1  0  0  0  0  0999 V2000
   29.9518  -22.6157  -18.3059 N   0  0  0  0  0  0  0  0  0  0  0  0
   28.5452  -22.7321  -18.1205 C   0  0  1  0  0  0  0  0  0  0  0  0
   28.0376  -24.1502  -18.3125 C   0  0  0  0  0  0  0  0  0  0  0  0
   29.1198  -25.0579  -18.8119 C   0  0  0  0  0  0  0  0  0  0  0  0
   29.8725  -25.6468  -17.6641 C   0  0  0  0  0  0  0  0  0  0  0  0
   30.9754  -26.5602  -18.1208 C   0  0  0  0  0  0  0  0  0  0  0  0
   31.8142  -26.8780  -16.9678 N   0  0  0  0  0  0  0  0  0  0  0  0
   28.2106  -22.3326  -16.7294 C   0  0  0  0  0  0  0  0  0  0  0  0
   29.1576  -22.2043  -15.8990 O   0  0  0  0  0  0  0  0  0  0  0  0
   26.8893  -22.0979  -16.3217 N   0  0  0  0  0  0  0  0  0  0  0  0
   26.6506  -21.2216  -15.1951 C   0  0  1  0  0  0  0  0  0  0  0  0
   27.2777  -19.8952  -15.5225 C   0  0  0  0  0  0  0  0  0  0  0  0
   26.8915  -18.7286  -14.1703 S   0  0  0  0  0  0  0  0  0  0  0  0
   25.2239  -21.1604  -14.9143 C   0  0  0  0  0  0  0  0  0  0  0  0
   24.4451  -20.6820  -15.7714 O   0  0  0  0  0  0  0  0  0  0  0  0
   24.6316  -21.6182  -13.7008 N   0  0  0  0  0  0  0  0  0  0  0  0
   23.2180  -21.6833  -13.5231 C   0  0  1  0  0  0  0  0  0  0  0  0
   22.8145  -23.0252  -12.9642 C   0  0  0  0  0  0  0  0  0  0  0  0
   23.1734  -24.3784  -14.0856 S   0  0  0  0  0  0  0  0  0  0  0  0
   22.7541  -20.5590  -12.7085 C   0  0  0  0  0  0  0  0  0  0  0  0
   21.3974  -20.3249  -12.5861 O   0  0  0  0  0  0  0  0  0  0  0  0
   23.5181  -19.7678  -12.0941 O   0  0  0  0  0  0  0  0  0  0  0  0
  2  3  1  0
  2  8  1  0
  2  1  1  1
  4  3  1  0
  5  4  1  0
  6  5  1  0
  6  7  1  0
  8  9  2  0
 10 11  1  0
 10  8  1  0
 11 14  1  0
 12 13  1  0
 11 12  1  6
 14 16  1  0
 14 15  2  0
 16 17  1  0
 17 20  1  0
 17 18  1  1
 19 18  1  0
 20 22  2  0
 20 21  1  0
M  END
$$$$
