KCC.pdb
     RDKit          3D

 22 21  0  0  1  0  0  0  0  0999 V2000
   21.6550   -9.7402  -17.1562 N   0  0  0  0  0  0  0  0  0  0  0  0
   20.2975   -9.3426  -16.9967 C   0  0  1  0  0  0  0  0  0  0  0  0
   19.4241  -10.4382  -16.4115 C   0  0  0  0  0  0  0  0  0  0  0  0
   19.8404  -11.7920  -16.8997 C   0  0  0  0  0  0  0  0  0  0  0  0
   18.9318  -12.2501  -17.9930 C   0  0  0  0  0  0  0  0  0  0  0  0
   19.2591  -13.6430  -18.4532 C   0  0  0  0  0  0  0  0  0  0  0  0
   18.3579  -13.9869  -19.5503 N   0  0  0  0  0  0  0  0  0  0  0  0
   20.2422   -8.1917  -16.0591 C   0  0  0  0  0  0  0  0  0  0  0  0
   19.1059   -7.7825  -15.6796 O   0  0  0  0  0  0  0  0  0  0  0  0
   21.4031   -7.5581  -15.5921 N   0  0  0  0  0  0  0  0  0  0  0  0
   21.2738   -6.3300  -14.8377 C   0  0  1  0  0  0  0  0  0  0  0  0
   22.3843   -6.3112  -13.8246 C   0  0  0  0  0  0  0  0  0  0  0  0
   22.3811   -4.6807  -13.0000 S   0  0  0  0  0  0  0  0  0  0  0  0
   21.2687   -5.1935  -15.7469 C   0  0  0  0  0  0  0  0  0  0  0  0
   22.1387   -5.1166  -16.6454 O   0  0  0  0  0  0  0  0  0  0  0  0
   20.3190   -4.1317  -15.6877 N   0  0  0  0  0  0  0  0  0  0  0  0
   20.3717   -3.0154  -16.5738 C   0  0  1  0  0  0  0  0  0  0  0  0
   19.3502   -3.1626  -17.6742 C   0  0  0  0  0  0  0  0  0  0  0  0
   19.0859   -1.6382  -18.5817 S   0  0  0  0  0  0  0  0  0  0  0  0
   20.2345   -1.7642  -15.8266 C   0  0  0  0  0  0  0  0  0  0  0  0
   20.4280   -0.5607  -16.4783 O   0  0  0  0  0  0  0  0  0  0  0  0
   19.9457   -1.6994  -14.6020 O   0  0  0  0  0  0  0  0  0  0  0  0
  2  3  1  0
  2  8  1  0
  2  1  1  1
  4  3  1  0
  5  4  1  0
  6  5  1  0
  6  7  1  0
  8  9  2  0
 10 11  1  0
 10  8  1  0
 11 14  1  0
 12 13  1  0
 11 12  1  1
 14 16  1  0
 14 15  2  0
 16 17  1  0
 17 20  1  0
 17 18  1  6
 19 18  1  0
 20 22  2  0
 20 21  1  0
M  END
$$$$
