KCC.pdb
     RDKit          3D

 22 21  0  0  1  0  0  0  0  0999 V2000
   20.0811  -13.1844  -15.5720 N   0  0  0  0  0  0  0  0  0  0  0  0
   19.7565  -12.1512  -16.4958 C   0  0  1  0  0  0  0  0  0  0  0  0
   18.2851  -12.1317  -16.8699 C   0  0  0  0  0  0  0  0  0  0  0  0
   17.9407  -13.2523  -17.8027 C   0  0  0  0  0  0  0  0  0  0  0  0
   17.1195  -14.2804  -17.0960 C   0  0  0  0  0  0  0  0  0  0  0  0
   16.6584  -15.3700  -18.0230 C   0  0  0  0  0  0  0  0  0  0  0  0
   15.8228  -16.2959  -17.2622 N   0  0  0  0  0  0  0  0  0  0  0  0
   20.0672  -10.8380  -15.8746 C   0  0  0  0  0  0  0  0  0  0  0  0
   19.5324  -10.5609  -14.7611 O   0  0  0  0  0  0  0  0  0  0  0  0
   20.9265   -9.9128  -16.4849 N   0  0  0  0  0  0  0  0  0  0  0  0
   21.3174   -8.7302  -15.7480 C   0  0  1  0  0  0  0  0  0  0  0  0
   22.8178   -8.7404  -15.6539 C   0  0  0  0  0  0  0  0  0  0  0  0
   23.2978   -9.8161  -14.2570 S   0  0  0  0  0  0  0  0  0  0  0  0
   20.7621   -7.5469  -16.3879 C   0  0  0  0  0  0  0  0  0  0  0  0
   20.8043   -7.4416  -17.6357 O   0  0  0  0  0  0  0  0  0  0  0  0
   20.1565   -6.4688  -15.6780 N   0  0  0  0  0  0  0  0  0  0  0  0
   19.6617   -5.3066  -16.3400 C   0  0  1  0  0  0  0  0  0  0  0  0
   18.1831   -5.1420  -16.0894 C   0  0  0  0  0  0  0  0  0  0  0  0
   17.5702   -3.5339  -16.5947 S   0  0  0  0  0  0  0  0  0  0  0  0
   20.4434   -4.1298  -15.9570 C   0  0  0  0  0  0  0  0  0  0  0  0
   20.7381   -3.1723  -16.9094 O   0  0  0  0  0  0  0  0  0  0  0  0
   20.8797   -3.9180  -14.7943 O   0  0  0  0  0  0  0  0  0  0  0  0
  2  3  1  0
  2  8  1  0
  2  1  1  1
  4  3  1  0
  5  4  1  0
  6  5  1  0
  6  7  1  0
  8  9  2  0
 10 11  1  0
 10  8  1  0
 11 14  1  0
 12 13  1  0
 11 12  1  6
 14 16  1  0
 14 15  2  0
 16 17  1  0
 17 20  1  0
 17 18  1  1
 19 18  1  0
 20 22  2  0
 20 21  1  0
M  END
$$$$
