KCC.pdb
     RDKit          3D

 22 21  0  0  1  0  0  0  0  0999 V2000
   20.3064  -13.0943  -16.2080 N   0  0  0  0  0  0  0  0  0  0  0  0
   20.0202  -11.9831  -17.0505 C   0  0  1  0  0  0  0  0  0  0  0  0
   18.6468  -12.0648  -17.6927 C   0  0  0  0  0  0  0  0  0  0  0  0
   18.5847  -13.1537  -18.7197 C   0  0  0  0  0  0  0  0  0  0  0  0
   17.2949  -13.0851  -19.4698 C   0  0  0  0  0  0  0  0  0  0  0  0
   17.2159  -14.1231  -20.5540 C   0  0  0  0  0  0  0  0  0  0  0  0
   15.9998  -13.8859  -21.3279 N   0  0  0  0  0  0  0  0  0  0  0  0
   20.0479  -10.7427  -16.2335 C   0  0  0  0  0  0  0  0  0  0  0  0
   19.0969  -10.5380  -15.4233 O   0  0  0  0  0  0  0  0  0  0  0  0
   21.0881   -9.8078  -16.3382 N   0  0  0  0  0  0  0  0  0  0  0  0
   21.0496   -8.6234  -15.5075 C   0  0  1  0  0  0  0  0  0  0  0  0
   22.4294   -8.4312  -14.9427 C   0  0  0  0  0  0  0  0  0  0  0  0
   22.6056   -9.5105  -13.4788 S   0  0  0  0  0  0  0  0  0  0  0  0
   20.5536   -7.4959  -16.2826 C   0  0  0  0  0  0  0  0  0  0  0  0
   20.6936   -7.4923  -17.5277 O   0  0  0  0  0  0  0  0  0  0  0  0
   19.9017   -6.3635  -15.7119 N   0  0  0  0  0  0  0  0  0  0  0  0
   19.3674   -5.3114  -16.5128 C   0  0  1  0  0  0  0  0  0  0  0  0
   18.1421   -5.7810  -17.2573 C   0  0  0  0  0  0  0  0  0  0  0  0
   17.2799   -4.4434  -18.0846 S   0  0  0  0  0  0  0  0  0  0  0  0
   19.1218   -4.1224  -15.6951 C   0  0  0  0  0  0  0  0  0  0  0  0
   18.9216   -2.9031  -16.3146 O   0  0  0  0  0  0  0  0  0  0  0  0
   19.0778   -4.1263  -14.4360 O   0  0  0  0  0  0  0  0  0  0  0  0
  2  3  1  0
  2  8  1  0
  2  1  1  1
  4  3  1  0
  5  4  1  0
  6  5  1  0
  6  7  1  0
  8  9  2  0
 10 11  1  0
 10  8  1  0
 11 14  1  0
 12 13  1  0
 11 12  1  6
 14 16  1  0
 14 15  2  0
 16 17  1  0
 17 20  1  0
 17 18  1  1
 19 18  1  0
 20 22  2  0
 20 21  1  0
M  END
$$$$
