KCC.pdb
     RDKit          3D

 22 21  0  0  1  0  0  0  0  0999 V2000
   12.6588   -8.2994   -8.5581 N   0  0  0  0  0  0  0  0  0  0  0  0
   13.9650   -8.7274   -8.9285 C   0  0  1  0  0  0  0  0  0  0  0  0
   13.9528   -9.8542   -9.9463 C   0  0  0  0  0  0  0  0  0  0  0  0
   13.2370  -11.0609   -9.4211 C   0  0  0  0  0  0  0  0  0  0  0  0
   13.2301  -12.1462  -10.4472 C   0  0  0  0  0  0  0  0  0  0  0  0
   12.4480  -13.3471   -9.9940 C   0  0  0  0  0  0  0  0  0  0  0  0
   12.5951  -14.3961  -11.0000 N   0  0  0  0  0  0  0  0  0  0  0  0
   14.6855   -7.5859   -9.5485 C   0  0  0  0  0  0  0  0  0  0  0  0
   14.0073   -6.5910   -9.9396 O   0  0  0  0  0  0  0  0  0  0  0  0
   16.0789   -7.5858   -9.7079 N   0  0  0  0  0  0  0  0  0  0  0  0
   16.7233   -6.3977  -10.2251 C   0  0  1  0  0  0  0  0  0  0  0  0
   16.4433   -5.2825   -9.2568 C   0  0  0  0  0  0  0  0  0  0  0  0
   17.5624   -3.8912   -9.6449 S   0  0  0  0  0  0  0  0  0  0  0  0
   18.1371   -6.6627  -10.4463 C   0  0  0  0  0  0  0  0  0  0  0  0
   18.8623   -6.9954   -9.4801 O   0  0  0  0  0  0  0  0  0  0  0  0
   18.7747   -6.5686  -11.7181 N   0  0  0  0  0  0  0  0  0  0  0  0
   20.1643   -6.8378  -11.8927 C   0  0  1  0  0  0  0  0  0  0  0  0
   20.3638   -8.0654  -12.7467 C   0  0  0  0  0  0  0  0  0  0  0  0
   22.0897   -8.3701  -13.1283 S   0  0  0  0  0  0  0  0  0  0  0  0
   20.8509   -5.6560  -12.4167 C   0  0  0  0  0  0  0  0  0  0  0  0
   22.1710   -5.4314  -12.0742 O   0  0  0  0  0  0  0  0  0  0  0  0
   20.3155   -4.8055  -13.1764 O   0  0  0  0  0  0  0  0  0  0  0  0
  2  3  1  0
  2  8  1  0
  2  1  1  6
  4  3  1  0
  5  4  1  0
  6  5  1  0
  6  7  1  0
  8  9  2  0
 10 11  1  0
 10  8  1  0
 11 14  1  0
 12 13  1  0
 11 12  1  1
 14 16  1  0
 14 15  2  0
 16 17  1  0
 17 20  1  0
 17 18  1  6
 19 18  1  0
 20 22  2  0
 20 21  1  0
M  END
$$$$
