VKN.pdb
     RDKit          3D

 25 24  0  0  1  0  0  0  0  0999 V2000
   18.8061  -13.7091  -17.1966 C   0  0  0  0  0  0  0  0  0  0  0  0
   18.5248  -12.2537  -17.3706 C   0  0  1  0  0  0  0  0  0  0  0  0
   17.0713  -12.0490  -17.7128 C   0  0  0  0  0  0  0  0  0  0  0  0
   18.9543  -11.4112  -16.1938 C   0  0  2  0  0  0  0  0  0  0  0  0
   18.5010  -12.0155  -14.9566 N   0  0  0  0  0  0  0  0  0  0  0  0
   18.5316   -9.9970  -16.3028 C   0  0  0  0  0  0  0  0  0  0  0  0
   18.9588   -9.2820  -17.2683 O   0  0  0  0  0  0  0  0  0  0  0  0
   17.6664   -9.3643  -15.3924 N   0  0  0  0  0  0  0  0  0  0  0  0
   17.2588   -7.9302  -15.5270 C   0  0  1  0  0  0  0  0  0  0  0  0
   15.8346   -7.9715  -15.0955 C   0  0  0  0  0  0  0  0  0  0  0  0
   14.7537   -8.0902  -16.0951 C   0  0  0  0  0  0  0  0  0  0  0  0
   13.4057   -8.1723  -15.4639 C   0  0  0  0  0  0  0  0  0  0  0  0
   12.3584   -8.3092  -16.5637 C   0  0  0  0  0  0  0  0  0  0  0  0
   11.0851   -8.4642  -15.8453 N   0  0  0  0  0  0  0  0  0  0  0  0
   18.1633   -7.0578  -14.8568 C   0  0  0  0  0  0  0  0  0  0  0  0
   18.5232   -7.3061  -13.6478 O   0  0  0  0  0  0  0  0  0  0  0  0
   22.5444   -4.6955  -13.0597 N   0  0  0  0  0  0  0  0  0  0  0  0
   21.9689   -4.3153  -14.3010 C   0  0  0  0  0  0  0  0  0  0  0  0
   22.2762   -3.1604  -14.7439 O   0  0  0  0  0  0  0  0  0  0  0  0
   21.0677   -5.2113  -15.0336 C   0  0  0  0  0  0  0  0  0  0  0  0
   19.6207   -5.0270  -14.5778 C   0  0  2  0  0  0  0  0  0  0  0  0
   18.7791   -5.8621  -15.3971 N   0  0  0  0  0  0  0  0  0  0  0  0
   19.2534   -3.5924  -14.6682 C   0  0  0  0  0  0  0  0  0  0  0  0
   19.1300   -2.8641  -15.8154 O   0  0  0  0  0  0  0  0  0  0  0  0
   19.0338   -2.9966  -13.5599 O   0  0  0  0  0  0  0  0  0  0  0  0
  2  1  1  1
  2  4  1  0
  3  2  1  0
  4  5  1  1
  6  4  1  0
  6  7  2  0
  8  6  1  0
  9  8  1  0
  9 10  1  1
 11 10  1  0
 12 11  1  0
 13 12  1  0
 13 14  1  0
 15  9  1  0
 16 15  2  0
 18 17  1  0
 18 20  1  0
 19 18  2  0
 21 20  1  6
 21 22  1  0
 22 15  1  0
 23 21  1  0
 24 23  1  0
 25 23  2  0
M  END
$$$$
