VKN.pdb
     RDKit          3D

 25 24  0  0  1  0  0  0  0  0999 V2000
   19.2945  -13.8808  -18.2101 C   0  0  0  0  0  0  0  0  0  0  0  0
   18.8491  -12.4587  -18.1271 C   0  0  1  0  0  0  0  0  0  0  0  0
   17.3436  -12.3927  -18.1026 C   0  0  0  0  0  0  0  0  0  0  0  0
   19.4687  -11.6983  -16.9795 C   0  0  2  0  0  0  0  0  0  0  0  0
   19.4506  -12.5084  -15.7775 N   0  0  0  0  0  0  0  0  0  0  0  0
   18.8524  -10.3710  -16.7580 C   0  0  0  0  0  0  0  0  0  0  0  0
   18.9535   -9.4694  -17.6539 O   0  0  0  0  0  0  0  0  0  0  0  0
   18.1411  -10.0202  -15.5966 N   0  0  0  0  0  0  0  0  0  0  0  0
   17.5729   -8.6526  -15.3783 C   0  0  1  0  0  0  0  0  0  0  0  0
   16.2509   -8.9609  -14.7668 C   0  0  0  0  0  0  0  0  0  0  0  0
   15.0879   -9.2772  -15.6204 C   0  0  0  0  0  0  0  0  0  0  0  0
   13.8538   -9.5317  -14.8238 C   0  0  0  0  0  0  0  0  0  0  0  0
   12.7146   -9.8663  -15.7806 C   0  0  0  0  0  0  0  0  0  0  0  0
   11.5744  -10.1749  -14.9053 N   0  0  0  0  0  0  0  0  0  0  0  0
   18.4817   -7.8071  -14.6801 C   0  0  0  0  0  0  0  0  0  0  0  0
   19.1872   -8.2766  -13.7135 O   0  0  0  0  0  0  0  0  0  0  0  0
   22.1509   -4.6161  -13.2690 N   0  0  0  0  0  0  0  0  0  0  0  0
   22.2890   -5.8062  -14.0313 C   0  0  0  0  0  0  0  0  0  0  0  0
   23.4702   -6.2656  -14.1655 O   0  0  0  0  0  0  0  0  0  0  0  0
   21.1268   -6.4705  -14.6311 C   0  0  0  0  0  0  0  0  0  0  0  0
   19.8360   -5.7218  -14.3012 C   0  0  2  0  0  0  0  0  0  0  0  0
   18.7409   -6.4053  -14.9420 N   0  0  0  0  0  0  0  0  0  0  0  0
   19.9572   -4.3105  -14.7421 C   0  0  0  0  0  0  0  0  0  0  0  0
   20.4147   -3.2686  -13.9891 O   0  0  0  0  0  0  0  0  0  0  0  0
   19.5969   -4.0626  -15.9423 O   0  0  0  0  0  0  0  0  0  0  0  0
  2  1  1  1
  2  4  1  0
  3  2  1  0
  4  5  1  1
  6  4  1  0
  6  7  2  0
  8  6  1  0
  9  8  1  0
  9 10  1  1
 11 10  1  0
 12 11  1  0
 13 12  1  0
 13 14  1  0
 15  9  1  0
 16 15  2  0
 18 17  1  0
 18 20  1  0
 19 18  2  0
 21 20  1  6
 21 22  1  0
 22 15  1  0
 23 21  1  0
 24 23  1  0
 25 23  2  0
M  END
$$$$
