VKN.pdb
     RDKit          3D

 25 24  0  0  1  0  0  0  0  0999 V2000
   27.5643  -11.8383  -15.4138 C   0  0  0  0  0  0  0  0  0  0  0  0
   26.3569  -11.0214  -15.7339 C   0  0  1  0  0  0  0  0  0  0  0  0
   26.7722   -9.7147  -16.3595 C   0  0  0  0  0  0  0  0  0  0  0  0
   25.3382  -11.7537  -16.5737 C   0  0  2  0  0  0  0  0  0  0  0  0
   25.9749  -12.3235  -17.7447 N   0  0  0  0  0  0  0  0  0  0  0  0
   24.1698  -10.9194  -16.9335 C   0  0  0  0  0  0  0  0  0  0  0  0
   24.2281  -10.1556  -17.9528 O   0  0  0  0  0  0  0  0  0  0  0  0
   22.9627  -10.9070  -16.2121 N   0  0  0  0  0  0  0  0  0  0  0  0
   21.7922  -10.0621  -16.6084 C   0  0  1  0  0  0  0  0  0  0  0  0
   20.6878  -11.0599  -16.6426 C   0  0  0  0  0  0  0  0  0  0  0  0
   20.4812  -11.9060  -17.8354 C   0  0  0  0  0  0  0  0  0  0  0  0
   19.2772  -12.7760  -17.7105 C   0  0  0  0  0  0  0  0  0  0  0  0
   19.1837  -13.6620  -18.9480 C   0  0  0  0  0  0  0  0  0  0  0  0
   18.0332  -14.5397  -18.6890 N   0  0  0  0  0  0  0  0  0  0  0  0
   21.6646   -8.9119  -15.7784 C   0  0  0  0  0  0  0  0  0  0  0  0
   22.2205   -8.8874  -14.6195 O   0  0  0  0  0  0  0  0  0  0  0  0
   22.9248   -3.7901  -14.3474 N   0  0  0  0  0  0  0  0  0  0  0  0
   22.4417   -5.0590  -13.9314 C   0  0  0  0  0  0  0  0  0  0  0  0
   22.0580   -5.1558  -12.7199 O   0  0  0  0  0  0  0  0  0  0  0  0
   22.3877   -6.1979  -14.8544 C   0  0  0  0  0  0  0  0  0  0  0  0
   20.9422   -6.5809  -15.1694 C   0  0  2  0  0  0  0  0  0  0  0  0
   20.9590   -7.6859  -16.0944 N   0  0  0  0  0  0  0  0  0  0  0  0
   20.2254   -5.4006  -15.7114 C   0  0  0  0  0  0  0  0  0  0  0  0
   19.5477   -4.4664  -14.9835 O   0  0  0  0  0  0  0  0  0  0  0  0
   20.2550   -5.2576  -16.9804 O   0  0  0  0  0  0  0  0  0  0  0  0
  2  1  1  6
  2  4  1  0
  3  2  1  0
  4  5  1  6
  6  4  1  0
  6  7  2  0
  8  6  1  0
  9  8  1  0
  9 10  1  1
 11 10  1  0
 12 11  1  0
 13 12  1  0
 13 14  1  0
 15  9  1  0
 16 15  2  0
 18 17  1  0
 18 20  1  0
 19 18  2  0
 21 20  1  6
 21 22  1  0
 22 15  1  0
 23 21  1  0
 24 23  1  0
 25 23  2  0
M  END
$$$$
