VKN.pdb
     RDKit          3D

 25 24  0  0  1  0  0  0  0  0999 V2000
   22.2395  -14.1954  -18.9310 C   0  0  0  0  0  0  0  0  0  0  0  0
   21.5033  -12.9007  -18.8330 C   0  0  1  0  0  0  0  0  0  0  0  0
   20.9777  -12.5050  -20.1890 C   0  0  0  0  0  0  0  0  0  0  0  0
   20.4189  -12.9012  -17.7826 C   0  0  2  0  0  0  0  0  0  0  0  0
   19.4373  -13.9254  -18.0804 N   0  0  0  0  0  0  0  0  0  0  0  0
   19.7902  -11.5750  -17.5919 C   0  0  0  0  0  0  0  0  0  0  0  0
   19.4394  -10.8895  -18.6082 O   0  0  0  0  0  0  0  0  0  0  0  0
   19.5430  -10.9975  -16.3337 N   0  0  0  0  0  0  0  0  0  0  0  0
   18.9263   -9.6431  -16.1724 C   0  0  1  0  0  0  0  0  0  0  0  0
   17.5603   -9.9810  -15.6860 C   0  0  0  0  0  0  0  0  0  0  0  0
   16.4901  -10.3267  -16.6434 C   0  0  0  0  0  0  0  0  0  0  0  0
   15.1899  -10.5959  -15.9657 C   0  0  0  0  0  0  0  0  0  0  0  0
   14.1677  -11.0134  -17.0174 C   0  0  0  0  0  0  0  0  0  0  0  0
   12.9169  -11.1947  -16.2665 N   0  0  0  0  0  0  0  0  0  0  0  0
   19.7469   -8.7771  -15.3945 C   0  0  0  0  0  0  0  0  0  0  0  0
   20.3837   -9.2344  -14.3757 O   0  0  0  0  0  0  0  0  0  0  0  0
   22.3650   -4.8416  -13.2616 N   0  0  0  0  0  0  0  0  0  0  0  0
   22.3080   -4.6357  -14.6655 C   0  0  0  0  0  0  0  0  0  0  0  0
   23.0041   -3.6751  -15.1314 O   0  0  0  0  0  0  0  0  0  0  0  0
   21.4885   -5.4898  -15.5320 C   0  0  0  0  0  0  0  0  0  0  0  0
   20.8095   -6.5974  -14.7271 C   0  0  2  0  0  0  0  0  0  0  0  0
   19.9830   -7.3655  -15.6235 N   0  0  0  0  0  0  0  0  0  0  0  0
   20.0314   -5.9949  -13.6169 C   0  0  0  0  0  0  0  0  0  0  0  0
   20.4216   -5.9139  -12.3120 O   0  0  0  0  0  0  0  0  0  0  0  0
   18.8913   -5.5094  -13.9270 O   0  0  0  0  0  0  0  0  0  0  0  0
  2  1  1  6
  2  4  1  0
  3  2  1  0
  4  5  1  6
  6  4  1  0
  6  7  2  0
  8  6  1  0
  9  8  1  0
  9 10  1  1
 11 10  1  0
 12 11  1  0
 13 12  1  0
 13 14  1  0
 15  9  1  0
 16 15  2  0
 18 17  1  0
 18 20  1  0
 19 18  2  0
 21 20  1  6
 21 22  1  0
 22 15  1  0
 23 21  1  0
 24 23  1  0
 25 23  2  0
M  END
$$$$
