VKN.pdb
     RDKit          3D

 25 24  0  0  1  0  0  0  0  0999 V2000
   26.1019  -20.3913  -17.6673 C   0  0  0  0  0  0  0  0  0  0  0  0
   26.8295  -21.6780  -17.8742 C   0  0  1  0  0  0  0  0  0  0  0  0
   27.8215  -21.5316  -18.9993 C   0  0  0  0  0  0  0  0  0  0  0  0
   27.4716  -22.2168  -16.6186 C   0  0  2  0  0  0  0  0  0  0  0  0
   27.9857  -23.5513  -16.8552 N   0  0  0  0  0  0  0  0  0  0  0  0
   26.5773  -22.1723  -15.4401 C   0  0  0  0  0  0  0  0  0  0  0  0
   25.6344  -23.0236  -15.3294 O   0  0  0  0  0  0  0  0  0  0  0  0
   26.6946  -21.2319  -14.4011 N   0  0  0  0  0  0  0  0  0  0  0  0
   25.7412  -21.1769  -13.2484 C   0  0  1  0  0  0  0  0  0  0  0  0
   26.5565  -20.4965  -12.2048 C   0  0  0  0  0  0  0  0  0  0  0  0
   25.9619  -20.1543  -10.8968 C   0  0  0  0  0  0  0  0  0  0  0  0
   24.8409  -21.0655  -10.5290 C   0  0  0  0  0  0  0  0  0  0  0  0
   24.2360  -20.5898   -9.2126 C   0  0  0  0  0  0  0  0  0  0  0  0
   23.0883  -21.4810   -8.9889 N   0  0  0  0  0  0  0  0  0  0  0  0
   24.4869  -20.6174  -13.6252 C   0  0  0  0  0  0  0  0  0  0  0  0
   24.4447  -19.5739  -14.3747 O   0  0  0  0  0  0  0  0  0  0  0  0
   20.6360  -20.9328  -17.3829 N   0  0  0  0  0  0  0  0  0  0  0  0
   20.6329  -21.0793  -15.9704 C   0  0  0  0  0  0  0  0  0  0  0  0
   19.5278  -20.8584  -15.3750 O   0  0  0  0  0  0  0  0  0  0  0  0
   21.8433  -21.4670  -15.2381 C   0  0  0  0  0  0  0  0  0  0  0  0
   21.9937  -20.6506  -13.9550 C   0  0  2  0  0  0  0  0  0  0  0  0
   23.1721  -21.1088  -13.2635 N   0  0  0  0  0  0  0  0  0  0  0  0
   20.7660  -20.7906  -13.1339 C   0  0  0  0  0  0  0  0  0  0  0  0
   19.6961  -19.9438  -13.1353 O   0  0  0  0  0  0  0  0  0  0  0  0
   20.7198  -21.8045  -12.3584 O   0  0  0  0  0  0  0  0  0  0  0  0
  2  1  1  1
  2  4  1  0
  3  2  1  0
  4  5  1  6
  6  4  1  0
  6  7  2  0
  8  6  1  0
  9  8  1  0
  9 10  1  1
 11 10  1  0
 12 11  1  0
 13 12  1  0
 13 14  1  0
 15  9  1  0
 16 15  2  0
 18 17  1  0
 18 20  1  0
 19 18  2  0
 21 20  1  6
 21 22  1  0
 22 15  1  0
 23 21  1  0
 24 23  1  0
 25 23  2  0
M  END
$$$$
