VKN.pdb
     RDKit          3D

 25 24  0  0  1  0  0  0  0  0999 V2000
   25.5119  -17.8979  -18.4206 C   0  0  0  0  0  0  0  0  0  0  0  0
   24.7255  -18.9354  -17.6906 C   0  0  1  0  0  0  0  0  0  0  0  0
   25.6429  -19.7605  -16.8251 C   0  0  0  0  0  0  0  0  0  0  0  0
   23.5630  -18.3724  -16.9090 C   0  0  2  0  0  0  0  0  0  0  0  0
   23.9828  -17.1999  -16.1670 N   0  0  0  0  0  0  0  0  0  0  0  0
   22.9083  -19.3715  -16.0352 C   0  0  0  0  0  0  0  0  0  0  0  0
   22.3796  -20.4116  -16.5496 O   0  0  0  0  0  0  0  0  0  0  0  0
   22.8240  -19.2551  -14.6362 N   0  0  0  0  0  0  0  0  0  0  0  0
   22.0343  -20.2057  -13.7916 C   0  0  1  0  0  0  0  0  0  0  0  0
   22.7800  -20.1680  -12.5036 C   0  0  0  0  0  0  0  0  0  0  0  0
   22.2411  -20.8465  -11.3075 C   0  0  0  0  0  0  0  0  0  0  0  0
   23.0920  -20.6302  -10.1027 C   0  0  0  0  0  0  0  0  0  0  0  0
   22.5194  -21.4441   -8.9473 C   0  0  0  0  0  0  0  0  0  0  0  0
   23.4756  -21.2497   -7.8477 N   0  0  0  0  0  0  0  0  0  0  0  0
   20.6450  -19.8926  -13.8000 C   0  0  0  0  0  0  0  0  0  0  0  0
   20.2557  -18.6797  -13.6268 O   0  0  0  0  0  0  0  0  0  0  0  0
   15.4738  -19.7962  -14.1811 N   0  0  0  0  0  0  0  0  0  0  0  0
   16.2153  -19.9364  -15.3841 C   0  0  0  0  0  0  0  0  0  0  0  0
   15.5987  -19.6785  -16.4693 O   0  0  0  0  0  0  0  0  0  0  0  0
   17.6209  -20.3558  -15.3727 C   0  0  0  0  0  0  0  0  0  0  0  0
   18.1792  -20.3654  -13.9501 C   0  0  2  0  0  0  0  0  0  0  0  0
   19.5469  -20.8163  -14.0045 N   0  0  0  0  0  0  0  0  0  0  0  0
   17.3323  -21.2308  -13.0930 C   0  0  0  0  0  0  0  0  0  0  0  0
   16.2061  -20.8468  -12.4252 O   0  0  0  0  0  0  0  0  0  0  0  0
   17.7039  -22.4477  -12.9799 O   0  0  0  0  0  0  0  0  0  0  0  0
  2  1  1  1
  2  4  1  0
  3  2  1  0
  4  5  1  1
  6  4  1  0
  6  7  2  0
  8  6  1  0
  9  8  1  0
  9 10  1  1
 11 10  1  0
 12 11  1  0
 13 12  1  0
 13 14  1  0
 15  9  1  0
 16 15  2  0
 18 17  1  0
 18 20  1  0
 19 18  2  0
 21 20  1  6
 21 22  1  0
 22 15  1  0
 23 21  1  0
 24 23  1  0
 25 23  2  0
M  END
$$$$
