VKN.pdb
     RDKit          3D

 25 24  0  0  1  0  0  0  0  0999 V2000
   20.6282  -17.4805  -15.6175 C   0  0  0  0  0  0  0  0  0  0  0  0
   19.3611  -16.7639  -15.9472 C   0  0  1  0  0  0  0  0  0  0  0  0
   18.2828  -17.7592  -16.2909 C   0  0  0  0  0  0  0  0  0  0  0  0
   18.9189  -15.7963  -14.8760 C   0  0  2  0  0  0  0  0  0  0  0  0
   17.6175  -16.1793  -14.3651 N   0  0  0  0  0  0  0  0  0  0  0  0
   18.9425  -14.3842  -15.3189 C   0  0  0  0  0  0  0  0  0  0  0  0
   20.0404  -13.8591  -15.6993 O   0  0  0  0  0  0  0  0  0  0  0  0
   17.8084  -13.5534  -15.3526 N   0  0  0  0  0  0  0  0  0  0  0  0
   17.8648  -12.1253  -15.7977 C   0  0  1  0  0  0  0  0  0  0  0  0
   17.2734  -12.2028  -17.1618 C   0  0  0  0  0  0  0  0  0  0  0  0
   17.9015  -13.0417  -18.2024 C   0  0  0  0  0  0  0  0  0  0  0  0
   18.2504  -12.2616  -19.4238 C   0  0  0  0  0  0  0  0  0  0  0  0
   18.8552  -13.2100  -20.4534 C   0  0  0  0  0  0  0  0  0  0  0  0
   19.0558  -12.3790  -21.6495 N   0  0  0  0  0  0  0  0  0  0  0  0
   17.2848  -11.2482  -14.8371 C   0  0  0  0  0  0  0  0  0  0  0  0
   16.5861  -11.7234  -13.8683 O   0  0  0  0  0  0  0  0  0  0  0  0
   16.1865   -9.1069  -10.5519 N   0  0  0  0  0  0  0  0  0  0  0  0
   17.4694   -9.0758  -11.1600 C   0  0  0  0  0  0  0  0  0  0  0  0
   18.3710   -8.4050  -10.5589 O   0  0  0  0  0  0  0  0  0  0  0  0
   17.7385   -9.7833  -12.4165 C   0  0  0  0  0  0  0  0  0  0  0  0
   17.0879   -9.0674  -13.5996 C   0  0  2  0  0  0  0  0  0  0  0  0
   17.3977   -9.8037  -14.7991 N   0  0  0  0  0  0  0  0  0  0  0  0
   17.5714   -7.6660  -13.6555 C   0  0  0  0  0  0  0  0  0  0  0  0
   17.0078   -6.5945  -13.0263 O   0  0  0  0  0  0  0  0  0  0  0  0
   18.6152   -7.4583  -14.3620 O   0  0  0  0  0  0  0  0  0  0  0  0
  2  1  1  1
  2  4  1  0
  3  2  1  0
  4  5  1  6
  6  4  1  0
  6  7  2  0
  8  6  1  0
  9  8  1  0
  9 10  1  6
 11 10  1  0
 12 11  1  0
 13 12  1  0
 13 14  1  0
 15  9  1  0
 16 15  2  0
 18 17  1  0
 18 20  1  0
 19 18  2  0
 21 20  1  1
 21 22  1  0
 22 15  1  0
 23 21  1  0
 24 23  1  0
 25 23  2  0
M  END
$$$$
