VKN.pdb
     RDKit          3D

 25 24  0  0  1  0  0  0  0  0999 V2000
   18.8940  -13.6132  -17.5460 C   0  0  0  0  0  0  0  0  0  0  0  0
   18.3862  -12.4716  -16.7295 C   0  0  1  0  0  0  0  0  0  0  0  0
   18.0526  -12.9440  -15.3378 C   0  0  0  0  0  0  0  0  0  0  0  0
   19.3127  -11.2797  -16.7168 C   0  0  2  0  0  0  0  0  0  0  0  0
   20.4330  -11.5289  -15.8313 N   0  0  0  0  0  0  0  0  0  0  0  0
   18.6259  -10.0096  -16.3914 C   0  0  0  0  0  0  0  0  0  0  0  0
   17.7678   -9.5290  -17.2028 O   0  0  0  0  0  0  0  0  0  0  0  0
   18.8567   -9.2713  -15.2170 N   0  0  0  0  0  0  0  0  0  0  0  0
   18.1927   -7.9579  -14.9436 C   0  0  1  0  0  0  0  0  0  0  0  0
   18.0237   -7.9985  -13.4650 C   0  0  0  0  0  0  0  0  0  0  0  0
   17.4373   -6.8482  -12.7477 C   0  0  0  0  0  0  0  0  0  0  0  0
   17.2004   -7.1418  -11.3055 C   0  0  0  0  0  0  0  0  0  0  0  0
   16.7963   -5.8498  -10.6036 C   0  0  0  0  0  0  0  0  0  0  0  0
   16.6461   -6.2273   -9.1907 N   0  0  0  0  0  0  0  0  0  0  0  0
   18.9029   -6.8731  -15.5328 C   0  0  0  0  0  0  0  0  0  0  0  0
   20.1868   -6.8378  -15.4803 O   0  0  0  0  0  0  0  0  0  0  0  0
   20.6679   -3.6152  -19.6032 N   0  0  0  0  0  0  0  0  0  0  0  0
   19.4975   -3.3647  -18.8391 C   0  0  0  0  0  0  0  0  0  0  0  0
   19.1511   -2.1453  -18.7067 O   0  0  0  0  0  0  0  0  0  0  0  0
   18.7284   -4.4583  -18.2357 C   0  0  0  0  0  0  0  0  0  0  0  0
   19.1769   -4.7165  -16.7977 C   0  0  2  0  0  0  0  0  0  0  0  0
   18.3333   -5.7424  -16.2386 N   0  0  0  0  0  0  0  0  0  0  0  0
   19.1149   -3.4508  -16.0263 C   0  0  0  0  0  0  0  0  0  0  0  0
   18.3699   -3.2273  -14.9053 O   0  0  0  0  0  0  0  0  0  0  0  0
   19.8325   -2.4890  -16.4639 O   0  0  0  0  0  0  0  0  0  0  0  0
  2  1  1  6
  2  4  1  0
  3  2  1  0
  4  5  1  1
  6  4  1  0
  6  7  2  0
  8  6  1  0
  9  8  1  0
  9 10  1  1
 11 10  1  0
 12 11  1  0
 13 12  1  0
 13 14  1  0
 15  9  1  0
 16 15  2  0
 18 17  1  0
 18 20  1  0
 19 18  2  0
 21 20  1  6
 21 22  1  0
 22 15  1  0
 23 21  1  0
 24 23  1  0
 25 23  2  0
M  END
$$$$
