VKN.pdb
     RDKit          3D

 25 24  0  0  1  0  0  0  0  0999 V2000
   12.7176  -12.6938  -11.6945 C   0  0  0  0  0  0  0  0  0  0  0  0
   13.9639  -13.0747  -12.4221 C   0  0  1  0  0  0  0  0  0  0  0  0
   13.8151  -12.7689  -13.8904 C   0  0  0  0  0  0  0  0  0  0  0  0
   15.2142  -12.4615  -11.8391 C   0  0  2  0  0  0  0  0  0  0  0  0
   15.5534  -13.1142  -10.5900 N   0  0  0  0  0  0  0  0  0  0  0  0
   15.1274  -10.9919  -11.6864 C   0  0  0  0  0  0  0  0  0  0  0  0
   14.9791  -10.2567  -12.7175 O   0  0  0  0  0  0  0  0  0  0  0  0
   15.1981  -10.3261  -10.4497 N   0  0  0  0  0  0  0  0  0  0  0  0
   15.0988   -8.8376  -10.3257 C   0  0  1  0  0  0  0  0  0  0  0  0
   14.0164   -8.6828   -9.3153 C   0  0  0  0  0  0  0  0  0  0  0  0
   13.7371   -7.3624   -8.7152 C   0  0  0  0  0  0  0  0  0  0  0  0
   12.5103   -7.3739   -7.8684 C   0  0  0  0  0  0  0  0  0  0  0  0
   12.3372   -5.9953   -7.2401 C   0  0  0  0  0  0  0  0  0  0  0  0
   11.1331   -6.1173   -6.4055 N   0  0  0  0  0  0  0  0  0  0  0  0
   16.3687   -8.2411  -10.0811 C   0  0  0  0  0  0  0  0  0  0  0  0
   17.2891   -8.9065   -9.4789 O   0  0  0  0  0  0  0  0  0  0  0  0
   21.2764   -7.4525  -10.5497 N   0  0  0  0  0  0  0  0  0  0  0  0
   20.3235   -7.1537  -11.5594 C   0  0  0  0  0  0  0  0  0  0  0  0
   20.7581   -6.5533  -12.5962 O   0  0  0  0  0  0  0  0  0  0  0  0
   18.9111   -7.5213  -11.4121 C   0  0  0  0  0  0  0  0  0  0  0  0
   18.1847   -6.5481  -10.4842 C   0  0  2  0  0  0  0  0  0  0  0  0
   16.7889   -6.9059  -10.4575 N   0  0  0  0  0  0  0  0  0  0  0  0
   18.4034   -5.1589  -10.9566 C   0  0  0  0  0  0  0  0  0  0  0  0
   19.4017   -4.3201  -10.5547 O   0  0  0  0  0  0  0  0  0  0  0  0
   17.5719   -4.7209  -11.8216 O   0  0  0  0  0  0  0  0  0  0  0  0
  2  1  1  1
  2  4  1  0
  3  2  1  0
  4  5  1  1
  6  4  1  0
  6  7  2  0
  8  6  1  0
  9  8  1  0
  9 10  1  1
 11 10  1  0
 12 11  1  0
 13 12  1  0
 13 14  1  0
 15  9  1  0
 16 15  2  0
 18 17  1  0
 18 20  1  0
 19 18  2  0
 21 20  1  6
 21 22  1  0
 22 15  1  0
 23 21  1  0
 24 23  1  0
 25 23  2  0
M  END
$$$$
