VKN.pdb
     RDKit          3D

 25 24  0  0  1  0  0  0  0  0999 V2000
   18.8210  -25.3978   -8.9269 C   0  0  0  0  0  0  0  0  0  0  0  0
   18.2326  -26.4309   -9.8292 C   0  0  1  0  0  0  0  0  0  0  0  0
   19.0478  -26.5334  -11.0927 C   0  0  0  0  0  0  0  0  0  0  0  0
   18.0432  -27.7739   -9.1661 C   0  0  2  0  0  0  0  0  0  0  0  0
   17.4808  -28.7203  -10.1093 N   0  0  0  0  0  0  0  0  0  0  0  0
   17.2499  -27.7026   -7.9187 C   0  0  0  0  0  0  0  0  0  0  0  0
   16.0045  -27.4354   -7.9758 O   0  0  0  0  0  0  0  0  0  0  0  0
   17.7848  -27.9148   -6.6355 N   0  0  0  0  0  0  0  0  0  0  0  0
   16.9649  -27.8004   -5.3883 C   0  0  1  0  0  0  0  0  0  0  0  0
   17.7789  -28.5740   -4.4109 C   0  0  0  0  0  0  0  0  0  0  0  0
   17.4075  -29.9598   -4.0596 C   0  0  0  0  0  0  0  0  0  0  0  0
   18.3035  -30.5391   -3.0186 C   0  0  0  0  0  0  0  0  0  0  0  0
   17.8772  -31.9788   -2.7529 C   0  0  0  0  0  0  0  0  0  0  0  0
   18.7948  -32.4495   -1.7052 N   0  0  0  0  0  0  0  0  0  0  0  0
   16.6300  -26.4471   -5.0973 C   0  0  0  0  0  0  0  0  0  0  0  0
   17.4784  -25.5087   -5.3262 O   0  0  0  0  0  0  0  0  0  0  0  0
   14.3438  -21.6618   -6.4617 N   0  0  0  0  0  0  0  0  0  0  0  0
   14.0713  -23.0179   -6.1403 C   0  0  0  0  0  0  0  0  0  0  0  0
   12.8438  -23.3512   -6.0603 O   0  0  0  0  0  0  0  0  0  0  0  0
   15.1524  -23.9833   -5.9141 C   0  0  0  0  0  0  0  0  0  0  0  0
   15.0973  -24.5462   -4.4943 C   0  0  2  0  0  0  0  0  0  0  0  0
   15.3768  -25.9585   -4.5572 N   0  0  0  0  0  0  0  0  0  0  0  0
   13.7686  -24.2586   -3.9003 C   0  0  0  0  0  0  0  0  0  0  0  0
   12.8191  -25.1804   -3.5681 O   0  0  0  0  0  0  0  0  0  0  0  0
   13.5031  -23.0280   -3.6840 O   0  0  0  0  0  0  0  0  0  0  0  0
  2  1  1  1
  2  4  1  0
  3  2  1  0
  4  5  1  6
  6  4  1  0
  6  7  2  0
  8  6  1  0
  9  8  1  0
  9 10  1  1
 11 10  1  0
 12 11  1  0
 13 12  1  0
 13 14  1  0
 15  9  1  0
 16 15  2  0
 18 17  1  0
 18 20  1  0
 19 18  2  0
 21 20  1  6
 21 22  1  0
 22 15  1  0
 23 21  1  0
 24 23  1  0
 25 23  2  0
M  END
$$$$
