VKN.pdb
     RDKit          3D

 25 24  0  0  1  0  0  0  0  0999 V2000
   13.7421   -2.4054  -18.0612 C   0  0  0  0  0  0  0  0  0  0  0  0
   14.6440   -3.3883  -17.3918 C   0  0  1  0  0  0  0  0  0  0  0  0
   15.0379   -2.8785  -16.0293 C   0  0  0  0  0  0  0  0  0  0  0  0
   14.0755   -4.7855  -17.3319 C   0  0  2  0  0  0  0  0  0  0  0  0
   12.7897   -4.7719  -16.6627 N   0  0  0  0  0  0  0  0  0  0  0  0
   15.0018   -5.7673  -16.7246 C   0  0  0  0  0  0  0  0  0  0  0  0
   14.7760   -6.2063  -15.5490 O   0  0  0  0  0  0  0  0  0  0  0  0
   16.1476   -6.2675  -17.3686 N   0  0  0  0  0  0  0  0  0  0  0  0
   17.0880   -7.2305  -16.7136 C   0  0  1  0  0  0  0  0  0  0  0  0
   16.9648   -8.4277  -17.5900 C   0  0  0  0  0  0  0  0  0  0  0  0
   17.7805   -9.6313  -17.3305 C   0  0  0  0  0  0  0  0  0  0  0  0
   17.2989  -10.3964  -16.1452 C   0  0  0  0  0  0  0  0  0  0  0  0
   18.1931  -11.6169  -15.9549 C   0  0  0  0  0  0  0  0  0  0  0  0
   17.6563  -12.2867  -14.7613 N   0  0  0  0  0  0  0  0  0  0  0  0
   18.3727   -6.6538  -16.5008 C   0  0  0  0  0  0  0  0  0  0  0  0
   18.9537   -6.0053  -17.4466 O   0  0  0  0  0  0  0  0  0  0  0  0
   22.9818   -5.0461  -14.7796 N   0  0  0  0  0  0  0  0  0  0  0  0
   22.1746   -5.2974  -13.6386 C   0  0  0  0  0  0  0  0  0  0  0  0
   22.6845   -5.0180  -12.5045 O   0  0  0  0  0  0  0  0  0  0  0  0
   20.8215   -5.8499  -13.7647 C   0  0  0  0  0  0  0  0  0  0  0  0
   20.4774   -6.1306  -15.2269 C   0  0  2  0  0  0  0  0  0  0  0  0
   19.1516   -6.6931  -15.2791 N   0  0  0  0  0  0  0  0  0  0  0  0
   21.4987   -7.0350  -15.8098 C   0  0  0  0  0  0  0  0  0  0  0  0
   21.2885   -8.3100  -16.2480 O   0  0  0  0  0  0  0  0  0  0  0  0
   22.6812   -6.5617  -15.9053 O   0  0  0  0  0  0  0  0  0  0  0  0
  2  1  1  1
  2  4  1  0
  3  2  1  0
  4  5  1  1
  6  4  1  0
  6  7  2  0
  8  6  1  0
  9  8  1  0
  9 10  1  6
 11 10  1  0
 12 11  1  0
 13 12  1  0
 13 14  1  0
 15  9  1  0
 16 15  2  0
 18 17  1  0
 18 20  1  0
 19 18  2  0
 21 20  1  1
 21 22  1  0
 22 15  1  0
 23 21  1  0
 24 23  1  0
 25 23  2  0
M  END
$$$$
