VKN.pdb
     RDKit          3D

 25 24  0  0  1  0  0  0  0  0999 V2000
   26.7901  -23.8504  -17.5230 C   0  0  0  0  0  0  0  0  0  0  0  0
   25.2983  -23.8786  -17.4880 C   0  0  1  0  0  0  0  0  0  0  0  0
   24.8081  -25.2970  -17.6270 C   0  0  0  0  0  0  0  0  0  0  0  0
   24.7100  -23.1913  -16.2794 C   0  0  2  0  0  0  0  0  0  0  0  0
   25.3257  -23.6984  -15.0690 N   0  0  0  0  0  0  0  0  0  0  0  0
   23.2333  -23.2736  -16.2220 C   0  0  0  0  0  0  0  0  0  0  0  0
   22.5367  -22.8212  -17.1894 O   0  0  0  0  0  0  0  0  0  0  0  0
   22.5198  -23.8317  -15.1462 N   0  0  0  0  0  0  0  0  0  0  0  0
   21.0240  -23.8571  -15.0941 C   0  0  1  0  0  0  0  0  0  0  0  0
   20.7695  -24.8085  -13.9776 C   0  0  0  0  0  0  0  0  0  0  0  0
   19.3871  -25.1200  -13.5613 C   0  0  0  0  0  0  0  0  0  0  0  0
   19.3423  -26.0700  -12.4134 C   0  0  0  0  0  0  0  0  0  0  0  0
   18.6658  -25.3799  -11.2338 C   0  0  0  0  0  0  0  0  0  0  0  0
   18.6519  -26.3942  -10.1696 N   0  0  0  0  0  0  0  0  0  0  0  0
   20.4744  -22.5449  -15.0283 C   0  0  0  0  0  0  0  0  0  0  0  0
   20.8433  -21.7364  -14.0994 O   0  0  0  0  0  0  0  0  0  0  0  0
   20.4220  -19.7236  -18.9570 N   0  0  0  0  0  0  0  0  0  0  0  0
   20.0157  -19.4451  -17.6251 C   0  0  0  0  0  0  0  0  0  0  0  0
   20.7923  -18.7094  -16.9323 O   0  0  0  0  0  0  0  0  0  0  0  0
   18.7632  -19.9788  -17.0792 C   0  0  0  0  0  0  0  0  0  0  0  0
   18.9927  -20.6328  -15.7171 C   0  0  2  0  0  0  0  0  0  0  0  0
   19.5051  -21.9620  -15.9348 N   0  0  0  0  0  0  0  0  0  0  0  0
   17.7229  -20.6349  -14.9501 C   0  0  0  0  0  0  0  0  0  0  0  0
   17.1635  -19.5636  -14.3166 O   0  0  0  0  0  0  0  0  0  0  0  0
   17.1055  -21.7513  -14.8862 O   0  0  0  0  0  0  0  0  0  0  0  0
  2  1  1  1
  2  4  1  0
  3  2  1  0
  4  5  1  1
  6  4  1  0
  6  7  2  0
  8  6  1  0
  9  8  1  0
  9 10  1  1
 11 10  1  0
 12 11  1  0
 13 12  1  0
 13 14  1  0
 15  9  1  0
 16 15  2  0
 18 17  1  0
 18 20  1  0
 19 18  2  0
 21 20  1  6
 21 22  1  0
 22 15  1  0
 23 21  1  0
 24 23  1  0
 25 23  2  0
M  END
$$$$
