VKN.pdb
     RDKit          3D

 25 24  0  0  1  0  0  0  0  0999 V2000
   23.2601  -14.9877  -20.5138 C   0  0  0  0  0  0  0  0  0  0  0  0
   22.8400  -16.2322  -19.8048 C   0  0  1  0  0  0  0  0  0  0  0  0
   22.7883  -17.3837  -20.7758 C   0  0  0  0  0  0  0  0  0  0  0  0
   23.6824  -16.5498  -18.5929 C   0  0  2  0  0  0  0  0  0  0  0  0
   25.0809  -16.6307  -18.9656 N   0  0  0  0  0  0  0  0  0  0  0  0
   23.2340  -17.7619  -17.8716 C   0  0  0  0  0  0  0  0  0  0  0  0
   22.2659  -18.4511  -18.3339 O   0  0  0  0  0  0  0  0  0  0  0  0
   23.8150  -18.2242  -16.6772 N   0  0  0  0  0  0  0  0  0  0  0  0
   23.2686  -19.3870  -15.9091 C   0  0  1  0  0  0  0  0  0  0  0  0
   24.5069  -20.0029  -15.3578 C   0  0  0  0  0  0  0  0  0  0  0  0
   24.6370  -21.4716  -15.2718 C   0  0  0  0  0  0  0  0  0  0  0  0
   25.8116  -21.9813  -16.0351 C   0  0  0  0  0  0  0  0  0  0  0  0
   25.8843  -23.4951  -15.8672 C   0  0  0  0  0  0  0  0  0  0  0  0
   27.0905  -23.8925  -16.6077 N   0  0  0  0  0  0  0  0  0  0  0  0
   22.2319  -18.9915  -15.0163 C   0  0  0  0  0  0  0  0  0  0  0  0
   22.1081  -17.7577  -14.6772 O   0  0  0  0  0  0  0  0  0  0  0  0
   17.4794  -17.1565  -15.3188 N   0  0  0  0  0  0  0  0  0  0  0  0
   18.4860  -17.3487  -14.3357 C   0  0  0  0  0  0  0  0  0  0  0  0
   18.2027  -16.9830  -13.1482 O   0  0  0  0  0  0  0  0  0  0  0  0
   19.7846  -17.9404  -14.6751 C   0  0  0  0  0  0  0  0  0  0  0  0
   19.9289  -19.3341  -14.0650 C   0  0  2  0  0  0  0  0  0  0  0  0
   21.2291  -19.8479  -14.4147 N   0  0  0  0  0  0  0  0  0  0  0  0
   18.8285  -20.2023  -14.5510 C   0  0  0  0  0  0  0  0  0  0  0  0
   18.5772  -20.5311  -15.8512 O   0  0  0  0  0  0  0  0  0  0  0  0
   18.0519  -20.6807  -13.6568 O   0  0  0  0  0  0  0  0  0  0  0  0
  2  1  1  6
  2  4  1  0
  3  2  1  0
  4  5  1  6
  6  4  1  0
  6  7  2  0
  8  6  1  0
  9  8  1  0
  9 10  1  1
 11 10  1  0
 12 11  1  0
 13 12  1  0
 13 14  1  0
 15  9  1  0
 16 15  2  0
 18 17  1  0
 18 20  1  0
 19 18  2  0
 21 20  1  6
 21 22  1  0
 22 15  1  0
 23 21  1  0
 24 23  1  0
 25 23  2  0
M  END
$$$$
