WVF.pdb
     RDKit          3D

 33 35  0  0  1  0  0  0  0  0999 V2000
    6.0500  -19.7648   21.7382 N   0  0  0  0  0  0  0  0  0  0  0  0
    6.0607  -18.4929   22.4774 C   0  0  1  0  0  0  0  0  0  0  0  0
    6.1805  -18.8071   23.9379 C   0  0  0  0  0  0  0  0  0  0  0  0
    6.3860  -17.6759   24.8375 C   0  0  0  0  0  0  0  0  0  0  0  0
    5.4850  -16.6255   24.9536 C   0  0  0  0  0  0  0  0  0  0  0  0
    5.9867  -15.7410   25.8378 N   0  0  0  0  0  0  0  0  0  0  0  0
    7.1696  -16.1705   26.2994 C   0  0  0  0  0  0  0  0  0  0  0  0
    8.0246  -15.6060   27.2158 C   0  0  0  0  0  0  0  0  0  0  0  0
    9.1979  -16.2452   27.5569 C   0  0  0  0  0  0  0  0  0  0  0  0
    9.4524  -17.4617   26.9321 C   0  0  0  0  0  0  0  0  0  0  0  0
    8.5867  -18.0129   26.0166 C   0  0  0  0  0  0  0  0  0  0  0  0
    7.4262  -17.3797   25.6791 C   0  0  0  0  0  0  0  0  0  0  0  0
    7.1534  -17.6530   21.9672 C   0  0  0  0  0  0  0  0  0  0  0  0
    8.2330  -18.1948   21.5366 O   0  0  0  0  0  0  0  0  0  0  0  0
    6.4227  -14.2548   19.9269 C   0  0  0  0  0  0  0  0  0  0  0  0
    7.4891  -14.1414   20.9798 C   0  0  2  0  0  0  0  0  0  0  0  0
    8.5243  -13.1514   20.4961 C   0  0  0  0  0  0  0  0  0  0  0  0
    8.1237  -15.4700   21.3497 C   0  0  2  0  0  0  0  0  0  0  0  0
    7.0304  -16.2395   21.9445 N   0  0  0  0  0  0  0  0  0  0  0  0
    9.2445  -15.3432   22.2960 C   0  0  0  0  0  0  0  0  0  0  0  0
   10.3256  -14.7986   21.8773 O   0  0  0  0  0  0  0  0  0  0  0  0
    9.2768  -15.7537   23.6371 N   0  0  0  0  0  0  0  0  0  0  0  0
   10.3816  -15.4924   24.5392 C   0  0  1  0  0  0  0  0  0  0  0  0
    9.7647  -15.4125   25.9417 C   0  0  0  0  0  0  0  0  0  0  0  0
    8.8755  -14.2305   26.0739 C   0  0  0  0  0  0  0  0  0  0  0  0
    9.2213  -12.9904   25.5572 C   0  0  0  0  0  0  0  0  0  0  0  0
    8.3990  -11.8912   25.6791 C   0  0  0  0  0  0  0  0  0  0  0  0
    7.1853  -11.9815   26.3273 C   0  0  0  0  0  0  0  0  0  0  0  0
    6.8356  -13.2141   26.8439 C   0  0  0  0  0  0  0  0  0  0  0  0
    7.6625  -14.3253   26.7229 C   0  0  0  0  0  0  0  0  0  0  0  0
   11.3625  -16.5782   24.5688 C   0  0  0  0  0  0  0  0  0  0  0  0
   12.5356  -16.5396   25.3042 O   0  0  0  0  0  0  0  0  0  0  0  0
   11.1413  -17.6155   23.8916 O   0  0  0  0  0  0  0  0  0  0  0  0
  2  1  1  6
  2  3  1  0
  3  4  1  0
  4  5  2  0
  5  6  1  0
  7  6  1  0
  8  7  2  0
  9  8  1  0
 10 11  1  0
 10  9  2  0
 11 12  2  0
 12  4  1  0
 12  7  1  0
 13  2  1  0
 14 13  2  0
 16 15  1  6
 16 17  1  0
 18 19  1  1
 18 16  1  0
 19 13  1  0
 20 18  1  0
 21 20  2  0
 22 20  1  0
 23 22  1  0
 24 25  1  0
 23 24  1  1
 25 26  2  0
 26 27  1  0
 28 27  2  0
 29 28  1  0
 30 29  2  0
 30 25  1  0
 31 23  1  0
 31 32  1  0
 33 31  2  0
M  END
$$$$
