WVF.pdb
     RDKit          3D

 33 35  0  0  1  0  0  0  0  0999 V2000
    6.4060  -18.0908   25.0127 N   0  0  0  0  0  0  0  0  0  0  0  0
    7.0189  -16.8561   24.4989 C   0  0  1  0  0  0  0  0  0  0  0  0
    7.3705  -15.9910   25.6711 C   0  0  0  0  0  0  0  0  0  0  0  0
    6.4759  -14.8722   25.9523 C   0  0  0  0  0  0  0  0  0  0  0  0
    5.3715  -14.9754   26.7880 C   0  0  0  0  0  0  0  0  0  0  0  0
    4.7487  -13.7806   26.8061 N   0  0  0  0  0  0  0  0  0  0  0  0
    5.3988  -12.9094   26.0217 C   0  0  0  0  0  0  0  0  0  0  0  0
    5.1353  -11.5876   25.7518 C   0  0  0  0  0  0  0  0  0  0  0  0
    5.9640  -10.8710   24.9143 C   0  0  0  0  0  0  0  0  0  0  0  0
    7.0511  -11.5522   24.3766 C   0  0  0  0  0  0  0  0  0  0  0  0
    7.3007  -12.8754   24.6563 C   0  0  0  0  0  0  0  0  0  0  0  0
    6.4800  -13.5840   25.4845 C   0  0  0  0  0  0  0  0  0  0  0  0
    8.1753  -17.2087   23.6632 C   0  0  0  0  0  0  0  0  0  0  0  0
    8.8795  -18.2430   23.9439 O   0  0  0  0  0  0  0  0  0  0  0  0
    8.4210  -16.0931   19.8314 C   0  0  0  0  0  0  0  0  0  0  0  0
    9.7181  -15.9214   20.5709 C   0  0  2  0  0  0  0  0  0  0  0  0
   10.8459  -16.2920   19.6348 C   0  0  0  0  0  0  0  0  0  0  0  0
    9.7904  -16.7115   21.8653 C   0  0  2  0  0  0  0  0  0  0  0  0
    8.5271  -16.4143   22.5411 N   0  0  0  0  0  0  0  0  0  0  0  0
   10.9340  -16.3427   22.7162 C   0  0  0  0  0  0  0  0  0  0  0  0
   11.5111  -15.2211   22.4941 O   0  0  0  0  0  0  0  0  0  0  0  0
   11.4848  -17.0861   23.7708 N   0  0  0  0  0  0  0  0  0  0  0  0
   12.7759  -16.8101   24.3703 C   0  0  1  0  0  0  0  0  0  0  0  0
   12.6043  -15.4965   25.1441 C   0  0  0  0  0  0  0  0  0  0  0  0
   11.6655  -15.6595   26.2830 C   0  0  0  0  0  0  0  0  0  0  0  0
   10.2902  -15.5858   26.1171 C   0  0  0  0  0  0  0  0  0  0  0  0
    9.4163  -15.7354   27.1721 C   0  0  0  0  0  0  0  0  0  0  0  0
    9.8798  -15.9671   28.4500 C   0  0  0  0  0  0  0  0  0  0  0  0
   11.2485  -16.0416   28.6213 C   0  0  0  0  0  0  0  0  0  0  0  0
   12.1334  -15.8911   27.5594 C   0  0  0  0  0  0  0  0  0  0  0  0
   13.1813  -17.8254   25.3434 C   0  0  0  0  0  0  0  0  0  0  0  0
   12.4088  -18.9246   25.6801 O   0  0  0  0  0  0  0  0  0  0  0  0
   14.2953  -17.7072   25.9165 O   0  0  0  0  0  0  0  0  0  0  0  0
  2  1  1  1
  2  3  1  0
  3  4  1  0
  4  5  2  0
  5  6  1  0
  7  6  1  0
  8  7  2  0
  9  8  1  0
 10 11  1  0
 10  9  2  0
 11 12  2  0
 12  4  1  0
 12  7  1  0
 13  2  1  0
 14 13  2  0
 16 15  1  6
 16 17  1  0
 18 19  1  1
 18 16  1  0
 19 13  1  0
 20 18  1  0
 21 20  2  0
 22 20  1  0
 23 22  1  0
 24 25  1  0
 23 24  1  1
 25 26  2  0
 26 27  1  0
 28 27  2  0
 29 28  1  0
 30 29  2  0
 30 25  1  0
 31 23  1  0
 31 32  1  0
 33 31  2  0
M  END
$$$$
