MLC.pdb
     RDKit          3D

 23 22  0  0  1  0  0  0  0  0999 V2000
   18.3701  -13.8457  -22.2293 C   0  0  0  0  0  0  0  0  0  0  0  0
   18.5602  -12.5974  -20.9369 S   0  0  0  0  0  0  0  0  0  0  0  0
   19.9269  -13.0026  -19.8113 C   0  0  0  0  0  0  0  0  0  0  0  0
   20.1444  -11.9012  -18.7969 C   0  0  0  0  0  0  0  0  0  0  0  0
   21.3012  -12.2569  -17.8646 C   0  0  2  0  0  0  0  0  0  0  0  0
   20.8909  -13.3673  -17.0067 N   0  0  0  0  0  0  0  0  0  0  0  0
   21.6649  -11.1509  -16.9635 C   0  0  0  0  0  0  0  0  0  0  0  0
   21.0126  -10.8074  -15.9511 O   0  0  0  0  0  0  0  0  0  0  0  0
   26.9701   -9.8179  -15.8790 C   0  0  0  0  0  0  0  0  0  0  0  0
   25.4980  -10.1063  -15.8454 C   0  0  1  0  0  0  0  0  0  0  0  0
   25.1441  -10.5478  -14.4310 C   0  0  0  0  0  0  0  0  0  0  0  0
   24.6616   -8.9321  -16.2749 C   0  0  0  0  0  0  0  0  0  0  0  0
   23.2297   -9.2469  -16.4630 C   0  0  2  0  0  0  0  0  0  0  0  0
   22.8654  -10.3746  -17.2266 N   0  0  0  0  0  0  0  0  0  0  0  0
   22.3397   -8.0942  -16.7007 C   0  0  0  0  0  0  0  0  0  0  0  0
   22.1938   -7.6312  -17.8616 O   0  0  0  0  0  0  0  0  0  0  0  0
   21.6430   -7.4852  -15.6413 N   0  0  0  0  0  0  0  0  0  0  0  0
   20.7512   -6.3658  -15.9202 C   0  0  1  0  0  0  0  0  0  0  0  0
   19.4691   -6.4917  -15.1658 C   0  0  0  0  0  0  0  0  0  0  0  0
   18.6130   -8.0165  -15.6338 S   0  0  0  0  0  0  0  0  0  0  0  0
   21.3764   -5.0631  -15.5766 C   0  0  0  0  0  0  0  0  0  0  0  0
   22.5346   -5.1074  -15.0918 O   0  0  0  0  0  0  0  0  0  0  0  0
   20.7173   -3.8483  -15.7789 O   0  0  0  0  0  0  0  0  0  0  0  0
  2  1  1  0
  3  2  1  0
  4  3  1  0
  5  4  1  0
  5  7  1  0
  5  6  1  1
  7 14  1  0
  7  8  2  0
 10  9  1  1
 10 11  1  0
 12 10  1  0
 13 12  1  6
 14 13  1  0
 15 13  1  0
 15 17  1  0
 16 15  2  0
 18 21  1  0
 18 19  1  1
 18 17  1  0
 20 19  1  0
 21 23  1  0
 22 21  2  0
M  END
$$$$
