MLC.pdb
     RDKit          3D

 23 22  0  0  1  0  0  0  0  0999 V2000
   23.8015  -19.5814  -20.3653 C   0  0  0  0  0  0  0  0  0  0  0  0
   23.8277  -17.7818  -20.2059 S   0  0  0  0  0  0  0  0  0  0  0  0
   24.1967  -17.2664  -18.5038 C   0  0  0  0  0  0  0  0  0  0  0  0
   24.3756  -18.4640  -17.5966 C   0  0  0  0  0  0  0  0  0  0  0  0
   23.1814  -18.6009  -16.6537 C   0  0  2  0  0  0  0  0  0  0  0  0
   23.3194  -17.6254  -15.5736 N   0  0  0  0  0  0  0  0  0  0  0  0
   23.1147  -19.9234  -16.0102 C   0  0  0  0  0  0  0  0  0  0  0  0
   23.1296  -21.0179  -16.6187 O   0  0  0  0  0  0  0  0  0  0  0  0
   25.9665  -21.2825  -11.5504 C   0  0  0  0  0  0  0  0  0  0  0  0
   25.2023  -21.2358  -12.8408 C   0  0  1  0  0  0  0  0  0  0  0  0
   25.8064  -22.2763  -13.7753 C   0  0  0  0  0  0  0  0  0  0  0  0
   23.7266  -21.4610  -12.6558 C   0  0  0  0  0  0  0  0  0  0  0  0
   22.9242  -21.2427  -13.8778 C   0  0  2  0  0  0  0  0  0  0  0  0
   23.0289  -20.0146  -14.5620 N   0  0  0  0  0  0  0  0  0  0  0  0
   21.5395  -21.7513  -13.8418 C   0  0  0  0  0  0  0  0  0  0  0  0
   21.3128  -22.9636  -13.5923 O   0  0  0  0  0  0  0  0  0  0  0  0
   20.4474  -20.9002  -14.0906 N   0  0  0  0  0  0  0  0  0  0  0  0
   19.0983  -21.4531  -14.1102 C   0  0  1  0  0  0  0  0  0  0  0  0
   18.4737  -21.4096  -12.7550 C   0  0  0  0  0  0  0  0  0  0  0  0
   18.2947  -23.0848  -12.0927 S   0  0  0  0  0  0  0  0  0  0  0  0
   18.2179  -20.7267  -15.0605 C   0  0  0  0  0  0  0  0  0  0  0  0
   18.7190  -19.7311  -15.6404 O   0  0  0  0  0  0  0  0  0  0  0  0
   16.9007  -21.1236  -15.3020 O   0  0  0  0  0  0  0  0  0  0  0  0
  2  1  1  0
  3  2  1  0
  4  3  1  0
  5  4  1  0
  5  7  1  0
  5  6  1  1
  7 14  1  0
  7  8  2  0
 10  9  1  1
 10 11  1  0
 12 10  1  0
 13 12  1  1
 14 13  1  0
 15 13  1  0
 15 17  1  0
 16 15  2  0
 18 21  1  0
 18 19  1  1
 18 17  1  0
 20 19  1  0
 21 23  1  0
 22 21  2  0
M  END
$$$$
