MLC.pdb
     RDKit          3D

 23 22  0  0  1  0  0  0  0  0999 V2000
   26.1008  -16.3945  -18.2162 C   0  0  0  0  0  0  0  0  0  0  0  0
   27.8168  -16.3008  -17.6583 S   0  0  0  0  0  0  0  0  0  0  0  0
   28.2428  -17.6904  -16.5690 C   0  0  0  0  0  0  0  0  0  0  0  0
   26.9995  -18.3668  -16.0343 C   0  0  0  0  0  0  0  0  0  0  0  0
   27.3777  -19.5530  -15.1489 C   0  0  2  0  0  0  0  0  0  0  0  0
   28.0017  -20.5813  -15.9799 N   0  0  0  0  0  0  0  0  0  0  0  0
   26.2080  -20.1857  -14.5172 C   0  0  0  0  0  0  0  0  0  0  0  0
   25.5311  -21.1088  -15.0251 O   0  0  0  0  0  0  0  0  0  0  0  0
   25.9608  -20.5216   -8.9244 C   0  0  0  0  0  0  0  0  0  0  0  0
   25.9485  -20.7258  -10.4109 C   0  0  1  0  0  0  0  0  0  0  0  0
   26.2434  -22.1961  -10.6794 C   0  0  0  0  0  0  0  0  0  0  0  0
   24.6530  -20.3047  -11.0489 C   0  0  0  0  0  0  0  0  0  0  0  0
   24.6763  -20.3139  -12.5268 C   0  0  2  0  0  0  0  0  0  0  0  0
   25.7725  -19.7413  -13.2034 N   0  0  0  0  0  0  0  0  0  0  0  0
   23.3917  -20.0321  -13.1958 C   0  0  0  0  0  0  0  0  0  0  0  0
   23.1253  -18.8703  -13.5992 O   0  0  0  0  0  0  0  0  0  0  0  0
   22.4377  -21.0471  -13.3913 N   0  0  0  0  0  0  0  0  0  0  0  0
   21.1862  -20.7328  -14.0704 C   0  0  1  0  0  0  0  0  0  0  0  0
   21.3354  -20.8219  -15.5531 C   0  0  0  0  0  0  0  0  0  0  0  0
   22.1597  -22.3678  -16.0087 S   0  0  0  0  0  0  0  0  0  0  0  0
   20.0873  -21.6393  -13.6501 C   0  0  0  0  0  0  0  0  0  0  0  0
   20.4021  -22.5854  -12.8857 O   0  0  0  0  0  0  0  0  0  0  0  0
   18.7705  -21.4559  -14.0781 O   0  0  0  0  0  0  0  0  0  0  0  0
  2  1  1  0
  3  2  1  0
  4  3  1  0
  5  4  1  0
  5  7  1  0
  5  6  1  6
  7 14  1  0
  7  8  2  0
 10  9  1  1
 10 11  1  0
 12 10  1  0
 13 12  1  1
 14 13  1  0
 15 13  1  0
 15 17  1  0
 16 15  2  0
 18 21  1  0
 18 19  1  6
 18 17  1  0
 20 19  1  0
 21 23  1  0
 22 21  2  0
M  END
$$$$
