MLC.pdb
     RDKit          3D

 23 22  0  0  1  0  0  0  0  0999 V2000
   21.5878  -12.3422    6.7915 C   0  0  0  0  0  0  0  0  0  0  0  0
   20.1078  -11.3059    6.7723 S   0  0  0  0  0  0  0  0  0  0  0  0
   18.9361  -11.8368    5.4900 C   0  0  0  0  0  0  0  0  0  0  0  0
   18.4515  -13.2477    5.7428 C   0  0  0  0  0  0  0  0  0  0  0  0
   17.5241  -13.7019    4.6169 C   0  0  2  0  0  0  0  0  0  0  0  0
   16.2688  -12.9585    4.7113 N   0  0  0  0  0  0  0  0  0  0  0  0
   17.1688  -15.1273    4.7141 C   0  0  0  0  0  0  0  0  0  0  0  0
   16.1388  -15.5727    5.2702 O   0  0  0  0  0  0  0  0  0  0  0  0
   18.3544  -18.9585    0.7591 C   0  0  0  0  0  0  0  0  0  0  0  0
   17.6956  -18.1697    1.8523 C   0  0  1  0  0  0  0  0  0  0  0  0
   16.2099  -18.5059    1.8360 C   0  0  0  0  0  0  0  0  0  0  0  0
   18.2981  -18.4291    3.2060 C   0  0  0  0  0  0  0  0  0  0  0  0
   17.8224  -17.5137    4.2645 C   0  0  2  0  0  0  0  0  0  0  0  0
   18.0470  -16.1284    4.1312 N   0  0  0  0  0  0  0  0  0  0  0  0
   17.9995  -17.9821    5.6525 C   0  0  0  0  0  0  0  0  0  0  0  0
   19.0513  -17.7095    6.2872 O   0  0  0  0  0  0  0  0  0  0  0  0
   17.0063  -18.7451    6.2929 N   0  0  0  0  0  0  0  0  0  0  0  0
   17.2557  -19.2671    7.6313 C   0  0  1  0  0  0  0  0  0  0  0  0
   16.1145  -18.9768    8.5490 C   0  0  0  0  0  0  0  0  0  0  0  0
   15.9814  -17.1951    8.8403 S   0  0  0  0  0  0  0  0  0  0  0  0
   17.4901  -20.7336    7.6171 C   0  0  0  0  0  0  0  0  0  0  0  0
   17.2999  -21.3214    6.5230 O   0  0  0  0  0  0  0  0  0  0  0  0
   17.9004  -21.4298    8.7563 O   0  0  0  0  0  0  0  0  0  0  0  0
  2  1  1  0
  3  2  1  0
  4  3  1  0
  5  4  1  0
  5  7  1  0
  5  6  1  1
  7 14  1  0
  7  8  2  0
 10  9  1  6
 10 11  1  0
 12 10  1  0
 13 12  1  6
 14 13  1  0
 15 13  1  0
 15 17  1  0
 16 15  2  0
 18 21  1  0
 18 19  1  1
 18 17  1  0
 20 19  1  0
 21 23  1  0
 22 21  2  0
M  END
$$$$
