MLC.pdb
     RDKit          3D

 23 22  0  0  1  0  0  0  0  0999 V2000
   21.3380  -12.1183  -23.9520 C   0  0  0  0  0  0  0  0  0  0  0  0
   22.1763  -13.2217  -22.7924 S   0  0  0  0  0  0  0  0  0  0  0  0
   23.2598  -12.3037  -21.6600 C   0  0  0  0  0  0  0  0  0  0  0  0
   22.5063  -11.8526  -20.4280 C   0  0  0  0  0  0  0  0  0  0  0  0
   23.1795  -10.6280  -19.8108 C   0  0  2  0  0  0  0  0  0  0  0  0
   24.5071  -11.0105  -19.3329 N   0  0  0  0  0  0  0  0  0  0  0  0
   22.4523  -10.1098  -18.6401 C   0  0  0  0  0  0  0  0  0  0  0  0
   21.2242   -9.8661  -18.6097 O   0  0  0  0  0  0  0  0  0  0  0  0
   23.8182  -11.4969  -13.3778 C   0  0  0  0  0  0  0  0  0  0  0  0
   23.0998  -11.1505  -14.6487 C   0  0  1  0  0  0  0  0  0  0  0  0
   21.6911  -11.7229  -14.5559 C   0  0  0  0  0  0  0  0  0  0  0  0
   23.0699   -9.6712  -14.9198 C   0  0  0  0  0  0  0  0  0  0  0  0
   22.5531   -9.3123  -16.2573 C   0  0  2  0  0  0  0  0  0  0  0  0
   23.1716   -9.8512  -17.4038 N   0  0  0  0  0  0  0  0  0  0  0  0
   22.1568   -7.9029  -16.4409 C   0  0  0  0  0  0  0  0  0  0  0  0
   22.9011   -7.1095  -17.0734 O   0  0  0  0  0  0  0  0  0  0  0  0
   20.9489   -7.4141  -15.9112 N   0  0  0  0  0  0  0  0  0  0  0  0
   20.5358   -6.0483  -16.2113 C   0  0  1  0  0  0  0  0  0  0  0  0
   20.3276   -5.8533  -17.6767 C   0  0  0  0  0  0  0  0  0  0  0  0
   19.7421   -4.1729  -18.0090 S   0  0  0  0  0  0  0  0  0  0  0  0
   19.2829   -5.6822  -15.5026 C   0  0  0  0  0  0  0  0  0  0  0  0
   18.5245   -6.6300  -15.1782 O   0  0  0  0  0  0  0  0  0  0  0  0
   18.9579   -4.3560  -15.2087 O   0  0  0  0  0  0  0  0  0  0  0  0
  2  1  1  0
  3  2  1  0
  4  3  1  0
  5  4  1  0
  5  7  1  0
  5  6  1  1
  7 14  1  0
  7  8  2  0
 10  9  1  1
 10 11  1  0
 12 10  1  0
 13 12  1  1
 14 13  1  0
 15 13  1  0
 15 17  1  0
 16 15  2  0
 18 21  1  0
 18 19  1  6
 18 17  1  0
 20 19  1  0
 21 23  1  0
 22 21  2  0
M  END
$$$$
