MLC.pdb
     RDKit          3D

 23 22  0  0  1  0  0  0  0  0999 V2000
   27.5704  -25.8048  -15.7729 C   0  0  0  0  0  0  0  0  0  0  0  0
   27.8404  -25.5680  -17.5437 S   0  0  0  0  0  0  0  0  0  0  0  0
   27.2855  -23.9275  -18.0914 C   0  0  0  0  0  0  0  0  0  0  0  0
   26.9525  -23.0410  -16.9113 C   0  0  0  0  0  0  0  0  0  0  0  0
   25.6274  -22.3178  -17.1458 C   0  0  2  0  0  0  0  0  0  0  0  0
   25.7686  -21.4393  -18.3058 N   0  0  0  0  0  0  0  0  0  0  0  0
   25.2445  -21.4536  -16.0170 C   0  0  0  0  0  0  0  0  0  0  0  0
   25.0263  -21.8535  -14.8505 O   0  0  0  0  0  0  0  0  0  0  0  0
   27.5623  -16.6502  -15.8675 C   0  0  0  0  0  0  0  0  0  0  0  0
   26.9698  -17.9921  -15.5521 C   0  0  1  0  0  0  0  0  0  0  0  0
   27.9028  -18.6923  -14.5723 C   0  0  0  0  0  0  0  0  0  0  0  0
   25.5723  -17.9006  -15.0029 C   0  0  0  0  0  0  0  0  0  0  0  0
   24.7698  -19.1283  -15.1856 C   0  0  2  0  0  0  0  0  0  0  0  0
   25.1018  -20.0219  -16.2240 N   0  0  0  0  0  0  0  0  0  0  0  0
   23.3117  -18.9792  -15.0154 C   0  0  0  0  0  0  0  0  0  0  0  0
   22.8479  -18.3000  -14.0630 O   0  0  0  0  0  0  0  0  0  0  0  0
   22.4110  -19.5942  -15.9038 N   0  0  0  0  0  0  0  0  0  0  0  0
   20.9769  -19.4257  -15.7009 C   0  0  1  0  0  0  0  0  0  0  0  0
   20.3053  -18.9444  -16.9443 C   0  0  0  0  0  0  0  0  0  0  0  0
   21.1072  -17.4378  -17.5475 S   0  0  0  0  0  0  0  0  0  0  0  0
   20.3277  -20.6907  -15.2718 C   0  0  0  0  0  0  0  0  0  0  0  0
   21.0704  -21.7001  -15.1826 O   0  0  0  0  0  0  0  0  0  0  0  0
   18.9635  -20.7621  -14.9808 O   0  0  0  0  0  0  0  0  0  0  0  0
  2  1  1  0
  3  2  1  0
  4  3  1  0
  5  4  1  0
  5  7  1  0
  5  6  1  6
  7 14  1  0
  7  8  2  0
 10  9  1  1
 10 11  1  0
 12 10  1  0
 13 12  1  6
 14 13  1  0
 15 13  1  0
 15 17  1  0
 16 15  2  0
 18 21  1  0
 18 19  1  6
 18 17  1  0
 20 19  1  0
 21 23  1  0
 22 21  2  0
M  END
$$$$
