WYN.pdb
     RDKit          3D

 35 37  0  0  1  0  0  0  0  0999 V2000
    6.9196  -16.8933   25.8064 N   0  0  0  0  0  0  0  0  0  0  0  0
    7.3776  -16.1625   24.6225 C   0  0  1  0  0  0  0  0  0  0  0  0
    8.4973  -15.2089   24.9863 C   0  0  0  0  0  0  0  0  0  0  0  0
    8.2405  -14.4793   26.2289 C   0  0  0  0  0  0  0  0  0  0  0  0
    8.6552  -14.7952   27.5195 C   0  0  0  0  0  0  0  0  0  0  0  0
    8.2072  -13.8708   28.3556 N   0  0  0  0  0  0  0  0  0  0  0  0
    7.5057  -12.9348   27.7092 C   0  0  0  0  0  0  0  0  0  0  0  0
    6.8537  -11.7942   28.1414 C   0  0  0  0  0  0  0  0  0  0  0  0
    6.2174  -11.0422   27.1807 C   0  0  0  0  0  0  0  0  0  0  0  0
    6.2116  -11.3828   25.8421 C   0  0  0  0  0  0  0  0  0  0  0  0
    6.8623  -12.5116   25.4482 C   0  0  0  0  0  0  0  0  0  0  0  0
    7.5208  -13.3111   26.3615 C   0  0  0  0  0  0  0  0  0  0  0  0
    7.7937  -17.1056   23.5531 C   0  0  0  0  0  0  0  0  0  0  0  0
    7.1081  -18.1502   23.4210 O   0  0  0  0  0  0  0  0  0  0  0  0
    7.5538  -12.6029   16.2047 O   0  0  0  0  0  0  0  0  0  0  0  0
    7.7082  -13.2159   17.4610 C   0  0  0  0  0  0  0  0  0  0  0  0
    7.4038  -12.5301   18.6166 C   0  0  0  0  0  0  0  0  0  0  0  0
    7.5540  -13.1297   19.8656 C   0  0  0  0  0  0  0  0  0  0  0  0
    8.0114  -14.4261   19.9832 C   0  0  0  0  0  0  0  0  0  0  0  0
    8.1445  -14.9904   21.3366 C   0  0  0  0  0  0  0  0  0  0  0  0
    8.8312  -16.3159   21.3923 C   0  0  2  0  0  0  0  0  0  0  0  0
    8.8813  -16.9135   22.6953 N   0  0  0  0  0  0  0  0  0  0  0  0
   10.2274  -16.1060   20.9216 C   0  0  0  0  0  0  0  0  0  0  0  0
   10.5030  -16.0507   19.6766 O   0  0  0  0  0  0  0  0  0  0  0  0
    8.3131  -15.1055   18.8378 C   0  0  0  0  0  0  0  0  0  0  0  0
    8.1643  -14.5094   17.5839 C   0  0  0  0  0  0  0  0  0  0  0  0
   12.7200  -15.5873   19.0046 N   0  0  0  0  0  0  0  0  0  0  0  0
   13.2605  -14.7153   19.9863 C   0  0  0  0  0  0  0  0  0  0  0  0
   13.5035  -13.5266   19.7263 O   0  0  0  0  0  0  0  0  0  0  0  0
   13.5347  -15.2383   21.3334 C   0  0  0  0  0  0  0  0  0  0  0  0
   12.6563  -16.4450   21.5733 C   0  0  2  0  0  0  0  0  0  0  0  0
   11.3010  -15.9593   21.8281 N   0  0  0  0  0  0  0  0  0  0  0  0
   13.0638  -17.2857   22.6923 C   0  0  0  0  0  0  0  0  0  0  0  0
   14.2732  -17.9844   22.7652 O   0  0  0  0  0  0  0  0  0  0  0  0
   12.3007  -17.4183   23.6819 O   0  0  0  0  0  0  0  0  0  0  0  0
  2  1  1  1
  3  4  1  0
  3  2  1  0
  4  5  2  0
  5  6  1  0
  7  6  1  0
  8  7  2  0
  9  8  1  0
 10 11  1  0
 10  9  2  0
 11 12  2  0
 12  4  1  0
 12  7  1  0
 13  2  1  0
 13 22  1  0
 14 13  2  0
 15 16  1  0
 16 17  2  0
 17 18  1  0
 19 20  1  0
 19 18  2  0
 21 20  1  1
 21 22  1  0
 21 23  1  0
 23 32  1  0
 24 23  2  0
 25 19  1  0
 26 25  2  0
 26 16  1  0
 28 27  1  0
 29 28  2  0
 30 28  1  0
 31 33  1  0
 31 30  1  1
 32 31  1  0
 33 34  1  0
 35 33  2  0
M  END
$$$$
