WYN.pdb
     RDKit          3D

 35 37  0  0  1  0  0  0  0  0999 V2000
    7.4368  -18.2249   25.7964 N   0  0  0  0  0  0  0  0  0  0  0  0
    7.6093  -16.8206   25.4176 C   0  0  1  0  0  0  0  0  0  0  0  0
    8.8128  -16.2245   26.1188 C   0  0  0  0  0  0  0  0  0  0  0  0
    8.4483  -15.2107   27.1095 C   0  0  0  0  0  0  0  0  0  0  0  0
    8.6943  -15.2116   28.4795 C   0  0  0  0  0  0  0  0  0  0  0  0
    8.1967  -14.1039   29.0085 N   0  0  0  0  0  0  0  0  0  0  0  0
    7.6208  -13.3401   28.0752 C   0  0  0  0  0  0  0  0  0  0  0  0
    6.9781  -12.1170   28.1382 C   0  0  0  0  0  0  0  0  0  0  0  0
    6.4947  -11.6090   26.9543 C   0  0  0  0  0  0  0  0  0  0  0  0
    6.6286  -12.2640   25.7456 C   0  0  0  0  0  0  0  0  0  0  0  0
    7.2660  -13.4664   25.7166 C   0  0  0  0  0  0  0  0  0  0  0  0
    7.7747  -14.0323   26.8689 C   0  0  0  0  0  0  0  0  0  0  0  0
    7.7185  -16.6855   23.9424 C   0  0  0  0  0  0  0  0  0  0  0  0
    7.8205  -17.7497   23.2823 O   0  0  0  0  0  0  0  0  0  0  0  0
    8.0347  -13.0609   15.7491 O   0  0  0  0  0  0  0  0  0  0  0  0
    7.8842  -13.2912   17.1282 C   0  0  0  0  0  0  0  0  0  0  0  0
    8.5509  -12.5084   18.0455 C   0  0  0  0  0  0  0  0  0  0  0  0
    8.4076  -12.7297   19.4139 C   0  0  0  0  0  0  0  0  0  0  0  0
    7.5954  -13.7377   19.8915 C   0  0  0  0  0  0  0  0  0  0  0  0
    7.4956  -13.9102   21.3502 C   0  0  0  0  0  0  0  0  0  0  0  0
    7.6645  -15.3174   21.8225 C   0  0  2  0  0  0  0  0  0  0  0  0
    7.7160  -15.4719   23.2475 N   0  0  0  0  0  0  0  0  0  0  0  0
    8.9441  -15.8200   21.2525 C   0  0  0  0  0  0  0  0  0  0  0  0
    9.0478  -16.1047   20.0126 O   0  0  0  0  0  0  0  0  0  0  0  0
    6.9349  -14.5133   18.9822 C   0  0  0  0  0  0  0  0  0  0  0  0
    7.0748  -14.2957   17.6101 C   0  0  0  0  0  0  0  0  0  0  0  0
   14.1316  -14.5855   20.1902 N   0  0  0  0  0  0  0  0  0  0  0  0
   13.0395  -15.4457   19.9006 C   0  0  0  0  0  0  0  0  0  0  0  0
   13.1717  -16.4196   19.1431 O   0  0  0  0  0  0  0  0  0  0  0  0
   11.7311  -15.1704   20.5135 C   0  0  0  0  0  0  0  0  0  0  0  0
   11.4295  -16.2560   21.5212 C   0  0  2  0  0  0  0  0  0  0  0  0
   10.0923  -16.0020   22.0553 N   0  0  0  0  0  0  0  0  0  0  0  0
   12.3653  -16.3329   22.6363 C   0  0  0  0  0  0  0  0  0  0  0  0
   13.7351  -16.0647   22.5472 O   0  0  0  0  0  0  0  0  0  0  0  0
   11.9503  -16.6611   23.7762 O   0  0  0  0  0  0  0  0  0  0  0  0
  2  1  1  6
  3  4  1  0
  3  2  1  0
  4  5  2  0
  5  6  1  0
  7  6  1  0
  8  7  2  0
  9  8  1  0
 10 11  1  0
 10  9  2  0
 11 12  2  0
 12  4  1  0
 12  7  1  0
 13  2  1  0
 13 22  1  0
 14 13  2  0
 15 16  1  0
 16 17  2  0
 17 18  1  0
 19 20  1  0
 19 18  2  0
 21 20  1  1
 21 22  1  0
 21 23  1  0
 23 32  1  0
 24 23  2  0
 25 19  1  0
 26 25  2  0
 26 16  1  0
 28 27  1  0
 29 28  2  0
 30 28  1  0
 31 33  1  0
 31 30  1  6
 32 31  1  0
 33 34  1  0
 35 33  2  0
M  END
$$$$
