WYN.pdb
     RDKit          3D

 35 37  0  0  1  0  0  0  0  0999 V2000
    8.9841  -18.1660   22.8532 N   0  0  0  0  0  0  0  0  0  0  0  0
    8.6718  -16.9201   22.1493 C   0  0  1  0  0  0  0  0  0  0  0  0
    7.2518  -16.4831   22.4460 C   0  0  0  0  0  0  0  0  0  0  0  0
    7.1041  -15.0278   22.4952 C   0  0  0  0  0  0  0  0  0  0  0  0
    7.1779  -14.1144   21.4474 C   0  0  0  0  0  0  0  0  0  0  0  0
    6.9869  -12.8936   21.9242 N   0  0  0  0  0  0  0  0  0  0  0  0
    6.7855  -12.9177   23.2452 C   0  0  0  0  0  0  0  0  0  0  0  0
    6.5463  -11.9173   24.1700 C   0  0  0  0  0  0  0  0  0  0  0  0
    6.3817  -12.3092   25.4786 C   0  0  0  0  0  0  0  0  0  0  0  0
    6.4464  -13.6289   25.8812 C   0  0  0  0  0  0  0  0  0  0  0  0
    6.6834  -14.5903   24.9472 C   0  0  0  0  0  0  0  0  0  0  0  0
    6.8578  -14.2648   23.6166 C   0  0  0  0  0  0  0  0  0  0  0  0
    9.6508  -15.8599   22.5014 C   0  0  0  0  0  0  0  0  0  0  0  0
    9.3267  -14.6769   22.2295 O   0  0  0  0  0  0  0  0  0  0  0  0
   10.8816  -15.2270   30.9595 O   0  0  0  0  0  0  0  0  0  0  0  0
   10.7028  -15.2838   29.5657 C   0  0  0  0  0  0  0  0  0  0  0  0
    9.4534  -15.1068   29.0125 C   0  0  0  0  0  0  0  0  0  0  0  0
    9.2672  -15.1615   27.6325 C   0  0  0  0  0  0  0  0  0  0  0  0
   10.3262  -15.3945   26.7793 C   0  0  0  0  0  0  0  0  0  0  0  0
   10.0503  -15.4389   25.3337 C   0  0  0  0  0  0  0  0  0  0  0  0
   11.1948  -15.9100   24.4970 C   0  0  2  0  0  0  0  0  0  0  0  0
   10.8915  -16.0852   23.1062 N   0  0  0  0  0  0  0  0  0  0  0  0
   11.6294  -17.2223   25.0484 C   0  0  0  0  0  0  0  0  0  0  0  0
   12.0539  -17.3266   26.2475 O   0  0  0  0  0  0  0  0  0  0  0  0
   11.5643  -15.5699   27.3279 C   0  0  0  0  0  0  0  0  0  0  0  0
   11.7563  -15.5159   28.7099 C   0  0  0  0  0  0  0  0  0  0  0  0
   10.4201  -21.8734   26.5664 N   0  0  0  0  0  0  0  0  0  0  0  0
   10.0874  -20.5079   26.7688 C   0  0  0  0  0  0  0  0  0  0  0  0
    9.8662  -20.0618   27.9055 O   0  0  0  0  0  0  0  0  0  0  0  0
   10.0052  -19.6124   25.6049 C   0  0  0  0  0  0  0  0  0  0  0  0
   11.2885  -19.7259   24.8140 C   0  0  2  0  0  0  0  0  0  0  0  0
   11.5902  -18.4020   24.2720 N   0  0  0  0  0  0  0  0  0  0  0  0
   11.2451  -20.6778   23.7108 C   0  0  0  0  0  0  0  0  0  0  0  0
   11.7791  -20.4483   22.4387 O   0  0  0  0  0  0  0  0  0  0  0  0
   10.6963  -21.7964   23.8745 O   0  0  0  0  0  0  0  0  0  0  0  0
  2  1  1  1
  3  4  1  0
  3  2  1  0
  4  5  2  0
  5  6  1  0
  7  6  1  0
  8  7  2  0
  9  8  1  0
 10 11  1  0
 10  9  2  0
 11 12  2  0
 12  4  1  0
 12  7  1  0
 13  2  1  0
 13 22  1  0
 14 13  2  0
 15 16  1  0
 16 17  2  0
 17 18  1  0
 19 20  1  0
 19 18  2  0
 21 20  1  1
 21 22  1  0
 21 23  1  0
 23 32  1  0
 24 23  2  0
 25 19  1  0
 26 25  2  0
 26 16  1  0
 28 27  1  0
 29 28  2  0
 30 28  1  0
 31 33  1  0
 31 30  1  6
 32 31  1  0
 33 34  1  0
 35 33  2  0
M  END
$$$$
