WYN.pdb
     RDKit          3D

 35 37  0  0  1  0  0  0  0  0999 V2000
    7.1553  -18.0818   25.9170 N   0  0  0  0  0  0  0  0  0  0  0  0
    7.5454  -16.7454   25.4619 C   0  0  1  0  0  0  0  0  0  0  0  0
    8.9038  -16.3696   26.0177 C   0  0  0  0  0  0  0  0  0  0  0  0
    8.8425  -15.2498   26.9582 C   0  0  0  0  0  0  0  0  0  0  0  0
    9.3663  -15.1710   28.2454 C   0  0  0  0  0  0  0  0  0  0  0  0
    9.0877  -13.9798   28.7530 N   0  0  0  0  0  0  0  0  0  0  0  0
    8.3995  -13.2339   27.8835 C   0  0  0  0  0  0  0  0  0  0  0  0
    7.8929  -11.9488   27.9544 C   0  0  0  0  0  0  0  0  0  0  0  0
    7.2205  -11.4856   26.8469 C   0  0  0  0  0  0  0  0  0  0  0  0
    7.0431  -12.2422   25.7050 C   0  0  0  0  0  0  0  0  0  0  0  0
    7.5534  -13.5034   25.6662 C   0  0  0  0  0  0  0  0  0  0  0  0
    8.2389  -14.0292   26.7436 C   0  0  0  0  0  0  0  0  0  0  0  0
    7.5262  -16.6708   23.9785 C   0  0  0  0  0  0  0  0  0  0  0  0
    7.4423  -17.7599   23.3578 O   0  0  0  0  0  0  0  0  0  0  0  0
    8.0996  -13.3360   15.6727 O   0  0  0  0  0  0  0  0  0  0  0  0
    7.9028  -13.5221   17.0527 C   0  0  0  0  0  0  0  0  0  0  0  0
    8.5239  -12.6981   17.9657 C   0  0  0  0  0  0  0  0  0  0  0  0
    8.3346  -12.8754   19.3350 C   0  0  0  0  0  0  0  0  0  0  0  0
    7.5210  -13.8797   19.8176 C   0  0  0  0  0  0  0  0  0  0  0  0
    7.3711  -14.0045   21.2769 C   0  0  0  0  0  0  0  0  0  0  0  0
    7.5636  -15.3885   21.8052 C   0  0  2  0  0  0  0  0  0  0  0  0
    7.5945  -15.4879   23.2357 N   0  0  0  0  0  0  0  0  0  0  0  0
    8.8636  -15.8826   21.2754 C   0  0  0  0  0  0  0  0  0  0  0  0
    9.0276  -16.1031   20.0289 O   0  0  0  0  0  0  0  0  0  0  0  0
    6.9055  -14.6962   18.9125 C   0  0  0  0  0  0  0  0  0  0  0  0
    7.0918  -14.5228   17.5396 C   0  0  0  0  0  0  0  0  0  0  0  0
   13.3876  -15.5459   19.2808 N   0  0  0  0  0  0  0  0  0  0  0  0
   13.0422  -14.8947   20.4944 C   0  0  0  0  0  0  0  0  0  0  0  0
   13.9028  -14.3332   21.1900 O   0  0  0  0  0  0  0  0  0  0  0  0
   11.6368  -14.8903   20.9282 C   0  0  0  0  0  0  0  0  0  0  0  0
   11.3533  -16.1782   21.6674 C   0  0  2  0  0  0  0  0  0  0  0  0
    9.9657  -16.1268   22.1250 N   0  0  0  0  0  0  0  0  0  0  0  0
   12.2111  -16.4236   22.8202 C   0  0  0  0  0  0  0  0  0  0  0  0
   11.7820  -16.4052   24.1512 O   0  0  0  0  0  0  0  0  0  0  0  0
   13.4306  -16.6726   22.6473 O   0  0  0  0  0  0  0  0  0  0  0  0
  2  1  1  6
  3  4  1  0
  3  2  1  0
  4  5  2  0
  5  6  1  0
  7  6  1  0
  8  7  2  0
  9  8  1  0
 10 11  1  0
 10  9  2  0
 11 12  2  0
 12  4  1  0
 12  7  1  0
 13  2  1  0
 13 22  1  0
 14 13  2  0
 15 16  1  0
 16 17  2  0
 17 18  1  0
 19 20  1  0
 19 18  2  0
 21 20  1  1
 21 22  1  0
 21 23  1  0
 23 32  1  0
 24 23  2  0
 25 19  1  0
 26 25  2  0
 26 16  1  0
 28 27  1  0
 29 28  2  0
 30 28  1  0
 31 33  1  0
 31 30  1  1
 32 31  1  0
 33 34  1  0
 35 33  2  0
M  END
$$$$
