WYN.pdb
     RDKit          3D

 35 37  0  0  1  0  0  0  0  0999 V2000
    6.4738  -17.9250   23.8307 N   0  0  0  0  0  0  0  0  0  0  0  0
    7.2406  -16.6794   23.9061 C   0  0  1  0  0  0  0  0  0  0  0  0
    7.5980  -16.3609   25.3435 C   0  0  0  0  0  0  0  0  0  0  0  0
    6.7715  -15.2947   25.9112 C   0  0  0  0  0  0  0  0  0  0  0  0
    5.4630  -15.3703   26.3796 C   0  0  0  0  0  0  0  0  0  0  0  0
    5.0886  -14.1751   26.8104 N   0  0  0  0  0  0  0  0  0  0  0  0
    6.0701  -13.2801   26.6635 C   0  0  0  0  0  0  0  0  0  0  0  0
    6.1545  -11.9320   26.9612 C   0  0  0  0  0  0  0  0  0  0  0  0
    7.3452  -11.3064   26.6713 C   0  0  0  0  0  0  0  0  0  0  0  0
    8.4222  -11.9645   26.1102 C   0  0  0  0  0  0  0  0  0  0  0  0
    8.3079  -13.2913   25.8286 C   0  0  0  0  0  0  0  0  0  0  0  0
    7.1404  -13.9791   26.0947 C   0  0  0  0  0  0  0  0  0  0  0  0
    8.4520  -16.7573   23.0500 C   0  0  0  0  0  0  0  0  0  0  0  0
    8.7257  -17.8800   22.5570 O   0  0  0  0  0  0  0  0  0  0  0  0
    6.2644  -13.7377   16.8819 O   0  0  0  0  0  0  0  0  0  0  0  0
    7.2488  -13.9058   17.8720 C   0  0  0  0  0  0  0  0  0  0  0  0
    7.5007  -12.9056   18.7856 C   0  0  0  0  0  0  0  0  0  0  0  0
    8.4744  -13.0637   19.7700 C   0  0  0  0  0  0  0  0  0  0  0  0
    9.2149  -14.2244   19.8598 C   0  0  0  0  0  0  0  0  0  0  0  0
   10.2260  -14.3167   20.9261 C   0  0  0  0  0  0  0  0  0  0  0  0
   10.2277  -15.6120   21.6702 C   0  0  2  0  0  0  0  0  0  0  0  0
    9.2971  -15.6817   22.7594 N   0  0  0  0  0  0  0  0  0  0  0  0
   11.5993  -15.8018   22.2159 C   0  0  0  0  0  0  0  0  0  0  0  0
   12.6287  -15.6791   21.4715 O   0  0  0  0  0  0  0  0  0  0  0  0
    8.9652  -15.2154   18.9542 C   0  0  0  0  0  0  0  0  0  0  0  0
    7.9906  -15.0622   17.9660 C   0  0  0  0  0  0  0  0  0  0  0  0
   12.7360  -20.7187   23.1713 N   0  0  0  0  0  0  0  0  0  0  0  0
   12.4633  -19.7162   24.1392 C   0  0  0  0  0  0  0  0  0  0  0  0
   12.8418  -19.8378   25.3147 O   0  0  0  0  0  0  0  0  0  0  0  0
   11.7181  -18.5148   23.7332 C   0  0  0  0  0  0  0  0  0  0  0  0
   12.5653  -17.2971   24.0243 C   0  0  2  0  0  0  0  0  0  0  0  0
   11.8187  -16.1235   23.5740 N   0  0  0  0  0  0  0  0  0  0  0  0
   13.8708  -17.2908   23.3757 C   0  0  0  0  0  0  0  0  0  0  0  0
   14.0740  -17.2123   21.9941 O   0  0  0  0  0  0  0  0  0  0  0  0
   14.9134  -17.3600   24.0738 O   0  0  0  0  0  0  0  0  0  0  0  0
  2  1  1  1
  3  4  1  0
  3  2  1  0
  4  5  2  0
  5  6  1  0
  7  6  1  0
  8  7  2  0
  9  8  1  0
 10 11  1  0
 10  9  2  0
 11 12  2  0
 12  4  1  0
 12  7  1  0
 13  2  1  0
 13 22  1  0
 14 13  2  0
 15 16  1  0
 16 17  2  0
 17 18  1  0
 19 20  1  0
 19 18  2  0
 21 20  1  1
 21 22  1  0
 21 23  1  0
 23 32  1  0
 24 23  2  0
 25 19  1  0
 26 25  2  0
 26 16  1  0
 28 27  1  0
 29 28  2  0
 30 28  1  0
 31 33  1  0
 31 30  1  6
 32 31  1  0
 33 34  1  0
 35 33  2  0
M  END
$$$$
