WYN.pdb
     RDKit          3D

 35 37  0  0  1  0  0  0  0  0999 V2000
    6.4487  -17.6076   24.1106 N   0  0  0  0  0  0  0  0  0  0  0  0
    7.3866  -16.4843   24.0491 C   0  0  1  0  0  0  0  0  0  0  0  0
    7.8469  -16.0990   25.4402 C   0  0  0  0  0  0  0  0  0  0  0  0
    7.0244  -15.0471   26.0395 C   0  0  0  0  0  0  0  0  0  0  0  0
    5.7277  -15.1401   26.5368 C   0  0  0  0  0  0  0  0  0  0  0  0
    5.3528  -13.9536   26.9905 N   0  0  0  0  0  0  0  0  0  0  0  0
    6.3227  -13.0480   26.8318 C   0  0  0  0  0  0  0  0  0  0  0  0
    6.4020  -11.7028   27.1436 C   0  0  0  0  0  0  0  0  0  0  0  0
    7.5801  -11.0630   26.8339 C   0  0  0  0  0  0  0  0  0  0  0  0
    8.6497  -11.7045   26.2403 C   0  0  0  0  0  0  0  0  0  0  0  0
    8.5406  -13.0289   25.9456 C   0  0  0  0  0  0  0  0  0  0  0  0
    7.3858  -13.7305   26.2302 C   0  0  0  0  0  0  0  0  0  0  0  0
    8.5367  -16.8097   23.1673 C   0  0  0  0  0  0  0  0  0  0  0  0
    8.7344  -18.0255   22.9200 O   0  0  0  0  0  0  0  0  0  0  0  0
    6.0811  -13.4624   17.3183 O   0  0  0  0  0  0  0  0  0  0  0  0
    7.1691  -13.8476   18.1218 C   0  0  0  0  0  0  0  0  0  0  0  0
    7.8220  -12.9221   18.9065 C   0  0  0  0  0  0  0  0  0  0  0  0
    8.9011  -13.2951   19.7057 C   0  0  0  0  0  0  0  0  0  0  0  0
    9.3480  -14.6001   19.7356 C   0  0  0  0  0  0  0  0  0  0  0  0
   10.4940  -14.9168   20.6040 C   0  0  0  0  0  0  0  0  0  0  0  0
   10.2892  -16.0966   21.4973 C   0  0  2  0  0  0  0  0  0  0  0  0
    9.4028  -15.8687   22.6017 N   0  0  0  0  0  0  0  0  0  0  0  0
   11.6233  -16.4718   22.0400 C   0  0  0  0  0  0  0  0  0  0  0  0
   12.5546  -16.8882   21.2731 O   0  0  0  0  0  0  0  0  0  0  0  0
    8.7008  -15.5170   18.9578 C   0  0  0  0  0  0  0  0  0  0  0  0
    7.6191  -15.1486   18.1554 C   0  0  0  0  0  0  0  0  0  0  0  0
   15.0118  -16.8553   22.1642 N   0  0  0  0  0  0  0  0  0  0  0  0
   15.1332  -15.8655   23.1750 C   0  0  0  0  0  0  0  0  0  0  0  0
   16.0967  -15.0838   23.1967 O   0  0  0  0  0  0  0  0  0  0  0  0
   14.0940  -15.7716   24.2117 C   0  0  0  0  0  0  0  0  0  0  0  0
   13.1270  -16.9199   24.0344 C   0  0  2  0  0  0  0  0  0  0  0  0
   11.9139  -16.3829   23.4198 N   0  0  0  0  0  0  0  0  0  0  0  0
   12.7564  -17.6036   25.2673 C   0  0  0  0  0  0  0  0  0  0  0  0
   11.4491  -17.7240   25.7499 O   0  0  0  0  0  0  0  0  0  0  0  0
   13.6470  -18.1358   25.9763 O   0  0  0  0  0  0  0  0  0  0  0  0
  2  1  1  1
  3  4  1  0
  3  2  1  0
  4  5  2  0
  5  6  1  0
  7  6  1  0
  8  7  2  0
  9  8  1  0
 10 11  1  0
 10  9  2  0
 11 12  2  0
 12  4  1  0
 12  7  1  0
 13  2  1  0
 13 22  1  0
 14 13  2  0
 15 16  1  0
 16 17  2  0
 17 18  1  0
 19 20  1  0
 19 18  2  0
 21 20  1  1
 21 22  1  0
 21 23  1  0
 23 32  1  0
 24 23  2  0
 25 19  1  0
 26 25  2  0
 26 16  1  0
 28 27  1  0
 29 28  2  0
 30 28  1  0
 31 33  1  0
 31 30  1  1
 32 31  1  0
 33 34  1  0
 35 33  2  0
M  END
$$$$
