WYN.pdb
     RDKit          3D

 35 37  0  0  1  0  0  0  0  0999 V2000
    6.4637  -17.2284   23.6774 N   0  0  0  0  0  0  0  0  0  0  0  0
    7.5583  -16.2600   23.5813 C   0  0  1  0  0  0  0  0  0  0  0  0
    8.1469  -15.9848   24.9499 C   0  0  0  0  0  0  0  0  0  0  0  0
    7.2690  -15.1713   25.7924 C   0  0  0  0  0  0  0  0  0  0  0  0
    6.1223  -15.5616   26.4781 C   0  0  0  0  0  0  0  0  0  0  0  0
    5.6264  -14.5153   27.1213 N   0  0  0  0  0  0  0  0  0  0  0  0
    6.3708  -13.4248   26.9148 C   0  0  0  0  0  0  0  0  0  0  0  0
    6.2595  -12.1215   27.3642 C   0  0  0  0  0  0  0  0  0  0  0  0
    7.2262  -11.2365   26.9452 C   0  0  0  0  0  0  0  0  0  0  0  0
    8.2694  -11.6007   26.1164 C   0  0  0  0  0  0  0  0  0  0  0  0
    8.3513  -12.8911   25.6909 C   0  0  0  0  0  0  0  0  0  0  0  0
    7.4137  -13.8296   26.0743 C   0  0  0  0  0  0  0  0  0  0  0  0
    8.5955  -16.7346   22.6297 C   0  0  0  0  0  0  0  0  0  0  0  0
    8.7763  -17.9760   22.5620 O   0  0  0  0  0  0  0  0  0  0  0  0
    5.9456  -12.5683   18.0075 O   0  0  0  0  0  0  0  0  0  0  0  0
    7.0798  -13.2922   18.4166 C   0  0  0  0  0  0  0  0  0  0  0  0
    8.0365  -12.7025   19.2138 C   0  0  0  0  0  0  0  0  0  0  0  0
    9.1636  -13.4123   19.6238 C   0  0  0  0  0  0  0  0  0  0  0  0
    9.3559  -14.7248   19.2445 C   0  0  0  0  0  0  0  0  0  0  0  0
   10.5715  -15.4081   19.7167 C   0  0  0  0  0  0  0  0  0  0  0  0
   10.3544  -16.3407   20.8634 C   0  0  2  0  0  0  0  0  0  0  0  0
    9.3741  -15.9057   21.8157 N   0  0  0  0  0  0  0  0  0  0  0  0
   11.6583  -16.4804   21.5672 C   0  0  0  0  0  0  0  0  0  0  0  0
   12.6896  -15.8354   21.1806 O   0  0  0  0  0  0  0  0  0  0  0  0
    8.4076  -15.3090   18.4544 C   0  0  0  0  0  0  0  0  0  0  0  0
    7.2765  -14.6023   18.0410 C   0  0  0  0  0  0  0  0  0  0  0  0
   15.9829  -16.5108   24.1267 N   0  0  0  0  0  0  0  0  0  0  0  0
   14.7112  -16.3030   24.7233 C   0  0  0  0  0  0  0  0  0  0  0  0
   14.5794  -16.2573   25.9563 O   0  0  0  0  0  0  0  0  0  0  0  0
   13.5336  -16.1401   23.8571 C   0  0  0  0  0  0  0  0  0  0  0  0
   13.0660  -17.5070   23.4122 C   0  0  2  0  0  0  0  0  0  0  0  0
   11.8088  -17.3279   22.6875 N   0  0  0  0  0  0  0  0  0  0  0  0
   12.8444  -18.4597   24.4931 C   0  0  0  0  0  0  0  0  0  0  0  0
   13.8583  -19.1317   25.1835 O   0  0  0  0  0  0  0  0  0  0  0  0
   11.6719  -18.7238   24.8599 O   0  0  0  0  0  0  0  0  0  0  0  0
  2  1  1  1
  3  4  1  0
  3  2  1  0
  4  5  2  0
  5  6  1  0
  7  6  1  0
  8  7  2  0
  9  8  1  0
 10 11  1  0
 10  9  2  0
 11 12  2  0
 12  4  1  0
 12  7  1  0
 13  2  1  0
 13 22  1  0
 14 13  2  0
 15 16  1  0
 16 17  2  0
 17 18  1  0
 19 20  1  0
 19 18  2  0
 21 20  1  6
 21 22  1  0
 21 23  1  0
 23 32  1  0
 24 23  2  0
 25 19  1  0
 26 25  2  0
 26 16  1  0
 28 27  1  0
 29 28  2  0
 30 28  1  0
 31 33  1  0
 31 30  1  1
 32 31  1  0
 33 34  1  0
 35 33  2  0
M  END
$$$$
