WYN.pdb
     RDKit          3D

 35 37  0  0  1  0  0  0  0  0999 V2000
    6.8270  -17.7031   26.0553 N   0  0  0  0  0  0  0  0  0  0  0  0
    7.3701  -16.4367   25.5587 C   0  0  1  0  0  0  0  0  0  0  0  0
    8.6615  -16.0950   26.2734 C   0  0  0  0  0  0  0  0  0  0  0  0
    8.5346  -14.9289   27.1488 C   0  0  0  0  0  0  0  0  0  0  0  0
    8.9682  -14.7822   28.4633 C   0  0  0  0  0  0  0  0  0  0  0  0
    8.6544  -13.5678   28.8888 N   0  0  0  0  0  0  0  0  0  0  0  0
    8.0275  -12.8701   27.9368 C   0  0  0  0  0  0  0  0  0  0  0  0
    7.5164  -11.5852   27.9065 C   0  0  0  0  0  0  0  0  0  0  0  0
    6.9220  -11.1820   26.7329 C   0  0  0  0  0  0  0  0  0  0  0  0
    6.8244  -11.9967   25.6218 C   0  0  0  0  0  0  0  0  0  0  0  0
    7.3370  -13.2562   25.6831 C   0  0  0  0  0  0  0  0  0  0  0  0
    7.9466  -13.7233   26.8307 C   0  0  0  0  0  0  0  0  0  0  0  0
    7.5621  -16.4903   24.0867 C   0  0  0  0  0  0  0  0  0  0  0  0
    7.2166  -17.5510   23.5088 O   0  0  0  0  0  0  0  0  0  0  0  0
    7.9351  -13.2888   15.7315 O   0  0  0  0  0  0  0  0  0  0  0  0
    7.8615  -13.4789   17.1230 C   0  0  0  0  0  0  0  0  0  0  0  0
    8.5675  -12.6623   17.9793 C   0  0  0  0  0  0  0  0  0  0  0  0
    8.5005  -12.8436   19.3594 C   0  0  0  0  0  0  0  0  0  0  0  0
    7.7267  -13.8445   19.9098 C   0  0  0  0  0  0  0  0  0  0  0  0
    7.7073  -13.9739   21.3763 C   0  0  0  0  0  0  0  0  0  0  0  0
    8.0122  -15.3457   21.8831 C   0  0  2  0  0  0  0  0  0  0  0  0
    8.0940  -15.4555   23.3108 N   0  0  0  0  0  0  0  0  0  0  0  0
    9.3267  -15.7426   21.3089 C   0  0  0  0  0  0  0  0  0  0  0  0
    9.4954  -15.8338   20.0471 O   0  0  0  0  0  0  0  0  0  0  0  0
    7.0271  -14.6536   19.0609 C   0  0  0  0  0  0  0  0  0  0  0  0
    7.0906  -14.4762   17.6774 C   0  0  0  0  0  0  0  0  0  0  0  0
   13.4272  -19.1310   20.5584 N   0  0  0  0  0  0  0  0  0  0  0  0
   12.7687  -17.9862   20.0366 C   0  0  0  0  0  0  0  0  0  0  0  0
   13.2589  -17.3326   19.1026 O   0  0  0  0  0  0  0  0  0  0  0  0
   11.4827  -17.5739   20.6195 C   0  0  0  0  0  0  0  0  0  0  0  0
   11.7362  -16.4735   21.6244 C   0  0  2  0  0  0  0  0  0  0  0  0
   10.4377  -16.0331   22.1319 N   0  0  0  0  0  0  0  0  0  0  0  0
   12.4433  -15.3133   21.0961 C   0  0  0  0  0  0  0  0  0  0  0  0
   13.8348  -15.1957   21.0177 O   0  0  0  0  0  0  0  0  0  0  0  0
   11.7912  -14.3268   20.6710 O   0  0  0  0  0  0  0  0  0  0  0  0
  2  1  1  1
  3  4  1  0
  3  2  1  0
  4  5  2  0
  5  6  1  0
  7  6  1  0
  8  7  2  0
  9  8  1  0
 10 11  1  0
 10  9  2  0
 11 12  2  0
 12  4  1  0
 12  7  1  0
 13  2  1  0
 13 22  1  0
 14 13  2  0
 15 16  1  0
 16 17  2  0
 17 18  1  0
 19 20  1  0
 19 18  2  0
 21 20  1  1
 21 22  1  0
 21 23  1  0
 23 32  1  0
 24 23  2  0
 25 19  1  0
 26 25  2  0
 26 16  1  0
 28 27  1  0
 29 28  2  0
 30 28  1  0
 31 33  1  0
 31 30  1  6
 32 31  1  0
 33 34  1  0
 35 33  2  0
M  END
$$$$
