WYN.pdb
     RDKit          3D

 35 37  0  0  1  0  0  0  0  0999 V2000
   11.0170  -15.9968   20.4548 N   0  0  0  0  0  0  0  0  0  0  0  0
    9.9410  -15.7404   21.4150 C   0  0  1  0  0  0  0  0  0  0  0  0
    8.7034  -16.5353   21.0517 C   0  0  0  0  0  0  0  0  0  0  0  0
    7.9077  -15.8985   20.0012 C   0  0  0  0  0  0  0  0  0  0  0  0
    7.1633  -16.5033   18.9925 C   0  0  0  0  0  0  0  0  0  0  0  0
    6.5948  -15.5635   18.2523 N   0  0  0  0  0  0  0  0  0  0  0  0
    6.9083  -14.3432   18.6978 C   0  0  0  0  0  0  0  0  0  0  0  0
    6.5636  -13.0757   18.2645 C   0  0  0  0  0  0  0  0  0  0  0  0
    7.0778  -12.0161   18.9758 C   0  0  0  0  0  0  0  0  0  0  0  0
    7.9008  -12.1770   20.0734 C   0  0  0  0  0  0  0  0  0  0  0  0
    8.2220  -13.4373   20.4751 C   0  0  0  0  0  0  0  0  0  0  0  0
    7.7395  -14.5443   19.8053 C   0  0  0  0  0  0  0  0  0  0  0  0
   10.3913  -16.0392   22.7986 C   0  0  0  0  0  0  0  0  0  0  0  0
   11.2797  -16.9181   22.9276 O   0  0  0  0  0  0  0  0  0  0  0  0
   11.0911  -16.1900   31.6887 O   0  0  0  0  0  0  0  0  0  0  0  0
   10.7357  -15.8610   30.3685 C   0  0  0  0  0  0  0  0  0  0  0  0
    9.7023  -16.5183   29.7373 C   0  0  0  0  0  0  0  0  0  0  0  0
    9.3435  -16.1987   28.4291 C   0  0  0  0  0  0  0  0  0  0  0  0
   10.0110  -15.2163   27.7270 C   0  0  0  0  0  0  0  0  0  0  0  0
    9.5746  -14.9359   26.3491 C   0  0  0  0  0  0  0  0  0  0  0  0
   10.3359  -15.6709   25.2946 C   0  0  2  0  0  0  0  0  0  0  0  0
    9.9008  -15.4180   23.9515 N   0  0  0  0  0  0  0  0  0  0  0  0
   10.1749  -17.1244   25.5709 C   0  0  0  0  0  0  0  0  0  0  0  0
    9.2981  -17.8199   24.9574 O   0  0  0  0  0  0  0  0  0  0  0  0
   11.0352  -14.5651   28.3528 C   0  0  0  0  0  0  0  0  0  0  0  0
   11.3986  -14.8813   29.6634 C   0  0  0  0  0  0  0  0  0  0  0  0
    9.0062  -20.7317   25.7409 N   0  0  0  0  0  0  0  0  0  0  0  0
   10.1957  -20.7095   24.9657 C   0  0  0  0  0  0  0  0  0  0  0  0
   10.2891  -21.3596   23.9129 O   0  0  0  0  0  0  0  0  0  0  0  0
   11.3334  -19.8987   25.4259 C   0  0  0  0  0  0  0  0  0  0  0  0
   10.9609  -19.2385   26.7338 C   0  0  2  0  0  0  0  0  0  0  0  0
   10.9820  -17.7925   26.5188 N   0  0  0  0  0  0  0  0  0  0  0  0
   11.8435  -19.5523   27.8508 C   0  0  0  0  0  0  0  0  0  0  0  0
   11.7246  -20.6813   28.6677 O   0  0  0  0  0  0  0  0  0  0  0  0
   12.7913  -18.7768   28.1325 O   0  0  0  0  0  0  0  0  0  0  0  0
  2  1  1  6
  3  4  1  0
  3  2  1  0
  4  5  2  0
  5  6  1  0
  7  6  1  0
  8  7  2  0
  9  8  1  0
 10 11  1  0
 10  9  2  0
 11 12  2  0
 12  4  1  0
 12  7  1  0
 13  2  1  0
 13 22  1  0
 14 13  2  0
 15 16  1  0
 16 17  2  0
 17 18  1  0
 19 20  1  0
 19 18  2  0
 21 20  1  1
 21 22  1  0
 21 23  1  0
 23 32  1  0
 24 23  2  0
 25 19  1  0
 26 25  2  0
 26 16  1  0
 28 27  1  0
 29 28  2  0
 30 28  1  0
 31 33  1  0
 31 30  1  6
 32 31  1  0
 33 34  1  0
 35 33  2  0
M  END
$$$$
