KTN.pdb
     RDKit          3D

 25 24  0  0  1  0  0  0  0  0999 V2000
    9.3198  -15.1225   20.7681 N   0  0  0  0  0  0  0  0  0  0  0  0
    8.3676  -14.3260   21.4727 C   0  0  1  0  0  0  0  0  0  0  0  0
    7.2020  -13.8332   20.6787 C   0  0  0  0  0  0  0  0  0  0  0  0
    7.5492  -13.1931   19.3983 C   0  0  0  0  0  0  0  0  0  0  0  0
    7.5794  -14.1349   18.2525 C   0  0  0  0  0  0  0  0  0  0  0  0
    7.9707  -13.4027   16.9962 C   0  0  0  0  0  0  0  0  0  0  0  0
    8.0159  -14.4171   15.9355 N   0  0  0  0  0  0  0  0  0  0  0  0
    7.9059  -15.0174   22.7328 C   0  0  0  0  0  0  0  0  0  0  0  0
    6.8876  -14.6166   23.3484 O   0  0  0  0  0  0  0  0  0  0  0  0
    6.9611  -18.5818   23.2728 C   0  0  0  0  0  0  0  0  0  0  0  0
    8.0311  -18.2415   24.2827 C   0  0  1  0  0  0  0  0  0  0  0  0
    9.2198  -18.7718   23.7641 O   0  0  0  0  0  0  0  0  0  0  0  0
    8.1597  -16.7452   24.4866 C   0  0  2  0  0  0  0  0  0  0  0  0
    8.6297  -16.1329   23.2284 N   0  0  0  0  0  0  0  0  0  0  0  0
    9.1805  -16.3716   25.4947 C   0  0  0  0  0  0  0  0  0  0  0  0
   10.3818  -16.1011   25.1205 O   0  0  0  0  0  0  0  0  0  0  0  0
    8.6914  -12.6147   27.9278 N   0  0  0  0  0  0  0  0  0  0  0  0
    9.7375  -13.5294   27.6352 C   0  0  0  0  0  0  0  0  0  0  0  0
   10.4564  -13.2845   26.6389 O   0  0  0  0  0  0  0  0  0  0  0  0
    9.8970  -14.6944   28.5243 C   0  0  0  0  0  0  0  0  0  0  0  0
   10.0871  -15.9866   27.7913 C   0  0  2  0  0  0  0  0  0  0  0  0
    8.9693  -16.2728   26.8859 N   0  0  0  0  0  0  0  0  0  0  0  0
   10.2716  -17.1365   28.7382 C   0  0  0  0  0  0  0  0  0  0  0  0
    9.4794  -18.2581   28.6908 O   0  0  0  0  0  0  0  0  0  0  0  0
   11.1765  -17.0933   29.6135 O   0  0  0  0  0  0  0  0  0  0  0  0
  2  1  1  6
  3  2  1  0
  4  3  1  0
  4  5  1  0
  5  6  1  0
  6  7  1  0
  8  2  1  0
  8  9  2  0
 11 10  1  6
 11 13  1  0
 12 11  1  0
 13 14  1  6
 14  8  1  0
 15 13  1  0
 16 15  2  0
 18 17  1  0
 19 18  2  0
 20 18  1  0
 21 20  1  1
 21 22  1  0
 21 23  1  0
 22 15  1  0
 23 24  1  0
 25 23  2  0
M  END
$$$$
