KTN.pdb
     RDKit          3D

 25 24  0  0  1  0  0  0  0  0999 V2000
    9.8083  -15.4581   19.9358 N   0  0  0  0  0  0  0  0  0  0  0  0
    9.0216  -14.4213   20.5220 C   0  0  1  0  0  0  0  0  0  0  0  0
    7.9401  -13.8481   19.6654 C   0  0  0  0  0  0  0  0  0  0  0  0
    8.0729  -14.1309   18.2259 C   0  0  0  0  0  0  0  0  0  0  0  0
    7.6139  -13.0192   17.3575 C   0  0  0  0  0  0  0  0  0  0  0  0
    7.8574  -13.3628   15.9118 C   0  0  0  0  0  0  0  0  0  0  0  0
    7.3894  -12.2060   15.1379 N   0  0  0  0  0  0  0  0  0  0  0  0
    8.4763  -14.8449   21.8644 C   0  0  0  0  0  0  0  0  0  0  0  0
    7.7481  -14.0720   22.5343 O   0  0  0  0  0  0  0  0  0  0  0  0
    6.3708  -17.7102   22.9023 C   0  0  0  0  0  0  0  0  0  0  0  0
    7.6205  -17.7642   23.7483 C   0  0  1  0  0  0  0  0  0  0  0  0
    8.4163  -18.7675   23.1799 O   0  0  0  0  0  0  0  0  0  0  0  0
    8.3565  -16.4394   23.7537 C   0  0  2  0  0  0  0  0  0  0  0  0
    8.7893  -16.1309   22.3765 N   0  0  0  0  0  0  0  0  0  0  0  0
    9.6077  -16.4614   24.5485 C   0  0  0  0  0  0  0  0  0  0  0  0
   10.6352  -15.7999   24.1447 O   0  0  0  0  0  0  0  0  0  0  0  0
   11.0842  -13.4665   28.2555 N   0  0  0  0  0  0  0  0  0  0  0  0
   10.1521  -14.5210   28.4444 C   0  0  0  0  0  0  0  0  0  0  0  0
    9.8230  -14.7964   29.6213 O   0  0  0  0  0  0  0  0  0  0  0  0
    9.6442  -15.2091   27.2437 C   0  0  0  0  0  0  0  0  0  0  0  0
   10.3719  -16.4795   26.9276 C   0  0  2  0  0  0  0  0  0  0  0  0
    9.8050  -17.1595   25.7584 N   0  0  0  0  0  0  0  0  0  0  0  0
   10.3781  -17.4183   28.0987 C   0  0  0  0  0  0  0  0  0  0  0  0
   11.3840  -17.4148   29.0345 O   0  0  0  0  0  0  0  0  0  0  0  0
    9.4397  -18.2454   28.2484 O   0  0  0  0  0  0  0  0  0  0  0  0
  2  1  1  6
  3  2  1  0
  4  3  1  0
  4  5  1  0
  5  6  1  0
  6  7  1  0
  8  2  1  0
  8  9  2  0
 11 10  1  6
 11 13  1  0
 12 11  1  0
 13 14  1  6
 14  8  1  0
 15 13  1  0
 16 15  2  0
 18 17  1  0
 19 18  2  0
 20 18  1  0
 21 20  1  1
 21 22  1  0
 21 23  1  0
 22 15  1  0
 23 24  1  0
 25 23  2  0
M  END
$$$$
