KTN.pdb
     RDKit          3D

 25 24  0  0  1  0  0  0  0  0999 V2000
    8.2854  -17.8231   16.7093 N   0  0  0  0  0  0  0  0  0  0  0  0
    7.6314  -17.4424   17.9196 C   0  0  1  0  0  0  0  0  0  0  0  0
    7.1188  -18.5570   18.7723 C   0  0  0  0  0  0  0  0  0  0  0  0
    6.6511  -19.7409   18.0311 C   0  0  0  0  0  0  0  0  0  0  0  0
    6.2524  -20.8703   18.9066 C   0  0  0  0  0  0  0  0  0  0  0  0
    5.9149  -22.0750   18.0688 C   0  0  0  0  0  0  0  0  0  0  0  0
    5.5182  -23.1259   19.0146 N   0  0  0  0  0  0  0  0  0  0  0  0
    8.4885  -16.4981   18.7275 C   0  0  0  0  0  0  0  0  0  0  0  0
    9.7382  -16.5029   18.6066 O   0  0  0  0  0  0  0  0  0  0  0  0
    7.5580  -12.6608   19.4840 C   0  0  0  0  0  0  0  0  0  0  0  0
    7.9765  -13.4203   20.7203 C   0  0  1  0  0  0  0  0  0  0  0  0
    6.7854  -13.7495   21.3806 O   0  0  0  0  0  0  0  0  0  0  0  0
    8.7584  -14.6722   20.3764 C   0  0  2  0  0  0  0  0  0  0  0  0
    7.8764  -15.5943   19.6344 N   0  0  0  0  0  0  0  0  0  0  0  0
    9.1965  -15.4411   21.5657 C   0  0  0  0  0  0  0  0  0  0  0  0
    8.3254  -16.0493   22.2921 O   0  0  0  0  0  0  0  0  0  0  0  0
   11.4182  -18.2596   25.1283 N   0  0  0  0  0  0  0  0  0  0  0  0
   10.8135  -18.8094   23.9671 C   0  0  0  0  0  0  0  0  0  0  0  0
   10.6510  -20.0511   23.9339 O   0  0  0  0  0  0  0  0  0  0  0  0
   10.4242  -17.8790   22.8920 C   0  0  0  0  0  0  0  0  0  0  0  0
   10.8429  -16.4630   23.1435 C   0  0  2  0  0  0  0  0  0  0  0  0
   10.5274  -15.5885   22.0092 N   0  0  0  0  0  0  0  0  0  0  0  0
   12.3076  -16.3677   23.4571 C   0  0  0  0  0  0  0  0  0  0  0  0
   13.1471  -15.5163   22.7805 O   0  0  0  0  0  0  0  0  0  0  0  0
   12.8052  -17.0829   24.3670 O   0  0  0  0  0  0  0  0  0  0  0  0
  2  1  1  6
  3  2  1  0
  4  3  1  0
  4  5  1  0
  5  6  1  0
  6  7  1  0
  8  2  1  0
  8  9  2  0
 11 10  1  6
 11 13  1  0
 12 11  1  0
 13 14  1  6
 14  8  1  0
 15 13  1  0
 16 15  2  0
 18 17  1  0
 19 18  2  0
 20 18  1  0
 21 20  1  6
 21 22  1  0
 21 23  1  0
 22 15  1  0
 23 24  1  0
 25 23  2  0
M  END
$$$$
