KTN.pdb
     RDKit          3D

 25 24  0  0  1  0  0  0  0  0999 V2000
    8.6273  -15.2293   14.6537 N   0  0  0  0  0  0  0  0  0  0  0  0
    8.7874  -16.0141   15.8352 C   0  0  1  0  0  0  0  0  0  0  0  0
    9.5950  -17.2630   15.6943 C   0  0  0  0  0  0  0  0  0  0  0  0
    8.8068  -18.5009   15.5669 C   0  0  0  0  0  0  0  0  0  0  0  0
    9.6353  -19.7134   15.3567 C   0  0  0  0  0  0  0  0  0  0  0  0
    8.7519  -20.9296   15.2670 C   0  0  0  0  0  0  0  0  0  0  0  0
    9.6586  -22.0829   15.2033 N   0  0  0  0  0  0  0  0  0  0  0  0
    9.2935  -15.1734   16.9824 C   0  0  0  0  0  0  0  0  0  0  0  0
   10.2765  -14.4069   16.8317 O   0  0  0  0  0  0  0  0  0  0  0  0
    7.2847  -12.7577   19.0537 C   0  0  0  0  0  0  0  0  0  0  0  0
    8.0034  -13.6916   19.9980 C   0  0  1  0  0  0  0  0  0  0  0  0
    7.0428  -14.6263   20.4061 O   0  0  0  0  0  0  0  0  0  0  0  0
    9.1707  -14.3862   19.3257 C   0  0  2  0  0  0  0  0  0  0  0  0
    8.6522  -15.2491   18.2462 N   0  0  0  0  0  0  0  0  0  0  0  0
    9.9089  -15.3054   20.2245 C   0  0  0  0  0  0  0  0  0  0  0  0
    9.8626  -16.5753   20.0207 O   0  0  0  0  0  0  0  0  0  0  0  0
   14.0966  -17.6527   22.6654 N   0  0  0  0  0  0  0  0  0  0  0  0
   13.5001  -16.5283   23.2952 C   0  0  0  0  0  0  0  0  0  0  0  0
   13.6128  -16.4365   24.5395 O   0  0  0  0  0  0  0  0  0  0  0  0
   12.7956  -15.5575   22.4383 C   0  0  0  0  0  0  0  0  0  0  0  0
   11.3753  -15.9340   22.1478 C   0  0  2  0  0  0  0  0  0  0  0  0
   10.6965  -14.9229   21.3305 N   0  0  0  0  0  0  0  0  0  0  0  0
   10.5957  -16.1635   23.4098 C   0  0  0  0  0  0  0  0  0  0  0  0
    9.4973  -15.4069   23.7395 O   0  0  0  0  0  0  0  0  0  0  0  0
   10.9422  -17.0747   24.2077 O   0  0  0  0  0  0  0  0  0  0  0  0
  2  1  1  6
  3  2  1  0
  4  3  1  0
  4  5  1  0
  5  6  1  0
  6  7  1  0
  8  2  1  0
  8  9  2  0
 11 10  1  6
 11 13  1  0
 12 11  1  0
 13 14  1  6
 14  8  1  0
 15 13  1  0
 16 15  2  0
 18 17  1  0
 19 18  2  0
 20 18  1  0
 21 20  1  1
 21 22  1  0
 21 23  1  0
 22 15  1  0
 23 24  1  0
 25 23  2  0
M  END
$$$$
