VPL.pdb
     RDKit          3D

 23 23  0  0  1  0  0  0  0  0999 V2000
    5.8888  -20.0605   23.0428 C   0  0  0  0  0  0  0  0  0  0  0  0
    6.8297  -18.8965   23.0160 C   0  0  2  0  0  0  0  0  0  0  0  0
    6.2660  -17.7637   23.8382 C   0  0  0  0  0  0  0  0  0  0  0  0
    7.1770  -18.4629   21.6104 C   0  0  2  0  0  0  0  0  0  0  0  0
    7.5450  -19.5714   20.7892 N   0  0  0  0  0  0  0  0  0  0  0  0
    8.2148  -17.4071   21.6798 C   0  0  0  0  0  0  0  0  0  0  0  0
    9.4478  -17.7274   21.8123 O   0  0  0  0  0  0  0  0  0  0  0  0
    7.9151  -16.0288   21.6072 N   0  0  0  0  0  0  0  0  0  0  0  0
    6.6068  -15.4581   21.5729 C   0  0  0  0  0  0  0  0  0  0  0  0
    6.8411  -14.0012   21.2463 C   0  0  0  0  0  0  0  0  0  0  0  0
    8.2394  -13.9612   20.6456 C   0  0  0  0  0  0  0  0  0  0  0  0
    8.9063  -14.9943   21.5539 C   0  0  1  0  0  0  0  0  0  0  0  0
    9.1406  -14.3306   22.8389 C   0  0  0  0  0  0  0  0  0  0  0  0
    9.4307  -13.1166   22.9076 O   0  0  0  0  0  0  0  0  0  0  0  0
    5.8056  -12.3454   26.4749 C   0  0  0  0  0  0  0  0  0  0  0  0
    7.2349  -12.9113   26.5669 C   0  0  2  0  0  0  0  0  0  0  0  0
    8.1312  -11.7654   26.9049 C   0  0  0  0  0  0  0  0  0  0  0  0
    7.5826  -13.6081   25.3003 C   0  0  0  0  0  0  0  0  0  0  0  0
    8.8498  -14.3955   25.3468 C   0  0  2  0  0  0  0  0  0  0  0  0
    9.0424  -15.0594   24.0472 N   0  0  0  0  0  0  0  0  0  0  0  0
    8.7707  -15.4156   26.4138 C   0  0  0  0  0  0  0  0  0  0  0  0
    9.4109  -15.1885   27.6409 O   0  0  0  0  0  0  0  0  0  0  0  0
    8.1612  -16.4934   26.3040 O   0  0  0  0  0  0  0  0  0  0  0  0
  2  1  1  6
  2  3  1  0
  4  2  1  0
  4  5  1  6
  6  8  1  0
  6  4  1  0
  7  6  2  0
  8 12  1  0
  9  8  1  0
  9 10  1  0
 10 11  1  0
 12 11  1  0
 13 20  1  0
 12 13  1  1
 14 13  2  0
 16 15  1  6
 16 17  1  0
 18 16  1  0
 19 20  1  0
 19 18  1  6
 21 22  1  0
 21 19  1  0
 23 21  2  0
M  END
$$$$
