VPL.pdb
     RDKit          3D

 23 23  0  0  1  0  0  0  0  0999 V2000
    7.7550  -19.2444   19.2517 C   0  0  0  0  0  0  0  0  0  0  0  0
    7.7089  -19.7811   20.6484 C   0  0  2  0  0  0  0  0  0  0  0  0
    6.8406  -21.0143   20.6945 C   0  0  0  0  0  0  0  0  0  0  0  0
    7.2762  -18.7411   21.6561 C   0  0  2  0  0  0  0  0  0  0  0  0
    5.9750  -18.2302   21.3654 N   0  0  0  0  0  0  0  0  0  0  0  0
    8.3199  -17.6920   21.7367 C   0  0  0  0  0  0  0  0  0  0  0  0
    9.5579  -18.0196   21.7618 O   0  0  0  0  0  0  0  0  0  0  0  0
    8.0209  -16.3127   21.7899 N   0  0  0  0  0  0  0  0  0  0  0  0
    6.7130  -15.7412   21.8244 C   0  0  0  0  0  0  0  0  0  0  0  0
    6.9445  -14.2613   21.6241 C   0  0  0  0  0  0  0  0  0  0  0  0
    8.3343  -14.1684   21.0096 C   0  0  0  0  0  0  0  0  0  0  0  0
    9.0126  -15.2775   21.8140 C   0  0  1  0  0  0  0  0  0  0  0  0
    9.2657  -14.7295   23.1490 C   0  0  0  0  0  0  0  0  0  0  0  0
   10.1944  -13.9201   23.3612 O   0  0  0  0  0  0  0  0  0  0  0  0
    7.5445  -11.8526   26.2862 C   0  0  0  0  0  0  0  0  0  0  0  0
    6.7093  -13.0557   25.8101 C   0  0  2  0  0  0  0  0  0  0  0  0
    5.3286  -12.8607   26.3452 C   0  0  0  0  0  0  0  0  0  0  0  0
    7.3599  -14.3216   26.2403 C   0  0  0  0  0  0  0  0  0  0  0  0
    8.6814  -14.5941   25.6023 C   0  0  2  0  0  0  0  0  0  0  0  0
    8.4532  -15.1098   24.2426 N   0  0  0  0  0  0  0  0  0  0  0  0
    9.4248  -15.5990   26.3916 C   0  0  0  0  0  0  0  0  0  0  0  0
    9.5338  -16.9141   25.9160 O   0  0  0  0  0  0  0  0  0  0  0  0
    9.9783  -15.3611   27.4789 O   0  0  0  0  0  0  0  0  0  0  0  0
  2  1  1  6
  2  3  1  0
  4  2  1  0
  4  5  1  6
  6  8  1  0
  6  4  1  0
  7  6  2  0
  8 12  1  0
  9  8  1  0
  9 10  1  0
 10 11  1  0
 12 11  1  0
 13 20  1  0
 12 13  1  1
 14 13  2  0
 16 15  1  1
 16 17  1  0
 18 16  1  0
 19 20  1  0
 19 18  1  1
 21 22  1  0
 21 19  1  0
 23 21  2  0
M  END
$$$$
