VPL.pdb
     RDKit          3D

 23 23  0  0  1  0  0  0  0  0999 V2000
    6.9759  -14.9118   18.8421 C   0  0  0  0  0  0  0  0  0  0  0  0
    7.5889  -14.8692   20.2071 C   0  0  2  0  0  0  0  0  0  0  0  0
    6.8031  -15.7482   21.1488 C   0  0  0  0  0  0  0  0  0  0  0  0
    7.7377  -13.4601   20.7331 C   0  0  2  0  0  0  0  0  0  0  0  0
    8.3055  -12.5868   19.7566 N   0  0  0  0  0  0  0  0  0  0  0  0
    8.4998  -13.5033   22.0034 C   0  0  0  0  0  0  0  0  0  0  0  0
    9.7788  -13.4366   21.9866 O   0  0  0  0  0  0  0  0  0  0  0  0
    7.8807  -13.6177   23.2677 N   0  0  0  0  0  0  0  0  0  0  0  0
    6.4742  -13.6638   23.5091 C   0  0  0  0  0  0  0  0  0  0  0  0
    6.3463  -13.5359   25.0094 C   0  0  0  0  0  0  0  0  0  0  0  0
    7.6740  -12.9428   25.4601 C   0  0  0  0  0  0  0  0  0  0  0  0
    8.5970  -13.7020   24.5068 C   0  0  1  0  0  0  0  0  0  0  0  0
    8.7120  -15.0642   25.0339 C   0  0  0  0  0  0  0  0  0  0  0  0
    7.7058  -15.7798   25.2290 O   0  0  0  0  0  0  0  0  0  0  0  0
   10.0712  -13.7321   29.8418 C   0  0  0  0  0  0  0  0  0  0  0  0
   10.3781  -15.0118   29.0420 C   0  0  2  0  0  0  0  0  0  0  0  0
   11.8082  -15.3524   29.3061 C   0  0  0  0  0  0  0  0  0  0  0  0
   10.0542  -14.7979   27.6067 C   0  0  0  0  0  0  0  0  0  0  0  0
   10.3765  -15.9499   26.7141 C   0  0  2  0  0  0  0  0  0  0  0  0
    9.9823  -15.6071   25.3380 N   0  0  0  0  0  0  0  0  0  0  0  0
    9.6354  -17.1512   27.1538 C   0  0  0  0  0  0  0  0  0  0  0  0
    8.2336  -17.1588   27.1062 O   0  0  0  0  0  0  0  0  0  0  0  0
   10.1758  -18.1880   27.5757 O   0  0  0  0  0  0  0  0  0  0  0  0
  2  1  1  6
  2  3  1  0
  4  2  1  0
  4  5  1  6
  6  8  1  0
  6  4  1  0
  7  6  2  0
  8 12  1  0
  9  8  1  0
  9 10  1  0
 10 11  1  0
 12 11  1  0
 13 20  1  0
 12 13  1  1
 14 13  2  0
 16 15  1  1
 16 17  1  0
 18 16  1  0
 19 20  1  0
 19 18  1  1
 21 22  1  0
 21 19  1  0
 23 21  2  0
M  END
$$$$
