VPL.pdb
     RDKit          3D

 23 23  0  0  1  0  0  0  0  0999 V2000
    7.4365  -12.7587   20.4759 C   0  0  0  0  0  0  0  0  0  0  0  0
    8.3449  -13.4588   19.5138 C   0  0  2  0  0  0  0  0  0  0  0  0
    8.4159  -12.6842   18.2208 C   0  0  0  0  0  0  0  0  0  0  0  0
    7.9553  -14.9024   19.2931 C   0  0  2  0  0  0  0  0  0  0  0  0
    6.7984  -15.0187   18.4646 N   0  0  0  0  0  0  0  0  0  0  0  0
    7.8087  -15.5636   20.6113 C   0  0  0  0  0  0  0  0  0  0  0  0
    6.6692  -15.5829   21.1959 O   0  0  0  0  0  0  0  0  0  0  0  0
    8.8828  -16.1910   21.2803 N   0  0  0  0  0  0  0  0  0  0  0  0
   10.2225  -16.2945   20.7978 C   0  0  0  0  0  0  0  0  0  0  0  0
   10.8927  -17.2542   21.7537 C   0  0  0  0  0  0  0  0  0  0  0  0
    9.7442  -17.9946   22.4247 C   0  0  0  0  0  0  0  0  0  0  0  0
    8.7691  -16.8251   22.5611 C   0  0  1  0  0  0  0  0  0  0  0  0
    9.2543  -16.0050   23.6741 C   0  0  0  0  0  0  0  0  0  0  0  0
   10.2055  -15.2059   23.5349 O   0  0  0  0  0  0  0  0  0  0  0  0
    5.8354  -12.5266   26.7017 C   0  0  0  0  0  0  0  0  0  0  0  0
    7.2356  -13.1546   26.8303 C   0  0  2  0  0  0  0  0  0  0  0  0
    8.2215  -12.0407   26.6964 C   0  0  0  0  0  0  0  0  0  0  0  0
    7.3953  -14.2383   25.8249 C   0  0  0  0  0  0  0  0  0  0  0  0
    8.6811  -14.9908   25.9148 C   0  0  2  0  0  0  0  0  0  0  0  0
    8.6484  -16.1008   24.9486 N   0  0  0  0  0  0  0  0  0  0  0  0
    8.8546  -15.5313   27.2799 C   0  0  0  0  0  0  0  0  0  0  0  0
    8.1520  -16.6824   27.6659 O   0  0  0  0  0  0  0  0  0  0  0  0
    9.5986  -15.0286   28.1393 O   0  0  0  0  0  0  0  0  0  0  0  0
  2  1  1  1
  2  3  1  0
  4  2  1  0
  4  5  1  1
  6  8  1  0
  6  4  1  0
  7  6  2  0
  8 12  1  0
  9  8  1  0
  9 10  1  0
 10 11  1  0
 12 11  1  0
 13 20  1  0
 12 13  1  1
 14 13  2  0
 16 15  1  6
 16 17  1  0
 18 16  1  0
 19 20  1  0
 19 18  1  1
 21 22  1  0
 21 19  1  0
 23 21  2  0
M  END
$$$$
