VPL.pdb
     RDKit          3D

 23 23  0  0  1  0  0  0  0  0999 V2000
    4.7369  -18.2225   22.8119 C   0  0  0  0  0  0  0  0  0  0  0  0
    4.5609  -17.5126   21.5058 C   0  0  2  0  0  0  0  0  0  0  0  0
    3.2651  -17.9399   20.8615 C   0  0  0  0  0  0  0  0  0  0  0  0
    5.7437  -17.6937   20.5825 C   0  0  2  0  0  0  0  0  0  0  0  0
    5.9111  -19.0580   20.1965 N   0  0  0  0  0  0  0  0  0  0  0  0
    6.9441  -17.1084   21.2250 C   0  0  0  0  0  0  0  0  0  0  0  0
    7.8588  -17.8736   21.6923 O   0  0  0  0  0  0  0  0  0  0  0  0
    7.1440  -15.7164   21.3567 N   0  0  0  0  0  0  0  0  0  0  0  0
    6.2681  -14.6966   20.8760 C   0  0  0  0  0  0  0  0  0  0  0  0
    7.0525  -13.4163   21.0476 C   0  0  0  0  0  0  0  0  0  0  0  0
    8.5020  -13.8659   21.1677 C   0  0  0  0  0  0  0  0  0  0  0  0
    8.2800  -15.1270   22.0028 C   0  0  1  0  0  0  0  0  0  0  0  0
    8.0172  -14.6793   23.3728 C   0  0  0  0  0  0  0  0  0  0  0  0
    6.8613  -14.4096   23.7651 O   0  0  0  0  0  0  0  0  0  0  0  0
    8.2721  -11.9831   26.9579 C   0  0  0  0  0  0  0  0  0  0  0  0
    7.3137  -12.6888   25.9806 C   0  0  2  0  0  0  0  0  0  0  0  0
    5.9357  -12.2185   26.3133 C   0  0  0  0  0  0  0  0  0  0  0  0
    7.4971  -14.1615   26.0713 C   0  0  0  0  0  0  0  0  0  0  0  0
    8.8729  -14.6417   25.7487 C   0  0  2  0  0  0  0  0  0  0  0  0
    9.0808  -14.5404   24.2949 N   0  0  0  0  0  0  0  0  0  0  0  0
    9.0274  -16.0500   26.1710 C   0  0  0  0  0  0  0  0  0  0  0  0
    8.6680  -17.0824   25.2922 O   0  0  0  0  0  0  0  0  0  0  0  0
    9.4652  -16.4011   27.2802 O   0  0  0  0  0  0  0  0  0  0  0  0
  2  1  1  1
  2  3  1  0
  4  2  1  0
  4  5  1  1
  6  8  1  0
  6  4  1  0
  7  6  2  0
  8 12  1  0
  9  8  1  0
  9 10  1  0
 10 11  1  0
 12 11  1  0
 13 20  1  0
 12 13  1  1
 14 13  2  0
 16 15  1  1
 16 17  1  0
 18 16  1  0
 19 20  1  0
 19 18  1  6
 21 22  1  0
 21 19  1  0
 23 21  2  0
M  END
$$$$
