VPL.pdb
     RDKit          3D

 23 23  0  0  1  0  0  0  0  0999 V2000
    8.7683  -12.4724   17.9334 C   0  0  0  0  0  0  0  0  0  0  0  0
    8.3800  -13.2926   19.1240 C   0  0  2  0  0  0  0  0  0  0  0  0
    9.2056  -12.8832   20.3188 C   0  0  0  0  0  0  0  0  0  0  0  0
    8.4606  -14.7780   18.8571 C   0  0  2  0  0  0  0  0  0  0  0  0
    7.7113  -15.1504   17.7002 N   0  0  0  0  0  0  0  0  0  0  0  0
    8.0569  -15.5055   20.0836 C   0  0  0  0  0  0  0  0  0  0  0  0
    6.8180  -15.6008   20.3943 O   0  0  0  0  0  0  0  0  0  0  0  0
    8.9850  -16.1166   20.9554 N   0  0  0  0  0  0  0  0  0  0  0  0
   10.3950  -16.2033   20.7485 C   0  0  0  0  0  0  0  0  0  0  0  0
   10.8746  -17.1513   21.8233 C   0  0  0  0  0  0  0  0  0  0  0  0
    9.6253  -17.9054   22.2572 C   0  0  0  0  0  0  0  0  0  0  0  0
    8.6278  -16.7489   22.1916 C   0  0  1  0  0  0  0  0  0  0  0  0
    8.8723  -15.9194   23.3743 C   0  0  0  0  0  0  0  0  0  0  0  0
    9.9886  -15.4013   23.5935 O   0  0  0  0  0  0  0  0  0  0  0  0
    5.4962  -12.3633   26.9983 C   0  0  0  0  0  0  0  0  0  0  0  0
    6.8856  -12.9861   26.7678 C   0  0  2  0  0  0  0  0  0  0  0  0
    7.8402  -11.8529   26.5802 C   0  0  0  0  0  0  0  0  0  0  0  0
    6.8283  -13.9346   25.6241 C   0  0  0  0  0  0  0  0  0  0  0  0
    8.0241  -14.8163   25.4819 C   0  0  2  0  0  0  0  0  0  0  0  0
    7.8358  -15.6835   24.3075 N   0  0  0  0  0  0  0  0  0  0  0  0
    8.1808  -15.6523   26.6911 C   0  0  0  0  0  0  0  0  0  0  0  0
    9.1584  -15.3230   27.6415 O   0  0  0  0  0  0  0  0  0  0  0  0
    7.4912  -16.6564   26.9385 O   0  0  0  0  0  0  0  0  0  0  0  0
  2  1  1  6
  2  3  1  0
  4  2  1  0
  4  5  1  6
  6  8  1  0
  6  4  1  0
  7  6  2  0
  8 12  1  0
  9  8  1  0
  9 10  1  0
 10 11  1  0
 12 11  1  0
 13 20  1  0
 12 13  1  1
 14 13  2  0
 16 15  1  6
 16 17  1  0
 18 16  1  0
 19 20  1  0
 19 18  1  1
 21 22  1  0
 21 19  1  0
 23 21  2  0
M  END
$$$$
