VPL.pdb
     RDKit          3D

 23 23  0  0  1  0  0  0  0  0999 V2000
    7.8889  -20.0127   20.5870 C   0  0  0  0  0  0  0  0  0  0  0  0
    8.1879  -18.8882   21.5287 C   0  0  2  0  0  0  0  0  0  0  0  0
    6.9008  -18.2439   21.9817 C   0  0  0  0  0  0  0  0  0  0  0  0
    9.1539  -17.8831   20.9449 C   0  0  2  0  0  0  0  0  0  0  0  0
   10.3833  -18.4947   20.5534 N   0  0  0  0  0  0  0  0  0  0  0  0
    9.3264  -16.7713   21.9096 C   0  0  0  0  0  0  0  0  0  0  0  0
   10.2634  -16.8184   22.7815 O   0  0  0  0  0  0  0  0  0  0  0  0
    8.4936  -15.6306   21.9247 N   0  0  0  0  0  0  0  0  0  0  0  0
    7.3399  -15.4266   21.1089 C   0  0  0  0  0  0  0  0  0  0  0  0
    6.9732  -13.9777   21.3327 C   0  0  0  0  0  0  0  0  0  0  0  0
    8.2389  -13.3418   21.8909 C   0  0  0  0  0  0  0  0  0  0  0  0
    8.7011  -14.4976   22.7784 C   0  0  1  0  0  0  0  0  0  0  0  0
    7.8407  -14.4830   23.9642 C   0  0  0  0  0  0  0  0  0  0  0  0
    6.6848  -14.9585   23.9426 O   0  0  0  0  0  0  0  0  0  0  0  0
    9.4545  -15.5846   28.0391 C   0  0  0  0  0  0  0  0  0  0  0  0
    9.6545  -14.0992   27.6854 C   0  0  2  0  0  0  0  0  0  0  0  0
   10.5202  -13.5147   28.7529 C   0  0  0  0  0  0  0  0  0  0  0  0
    8.3325  -13.4350   27.5366 C   0  0  0  0  0  0  0  0  0  0  0  0
    7.4995  -13.9452   26.4081 C   0  0  2  0  0  0  0  0  0  0  0  0
    8.3058  -13.9225   25.1768 N   0  0  0  0  0  0  0  0  0  0  0  0
    6.3085  -13.0871   26.2325 C   0  0  0  0  0  0  0  0  0  0  0  0
    6.2656  -12.1657   25.1758 O   0  0  0  0  0  0  0  0  0  0  0  0
    5.3103  -13.1202   26.9725 O   0  0  0  0  0  0  0  0  0  0  0  0
  2  1  1  6
  2  3  1  0
  4  2  1  0
  4  5  1  1
  6  8  1  0
  6  4  1  0
  7  6  2  0
  8 12  1  0
  9  8  1  0
  9 10  1  0
 10 11  1  0
 12 11  1  0
 13 20  1  0
 12 13  1  1
 14 13  2  0
 16 15  1  1
 16 17  1  0
 18 16  1  0
 19 20  1  0
 19 18  1  1
 21 22  1  0
 21 19  1  0
 23 21  2  0
M  END
$$$$
