VPL.pdb
     RDKit          3D

 23 23  0  0  1  0  0  0  0  0999 V2000
    9.7828  -20.1438   19.3464 C   0  0  0  0  0  0  0  0  0  0  0  0
    9.9599  -18.9907   20.2843 C   0  0  2  0  0  0  0  0  0  0  0  0
    9.1399  -19.2143   21.5310 C   0  0  0  0  0  0  0  0  0  0  0  0
    9.6567  -17.6608   19.6332 C   0  0  2  0  0  0  0  0  0  0  0  0
   10.4038  -17.4765   18.4307 N   0  0  0  0  0  0  0  0  0  0  0  0
    9.8636  -16.5838   20.6300 C   0  0  0  0  0  0  0  0  0  0  0  0
   11.0262  -16.0696   20.7867 O   0  0  0  0  0  0  0  0  0  0  0  0
    8.8243  -16.0770   21.4411 N   0  0  0  0  0  0  0  0  0  0  0  0
    7.4580  -16.4897   21.4046 C   0  0  0  0  0  0  0  0  0  0  0  0
    6.7381  -15.4823   22.2710 C   0  0  0  0  0  0  0  0  0  0  0  0
    7.6835  -14.2912   22.3434 C   0  0  0  0  0  0  0  0  0  0  0  0
    9.0048  -15.0551   22.4304 C   0  0  1  0  0  0  0  0  0  0  0  0
    9.1019  -15.5661   23.8001 C   0  0  0  0  0  0  0  0  0  0  0  0
    8.5325  -16.6231   24.1484 O   0  0  0  0  0  0  0  0  0  0  0  0
    9.1135  -13.5032   29.3962 C   0  0  0  0  0  0  0  0  0  0  0  0
    9.6633  -14.6545   28.5338 C   0  0  2  0  0  0  0  0  0  0  0  0
   11.0373  -14.9523   29.0377 C   0  0  0  0  0  0  0  0  0  0  0  0
    9.6060  -14.2781   27.0965 C   0  0  0  0  0  0  0  0  0  0  0  0
   10.0048  -15.3608   26.1497 C   0  0  2  0  0  0  0  0  0  0  0  0
    9.8527  -14.8647   24.7722 N   0  0  0  0  0  0  0  0  0  0  0  0
    9.1411  -16.5446   26.3448 C   0  0  0  0  0  0  0  0  0  0  0  0
    7.8512  -16.5619   25.7942 O   0  0  0  0  0  0  0  0  0  0  0  0
    9.4804  -17.5582   26.9794 O   0  0  0  0  0  0  0  0  0  0  0  0
  2  1  1  6
  2  3  1  0
  4  2  1  0
  4  5  1  6
  6  8  1  0
  6  4  1  0
  7  6  2  0
  8 12  1  0
  9  8  1  0
  9 10  1  0
 10 11  1  0
 12 11  1  0
 13 20  1  0
 12 13  1  1
 14 13  2  0
 16 15  1  1
 16 17  1  0
 18 16  1  0
 19 20  1  0
 19 18  1  1
 21 22  1  0
 21 19  1  0
 23 21  2  0
M  END
$$$$
