VPL.pdb
     RDKit          3D

 23 23  0  0  1  0  0  0  0  0999 V2000
    6.4325  -16.0482   20.9199 C   0  0  0  0  0  0  0  0  0  0  0  0
    7.2905  -15.7069   22.0982 C   0  0  2  0  0  0  0  0  0  0  0  0
    6.6900  -16.2886   23.3543 C   0  0  0  0  0  0  0  0  0  0  0  0
    7.5431  -14.2218   22.2217 C   0  0  2  0  0  0  0  0  0  0  0  0
    8.0695  -13.6712   21.0142 N   0  0  0  0  0  0  0  0  0  0  0  0
    8.4012  -13.9810   23.4058 C   0  0  0  0  0  0  0  0  0  0  0  0
    9.6759  -13.9672   23.2819 O   0  0  0  0  0  0  0  0  0  0  0  0
    7.8807  -13.7603   24.7001 N   0  0  0  0  0  0  0  0  0  0  0  0
    6.4979  -13.7506   25.0550 C   0  0  0  0  0  0  0  0  0  0  0  0
    6.4779  -13.2302   26.4737 C   0  0  0  0  0  0  0  0  0  0  0  0
    7.8184  -12.5294   26.6458 C   0  0  0  0  0  0  0  0  0  0  0  0
    8.6889  -13.5078   25.8571 C   0  0  1  0  0  0  0  0  0  0  0  0
    8.8803  -14.6804   26.7144 C   0  0  0  0  0  0  0  0  0  0  0  0
    7.9119  -15.3002   27.2049 O   0  0  0  0  0  0  0  0  0  0  0  0
   13.4816  -17.7748   26.0531 C   0  0  0  0  0  0  0  0  0  0  0  0
   12.0320  -17.2770   26.2029 C   0  0  2  0  0  0  0  0  0  0  0  0
   11.8355  -16.2077   25.1788 C   0  0  0  0  0  0  0  0  0  0  0  0
   11.7937  -16.8359   27.6027 C   0  0  0  0  0  0  0  0  0  0  0  0
   10.4207  -16.3148   27.8694 C   0  0  2  0  0  0  0  0  0  0  0  0
   10.1838  -15.1436   27.0100 N   0  0  0  0  0  0  0  0  0  0  0  0
   10.2991  -15.9171   29.2881 C   0  0  0  0  0  0  0  0  0  0  0  0
   10.2842  -16.9018   30.2869 O   0  0  0  0  0  0  0  0  0  0  0  0
   10.2060  -14.7400   29.6765 O   0  0  0  0  0  0  0  0  0  0  0  0
  2  1  1  6
  2  3  1  0
  4  2  1  0
  4  5  1  6
  6  8  1  0
  6  4  1  0
  7  6  2  0
  8 12  1  0
  9  8  1  0
  9 10  1  0
 10 11  1  0
 12 11  1  0
 13 20  1  0
 12 13  1  1
 14 13  2  0
 16 15  1  1
 16 17  1  0
 18 16  1  0
 19 20  1  0
 19 18  1  1
 21 22  1  0
 21 19  1  0
 23 21  2  0
M  END
$$$$
