VWL.pdb
     RDKit          3D

 30 31  0  0  1  0  0  0  0  0999 V2000
    8.2113  -12.6346   20.4732 C   0  0  0  0  0  0  0  0  0  0  0  0
    7.4027  -13.8913   20.5233 C   0  0  1  0  0  0  0  0  0  0  0  0
    6.4121  -14.0163   19.3998 C   0  0  0  0  0  0  0  0  0  0  0  0
    8.2221  -15.1401   20.7401 C   0  0  2  0  0  0  0  0  0  0  0  0
    7.2779  -16.2573   20.6873 N   0  0  0  0  0  0  0  0  0  0  0  0
    8.9199  -15.2028   22.0241 C   0  0  0  0  0  0  0  0  0  0  0  0
    9.7878  -14.3092   22.2998 O   0  0  0  0  0  0  0  0  0  0  0  0
    8.7406  -16.1757   23.0392 N   0  0  0  0  0  0  0  0  0  0  0  0
    9.4134  -16.1635   24.3052 C   0  0  1  0  0  0  0  0  0  0  0  0
    8.5472  -16.3057   25.5023 C   0  0  0  0  0  0  0  0  0  0  0  0
    7.3988  -15.4046   25.5857 C   0  0  0  0  0  0  0  0  0  0  0  0
    6.0566  -15.5860   25.3407 C   0  0  0  0  0  0  0  0  0  0  0  0
    5.3822  -14.4466   25.5658 N   0  0  0  0  0  0  0  0  0  0  0  0
    6.2574  -13.4969   25.9613 C   0  0  0  0  0  0  0  0  0  0  0  0
    6.0588  -12.1781   26.3065 C   0  0  0  0  0  0  0  0  0  0  0  0
    7.1192  -11.3866   26.6840 C   0  0  0  0  0  0  0  0  0  0  0  0
    8.3758  -11.9494   26.7064 C   0  0  0  0  0  0  0  0  0  0  0  0
    8.5693  -13.2688   26.3603 C   0  0  0  0  0  0  0  0  0  0  0  0
    7.5088  -14.0727   25.9790 C   0  0  0  0  0  0  0  0  0  0  0  0
   10.5985  -17.0746   24.3233 C   0  0  0  0  0  0  0  0  0  0  0  0
   10.3884  -18.2901   24.0791 O   0  0  0  0  0  0  0  0  0  0  0  0
   16.0028  -16.0276   23.1620 C   0  0  0  0  0  0  0  0  0  0  0  0
   14.7086  -16.8219   23.3027 C   0  0  2  0  0  0  0  0  0  0  0  0
   13.6019  -16.1308   22.5257 C   0  0  0  0  0  0  0  0  0  0  0  0
   14.3045  -16.9569   24.7413 C   0  0  0  0  0  0  0  0  0  0  0  0
   12.9655  -17.6038   24.8537 C   0  0  2  0  0  0  0  0  0  0  0  0
   11.9003  -16.6312   24.5952 N   0  0  0  0  0  0  0  0  0  0  0  0
   12.6803  -18.1784   26.1803 C   0  0  0  0  0  0  0  0  0  0  0  0
   11.8100  -17.6447   26.9324 O   0  0  0  0  0  0  0  0  0  0  0  0
   13.3143  -19.3104   26.6967 O   0  0  0  0  0  0  0  0  0  0  0  0
  2  1  1  6
  2  3  1  0
  4  2  1  0
  4  5  1  1
  6  4  1  0
  6  7  2  0
  8  6  1  0
  9  8  1  0
  9 10  1  1
 11 12  2  0
 11 10  1  0
 13 12  1  0
 14 19  2  0
 14 13  1  0
 15 14  1  0
 16 17  1  0
 16 15  2  0
 17 18  2  0
 18 19  1  0
 19 11  1  0
 20  9  1  0
 21 20  2  0
 23 22  1  1
 23 25  1  0
 24 23  1  0
 26 25  1  1
 26 27  1  0
 26 28  1  0
 27 20  1  0
 28 30  1  0
 29 28  2  0
M  END
$$$$
