VWL.pdb
     RDKit          3D

 30 31  0  0  1  0  0  0  0  0999 V2000
   11.2725  -14.9233   19.9580 C   0  0  0  0  0  0  0  0  0  0  0  0
    9.8934  -15.1266   19.4170 C   0  0  1  0  0  0  0  0  0  0  0  0
    9.8550  -15.3468   17.9307 C   0  0  0  0  0  0  0  0  0  0  0  0
    9.0717  -16.1279   20.1916 C   0  0  2  0  0  0  0  0  0  0  0  0
    7.7365  -16.1051   19.5921 N   0  0  0  0  0  0  0  0  0  0  0  0
    8.9284  -15.8346   21.6174 C   0  0  0  0  0  0  0  0  0  0  0  0
    8.4976  -14.6873   21.9718 O   0  0  0  0  0  0  0  0  0  0  0  0
    9.2224  -16.7067   22.6955 N   0  0  0  0  0  0  0  0  0  0  0  0
    9.1092  -16.3541   24.0805 C   0  0  1  0  0  0  0  0  0  0  0  0
    7.9081  -16.8681   24.7854 C   0  0  0  0  0  0  0  0  0  0  0  0
    6.8714  -15.8877   25.1047 C   0  0  0  0  0  0  0  0  0  0  0  0
    5.5154  -16.0040   25.3103 C   0  0  0  0  0  0  0  0  0  0  0  0
    4.9801  -14.8038   25.5872 N   0  0  0  0  0  0  0  0  0  0  0  0
    5.9630  -13.8777   25.5709 C   0  0  0  0  0  0  0  0  0  0  0  0
    5.9222  -12.5185   25.7918 C   0  0  0  0  0  0  0  0  0  0  0  0
    7.0705  -11.7636   25.7214 C   0  0  0  0  0  0  0  0  0  0  0  0
    8.2533  -12.4041   25.4259 C   0  0  0  0  0  0  0  0  0  0  0  0
    8.2889  -13.7636   25.2058 C   0  0  0  0  0  0  0  0  0  0  0  0
    7.1389  -14.5311   25.2742 C   0  0  0  0  0  0  0  0  0  0  0  0
   10.3803  -16.5945   24.8298 C   0  0  0  0  0  0  0  0  0  0  0  0
   11.2344  -17.3375   24.2824 O   0  0  0  0  0  0  0  0  0  0  0  0
   10.8859  -13.5874   27.3483 C   0  0  0  0  0  0  0  0  0  0  0  0
   10.7595  -14.7788   28.2918 C   0  0  2  0  0  0  0  0  0  0  0  0
   10.6947  -14.2856   29.7266 C   0  0  0  0  0  0  0  0  0  0  0  0
   11.9148  -15.7235   28.1363 C   0  0  0  0  0  0  0  0  0  0  0  0
   11.7919  -16.5017   26.8701 C   0  0  2  0  0  0  0  0  0  0  0  0
   10.6448  -16.0340   26.0873 N   0  0  0  0  0  0  0  0  0  0  0  0
   11.5898  -17.9482   27.0659 C   0  0  0  0  0  0  0  0  0  0  0  0
   12.5567  -18.6834   27.4302 O   0  0  0  0  0  0  0  0  0  0  0  0
   10.3700  -18.6015   26.8779 O   0  0  0  0  0  0  0  0  0  0  0  0
  2  1  1  1
  2  3  1  0
  4  2  1  0
  4  5  1  6
  6  4  1  0
  6  7  2  0
  8  6  1  0
  9  8  1  0
  9 10  1  1
 11 12  2  0
 11 10  1  0
 13 12  1  0
 14 19  2  0
 14 13  1  0
 15 14  1  0
 16 17  1  0
 16 15  2  0
 17 18  2  0
 18 19  1  0
 19 11  1  0
 20  9  1  0
 21 20  2  0
 23 22  1  6
 23 25  1  0
 24 23  1  0
 26 25  1  1
 26 27  1  0
 26 28  1  0
 27 20  1  0
 28 30  1  0
 29 28  2  0
M  END
$$$$
