VWL.pdb
     RDKit          3D

 30 31  0  0  1  0  0  0  0  0999 V2000
   13.1817  -18.8121   21.6318 C   0  0  0  0  0  0  0  0  0  0  0  0
   13.0476  -17.7695   20.5684 C   0  0  1  0  0  0  0  0  0  0  0  0
   13.7296  -18.1319   19.2790 C   0  0  0  0  0  0  0  0  0  0  0  0
   11.6381  -17.2645   20.3783 C   0  0  2  0  0  0  0  0  0  0  0  0
   11.7173  -16.2205   19.3554 N   0  0  0  0  0  0  0  0  0  0  0  0
   11.0285  -16.6781   21.5716 C   0  0  0  0  0  0  0  0  0  0  0  0
   11.5274  -15.6097   22.0586 O   0  0  0  0  0  0  0  0  0  0  0  0
    9.9055  -17.1740   22.2801 N   0  0  0  0  0  0  0  0  0  0  0  0
    9.2783  -16.5041   23.3816 C   0  0  1  0  0  0  0  0  0  0  0  0
    7.7939  -16.4910   23.3737 C   0  0  0  0  0  0  0  0  0  0  0  0
    7.1426  -15.8310   24.5041 C   0  0  0  0  0  0  0  0  0  0  0  0
    6.4726  -16.3182   25.6033 C   0  0  0  0  0  0  0  0  0  0  0  0
    6.0510  -15.3067   26.3799 N   0  0  0  0  0  0  0  0  0  0  0  0
    6.4308  -14.1403   25.8149 C   0  0  0  0  0  0  0  0  0  0  0  0
    6.2393  -12.8385   26.2230 C   0  0  0  0  0  0  0  0  0  0  0  0
    6.7243  -11.7918   25.4729 C   0  0  0  0  0  0  0  0  0  0  0  0
    7.4024  -12.0834   24.3104 C   0  0  0  0  0  0  0  0  0  0  0  0
    7.5914  -13.3870   23.9065 C   0  0  0  0  0  0  0  0  0  0  0  0
    7.1070  -14.4464   24.6543 C   0  0  0  0  0  0  0  0  0  0  0  0
    9.8572  -16.9166   24.6968 C   0  0  0  0  0  0  0  0  0  0  0  0
   10.4753  -18.0111   24.7308 O   0  0  0  0  0  0  0  0  0  0  0  0
   11.8173  -13.9559   27.2487 C   0  0  0  0  0  0  0  0  0  0  0  0
   10.3679  -14.1958   27.6576 C   0  0  2  0  0  0  0  0  0  0  0  0
    9.9661  -13.1866   28.7189 C   0  0  0  0  0  0  0  0  0  0  0  0
   10.1727  -15.5864   28.1863 C   0  0  0  0  0  0  0  0  0  0  0  0
   10.3703  -16.5936   27.1044 C   0  0  2  0  0  0  0  0  0  0  0  0
    9.7378  -16.1447   25.8610 N   0  0  0  0  0  0  0  0  0  0  0  0
    9.7965  -17.9186   27.3989 C   0  0  0  0  0  0  0  0  0  0  0  0
   10.2729  -18.6252   28.3379 O   0  0  0  0  0  0  0  0  0  0  0  0
    8.7256  -18.4814   26.7013 O   0  0  0  0  0  0  0  0  0  0  0  0
  2  1  1  1
  2  3  1  0
  4  2  1  0
  4  5  1  6
  6  4  1  0
  6  7  2  0
  8  6  1  0
  9  8  1  0
  9 10  1  1
 11 12  2  0
 11 10  1  0
 13 12  1  0
 14 19  2  0
 14 13  1  0
 15 14  1  0
 16 17  1  0
 16 15  2  0
 17 18  2  0
 18 19  1  0
 19 11  1  0
 20  9  1  0
 21 20  2  0
 23 22  1  1
 23 25  1  0
 24 23  1  0
 26 25  1  1
 26 27  1  0
 26 28  1  0
 27 20  1  0
 28 30  1  0
 29 28  2  0
M  END
$$$$
