VWL.pdb
     RDKit          3D

 30 31  0  0  1  0  0  0  0  0999 V2000
   11.8809  -20.0671   18.7559 C   0  0  0  0  0  0  0  0  0  0  0  0
   11.5260  -18.8130   19.4886 C   0  0  1  0  0  0  0  0  0  0  0  0
   10.3263  -18.1042   18.9251 C   0  0  0  0  0  0  0  0  0  0  0  0
   11.4773  -18.9714   20.9887 C   0  0  2  0  0  0  0  0  0  0  0  0
   10.4672  -19.9970   21.2542 N   0  0  0  0  0  0  0  0  0  0  0  0
   11.0956  -17.7652   21.7227 C   0  0  0  0  0  0  0  0  0  0  0  0
   11.8685  -16.7508   21.6886 O   0  0  0  0  0  0  0  0  0  0  0  0
    9.9235  -17.5806   22.4981 N   0  0  0  0  0  0  0  0  0  0  0  0
    9.6515  -16.4219   23.2975 C   0  0  1  0  0  0  0  0  0  0  0  0
    8.2219  -16.0440   23.4279 C   0  0  0  0  0  0  0  0  0  0  0  0
    7.9332  -14.6144   23.5314 C   0  0  0  0  0  0  0  0  0  0  0  0
    8.2201  -13.5476   22.7105 C   0  0  0  0  0  0  0  0  0  0  0  0
    7.7354  -12.4103   23.2353 N   0  0  0  0  0  0  0  0  0  0  0  0
    7.1231  -12.6998   24.4038 C   0  0  0  0  0  0  0  0  0  0  0  0
    6.4773  -11.8847   25.3072 C   0  0  0  0  0  0  0  0  0  0  0  0
    5.9189  -12.4109   26.4494 C   0  0  0  0  0  0  0  0  0  0  0  0
    6.0243  -13.7677   26.6600 C   0  0  0  0  0  0  0  0  0  0  0  0
    6.6712  -14.5788   25.7534 C   0  0  0  0  0  0  0  0  0  0  0  0
    7.2361  -14.0585   24.6018 C   0  0  0  0  0  0  0  0  0  0  0  0
   10.3739  -16.4567   24.6058 C   0  0  0  0  0  0  0  0  0  0  0  0
   11.6255  -16.5695   24.5646 O   0  0  0  0  0  0  0  0  0  0  0  0
   11.7984  -14.0056   27.4701 C   0  0  0  0  0  0  0  0  0  0  0  0
   10.3114  -14.2399   27.7141 C   0  0  2  0  0  0  0  0  0  0  0  0
    9.8149  -13.2812   28.7821 C   0  0  0  0  0  0  0  0  0  0  0  0
   10.0444  -15.6527   28.1429 C   0  0  0  0  0  0  0  0  0  0  0  0
   10.4639  -16.6132   27.0821 C   0  0  2  0  0  0  0  0  0  0  0  0
    9.7204  -16.3694   25.8431 N   0  0  0  0  0  0  0  0  0  0  0  0
   10.2363  -18.0287   27.4228 C   0  0  0  0  0  0  0  0  0  0  0  0
   10.9724  -18.6044   28.2799 O   0  0  0  0  0  0  0  0  0  0  0  0
    9.2335  -18.8193   26.8574 O   0  0  0  0  0  0  0  0  0  0  0  0
  2  1  1  6
  2  3  1  0
  4  2  1  0
  4  5  1  6
  6  4  1  0
  6  7  2  0
  8  6  1  0
  9  8  1  0
  9 10  1  1
 11 12  2  0
 11 10  1  0
 13 12  1  0
 14 19  2  0
 14 13  1  0
 15 14  1  0
 16 17  1  0
 16 15  2  0
 17 18  2  0
 18 19  1  0
 19 11  1  0
 20  9  1  0
 21 20  2  0
 23 22  1  1
 23 25  1  0
 24 23  1  0
 26 25  1  1
 26 27  1  0
 26 28  1  0
 27 20  1  0
 28 30  1  0
 29 28  2  0
M  END
$$$$
