VWL.pdb
     RDKit          3D

 30 31  0  0  1  0  0  0  0  0999 V2000
    9.4787  -17.6065   19.5071 C   0  0  0  0  0  0  0  0  0  0  0  0
    8.1988  -16.8335   19.5055 C   0  0  1  0  0  0  0  0  0  0  0  0
    7.3501  -17.0746   18.2887 C   0  0  0  0  0  0  0  0  0  0  0  0
    7.4274  -16.9210   20.7998 C   0  0  2  0  0  0  0  0  0  0  0  0
    6.2511  -16.0669   20.6277 N   0  0  0  0  0  0  0  0  0  0  0  0
    8.1524  -16.4533   21.9809 C   0  0  0  0  0  0  0  0  0  0  0  0
    8.4954  -15.2264   22.0495 O   0  0  0  0  0  0  0  0  0  0  0  0
    8.5349  -17.2302   23.1030 N   0  0  0  0  0  0  0  0  0  0  0  0
    9.3682  -16.7609   24.1711 C   0  0  1  0  0  0  0  0  0  0  0  0
    8.6998  -16.5785   25.4840 C   0  0  0  0  0  0  0  0  0  0  0  0
    7.5478  -15.6784   25.5086 C   0  0  0  0  0  0  0  0  0  0  0  0
    6.2149  -15.8685   25.2228 C   0  0  0  0  0  0  0  0  0  0  0  0
    5.5315  -14.7259   25.3995 N   0  0  0  0  0  0  0  0  0  0  0  0
    6.3913  -13.7656   25.8028 C   0  0  0  0  0  0  0  0  0  0  0  0
    6.1791  -12.4399   26.1115 C   0  0  0  0  0  0  0  0  0  0  0  0
    7.2248  -11.6377   26.5066 C   0  0  0  0  0  0  0  0  0  0  0  0
    8.4809  -12.1968   26.5838 C   0  0  0  0  0  0  0  0  0  0  0  0
    8.6881  -13.5231   26.2740 C   0  0  0  0  0  0  0  0  0  0  0  0
    7.6424  -14.3378   25.8755 C   0  0  0  0  0  0  0  0  0  0  0  0
   10.6506  -17.5236   24.2632 C   0  0  0  0  0  0  0  0  0  0  0  0
   10.5764  -18.7768   24.1926 O   0  0  0  0  0  0  0  0  0  0  0  0
   13.5883  -15.9003   21.4982 C   0  0  0  0  0  0  0  0  0  0  0  0
   13.7379  -15.8470   23.0149 C   0  0  2  0  0  0  0  0  0  0  0  0
   14.7647  -14.7918   23.3869 C   0  0  0  0  0  0  0  0  0  0  0  0
   14.1591  -17.1762   23.5690 C   0  0  0  0  0  0  0  0  0  0  0  0
   13.1157  -17.7191   24.4858 C   0  0  2  0  0  0  0  0  0  0  0  0
   11.8989  -16.9051   24.4207 N   0  0  0  0  0  0  0  0  0  0  0  0
   13.5122  -17.7476   25.9047 C   0  0  0  0  0  0  0  0  0  0  0  0
   14.5194  -18.4250   26.2717 O   0  0  0  0  0  0  0  0  0  0  0  0
   12.8435  -17.0593   26.9192 O   0  0  0  0  0  0  0  0  0  0  0  0
  2  1  1  1
  2  3  1  0
  4  2  1  0
  4  5  1  6
  6  4  1  0
  6  7  2  0
  8  6  1  0
  9  8  1  0
  9 10  1  1
 11 12  2  0
 11 10  1  0
 13 12  1  0
 14 19  2  0
 14 13  1  0
 15 14  1  0
 16 17  1  0
 16 15  2  0
 17 18  2  0
 18 19  1  0
 19 11  1  0
 20  9  1  0
 21 20  2  0
 23 22  1  6
 23 25  1  0
 24 23  1  0
 26 25  1  6
 26 27  1  0
 26 28  1  0
 27 20  1  0
 28 30  1  0
 29 28  2  0
M  END
$$$$
