VWL.pdb
     RDKit          3D

 30 31  0  0  1  0  0  0  0  0999 V2000
   13.3374  -17.7353   20.9532 C   0  0  0  0  0  0  0  0  0  0  0  0
   12.5504  -17.3054   19.7568 C   0  0  1  0  0  0  0  0  0  0  0  0
   13.1129  -17.8023   18.4545 C   0  0  0  0  0  0  0  0  0  0  0  0
   11.0632  -17.5257   19.8890 C   0  0  2  0  0  0  0  0  0  0  0  0
   10.4711  -17.0482   18.6383 N   0  0  0  0  0  0  0  0  0  0  0  0
   10.4295  -16.8014   20.9905 C   0  0  0  0  0  0  0  0  0  0  0  0
   10.4328  -15.5258   20.9739 O   0  0  0  0  0  0  0  0  0  0  0  0
    9.7867  -17.3691   22.1190 N   0  0  0  0  0  0  0  0  0  0  0  0
    9.1862  -16.6129   23.1787 C   0  0  1  0  0  0  0  0  0  0  0  0
    7.7032  -16.5467   23.1695 C   0  0  0  0  0  0  0  0  0  0  0  0
    7.0750  -15.8639   24.2995 C   0  0  0  0  0  0  0  0  0  0  0  0
    6.4313  -16.3288   25.4237 C   0  0  0  0  0  0  0  0  0  0  0  0
    6.0236  -15.3018   26.1872 N   0  0  0  0  0  0  0  0  0  0  0  0
    6.3869  -14.1470   25.5885 C   0  0  0  0  0  0  0  0  0  0  0  0
    6.2001  -12.8371   25.9723 C   0  0  0  0  0  0  0  0  0  0  0  0
    6.6647  -11.8057   25.1889 C   0  0  0  0  0  0  0  0  0  0  0  0
    7.3178  -12.1208   24.0182 C   0  0  0  0  0  0  0  0  0  0  0  0
    7.5021  -13.4324   23.6388 C   0  0  0  0  0  0  0  0  0  0  0  0
    7.0381  -14.4765   24.4201 C   0  0  0  0  0  0  0  0  0  0  0  0
    9.7522  -16.9674   24.5161 C   0  0  0  0  0  0  0  0  0  0  0  0
   10.0487  -18.1740   24.7094 O   0  0  0  0  0  0  0  0  0  0  0  0
    9.3008  -13.3798   27.3349 C   0  0  0  0  0  0  0  0  0  0  0  0
    9.7617  -14.6322   28.0730 C   0  0  2  0  0  0  0  0  0  0  0  0
    9.9308  -14.3182   29.5492 C   0  0  0  0  0  0  0  0  0  0  0  0
   11.0561  -15.1484   27.5170 C   0  0  0  0  0  0  0  0  0  0  0  0
   10.8223  -16.3539   26.6709 C   0  0  2  0  0  0  0  0  0  0  0  0
    9.9585  -16.0253   25.5337 N   0  0  0  0  0  0  0  0  0  0  0  0
   10.1641  -17.4689   27.3745 C   0  0  0  0  0  0  0  0  0  0  0  0
   10.7450  -18.0415   28.3454 O   0  0  0  0  0  0  0  0  0  0  0  0
    8.9004  -17.9649   27.0475 O   0  0  0  0  0  0  0  0  0  0  0  0
  2  1  1  1
  2  3  1  0
  4  2  1  0
  4  5  1  6
  6  4  1  0
  6  7  2  0
  8  6  1  0
  9  8  1  0
  9 10  1  1
 11 12  2  0
 11 10  1  0
 13 12  1  0
 14 19  2  0
 14 13  1  0
 15 14  1  0
 16 17  1  0
 16 15  2  0
 17 18  2  0
 18 19  1  0
 19 11  1  0
 20  9  1  0
 21 20  2  0
 23 22  1  6
 23 25  1  0
 24 23  1  0
 26 25  1  1
 26 27  1  0
 26 28  1  0
 27 20  1  0
 28 30  1  0
 29 28  2  0
M  END
$$$$
