CVK.pdb
     RDKit          3D

 23 22  0  0  1  0  0  0  0  0999 V2000
   19.3419  -13.6039  -16.4429 N   0  0  0  0  0  0  0  0  0  0  0  0
   19.7959  -12.3781  -17.0488 C   0  0  1  0  0  0  0  0  0  0  0  0
   18.6948  -11.6177  -17.7464 C   0  0  0  0  0  0  0  0  0  0  0  0
   17.9571  -12.5827  -19.0888 S   0  0  0  0  0  0  0  0  0  0  0  0
   20.4215  -11.4657  -16.0540 C   0  0  0  0  0  0  0  0  0  0  0  0
   19.8353  -11.3570  -14.9426 O   0  0  0  0  0  0  0  0  0  0  0  0
   24.4879  -10.2200  -16.3419 C   0  0  0  0  0  0  0  0  0  0  0  0
   23.6433  -10.3227  -15.0974 C   0  0  2  0  0  0  0  0  0  0  0  0
   23.6829  -11.7541  -14.6176 C   0  0  0  0  0  0  0  0  0  0  0  0
   22.2259   -9.9294  -15.3148 C   0  0  2  0  0  0  0  0  0  0  0  0
   21.6153  -10.7472  -16.3249 N   0  0  0  0  0  0  0  0  0  0  0  0
   22.0699   -8.4917  -15.6682 C   0  0  0  0  0  0  0  0  0  0  0  0
   22.1095   -8.1555  -16.8693 O   0  0  0  0  0  0  0  0  0  0  0  0
   21.8755   -7.4600  -14.7160 N   0  0  0  0  0  0  0  0  0  0  0  0
   21.7302   -6.0643  -15.0790 C   0  0  1  0  0  0  0  0  0  0  0  0
   20.3242   -5.7410  -15.4710 C   0  0  0  0  0  0  0  0  0  0  0  0
   20.0602   -4.3384  -15.8576 C   0  0  0  0  0  0  0  0  0  0  0  0
   18.5873   -4.1537  -16.2105 C   0  0  0  0  0  0  0  0  0  0  0  0
   18.3100   -2.8038  -16.8110 C   0  0  0  0  0  0  0  0  0  0  0  0
   16.8738   -2.7168  -17.0105 N   0  0  0  0  0  0  0  0  0  0  0  0
   22.2961   -5.1539  -14.0646 C   0  0  0  0  0  0  0  0  0  0  0  0
   22.5436   -3.9504  -14.3385 O   0  0  0  0  0  0  0  0  0  0  0  0
   22.5936   -5.5320  -12.7671 O   0  0  0  0  0  0  0  0  0  0  0  0
  2  1  1  1
  3  2  1  0
  4  3  1  0
  5  2  1  0
  6  5  2  0
  8  7  1  6
  8 10  1  0
  9  8  1  0
 10 11  1  6
 10 12  1  0
 11  5  1  0
 12 14  1  0
 13 12  2  0
 14 15  1  0
 15 16  1  1
 15 21  1  0
 17 18  1  0
 17 16  1  0
 19 20  1  0
 19 18  1  0
 21 22  2  0
 21 23  1  0
M  END
$$$$
