CVK.pdb
     RDKit          3D

 23 22  0  0  1  0  0  0  0  0999 V2000
   17.1979  -11.1609  -14.7238 N   0  0  0  0  0  0  0  0  0  0  0  0
   16.2317  -10.0985  -14.6065 C   0  0  1  0  0  0  0  0  0  0  0  0
   14.9732  -10.5177  -13.8870 C   0  0  0  0  0  0  0  0  0  0  0  0
   13.9615  -11.6309  -14.8945 S   0  0  0  0  0  0  0  0  0  0  0  0
   16.7905   -8.9158  -13.8977 C   0  0  0  0  0  0  0  0  0  0  0  0
   17.5000   -9.1512  -12.8820 O   0  0  0  0  0  0  0  0  0  0  0  0
   18.6252   -4.4642  -14.0451 C   0  0  0  0  0  0  0  0  0  0  0  0
   18.0731   -5.7444  -14.6185 C   0  0  2  0  0  0  0  0  0  0  0  0
   17.2890   -5.4038  -15.8634 C   0  0  0  0  0  0  0  0  0  0  0  0
   17.1836   -6.4747  -13.6769 C   0  0  2  0  0  0  0  0  0  0  0  0
   16.5477   -7.5852  -14.3281 N   0  0  0  0  0  0  0  0  0  0  0  0
   16.1538   -5.5990  -13.0536 C   0  0  0  0  0  0  0  0  0  0  0  0
   15.1244   -5.3191  -13.7011 O   0  0  0  0  0  0  0  0  0  0  0  0
   16.2646   -5.0518  -11.7508 N   0  0  0  0  0  0  0  0  0  0  0  0
   15.2400   -4.2201  -11.1512 C   0  0  1  0  0  0  0  0  0  0  0  0
   14.7544   -4.7914   -9.8579 C   0  0  0  0  0  0  0  0  0  0  0  0
   13.7521   -3.9888   -9.1249 C   0  0  0  0  0  0  0  0  0  0  0  0
   13.4290   -4.6401   -7.7833 C   0  0  0  0  0  0  0  0  0  0  0  0
   12.4363   -3.8410   -6.9862 C   0  0  0  0  0  0  0  0  0  0  0  0
   12.1993   -4.5706   -5.7527 N   0  0  0  0  0  0  0  0  0  0  0  0
   15.6386   -2.8014  -11.0699 C   0  0  0  0  0  0  0  0  0  0  0  0
   16.8485   -2.4726  -10.9574 O   0  0  0  0  0  0  0  0  0  0  0  0
   14.7460   -1.7447  -11.1093 O   0  0  0  0  0  0  0  0  0  0  0  0
  2  1  1  1
  3  2  1  0
  4  3  1  0
  5  2  1  0
  6  5  2  0
  8  7  1  1
  8 10  1  0
  9  8  1  0
 10 11  1  6
 10 12  1  0
 11  5  1  0
 12 14  1  0
 13 12  2  0
 14 15  1  0
 15 16  1  1
 15 21  1  0
 17 18  1  0
 17 16  1  0
 19 20  1  0
 19 18  1  0
 21 22  2  0
 21 23  1  0
M  END
$$$$
