CVK.pdb
     RDKit          3D

 23 22  0  0  1  0  0  0  0  0999 V2000
   14.1271  -13.2380  -14.6391 N   0  0  0  0  0  0  0  0  0  0  0  0
   15.3692  -12.7708  -14.0779 C   0  0  1  0  0  0  0  0  0  0  0  0
   16.4898  -13.7743  -14.1991 C   0  0  0  0  0  0  0  0  0  0  0  0
   16.2514  -15.1858  -13.0906 S   0  0  0  0  0  0  0  0  0  0  0  0
   15.8217  -11.5025  -14.7103 C   0  0  0  0  0  0  0  0  0  0  0  0
   15.8159  -11.4683  -15.9710 O   0  0  0  0  0  0  0  0  0  0  0  0
   14.2417   -8.1915  -14.7640 C   0  0  0  0  0  0  0  0  0  0  0  0
   15.6153   -8.0635  -14.1559 C   0  0  2  0  0  0  0  0  0  0  0  0
   16.1856   -6.7240  -14.5573 C   0  0  0  0  0  0  0  0  0  0  0  0
   16.5524   -9.1330  -14.5906 C   0  0  2  0  0  0  0  0  0  0  0  0
   16.2414  -10.3798  -13.9498 N   0  0  0  0  0  0  0  0  0  0  0  0
   17.9803   -8.7862  -14.3519 C   0  0  0  0  0  0  0  0  0  0  0  0
   18.3875   -8.6713  -13.1780 O   0  0  0  0  0  0  0  0  0  0  0  0
   18.9261   -8.5743  -15.3861 N   0  0  0  0  0  0  0  0  0  0  0  0
   20.3111   -8.2293  -15.1342 C   0  0  1  0  0  0  0  0  0  0  0  0
   21.1607   -8.4432  -16.3455 C   0  0  0  0  0  0  0  0  0  0  0  0
   22.6109   -8.2100  -16.1754 C   0  0  0  0  0  0  0  0  0  0  0  0
   23.3554   -8.5344  -17.4672 C   0  0  0  0  0  0  0  0  0  0  0  0
   24.8477   -8.4842  -17.2930 C   0  0  0  0  0  0  0  0  0  0  0  0
   25.4333   -9.0357  -18.5025 N   0  0  0  0  0  0  0  0  0  0  0  0
   20.4596   -6.8938  -14.5237 C   0  0  0  0  0  0  0  0  0  0  0  0
   19.7921   -5.9115  -14.9411 O   0  0  0  0  0  0  0  0  0  0  0  0
   21.3172   -6.6152  -13.4740 O   0  0  0  0  0  0  0  0  0  0  0  0
  2  1  1  6
  3  2  1  0
  4  3  1  0
  5  2  1  0
  6  5  2  0
  8  7  1  6
  8 10  1  0
  9  8  1  0
 10 11  1  1
 10 12  1  0
 11  5  1  0
 12 14  1  0
 13 12  2  0
 14 15  1  0
 15 16  1  6
 15 21  1  0
 17 18  1  0
 17 16  1  0
 19 20  1  0
 19 18  1  0
 21 22  2  0
 21 23  1  0
M  END
$$$$
