CVK.pdb
     RDKit          3D

 23 22  0  0  1  0  0  0  0  0999 V2000
   24.3659  -15.9147  -17.9185 N   0  0  0  0  0  0  0  0  0  0  0  0
   24.3778  -14.5981  -18.5035 C   0  0  1  0  0  0  0  0  0  0  0  0
   23.2072  -14.3464  -19.4221 C   0  0  0  0  0  0  0  0  0  0  0  0
   23.1698  -15.5191  -20.8009 S   0  0  0  0  0  0  0  0  0  0  0  0
   24.3831  -13.5304  -17.4676 C   0  0  0  0  0  0  0  0  0  0  0  0
   23.5100  -13.6200  -16.5618 O   0  0  0  0  0  0  0  0  0  0  0  0
   27.5121  -12.4285  -15.4934 C   0  0  0  0  0  0  0  0  0  0  0  0
   26.7742  -11.2235  -16.0190 C   0  0  2  0  0  0  0  0  0  0  0  0
   26.7759  -10.1635  -14.9434 C   0  0  0  0  0  0  0  0  0  0  0  0
   25.3672  -11.5163  -16.4010 C   0  0  2  0  0  0  0  0  0  0  0  0
   25.3145  -12.4594  -17.4825 N   0  0  0  0  0  0  0  0  0  0  0  0
   24.5967  -10.2943  -16.7600 C   0  0  0  0  0  0  0  0  0  0  0  0
   24.8788   -9.6882  -17.8137 O   0  0  0  0  0  0  0  0  0  0  0  0
   23.5449   -9.7629  -15.9724 N   0  0  0  0  0  0  0  0  0  0  0  0
   22.7564   -8.6151  -16.3745 C   0  0  1  0  0  0  0  0  0  0  0  0
   21.5471   -9.0234  -17.1529 C   0  0  0  0  0  0  0  0  0  0  0  0
   20.7232   -7.9256  -17.7028 C   0  0  0  0  0  0  0  0  0  0  0  0
   19.4834   -8.4872  -18.3926 C   0  0  0  0  0  0  0  0  0  0  0  0
   18.6242   -7.4071  -18.9884 C   0  0  0  0  0  0  0  0  0  0  0  0
   17.4380   -8.0556  -19.5199 N   0  0  0  0  0  0  0  0  0  0  0  0
   22.4682   -7.7043  -15.2495 C   0  0  0  0  0  0  0  0  0  0  0  0
   22.4333   -8.1275  -14.0644 O   0  0  0  0  0  0  0  0  0  0  0  0
   22.2199   -6.3508  -15.3953 O   0  0  0  0  0  0  0  0  0  0  0  0
  2  1  1  1
  3  2  1  0
  4  3  1  0
  5  2  1  0
  6  5  2  0
  8  7  1  1
  8 10  1  0
  9  8  1  0
 10 11  1  6
 10 12  1  0
 11  5  1  0
 12 14  1  0
 13 12  2  0
 14 15  1  0
 15 16  1  1
 15 21  1  0
 17 18  1  0
 17 16  1  0
 19 20  1  0
 19 18  1  0
 21 22  2  0
 21 23  1  0
M  END
$$$$
