CVK.pdb
     RDKit          3D

 23 22  0  0  1  0  0  0  0  0999 V2000
   28.0834  -18.7086  -16.5548 N   0  0  0  0  0  0  0  0  0  0  0  0
   27.3822  -18.2351  -15.3886 C   0  0  1  0  0  0  0  0  0  0  0  0
   26.4625  -17.0746  -15.6796 C   0  0  0  0  0  0  0  0  0  0  0  0
   27.3830  -15.5422  -15.9659 S   0  0  0  0  0  0  0  0  0  0  0  0
   26.5739  -19.3099  -14.7524 C   0  0  0  0  0  0  0  0  0  0  0  0
   26.0999  -20.1890  -15.5226 O   0  0  0  0  0  0  0  0  0  0  0  0
   27.5575  -21.2768  -11.4719 C   0  0  0  0  0  0  0  0  0  0  0  0
   26.1295  -20.7953  -11.4318 C   0  0  2  0  0  0  0  0  0  0  0  0
   25.2778  -21.8943  -10.8425 C   0  0  0  0  0  0  0  0  0  0  0  0
   25.5917  -20.4385  -12.7715 C   0  0  2  0  0  0  0  0  0  0  0  0
   26.3384  -19.3589  -13.3535 N   0  0  0  0  0  0  0  0  0  0  0  0
   24.1443  -20.0920  -12.7426 C   0  0  0  0  0  0  0  0  0  0  0  0
   23.7649  -19.1332  -12.0398 O   0  0  0  0  0  0  0  0  0  0  0  0
   23.1496  -20.7895  -13.4728 N   0  0  0  0  0  0  0  0  0  0  0  0
   21.7379  -20.4711  -13.3913 C   0  0  1  0  0  0  0  0  0  0  0  0
   21.1216  -20.3507  -14.7480 C   0  0  0  0  0  0  0  0  0  0  0  0
   19.6893  -19.9853  -14.7844 C   0  0  0  0  0  0  0  0  0  0  0  0
   19.1706  -20.0150  -16.2191 C   0  0  0  0  0  0  0  0  0  0  0  0
   17.7440  -19.5517  -16.3191 C   0  0  0  0  0  0  0  0  0  0  0  0
   17.4065  -19.5244  -17.7317 N   0  0  0  0  0  0  0  0  0  0  0  0
   21.0071  -21.3694  -12.4764 C   0  0  0  0  0  0  0  0  0  0  0  0
   21.3243  -22.5827  -12.3673 O   0  0  0  0  0  0  0  0  0  0  0  0
   19.9449  -20.9687  -11.6851 O   0  0  0  0  0  0  0  0  0  0  0  0
  2  1  1  6
  3  2  1  0
  4  3  1  0
  5  2  1  0
  6  5  2  0
  8  7  1  6
  8 10  1  0
  9  8  1  0
 10 11  1  1
 10 12  1  0
 11  5  1  0
 12 14  1  0
 13 12  2  0
 14 15  1  0
 15 16  1  6
 15 21  1  0
 17 18  1  0
 17 16  1  0
 19 20  1  0
 19 18  1  0
 21 22  2  0
 21 23  1  0
M  END
$$$$
