AIC.pdb
     RDKit          3D

 20 19  0  0  1  0  0  0  0  0999 V2000
    7.4189  -19.3948   18.5394 C   0  0  0  0  0  0  0  0  0  0  0  0
    7.9282  -18.0758   18.0084 C   0  0  2  0  0  0  0  0  0  0  0  0
    8.8725  -18.3741   16.9505 N   0  0  0  0  0  0  0  0  0  0  0  0
    8.6526  -17.3059   19.0525 C   0  0  0  0  0  0  0  0  0  0  0  0
    9.9051  -17.3979   19.1983 O   0  0  0  0  0  0  0  0  0  0  0  0
    7.0306  -12.2911   20.1642 C   0  0  0  0  0  0  0  0  0  0  0  0
    7.9227  -13.5046   19.8862 C   0  0  0  0  0  0  0  0  0  0  0  0
    7.9138  -14.3553   21.1141 C   0  0  2  0  0  0  0  0  0  0  0  0
    8.3934  -13.5516   22.3043 C   0  0  0  0  0  0  0  0  0  0  0  0
    8.6545  -15.6538   20.9706 C   0  0  2  0  0  0  0  0  0  0  0  0
    7.9866  -16.4235   19.9468 N   0  0  0  0  0  0  0  0  0  0  0  0
    8.7399  -16.4114   22.2536 C   0  0  0  0  0  0  0  0  0  0  0  0
    7.7141  -16.7530   22.8746 O   0  0  0  0  0  0  0  0  0  0  0  0
   10.0022  -16.7580   22.7917 N   0  0  0  0  0  0  0  0  0  0  0  0
   10.2119  -17.5121   23.9828 C   0  0  1  0  0  0  0  0  0  0  0  0
   11.0647  -18.7370   23.7866 C   0  0  0  0  0  0  0  0  0  0  0  0
   10.2261  -19.7821   22.5523 S   0  0  0  0  0  0  0  0  0  0  0  0
   10.7763  -16.6846   25.0595 C   0  0  0  0  0  0  0  0  0  0  0  0
   11.1623  -15.5026   24.8018 O   0  0  0  0  0  0  0  0  0  0  0  0
   10.8710  -17.2241   26.3339 O   0  0  0  0  0  0  0  0  0  0  0  0
  2  1  1  1
  3  2  1  0
  4 11  1  0
  4  2  1  0
  5  4  2  0
  7  8  1  0
  7  6  1  0
  8 10  1  0
  8  9  1  1
 10 12  1  0
 10 11  1  6
 12 14  1  0
 13 12  2  0
 14 15  1  0
 15 18  1  0
 15 16  1  6
 16 17  1  0
 18 19  2  0
 18 20  1  0
M  END
$$$$
