AIC.pdb
     RDKit          3D

 20 19  0  0  1  0  0  0  0  0999 V2000
    7.2884  -19.6042   18.7236 C   0  0  0  0  0  0  0  0  0  0  0  0
    7.6223  -18.2824   18.0739 C   0  0  2  0  0  0  0  0  0  0  0  0
    8.3755  -18.5730   16.8704 N   0  0  0  0  0  0  0  0  0  0  0  0
    8.4804  -17.4415   18.9481 C   0  0  0  0  0  0  0  0  0  0  0  0
    9.7400  -17.5510   18.9480 O   0  0  0  0  0  0  0  0  0  0  0  0
    6.8137  -12.3926   20.0384 C   0  0  0  0  0  0  0  0  0  0  0  0
    7.7227  -13.5665   19.6625 C   0  0  0  0  0  0  0  0  0  0  0  0
    7.9784  -14.3494   20.9089 C   0  0  2  0  0  0  0  0  0  0  0  0
    8.6280  -13.4647   21.9518 C   0  0  0  0  0  0  0  0  0  0  0  0
    8.7417  -15.6242   20.6910 C   0  0  2  0  0  0  0  0  0  0  0  0
    7.9418  -16.4677   19.8334 N   0  0  0  0  0  0  0  0  0  0  0  0
    9.0835  -16.3147   21.9692 C   0  0  0  0  0  0  0  0  0  0  0  0
    8.1982  -16.6636   22.7750 O   0  0  0  0  0  0  0  0  0  0  0  0
   10.4347  -16.5875   22.2904 N   0  0  0  0  0  0  0  0  0  0  0  0
   10.8885  -17.2000   23.4946 C   0  0  1  0  0  0  0  0  0  0  0  0
   11.5693  -18.5263   23.2848 C   0  0  0  0  0  0  0  0  0  0  0  0
   10.3440  -19.6448   22.5323 S   0  0  0  0  0  0  0  0  0  0  0  0
   11.7711  -16.3077   24.2611 C   0  0  0  0  0  0  0  0  0  0  0  0
   12.1572  -15.2148   23.7423 O   0  0  0  0  0  0  0  0  0  0  0  0
   12.1582  -16.6894   25.5372 O   0  0  0  0  0  0  0  0  0  0  0  0
  2  1  1  1
  3  2  1  0
  4 11  1  0
  4  2  1  0
  5  4  2  0
  7  8  1  0
  7  6  1  0
  8 10  1  0
  8  9  1  1
 10 12  1  0
 10 11  1  6
 12 14  1  0
 13 12  2  0
 14 15  1  0
 15 18  1  0
 15 16  1  6
 16 17  1  0
 18 19  2  0
 18 20  1  0
M  END
$$$$
