AIC.pdb
     RDKit          3D

 20 19  0  0  1  0  0  0  0  0999 V2000
    6.4098  -16.2107   20.9866 C   0  0  0  0  0  0  0  0  0  0  0  0
    6.8028  -14.7742   21.2373 C   0  0  2  0  0  0  0  0  0  0  0  0
    7.5539  -14.3261   20.0819 N   0  0  0  0  0  0  0  0  0  0  0  0
    7.6868  -14.6454   22.4246 C   0  0  0  0  0  0  0  0  0  0  0  0
    8.9467  -14.6369   22.3183 O   0  0  0  0  0  0  0  0  0  0  0  0
    5.8783  -11.5864   26.4673 C   0  0  0  0  0  0  0  0  0  0  0  0
    6.8065  -12.2000   25.4149 C   0  0  0  0  0  0  0  0  0  0  0  0
    7.2137  -13.5488   25.9115 C   0  0  2  0  0  0  0  0  0  0  0  0
    7.9308  -13.4171   27.2385 C   0  0  0  0  0  0  0  0  0  0  0  0
    7.9981  -14.3602   24.9206 C   0  0  2  0  0  0  0  0  0  0  0  0
    7.1743  -14.5246   23.7455 N   0  0  0  0  0  0  0  0  0  0  0  0
    8.4309  -15.6779   25.4716 C   0  0  0  0  0  0  0  0  0  0  0  0
    7.6071  -16.4851   25.9454 O   0  0  0  0  0  0  0  0  0  0  0  0
    9.8002  -16.0360   25.4647 N   0  0  0  0  0  0  0  0  0  0  0  0
   10.3200  -17.3143   25.8213 C   0  0  1  0  0  0  0  0  0  0  0  0
   11.5719  -17.6929   25.0756 C   0  0  0  0  0  0  0  0  0  0  0  0
   12.6777  -16.2457   25.1150 S   0  0  0  0  0  0  0  0  0  0  0  0
   10.5556  -17.4225   27.2688 C   0  0  0  0  0  0  0  0  0  0  0  0
   10.4928  -16.3801   27.9914 O   0  0  0  0  0  0  0  0  0  0  0  0
   10.8414  -18.6692   27.8056 O   0  0  0  0  0  0  0  0  0  0  0  0
  2  1  1  6
  3  2  1  0
  4 11  1  0
  4  2  1  0
  5  4  2  0
  7  8  1  0
  7  6  1  0
  8 10  1  0
  8  9  1  1
 10 12  1  0
 10 11  1  6
 12 14  1  0
 13 12  2  0
 14 15  1  0
 15 18  1  0
 15 16  1  6
 16 17  1  0
 18 19  2  0
 18 20  1  0
M  END
$$$$
