AIC.pdb
     RDKit          3D

 20 19  0  0  1  0  0  0  0  0999 V2000
    6.1361  -19.3925   25.0977 C   0  0  0  0  0  0  0  0  0  0  0  0
    5.3412  -18.1899   24.6476 C   0  0  2  0  0  0  0  0  0  0  0  0
    4.6386  -18.5673   23.4377 N   0  0  0  0  0  0  0  0  0  0  0  0
    6.2232  -17.0414   24.3145 C   0  0  0  0  0  0  0  0  0  0  0  0
    6.7188  -16.8958   23.1605 O   0  0  0  0  0  0  0  0  0  0  0  0
    5.9789  -12.3171   27.1528 C   0  0  0  0  0  0  0  0  0  0  0  0
    6.0954  -13.2788   25.9665 C   0  0  0  0  0  0  0  0  0  0  0  0
    7.4096  -13.9787   26.0873 C   0  0  2  0  0  0  0  0  0  0  0  0
    8.5372  -12.9683   26.0764 C   0  0  0  0  0  0  0  0  0  0  0  0
    7.6198  -15.0745   25.0821 C   0  0  2  0  0  0  0  0  0  0  0  0
    6.5624  -16.0412   25.2667 N   0  0  0  0  0  0  0  0  0  0  0  0
    8.9653  -15.7096   25.1975 C   0  0  0  0  0  0  0  0  0  0  0  0
    9.3560  -16.2114   26.2701 O   0  0  0  0  0  0  0  0  0  0  0  0
    9.8294  -15.7528   24.0774 N   0  0  0  0  0  0  0  0  0  0  0  0
   10.9652  -16.6034   23.9445 C   0  0  1  0  0  0  0  0  0  0  0  0
   11.2948  -16.9622   22.5200 C   0  0  0  0  0  0  0  0  0  0  0  0
   11.3839  -15.4033   21.5814 S   0  0  0  0  0  0  0  0  0  0  0  0
   12.1530  -16.0329   24.5975 C   0  0  0  0  0  0  0  0  0  0  0  0
   13.2189  -16.7198   24.6651 O   0  0  0  0  0  0  0  0  0  0  0  0
   12.0728  -14.7521   25.1239 O   0  0  0  0  0  0  0  0  0  0  0  0
  2  1  1  6
  3  2  1  0
  4 11  1  0
  4  2  1  0
  5  4  2  0
  7  8  1  0
  7  6  1  0
  8 10  1  0
  8  9  1  6
 10 12  1  0
 10 11  1  1
 12 14  1  0
 13 12  2  0
 14 15  1  0
 15 18  1  0
 15 16  1  6
 16 17  1  0
 18 19  2  0
 18 20  1  0
M  END
$$$$
