AIC.pdb
     RDKit          3D

 20 19  0  0  1  0  0  0  0  0999 V2000
    6.6137  -16.3993   21.0788 C   0  0  0  0  0  0  0  0  0  0  0  0
    7.0169  -14.9576   21.2792 C   0  0  2  0  0  0  0  0  0  0  0  0
    7.8379  -14.5794   20.1465 N   0  0  0  0  0  0  0  0  0  0  0  0
    7.8365  -14.7816   22.5060 C   0  0  0  0  0  0  0  0  0  0  0  0
    9.0998  -14.8229   22.4739 O   0  0  0  0  0  0  0  0  0  0  0  0
    5.8490  -11.5320   26.3306 C   0  0  0  0  0  0  0  0  0  0  0  0
    6.7680  -12.2207   25.3174 C   0  0  0  0  0  0  0  0  0  0  0  0
    7.2036  -13.5166   25.9193 C   0  0  2  0  0  0  0  0  0  0  0  0
    7.9061  -13.2653   27.2369 C   0  0  0  0  0  0  0  0  0  0  0  0
    8.0158  -14.3822   24.9993 C   0  0  2  0  0  0  0  0  0  0  0  0
    7.2548  -14.5574   23.7840 N   0  0  0  0  0  0  0  0  0  0  0  0
    8.3735  -15.6950   25.6125 C   0  0  0  0  0  0  0  0  0  0  0  0
    7.4957  -16.4815   26.0195 O   0  0  0  0  0  0  0  0  0  0  0  0
    9.7314  -16.0722   25.7429 N   0  0  0  0  0  0  0  0  0  0  0  0
   10.1958  -17.3112   26.2724 C   0  0  1  0  0  0  0  0  0  0  0  0
   11.4811  -17.7944   25.6551 C   0  0  0  0  0  0  0  0  0  0  0  0
   11.2410  -17.7967   23.8492 S   0  0  0  0  0  0  0  0  0  0  0  0
   10.3393  -17.2595   27.7350 C   0  0  0  0  0  0  0  0  0  0  0  0
   10.1798  -16.1541   28.3395 O   0  0  0  0  0  0  0  0  0  0  0  0
   10.6468  -18.4283   28.4157 O   0  0  0  0  0  0  0  0  0  0  0  0
  2  1  1  6
  3  2  1  0
  4 11  1  0
  4  2  1  0
  5  4  2  0
  7  8  1  0
  7  6  1  0
  8 10  1  0
  8  9  1  1
 10 12  1  0
 10 11  1  6
 12 14  1  0
 13 12  2  0
 14 15  1  0
 15 18  1  0
 15 16  1  6
 16 17  1  0
 18 19  2  0
 18 20  1  0
M  END
$$$$
