AIC.pdb
     RDKit          3D

 20 19  0  0  1  0  0  0  0  0999 V2000
    6.4862  -16.7274   21.3679 C   0  0  0  0  0  0  0  0  0  0  0  0
    6.6548  -15.2326   21.5022 C   0  0  2  0  0  0  0  0  0  0  0  0
    7.2461  -14.7541   20.2688 N   0  0  0  0  0  0  0  0  0  0  0  0
    7.5810  -14.8812   22.6096 C   0  0  0  0  0  0  0  0  0  0  0  0
    8.8282  -14.7814   22.4276 O   0  0  0  0  0  0  0  0  0  0  0  0
    5.8802  -11.5076   26.4426 C   0  0  0  0  0  0  0  0  0  0  0  0
    6.7385  -12.2138   25.3888 C   0  0  0  0  0  0  0  0  0  0  0  0
    7.2504  -13.4755   26.0032 C   0  0  2  0  0  0  0  0  0  0  0  0
    8.0575  -13.1569   27.2440 C   0  0  0  0  0  0  0  0  0  0  0  0
    7.9985  -14.3655   25.0526 C   0  0  2  0  0  0  0  0  0  0  0  0
    7.1254  -14.6371   23.9343 N   0  0  0  0  0  0  0  0  0  0  0  0
    8.4685  -15.6273   25.6962 C   0  0  0  0  0  0  0  0  0  0  0  0
    7.6689  -16.4168   26.2366 O   0  0  0  0  0  0  0  0  0  0  0  0
    9.8463  -15.9512   25.7031 N   0  0  0  0  0  0  0  0  0  0  0  0
   10.4112  -17.1396   26.2507 C   0  0  1  0  0  0  0  0  0  0  0  0
   11.7385  -17.5172   25.6488 C   0  0  0  0  0  0  0  0  0  0  0  0
   11.5116  -17.5720   23.8421 S   0  0  0  0  0  0  0  0  0  0  0  0
   10.5373  -17.0593   27.7137 C   0  0  0  0  0  0  0  0  0  0  0  0
   10.2753  -15.9659   28.3040 O   0  0  0  0  0  0  0  0  0  0  0  0
   10.9418  -18.1887   28.4102 O   0  0  0  0  0  0  0  0  0  0  0  0
  2  1  1  6
  3  2  1  0
  4 11  1  0
  4  2  1  0
  5  4  2  0
  7  8  1  0
  7  6  1  0
  8 10  1  0
  8  9  1  1
 10 12  1  0
 10 11  1  6
 12 14  1  0
 13 12  2  0
 14 15  1  0
 15 18  1  0
 15 16  1  6
 16 17  1  0
 18 19  2  0
 18 20  1  0
M  END
$$$$
