AIC.pdb
     RDKit          3D

 20 19  0  0  1  0  0  0  0  0999 V2000
    6.2859  -19.4368   25.7229 C   0  0  0  0  0  0  0  0  0  0  0  0
    5.5332  -18.3885   24.9385 C   0  0  2  0  0  0  0  0  0  0  0  0
    5.0765  -19.0136   23.7135 N   0  0  0  0  0  0  0  0  0  0  0  0
    6.4097  -17.2496   24.5613 C   0  0  0  0  0  0  0  0  0  0  0  0
    7.0160  -17.2154   23.4522 O   0  0  0  0  0  0  0  0  0  0  0  0
    5.7511  -12.3439   26.9775 C   0  0  0  0  0  0  0  0  0  0  0  0
    6.0119  -13.3448   25.8480 C   0  0  0  0  0  0  0  0  0  0  0  0
    7.3388  -13.9786   26.1114 C   0  0  2  0  0  0  0  0  0  0  0  0
    8.4287  -12.9281   26.0852 C   0  0  0  0  0  0  0  0  0  0  0  0
    7.6533  -15.1451   25.2194 C   0  0  2  0  0  0  0  0  0  0  0  0
    6.6199  -16.1346   25.4184 N   0  0  0  0  0  0  0  0  0  0  0  0
    9.0092  -15.7141   25.4744 C   0  0  0  0  0  0  0  0  0  0  0  0
    9.3439  -16.1096   26.6086 O   0  0  0  0  0  0  0  0  0  0  0  0
    9.9477  -15.8148   24.4197 N   0  0  0  0  0  0  0  0  0  0  0  0
   11.1893  -16.5116   24.4845 C   0  0  1  0  0  0  0  0  0  0  0  0
   11.2355  -17.7549   23.6368 C   0  0  0  0  0  0  0  0  0  0  0  0
   10.5827  -17.3092   21.9954 S   0  0  0  0  0  0  0  0  0  0  0  0
   12.3226  -15.6389   24.1432 C   0  0  0  0  0  0  0  0  0  0  0  0
   13.5084  -16.0538   24.3290 O   0  0  0  0  0  0  0  0  0  0  0  0
   12.0606  -14.3792   23.6249 O   0  0  0  0  0  0  0  0  0  0  0  0
  2  1  1  1
  3  2  1  0
  4 11  1  0
  4  2  1  0
  5  4  2  0
  7  8  1  0
  7  6  1  0
  8 10  1  0
  8  9  1  6
 10 12  1  0
 10 11  1  1
 12 14  1  0
 13 12  2  0
 14 15  1  0
 15 18  1  0
 15 16  1  6
 16 17  1  0
 18 19  2  0
 18 20  1  0
M  END
$$$$
