AIC.pdb
     RDKit          3D

 20 19  0  0  1  0  0  0  0  0999 V2000
    6.6348  -16.7394   21.2953 C   0  0  0  0  0  0  0  0  0  0  0  0
    6.9179  -15.2641   21.4514 C   0  0  2  0  0  0  0  0  0  0  0  0
    7.6225  -14.8332   20.2607 N   0  0  0  0  0  0  0  0  0  0  0  0
    7.7992  -14.9939   22.6167 C   0  0  0  0  0  0  0  0  0  0  0  0
    9.0567  -14.9327   22.5000 O   0  0  0  0  0  0  0  0  0  0  0  0
    5.8766  -11.7454   26.3926 C   0  0  0  0  0  0  0  0  0  0  0  0
    6.8400  -12.4000   25.3982 C   0  0  0  0  0  0  0  0  0  0  0  0
    7.3311  -13.6661   26.0207 C   0  0  2  0  0  0  0  0  0  0  0  0
    8.0966  -13.3561   27.2897 C   0  0  0  0  0  0  0  0  0  0  0  0
    8.1104  -14.5498   25.0895 C   0  0  2  0  0  0  0  0  0  0  0  0
    7.2866  -14.7887   23.9272 N   0  0  0  0  0  0  0  0  0  0  0  0
    8.5327  -15.8295   25.7307 C   0  0  0  0  0  0  0  0  0  0  0  0
    7.6984  -16.6145   26.2233 O   0  0  0  0  0  0  0  0  0  0  0  0
    9.9036  -16.1762   25.7904 N   0  0  0  0  0  0  0  0  0  0  0  0
   10.4244  -17.3915   26.3223 C   0  0  1  0  0  0  0  0  0  0  0  0
   11.7489  -17.7970   25.7324 C   0  0  0  0  0  0  0  0  0  0  0  0
   11.5445  -17.8221   23.9223 S   0  0  0  0  0  0  0  0  0  0  0  0
   10.5306  -17.3437   27.7882 C   0  0  0  0  0  0  0  0  0  0  0  0
   10.7694  -18.4118   28.4323 O   0  0  0  0  0  0  0  0  0  0  0  0
   10.3656  -16.1243   28.4284 O   0  0  0  0  0  0  0  0  0  0  0  0
  2  1  1  6
  3  2  1  0
  4 11  1  0
  4  2  1  0
  5  4  2  0
  7  8  1  0
  7  6  1  0
  8 10  1  0
  8  9  1  1
 10 12  1  0
 10 11  1  6
 12 14  1  0
 13 12  2  0
 14 15  1  0
 15 18  1  0
 15 16  1  6
 16 17  1  0
 18 19  2  0
 18 20  1  0
M  END
$$$$
