AFM.pdb
     RDKit          3D

 25 25  0  0  1  0  0  0  0  0999 V2000
    9.7672  -17.7328   18.6575 C   0  0  0  0  0  0  0  0  0  0  0  0
    9.6038  -18.1556   20.1008 C   0  0  2  0  0  0  0  0  0  0  0  0
    8.3933  -18.9001   20.3329 N   0  0  0  0  0  0  0  0  0  0  0  0
    9.6608  -16.9945   21.0289 C   0  0  0  0  0  0  0  0  0  0  0  0
   10.7106  -16.2752   21.0765 O   0  0  0  0  0  0  0  0  0  0  0  0
    8.6043  -16.6256   21.8823 N   0  0  0  0  0  0  0  0  0  0  0  0
    8.6175  -15.4471   22.7415 C   0  0  1  0  0  0  0  0  0  0  0  0
    7.2210  -15.2803   23.2589 C   0  0  0  0  0  0  0  0  0  0  0  0
    7.0538  -14.2251   24.2683 C   0  0  0  0  0  0  0  0  0  0  0  0
    7.5763  -12.9605   24.1165 C   0  0  0  0  0  0  0  0  0  0  0  0
    7.4041  -11.9756   25.0844 C   0  0  0  0  0  0  0  0  0  0  0  0
    6.6933  -12.2666   26.2267 C   0  0  0  0  0  0  0  0  0  0  0  0
    6.1722  -13.5251   26.3800 C   0  0  0  0  0  0  0  0  0  0  0  0
    6.3447  -14.5063   25.4142 C   0  0  0  0  0  0  0  0  0  0  0  0
    9.6467  -15.5473   23.7867 C   0  0  0  0  0  0  0  0  0  0  0  0
   10.4127  -14.5692   23.9771 O   0  0  0  0  0  0  0  0  0  0  0  0
   10.3924  -12.5064   28.4098 C   0  0  0  0  0  0  0  0  0  0  0  0
   10.0948  -14.1382   29.1036 S   0  0  0  0  0  0  0  0  0  0  0  0
   10.7432  -15.4376   28.0731 C   0  0  0  0  0  0  0  0  0  0  0  0
   10.0994  -15.6649   26.7685 C   0  0  0  0  0  0  0  0  0  0  0  0
   10.6865  -16.6571   25.8200 C   0  0  2  0  0  0  0  0  0  0  0  0
    9.8353  -16.6858   24.6033 N   0  0  0  0  0  0  0  0  0  0  0  0
   10.8371  -18.0047   26.3430 C   0  0  0  0  0  0  0  0  0  0  0  0
   11.5188  -18.3687   27.3316 O   0  0  0  0  0  0  0  0  0  0  0  0
   10.1551  -19.0498   25.6929 O   0  0  0  0  0  0  0  0  0  0  0  0
  2  1  1  6
  2  3  1  0
  4  2  1  0
  4  5  2  0
  6  4  1  0
  7  6  1  0
  7  8  1  1
  8  9  1  0
  9 10  2  0
  9 14  1  0
 10 11  1  0
 11 12  2  0
 13 12  1  0
 14 13  2  0
 15  7  1  0
 16 15  2  0
 18 17  1  0
 19 18  1  0
 20 19  1  0
 21 20  1  1
 21 22  1  0
 22 15  1  0
 23 21  1  0
 24 23  2  0
 25 23  1  0
M  END
$$$$
