AFM.pdb
     RDKit          3D

 25 25  0  0  1  0  0  0  0  0999 V2000
    8.3339  -18.2033   19.9916 C   0  0  0  0  0  0  0  0  0  0  0  0
    9.0356  -16.8642   19.9384 C   0  0  2  0  0  0  0  0  0  0  0  0
   10.3176  -16.9289   19.2857 N   0  0  0  0  0  0  0  0  0  0  0  0
    9.1945  -16.2670   21.2915 C   0  0  0  0  0  0  0  0  0  0  0  0
   10.2742  -16.4522   21.9407 O   0  0  0  0  0  0  0  0  0  0  0  0
    8.2052  -15.4891   21.9215 N   0  0  0  0  0  0  0  0  0  0  0  0
    8.3375  -14.9196   23.2578 C   0  0  1  0  0  0  0  0  0  0  0  0
    7.2496  -13.8984   23.3963 C   0  0  0  0  0  0  0  0  0  0  0  0
    7.2153  -13.1978   24.6879 C   0  0  0  0  0  0  0  0  0  0  0  0
    8.1562  -12.2610   25.0517 C   0  0  0  0  0  0  0  0  0  0  0  0
    8.1033  -11.6078   26.2794 C   0  0  0  0  0  0  0  0  0  0  0  0
    7.0855  -11.9015   27.1585 C   0  0  0  0  0  0  0  0  0  0  0  0
    6.1476  -12.8338   26.7984 C   0  0  0  0  0  0  0  0  0  0  0  0
    6.2015  -13.4844   25.5740 C   0  0  0  0  0  0  0  0  0  0  0  0
    8.3319  -15.9607   24.2960 C   0  0  0  0  0  0  0  0  0  0  0  0
    7.6382  -16.9928   24.1139 O   0  0  0  0  0  0  0  0  0  0  0  0
   11.0694  -20.4749   23.1864 C   0  0  0  0  0  0  0  0  0  0  0  0
   12.0153  -20.0493   24.6551 S   0  0  0  0  0  0  0  0  0  0  0  0
   11.0643  -19.0894   25.8148 C   0  0  0  0  0  0  0  0  0  0  0  0
   10.3889  -17.8804   25.3143 C   0  0  0  0  0  0  0  0  0  0  0  0
    9.5248  -17.0844   26.2354 C   0  0  2  0  0  0  0  0  0  0  0  0
    9.0646  -15.8777   25.5022 N   0  0  0  0  0  0  0  0  0  0  0  0
   10.1485  -16.6876   27.4867 C   0  0  0  0  0  0  0  0  0  0  0  0
   10.3297  -17.3943   28.5077 O   0  0  0  0  0  0  0  0  0  0  0  0
   10.6165  -15.3660   27.6062 O   0  0  0  0  0  0  0  0  0  0  0  0
  2  1  1  1
  2  3  1  0
  4  2  1  0
  4  5  2  0
  6  4  1  0
  7  6  1  0
  7  8  1  1
  8  9  1  0
  9 10  2  0
  9 14  1  0
 10 11  1  0
 11 12  2  0
 13 12  1  0
 14 13  2  0
 15  7  1  0
 16 15  2  0
 18 17  1  0
 19 18  1  0
 20 19  1  0
 21 20  1  6
 21 22  1  0
 22 15  1  0
 23 21  1  0
 24 23  2  0
 25 23  1  0
M  END
$$$$
