AFM.pdb
     RDKit          3D

 25 25  0  0  1  0  0  0  0  0999 V2000
   10.3255  -16.7168   18.2167 C   0  0  0  0  0  0  0  0  0  0  0  0
   10.1833  -17.5157   19.4934 C   0  0  2  0  0  0  0  0  0  0  0  0
    9.0609  -18.4174   19.4680 N   0  0  0  0  0  0  0  0  0  0  0  0
   10.0904  -16.6373   20.6902 C   0  0  0  0  0  0  0  0  0  0  0  0
   11.0460  -15.8419   20.9653 O   0  0  0  0  0  0  0  0  0  0  0  0
    8.9874  -16.6243   21.5643 N   0  0  0  0  0  0  0  0  0  0  0  0
    8.8543  -15.7230   22.7032 C   0  0  1  0  0  0  0  0  0  0  0  0
    7.4012  -15.3701   22.8009 C   0  0  0  0  0  0  0  0  0  0  0  0
    7.0646  -14.4090   23.8607 C   0  0  0  0  0  0  0  0  0  0  0  0
    7.4321  -13.0833   23.8074 C   0  0  0  0  0  0  0  0  0  0  0  0
    7.1008  -12.1899   24.8216 C   0  0  0  0  0  0  0  0  0  0  0  0
    6.3866  -12.6367   25.9102 C   0  0  0  0  0  0  0  0  0  0  0  0
    6.0197  -13.9562   25.9654 C   0  0  0  0  0  0  0  0  0  0  0  0
    6.3506  -14.8461   24.9535 C   0  0  0  0  0  0  0  0  0  0  0  0
    9.4237  -16.3052   23.9274 C   0  0  0  0  0  0  0  0  0  0  0  0
    9.2001  -17.5155   24.1822 O   0  0  0  0  0  0  0  0  0  0  0  0
   10.5411  -12.7588   29.3092 C   0  0  0  0  0  0  0  0  0  0  0  0
   11.6064  -14.1704   29.6339 S   0  0  0  0  0  0  0  0  0  0  0  0
   11.3446  -15.4940   28.4720 C   0  0  0  0  0  0  0  0  0  0  0  0
   10.9453  -15.1349   27.1009 C   0  0  0  0  0  0  0  0  0  0  0  0
   10.7667  -16.2096   26.0801 C   0  0  2  0  0  0  0  0  0  0  0  0
   10.2168  -15.5852   24.8500 N   0  0  0  0  0  0  0  0  0  0  0  0
    9.9198  -17.3189   26.4855 C   0  0  0  0  0  0  0  0  0  0  0  0
   10.2820  -18.4237   26.9578 O   0  0  0  0  0  0  0  0  0  0  0  0
    8.5267  -17.1762   26.3482 O   0  0  0  0  0  0  0  0  0  0  0  0
  2  1  1  6
  2  3  1  0
  4  2  1  0
  4  5  2  0
  6  4  1  0
  7  6  1  0
  7  8  1  1
  8  9  1  0
  9 10  2  0
  9 14  1  0
 10 11  1  0
 11 12  2  0
 13 12  1  0
 14 13  2  0
 15  7  1  0
 16 15  2  0
 18 17  1  0
 19 18  1  0
 20 19  1  0
 21 20  1  1
 21 22  1  0
 22 15  1  0
 23 21  1  0
 24 23  2  0
 25 23  1  0
M  END
$$$$
