AFM.pdb
     RDKit          3D

 25 25  0  0  1  0  0  0  0  0999 V2000
   10.3149  -19.3898   20.3598 C   0  0  0  0  0  0  0  0  0  0  0  0
    9.7413  -18.1174   19.7765 C   0  0  2  0  0  0  0  0  0  0  0  0
   10.4393  -17.6777   18.5962 N   0  0  0  0  0  0  0  0  0  0  0  0
    9.7068  -17.0154   20.7751 C   0  0  0  0  0  0  0  0  0  0  0  0
   10.6954  -16.2185   20.8704 O   0  0  0  0  0  0  0  0  0  0  0  0
    8.6259  -16.7866   21.6468 N   0  0  0  0  0  0  0  0  0  0  0  0
    8.6361  -15.8050   22.7256 C   0  0  1  0  0  0  0  0  0  0  0  0
    7.2065  -15.4336   22.9785 C   0  0  0  0  0  0  0  0  0  0  0  0
    7.0022  -14.4264   24.0292 C   0  0  0  0  0  0  0  0  0  0  0  0
    6.2780  -14.6798   25.1723 C   0  0  0  0  0  0  0  0  0  0  0  0
    6.0989  -13.7117   26.1557 C   0  0  0  0  0  0  0  0  0  0  0  0
    6.6579  -12.4651   25.9876 C   0  0  0  0  0  0  0  0  0  0  0  0
    7.3793  -12.2105   24.8503 C   0  0  0  0  0  0  0  0  0  0  0  0
    7.5573  -13.1768   23.8705 C   0  0  0  0  0  0  0  0  0  0  0  0
    9.3546  -16.3030   23.9077 C   0  0  0  0  0  0  0  0  0  0  0  0
    9.0952  -17.4575   24.3313 O   0  0  0  0  0  0  0  0  0  0  0  0
    9.7449  -12.8190   28.7848 C   0  0  0  0  0  0  0  0  0  0  0  0
    9.9262  -14.4845   29.4377 S   0  0  0  0  0  0  0  0  0  0  0  0
   10.2733  -15.6753   28.1602 C   0  0  0  0  0  0  0  0  0  0  0  0
   10.9005  -15.1886   26.9200 C   0  0  0  0  0  0  0  0  0  0  0  0
   11.0742  -16.1209   25.7670 C   0  0  2  0  0  0  0  0  0  0  0  0
   10.3315  -15.5602   24.6096 N   0  0  0  0  0  0  0  0  0  0  0  0
   10.6485  -17.4902   26.0039 C   0  0  0  0  0  0  0  0  0  0  0  0
   11.3419  -18.4413   26.4388 O   0  0  0  0  0  0  0  0  0  0  0  0
    9.3112  -17.8279   25.7256 O   0  0  0  0  0  0  0  0  0  0  0  0
  2  1  1  1
  2  3  1  0
  4  2  1  0
  4  5  2  0
  6  4  1  0
  7  6  1  0
  7  8  1  1
  8  9  1  0
  9 10  2  0
  9 14  1  0
 10 11  1  0
 11 12  2  0
 13 12  1  0
 14 13  2  0
 15  7  1  0
 16 15  2  0
 18 17  1  0
 19 18  1  0
 20 19  1  0
 21 20  1  1
 21 22  1  0
 22 15  1  0
 23 21  1  0
 24 23  2  0
 25 23  1  0
M  END
$$$$
