AFM.pdb
     RDKit          3D

 25 25  0  0  1  0  0  0  0  0999 V2000
    3.4121  -19.2920   22.0767 C   0  0  0  0  0  0  0  0  0  0  0  0
    4.8756  -19.4377   22.4306 C   0  0  2  0  0  0  0  0  0  0  0  0
    5.1001  -20.3512   23.5209 N   0  0  0  0  0  0  0  0  0  0  0  0
    5.5046  -18.1260   22.7413 C   0  0  0  0  0  0  0  0  0  0  0  0
    5.5654  -17.2262   21.8423 O   0  0  0  0  0  0  0  0  0  0  0  0
    6.0527  -17.8019   23.9964 N   0  0  0  0  0  0  0  0  0  0  0  0
    6.6974  -16.5307   24.3059 C   0  0  1  0  0  0  0  0  0  0  0  0
    6.5832  -16.3439   25.7884 C   0  0  0  0  0  0  0  0  0  0  0  0
    6.9290  -15.0005   26.2743 C   0  0  0  0  0  0  0  0  0  0  0  0
    6.0211  -13.9663   26.3121 C   0  0  0  0  0  0  0  0  0  0  0  0
    6.3697  -12.7023   26.7783 C   0  0  0  0  0  0  0  0  0  0  0  0
    7.6549  -12.4728   27.2148 C   0  0  0  0  0  0  0  0  0  0  0  0
    8.5604  -13.5010   27.1781 C   0  0  0  0  0  0  0  0  0  0  0  0
    8.2117  -14.7610   26.7130 C   0  0  0  0  0  0  0  0  0  0  0  0
    8.0729  -16.4782   23.7892 C   0  0  0  0  0  0  0  0  0  0  0  0
    8.8608  -17.4162   24.0701 O   0  0  0  0  0  0  0  0  0  0  0  0
    6.9498  -12.6806   19.6311 C   0  0  0  0  0  0  0  0  0  0  0  0
    8.4228  -13.5105   19.0195 S   0  0  0  0  0  0  0  0  0  0  0  0
    8.9067  -14.8757   20.0553 C   0  0  0  0  0  0  0  0  0  0  0  0
    9.8761  -14.6108   21.1317 C   0  0  0  0  0  0  0  0  0  0  0  0
    9.9066  -15.4993   22.3310 C   0  0  2  0  0  0  0  0  0  0  0  0
    8.5759  -15.4287   22.9865 N   0  0  0  0  0  0  0  0  0  0  0  0
   10.9460  -15.1996   23.3016 C   0  0  0  0  0  0  0  0  0  0  0  0
   10.7968  -14.8009   24.4821 O   0  0  0  0  0  0  0  0  0  0  0  0
   12.2877  -15.3634   22.9105 O   0  0  0  0  0  0  0  0  0  0  0  0
  2  1  1  1
  2  3  1  0
  4  2  1  0
  4  5  2  0
  6  4  1  0
  7  6  1  0
  7  8  1  1
  8  9  1  0
  9 10  2  0
  9 14  1  0
 10 11  1  0
 11 12  2  0
 13 12  1  0
 14 13  2  0
 15  7  1  0
 16 15  2  0
 18 17  1  0
 19 18  1  0
 20 19  1  0
 21 20  1  6
 21 22  1  0
 22 15  1  0
 23 21  1  0
 24 23  2  0
 25 23  1  0
M  END
$$$$
