AFM.pdb
     RDKit          3D

 25 25  0  0  1  0  0  0  0  0999 V2000
   10.4185  -18.8505   20.1251 C   0  0  0  0  0  0  0  0  0  0  0  0
   10.1502  -17.4320   19.6734 C   0  0  2  0  0  0  0  0  0  0  0  0
   11.1200  -16.9538   18.7225 N   0  0  0  0  0  0  0  0  0  0  0  0
   10.0710  -16.4897   20.8217 C   0  0  0  0  0  0  0  0  0  0  0  0
   11.0942  -15.8062   21.1493 O   0  0  0  0  0  0  0  0  0  0  0  0
    8.9097  -16.2962   21.5929 N   0  0  0  0  0  0  0  0  0  0  0  0
    8.8287  -15.4028   22.7430 C   0  0  1  0  0  0  0  0  0  0  0  0
    7.3876  -15.0162   22.8826 C   0  0  0  0  0  0  0  0  0  0  0  0
    7.0905  -14.1205   24.0094 C   0  0  0  0  0  0  0  0  0  0  0  0
    6.4849  -14.5559   25.1665 C   0  0  0  0  0  0  0  0  0  0  0  0
    6.2147  -13.6906   26.2223 C   0  0  0  0  0  0  0  0  0  0  0  0
    6.5594  -12.3623   26.1136 C   0  0  0  0  0  0  0  0  0  0  0  0
    7.1624  -11.9266   24.9624 C   0  0  0  0  0  0  0  0  0  0  0  0
    7.4313  -12.7904   23.9104 C   0  0  0  0  0  0  0  0  0  0  0  0
    9.4160  -16.0103   23.9462 C   0  0  0  0  0  0  0  0  0  0  0  0
    9.3866  -17.2608   24.0684 O   0  0  0  0  0  0  0  0  0  0  0  0
   10.1295  -14.3633   31.1716 C   0  0  0  0  0  0  0  0  0  0  0  0
   11.3023  -14.0490   29.8455 S   0  0  0  0  0  0  0  0  0  0  0  0
   11.2408  -15.3006   28.5804 C   0  0  0  0  0  0  0  0  0  0  0  0
   10.8141  -14.8926   27.2314 C   0  0  0  0  0  0  0  0  0  0  0  0
   10.6399  -15.9272   26.1693 C   0  0  2  0  0  0  0  0  0  0  0  0
   10.0200  -15.2719   24.9897 N   0  0  0  0  0  0  0  0  0  0  0  0
    9.8534  -17.0875   26.5533 C   0  0  0  0  0  0  0  0  0  0  0  0
   10.2766  -18.2198   26.8900 O   0  0  0  0  0  0  0  0  0  0  0  0
    8.4515  -16.9669   26.5611 O   0  0  0  0  0  0  0  0  0  0  0  0
  2  1  1  1
  2  3  1  0
  4  2  1  0
  4  5  2  0
  6  4  1  0
  7  6  1  0
  7  8  1  1
  8  9  1  0
  9 10  2  0
  9 14  1  0
 10 11  1  0
 11 12  2  0
 13 12  1  0
 14 13  2  0
 15  7  1  0
 16 15  2  0
 18 17  1  0
 19 18  1  0
 20 19  1  0
 21 20  1  1
 21 22  1  0
 22 15  1  0
 23 21  1  0
 24 23  2  0
 25 23  1  0
M  END
$$$$
