KGH.pdb
     RDKit          3D

 24 24  0  0  1  0  0  0  0  0999 V2000
   13.4743  -23.8481   17.3906 N   0  0  0  0  0  0  0  0  0  0  0  0
   12.5682  -22.7440   17.3090 C   0  0  1  0  0  0  0  0  0  0  0  0
   11.2150  -23.1333   17.8061 C   0  0  0  0  0  0  0  0  0  0  0  0
   11.1711  -24.3814   18.5972 C   0  0  0  0  0  0  0  0  0  0  0  0
    9.8125  -24.8039   19.0178 C   0  0  0  0  0  0  0  0  0  0  0  0
    9.8027  -26.1181   19.7852 C   0  0  0  0  0  0  0  0  0  0  0  0
    8.4508  -26.4224   20.1850 N   0  0  0  0  0  0  0  0  0  0  0  0
   13.0617  -21.5415   18.0337 C   0  0  0  0  0  0  0  0  0  0  0  0
   12.5897  -20.4348   17.6660 O   0  0  0  0  0  0  0  0  0  0  0  0
   14.0206  -21.6074   19.0951 N   0  0  0  0  0  0  0  0  0  0  0  0
   14.3499  -20.3746   19.7317 C   0  0  0  0  0  0  0  0  0  0  0  0
   13.6639  -20.0859   20.9835 C   0  0  0  0  0  0  0  0  0  0  0  0
   14.0433  -19.0246   21.5907 O   0  0  0  0  0  0  0  0  0  0  0  0
   12.6349  -20.8494   21.5878 N   0  0  0  0  0  0  0  0  0  0  0  0
   11.9230  -20.3325   22.7443 C   0  0  1  0  0  0  0  0  0  0  0  0
   10.4279  -20.3444   22.5137 C   0  0  0  0  0  0  0  0  0  0  0  0
   10.0701  -19.6746   21.2530 C   0  0  0  0  0  0  0  0  0  0  0  0
   10.1434  -18.3456   20.9104 C   0  0  0  0  0  0  0  0  0  0  0  0
    9.7024  -18.1658   19.6539 N   0  0  0  0  0  0  0  0  0  0  0  0
    9.3460  -19.3733   19.1874 C   0  0  0  0  0  0  0  0  0  0  0  0
    9.5726  -20.2866   20.1662 N   0  0  0  0  0  0  0  0  0  0  0  0
   12.3248  -21.0460   23.9804 C   0  0  0  0  0  0  0  0  0  0  0  0
   12.9641  -22.2983   23.8757 O   0  0  0  0  0  0  0  0  0  0  0  0
   12.1363  -20.6129   25.1419 O   0  0  0  0  0  0  0  0  0  0  0  0
  2  1  1  1
  3  2  1  0
  4  3  1  0
  5  6  1  0
  5  4  1  0
  7  6  1  0
  8  2  1  0
  8 10  1  0
  9  8  2  0
 11 10  1  0
 12 11  1  0
 13 12  2  0
 14 12  1  0
 15 14  1  0
 15 16  1  6
 17 18  2  0
 17 16  1  0
 19 18  1  0
 20 21  2  0
 20 19  1  0
 21 17  1  0
 22 15  1  0
 23 22  1  0
 24 22  2  0
M  END
$$$$
