KGH.pdb
     RDKit          3D

 24 24  0  0  1  0  0  0  0  0999 V2000
    9.8182  -14.6715   18.7274 N   0  0  0  0  0  0  0  0  0  0  0  0
    9.0863  -13.7634   19.5559 C   0  0  1  0  0  0  0  0  0  0  0  0
    8.0150  -13.0794   18.7722 C   0  0  0  0  0  0  0  0  0  0  0  0
    7.5064  -13.8368   17.6089 C   0  0  0  0  0  0  0  0  0  0  0  0
    8.2212  -13.5751   16.3354 C   0  0  0  0  0  0  0  0  0  0  0  0
    7.6027  -14.2884   15.1418 C   0  0  0  0  0  0  0  0  0  0  0  0
    8.4640  -14.1275   13.9962 N   0  0  0  0  0  0  0  0  0  0  0  0
    8.5096  -14.4219   20.7594 C   0  0  0  0  0  0  0  0  0  0  0  0
    7.8265  -13.6913   21.5226 O   0  0  0  0  0  0  0  0  0  0  0  0
    8.7034  -15.8083   21.0603 N   0  0  0  0  0  0  0  0  0  0  0  0
    8.0699  -16.2974   22.2405 C   0  0  0  0  0  0  0  0  0  0  0  0
    8.7333  -16.0043   23.5034 C   0  0  0  0  0  0  0  0  0  0  0  0
    9.9926  -15.7861   23.4295 O   0  0  0  0  0  0  0  0  0  0  0  0
    8.1349  -15.9372   24.7857 N   0  0  0  0  0  0  0  0  0  0  0  0
    8.9365  -15.6039   25.9509 C   0  0  1  0  0  0  0  0  0  0  0  0
    8.0714  -15.0774   27.0748 C   0  0  0  0  0  0  0  0  0  0  0  0
    7.2772  -13.9148   26.6465 C   0  0  0  0  0  0  0  0  0  0  0  0
    7.6021  -12.5793   26.6438 C   0  0  0  0  0  0  0  0  0  0  0  0
    6.5726  -11.8528   26.1771 N   0  0  0  0  0  0  0  0  0  0  0  0
    5.5875  -12.7153   25.8798 C   0  0  0  0  0  0  0  0  0  0  0  0
    6.0236  -13.9683   26.1681 N   0  0  0  0  0  0  0  0  0  0  0  0
    9.7848  -16.7492   26.3598 C   0  0  0  0  0  0  0  0  0  0  0  0
   10.7253  -16.5742   27.3956 O   0  0  0  0  0  0  0  0  0  0  0  0
    9.7308  -17.8909   25.8442 O   0  0  0  0  0  0  0  0  0  0  0  0
  2  1  1  6
  3  2  1  0
  4  3  1  0
  5  6  1  0
  5  4  1  0
  7  6  1  0
  8  2  1  0
  8 10  1  0
  9  8  2  0
 11 10  1  0
 12 11  1  0
 13 12  2  0
 14 12  1  0
 15 14  1  0
 15 16  1  1
 17 18  2  0
 17 16  1  0
 19 18  1  0
 20 21  2  0
 20 19  1  0
 21 17  1  0
 22 15  1  0
 23 22  1  0
 24 22  2  0
M  END
$$$$
