KGH.pdb
     RDKit          3D

 24 24  0  0  1  0  0  0  0  0999 V2000
    9.2928  -15.7334   18.2134 N   0  0  0  0  0  0  0  0  0  0  0  0
    8.8282  -14.5246   18.8214 C   0  0  1  0  0  0  0  0  0  0  0  0
    7.7399  -13.9076   18.0063 C   0  0  0  0  0  0  0  0  0  0  0  0
    7.5762  -14.4691   16.6485 C   0  0  0  0  0  0  0  0  0  0  0  0
    7.6069  -13.4684   15.5536 C   0  0  0  0  0  0  0  0  0  0  0  0
    7.3995  -14.0795   14.1753 C   0  0  0  0  0  0  0  0  0  0  0  0
    7.5799  -13.0581   13.1731 N   0  0  0  0  0  0  0  0  0  0  0  0
    8.3761  -14.7250   20.2250 C   0  0  0  0  0  0  0  0  0  0  0  0
    8.0413  -13.6901   20.8573 O   0  0  0  0  0  0  0  0  0  0  0  0
    8.3144  -16.0117   20.8503 N   0  0  0  0  0  0  0  0  0  0  0  0
    7.8882  -16.0377   22.2108 C   0  0  0  0  0  0  0  0  0  0  0  0
    8.9189  -15.8326   23.2189 C   0  0  0  0  0  0  0  0  0  0  0  0
    9.9493  -16.5858   23.1183 O   0  0  0  0  0  0  0  0  0  0  0  0
    8.8969  -14.8981   24.2834 N   0  0  0  0  0  0  0  0  0  0  0  0
    9.0376  -15.3501   25.6572 C   0  0  1  0  0  0  0  0  0  0  0  0
    7.7164  -15.2824   26.3910 C   0  0  0  0  0  0  0  0  0  0  0  0
    7.2107  -13.9024   26.4677 C   0  0  0  0  0  0  0  0  0  0  0  0
    6.5003  -13.1724   25.5450 C   0  0  0  0  0  0  0  0  0  0  0  0
    6.2497  -11.9413   26.0214 N   0  0  0  0  0  0  0  0  0  0  0  0
    6.7960  -11.8766   27.2462 C   0  0  0  0  0  0  0  0  0  0  0  0
    7.3791  -13.0738   27.5109 N   0  0  0  0  0  0  0  0  0  0  0  0
    9.6650  -16.6922   25.7153 C   0  0  0  0  0  0  0  0  0  0  0  0
   10.8637  -16.8613   26.4382 O   0  0  0  0  0  0  0  0  0  0  0  0
    9.2023  -17.7157   25.1579 O   0  0  0  0  0  0  0  0  0  0  0  0
  2  1  1  6
  3  2  1  0
  4  3  1  0
  5  6  1  0
  5  4  1  0
  7  6  1  0
  8  2  1  0
  8 10  1  0
  9  8  2  0
 11 10  1  0
 12 11  1  0
 13 12  2  0
 14 12  1  0
 15 14  1  0
 15 16  1  6
 17 18  2  0
 17 16  1  0
 19 18  1  0
 20 21  2  0
 20 19  1  0
 21 17  1  0
 22 15  1  0
 23 22  1  0
 24 22  2  0
M  END
$$$$
