KGH.pdb
     RDKit          3D

 24 24  0  0  1  0  0  0  0  0999 V2000
    7.4757  -17.0974   20.0093 N   0  0  0  0  0  0  0  0  0  0  0  0
    8.3249  -16.0251   20.4283 C   0  0  1  0  0  0  0  0  0  0  0  0
    8.0880  -14.8076   19.5969 C   0  0  0  0  0  0  0  0  0  0  0  0
    8.3597  -14.9701   18.1528 C   0  0  0  0  0  0  0  0  0  0  0  0
    8.1870  -13.7378   17.3448 C   0  0  0  0  0  0  0  0  0  0  0  0
    8.5250  -13.9318   15.8737 C   0  0  0  0  0  0  0  0  0  0  0  0
    8.3213  -12.6875   15.1735 N   0  0  0  0  0  0  0  0  0  0  0  0
    8.1740  -15.7045   21.8737 C   0  0  0  0  0  0  0  0  0  0  0  0
    7.1372  -15.0712   22.2002 O   0  0  0  0  0  0  0  0  0  0  0  0
    9.1381  -16.0818   22.8629 N   0  0  0  0  0  0  0  0  0  0  0  0
    9.2525  -15.2264   23.9981 C   0  0  0  0  0  0  0  0  0  0  0  0
   10.3021  -15.5516   24.9539 C   0  0  0  0  0  0  0  0  0  0  0  0
   11.2676  -16.2573   24.4969 O   0  0  0  0  0  0  0  0  0  0  0  0
   10.3615  -15.1717   26.3173 N   0  0  0  0  0  0  0  0  0  0  0  0
    9.4710  -15.7856   27.2877 C   0  0  1  0  0  0  0  0  0  0  0  0
    8.0336  -15.7299   26.8195 C   0  0  0  0  0  0  0  0  0  0  0  0
    7.4801  -14.3710   26.9338 C   0  0  0  0  0  0  0  0  0  0  0  0
    8.0438  -13.2318   27.4567 C   0  0  0  0  0  0  0  0  0  0  0  0
    7.1805  -12.2058   27.3703 N   0  0  0  0  0  0  0  0  0  0  0  0
    6.0644  -12.6804   26.7942 C   0  0  0  0  0  0  0  0  0  0  0  0
    6.2542  -13.9988   26.5314 N   0  0  0  0  0  0  0  0  0  0  0  0
    9.9175  -17.1580   27.6275 C   0  0  0  0  0  0  0  0  0  0  0  0
   10.5270  -17.3944   28.8768 O   0  0  0  0  0  0  0  0  0  0  0  0
    9.7929  -18.1513   26.8724 O   0  0  0  0  0  0  0  0  0  0  0  0
  2  1  1  6
  3  2  1  0
  4  3  1  0
  5  6  1  0
  5  4  1  0
  7  6  1  0
  8  2  1  0
  8 10  1  0
  9  8  2  0
 11 10  1  0
 12 11  1  0
 13 12  2  0
 14 12  1  0
 15 14  1  0
 15 16  1  6
 17 18  2  0
 17 16  1  0
 19 18  1  0
 20 21  2  0
 20 19  1  0
 21 17  1  0
 22 15  1  0
 23 22  1  0
 24 22  2  0
M  END
$$$$
