KGH.pdb
     RDKit          3D

 24 24  0  0  1  0  0  0  0  0999 V2000
    7.8935  -18.4032   20.8937 N   0  0  0  0  0  0  0  0  0  0  0  0
    8.5277  -17.4296   20.0591 C   0  0  1  0  0  0  0  0  0  0  0  0
    7.9771  -17.4835   18.6722 C   0  0  0  0  0  0  0  0  0  0  0  0
    7.5713  -18.8275   18.2089 C   0  0  0  0  0  0  0  0  0  0  0  0
    7.7229  -19.0549   16.7506 C   0  0  0  0  0  0  0  0  0  0  0  0
    7.0422  -20.3272   16.2671 C   0  0  0  0  0  0  0  0  0  0  0  0
    7.1617  -20.4116   14.8323 N   0  0  0  0  0  0  0  0  0  0  0  0
    8.4236  -16.0494   20.6060 C   0  0  0  0  0  0  0  0  0  0  0  0
    9.0811  -15.1599   20.0067 O   0  0  0  0  0  0  0  0  0  0  0  0
    7.6277  -15.7199   21.7498 N   0  0  0  0  0  0  0  0  0  0  0  0
    7.6972  -14.3703   22.2052 C   0  0  0  0  0  0  0  0  0  0  0  0
    8.4350  -14.1378   23.4390 C   0  0  0  0  0  0  0  0  0  0  0  0
    8.2030  -13.0213   24.0209 O   0  0  0  0  0  0  0  0  0  0  0  0
    9.3695  -15.0092   24.0510 N   0  0  0  0  0  0  0  0  0  0  0  0
    9.2239  -15.3724   25.4504 C   0  0  1  0  0  0  0  0  0  0  0  0
    7.7651  -15.4589   25.8418 C   0  0  0  0  0  0  0  0  0  0  0  0
    7.2219  -14.1384   26.1985 C   0  0  0  0  0  0  0  0  0  0  0  0
    7.8288  -13.0769   26.8262 C   0  0  0  0  0  0  0  0  0  0  0  0
    6.9594  -12.0618   26.9651 N   0  0  0  0  0  0  0  0  0  0  0  0
    5.7964  -12.4661   26.4295 C   0  0  0  0  0  0  0  0  0  0  0  0
    5.9639  -13.7309   25.9650 N   0  0  0  0  0  0  0  0  0  0  0  0
    9.9822  -16.6077   25.7623 C   0  0  0  0  0  0  0  0  0  0  0  0
   10.1411  -16.9968   27.1082 O   0  0  0  0  0  0  0  0  0  0  0  0
   10.5073  -17.3534   24.9018 O   0  0  0  0  0  0  0  0  0  0  0  0
  2  1  1  1
  3  2  1  0
  4  3  1  0
  5  6  1  0
  5  4  1  0
  7  6  1  0
  8  2  1  0
  8 10  1  0
  9  8  2  0
 11 10  1  0
 12 11  1  0
 13 12  2  0
 14 12  1  0
 15 14  1  0
 15 16  1  6
 17 18  2  0
 17 16  1  0
 19 18  1  0
 20 21  2  0
 20 19  1  0
 21 17  1  0
 22 15  1  0
 23 22  1  0
 24 22  2  0
M  END
$$$$
