KGH.pdb
     RDKit          3D

 24 24  0  0  1  0  0  0  0  0999 V2000
    6.5010  -16.6038   19.6933 N   0  0  0  0  0  0  0  0  0  0  0  0
    6.9528  -15.9431   20.8791 C   0  0  1  0  0  0  0  0  0  0  0  0
    6.6181  -14.4885   20.8336 C   0  0  0  0  0  0  0  0  0  0  0  0
    7.3418  -13.7089   19.8070 C   0  0  0  0  0  0  0  0  0  0  0  0
    8.7088  -13.2843   20.1972 C   0  0  0  0  0  0  0  0  0  0  0  0
    9.3467  -12.3248   19.2030 C   0  0  0  0  0  0  0  0  0  0  0  0
   10.6484  -11.9373   19.6881 N   0  0  0  0  0  0  0  0  0  0  0  0
    6.4148  -16.5613   22.1213 C   0  0  0  0  0  0  0  0  0  0  0  0
    5.1635  -16.5557   22.2515 O   0  0  0  0  0  0  0  0  0  0  0  0
    7.2491  -17.1389   23.1315 N   0  0  0  0  0  0  0  0  0  0  0  0
    6.6603  -17.3147   24.4184 C   0  0  0  0  0  0  0  0  0  0  0  0
    7.4086  -16.7906   25.5526 C   0  0  0  0  0  0  0  0  0  0  0  0
    6.8747  -16.9762   26.7013 O   0  0  0  0  0  0  0  0  0  0  0  0
    8.6486  -16.1067   25.5136 N   0  0  0  0  0  0  0  0  0  0  0  0
    9.2476  -15.6069   26.7395 C   0  0  1  0  0  0  0  0  0  0  0  0
    8.2379  -14.8423   27.5669 C   0  0  0  0  0  0  0  0  0  0  0  0
    7.5429  -13.8227   26.7648 C   0  0  0  0  0  0  0  0  0  0  0  0
    7.7120  -13.4736   25.4463 C   0  0  0  0  0  0  0  0  0  0  0  0
    6.8715  -12.4777   25.1190 N   0  0  0  0  0  0  0  0  0  0  0  0
    6.1627  -12.1852   26.2212 C   0  0  0  0  0  0  0  0  0  0  0  0
    6.5769  -13.0078   27.2187 N   0  0  0  0  0  0  0  0  0  0  0  0
    9.9079  -16.6991   27.4942 C   0  0  0  0  0  0  0  0  0  0  0  0
   10.5585  -16.4011   28.7091 O   0  0  0  0  0  0  0  0  0  0  0  0
    9.9344  -17.8981   27.1282 O   0  0  0  0  0  0  0  0  0  0  0  0
  2  1  1  6
  3  2  1  0
  4  3  1  0
  5  6  1  0
  5  4  1  0
  7  6  1  0
  8  2  1  0
  8 10  1  0
  9  8  2  0
 11 10  1  0
 12 11  1  0
 13 12  2  0
 14 12  1  0
 15 14  1  0
 15 16  1  1
 17 18  2  0
 17 16  1  0
 19 18  1  0
 20 21  2  0
 20 19  1  0
 21 17  1  0
 22 15  1  0
 23 22  1  0
 24 22  2  0
M  END
$$$$
