KGH.pdb
     RDKit          3D

 24 24  0  0  1  0  0  0  0  0999 V2000
    8.8135  -17.7989   19.5606 N   0  0  0  0  0  0  0  0  0  0  0  0
    8.6023  -16.3889   19.4425 C   0  0  1  0  0  0  0  0  0  0  0  0
    7.8427  -16.0709   18.1969 C   0  0  0  0  0  0  0  0  0  0  0  0
    8.5839  -15.2766   17.1943 C   0  0  0  0  0  0  0  0  0  0  0  0
    7.8105  -14.9368   15.9746 C   0  0  0  0  0  0  0  0  0  0  0  0
    8.5977  -14.0975   14.9786 C   0  0  0  0  0  0  0  0  0  0  0  0
    7.8092  -13.9174   13.7844 N   0  0  0  0  0  0  0  0  0  0  0  0
    7.9183  -15.8094   20.6304 C   0  0  0  0  0  0  0  0  0  0  0  0
    7.0247  -16.5180   21.1614 O   0  0  0  0  0  0  0  0  0  0  0  0
    8.2366  -14.5192   21.1635 N   0  0  0  0  0  0  0  0  0  0  0  0
    7.5690  -14.1462   22.3672 C   0  0  0  0  0  0  0  0  0  0  0  0
    8.2244  -14.5136   23.6147 C   0  0  0  0  0  0  0  0  0  0  0  0
    9.3239  -13.9062   23.8620 O   0  0  0  0  0  0  0  0  0  0  0  0
    7.7749  -15.4607   24.5675 N   0  0  0  0  0  0  0  0  0  0  0  0
    8.5079  -15.6564   25.8069 C   0  0  1  0  0  0  0  0  0  0  0  0
    7.6381  -15.3551   27.0074 C   0  0  0  0  0  0  0  0  0  0  0  0
    7.2213  -13.9439   27.0325 C   0  0  0  0  0  0  0  0  0  0  0  0
    7.9768  -12.8007   26.9265 C   0  0  0  0  0  0  0  0  0  0  0  0
    7.1893  -11.7152   27.0108 N   0  0  0  0  0  0  0  0  0  0  0  0
    5.9310  -12.1556   27.1706 C   0  0  0  0  0  0  0  0  0  0  0  0
    5.9584  -13.5130   27.1828 N   0  0  0  0  0  0  0  0  0  0  0  0
    9.1188  -17.0064   25.8575 C   0  0  0  0  0  0  0  0  0  0  0  0
    9.9169  -17.3600   26.9647 O   0  0  0  0  0  0  0  0  0  0  0  0
    8.9784  -17.8817   24.9706 O   0  0  0  0  0  0  0  0  0  0  0  0
  2  1  1  1
  3  2  1  0
  4  3  1  0
  5  6  1  0
  5  4  1  0
  7  6  1  0
  8  2  1  0
  8 10  1  0
  9  8  2  0
 11 10  1  0
 12 11  1  0
 13 12  2  0
 14 12  1  0
 15 14  1  0
 15 16  1  1
 17 18  2  0
 17 16  1  0
 19 18  1  0
 20 21  2  0
 20 19  1  0
 21 17  1  0
 22 15  1  0
 23 22  1  0
 24 22  2  0
M  END
$$$$
