KGH.pdb
     RDKit          3D

 24 24  0  0  1  0  0  0  0  0999 V2000
    8.8208  -15.7928   19.1233 N   0  0  0  0  0  0  0  0  0  0  0  0
    8.5096  -14.3970   19.0850 C   0  0  1  0  0  0  0  0  0  0  0  0
    7.7103  -14.0671   17.8676 C   0  0  0  0  0  0  0  0  0  0  0  0
    8.4015  -14.2961   16.5809 C   0  0  0  0  0  0  0  0  0  0  0  0
    7.5888  -13.9966   15.3763 C   0  0  0  0  0  0  0  0  0  0  0  0
    8.3566  -14.1739   14.0743 C   0  0  0  0  0  0  0  0  0  0  0  0
    8.8035  -15.5413   13.9713 N   0  0  0  0  0  0  0  0  0  0  0  0
    7.8052  -13.9320   20.3106 C   0  0  0  0  0  0  0  0  0  0  0  0
    6.7636  -13.2495   20.1314 O   0  0  0  0  0  0  0  0  0  0  0  0
    8.2624  -14.2281   21.6349 N   0  0  0  0  0  0  0  0  0  0  0  0
    7.4271  -13.7968   22.7072 C   0  0  0  0  0  0  0  0  0  0  0  0
    7.9299  -14.0246   24.0548 C   0  0  0  0  0  0  0  0  0  0  0  0
    7.8165  -13.0376   24.8622 O   0  0  0  0  0  0  0  0  0  0  0  0
    8.5227  -15.2102   24.5548 N   0  0  0  0  0  0  0  0  0  0  0  0
    9.4007  -15.1579   25.7115 C   0  0  1  0  0  0  0  0  0  0  0  0
    8.6243  -15.3587   26.9943 C   0  0  0  0  0  0  0  0  0  0  0  0
    9.5017  -15.2892   28.1738 C   0  0  0  0  0  0  0  0  0  0  0  0
   10.1856  -14.2197   28.7005 C   0  0  0  0  0  0  0  0  0  0  0  0
   10.8806  -14.6026   29.7849 N   0  0  0  0  0  0  0  0  0  0  0  0
   10.6464  -15.9134   29.9575 C   0  0  0  0  0  0  0  0  0  0  0  0
    9.8064  -16.3242   28.9731 N   0  0  0  0  0  0  0  0  0  0  0  0
   10.5328  -16.1040   25.5647 C   0  0  0  0  0  0  0  0  0  0  0  0
   11.6733  -15.9447   26.3783 O   0  0  0  0  0  0  0  0  0  0  0  0
   10.5572  -17.0597   24.7533 O   0  0  0  0  0  0  0  0  0  0  0  0
  2  1  1  1
  3  2  1  0
  4  3  1  0
  5  6  1  0
  5  4  1  0
  7  6  1  0
  8  2  1  0
  8 10  1  0
  9  8  2  0
 11 10  1  0
 12 11  1  0
 13 12  2  0
 14 12  1  0
 15 14  1  0
 15 16  1  1
 17 18  2  0
 17 16  1  0
 19 18  1  0
 20 21  2  0
 20 19  1  0
 21 17  1  0
 22 15  1  0
 23 22  1  0
 24 22  2  0
M  END
$$$$
