KGH.pdb
     RDKit          3D

 24 24  0  0  1  0  0  0  0  0999 V2000
    8.3511  -21.6269   21.3601 N   0  0  0  0  0  0  0  0  0  0  0  0
    7.7527  -20.4986   20.7154 C   0  0  1  0  0  0  0  0  0  0  0  0
    6.6903  -19.8997   21.5769 C   0  0  0  0  0  0  0  0  0  0  0  0
    5.3133  -20.0217   21.0529 C   0  0  0  0  0  0  0  0  0  0  0  0
    4.2676  -19.3977   21.9006 C   0  0  0  0  0  0  0  0  0  0  0  0
    2.8586  -19.5990   21.3619 C   0  0  0  0  0  0  0  0  0  0  0  0
    1.9103  -19.0565   22.3035 N   0  0  0  0  0  0  0  0  0  0  0  0
    8.7497  -19.4646   20.3257 C   0  0  0  0  0  0  0  0  0  0  0  0
    8.5184  -18.8395   19.2587 O   0  0  0  0  0  0  0  0  0  0  0  0
    9.9180  -19.1739   21.1009 N   0  0  0  0  0  0  0  0  0  0  0  0
   10.5353  -17.9092   20.8706 C   0  0  0  0  0  0  0  0  0  0  0  0
   10.3113  -16.8832   21.8795 C   0  0  0  0  0  0  0  0  0  0  0  0
   11.0011  -15.8133   21.7438 O   0  0  0  0  0  0  0  0  0  0  0  0
    9.4206  -16.9486   22.9792 N   0  0  0  0  0  0  0  0  0  0  0  0
    9.3507  -15.8525   23.9306 C   0  0  1  0  0  0  0  0  0  0  0  0
    7.9781  -15.2164   23.9289 C   0  0  0  0  0  0  0  0  0  0  0  0
    7.5919  -14.7677   22.5816 C   0  0  0  0  0  0  0  0  0  0  0  0
    8.2209  -13.8891   21.7322 C   0  0  0  0  0  0  0  0  0  0  0  0
    7.5149  -13.7563   20.5967 N   0  0  0  0  0  0  0  0  0  0  0  0
    6.4348  -14.5454   20.7125 C   0  0  0  0  0  0  0  0  0  0  0  0
    6.4886  -15.1577   21.9231 N   0  0  0  0  0  0  0  0  0  0  0  0
    9.7862  -16.2885   25.2792 C   0  0  0  0  0  0  0  0  0  0  0  0
    9.8063  -15.3516   26.3327 O   0  0  0  0  0  0  0  0  0  0  0  0
   10.1474  -17.4548   25.5648 O   0  0  0  0  0  0  0  0  0  0  0  0
  2  1  1  1
  3  2  1  0
  4  3  1  0
  5  6  1  0
  5  4  1  0
  7  6  1  0
  8  2  1  0
  8 10  1  0
  9  8  2  0
 11 10  1  0
 12 11  1  0
 13 12  2  0
 14 12  1  0
 15 14  1  0
 15 16  1  1
 17 18  2  0
 17 16  1  0
 19 18  1  0
 20 21  2  0
 20 19  1  0
 21 17  1  0
 22 15  1  0
 23 22  1  0
 24 22  2  0
M  END
$$$$
