FVV.pdb
     RDKit          3D

 26 26  0  0  1  0  0  0  0  0999 V2000
    5.2314  -18.5017   24.8561 N   0  0  0  0  0  0  0  0  0  0  0  0
    5.6832  -17.1397   25.0308 C   0  0  1  0  0  0  0  0  0  0  0  0
    5.7898  -16.8276   26.4988 C   0  0  0  0  0  0  0  0  0  0  0  0
    6.0176  -15.3758   26.6757 C   0  0  0  0  0  0  0  0  0  0  0  0
    5.0573  -14.5129   26.2062 C   0  0  0  0  0  0  0  0  0  0  0  0
    5.1994  -13.1550   26.3341 C   0  0  0  0  0  0  0  0  0  0  0  0
    6.3417  -12.6778   26.9515 C   0  0  0  0  0  0  0  0  0  0  0  0
    7.2992  -13.5360   27.4198 C   0  0  0  0  0  0  0  0  0  0  0  0
    7.1612  -14.8939   27.2941 C   0  0  0  0  0  0  0  0  0  0  0  0
    6.9890  -16.9468   24.3517 C   0  0  0  0  0  0  0  0  0  0  0  0
    7.8072  -17.8979   24.2812 O   0  0  0  0  0  0  0  0  0  0  0  0
    9.9411  -14.1966   21.4872 C   0  0  0  0  0  0  0  0  0  0  0  0
    8.5856  -14.3856   22.0867 C   0  0  1  0  0  0  0  0  0  0  0  0
    7.5288  -14.5668   21.0273 C   0  0  0  0  0  0  0  0  0  0  0  0
    8.6078  -15.5360   23.0778 C   0  0  2  0  0  0  0  0  0  0  0  0
    7.3694  -15.7104   23.7632 N   0  0  0  0  0  0  0  0  0  0  0  0
    9.7799  -15.4636   23.9841 C   0  0  0  0  0  0  0  0  0  0  0  0
   10.9505  -15.2405   23.6003 O   0  0  0  0  0  0  0  0  0  0  0  0
   11.1213  -14.4463   28.5453 C   0  0  0  0  0  0  0  0  0  0  0  0
   10.1440  -14.5399   27.4101 C   0  0  1  0  0  0  0  0  0  0  0  0
    9.8310  -13.2293   26.7616 C   0  0  0  0  0  0  0  0  0  0  0  0
   10.6867  -15.4750   26.3243 C   0  0  2  0  0  0  0  0  0  0  0  0
    9.6020  -15.6540   25.3824 N   0  0  0  0  0  0  0  0  0  0  0  0
   11.1805  -16.7385   26.8617 C   0  0  0  0  0  0  0  0  0  0  0  0
   10.4868  -17.7771   26.7536 O   0  0  0  0  0  0  0  0  0  0  0  0
   12.4043  -16.8143   27.4909 O   0  0  0  0  0  0  0  0  0  0  0  0
  2 10  1  0
  2  1  1  1
  3  2  1  0
  4  3  1  0
  5  4  2  0
  6  5  1  0
  7  8  1  0
  7  6  2  0
  8  9  2  0
  9  4  1  0
 10 11  2  0
 13 12  1  6
 13 14  1  0
 15 13  1  0
 15 16  1  1
 16 10  1  0
 17 18  2  0
 17 15  1  0
 20 19  1  1
 20 21  1  0
 20 22  1  0
 22 23  1  6
 23 17  1  0
 24 26  1  0
 24 22  1  0
 25 24  2  0
M  END
$$$$
