FVV.pdb
     RDKit          3D

 26 26  0  0  1  0  0  0  0  0999 V2000
    5.6516  -17.6212   23.7294 N   0  0  0  0  0  0  0  0  0  0  0  0
    6.4110  -16.4691   24.1602 C   0  0  1  0  0  0  0  0  0  0  0  0
    5.8600  -15.9603   25.4646 C   0  0  0  0  0  0  0  0  0  0  0  0
    6.4249  -14.6214   25.7459 C   0  0  0  0  0  0  0  0  0  0  0  0
    5.6176  -13.5283   25.5447 C   0  0  0  0  0  0  0  0  0  0  0  0
    6.0720  -12.2566   25.7837 C   0  0  0  0  0  0  0  0  0  0  0  0
    7.3711  -12.1062   26.2347 C   0  0  0  0  0  0  0  0  0  0  0  0
    8.1765  -13.1940   26.4357 C   0  0  0  0  0  0  0  0  0  0  0  0
    7.7265  -14.4668   26.1981 C   0  0  0  0  0  0  0  0  0  0  0  0
    7.8452  -16.8275   24.2944 C   0  0  0  0  0  0  0  0  0  0  0  0
    8.1815  -17.8308   24.9723 O   0  0  0  0  0  0  0  0  0  0  0  0
   12.5083  -16.5188   22.8159 C   0  0  0  0  0  0  0  0  0  0  0  0
   11.0910  -16.0978   22.6003 C   0  0  1  0  0  0  0  0  0  0  0  0
   10.5082  -16.7209   21.3576 C   0  0  0  0  0  0  0  0  0  0  0  0
   10.2620  -16.3994   23.8364 C   0  0  2  0  0  0  0  0  0  0  0  0
    8.8821  -16.0747   23.6798 N   0  0  0  0  0  0  0  0  0  0  0  0
   10.8685  -15.8270   25.0632 C   0  0  0  0  0  0  0  0  0  0  0  0
   11.5249  -14.7613   25.0894 O   0  0  0  0  0  0  0  0  0  0  0  0
   10.6497  -14.7163   29.5587 C   0  0  0  0  0  0  0  0  0  0  0  0
   10.2126  -15.1409   28.1870 C   0  0  1  0  0  0  0  0  0  0  0  0
    9.9108  -14.0059   27.2615 C   0  0  0  0  0  0  0  0  0  0  0  0
   11.3004  -15.9968   27.5296 C   0  0  2  0  0  0  0  0  0  0  0  0
   10.7157  -16.5024   26.3056 N   0  0  0  0  0  0  0  0  0  0  0  0
   11.7876  -17.0597   28.4024 C   0  0  0  0  0  0  0  0  0  0  0  0
   11.3489  -18.2266   28.2705 O   0  0  0  0  0  0  0  0  0  0  0  0
   12.7284  -16.8052   29.3768 O   0  0  0  0  0  0  0  0  0  0  0  0
  2 10  1  0
  2  1  1  1
  3  2  1  0
  4  3  1  0
  5  4  2  0
  6  5  1  0
  7  8  1  0
  7  6  2  0
  8  9  2  0
  9  4  1  0
 10 11  2  0
 13 12  1  1
 13 14  1  0
 15 13  1  0
 15 16  1  6
 16 10  1  0
 17 18  2  0
 17 15  1  0
 20 19  1  1
 20 21  1  0
 20 22  1  0
 22 23  1  6
 23 17  1  0
 24 26  1  0
 24 22  1  0
 25 24  2  0
M  END
$$$$
