FVV.pdb
     RDKit          3D

 26 26  0  0  1  0  0  0  0  0999 V2000
    5.8835  -19.2929   20.4351 N   0  0  0  0  0  0  0  0  0  0  0  0
    6.0091  -18.3817   21.5502 C   0  0  1  0  0  0  0  0  0  0  0  0
    6.1781  -19.1635   22.8245 C   0  0  0  0  0  0  0  0  0  0  0  0
    6.4888  -18.2328   23.9327 C   0  0  0  0  0  0  0  0  0  0  0  0
    7.7991  -18.1215   24.3299 C   0  0  0  0  0  0  0  0  0  0  0  0
    8.1627  -17.2798   25.3498 C   0  0  0  0  0  0  0  0  0  0  0  0
    7.1683  -16.5438   25.9690 C   0  0  0  0  0  0  0  0  0  0  0  0
    5.8626  -16.6536   25.5744 C   0  0  0  0  0  0  0  0  0  0  0  0
    5.4948  -17.4935   24.5556 C   0  0  0  0  0  0  0  0  0  0  0  0
    7.1588  -17.4682   21.3324 C   0  0  0  0  0  0  0  0  0  0  0  0
    8.2776  -17.9343   21.0004 O   0  0  0  0  0  0  0  0  0  0  0  0
    9.0283  -13.0521   20.4159 C   0  0  0  0  0  0  0  0  0  0  0  0
    7.7977  -13.8541   20.6894 C   0  0  1  0  0  0  0  0  0  0  0  0
    6.9575  -14.0246   19.4496 C   0  0  0  0  0  0  0  0  0  0  0  0
    8.1700  -15.1855   21.3179 C   0  0  2  0  0  0  0  0  0  0  0  0
    7.0550  -16.0590   21.4842 N   0  0  0  0  0  0  0  0  0  0  0  0
    8.9727  -15.0097   22.5529 C   0  0  0  0  0  0  0  0  0  0  0  0
    8.5066  -14.5987   23.6397 O   0  0  0  0  0  0  0  0  0  0  0  0
   11.2325  -16.8145   25.8262 C   0  0  0  0  0  0  0  0  0  0  0  0
   10.4428  -16.5303   24.5818 C   0  0  1  0  0  0  0  0  0  0  0  0
    9.0374  -16.0877   24.8359 C   0  0  0  0  0  0  0  0  0  0  0  0
   11.1312  -15.4351   23.7605 C   0  0  2  0  0  0  0  0  0  0  0  0
   10.3613  -15.3172   22.5402 N   0  0  0  0  0  0  0  0  0  0  0  0
   12.5412  -15.7169   23.5122 C   0  0  0  0  0  0  0  0  0  0  0  0
   12.8746  -16.4137   22.5250 O   0  0  0  0  0  0  0  0  0  0  0  0
   13.5223  -15.2282   24.3476 O   0  0  0  0  0  0  0  0  0  0  0  0
  2 10  1  0
  2  1  1  6
  3  2  1  0
  4  3  1  0
  5  4  2  0
  6  5  1  0
  7  8  1  0
  7  6  2  0
  8  9  2  0
  9  4  1  0
 10 11  2  0
 13 12  1  6
 13 14  1  0
 15 13  1  0
 15 16  1  1
 16 10  1  0
 17 18  2  0
 17 15  1  0
 20 19  1  1
 20 21  1  0
 20 22  1  0
 22 23  1  6
 23 17  1  0
 24 26  1  0
 24 22  1  0
 25 24  2  0
M  END
$$$$
