FVV.pdb
     RDKit          3D

 26 26  0  0  1  0  0  0  0  0999 V2000
    7.0102  -18.2031   19.8636 N   0  0  0  0  0  0  0  0  0  0  0  0
    7.4491  -16.9363   20.4042 C   0  0  1  0  0  0  0  0  0  0  0  0
    6.3592  -15.9121   20.2389 C   0  0  0  0  0  0  0  0  0  0  0  0
    6.8584  -14.5902   20.6795 C   0  0  0  0  0  0  0  0  0  0  0  0
    7.6172  -13.8626   19.7952 C   0  0  0  0  0  0  0  0  0  0  0  0
    8.1144  -12.6300   20.1332 C   0  0  0  0  0  0  0  0  0  0  0  0
    7.8287  -12.1391   21.3946 C   0  0  0  0  0  0  0  0  0  0  0  0
    7.0728  -12.8625   22.2766 C   0  0  0  0  0  0  0  0  0  0  0  0
    6.5740  -14.0949   21.9430 C   0  0  0  0  0  0  0  0  0  0  0  0
    7.8157  -17.0940   21.8339 C   0  0  0  0  0  0  0  0  0  0  0  0
    6.9626  -17.5057   22.6597 O   0  0  0  0  0  0  0  0  0  0  0  0
   11.0365  -18.2921   25.1836 C   0  0  0  0  0  0  0  0  0  0  0  0
   10.6251  -18.1041   23.7596 C   0  0  1  0  0  0  0  0  0  0  0  0
   10.2507  -19.4123   23.1110 C   0  0  0  0  0  0  0  0  0  0  0  0
    9.5091  -17.0783   23.6686 C   0  0  2  0  0  0  0  0  0  0  0  0
    9.1145  -16.7956   22.3276 N   0  0  0  0  0  0  0  0  0  0  0  0
    9.8074  -15.8633   24.4656 C   0  0  0  0  0  0  0  0  0  0  0  0
   10.7352  -15.0641   24.2055 O   0  0  0  0  0  0  0  0  0  0  0  0
    8.3744  -12.6595   27.8448 C   0  0  0  0  0  0  0  0  0  0  0  0
    8.1042  -13.7336   26.8319 C   0  0  1  0  0  0  0  0  0  0  0  0
    7.5824  -13.2265   25.5256 C   0  0  0  0  0  0  0  0  0  0  0  0
    9.3874  -14.5197   26.5435 C   0  0  2  0  0  0  0  0  0  0  0  0
    9.0111  -15.5539   25.6029 N   0  0  0  0  0  0  0  0  0  0  0  0
   10.0060  -15.0549   27.7517 C   0  0  0  0  0  0  0  0  0  0  0  0
    9.6691  -16.1845   28.1783 O   0  0  0  0  0  0  0  0  0  0  0  0
   10.9613  -14.3382   28.4394 O   0  0  0  0  0  0  0  0  0  0  0  0
  2 10  1  0
  2  1  1  1
  3  2  1  0
  4  3  1  0
  5  4  2  0
  6  5  1  0
  7  8  1  0
  7  6  2  0
  8  9  2  0
  9  4  1  0
 10 11  2  0
 13 12  1  1
 13 14  1  0
 15 13  1  0
 15 16  1  6
 16 10  1  0
 17 18  2  0
 17 15  1  0
 20 19  1  1
 20 21  1  0
 20 22  1  0
 22 23  1  6
 23 17  1  0
 24 26  1  0
 24 22  1  0
 25 24  2  0
M  END
$$$$
