FVV.pdb
     RDKit          3D

 26 26  0  0  1  0  0  0  0  0999 V2000
    7.4461  -16.6757   19.4082 N   0  0  0  0  0  0  0  0  0  0  0  0
    7.7855  -15.7357   20.4527 C   0  0  1  0  0  0  0  0  0  0  0  0
    6.6737  -14.7344   20.6114 C   0  0  0  0  0  0  0  0  0  0  0  0
    7.0529  -13.7406   21.6407 C   0  0  0  0  0  0  0  0  0  0  0  0
    7.7095  -12.6068   21.2279 C   0  0  0  0  0  0  0  0  0  0  0  0
    8.0925  -11.6421   22.1243 C   0  0  0  0  0  0  0  0  0  0  0  0
    7.7973  -11.8447   23.4606 C   0  0  0  0  0  0  0  0  0  0  0  0
    7.1432  -12.9735   23.8734 C   0  0  0  0  0  0  0  0  0  0  0  0
    6.7587  -13.9402   22.9809 C   0  0  0  0  0  0  0  0  0  0  0  0
    8.0336  -16.4586   21.7253 C   0  0  0  0  0  0  0  0  0  0  0  0
    7.4531  -17.5499   21.9515 O   0  0  0  0  0  0  0  0  0  0  0  0
   10.9285  -18.6870   24.3447 C   0  0  0  0  0  0  0  0  0  0  0  0
   10.2894  -17.9454   23.2160 C   0  0  1  0  0  0  0  0  0  0  0  0
    9.4930  -18.8650   22.3259 C   0  0  0  0  0  0  0  0  0  0  0  0
    9.4516  -16.7978   23.7520 C   0  0  2  0  0  0  0  0  0  0  0  0
    8.9158  -15.9663   22.7247 N   0  0  0  0  0  0  0  0  0  0  0  0
   10.1610  -16.0430   24.8137 C   0  0  0  0  0  0  0  0  0  0  0  0
   11.2958  -15.5334   24.6730 O   0  0  0  0  0  0  0  0  0  0  0  0
    9.6665  -13.5892   29.0177 C   0  0  0  0  0  0  0  0  0  0  0  0
    9.0840  -14.4164   27.9091 C   0  0  1  0  0  0  0  0  0  0  0  0
    8.3066  -13.6308   26.9019 C   0  0  0  0  0  0  0  0  0  0  0  0
   10.1997  -15.1528   27.1600 C   0  0  2  0  0  0  0  0  0  0  0  0
    9.5452  -15.8661   26.0836 N   0  0  0  0  0  0  0  0  0  0  0  0
   10.9780  -16.0313   28.0268 C   0  0  0  0  0  0  0  0  0  0  0  0
   10.5335  -17.1634   28.3301 O   0  0  0  0  0  0  0  0  0  0  0  0
   12.2024  -15.6388   28.5229 O   0  0  0  0  0  0  0  0  0  0  0  0
  2 10  1  0
  2  1  1  6
  3  2  1  0
  4  3  1  0
  5  4  2  0
  6  5  1  0
  7  8  1  0
  7  6  2  0
  8  9  2  0
  9  4  1  0
 10 11  2  0
 13 12  1  1
 13 14  1  0
 15 13  1  0
 15 16  1  6
 16 10  1  0
 17 18  2  0
 17 15  1  0
 20 19  1  1
 20 21  1  0
 20 22  1  0
 22 23  1  6
 23 17  1  0
 24 26  1  0
 24 22  1  0
 25 24  2  0
M  END
$$$$
