FVV.pdb
     RDKit          3D

 26 26  0  0  1  0  0  0  0  0999 V2000
    5.2229  -17.8764   25.2403 N   0  0  0  0  0  0  0  0  0  0  0  0
    5.8960  -16.5975   25.2083 C   0  0  1  0  0  0  0  0  0  0  0  0
    6.2085  -16.1562   26.6124 C   0  0  0  0  0  0  0  0  0  0  0  0
    6.3492  -14.6831   26.6431 C   0  0  0  0  0  0  0  0  0  0  0  0
    5.2519  -13.9259   26.3118 C   0  0  0  0  0  0  0  0  0  0  0  0
    5.3070  -12.5556   26.3175 C   0  0  0  0  0  0  0  0  0  0  0  0
    6.5035  -11.9561   26.6677 C   0  0  0  0  0  0  0  0  0  0  0  0
    7.5975  -12.7090   26.9980 C   0  0  0  0  0  0  0  0  0  0  0  0
    7.5469  -14.0787   26.9935 C   0  0  0  0  0  0  0  0  0  0  0  0
    7.1343  -16.6956   24.3956 C   0  0  0  0  0  0  0  0  0  0  0  0
    7.7779  -17.7743   24.3587 O   0  0  0  0  0  0  0  0  0  0  0  0
   10.2406  -15.1136   20.9806 C   0  0  0  0  0  0  0  0  0  0  0  0
    8.9390  -14.8865   21.6784 C   0  0  1  0  0  0  0  0  0  0  0  0
    7.7668  -15.2363   20.7976 C   0  0  0  0  0  0  0  0  0  0  0  0
    8.9129  -15.6420   22.9955 C   0  0  2  0  0  0  0  0  0  0  0  0
    7.6407  -15.6044   23.6389 N   0  0  0  0  0  0  0  0  0  0  0  0
   10.0355  -15.2488   23.8818 C   0  0  0  0  0  0  0  0  0  0  0  0
   10.4873  -14.0844   23.9669 O   0  0  0  0  0  0  0  0  0  0  0  0
   10.6593  -15.1626   28.2585 C   0  0  0  0  0  0  0  0  0  0  0  0
   10.1437  -15.4107   26.8710 C   0  0  1  0  0  0  0  0  0  0  0  0
    9.5233  -14.2135   26.2247 C   0  0  0  0  0  0  0  0  0  0  0  0
   11.2829  -15.8876   25.9638 C   0  0  2  0  0  0  0  0  0  0  0  0
   10.6625  -16.2282   24.7009 N   0  0  0  0  0  0  0  0  0  0  0  0
   12.0364  -16.9969   26.5387 C   0  0  0  0  0  0  0  0  0  0  0  0
   11.7121  -18.1778   26.2709 O   0  0  0  0  0  0  0  0  0  0  0  0
   13.1068  -16.7713   27.3770 O   0  0  0  0  0  0  0  0  0  0  0  0
  2 10  1  0
  2  1  1  1
  3  2  1  0
  4  3  1  0
  5  4  2  0
  6  5  1  0
  7  8  1  0
  7  6  2  0
  8  9  2  0
  9  4  1  0
 10 11  2  0
 13 12  1  6
 13 14  1  0
 15 13  1  0
 15 16  1  1
 16 10  1  0
 17 18  2  0
 17 15  1  0
 20 19  1  1
 20 21  1  0
 20 22  1  0
 22 23  1  6
 23 17  1  0
 24 26  1  0
 24 22  1  0
 25 24  2  0
M  END
$$$$
