FVV.pdb
     RDKit          3D

 26 26  0  0  1  0  0  0  0  0999 V2000
   11.7951  -18.4221   23.8726 N   0  0  0  0  0  0  0  0  0  0  0  0
   11.1945  -17.5260   24.8348 C   0  0  1  0  0  0  0  0  0  0  0  0
   12.2380  -17.0662   25.8163 C   0  0  0  0  0  0  0  0  0  0  0  0
   11.5720  -16.4658   26.9940 C   0  0  0  0  0  0  0  0  0  0  0  0
   11.5571  -15.0959   27.0947 C   0  0  0  0  0  0  0  0  0  0  0  0
   10.9591  -14.4687   28.1576 C   0  0  0  0  0  0  0  0  0  0  0  0
   10.3696  -15.2582   29.1286 C   0  0  0  0  0  0  0  0  0  0  0  0
   10.3835  -16.6230   29.0297 C   0  0  0  0  0  0  0  0  0  0  0  0
   10.9800  -17.2540   27.9692 C   0  0  0  0  0  0  0  0  0  0  0  0
   10.5779  -16.3703   24.1364 C   0  0  0  0  0  0  0  0  0  0  0  0
   11.2523  -15.3313   23.9247 O   0  0  0  0  0  0  0  0  0  0  0  0
    7.1016  -13.9068   21.8316 C   0  0  0  0  0  0  0  0  0  0  0  0
    7.7444  -15.2285   22.1002 C   0  0  1  0  0  0  0  0  0  0  0  0
    8.6186  -15.6658   20.9527 C   0  0  0  0  0  0  0  0  0  0  0  0
    8.5031  -15.1836   23.4150 C   0  0  2  0  0  0  0  0  0  0  0  0
    9.2306  -16.3802   23.6844 N   0  0  0  0  0  0  0  0  0  0  0  0
    7.6371  -14.7523   24.5396 C   0  0  0  0  0  0  0  0  0  0  0  0
    7.5721  -15.3433   25.6413 O   0  0  0  0  0  0  0  0  0  0  0  0
    6.9895  -11.5887   27.5101 C   0  0  0  0  0  0  0  0  0  0  0  0
    7.4524  -12.4635   26.3817 C   0  0  1  0  0  0  0  0  0  0  0  0
    8.1800  -13.6943   26.8195 C   0  0  0  0  0  0  0  0  0  0  0  0
    6.2548  -12.9102   25.5368 C   0  0  2  0  0  0  0  0  0  0  0  0
    6.8159  -13.6001   24.3944 N   0  0  0  0  0  0  0  0  0  0  0  0
    5.3874  -11.8008   25.1548 C   0  0  0  0  0  0  0  0  0  0  0  0
    5.7640  -10.9858   24.2800 O   0  0  0  0  0  0  0  0  0  0  0  0
    4.1518  -11.6292   25.7408 O   0  0  0  0  0  0  0  0  0  0  0  0
  2 10  1  0
  2  1  1  6
  3  2  1  0
  4  3  1  0
  5  4  2  0
  6  5  1  0
  7  8  1  0
  7  6  2  0
  8  9  2  0
  9  4  1  0
 10 11  2  0
 13 12  1  6
 13 14  1  0
 15 13  1  0
 15 16  1  1
 16 10  1  0
 17 18  2  0
 17 15  1  0
 20 19  1  1
 20 21  1  0
 20 22  1  0
 22 23  1  6
 23 17  1  0
 24 26  1  0
 24 22  1  0
 25 24  2  0
M  END
$$$$
