FVV.pdb
     RDKit          3D

 26 26  0  0  1  0  0  0  0  0999 V2000
    5.3776  -17.4456   23.8081 N   0  0  0  0  0  0  0  0  0  0  0  0
    6.2799  -16.4258   24.2934 C   0  0  1  0  0  0  0  0  0  0  0  0
    5.8705  -16.0076   25.6795 C   0  0  0  0  0  0  0  0  0  0  0  0
    6.3874  -14.6480   25.9537 C   0  0  0  0  0  0  0  0  0  0  0  0
    7.6849  -14.5297   26.3892 C   0  0  0  0  0  0  0  0  0  0  0  0
    8.2325  -13.3027   26.6637 C   0  0  0  0  0  0  0  0  0  0  0  0
    7.4377  -12.1840   26.4887 C   0  0  0  0  0  0  0  0  0  0  0  0
    6.1451  -12.3002   26.0549 C   0  0  0  0  0  0  0  0  0  0  0  0
    5.5938  -13.5245   25.7795 C   0  0  0  0  0  0  0  0  0  0  0  0
    7.6742  -16.9351   24.2836 C   0  0  0  0  0  0  0  0  0  0  0  0
    7.9398  -18.0494   24.8002 O   0  0  0  0  0  0  0  0  0  0  0  0
   10.2311  -17.1663   21.4102 C   0  0  0  0  0  0  0  0  0  0  0  0
   10.8989  -16.4438   22.5348 C   0  0  1  0  0  0  0  0  0  0  0  0
   11.1224  -14.9895   22.2073 C   0  0  0  0  0  0  0  0  0  0  0  0
   10.1078  -16.6283   23.8179 C   0  0  2  0  0  0  0  0  0  0  0  0
    8.7497  -16.2081   23.7053 N   0  0  0  0  0  0  0  0  0  0  0  0
   10.8103  -16.0501   24.9895 C   0  0  0  0  0  0  0  0  0  0  0  0
   11.7380  -15.2133   24.9083 O   0  0  0  0  0  0  0  0  0  0  0  0
   10.6156  -14.4194   29.4008 C   0  0  0  0  0  0  0  0  0  0  0  0
   10.1584  -14.8447   28.0360 C   0  0  1  0  0  0  0  0  0  0  0  0
   10.1032  -13.7353   27.0350 C   0  0  0  0  0  0  0  0  0  0  0  0
   11.0942  -15.9231   27.4799 C   0  0  2  0  0  0  0  0  0  0  0  0
   10.4340  -16.4466   26.3026 N   0  0  0  0  0  0  0  0  0  0  0  0
   11.4067  -16.9594   28.4583 C   0  0  0  0  0  0  0  0  0  0  0  0
   10.7851  -18.0478   28.4358 O   0  0  0  0  0  0  0  0  0  0  0  0
   12.3798  -16.7649   29.4147 O   0  0  0  0  0  0  0  0  0  0  0  0
  2 10  1  0
  2  1  1  1
  3  2  1  0
  4  3  1  0
  5  4  2  0
  6  5  1  0
  7  8  1  0
  7  6  2  0
  8  9  2  0
  9  4  1  0
 10 11  2  0
 13 12  1  6
 13 14  1  0
 15 13  1  0
 15 16  1  6
 16 10  1  0
 17 18  2  0
 17 15  1  0
 20 19  1  1
 20 21  1  0
 20 22  1  0
 22 23  1  6
 23 17  1  0
 24 26  1  0
 24 22  1  0
 25 24  2  0
M  END
$$$$
