FVV.pdb
     RDKit          3D

 26 26  0  0  1  0  0  0  0  0999 V2000
    5.7818  -17.6420   24.1032 N   0  0  0  0  0  0  0  0  0  0  0  0
    6.5877  -16.4933   24.4506 C   0  0  1  0  0  0  0  0  0  0  0  0
    6.1028  -15.9110   25.7505 C   0  0  0  0  0  0  0  0  0  0  0  0
    6.4031  -14.4619   25.7803 C   0  0  0  0  0  0  0  0  0  0  0  0
    5.3884  -13.6025   26.1253 C   0  0  0  0  0  0  0  0  0  0  0  0
    5.5919  -12.2472   26.1741 C   0  0  0  0  0  0  0  0  0  0  0  0
    6.8526  -11.7691   25.8648 C   0  0  0  0  0  0  0  0  0  0  0  0
    7.8644  -12.6238   25.5211 C   0  0  0  0  0  0  0  0  0  0  0  0
    7.6655  -13.9791   25.4710 C   0  0  0  0  0  0  0  0  0  0  0  0
    8.0163  -16.8854   24.5456 C   0  0  0  0  0  0  0  0  0  0  0  0
    8.3502  -17.8803   25.2368 O   0  0  0  0  0  0  0  0  0  0  0  0
   12.6305  -16.6928   22.8749 C   0  0  0  0  0  0  0  0  0  0  0  0
   11.2171  -16.2346   22.7180 C   0  0  1  0  0  0  0  0  0  0  0  0
   10.5785  -16.8130   21.4812 C   0  0  0  0  0  0  0  0  0  0  0  0
   10.4231  -16.5481   23.9740 C   0  0  2  0  0  0  0  0  0  0  0  0
    9.0501  -16.1748   23.8780 N   0  0  0  0  0  0  0  0  0  0  0  0
   11.0916  -16.0341   25.1945 C   0  0  0  0  0  0  0  0  0  0  0  0
   11.6939  -14.9384   25.2555 O   0  0  0  0  0  0  0  0  0  0  0  0
   10.8012  -14.0556   27.0888 C   0  0  0  0  0  0  0  0  0  0  0  0
   10.7629  -15.1740   28.0890 C   0  0  1  0  0  0  0  0  0  0  0  0
    9.3969  -15.7310   28.3332 C   0  0  0  0  0  0  0  0  0  0  0  0
   11.6562  -16.3282   27.6221 C   0  0  2  0  0  0  0  0  0  0  0  0
   11.0674  -16.8060   26.3889 N   0  0  0  0  0  0  0  0  0  0  0  0
   11.7927  -17.3787   28.6255 C   0  0  0  0  0  0  0  0  0  0  0  0
   11.2458  -18.4918   28.4431 O   0  0  0  0  0  0  0  0  0  0  0  0
   12.5171  -17.1707   29.7794 O   0  0  0  0  0  0  0  0  0  0  0  0
  2 10  1  0
  2  1  1  1
  3  2  1  0
  4  3  1  0
  5  4  2  0
  6  5  1  0
  7  8  1  0
  7  6  2  0
  8  9  2  0
  9  4  1  0
 10 11  2  0
 13 12  1  1
 13 14  1  0
 15 13  1  0
 15 16  1  6
 16 10  1  0
 17 18  2  0
 17 15  1  0
 20 19  1  6
 20 21  1  0
 20 22  1  0
 22 23  1  6
 23 17  1  0
 24 26  1  0
 24 22  1  0
 25 24  2  0
M  END
$$$$
