FVV.pdb
     RDKit          3D

 26 26  0  0  1  0  0  0  0  0999 V2000
    5.3715  -18.1911   25.0173 N   0  0  0  0  0  0  0  0  0  0  0  0
    5.8968  -16.8485   25.1233 C   0  0  1  0  0  0  0  0  0  0  0  0
    6.0921  -16.4959   26.5729 C   0  0  0  0  0  0  0  0  0  0  0  0
    6.3032  -15.0362   26.6978 C   0  0  0  0  0  0  0  0  0  0  0  0
    7.5738  -14.5919   26.9720 C   0  0  0  0  0  0  0  0  0  0  0  0
    7.8454  -13.2540   27.1021 C   0  0  0  0  0  0  0  0  0  0  0  0
    6.7992  -12.3619   26.9488 C   0  0  0  0  0  0  0  0  0  0  0  0
    5.5329  -12.8029   26.6756 C   0  0  0  0  0  0  0  0  0  0  0  0
    5.2570  -14.1391   26.5448 C   0  0  0  0  0  0  0  0  0  0  0  0
    7.1745  -16.7426   24.3752 C   0  0  0  0  0  0  0  0  0  0  0  0
    8.0056  -17.6844   24.4145 O   0  0  0  0  0  0  0  0  0  0  0  0
    9.9500  -14.6160   20.9200 C   0  0  0  0  0  0  0  0  0  0  0  0
    8.6624  -14.5845   21.6774 C   0  0  1  0  0  0  0  0  0  0  0  0
    7.4884  -14.9199   20.7935 C   0  0  0  0  0  0  0  0  0  0  0  0
    8.7465  -15.4950   22.8900 C   0  0  2  0  0  0  0  0  0  0  0  0
    7.5132  -15.6020   23.5981 N   0  0  0  0  0  0  0  0  0  0  0  0
    9.8996  -15.1548   23.7590 C   0  0  0  0  0  0  0  0  0  0  0  0
   10.8309  -14.3896   23.4209 O   0  0  0  0  0  0  0  0  0  0  0  0
   11.4608  -14.2749   28.1544 C   0  0  0  0  0  0  0  0  0  0  0  0
   10.4455  -14.5467   27.0830 C   0  0  1  0  0  0  0  0  0  0  0  0
    9.8737  -13.3162   26.4545 C   0  0  0  0  0  0  0  0  0  0  0  0
   11.0716  -15.3882   25.9659 C   0  0  2  0  0  0  0  0  0  0  0  0
    9.9867  -15.7132   25.0643 N   0  0  0  0  0  0  0  0  0  0  0  0
   11.7604  -16.5721   26.4687 C   0  0  0  0  0  0  0  0  0  0  0  0
   11.1999  -17.6920   26.4126 O   0  0  0  0  0  0  0  0  0  0  0  0
   13.0255  -16.4839   27.0084 O   0  0  0  0  0  0  0  0  0  0  0  0
  2 10  1  0
  2  1  1  1
  3  2  1  0
  4  3  1  0
  5  4  2  0
  6  5  1  0
  7  8  1  0
  7  6  2  0
  8  9  2  0
  9  4  1  0
 10 11  2  0
 13 12  1  6
 13 14  1  0
 15 13  1  0
 15 16  1  1
 16 10  1  0
 17 18  2  0
 17 15  1  0
 20 19  1  1
 20 21  1  0
 20 22  1  0
 22 23  1  6
 23 17  1  0
 24 26  1  0
 24 22  1  0
 25 24  2  0
M  END
$$$$
