FVV.pdb
     RDKit          3D

 26 26  0  0  1  0  0  0  0  0999 V2000
    7.6032  -15.5233   20.2626 N   0  0  0  0  0  0  0  0  0  0  0  0
    7.8305  -14.8902   21.5422 C   0  0  1  0  0  0  0  0  0  0  0  0
    6.5335  -14.3410   22.0712 C   0  0  0  0  0  0  0  0  0  0  0  0
    6.7671  -13.7232   23.3958 C   0  0  0  0  0  0  0  0  0  0  0  0
    6.2826  -14.3755   24.5034 C   0  0  0  0  0  0  0  0  0  0  0  0
    6.4604  -13.8635   25.7632 C   0  0  0  0  0  0  0  0  0  0  0  0
    7.1442  -12.6672   25.8865 C   0  0  0  0  0  0  0  0  0  0  0  0
    7.6275  -12.0163   24.7841 C   0  0  0  0  0  0  0  0  0  0  0  0
    7.4520  -12.5243   23.5232 C   0  0  0  0  0  0  0  0  0  0  0  0
    8.4205  -15.8653   22.4933 C   0  0  0  0  0  0  0  0  0  0  0  0
    7.7315  -16.8282   22.9143 O   0  0  0  0  0  0  0  0  0  0  0  0
   11.8447  -18.6349   24.1820 C   0  0  0  0  0  0  0  0  0  0  0  0
   11.2692  -17.6889   23.1788 C   0  0  1  0  0  0  0  0  0  0  0  0
   10.6011  -18.4208   22.0430 C   0  0  0  0  0  0  0  0  0  0  0  0
   10.3306  -16.7097   23.8616 C   0  0  2  0  0  0  0  0  0  0  0  0
    9.7577  -15.7618   22.9631 N   0  0  0  0  0  0  0  0  0  0  0  0
   10.9513  -16.0900   25.0579 C   0  0  0  0  0  0  0  0  0  0  0  0
   12.0186  -15.4362   25.0351 O   0  0  0  0  0  0  0  0  0  0  0  0
   10.8323  -14.2440   29.4287 C   0  0  0  0  0  0  0  0  0  0  0  0
   10.2582  -14.6466   28.1017 C   0  0  1  0  0  0  0  0  0  0  0  0
   10.3237  -13.5791   27.0567 C   0  0  0  0  0  0  0  0  0  0  0  0
   10.9996  -15.8723   27.5577 C   0  0  2  0  0  0  0  0  0  0  0  0
   10.3238  -16.2256   26.3271 N   0  0  0  0  0  0  0  0  0  0  0  0
   11.0449  -16.9750   28.5122 C   0  0  0  0  0  0  0  0  0  0  0  0
   10.0790  -17.7697   28.5950 O   0  0  0  0  0  0  0  0  0  0  0  0
   12.1372  -17.1625   29.3314 O   0  0  0  0  0  0  0  0  0  0  0  0
  2 10  1  0
  2  1  1  6
  3  2  1  0
  4  3  1  0
  5  4  2  0
  6  5  1  0
  7  8  1  0
  7  6  2  0
  8  9  2  0
  9  4  1  0
 10 11  2  0
 13 12  1  1
 13 14  1  0
 15 13  1  0
 15 16  1  6
 16 10  1  0
 17 18  2  0
 17 15  1  0
 20 19  1  1
 20 21  1  0
 20 22  1  0
 22 23  1  6
 23 17  1  0
 24 26  1  0
 24 22  1  0
 25 24  2  0
M  END
$$$$
