DWA.pdb
     RDKit          3D

 28 29  0  0  1  0  0  0  0  0999 V2000
   10.1504  -17.7999   21.6477 N   0  0  0  0  0  0  0  0  0  0  0  0
   11.2239  -17.0610   22.2459 C   0  0  1  0  0  0  0  0  0  0  0  0
   11.4689  -15.8473   21.3698 C   0  0  0  0  0  0  0  0  0  0  0  0
   11.9785  -16.2737   20.0655 C   0  0  0  0  0  0  0  0  0  0  0  0
   11.2518  -16.1168   19.0505 O   0  0  0  0  0  0  0  0  0  0  0  0
   10.9022  -16.6381   23.6411 C   0  0  0  0  0  0  0  0  0  0  0  0
   11.6395  -15.8038   24.2307 O   0  0  0  0  0  0  0  0  0  0  0  0
   13.2261  -16.8476   19.8691 O   0  0  0  0  0  0  0  0  0  0  0  0
    9.7840  -17.1325   24.3648 N   0  0  0  0  0  0  0  0  0  0  0  0
    9.5156  -16.7306   25.7660 C   0  0  1  0  0  0  0  0  0  0  0  0
    8.0342  -16.5779   25.9502 C   0  0  0  0  0  0  0  0  0  0  0  0
    7.4510  -15.4467   25.2052 C   0  0  0  0  0  0  0  0  0  0  0  0
    6.9378  -15.5196   23.8986 C   0  0  0  0  0  0  0  0  0  0  0  0
    6.5193  -14.3059   23.5131 N   0  0  0  0  0  0  0  0  0  0  0  0
    6.7234  -13.4066   24.5002 C   0  0  0  0  0  0  0  0  0  0  0  0
    6.4448  -12.0575   24.5779 C   0  0  0  0  0  0  0  0  0  0  0  0
    6.7609  -11.4129   25.7545 C   0  0  0  0  0  0  0  0  0  0  0  0
    7.3371  -12.0993   26.8171 C   0  0  0  0  0  0  0  0  0  0  0  0
    7.6057  -13.4406   26.7162 C   0  0  0  0  0  0  0  0  0  0  0  0
    7.2988  -14.1114   25.5455 C   0  0  0  0  0  0  0  0  0  0  0  0
   10.2353  -17.5627   26.7094 C   0  0  0  0  0  0  0  0  0  0  0  0
   10.3657  -18.8037   26.6199 O   0  0  0  0  0  0  0  0  0  0  0  0
   12.2624  -16.8635   29.8032 C   0  0  0  0  0  0  0  0  0  0  0  0
   11.5069  -17.7917   28.8879 C   0  0  2  0  0  0  0  0  0  0  0  0
   10.8746  -16.9753   27.8643 N   0  0  0  0  0  0  0  0  0  0  0  0
   10.4576  -18.5568   29.6030 C   0  0  0  0  0  0  0  0  0  0  0  0
    9.2420  -18.2962   29.4116 O   0  0  0  0  0  0  0  0  0  0  0  0
   10.7631  -19.5749   30.4986 O   0  0  0  0  0  0  0  0  0  0  0  0
  2  1  1  6
  2  6  1  0
  2  3  1  0
  3  4  1  0
  4  5  2  0
  4  8  1  0
  6  7  2  0
  9 10  1  0
  9  6  1  0
 10 11  1  1
 12 11  1  0
 13 12  2  0
 14 13  1  0
 15 14  1  0
 15 20  2  0
 16 15  1  0
 17 16  2  0
 17 18  1  0
 18 19  2  0
 19 20  1  0
 20 12  1  0
 21 22  2  0
 21 10  1  0
 24 23  1  1
 24 26  1  0
 24 25  1  0
 25 21  1  0
 26 28  1  0
 27 26  2  0
M  END
$$$$
