DWA.pdb
     RDKit          3D

 28 29  0  0  1  0  0  0  0  0999 V2000
    9.5753  -18.1425   21.0765 N   0  0  0  0  0  0  0  0  0  0  0  0
   10.6568  -17.2981   21.4936 C   0  0  1  0  0  0  0  0  0  0  0  0
   10.7049  -16.1296   20.5277 C   0  0  0  0  0  0  0  0  0  0  0  0
   10.9991  -16.6152   19.1785 C   0  0  0  0  0  0  0  0  0  0  0  0
   10.1719  -16.3862   18.2587 O   0  0  0  0  0  0  0  0  0  0  0  0
   10.4763  -16.8086   22.8925 C   0  0  0  0  0  0  0  0  0  0  0  0
   11.2516  -15.9301   23.3558 O   0  0  0  0  0  0  0  0  0  0  0  0
   12.1443  -17.3211   18.8399 O   0  0  0  0  0  0  0  0  0  0  0  0
    9.4553  -17.2861   23.7575 N   0  0  0  0  0  0  0  0  0  0  0  0
    9.3028  -16.7847   25.1438 C   0  0  1  0  0  0  0  0  0  0  0  0
    7.8712  -16.3912   25.3613 C   0  0  0  0  0  0  0  0  0  0  0  0
    7.5228  -15.0683   24.8105 C   0  0  0  0  0  0  0  0  0  0  0  0
    7.4221  -14.7649   23.4417 C   0  0  0  0  0  0  0  0  0  0  0  0
    7.1231  -13.4670   23.2912 N   0  0  0  0  0  0  0  0  0  0  0  0
    7.0143  -12.8701   24.4981 C   0  0  0  0  0  0  0  0  0  0  0  0
    6.7097  -11.5712   24.8499 C   0  0  0  0  0  0  0  0  0  0  0  0
    6.6544  -11.2765   26.1953 C   0  0  0  0  0  0  0  0  0  0  0  0
    6.8966  -12.2526   27.1549 C   0  0  0  0  0  0  0  0  0  0  0  0
    7.1984  -13.5373   26.7809 C   0  0  0  0  0  0  0  0  0  0  0  0
    7.2610  -13.8594   25.4367 C   0  0  0  0  0  0  0  0  0  0  0  0
    9.9159  -17.6773   26.1071 C   0  0  0  0  0  0  0  0  0  0  0  0
    9.8518  -17.5476   27.3498 O   0  0  0  0  0  0  0  0  0  0  0  0
   11.6023  -21.0197   25.7935 C   0  0  0  0  0  0  0  0  0  0  0  0
   11.1766  -19.8186   26.5975 C   0  0  2  0  0  0  0  0  0  0  0  0
   10.6735  -18.8247   25.6631 N   0  0  0  0  0  0  0  0  0  0  0  0
   12.2994  -19.2273   27.3638 C   0  0  0  0  0  0  0  0  0  0  0  0
   12.9415  -18.2519   26.8961 O   0  0  0  0  0  0  0  0  0  0  0  0
   12.6857  -19.7136   28.6073 O   0  0  0  0  0  0  0  0  0  0  0  0
  2  1  1  6
  2  6  1  0
  2  3  1  0
  3  4  1  0
  4  5  2  0
  4  8  1  0
  6  7  2  0
  9 10  1  0
  9  6  1  0
 10 11  1  1
 12 11  1  0
 13 12  2  0
 14 13  1  0
 15 14  1  0
 15 20  2  0
 16 15  1  0
 17 16  2  0
 17 18  1  0
 18 19  2  0
 19 20  1  0
 20 12  1  0
 21 22  2  0
 21 10  1  0
 24 23  1  6
 24 26  1  0
 24 25  1  0
 25 21  1  0
 26 28  1  0
 27 26  2  0
M  END
$$$$
