DWA.pdb
     RDKit          3D

 28 29  0  0  1  0  0  0  0  0999 V2000
    9.2563  -16.0739   21.0556 N   0  0  0  0  0  0  0  0  0  0  0  0
   10.2135  -16.8217   21.8178 C   0  0  1  0  0  0  0  0  0  0  0  0
   11.5784  -16.5303   21.2236 C   0  0  0  0  0  0  0  0  0  0  0  0
   11.6728  -17.1223   19.8882 C   0  0  0  0  0  0  0  0  0  0  0  0
   10.9114  -18.0799   19.5949 O   0  0  0  0  0  0  0  0  0  0  0  0
   10.1873  -16.4530   23.2643 C   0  0  0  0  0  0  0  0  0  0  0  0
   10.7197  -15.3777   23.6485 O   0  0  0  0  0  0  0  0  0  0  0  0
   12.5576  -16.6934   18.9096 O   0  0  0  0  0  0  0  0  0  0  0  0
    9.5815  -17.2632   24.2620 N   0  0  0  0  0  0  0  0  0  0  0  0
    9.5231  -16.8462   25.6831 C   0  0  1  0  0  0  0  0  0  0  0  0
    8.0921  -16.8647   26.1343 C   0  0  0  0  0  0  0  0  0  0  0  0
    7.2780  -15.7614   25.5913 C   0  0  0  0  0  0  0  0  0  0  0  0
    6.2632  -15.9048   24.6293 C   0  0  0  0  0  0  0  0  0  0  0  0
    5.7512  -14.7014   24.3353 N   0  0  0  0  0  0  0  0  0  0  0  0
    6.3716  -13.7416   25.0554 C   0  0  0  0  0  0  0  0  0  0  0  0
    6.1839  -12.3757   25.1091 C   0  0  0  0  0  0  0  0  0  0  0  0
    6.9792  -11.6615   25.9793 C   0  0  0  0  0  0  0  0  0  0  0  0
    7.9306  -12.2968   26.7688 C   0  0  0  0  0  0  0  0  0  0  0  0
    8.0997  -13.6561   26.6976 C   0  0  0  0  0  0  0  0  0  0  0  0
    7.3146  -14.3965   25.8316 C   0  0  0  0  0  0  0  0  0  0  0  0
   10.4988  -17.5521   26.4893 C   0  0  0  0  0  0  0  0  0  0  0  0
   10.8703  -18.7316   26.2996 O   0  0  0  0  0  0  0  0  0  0  0  0
   12.8357  -16.5518   29.2459 C   0  0  0  0  0  0  0  0  0  0  0  0
   12.0719  -17.5962   28.4739 C   0  0  2  0  0  0  0  0  0  0  0  0
   11.1287  -16.8996   27.6141 N   0  0  0  0  0  0  0  0  0  0  0  0
   11.3194  -18.5144   29.3618 C   0  0  0  0  0  0  0  0  0  0  0  0
   10.0626  -18.4732   29.3972 O   0  0  0  0  0  0  0  0  0  0  0  0
   11.9548  -19.4425   30.1783 O   0  0  0  0  0  0  0  0  0  0  0  0
  2  1  1  6
  2  6  1  0
  2  3  1  0
  3  4  1  0
  4  5  2  0
  4  8  1  0
  6  7  2  0
  9 10  1  0
  9  6  1  0
 10 11  1  1
 12 11  1  0
 13 12  2  0
 14 13  1  0
 15 14  1  0
 15 20  2  0
 16 15  1  0
 17 16  2  0
 17 18  1  0
 18 19  2  0
 19 20  1  0
 20 12  1  0
 21 22  2  0
 21 10  1  0
 24 23  1  1
 24 26  1  0
 24 25  1  0
 25 21  1  0
 26 28  1  0
 27 26  2  0
M  END
$$$$
