DWA.pdb
     RDKit          3D

 28 29  0  0  1  0  0  0  0  0999 V2000
   10.5897  -16.1588   20.1905 N   0  0  0  0  0  0  0  0  0  0  0  0
   10.9157  -16.8982   21.3752 C   0  0  1  0  0  0  0  0  0  0  0  0
   12.4264  -17.0272   21.4156 C   0  0  0  0  0  0  0  0  0  0  0  0
   12.8510  -18.1368   20.5605 C   0  0  0  0  0  0  0  0  0  0  0  0
   11.9750  -18.9047   20.0852 O   0  0  0  0  0  0  0  0  0  0  0  0
   10.4188  -16.2224   22.6103 C   0  0  0  0  0  0  0  0  0  0  0  0
   10.5956  -14.9845   22.7638 O   0  0  0  0  0  0  0  0  0  0  0  0
   14.1725  -18.4035   20.2336 O   0  0  0  0  0  0  0  0  0  0  0  0
    9.7396  -16.9092   23.6523 N   0  0  0  0  0  0  0  0  0  0  0  0
    9.3461  -16.2337   24.9115 C   0  0  1  0  0  0  0  0  0  0  0  0
    7.9482  -16.6478   25.2663 C   0  0  0  0  0  0  0  0  0  0  0  0
    7.0318  -15.5182   25.5095 C   0  0  0  0  0  0  0  0  0  0  0  0
    5.6302  -15.5832   25.4253 C   0  0  0  0  0  0  0  0  0  0  0  0
    5.1098  -14.3729   25.6718 N   0  0  0  0  0  0  0  0  0  0  0  0
    6.0951  -13.4832   25.9217 C   0  0  0  0  0  0  0  0  0  0  0  0
    6.0544  -12.1410   26.2388 C   0  0  0  0  0  0  0  0  0  0  0  0
    7.2577  -11.5065   26.4606 C   0  0  0  0  0  0  0  0  0  0  0  0
    8.4611  -12.1959   26.3674 C   0  0  0  0  0  0  0  0  0  0  0  0
    8.4766  -13.5302   26.0500 C   0  0  0  0  0  0  0  0  0  0  0  0
    7.2825  -14.1909   25.8217 C   0  0  0  0  0  0  0  0  0  0  0  0
   10.3705  -16.3580   25.9291 C   0  0  0  0  0  0  0  0  0  0  0  0
   11.2477  -17.2495   25.9612 O   0  0  0  0  0  0  0  0  0  0  0  0
   11.2444  -14.3685   29.0088 C   0  0  0  0  0  0  0  0  0  0  0  0
   11.3656  -15.5832   28.1256 C   0  0  2  0  0  0  0  0  0  0  0  0
   10.4389  -15.4113   27.0185 N   0  0  0  0  0  0  0  0  0  0  0  0
   11.0259  -16.8360   28.8416 C   0  0  0  0  0  0  0  0  0  0  0  0
    9.8951  -17.3659   28.6898 O   0  0  0  0  0  0  0  0  0  0  0  0
   11.9221  -17.4683   29.6953 O   0  0  0  0  0  0  0  0  0  0  0  0
  2  1  1  6
  2  6  1  0
  2  3  1  0
  3  4  1  0
  4  5  2  0
  4  8  1  0
  6  7  2  0
  9 10  1  0
  9  6  1  0
 10 11  1  1
 12 11  1  0
 13 12  2  0
 14 13  1  0
 15 14  1  0
 15 20  2  0
 16 15  1  0
 17 16  2  0
 17 18  1  0
 18 19  2  0
 19 20  1  0
 20 12  1  0
 21 22  2  0
 21 10  1  0
 24 23  1  1
 24 26  1  0
 24 25  1  0
 25 21  1  0
 26 28  1  0
 27 26  2  0
M  END
$$$$
