DWA.pdb
     RDKit          3D

 28 29  0  0  1  0  0  0  0  0999 V2000
    9.1723  -17.9333   22.1116 N   0  0  0  0  0  0  0  0  0  0  0  0
   10.1610  -16.9169   22.3254 C   0  0  1  0  0  0  0  0  0  0  0  0
    9.7614  -15.7243   21.4775 C   0  0  0  0  0  0  0  0  0  0  0  0
   10.0102  -16.0163   20.0649 C   0  0  0  0  0  0  0  0  0  0  0  0
   10.4238  -17.1611   19.7468 O   0  0  0  0  0  0  0  0  0  0  0  0
   10.2569  -16.5237   23.7625 C   0  0  0  0  0  0  0  0  0  0  0  0
   10.9845  -15.5525   24.1011 O   0  0  0  0  0  0  0  0  0  0  0  0
    9.8185  -15.1037   19.0379 O   0  0  0  0  0  0  0  0  0  0  0  0
    9.5581  -17.1965   24.8006 N   0  0  0  0  0  0  0  0  0  0  0  0
    9.7912  -16.8885   26.2315 C   0  0  1  0  0  0  0  0  0  0  0  0
    8.4716  -16.6025   26.8862 C   0  0  0  0  0  0  0  0  0  0  0  0
    7.6316  -15.6419   26.1471 C   0  0  0  0  0  0  0  0  0  0  0  0
    6.6900  -15.9846   25.1613 C   0  0  0  0  0  0  0  0  0  0  0  0
    6.1293  -14.8704   24.6705 N   0  0  0  0  0  0  0  0  0  0  0  0
    6.6464  -13.7807   25.2788 C   0  0  0  0  0  0  0  0  0  0  0  0
    6.3773  -12.4361   25.1261 C   0  0  0  0  0  0  0  0  0  0  0  0
    7.0732  -11.5566   25.9273 C   0  0  0  0  0  0  0  0  0  0  0  0
    8.0075  -12.0114   26.8506 C   0  0  0  0  0  0  0  0  0  0  0  0
    8.2587  -13.3532   26.9840 C   0  0  0  0  0  0  0  0  0  0  0  0
    7.5742  -14.2574   26.1911 C   0  0  0  0  0  0  0  0  0  0  0  0
   10.6614  -17.8655   26.8551 C   0  0  0  0  0  0  0  0  0  0  0  0
   10.8946  -17.9413   28.0820 O   0  0  0  0  0  0  0  0  0  0  0  0
   12.4034  -20.9419   25.5820 C   0  0  0  0  0  0  0  0  0  0  0  0
   12.1239  -19.9238   26.6571 C   0  0  2  0  0  0  0  0  0  0  0  0
   11.3424  -18.8564   26.0539 N   0  0  0  0  0  0  0  0  0  0  0  0
   13.3667  -19.3448   27.2209 C   0  0  0  0  0  0  0  0  0  0  0  0
   13.7094  -18.1709   26.9259 O   0  0  0  0  0  0  0  0  0  0  0  0
   14.1923  -20.0577   28.0824 O   0  0  0  0  0  0  0  0  0  0  0  0
  2  1  1  1
  2  6  1  0
  2  3  1  0
  3  4  1  0
  4  5  2  0
  4  8  1  0
  6  7  2  0
  9 10  1  0
  9  6  1  0
 10 11  1  1
 12 11  1  0
 13 12  2  0
 14 13  1  0
 15 14  1  0
 15 20  2  0
 16 15  1  0
 17 16  2  0
 17 18  1  0
 18 19  2  0
 19 20  1  0
 20 12  1  0
 21 22  2  0
 21 10  1  0
 24 23  1  6
 24 26  1  0
 24 25  1  0
 25 21  1  0
 26 28  1  0
 27 26  2  0
M  END
$$$$
