DWA.pdb
     RDKit          3D

 28 29  0  0  1  0  0  0  0  0999 V2000
   10.7155  -17.6933   21.3542 N   0  0  0  0  0  0  0  0  0  0  0  0
   11.7629  -16.9477   21.9894 C   0  0  1  0  0  0  0  0  0  0  0  0
   12.1257  -15.8088   21.0555 C   0  0  0  0  0  0  0  0  0  0  0  0
   13.0424  -16.2906   20.0210 C   0  0  0  0  0  0  0  0  0  0  0  0
   12.9506  -15.8135   18.8605 O   0  0  0  0  0  0  0  0  0  0  0  0
   11.3426  -16.4151   23.3193 C   0  0  0  0  0  0  0  0  0  0  0  0
   12.0866  -15.6068   23.9362 O   0  0  0  0  0  0  0  0  0  0  0  0
   14.0196  -17.2515   20.2358 O   0  0  0  0  0  0  0  0  0  0  0  0
   10.1208  -16.7739   23.9494 N   0  0  0  0  0  0  0  0  0  0  0  0
    9.6458  -16.1012   25.1818 C   0  0  1  0  0  0  0  0  0  0  0  0
    8.1483  -16.1834   25.2315 C   0  0  0  0  0  0  0  0  0  0  0  0
    7.4644  -14.9994   24.6790 C   0  0  0  0  0  0  0  0  0  0  0  0
    7.0097  -14.8747   23.3548 C   0  0  0  0  0  0  0  0  0  0  0  0
    6.4669  -13.6617   23.1798 N   0  0  0  0  0  0  0  0  0  0  0  0
    6.5301  -12.9520   24.3274 C   0  0  0  0  0  0  0  0  0  0  0  0
    6.0940  -11.6808   24.6399 C   0  0  0  0  0  0  0  0  0  0  0  0
    6.2913  -11.2441   25.9322 C   0  0  0  0  0  0  0  0  0  0  0  0
    6.9055  -12.0559   26.8789 C   0  0  0  0  0  0  0  0  0  0  0  0
    7.3314  -13.3161   26.5445 C   0  0  0  0  0  0  0  0  0  0  0  0
    7.1461  -13.7786   25.2536 C   0  0  0  0  0  0  0  0  0  0  0  0
   10.3890  -16.5332   26.3486 C   0  0  0  0  0  0  0  0  0  0  0  0
   10.9732  -17.6337   26.4621 O   0  0  0  0  0  0  0  0  0  0  0  0
   11.4653  -14.8170   29.5134 C   0  0  0  0  0  0  0  0  0  0  0  0
   11.2929  -16.0501   28.6647 C   0  0  2  0  0  0  0  0  0  0  0  0
   10.5023  -15.6733   27.5041 N   0  0  0  0  0  0  0  0  0  0  0  0
   10.5907  -17.1373   29.3875 C   0  0  0  0  0  0  0  0  0  0  0  0
   11.1481  -17.7191   30.3535 O   0  0  0  0  0  0  0  0  0  0  0  0
    9.3118  -17.5546   29.0377 O   0  0  0  0  0  0  0  0  0  0  0  0
  2  1  1  6
  2  6  1  0
  2  3  1  0
  3  4  1  0
  4  5  2  0
  4  8  1  0
  6  7  2  0
  9 10  1  0
  9  6  1  0
 10 11  1  1
 12 11  1  0
 13 12  2  0
 14 13  1  0
 15 14  1  0
 15 20  2  0
 16 15  1  0
 17 16  2  0
 17 18  1  0
 18 19  2  0
 19 20  1  0
 20 12  1  0
 21 22  2  0
 21 10  1  0
 24 23  1  1
 24 26  1  0
 24 25  1  0
 25 21  1  0
 26 28  1  0
 27 26  2  0
M  END
$$$$
