DWA.pdb
     RDKit          3D

 28 29  0  0  1  0  0  0  0  0999 V2000
    9.7233  -18.2775   19.9570 N   0  0  0  0  0  0  0  0  0  0  0  0
   10.9327  -17.5161   20.0764 C   0  0  1  0  0  0  0  0  0  0  0  0
   11.0384  -16.6539   18.8329 C   0  0  0  0  0  0  0  0  0  0  0  0
   11.4815  -17.4702   17.7015 C   0  0  0  0  0  0  0  0  0  0  0  0
   11.4024  -18.7226   17.7906 O   0  0  0  0  0  0  0  0  0  0  0  0
   10.9376  -16.6632   21.3018 C   0  0  0  0  0  0  0  0  0  0  0  0
   11.9175  -15.9070   21.5372 O   0  0  0  0  0  0  0  0  0  0  0  0
   11.9902  -16.9496   16.5206 O   0  0  0  0  0  0  0  0  0  0  0  0
    9.8751  -16.6516   22.2450 N   0  0  0  0  0  0  0  0  0  0  0  0
    9.9284  -15.8301   23.4775 C   0  0  1  0  0  0  0  0  0  0  0  0
    8.6557  -15.0430   23.5898 C   0  0  0  0  0  0  0  0  0  0  0  0
    7.8969  -14.9473   22.3288 C   0  0  0  0  0  0  0  0  0  0  0  0
    6.8609  -15.8151   21.9423 C   0  0  0  0  0  0  0  0  0  0  0  0
    6.4132  -15.4658   20.7282 N   0  0  0  0  0  0  0  0  0  0  0  0
    7.0979  -14.3960   20.2683 C   0  0  0  0  0  0  0  0  0  0  0  0
    6.9884  -13.6774   19.0955 C   0  0  0  0  0  0  0  0  0  0  0  0
    7.8361  -12.6032   18.9302 C   0  0  0  0  0  0  0  0  0  0  0  0
    8.7623  -12.2619   19.9089 C   0  0  0  0  0  0  0  0  0  0  0  0
    8.8532  -12.9918   21.0666 C   0  0  0  0  0  0  0  0  0  0  0  0
    8.0143  -14.0755   21.2572 C   0  0  0  0  0  0  0  0  0  0  0  0
   10.3477  -16.6108   24.6242 C   0  0  0  0  0  0  0  0  0  0  0  0
   10.4834  -16.1664   25.7858 O   0  0  0  0  0  0  0  0  0  0  0  0
   10.7053  -20.2194   25.4011 C   0  0  0  0  0  0  0  0  0  0  0  0
   11.1809  -18.8015   25.5843 C   0  0  2  0  0  0  0  0  0  0  0  0
   10.6476  -18.0171   24.4824 N   0  0  0  0  0  0  0  0  0  0  0  0
   12.6597  -18.6975   25.5718 C   0  0  0  0  0  0  0  0  0  0  0  0
   13.2442  -18.0893   24.6386 O   0  0  0  0  0  0  0  0  0  0  0  0
   13.4505  -19.2559   26.5691 O   0  0  0  0  0  0  0  0  0  0  0  0
  2  1  1  6
  2  6  1  0
  2  3  1  0
  3  4  1  0
  4  5  2  0
  4  8  1  0
  6  7  2  0
  9 10  1  0
  9  6  1  0
 10 11  1  1
 12 11  1  0
 13 12  2  0
 14 13  1  0
 15 14  1  0
 15 20  2  0
 16 15  1  0
 17 16  2  0
 17 18  1  0
 18 19  2  0
 19 20  1  0
 20 12  1  0
 21 22  2  0
 21 10  1  0
 24 23  1  6
 24 26  1  0
 24 25  1  0
 25 21  1  0
 26 28  1  0
 27 26  2  0
M  END
$$$$
