RDP.pdb
     RDKit          3D

 27 27  0  0  1  0  0  0  0  0999 V2000
    9.4228  -15.3920   16.2031 N   0  0  0  0  0  0  0  0  0  0  0  0
    8.6923  -14.2028   15.9350 C   0  0  0  0  0  0  0  0  0  0  0  0
    8.3544  -13.9153   14.7247 N   0  0  0  0  0  0  0  0  0  0  0  0
    8.3207  -13.3135   16.9750 N   0  0  0  0  0  0  0  0  0  0  0  0
    8.3930  -13.6570   18.3848 C   0  0  0  0  0  0  0  0  0  0  0  0
    7.0787  -14.2378   18.8795 C   0  0  0  0  0  0  0  0  0  0  0  0
    6.9492  -14.0111   20.3640 C   0  0  0  0  0  0  0  0  0  0  0  0
    8.1478  -14.5917   21.1110 C   0  0  2  0  0  0  0  0  0  0  0  0
    8.7374  -15.6687   20.4039 N   0  0  0  0  0  0  0  0  0  0  0  0
    7.7096  -14.9028   22.4939 C   0  0  0  0  0  0  0  0  0  0  0  0
    7.0850  -13.9719   23.0911 O   0  0  0  0  0  0  0  0  0  0  0  0
    7.8581  -13.0421   14.5049 N   0  0  0  0  0  0  0  0  0  0  0  0
    7.9462  -16.1185   23.1267 C   0  0  1  0  0  0  0  0  0  0  0  0
    7.5516  -16.2805   24.5441 C   0  0  0  0  0  0  0  0  0  0  0  0
    7.4382  -17.8085   24.6501 C   0  0  0  0  0  0  0  0  0  0  0  0
    7.1847  -18.2076   26.0262 O   0  0  0  0  0  0  0  0  0  0  0  0
    6.6241  -17.3568   26.7866 C   0  0  0  0  0  0  0  0  0  0  0  0
    8.6008  -15.7277   25.4156 O   0  0  0  0  0  0  0  0  0  0  0  0
    9.8057  -16.1042   25.1716 O   0  0  0  0  0  0  0  0  0  0  0  0
    7.5008  -19.4361   26.5858 N   0  0  0  0  0  0  0  0  0  0  0  0
    8.4245  -14.8244   26.4846 C   0  0  0  0  0  0  0  0  0  0  0  0
    7.1194  -14.3419   26.9900 C   0  0  0  0  0  0  0  0  0  0  0  0
    7.3717  -13.1074   27.7748 C   0  0  0  0  0  0  0  0  0  0  0  0
    8.8361  -12.8210   27.5642 C   0  0  1  0  0  0  0  0  0  0  0  0
    9.3848  -14.2169   27.3718 C   0  0  0  0  0  0  0  0  0  0  0  0
    9.3559  -14.9325   28.6984 O   0  0  0  0  0  0  0  0  0  0  0  0
   10.2537  -14.6337   29.7053 O   0  0  0  0  0  0  0  0  0  0  0  0
  2  4  1  0
  2  1  1  0
  3  2  2  0
  5  4  1  0
  6  5  1  0
  7  6  1  0
  8  7  1  0
  8  9  1  6
 10 11  2  0
 10  8  1  0
 12 10  1  0
 13 12  1  0
 14 15  1  0
 13 14  1  1
 15 16  2  0
 17 20  1  0
 17 13  1  0
 18 17  2  0
 19 15  1  0
 20 21  1  0
 22 21  1  0
 23 24  1  0
 23 22  1  0
 24 20  1  0
 24 25  1  1
 25 26  1  0
 27 25  2  0
M  END
$$$$
