RDP.pdb
     RDKit          3D

 27 27  0  0  1  0  0  0  0  0999 V2000
    9.0598  -11.0777   19.2215 N   0  0  0  0  0  0  0  0  0  0  0  0
    8.4830  -12.3326   19.5566 C   0  0  0  0  0  0  0  0  0  0  0  0
    8.4464  -12.7149   20.7872 N   0  0  0  0  0  0  0  0  0  0  0  0
    7.9402  -13.1856   18.5624 N   0  0  0  0  0  0  0  0  0  0  0  0
    7.9889  -14.6355   18.6394 C   0  0  0  0  0  0  0  0  0  0  0  0
    7.2164  -15.1508   19.8423 C   0  0  0  0  0  0  0  0  0  0  0  0
    8.1607  -15.8309   20.8001 C   0  0  0  0  0  0  0  0  0  0  0  0
    7.5410  -17.1081   21.3624 C   0  0  2  0  0  0  0  0  0  0  0  0
    6.3594  -17.4695   20.6689 N   0  0  0  0  0  0  0  0  0  0  0  0
    7.3889  -16.9285   22.8273 C   0  0  0  0  0  0  0  0  0  0  0  0
    6.3922  -16.2302   23.1911 O   0  0  0  0  0  0  0  0  0  0  0  0
    8.0925  -13.6454   21.0440 N   0  0  0  0  0  0  0  0  0  0  0  0
    8.2561  -17.4724   23.7688 C   0  0  2  0  0  0  0  0  0  0  0  0
    7.9900  -17.2461   25.2072 C   0  0  0  0  0  0  0  0  0  0  0  0
    7.7250  -18.6794   25.6913 C   0  0  0  0  0  0  0  0  0  0  0  0
    7.6784  -18.7272   27.1449 O   0  0  0  0  0  0  0  0  0  0  0  0
    8.7824  -18.8676   27.7597 C   0  0  0  0  0  0  0  0  0  0  0  0
    9.1742  -16.6434   25.8401 O   0  0  0  0  0  0  0  0  0  0  0  0
   10.3174  -16.9957   25.3691 O   0  0  0  0  0  0  0  0  0  0  0  0
    6.5350  -18.6337   27.9234 N   0  0  0  0  0  0  0  0  0  0  0  0
    9.1864  -15.7163   26.9032 C   0  0  0  0  0  0  0  0  0  0  0  0
    7.9980  -15.2791   27.6702 C   0  0  0  0  0  0  0  0  0  0  0  0
    8.3495  -14.0104   28.3560 C   0  0  0  0  0  0  0  0  0  0  0  0
    9.7169  -13.6633   27.8263 C   0  0  1  0  0  0  0  0  0  0  0  0
   10.2828  -15.0376   27.5478 C   0  0  0  0  0  0  0  0  0  0  0  0
   10.5784  -15.7120   28.8633 O   0  0  0  0  0  0  0  0  0  0  0  0
   11.6501  -15.3342   29.6493 O   0  0  0  0  0  0  0  0  0  0  0  0
  2  4  1  0
  2  1  1  0
  3  2  2  0
  5  4  1  0
  6  5  1  0
  7  6  1  0
  8  7  1  0
  8  9  1  6
 10 11  2  0
 10  8  1  0
 12 10  1  0
 13 12  1  0
 14 15  1  0
 13 14  1  6
 15 16  2  0
 17 20  1  0
 17 13  1  0
 18 17  2  0
 19 15  1  0
 20 21  1  0
 22 21  1  0
 23 24  1  0
 23 22  1  0
 24 20  1  0
 24 25  1  1
 25 26  1  0
 27 25  2  0
M  END
$$$$
