RDP.pdb
     RDKit          3D

 27 27  0  0  1  0  0  0  0  0999 V2000
    8.5190  -12.3928   17.1247 N   0  0  0  0  0  0  0  0  0  0  0  0
    8.5227  -13.6853   16.5338 C   0  0  0  0  0  0  0  0  0  0  0  0
    8.2447  -13.8205   15.2823 N   0  0  0  0  0  0  0  0  0  0  0  0
    8.8275  -14.8438   17.2924 N   0  0  0  0  0  0  0  0  0  0  0  0
    8.9382  -14.8448   18.7410 C   0  0  0  0  0  0  0  0  0  0  0  0
    8.1529  -13.6981   19.3555 C   0  0  0  0  0  0  0  0  0  0  0  0
    7.0680  -14.2450   20.2474 C   0  0  0  0  0  0  0  0  0  0  0  0
    7.3887  -15.6727   20.6838 C   0  0  2  0  0  0  0  0  0  0  0  0
    6.7328  -16.6311   19.8721 N   0  0  0  0  0  0  0  0  0  0  0  0
    7.1103  -15.7732   22.1376 C   0  0  0  0  0  0  0  0  0  0  0  0
    5.9583  -15.3804   22.5012 O   0  0  0  0  0  0  0  0  0  0  0  0
    8.3190  -14.7345   14.8174 N   0  0  0  0  0  0  0  0  0  0  0  0
    8.0212  -16.2597   23.0691 C   0  0  1  0  0  0  0  0  0  0  0  0
    7.6593  -16.2456   24.5043 C   0  0  0  0  0  0  0  0  0  0  0  0
    7.7053  -17.7439   24.8390 C   0  0  0  0  0  0  0  0  0  0  0  0
    6.4516  -18.3871   24.4760 O   0  0  0  0  0  0  0  0  0  0  0  0
    5.3755  -17.7987   24.8110 C   0  0  0  0  0  0  0  0  0  0  0  0
    8.6543  -15.4653   25.2575 O   0  0  0  0  0  0  0  0  0  0  0  0
    9.8769  -15.5745   24.8750 O   0  0  0  0  0  0  0  0  0  0  0  0
    6.3234  -19.5883   23.7957 N   0  0  0  0  0  0  0  0  0  0  0  0
    8.4071  -14.6066   26.3489 C   0  0  0  0  0  0  0  0  0  0  0  0
    7.0754  -14.3261   26.9318 C   0  0  0  0  0  0  0  0  0  0  0  0
    7.1869  -13.0742   27.7216 C   0  0  0  0  0  0  0  0  0  0  0  0
    8.5793  -12.5731   27.4368 C   0  0  1  0  0  0  0  0  0  0  0  0
    9.3157  -13.8710   27.1926 C   0  0  0  0  0  0  0  0  0  0  0  0
    9.4663  -14.5936   28.5070 O   0  0  0  0  0  0  0  0  0  0  0  0
   10.4231  -14.2255   29.4334 O   0  0  0  0  0  0  0  0  0  0  0  0
  2  4  1  0
  2  1  1  0
  3  2  2  0
  5  4  1  0
  6  5  1  0
  7  6  1  0
  8  7  1  0
  8  9  1  6
 10 11  2  0
 10  8  1  0
 12 10  1  0
 13 12  1  0
 14 15  1  0
 13 14  1  1
 15 16  2  0
 17 20  1  0
 17 13  1  0
 18 17  2  0
 19 15  1  0
 20 21  1  0
 22 21  1  0
 23 24  1  0
 23 22  1  0
 24 20  1  0
 24 25  1  1
 25 26  1  0
 27 25  2  0
M  END
$$$$
