RDP.pdb
     RDKit          3D

 27 27  0  0  1  0  0  0  0  0999 V2000
    9.0508  -15.2666   16.6611 N   0  0  0  0  0  0  0  0  0  0  0  0
    8.4796  -14.0547   16.1870 C   0  0  0  0  0  0  0  0  0  0  0  0
    8.1181  -13.9541   14.9538 N   0  0  0  0  0  0  0  0  0  0  0  0
    8.2944  -12.9402   17.0438 N   0  0  0  0  0  0  0  0  0  0  0  0
    8.5465  -12.9805   18.4740 C   0  0  0  0  0  0  0  0  0  0  0  0
    7.6276  -13.9716   19.1688 C   0  0  0  0  0  0  0  0  0  0  0  0
    7.6908  -13.7643   20.6604 C   0  0  0  0  0  0  0  0  0  0  0  0
    8.7734  -14.6398   21.2873 C   0  0  2  0  0  0  0  0  0  0  0  0
    9.0231  -15.8016   20.5158 N   0  0  0  0  0  0  0  0  0  0  0  0
    8.3933  -14.8843   22.7005 C   0  0  0  0  0  0  0  0  0  0  0  0
    8.0464  -13.8547   23.3584 O   0  0  0  0  0  0  0  0  0  0  0  0
    7.8236  -13.0518   14.5585 N   0  0  0  0  0  0  0  0  0  0  0  0
    8.4021  -16.1396   23.2991 C   0  0  1  0  0  0  0  0  0  0  0  0
    8.0636  -16.2539   24.7356 C   0  0  0  0  0  0  0  0  0  0  0  0
    7.5623  -17.7037   24.8102 C   0  0  0  0  0  0  0  0  0  0  0  0
    6.3086  -17.8487   24.0860 O   0  0  0  0  0  0  0  0  0  0  0  0
    5.3760  -17.0307   24.3645 C   0  0  0  0  0  0  0  0  0  0  0  0
    9.2703  -16.0284   25.5473 O   0  0  0  0  0  0  0  0  0  0  0  0
   10.3821  -16.4365   25.0469 O   0  0  0  0  0  0  0  0  0  0  0  0
    6.0374  -18.8019   23.1165 N   0  0  0  0  0  0  0  0  0  0  0  0
    9.3362  -15.4067   26.8118 C   0  0  0  0  0  0  0  0  0  0  0  0
    8.1689  -14.9958   27.6245 C   0  0  0  0  0  0  0  0  0  0  0  0
    8.6447  -14.0059   28.6232 C   0  0  0  0  0  0  0  0  0  0  0  0
   10.0816  -13.7530   28.2463 C   0  0  1  0  0  0  0  0  0  0  0  0
   10.4679  -15.0856   27.6452 C   0  0  0  0  0  0  0  0  0  0  0  0
   10.5711  -16.1019   28.7539 O   0  0  0  0  0  0  0  0  0  0  0  0
   11.6621  -16.1459   29.6005 O   0  0  0  0  0  0  0  0  0  0  0  0
  2  4  1  0
  2  1  1  0
  3  2  2  0
  5  4  1  0
  6  5  1  0
  7  6  1  0
  8  7  1  0
  8  9  1  6
 10 11  2  0
 10  8  1  0
 12 10  1  0
 13 12  1  0
 14 15  1  0
 13 14  1  1
 15 16  2  0
 17 20  1  0
 17 13  1  0
 18 17  2  0
 19 15  1  0
 20 21  1  0
 22 21  1  0
 23 24  1  0
 23 22  1  0
 24 20  1  0
 24 25  1  1
 25 26  1  0
 27 25  2  0
M  END
$$$$
