RDP.pdb
     RDKit          3D

 27 27  0  0  1  0  0  0  0  0999 V2000
   10.5768  -13.0858   18.9209 N   0  0  0  0  0  0  0  0  0  0  0  0
    9.3379  -12.3941   19.0002 C   0  0  0  0  0  0  0  0  0  0  0  0
    9.2802  -11.2435   19.5786 N   0  0  0  0  0  0  0  0  0  0  0  0
    8.1495  -12.9415   18.4537 N   0  0  0  0  0  0  0  0  0  0  0  0
    8.1100  -14.1954   17.7209 C   0  0  0  0  0  0  0  0  0  0  0  0
    8.4785  -15.3685   18.6138 C   0  0  0  0  0  0  0  0  0  0  0  0
    7.4441  -15.5267   19.6986 C   0  0  0  0  0  0  0  0  0  0  0  0
    7.7875  -16.7006   20.6126 C   0  0  2  0  0  0  0  0  0  0  0  0
    7.3286  -17.9320   20.0830 N   0  0  0  0  0  0  0  0  0  0  0  0
    7.2966  -16.3711   21.9734 C   0  0  0  0  0  0  0  0  0  0  0  0
    6.1155  -15.9072   22.0301 O   0  0  0  0  0  0  0  0  0  0  0  0
    8.4033  -10.7077   19.6090 N   0  0  0  0  0  0  0  0  0  0  0  0
    8.0471  -16.5455   23.1312 C   0  0  1  0  0  0  0  0  0  0  0  0
    7.4266  -16.2498   24.4421 C   0  0  0  0  0  0  0  0  0  0  0  0
    7.3178  -17.6578   25.0459 C   0  0  0  0  0  0  0  0  0  0  0  0
    6.3306  -18.4476   24.3256 O   0  0  0  0  0  0  0  0  0  0  0  0
    6.7071  -19.5698   23.8615 C   0  0  0  0  0  0  0  0  0  0  0  0
    8.3102  -15.3660   25.2193 O   0  0  0  0  0  0  0  0  0  0  0  0
    9.5581  -15.3880   24.9106 O   0  0  0  0  0  0  0  0  0  0  0  0
    5.0117  -18.0859   24.0980 N   0  0  0  0  0  0  0  0  0  0  0  0
    7.9316  -14.4937   26.2612 C   0  0  0  0  0  0  0  0  0  0  0  0
    6.5624  -14.3578   26.8076 C   0  0  0  0  0  0  0  0  0  0  0  0
    6.4963  -13.0649   27.5339 C   0  0  0  0  0  0  0  0  0  0  0  0
    7.8198  -12.4042   27.2461 C   0  0  1  0  0  0  0  0  0  0  0  0
    8.7203  -13.6076   27.0805 C   0  0  0  0  0  0  0  0  0  0  0  0
    8.9321  -14.2400   28.4325 O   0  0  0  0  0  0  0  0  0  0  0  0
    9.7944  -13.6936   29.3636 O   0  0  0  0  0  0  0  0  0  0  0  0
  2  4  1  0
  2  1  1  0
  3  2  2  0
  5  4  1  0
  6  5  1  0
  7  6  1  0
  8  7  1  0
  8  9  1  6
 10 11  2  0
 10  8  1  0
 12 10  1  0
 13 12  1  0
 14 15  1  0
 13 14  1  1
 15 16  2  0
 17 20  1  0
 17 13  1  0
 18 17  2  0
 19 15  1  0
 20 21  1  0
 22 21  1  0
 23 24  1  0
 23 22  1  0
 24 20  1  0
 24 25  1  1
 25 26  1  0
 27 25  2  0
M  END
$$$$
