RDP.pdb
     RDKit          3D

 27 27  0  0  1  0  0  0  0  0999 V2000
    9.9072  -13.2963   16.6495 N   0  0  0  0  0  0  0  0  0  0  0  0
    8.8274  -14.2015   16.4645 C   0  0  0  0  0  0  0  0  0  0  0  0
    8.9374  -15.1689   15.6196 N   0  0  0  0  0  0  0  0  0  0  0  0
    7.6180  -14.0679   17.1926 N   0  0  0  0  0  0  0  0  0  0  0  0
    7.3971  -13.0389   18.1940 C   0  0  0  0  0  0  0  0  0  0  0  0
    8.0051  -13.4299   19.5308 C   0  0  0  0  0  0  0  0  0  0  0  0
    7.0485  -14.3180   20.2844 C   0  0  0  0  0  0  0  0  0  0  0  0
    7.7699  -15.5373   20.8540 C   0  0  2  0  0  0  0  0  0  0  0  0
    7.4787  -16.7125   20.1181 N   0  0  0  0  0  0  0  0  0  0  0  0
    7.4666  -15.6037   22.3048 C   0  0  0  0  0  0  0  0  0  0  0  0
    6.6501  -14.7296   22.7323 O   0  0  0  0  0  0  0  0  0  0  0  0
    8.2042  -15.8843   15.5328 N   0  0  0  0  0  0  0  0  0  0  0  0
    8.0170  -16.5439   23.1692 C   0  0  1  0  0  0  0  0  0  0  0  0
    7.6364  -16.5160   24.5993 C   0  0  0  0  0  0  0  0  0  0  0  0
    7.6616  -18.0123   24.9448 C   0  0  0  0  0  0  0  0  0  0  0  0
    7.4731  -18.2098   26.3740 O   0  0  0  0  0  0  0  0  0  0  0  0
    8.5148  -18.2304   27.1025 C   0  0  0  0  0  0  0  0  0  0  0  0
    8.6298  -15.7413   25.3603 O   0  0  0  0  0  0  0  0  0  0  0  0
    9.8640  -15.9405   25.0602 O   0  0  0  0  0  0  0  0  0  0  0  0
    6.2559  -18.3788   27.0159 N   0  0  0  0  0  0  0  0  0  0  0  0
    8.3703  -14.7998   26.3781 C   0  0  0  0  0  0  0  0  0  0  0  0
    7.0267  -14.4265   26.8754 C   0  0  0  0  0  0  0  0  0  0  0  0
    7.1560  -13.1284   27.5836 C   0  0  0  0  0  0  0  0  0  0  0  0
    8.5803  -12.7043   27.3339 C   0  0  1  0  0  0  0  0  0  0  0  0
    9.2702  -14.0445   27.2136 C   0  0  0  0  0  0  0  0  0  0  0  0
    9.3291  -14.6797   28.5795 O   0  0  0  0  0  0  0  0  0  0  0  0
   10.2246  -14.2535   29.5415 O   0  0  0  0  0  0  0  0  0  0  0  0
  2  4  1  0
  2  1  1  0
  3  2  2  0
  5  4  1  0
  6  5  1  0
  7  6  1  0
  8  7  1  0
  8  9  1  6
 10 11  2  0
 10  8  1  0
 12 10  1  0
 13 12  1  0
 14 15  1  0
 13 14  1  6
 15 16  2  0
 17 20  1  0
 17 13  1  0
 18 17  2  0
 19 15  1  0
 20 21  1  0
 22 21  1  0
 23 24  1  0
 23 22  1  0
 24 20  1  0
 24 25  1  1
 25 26  1  0
 27 25  2  0
M  END
$$$$
