RDP.pdb
     RDKit          3D

 27 27  0  0  1  0  0  0  0  0999 V2000
    8.1017  -13.6459   16.0003 N   0  0  0  0  0  0  0  0  0  0  0  0
    8.8501  -14.1960   17.0760 C   0  0  0  0  0  0  0  0  0  0  0  0
    9.1531  -15.4489   17.0734 N   0  0  0  0  0  0  0  0  0  0  0  0
    9.2776  -13.3945   18.1647 N   0  0  0  0  0  0  0  0  0  0  0  0
    8.4348  -13.0799   19.3055 C   0  0  0  0  0  0  0  0  0  0  0  0
    7.4193  -14.1809   19.5619 C   0  0  0  0  0  0  0  0  0  0  0  0
    7.5484  -14.6715   20.9812 C   0  0  0  0  0  0  0  0  0  0  0  0
    8.1373  -16.0798   21.0199 C   0  0  2  0  0  0  0  0  0  0  0  0
    7.3031  -17.0175   20.3623 N   0  0  0  0  0  0  0  0  0  0  0  0
    8.4582  -16.3957   22.4336 C   0  0  0  0  0  0  0  0  0  0  0  0
    7.4565  -16.5848   23.1915 O   0  0  0  0  0  0  0  0  0  0  0  0
    9.7836  -15.8444   17.7827 N   0  0  0  0  0  0  0  0  0  0  0  0
    9.7532  -16.4886   22.9321 C   0  0  2  0  0  0  0  0  0  0  0  0
    9.9528  -16.8564   24.3519 C   0  0  0  0  0  0  0  0  0  0  0  0
   11.1627  -17.7969   24.2499 C   0  0  0  0  0  0  0  0  0  0  0  0
   10.7511  -19.1090   23.7742 O   0  0  0  0  0  0  0  0  0  0  0  0
   11.6116  -19.7953   23.1379 C   0  0  0  0  0  0  0  0  0  0  0  0
   10.2391  -15.6472   25.1404 O   0  0  0  0  0  0  0  0  0  0  0  0
   11.2389  -14.9360   24.7561 O   0  0  0  0  0  0  0  0  0  0  0  0
    9.5007  -19.6808   23.9521 N   0  0  0  0  0  0  0  0  0  0  0  0
    9.5291  -15.1836   26.2677 C   0  0  0  0  0  0  0  0  0  0  0  0
    8.3253  -15.8249   26.8432 C   0  0  0  0  0  0  0  0  0  0  0  0
    7.6439  -14.8167   27.6934 C   0  0  0  0  0  0  0  0  0  0  0  0
    8.4118  -13.5424   27.4538 C   0  0  1  0  0  0  0  0  0  0  0  0
    9.7934  -14.0817   27.1590 C   0  0  0  0  0  0  0  0  0  0  0  0
   10.3865  -14.6116   28.4396 O   0  0  0  0  0  0  0  0  0  0  0  0
   10.9803  -13.7761   29.3661 O   0  0  0  0  0  0  0  0  0  0  0  0
  2  4  1  0
  2  1  1  0
  3  2  2  0
  5  4  1  0
  6  5  1  0
  7  6  1  0
  8  7  1  0
  8  9  1  1
 10 11  2  0
 10  8  1  0
 12 10  1  0
 13 12  1  0
 14 15  1  0
 13 14  1  6
 15 16  2  0
 17 20  1  0
 17 13  1  0
 18 17  2  0
 19 15  1  0
 20 21  1  0
 22 21  1  0
 23 24  1  0
 23 22  1  0
 24 20  1  0
 24 25  1  1
 25 26  1  0
 27 25  2  0
M  END
$$$$
