RDP.pdb
     RDKit          3D

 27 27  0  0  1  0  0  0  0  0999 V2000
    8.6879  -13.8931   17.9549 N   0  0  0  0  0  0  0  0  0  0  0  0
    8.4396  -12.8594   18.8980 C   0  0  0  0  0  0  0  0  0  0  0  0
    8.6816  -11.6325   18.5852 N   0  0  0  0  0  0  0  0  0  0  0  0
    7.9266  -13.1443   20.1888 N   0  0  0  0  0  0  0  0  0  0  0  0
    8.4694  -14.1766   21.0551 C   0  0  0  0  0  0  0  0  0  0  0  0
    8.1602  -15.5650   20.5202 C   0  0  0  0  0  0  0  0  0  0  0  0
    8.7612  -16.6059   21.4297 C   0  0  0  0  0  0  0  0  0  0  0  0
    7.6757  -17.4908   22.0380 C   0  0  2  0  0  0  0  0  0  0  0  0
    6.4404  -17.3512   21.3582 N   0  0  0  0  0  0  0  0  0  0  0  0
    7.6342  -17.2161   23.4954 C   0  0  0  0  0  0  0  0  0  0  0  0
    7.0033  -16.1674   23.8355 O   0  0  0  0  0  0  0  0  0  0  0  0
    8.4333  -10.8634   19.2207 N   0  0  0  0  0  0  0  0  0  0  0  0
    8.2313  -18.0276   24.4542 C   0  0  1  0  0  0  0  0  0  0  0  0
    8.2023  -17.6059   25.8727 C   0  0  0  0  0  0  0  0  0  0  0  0
    8.2531  -18.9634   26.5893 C   0  0  0  0  0  0  0  0  0  0  0  0
    6.9631  -19.2745   27.1862 O   0  0  0  0  0  0  0  0  0  0  0  0
    6.4201  -18.3760   27.9033 C   0  0  0  0  0  0  0  0  0  0  0  0
    9.3760  -16.7668   26.1631 O   0  0  0  0  0  0  0  0  0  0  0  0
   10.3864  -16.9041   25.3801 O   0  0  0  0  0  0  0  0  0  0  0  0
    6.2698  -20.4667   27.0438 N   0  0  0  0  0  0  0  0  0  0  0  0
    9.5063  -15.8246   27.2048 C   0  0  0  0  0  0  0  0  0  0  0  0
    8.4267  -15.4233   28.1348 C   0  0  0  0  0  0  0  0  0  0  0  0
    8.8228  -14.1318   28.7503 C   0  0  0  0  0  0  0  0  0  0  0  0
   10.0821  -13.7391   28.0218 C   0  0  1  0  0  0  0  0  0  0  0  0
   10.6568  -15.0939   27.6748 C   0  0  0  0  0  0  0  0  0  0  0  0
   11.1700  -15.7369   28.9381 O   0  0  0  0  0  0  0  0  0  0  0  0
   12.3501  -15.3324   29.5321 O   0  0  0  0  0  0  0  0  0  0  0  0
  2  4  1  0
  2  1  1  0
  3  2  2  0
  5  4  1  0
  6  5  1  0
  7  6  1  0
  8  7  1  0
  8  9  1  6
 10 11  2  0
 10  8  1  0
 12 10  1  0
 13 12  1  0
 14 15  1  0
 13 14  1  1
 15 16  2  0
 17 20  1  0
 17 13  1  0
 18 17  2  0
 19 15  1  0
 20 21  1  0
 22 21  1  0
 23 24  1  0
 23 22  1  0
 24 20  1  0
 24 25  1  1
 25 26  1  0
 27 25  2  0
M  END
$$$$
