YPD.pdb
     RDKit          3D

 28 29  0  0  1  0  0  0  0  0999 V2000
   18.8951  -22.5302  -23.8030 O   0  0  0  0  0  0  0  0  0  0  0  0
   19.1275  -22.2517  -22.4405 C   0  0  0  0  0  0  0  0  0  0  0  0
   18.9270  -23.2144  -21.4762 C   0  0  0  0  0  0  0  0  0  0  0  0
   19.1595  -22.9180  -20.1630 C   0  0  0  0  0  0  0  0  0  0  0  0
   19.5951  -21.6745  -19.7431 C   0  0  0  0  0  0  0  0  0  0  0  0
   19.8193  -21.4723  -18.2926 C   0  0  0  0  0  0  0  0  0  0  0  0
   21.3009  -21.5869  -18.0182 C   0  0  2  0  0  0  0  0  0  0  0  0
   21.7590  -22.9127  -18.2391 N   0  0  0  0  0  0  0  0  0  0  0  0
   21.7008  -21.0159  -16.7173 C   0  0  0  0  0  0  0  0  0  0  0  0
   22.0846  -21.8655  -15.8460 O   0  0  0  0  0  0  0  0  0  0  0  0
   19.7948  -20.7146  -20.7078 C   0  0  0  0  0  0  0  0  0  0  0  0
   19.5612  -21.0103  -22.0328 C   0  0  0  0  0  0  0  0  0  0  0  0
   21.6947  -19.6526  -16.3640 N   0  0  0  0  0  0  0  0  0  0  0  0
   21.2263  -18.5010  -17.0985 C   0  0  0  0  0  0  0  0  0  0  0  0
   21.9321  -17.2978  -16.4978 C   0  0  0  0  0  0  0  0  0  0  0  0
   22.9752  -17.9273  -15.5642 C   0  0  0  0  0  0  0  0  0  0  0  0
   22.1897  -19.1346  -15.1033 C   0  0  1  0  0  0  0  0  0  0  0  0
   20.9856  -18.7302  -14.2968 C   0  0  0  0  0  0  0  0  0  0  0  0
   21.1114  -18.1824  -13.1643 O   0  0  0  0  0  0  0  0  0  0  0  0
   19.6861  -18.9613  -14.8028 N   0  0  0  0  0  0  0  0  0  0  0  0
   18.5371  -18.5451  -13.9813 C   0  0  1  0  0  0  0  0  0  0  0  0
   17.6867  -17.5704  -14.7691 C   0  0  0  0  0  0  0  0  0  0  0  0
   16.3723  -17.2963  -14.1884 C   0  0  0  0  0  0  0  0  0  0  0  0
   16.2675  -16.8345  -12.9977 O   0  0  0  0  0  0  0  0  0  0  0  0
   17.7961  -19.7744  -13.6034 C   0  0  0  0  0  0  0  0  0  0  0  0
   17.8848  -20.9776  -14.2729 O   0  0  0  0  0  0  0  0  0  0  0  0
   15.2222  -17.5296  -14.9034 O   0  0  0  0  0  0  0  0  0  0  0  0
   17.0332  -19.7290  -12.6084 O   0  0  0  0  0  0  0  0  0  0  0  0
  2 12  2  0
  2  1  1  0
  3  2  1  0
  4  5  1  0
  4  3  2  0
  5 11  2  0
  6  7  1  0
  6  5  1  0
  7  8  1  1
  9  7  1  0
  9 13  1  0
 10  9  2  0
 11 12  1  0
 13 14  1  0
 14 15  1  0
 16 15  1  0
 17 13  1  0
 17 16  1  0
 18 19  2  0
 17 18  1  1
 20 18  1  0
 21 20  1  0
 21 25  1  0
 21 22  1  6
 23 22  1  0
 23 24  2  0
 25 26  1  0
 27 23  1  0
 28 25  2  0
M  END
$$$$
