YPD.pdb
     RDKit          3D

 28 29  0  0  1  0  0  0  0  0999 V2000
   20.4693  -28.3798  -10.5930 O   0  0  0  0  0  0  0  0  0  0  0  0
   21.1136  -29.3156   -9.7581 C   0  0  0  0  0  0  0  0  0  0  0  0
   20.3871  -30.1987   -8.9906 C   0  0  0  0  0  0  0  0  0  0  0  0
   21.0365  -31.0952   -8.1900 C   0  0  0  0  0  0  0  0  0  0  0  0
   22.4154  -31.1628   -8.1087 C   0  0  0  0  0  0  0  0  0  0  0  0
   23.0073  -32.1812   -7.2101 C   0  0  0  0  0  0  0  0  0  0  0  0
   23.1678  -33.4676   -7.9866 C   0  0  2  0  0  0  0  0  0  0  0  0
   21.9039  -34.0251   -8.3157 N   0  0  0  0  0  0  0  0  0  0  0  0
   24.1047  -34.4183   -7.3567 C   0  0  0  0  0  0  0  0  0  0  0  0
   23.5573  -35.3834   -6.7264 O   0  0  0  0  0  0  0  0  0  0  0  0
   23.1390  -30.2800   -8.8763 C   0  0  0  0  0  0  0  0  0  0  0  0
   22.4871  -29.3749   -9.6845 C   0  0  0  0  0  0  0  0  0  0  0  0
   25.5112  -34.3536   -7.3893 N   0  0  0  0  0  0  0  0  0  0  0  0
   26.3858  -33.3590   -7.9646 C   0  0  0  0  0  0  0  0  0  0  0  0
   27.7264  -34.0417   -8.1731 C   0  0  0  0  0  0  0  0  0  0  0  0
   27.4208  -35.5190   -7.8903 C   0  0  0  0  0  0  0  0  0  0  0  0
   26.3871  -35.3475   -6.7999 C   0  0  1  0  0  0  0  0  0  0  0  0
   26.9867  -34.7232   -5.5692 C   0  0  0  0  0  0  0  0  0  0  0  0
   26.7690  -33.5121   -5.2783 O   0  0  0  0  0  0  0  0  0  0  0  0
   27.8092  -35.4932   -4.7153 N   0  0  0  0  0  0  0  0  0  0  0  0
   27.5870  -35.3944   -3.2631 C   0  0  1  0  0  0  0  0  0  0  0  0
   26.1500  -35.7577   -2.9518 C   0  0  0  0  0  0  0  0  0  0  0  0
   25.7384  -35.5003   -1.5718 C   0  0  0  0  0  0  0  0  0  0  0  0
   26.4369  -34.7400   -0.8127 O   0  0  0  0  0  0  0  0  0  0  0  0
   28.5611  -36.3005   -2.6047 C   0  0  0  0  0  0  0  0  0  0  0  0
   29.2907  -35.9786   -1.4788 O   0  0  0  0  0  0  0  0  0  0  0  0
   24.5975  -36.0682   -1.0578 O   0  0  0  0  0  0  0  0  0  0  0  0
   28.7423  -37.4404   -3.0966 O   0  0  0  0  0  0  0  0  0  0  0  0
  2 12  2  0
  2  1  1  0
  3  2  1  0
  4  5  1  0
  4  3  2  0
  5 11  2  0
  6  7  1  0
  6  5  1  0
  7  8  1  1
  9  7  1  0
  9 13  1  0
 10  9  2  0
 11 12  1  0
 13 14  1  0
 14 15  1  0
 16 15  1  0
 17 13  1  0
 17 16  1  0
 18 19  2  0
 17 18  1  1
 20 18  1  0
 21 20  1  0
 21 25  1  0
 21 22  1  6
 23 22  1  0
 23 24  2  0
 25 26  1  0
 27 23  1  0
 28 25  2  0
M  END
$$$$
