YPD.pdb
     RDKit          3D

 28 29  0  0  1  0  0  0  0  0999 V2000
   22.9286  -20.9692   -7.5685 O   0  0  0  0  0  0  0  0  0  0  0  0
   23.3166  -21.1066   -8.9170 C   0  0  0  0  0  0  0  0  0  0  0  0
   24.6125  -20.8568   -9.3106 C   0  0  0  0  0  0  0  0  0  0  0  0
   24.9618  -20.9973  -10.6238 C   0  0  0  0  0  0  0  0  0  0  0  0
   24.0618  -21.3858  -11.5992 C   0  0  0  0  0  0  0  0  0  0  0  0
   24.5580  -21.5104  -12.9897 C   0  0  0  0  0  0  0  0  0  0  0  0
   24.3050  -20.2039  -13.7056 C   0  0  2  0  0  0  0  0  0  0  0  0
   22.9278  -20.0515  -14.0163 N   0  0  0  0  0  0  0  0  0  0  0  0
   25.2130  -19.9769  -14.8469 C   0  0  0  0  0  0  0  0  0  0  0  0
   24.6369  -19.7535  -15.9633 O   0  0  0  0  0  0  0  0  0  0  0  0
   22.7681  -21.6350  -11.2039 C   0  0  0  0  0  0  0  0  0  0  0  0
   22.4128  -21.4941   -9.8805 C   0  0  0  0  0  0  0  0  0  0  0  0
   26.6209  -19.9862  -14.8114 N   0  0  0  0  0  0  0  0  0  0  0  0
   27.5244  -20.3461  -13.7440 C   0  0  0  0  0  0  0  0  0  0  0  0
   28.8497  -19.6776  -14.0656 C   0  0  0  0  0  0  0  0  0  0  0  0
   28.5057  -18.7544  -15.2424 C   0  0  0  0  0  0  0  0  0  0  0  0
   27.4673  -19.6136  -15.9282 C   0  0  1  0  0  0  0  0  0  0  0  0
   28.0714  -20.8853  -16.4589 C   0  0  0  0  0  0  0  0  0  0  0  0
   28.0151  -21.9614  -15.7975 O   0  0  0  0  0  0  0  0  0  0  0  0
   28.7157  -20.8903  -17.7171 N   0  0  0  0  0  0  0  0  0  0  0  0
   28.3508  -21.9431  -18.6797 C   0  0  1  0  0  0  0  0  0  0  0  0
   26.8628  -21.8750  -18.9542 C   0  0  0  0  0  0  0  0  0  0  0  0
   26.3752  -22.8484  -19.9312 C   0  0  0  0  0  0  0  0  0  0  0  0
   26.3434  -22.5613  -21.1797 O   0  0  0  0  0  0  0  0  0  0  0  0
   29.1676  -21.7280  -19.9003 C   0  0  0  0  0  0  0  0  0  0  0  0
   29.6617  -22.7391  -20.6985 O   0  0  0  0  0  0  0  0  0  0  0  0
   25.9387  -24.0893  -19.5339 O   0  0  0  0  0  0  0  0  0  0  0  0
   29.4339  -20.5499  -20.2398 O   0  0  0  0  0  0  0  0  0  0  0  0
  2 12  2  0
  2  1  1  0
  3  2  1  0
  4  5  1  0
  4  3  2  0
  5 11  2  0
  6  7  1  0
  6  5  1  0
  7  8  1  6
  9  7  1  0
  9 13  1  0
 10  9  2  0
 11 12  1  0
 13 14  1  0
 14 15  1  0
 16 15  1  0
 17 13  1  0
 17 16  1  0
 18 19  2  0
 17 18  1  1
 20 18  1  0
 21 20  1  0
 21 25  1  0
 21 22  1  6
 23 22  1  0
 23 24  2  0
 25 26  1  0
 27 23  1  0
 28 25  2  0
M  END
$$$$
