YPD.pdb
     RDKit          3D

 28 29  0  0  1  0  0  0  0  0999 V2000
   19.2071  -23.5970   -7.2506 O   0  0  0  0  0  0  0  0  0  0  0  0
   19.9028  -22.8677   -8.2365 C   0  0  0  0  0  0  0  0  0  0  0  0
   19.9443  -23.3027   -9.5425 C   0  0  0  0  0  0  0  0  0  0  0  0
   20.6259  -22.5770  -10.4781 C   0  0  0  0  0  0  0  0  0  0  0  0
   21.2905  -21.4029  -10.1746 C   0  0  0  0  0  0  0  0  0  0  0  0
   21.9902  -20.6988  -11.2744 C   0  0  0  0  0  0  0  0  0  0  0  0
   23.4384  -21.1304  -11.2724 C   0  0  2  0  0  0  0  0  0  0  0  0
   24.1005  -20.6874  -10.0969 N   0  0  0  0  0  0  0  0  0  0  0  0
   24.1470  -20.8071  -12.5261 C   0  0  0  0  0  0  0  0  0  0  0  0
   24.4582  -19.5783  -12.6728 O   0  0  0  0  0  0  0  0  0  0  0  0
   21.2475  -20.9700   -8.8697 C   0  0  0  0  0  0  0  0  0  0  0  0
   20.5612  -21.6996   -7.9241 C   0  0  0  0  0  0  0  0  0  0  0  0
   24.4988  -21.7120  -13.5463 N   0  0  0  0  0  0  0  0  0  0  0  0
   24.2773  -23.1353  -13.6475 C   0  0  0  0  0  0  0  0  0  0  0  0
   25.2953  -23.6537  -14.6482 C   0  0  0  0  0  0  0  0  0  0  0  0
   26.2139  -22.4459  -14.8788 C   0  0  0  0  0  0  0  0  0  0  0  0
   25.1904  -21.3386  -14.7648 C   0  0  1  0  0  0  0  0  0  0  0  0
   24.1798  -21.4094  -15.8773 C   0  0  0  0  0  0  0  0  0  0  0  0
   23.1110  -22.0724  -15.7482 O   0  0  0  0  0  0  0  0  0  0  0  0
   24.4175  -20.7274  -17.0925 N   0  0  0  0  0  0  0  0  0  0  0  0
   23.4072  -19.7616  -17.5556 C   0  0  1  0  0  0  0  0  0  0  0  0
   23.1716  -18.7278  -16.4740 C   0  0  0  0  0  0  0  0  0  0  0  0
   22.2164  -17.6779  -16.8280 C   0  0  0  0  0  0  0  0  0  0  0  0
   21.6221  -17.6910  -17.9632 O   0  0  0  0  0  0  0  0  0  0  0  0
   23.9127  -19.1642  -18.8169 C   0  0  0  0  0  0  0  0  0  0  0  0
   25.2131  -18.7499  -19.0194 O   0  0  0  0  0  0  0  0  0  0  0  0
   21.9367  -16.6545  -15.9547 O   0  0  0  0  0  0  0  0  0  0  0  0
   23.1119  -19.0208  -19.7720 O   0  0  0  0  0  0  0  0  0  0  0  0
  2 12  2  0
  2  1  1  0
  3  2  1  0
  4  5  1  0
  4  3  2  0
  5 11  2  0
  6  7  1  0
  6  5  1  0
  7  8  1  1
  9  7  1  0
  9 13  1  0
 10  9  2  0
 11 12  1  0
 13 14  1  0
 14 15  1  0
 16 15  1  0
 17 13  1  0
 17 16  1  0
 18 19  2  0
 17 18  1  6
 20 18  1  0
 21 20  1  0
 21 25  1  0
 21 22  1  1
 23 22  1  0
 23 24  2  0
 25 26  1  0
 27 23  1  0
 28 25  2  0
M  END
$$$$
