YPD.pdb
     RDKit          3D

 28 29  0  0  1  0  0  0  0  0999 V2000
   16.9641  -24.4496  -12.9616 O   0  0  0  0  0  0  0  0  0  0  0  0
   18.1856  -23.8402  -13.3144 C   0  0  0  0  0  0  0  0  0  0  0  0
   19.3834  -24.3262  -12.8392 C   0  0  0  0  0  0  0  0  0  0  0  0
   20.5527  -23.7167  -13.1965 C   0  0  0  0  0  0  0  0  0  0  0  0
   20.5963  -22.6130  -14.0286 C   0  0  0  0  0  0  0  0  0  0  0  0
   21.9243  -22.0409  -14.3515 C   0  0  0  0  0  0  0  0  0  0  0  0
   22.1501  -20.8327  -13.4724 C   0  0  2  0  0  0  0  0  0  0  0  0
   21.1222  -19.8703  -13.6554 N   0  0  0  0  0  0  0  0  0  0  0  0
   23.5175  -20.2857  -13.5698 C   0  0  0  0  0  0  0  0  0  0  0  0
   23.6081  -19.1482  -14.1407 O   0  0  0  0  0  0  0  0  0  0  0  0
   19.3989  -22.1293  -14.5022 C   0  0  0  0  0  0  0  0  0  0  0  0
   18.2183  -22.7417  -14.1437 C   0  0  0  0  0  0  0  0  0  0  0  0
   24.6979  -20.8942  -13.1010 N   0  0  0  0  0  0  0  0  0  0  0  0
   24.8886  -22.1407  -12.3973 C   0  0  0  0  0  0  0  0  0  0  0  0
   26.2321  -22.0324  -11.6974 C   0  0  0  0  0  0  0  0  0  0  0  0
   26.6151  -20.5586  -11.8895 C   0  0  0  0  0  0  0  0  0  0  0  0
   26.0249  -20.3325  -13.2634 C   0  0  1  0  0  0  0  0  0  0  0  0
   26.7243  -21.1640  -14.3043 C   0  0  0  0  0  0  0  0  0  0  0  0
   26.5441  -22.4135  -14.3721 O   0  0  0  0  0  0  0  0  0  0  0  0
   27.6003  -20.5494  -15.2280 N   0  0  0  0  0  0  0  0  0  0  0  0
   27.2596  -20.6178  -16.6589 C   0  0  1  0  0  0  0  0  0  0  0  0
   25.8052  -20.2382  -16.8448 C   0  0  0  0  0  0  0  0  0  0  0  0
   25.3580  -20.1898  -18.2368 C   0  0  0  0  0  0  0  0  0  0  0  0
   26.1665  -20.4631  -19.1926 O   0  0  0  0  0  0  0  0  0  0  0  0
   28.1846  -19.7060  -17.3773 C   0  0  0  0  0  0  0  0  0  0  0  0
   28.9275  -20.0597  -18.4849 O   0  0  0  0  0  0  0  0  0  0  0  0
   24.0646  -19.8486  -18.5512 O   0  0  0  0  0  0  0  0  0  0  0  0
   28.3083  -18.5300  -16.9579 O   0  0  0  0  0  0  0  0  0  0  0  0
  2 12  2  0
  2  1  1  0
  3  2  1  0
  4  5  1  0
  4  3  2  0
  5 11  2  0
  6  7  1  0
  6  5  1  0
  7  8  1  6
  9  7  1  0
  9 13  1  0
 10  9  2  0
 11 12  1  0
 13 14  1  0
 14 15  1  0
 16 15  1  0
 17 13  1  0
 17 16  1  0
 18 19  2  0
 17 18  1  6
 20 18  1  0
 21 20  1  0
 21 25  1  0
 21 22  1  1
 23 22  1  0
 23 24  2  0
 25 26  1  0
 27 23  1  0
 28 25  2  0
M  END
$$$$
