YPD.pdb
     RDKit          3D

 28 29  0  0  1  0  0  0  0  0999 V2000
   28.0954  -14.8017  -20.9729 O   0  0  0  0  0  0  0  0  0  0  0  0
   27.4735  -15.5254  -19.9350 C   0  0  0  0  0  0  0  0  0  0  0  0
   28.2129  -16.0683  -18.9077 C   0  0  0  0  0  0  0  0  0  0  0  0
   27.5852  -16.7653  -17.9145 C   0  0  0  0  0  0  0  0  0  0  0  0
   26.2161  -16.9580  -17.8870 C   0  0  0  0  0  0  0  0  0  0  0  0
   25.6471  -17.7259  -16.7549 C   0  0  0  0  0  0  0  0  0  0  0  0
   26.1867  -19.1361  -16.8157 C   0  0  2  0  0  0  0  0  0  0  0  0
   25.7927  -19.7810  -18.0179 N   0  0  0  0  0  0  0  0  0  0  0  0
   25.9199  -19.9179  -15.5925 C   0  0  0  0  0  0  0  0  0  0  0  0
   24.8767  -20.6516  -15.6335 O   0  0  0  0  0  0  0  0  0  0  0  0
   25.4794  -16.4148  -18.9138 C   0  0  0  0  0  0  0  0  0  0  0  0
   26.1095  -15.7115  -19.9168 C   0  0  0  0  0  0  0  0  0  0  0  0
   26.6950  -19.9231  -14.4166 N   0  0  0  0  0  0  0  0  0  0  0  0
   27.8641  -19.1511  -14.0669 C   0  0  0  0  0  0  0  0  0  0  0  0
   28.5660  -19.9202  -12.9613 C   0  0  0  0  0  0  0  0  0  0  0  0
   27.8146  -21.2581  -12.9266 C   0  0  0  0  0  0  0  0  0  0  0  0
   26.4262  -20.7644  -13.2666 C   0  0  1  0  0  0  0  0  0  0  0  0
   25.8844  -19.8659  -12.1880 C   0  0  0  0  0  0  0  0  0  0  0  0
   26.6586  -19.2342  -11.4134 O   0  0  0  0  0  0  0  0  0  0  0  0
   24.4878  -19.7170  -12.0279 N   0  0  0  0  0  0  0  0  0  0  0  0
   23.8890  -20.1229  -10.7454 C   0  0  1  0  0  0  0  0  0  0  0  0
   22.8050  -21.1490  -11.0027 C   0  0  0  0  0  0  0  0  0  0  0  0
   21.5481  -20.5980  -11.5093 C   0  0  0  0  0  0  0  0  0  0  0  0
   21.5089  -19.4244  -12.0223 O   0  0  0  0  0  0  0  0  0  0  0  0
   24.9845  -20.6501   -9.8937 C   0  0  0  0  0  0  0  0  0  0  0  0
   25.2744  -20.1963   -8.6234 O   0  0  0  0  0  0  0  0  0  0  0  0
   20.3827  -21.3232  -11.4446 O   0  0  0  0  0  0  0  0  0  0  0  0
   25.7033  -21.5719  -10.3493 O   0  0  0  0  0  0  0  0  0  0  0  0
  2 12  2  0
  2  1  1  0
  3  2  1  0
  4  5  1  0
  4  3  2  0
  5 11  2  0
  6  7  1  0
  6  5  1  0
  7  8  1  6
  9  7  1  0
  9 13  1  0
 10  9  2  0
 11 12  1  0
 13 14  1  0
 14 15  1  0
 16 15  1  0
 17 13  1  0
 17 16  1  0
 18 19  2  0
 17 18  1  1
 20 18  1  0
 21 20  1  0
 21 25  1  0
 21 22  1  6
 23 22  1  0
 23 24  2  0
 25 26  1  0
 27 23  1  0
 28 25  2  0
M  END
$$$$
