YPD.pdb
     RDKit          3D

 28 29  0  0  1  0  0  0  0  0999 V2000
   29.5445  -11.4824  -16.9175 O   0  0  0  0  0  0  0  0  0  0  0  0
   28.2288  -11.8114  -16.5323 C   0  0  0  0  0  0  0  0  0  0  0  0
   27.8665  -13.1183  -16.2919 C   0  0  0  0  0  0  0  0  0  0  0  0
   26.5847  -13.4096  -15.9200 C   0  0  0  0  0  0  0  0  0  0  0  0
   25.6112  -12.4390  -15.7694 C   0  0  0  0  0  0  0  0  0  0  0  0
   24.2568  -12.8745  -15.3557 C   0  0  0  0  0  0  0  0  0  0  0  0
   23.3846  -12.9554  -16.5870 C   0  0  2  0  0  0  0  0  0  0  0  0
   24.0846  -13.5515  -17.6691 N   0  0  0  0  0  0  0  0  0  0  0  0
   22.7248  -11.6781  -16.9215 C   0  0  0  0  0  0  0  0  0  0  0  0
   23.2016  -11.0700  -17.9369 O   0  0  0  0  0  0  0  0  0  0  0  0
   25.9751  -11.1345  -16.0097 C   0  0  0  0  0  0  0  0  0  0  0  0
   27.2669  -10.8376  -16.3849 C   0  0  0  0  0  0  0  0  0  0  0  0
   21.6453  -11.0886  -16.2355 N   0  0  0  0  0  0  0  0  0  0  0  0
   20.9960  -11.4800  -15.0065 C   0  0  0  0  0  0  0  0  0  0  0  0
   19.6200  -10.8376  -15.0297 C   0  0  0  0  0  0  0  0  0  0  0  0
   19.5097  -10.2849  -16.4573 C   0  0  0  0  0  0  0  0  0  0  0  0
   20.9538   -9.8930  -16.6770 C   0  0  1  0  0  0  0  0  0  0  0  0
   21.3680   -8.7835  -15.7489 C   0  0  0  0  0  0  0  0  0  0  0  0
   22.0034   -9.0259  -14.6830 O   0  0  0  0  0  0  0  0  0  0  0  0
   21.0476   -7.4430  -16.0628 N   0  0  0  0  0  0  0  0  0  0  0  0
   21.6174   -6.3777  -15.2210 C   0  0  1  0  0  0  0  0  0  0  0  0
   21.9082   -5.1643  -16.0796 C   0  0  0  0  0  0  0  0  0  0  0  0
   22.3628   -3.9863  -15.3410 C   0  0  0  0  0  0  0  0  0  0  0  0
   22.5457   -4.0400  -14.0738 O   0  0  0  0  0  0  0  0  0  0  0  0
   20.6364   -6.0938  -14.1438 C   0  0  0  0  0  0  0  0  0  0  0  0
   19.3110   -6.4759  -14.1730 O   0  0  0  0  0  0  0  0  0  0  0  0
   22.6012   -2.7969  -15.9867 O   0  0  0  0  0  0  0  0  0  0  0  0
   21.0274   -5.4637  -13.1318 O   0  0  0  0  0  0  0  0  0  0  0  0
  2 12  2  0
  2  1  1  0
  3  2  1  0
  4  5  1  0
  4  3  2  0
  5 11  2  0
  6  7  1  0
  6  5  1  0
  7  8  1  6
  9  7  1  0
  9 13  1  0
 10  9  2  0
 11 12  1  0
 13 14  1  0
 14 15  1  0
 16 15  1  0
 17 13  1  0
 17 16  1  0
 18 19  2  0
 17 18  1  1
 20 18  1  0
 21 20  1  0
 21 25  1  0
 21 22  1  6
 23 22  1  0
 23 24  2  0
 25 26  1  0
 27 23  1  0
 28 25  2  0
M  END
$$$$
