YPD.pdb
     RDKit          3D

 28 29  0  0  1  0  0  0  0  0999 V2000
   12.3767  -23.8665   -3.0195 O   0  0  0  0  0  0  0  0  0  0  0  0
   12.9473  -23.2803   -1.8713 C   0  0  0  0  0  0  0  0  0  0  0  0
   12.5970  -23.7064   -0.6094 C   0  0  0  0  0  0  0  0  0  0  0  0
   13.1649  -23.1210    0.4865 C   0  0  0  0  0  0  0  0  0  0  0  0
   14.0934  -22.1005    0.3920 C   0  0  0  0  0  0  0  0  0  0  0  0
   14.6456  -21.5474    1.6506 C   0  0  0  0  0  0  0  0  0  0  0  0
   16.1379  -21.7846    1.6619 C   0  0  2  0  0  0  0  0  0  0  0  0
   16.4330  -23.1693    1.7706 N   0  0  0  0  0  0  0  0  0  0  0  0
   16.8583  -20.9333    2.6288 C   0  0  0  0  0  0  0  0  0  0  0  0
   17.5555  -21.5625    3.4926 O   0  0  0  0  0  0  0  0  0  0  0  0
   14.4421  -21.6765   -0.8693 C   0  0  0  0  0  0  0  0  0  0  0  0
   13.8711  -22.2648   -1.9762 C   0  0  0  0  0  0  0  0  0  0  0  0
   16.8424  -19.5259    2.6795 N   0  0  0  0  0  0  0  0  0  0  0  0
   16.0732  -18.5738    1.9132 C   0  0  0  0  0  0  0  0  0  0  0  0
   16.8219  -17.2552    1.9995 C   0  0  0  0  0  0  0  0  0  0  0  0
   18.1513  -17.6438    2.6607 C   0  0  0  0  0  0  0  0  0  0  0  0
   17.6528  -18.7332    3.5836 C   0  0  1  0  0  0  0  0  0  0  0  0
   16.7234  -18.1821    4.6306 C   0  0  0  0  0  0  0  0  0  0  0  0
   15.4761  -18.1234    4.4319 O   0  0  0  0  0  0  0  0  0  0  0  0
   17.2410  -17.7190    5.8619 N   0  0  0  0  0  0  0  0  0  0  0  0
   16.3017  -17.5168    6.9777 C   0  0  1  0  0  0  0  0  0  0  0  0
   16.9009  -18.0901    8.2451 C   0  0  0  0  0  0  0  0  0  0  0  0
   16.0634  -17.9499    9.4363 C   0  0  0  0  0  0  0  0  0  0  0  0
   14.8285  -17.6239    9.3320 O   0  0  0  0  0  0  0  0  0  0  0  0
   16.0414  -16.0589    7.0772 C   0  0  0  0  0  0  0  0  0  0  0  0
   16.7162  -15.0935    6.3586 O   0  0  0  0  0  0  0  0  0  0  0  0
   16.5806  -18.1615   10.6917 O   0  0  0  0  0  0  0  0  0  0  0  0
   15.1487  -15.6648    7.8657 O   0  0  0  0  0  0  0  0  0  0  0  0
  2 12  2  0
  2  1  1  0
  3  2  1  0
  4  5  1  0
  4  3  2  0
  5 11  2  0
  6  7  1  0
  6  5  1  0
  7  8  1  1
  9  7  1  0
  9 13  1  0
 10  9  2  0
 11 12  1  0
 13 14  1  0
 14 15  1  0
 16 15  1  0
 17 13  1  0
 17 16  1  0
 18 19  2  0
 17 18  1  1
 20 18  1  0
 21 20  1  0
 21 25  1  0
 21 22  1  1
 23 22  1  0
 23 24  2  0
 25 26  1  0
 27 23  1  0
 28 25  2  0
M  END
$$$$
