FEM.pdb
     RDKit          3D

 29 29  0  0  1  0  0  0  0  0999 V2000
   30.1666  -19.4368  -12.1388 N   0  0  0  0  0  0  0  0  0  0  0  0
   29.5121  -20.6519  -12.5707 C   0  0  1  0  0  0  0  0  0  0  0  0
   29.1301  -21.4337  -11.3481 C   0  0  0  0  0  0  0  0  0  0  0  0
   30.3986  -21.7427  -10.6362 C   0  0  0  0  0  0  0  0  0  0  0  0
   30.6039  -21.3782   -9.3226 C   0  0  0  0  0  0  0  0  0  0  0  0
   31.7933  -21.6677   -8.6698 C   0  0  0  0  0  0  0  0  0  0  0  0
   32.8150  -22.3314   -9.3085 C   0  0  0  0  0  0  0  0  0  0  0  0
   32.6318  -22.7045  -10.6184 C   0  0  0  0  0  0  0  0  0  0  0  0
   31.4250  -22.4044  -11.2644 C   0  0  0  0  0  0  0  0  0  0  0  0
   28.3852  -20.3054  -13.4432 C   0  0  0  0  0  0  0  0  0  0  0  0
   27.6407  -19.2981  -13.1784 O   0  0  0  0  0  0  0  0  0  0  0  0
   28.0182  -21.0170  -14.6187 N   0  0  0  0  0  0  0  0  0  0  0  0
   26.7171  -20.9067  -15.2430 C   0  0  1  0  0  0  0  0  0  0  0  0
   26.7714  -21.3709  -16.6581 C   0  0  0  0  0  0  0  0  0  0  0  0
   25.5312  -21.2686  -17.4615 C   0  0  0  0  0  0  0  0  0  0  0  0
   25.5672  -21.7197  -18.8406 C   0  0  0  0  0  0  0  0  0  0  0  0
   24.7121  -22.5227  -19.2843 O   0  0  0  0  0  0  0  0  0  0  0  0
   25.6216  -21.5275  -14.5037 C   0  0  0  0  0  0  0  0  0  0  0  0
   25.6942  -22.6918  -14.0044 O   0  0  0  0  0  0  0  0  0  0  0  0
   26.5537  -21.2711  -19.7041 O   0  0  0  0  0  0  0  0  0  0  0  0
   25.5889  -20.8467   -8.1495 C   0  0  0  0  0  0  0  0  0  0  0  0
   24.3631  -20.3648   -9.3469 S   0  0  0  0  0  0  0  0  0  0  0  0
   24.8932  -20.4569  -11.0360 C   0  0  0  0  0  0  0  0  0  0  0  0
   23.9094  -20.0192  -12.0510 C   0  0  0  0  0  0  0  0  0  0  0  0
   23.5831  -20.9528  -13.1424 C   0  0  2  0  0  0  0  0  0  0  0  0
   24.4163  -20.8085  -14.3226 N   0  0  0  0  0  0  0  0  0  0  0  0
   22.1328  -21.0560  -13.4819 C   0  0  0  0  0  0  0  0  0  0  0  0
   21.7235  -20.3614  -14.4601 O   0  0  0  0  0  0  0  0  0  0  0  0
   21.2087  -21.8235  -12.8392 O   0  0  0  0  0  0  0  0  0  0  0  0
  2  1  1  1
  3  4  1  0
  3  2  1  0
  4  5  2  0
  4  9  1  0
  5  6  1  0
  6  7  2  0
  8  7  1  0
  9  8  2  0
 10  2  1  0
 11 10  2  0
 12 10  1  0
 13 12  1  0
 13 18  1  0
 13 14  1  6
 15 16  1  0
 15 14  1  0
 16 20  1  0
 17 16  2  0
 18 26  1  0
 19 18  2  0
 21 22  1  0
 23 22  1  0
 24 23  1  0
 25 24  1  1
 25 27  1  0
 26 25  1  0
 27 28  2  0
 27 29  1  0
M  END
$$$$
