FEM.pdb
     RDKit          3D

 29 29  0  0  1  0  0  0  0  0999 V2000
   27.0647  -18.2100   -7.5712 N   0  0  0  0  0  0  0  0  0  0  0  0
   27.3520  -19.5355   -8.0732 C   0  0  1  0  0  0  0  0  0  0  0  0
   26.9911  -20.5253   -7.0045 C   0  0  0  0  0  0  0  0  0  0  0  0
   27.9807  -20.3385   -5.9103 C   0  0  0  0  0  0  0  0  0  0  0  0
   27.6731  -19.6412   -4.7615 C   0  0  0  0  0  0  0  0  0  0  0  0
   28.6059  -19.4693   -3.7490 C   0  0  0  0  0  0  0  0  0  0  0  0
   29.8753  -19.9893   -3.8518 C   0  0  0  0  0  0  0  0  0  0  0  0
   30.2035  -20.6883   -4.9886 C   0  0  0  0  0  0  0  0  0  0  0  0
   29.2506  -20.8530   -6.0029 C   0  0  0  0  0  0  0  0  0  0  0  0
   26.6439  -19.7314   -9.3426 C   0  0  0  0  0  0  0  0  0  0  0  0
   25.4624  -19.2674   -9.5089 O   0  0  0  0  0  0  0  0  0  0  0  0
   27.1694  -20.4238  -10.4684 N   0  0  0  0  0  0  0  0  0  0  0  0
   26.4916  -20.4988  -11.7450 C   0  0  1  0  0  0  0  0  0  0  0  0
   27.4240  -20.9668  -12.8091 C   0  0  0  0  0  0  0  0  0  0  0  0
   26.8745  -21.1435  -14.1733 C   0  0  0  0  0  0  0  0  0  0  0  0
   27.7759  -21.5743  -15.2262 C   0  0  0  0  0  0  0  0  0  0  0  0
   27.8081  -22.7693  -15.6057 O   0  0  0  0  0  0  0  0  0  0  0  0
   25.2425  -21.2550  -11.7386 C   0  0  0  0  0  0  0  0  0  0  0  0
   25.1140  -22.3768  -11.1597 O   0  0  0  0  0  0  0  0  0  0  0  0
   28.6273  -20.6696  -15.8399 O   0  0  0  0  0  0  0  0  0  0  0  0
   18.7355  -19.2089  -12.4618 C   0  0  0  0  0  0  0  0  0  0  0  0
   19.2443  -20.9114  -12.5668 S   0  0  0  0  0  0  0  0  0  0  0  0
   20.4910  -21.3910  -11.4012 C   0  0  0  0  0  0  0  0  0  0  0  0
   21.8062  -20.7289  -11.5466 C   0  0  0  0  0  0  0  0  0  0  0  0
   22.8159  -21.3808  -12.3980 C   0  0  2  0  0  0  0  0  0  0  0  0
   24.1105  -20.7238  -12.4013 N   0  0  0  0  0  0  0  0  0  0  0  0
   22.3574  -21.7363  -13.7738 C   0  0  0  0  0  0  0  0  0  0  0  0
   21.8683  -22.8950  -13.9322 O   0  0  0  0  0  0  0  0  0  0  0  0
   22.4170  -20.9349  -14.8739 O   0  0  0  0  0  0  0  0  0  0  0  0
  2  1  1  1
  3  4  1  0
  3  2  1  0
  4  5  2  0
  4  9  1  0
  5  6  1  0
  6  7  2  0
  8  7  1  0
  9  8  2  0
 10  2  1  0
 11 10  2  0
 12 10  1  0
 13 12  1  0
 13 18  1  0
 13 14  1  6
 15 16  1  0
 15 14  1  0
 16 20  1  0
 17 16  2  0
 18 26  1  0
 19 18  2  0
 21 22  1  0
 23 22  1  0
 24 23  1  0
 25 24  1  6
 25 27  1  0
 26 25  1  0
 27 28  2  0
 27 29  1  0
M  END
$$$$
