FEM.pdb
     RDKit          3D

 29 29  0  0  1  0  0  0  0  0999 V2000
   29.2926  -20.8788  -13.7802 N   0  0  0  0  0  0  0  0  0  0  0  0
   28.1966  -21.1768  -12.8850 C   0  0  1  0  0  0  0  0  0  0  0  0
   28.4363  -20.4446  -11.5973 C   0  0  0  0  0  0  0  0  0  0  0  0
   29.6393  -21.0648  -10.9813 C   0  0  0  0  0  0  0  0  0  0  0  0
   30.8838  -20.4771  -11.0620 C   0  0  0  0  0  0  0  0  0  0  0  0
   32.0002  -21.0672  -10.4875 C   0  0  0  0  0  0  0  0  0  0  0  0
   31.9086  -22.2627   -9.8133 C   0  0  0  0  0  0  0  0  0  0  0  0
   30.6774  -22.8662   -9.7204 C   0  0  0  0  0  0  0  0  0  0  0  0
   29.5591  -22.2582  -10.3065 C   0  0  0  0  0  0  0  0  0  0  0  0
   26.9318  -20.8387  -13.5463 C   0  0  0  0  0  0  0  0  0  0  0  0
   26.6762  -19.6314  -13.8872 O   0  0  0  0  0  0  0  0  0  0  0  0
   25.9055  -21.7709  -13.8635 N   0  0  0  0  0  0  0  0  0  0  0  0
   24.6424  -21.3924  -14.4604 C   0  0  1  0  0  0  0  0  0  0  0  0
   24.6168  -21.7480  -15.9073 C   0  0  0  0  0  0  0  0  0  0  0  0
   25.4556  -20.9441  -16.8262 C   0  0  0  0  0  0  0  0  0  0  0  0
   24.7912  -20.1251  -17.8234 C   0  0  0  0  0  0  0  0  0  0  0  0
   23.9290  -20.6109  -18.5939 O   0  0  0  0  0  0  0  0  0  0  0  0
   23.4569  -21.8729  -13.7563 C   0  0  0  0  0  0  0  0  0  0  0  0
   23.3739  -23.0335  -13.2500 O   0  0  0  0  0  0  0  0  0  0  0  0
   25.0964  -18.7793  -17.9482 O   0  0  0  0  0  0  0  0  0  0  0  0
   20.5613  -18.4877   -9.2766 C   0  0  0  0  0  0  0  0  0  0  0  0
   19.4780  -19.8941   -9.4065 S   0  0  0  0  0  0  0  0  0  0  0  0
   19.7071  -20.8808  -10.8613 C   0  0  0  0  0  0  0  0  0  0  0  0
   20.9140  -20.5845  -11.6645 C   0  0  0  0  0  0  0  0  0  0  0  0
   21.1482  -21.3855  -12.8781 C   0  0  2  0  0  0  0  0  0  0  0  0
   22.3401  -21.0146  -13.6194 N   0  0  0  0  0  0  0  0  0  0  0  0
   19.9607  -21.5614  -13.7659 C   0  0  0  0  0  0  0  0  0  0  0  0
   19.8418  -20.7471  -14.7302 O   0  0  0  0  0  0  0  0  0  0  0  0
   18.9930  -22.5116  -13.6365 O   0  0  0  0  0  0  0  0  0  0  0  0
  2  1  1  6
  3  4  1  0
  3  2  1  0
  4  5  2  0
  4  9  1  0
  5  6  1  0
  6  7  2  0
  8  7  1  0
  9  8  2  0
 10  2  1  0
 11 10  2  0
 12 10  1  0
 13 12  1  0
 13 18  1  0
 13 14  1  6
 15 16  1  0
 15 14  1  0
 16 20  1  0
 17 16  2  0
 18 26  1  0
 19 18  2  0
 21 22  1  0
 23 22  1  0
 24 23  1  0
 25 24  1  1
 25 27  1  0
 26 25  1  0
 27 28  2  0
 27 29  1  0
M  END
$$$$
