FEM.pdb
     RDKit          3D

 29 29  0  0  1  0  0  0  0  0999 V2000
   28.2131  -20.7333  -13.3644 N   0  0  0  0  0  0  0  0  0  0  0  0
   27.0451  -21.1160  -12.6023 C   0  0  1  0  0  0  0  0  0  0  0  0
   26.8145  -20.0717  -11.5496 C   0  0  0  0  0  0  0  0  0  0  0  0
   27.9648  -20.1625  -10.6116 C   0  0  0  0  0  0  0  0  0  0  0  0
   29.1559  -19.5123  -10.8548 C   0  0  0  0  0  0  0  0  0  0  0  0
   30.2241  -19.6079   -9.9748 C   0  0  0  0  0  0  0  0  0  0  0  0
   30.1360  -20.3554   -8.8234 C   0  0  0  0  0  0  0  0  0  0  0  0
   28.9576  -21.0119   -8.5608 C   0  0  0  0  0  0  0  0  0  0  0  0
   27.8877  -20.9063   -9.4597 C   0  0  0  0  0  0  0  0  0  0  0  0
   25.9168  -21.3097  -13.5191 C   0  0  0  0  0  0  0  0  0  0  0  0
   25.4404  -20.3252  -14.1846 O   0  0  0  0  0  0  0  0  0  0  0  0
   25.2641  -22.5513  -13.7545 N   0  0  0  0  0  0  0  0  0  0  0  0
   24.1278  -22.6988  -14.6386 C   0  0  1  0  0  0  0  0  0  0  0  0
   24.4206  -23.6916  -15.7107 C   0  0  0  0  0  0  0  0  0  0  0  0
   24.4583  -25.1223  -15.3289 C   0  0  0  0  0  0  0  0  0  0  0  0
   24.9837  -26.0757  -16.2889 C   0  0  0  0  0  0  0  0  0  0  0  0
   25.0293  -27.3018  -16.0289 O   0  0  0  0  0  0  0  0  0  0  0  0
   22.8568  -22.9695  -13.9726 C   0  0  0  0  0  0  0  0  0  0  0  0
   22.7755  -23.5079  -12.8264 O   0  0  0  0  0  0  0  0  0  0  0  0
   25.4503  -25.6506  -17.5224 O   0  0  0  0  0  0  0  0  0  0  0  0
   19.2794  -17.0326  -11.9758 C   0  0  0  0  0  0  0  0  0  0  0  0
   20.3617  -18.4446  -11.9158 S   0  0  0  0  0  0  0  0  0  0  0  0
   19.9498  -19.7491  -13.0434 C   0  0  0  0  0  0  0  0  0  0  0  0
   20.8425  -20.9290  -13.0266 C   0  0  0  0  0  0  0  0  0  0  0  0
   20.5111  -22.0568  -13.9141 C   0  0  2  0  0  0  0  0  0  0  0  0
   21.6491  -22.6170  -14.6204 N   0  0  0  0  0  0  0  0  0  0  0  0
   19.3381  -21.8393  -14.8119 C   0  0  0  0  0  0  0  0  0  0  0  0
   18.1889  -21.9842  -14.2969 O   0  0  0  0  0  0  0  0  0  0  0  0
   19.3862  -21.5024  -16.1311 O   0  0  0  0  0  0  0  0  0  0  0  0
  2  1  1  6
  3  4  1  0
  3  2  1  0
  4  5  2  0
  4  9  1  0
  5  6  1  0
  6  7  2  0
  8  7  1  0
  9  8  2  0
 10  2  1  0
 11 10  2  0
 12 10  1  0
 13 12  1  0
 13 18  1  0
 13 14  1  6
 15 16  1  0
 15 14  1  0
 16 20  1  0
 17 16  2  0
 18 26  1  0
 19 18  2  0
 21 22  1  0
 23 22  1  0
 24 23  1  0
 25 24  1  6
 25 27  1  0
 26 25  1  0
 27 28  2  0
 27 29  1  0
M  END
$$$$
