FEM.pdb
     RDKit          3D

 29 29  0  0  1  0  0  0  0  0999 V2000
   28.5139  -20.7454   -8.8794 N   0  0  0  0  0  0  0  0  0  0  0  0
   27.0971  -20.4872   -8.7473 C   0  0  1  0  0  0  0  0  0  0  0  0
   26.9225  -19.3121   -7.8305 C   0  0  0  0  0  0  0  0  0  0  0  0
   27.6381  -19.6534   -6.5724 C   0  0  0  0  0  0  0  0  0  0  0  0
   28.9267  -19.2279   -6.3291 C   0  0  0  0  0  0  0  0  0  0  0  0
   29.5863  -19.5563   -5.1536 C   0  0  0  0  0  0  0  0  0  0  0  0
   28.9791  -20.3196   -4.1835 C   0  0  0  0  0  0  0  0  0  0  0  0
   27.6945  -20.7545   -4.4051 C   0  0  0  0  0  0  0  0  0  0  0  0
   27.0416  -20.4151   -5.5977 C   0  0  0  0  0  0  0  0  0  0  0  0
   26.5166  -20.3043  -10.0818 C   0  0  0  0  0  0  0  0  0  0  0  0
   26.6677  -19.2010  -10.7133 O   0  0  0  0  0  0  0  0  0  0  0  0
   25.7612  -21.2855  -10.7813 N   0  0  0  0  0  0  0  0  0  0  0  0
   25.2970  -21.1130  -12.1414 C   0  0  1  0  0  0  0  0  0  0  0  0
   26.1935  -21.8225  -13.0973 C   0  0  0  0  0  0  0  0  0  0  0  0
   25.9232  -21.6554  -14.5440 C   0  0  0  0  0  0  0  0  0  0  0  0
   26.8614  -22.2328  -15.4891 C   0  0  0  0  0  0  0  0  0  0  0  0
   26.7595  -23.4268  -15.8591 O   0  0  0  0  0  0  0  0  0  0  0  0
   23.8912  -21.4407  -12.3614 C   0  0  0  0  0  0  0  0  0  0  0  0
   23.3671  -22.5338  -11.9863 O   0  0  0  0  0  0  0  0  0  0  0  0
   27.8981  -21.4733  -16.0073 O   0  0  0  0  0  0  0  0  0  0  0  0
   18.3327  -18.9814  -10.3991 C   0  0  0  0  0  0  0  0  0  0  0  0
   18.1313  -19.0262  -12.1672 S   0  0  0  0  0  0  0  0  0  0  0  0
   19.2671  -20.0863  -13.0211 C   0  0  0  0  0  0  0  0  0  0  0  0
   20.6960  -19.9228  -12.6733 C   0  0  0  0  0  0  0  0  0  0  0  0
   21.6752  -20.7830  -13.3592 C   0  0  2  0  0  0  0  0  0  0  0  0
   23.0588  -20.5042  -13.0190 N   0  0  0  0  0  0  0  0  0  0  0  0
   21.4727  -20.9329  -14.8309 C   0  0  0  0  0  0  0  0  0  0  0  0
   20.3654  -21.4204  -15.2092 O   0  0  0  0  0  0  0  0  0  0  0  0
   22.3652  -20.5977  -15.8041 O   0  0  0  0  0  0  0  0  0  0  0  0
  2  1  1  6
  3  4  1  0
  3  2  1  0
  4  5  2  0
  4  9  1  0
  5  6  1  0
  6  7  2  0
  8  7  1  0
  9  8  2  0
 10  2  1  0
 11 10  2  0
 12 10  1  0
 13 12  1  0
 13 18  1  0
 13 14  1  6
 15 16  1  0
 15 14  1  0
 16 20  1  0
 17 16  2  0
 18 26  1  0
 19 18  2  0
 21 22  1  0
 23 22  1  0
 24 23  1  0
 25 24  1  6
 25 27  1  0
 26 25  1  0
 27 28  2  0
 27 29  1  0
M  END
$$$$
