FEM.pdb
     RDKit          3D

 29 29  0  0  1  0  0  0  0  0999 V2000
   25.1337  -17.1210  -16.0763 N   0  0  0  0  0  0  0  0  0  0  0  0
   26.0952  -17.8774  -15.3051 C   0  0  1  0  0  0  0  0  0  0  0  0
   27.1329  -16.9228  -14.7915 C   0  0  0  0  0  0  0  0  0  0  0  0
   28.0394  -16.6359  -15.9349 C   0  0  0  0  0  0  0  0  0  0  0  0
   27.9666  -15.4556  -16.6436 C   0  0  0  0  0  0  0  0  0  0  0  0
   28.8145  -15.2006  -17.7117 C   0  0  0  0  0  0  0  0  0  0  0  0
   29.7626  -16.1164  -18.1051 C   0  0  0  0  0  0  0  0  0  0  0  0
   29.8529  -17.2999  -17.4125 C   0  0  0  0  0  0  0  0  0  0  0  0
   28.9890  -17.5433  -16.3362 C   0  0  0  0  0  0  0  0  0  0  0  0
   25.3895  -18.6237  -14.2581 C   0  0  0  0  0  0  0  0  0  0  0  0
   24.4778  -18.0608  -13.5574 O   0  0  0  0  0  0  0  0  0  0  0  0
   25.6314  -19.9855  -13.9266 N   0  0  0  0  0  0  0  0  0  0  0  0
   24.9805  -20.6654  -12.8271 C   0  0  1  0  0  0  0  0  0  0  0  0
   24.2712  -21.8845  -13.3082 C   0  0  0  0  0  0  0  0  0  0  0  0
   25.0788  -23.1070  -13.5256 C   0  0  0  0  0  0  0  0  0  0  0  0
   24.3823  -24.3502  -13.8011 C   0  0  0  0  0  0  0  0  0  0  0  0
   25.0114  -25.4136  -14.0168 O   0  0  0  0  0  0  0  0  0  0  0  0
   25.8379  -20.9467  -11.6791 C   0  0  0  0  0  0  0  0  0  0  0  0
   26.7201  -21.8588  -11.6796 O   0  0  0  0  0  0  0  0  0  0  0  0
   22.9977  -24.3911  -13.8327 O   0  0  0  0  0  0  0  0  0  0  0  0
   29.9076  -19.2719   -6.7429 C   0  0  0  0  0  0  0  0  0  0  0  0
   28.2753  -19.3824   -6.0416 S   0  0  0  0  0  0  0  0  0  0  0  0
   27.1276  -20.3612   -6.9730 C   0  0  0  0  0  0  0  0  0  0  0  0
   26.8588  -19.9080   -8.3557 C   0  0  0  0  0  0  0  0  0  0  0  0
   25.9307  -20.7062   -9.1747 C   0  0  2  0  0  0  0  0  0  0  0  0
   25.6941  -20.1720  -10.5037 N   0  0  0  0  0  0  0  0  0  0  0  0
   24.6654  -21.1116   -8.4935 C   0  0  0  0  0  0  0  0  0  0  0  0
   24.7779  -21.8565   -7.4740 O   0  0  0  0  0  0  0  0  0  0  0  0
   23.4029  -20.7588   -8.8649 O   0  0  0  0  0  0  0  0  0  0  0  0
  2  1  1  1
  3  4  1  0
  3  2  1  0
  4  5  2  0
  4  9  1  0
  5  6  1  0
  6  7  2  0
  8  7  1  0
  9  8  2  0
 10  2  1  0
 11 10  2  0
 12 10  1  0
 13 12  1  0
 13 18  1  0
 13 14  1  6
 15 16  1  0
 15 14  1  0
 16 20  1  0
 17 16  2  0
 18 26  1  0
 19 18  2  0
 21 22  1  0
 23 22  1  0
 24 23  1  0
 25 24  1  1
 25 27  1  0
 26 25  1  0
 27 28  2  0
 27 29  1  0
M  END
$$$$
