FEM.pdb
     RDKit          3D

 29 29  0  0  1  0  0  0  0  0999 V2000
   25.5141  -35.5008   -5.7884 N   0  0  0  0  0  0  0  0  0  0  0  0
   25.8637  -34.7635   -4.5944 C   0  0  1  0  0  0  0  0  0  0  0  0
   25.2575  -33.3948   -4.6993 C   0  0  0  0  0  0  0  0  0  0  0  0
   25.3869  -32.7759   -3.3534 C   0  0  0  0  0  0  0  0  0  0  0  0
   26.6099  -32.6278   -2.7345 C   0  0  0  0  0  0  0  0  0  0  0  0
   26.7183  -32.0531   -1.4765 C   0  0  0  0  0  0  0  0  0  0  0  0
   25.6083  -31.6073   -0.7972 C   0  0  0  0  0  0  0  0  0  0  0  0
   24.3788  -31.7448   -1.3955 C   0  0  0  0  0  0  0  0  0  0  0  0
   24.2854  -32.3279   -2.6664 C   0  0  0  0  0  0  0  0  0  0  0  0
   25.4346  -35.5260   -3.4172 C   0  0  0  0  0  0  0  0  0  0  0  0
   24.2436  -35.9891   -3.3384 O   0  0  0  0  0  0  0  0  0  0  0  0
   26.2562  -35.8176   -2.2935 N   0  0  0  0  0  0  0  0  0  0  0  0
   25.7542  -36.4099   -1.0720 C   0  0  1  0  0  0  0  0  0  0  0  0
   26.7983  -37.2581   -0.4307 C   0  0  0  0  0  0  0  0  0  0  0  0
   26.3948  -38.0791    0.7343 C   0  0  0  0  0  0  0  0  0  0  0  0
   27.3874  -38.9486    1.3386 C   0  0  0  0  0  0  0  0  0  0  0  0
   27.0632  -39.8152    2.1852 O   0  0  0  0  0  0  0  0  0  0  0  0
   25.1559  -35.4693   -0.1289 C   0  0  0  0  0  0  0  0  0  0  0  0
   25.7618  -34.4420    0.3044 O   0  0  0  0  0  0  0  0  0  0  0  0
   28.7247  -38.8402    0.9922 O   0  0  0  0  0  0  0  0  0  0  0  0
   19.7028  -30.9861    2.4083 C   0  0  0  0  0  0  0  0  0  0  0  0
   20.5121  -32.0111    1.1987 S   0  0  0  0  0  0  0  0  0  0  0  0
   20.9876  -33.6171    1.7795 C   0  0  0  0  0  0  0  0  0  0  0  0
   21.7920  -34.4347    0.8446 C   0  0  0  0  0  0  0  0  0  0  0  0
   23.1586  -34.8034    1.2517 C   0  0  2  0  0  0  0  0  0  0  0  0
   23.8370  -35.6973    0.3306 N   0  0  0  0  0  0  0  0  0  0  0  0
   23.3064  -35.2358    2.6731 C   0  0  0  0  0  0  0  0  0  0  0  0
   23.9721  -34.4738    3.4367 O   0  0  0  0  0  0  0  0  0  0  0  0
   22.7957  -36.3716    3.2258 O   0  0  0  0  0  0  0  0  0  0  0  0
  2  1  1  6
  3  4  1  0
  3  2  1  0
  4  5  2  0
  4  9  1  0
  5  6  1  0
  6  7  2  0
  8  7  1  0
  9  8  2  0
 10  2  1  0
 11 10  2  0
 12 10  1  0
 13 12  1  0
 13 18  1  0
 13 14  1  1
 15 16  1  0
 15 14  1  0
 16 20  1  0
 17 16  2  0
 18 26  1  0
 19 18  2  0
 21 22  1  0
 23 22  1  0
 24 23  1  0
 25 24  1  6
 25 27  1  0
 26 25  1  0
 27 28  2  0
 27 29  1  0
M  END
$$$$
