NYE.pdb
     RDKit          3D

 30 30  0  0  1  0  0  0  0  0999 V2000
   11.7730  -19.5020   17.0223 N   0  0  0  0  0  0  0  0  0  0  0  0
   10.8008  -19.4558   18.0553 C   0  0  0  0  0  0  0  0  0  0  0  0
    9.8065  -20.2082   17.9547 O   0  0  0  0  0  0  0  0  0  0  0  0
   10.9348  -18.5636   19.2134 C   0  0  0  0  0  0  0  0  0  0  0  0
    9.7164  -17.8230   19.6152 C   0  0  2  0  0  0  0  0  0  0  0  0
    9.0565  -17.1091   18.5717 N   0  0  0  0  0  0  0  0  0  0  0  0
    9.9408  -16.9670   20.8342 C   0  0  0  0  0  0  0  0  0  0  0  0
   10.9798  -16.2855   20.9272 O   0  0  0  0  0  0  0  0  0  0  0  0
    7.3829  -11.8026   18.7350 O   0  0  0  0  0  0  0  0  0  0  0  0
    7.5281  -12.6332   19.8609 C   0  0  0  0  0  0  0  0  0  0  0  0
    6.7547  -13.7623   19.9757 C   0  0  0  0  0  0  0  0  0  0  0  0
    6.8863  -14.5727   21.0604 C   0  0  0  0  0  0  0  0  0  0  0  0
    7.7929  -14.3122   22.0965 C   0  0  0  0  0  0  0  0  0  0  0  0
    7.8764  -15.2619   23.2263 C   0  0  0  0  0  0  0  0  0  0  0  0
    9.0506  -16.2319   23.0841 C   0  0  2  0  0  0  0  0  0  0  0  0
    8.9788  -16.9421   21.8586 N   0  0  0  0  0  0  0  0  0  0  0  0
    9.2439  -17.0553   24.2859 C   0  0  0  0  0  0  0  0  0  0  0  0
    8.3995  -17.9408   24.6378 O   0  0  0  0  0  0  0  0  0  0  0  0
    8.5502  -13.1830   21.9569 C   0  0  0  0  0  0  0  0  0  0  0  0
    8.4206  -12.3418   20.8420 C   0  0  0  0  0  0  0  0  0  0  0  0
   10.4019  -16.8499   25.0639 N   0  0  0  0  0  0  0  0  0  0  0  0
   10.7047  -17.7464   26.2152 C   0  0  1  0  0  0  0  0  0  0  0  0
   12.1106  -18.1735   26.0879 C   0  0  0  0  0  0  0  0  0  0  0  0
   12.6243  -18.5874   24.7520 C   0  0  0  0  0  0  0  0  0  0  0  0
   14.0200  -19.0487   24.7642 C   0  0  0  0  0  0  0  0  0  0  0  0
   14.6498  -19.0842   25.8449 O   0  0  0  0  0  0  0  0  0  0  0  0
   10.2235  -17.0929   27.3997 C   0  0  0  0  0  0  0  0  0  0  0  0
    9.8241  -15.8889   27.3873 O   0  0  0  0  0  0  0  0  0  0  0  0
   14.6983  -19.4647   23.6050 O   0  0  0  0  0  0  0  0  0  0  0  0
   10.1504  -17.7158   28.6315 O   0  0  0  0  0  0  0  0  0  0  0  0
  2  1  1  0
  2  3  2  0
  4  2  1  0
  5  4  1  0
  5  6  1  6
  7  5  1  0
  7  8  2  0
 10 20  2  0
 10  9  1  0
 11 10  1  0
 12 13  1  0
 12 11  2  0
 13 19  2  0
 14 13  1  0
 15 14  1  1
 15 16  1  0
 16  7  1  0
 17 15  1  0
 17 18  2  0
 19 20  1  0
 21 22  1  0
 21 17  1  0
 22 23  1  1
 23 24  1  0
 24 25  1  0
 25 29  1  0
 25 26  2  0
 27 22  1  0
 28 27  2  0
 30 27  1  0
M  END
$$$$
