NYE.pdb
     RDKit          3D

 30 30  0  0  1  0  0  0  0  0999 V2000
    7.7543  -13.0745   16.7742 N   0  0  0  0  0  0  0  0  0  0  0  0
    8.5039  -14.2798   16.7741 C   0  0  0  0  0  0  0  0  0  0  0  0
    8.3823  -15.0423   15.7899 O   0  0  0  0  0  0  0  0  0  0  0  0
    9.3988  -14.6421   17.8800 C   0  0  0  0  0  0  0  0  0  0  0  0
    8.8521  -15.5835   18.8847 C   0  0  2  0  0  0  0  0  0  0  0  0
    7.4925  -15.9690   18.6928 N   0  0  0  0  0  0  0  0  0  0  0  0
    9.1207  -15.1349   20.2974 C   0  0  0  0  0  0  0  0  0  0  0  0
   10.2898  -14.9007   20.6590 O   0  0  0  0  0  0  0  0  0  0  0  0
    7.1846  -12.4079   28.5282 O   0  0  0  0  0  0  0  0  0  0  0  0
    7.1664  -12.7005   27.1526 C   0  0  0  0  0  0  0  0  0  0  0  0
    6.5380  -13.8382   26.7088 C   0  0  0  0  0  0  0  0  0  0  0  0
    6.5144  -14.1315   25.3805 C   0  0  0  0  0  0  0  0  0  0  0  0
    7.1127  -13.3141   24.4125 C   0  0  0  0  0  0  0  0  0  0  0  0
    7.0188  -13.7074   22.9905 C   0  0  0  0  0  0  0  0  0  0  0  0
    8.1348  -14.6692   22.5790 C   0  0  2  0  0  0  0  0  0  0  0  0
    8.0527  -14.9836   21.1986 N   0  0  0  0  0  0  0  0  0  0  0  0
    8.2449  -15.8189   23.4878 C   0  0  0  0  0  0  0  0  0  0  0  0
    7.4210  -16.7888   23.4486 O   0  0  0  0  0  0  0  0  0  0  0  0
    7.7305  -12.1885   24.8810 C   0  0  0  0  0  0  0  0  0  0  0  0
    7.7597  -11.8788   26.2487 C   0  0  0  0  0  0  0  0  0  0  0  0
    9.2977  -15.8377   24.4256 N   0  0  0  0  0  0  0  0  0  0  0  0
    9.8253  -17.1331   24.9400 C   0  0  1  0  0  0  0  0  0  0  0  0
   10.9271  -17.5480   24.0517 C   0  0  0  0  0  0  0  0  0  0  0  0
   11.7395  -18.7432   24.4142 C   0  0  0  0  0  0  0  0  0  0  0  0
   12.8189  -19.0440   23.4628 C   0  0  0  0  0  0  0  0  0  0  0  0
   13.6346  -19.9569   23.7218 O   0  0  0  0  0  0  0  0  0  0  0  0
   10.0190  -16.9805   26.3546 C   0  0  0  0  0  0  0  0  0  0  0  0
   10.1985  -15.8441   26.8891 O   0  0  0  0  0  0  0  0  0  0  0  0
   12.9856  -18.3509   22.2509 O   0  0  0  0  0  0  0  0  0  0  0  0
   10.0184  -18.0437   27.2379 O   0  0  0  0  0  0  0  0  0  0  0  0
  2  1  1  0
  2  3  2  0
  4  2  1  0
  5  4  1  0
  5  6  1  1
  7  5  1  0
  7  8  2  0
 10 20  2  0
 10  9  1  0
 11 10  1  0
 12 13  1  0
 12 11  2  0
 13 19  2  0
 14 13  1  0
 15 14  1  1
 15 16  1  0
 16  7  1  0
 17 15  1  0
 17 18  2  0
 19 20  1  0
 21 22  1  0
 21 17  1  0
 22 23  1  6
 23 24  1  0
 24 25  1  0
 25 29  1  0
 25 26  2  0
 27 22  1  0
 28 27  2  0
 30 27  1  0
M  END
$$$$
