NYE.pdb
     RDKit          3D

 30 30  0  0  1  0  0  0  0  0999 V2000
    8.9517  -18.6323   17.4692 N   0  0  0  0  0  0  0  0  0  0  0  0
    8.6284  -19.1492   18.7508 C   0  0  0  0  0  0  0  0  0  0  0  0
    8.0857  -20.2749   18.8059 O   0  0  0  0  0  0  0  0  0  0  0  0
    8.9113  -18.4070   19.9855 C   0  0  0  0  0  0  0  0  0  0  0  0
    9.3461  -17.0006   19.8202 C   0  0  2  0  0  0  0  0  0  0  0  0
   10.4342  -16.7930   18.9220 N   0  0  0  0  0  0  0  0  0  0  0  0
    9.5598  -16.3070   21.1402 C   0  0  0  0  0  0  0  0  0  0  0  0
   10.6504  -16.4265   21.7309 O   0  0  0  0  0  0  0  0  0  0  0  0
    7.0023  -11.5935   28.2891 O   0  0  0  0  0  0  0  0  0  0  0  0
    7.1010  -12.1719   27.0108 C   0  0  0  0  0  0  0  0  0  0  0  0
    6.3747  -13.3003   26.7183 C   0  0  0  0  0  0  0  0  0  0  0  0
    6.4625  -13.8684   25.4853 C   0  0  0  0  0  0  0  0  0  0  0  0
    7.2759  -13.3517   24.4681 C   0  0  0  0  0  0  0  0  0  0  0  0
    7.2912  -14.0291   23.1543 C   0  0  0  0  0  0  0  0  0  0  0  0
    8.4887  -14.9682   22.9989 C   0  0  2  0  0  0  0  0  0  0  0  0
    8.5293  -15.5305   21.6977 N   0  0  0  0  0  0  0  0  0  0  0  0
    8.5959  -15.9252   24.1090 C   0  0  0  0  0  0  0  0  0  0  0  0
    7.8574  -16.9600   24.1789 O   0  0  0  0  0  0  0  0  0  0  0  0
    7.9871  -12.2285   24.7855 C   0  0  0  0  0  0  0  0  0  0  0  0
    7.9026  -11.6366   26.0543 C   0  0  0  0  0  0  0  0  0  0  0  0
    9.5480  -15.6803   25.1199 N   0  0  0  0  0  0  0  0  0  0  0  0
    9.9556  -16.7703   26.0508 C   0  0  1  0  0  0  0  0  0  0  0  0
   11.1113  -17.4603   25.4477 C   0  0  0  0  0  0  0  0  0  0  0  0
   11.8141  -18.5159   26.2297 C   0  0  0  0  0  0  0  0  0  0  0  0
   12.9578  -19.1179   25.5293 C   0  0  0  0  0  0  0  0  0  0  0  0
   13.7646  -19.8331   26.1642 O   0  0  0  0  0  0  0  0  0  0  0  0
   10.0253  -16.2002   27.3668 C   0  0  0  0  0  0  0  0  0  0  0  0
    9.9123  -16.9093   28.4126 O   0  0  0  0  0  0  0  0  0  0  0  0
   13.1969  -18.9337   24.1561 O   0  0  0  0  0  0  0  0  0  0  0  0
   10.2257  -14.8524   27.5985 O   0  0  0  0  0  0  0  0  0  0  0  0
  2  1  1  0
  2  3  2  0
  4  2  1  0
  5  4  1  0
  5  6  1  1
  7  5  1  0
  7  8  2  0
 10 20  2  0
 10  9  1  0
 11 10  1  0
 12 13  1  0
 12 11  2  0
 13 19  2  0
 14 13  1  0
 15 14  1  1
 15 16  1  0
 16  7  1  0
 17 15  1  0
 17 18  2  0
 19 20  1  0
 21 22  1  0
 21 17  1  0
 22 23  1  6
 23 24  1  0
 24 25  1  0
 25 29  1  0
 25 26  2  0
 27 22  1  0
 28 27  2  0
 30 27  1  0
M  END
$$$$
