NYE.pdb
     RDKit          3D

 30 30  0  0  1  0  0  0  0  0999 V2000
    8.0801  -17.9056   16.5759 N   0  0  0  0  0  0  0  0  0  0  0  0
    9.2159  -17.0571   16.6430 C   0  0  0  0  0  0  0  0  0  0  0  0
    9.7079  -16.6546   15.5657 O   0  0  0  0  0  0  0  0  0  0  0  0
    9.8118  -16.6510   17.9218 C   0  0  0  0  0  0  0  0  0  0  0  0
    9.1582  -17.1720   19.1448 C   0  0  2  0  0  0  0  0  0  0  0  0
    7.7822  -17.5212   19.0076 N   0  0  0  0  0  0  0  0  0  0  0  0
    9.4041  -16.2953   20.3448 C   0  0  0  0  0  0  0  0  0  0  0  0
   10.5723  -16.0185   20.6781 O   0  0  0  0  0  0  0  0  0  0  0  0
    6.9457  -12.1509   27.8652 O   0  0  0  0  0  0  0  0  0  0  0  0
    7.0079  -12.6682   26.5587 C   0  0  0  0  0  0  0  0  0  0  0  0
    6.4327  -13.8842   26.2819 C   0  0  0  0  0  0  0  0  0  0  0  0
    6.4870  -14.3944   25.0219 C   0  0  0  0  0  0  0  0  0  0  0  0
    7.1150  -13.7293   23.9606 C   0  0  0  0  0  0  0  0  0  0  0  0
    7.1065  -14.3560   22.6217 C   0  0  0  0  0  0  0  0  0  0  0  0
    8.3527  -15.2068   22.3708 C   0  0  2  0  0  0  0  0  0  0  0  0
    8.3161  -15.7955   21.0811 N   0  0  0  0  0  0  0  0  0  0  0  0
    8.6344  -16.1264   23.4820 C   0  0  0  0  0  0  0  0  0  0  0  0
    7.9619  -17.1929   23.6596 O   0  0  0  0  0  0  0  0  0  0  0  0
    7.6786  -12.5214   24.2632 C   0  0  0  0  0  0  0  0  0  0  0  0
    7.6274  -11.9883   25.5596 C   0  0  0  0  0  0  0  0  0  0  0  0
    9.6822  -15.8084   24.3703 N   0  0  0  0  0  0  0  0  0  0  0  0
   10.3739  -16.8842   25.1353 C   0  0  1  0  0  0  0  0  0  0  0  0
   11.7712  -16.9346   24.6660 C   0  0  0  0  0  0  0  0  0  0  0  0
   12.7416  -17.8177   25.3721 C   0  0  0  0  0  0  0  0  0  0  0  0
   14.0984  -17.7880   24.8073 C   0  0  0  0  0  0  0  0  0  0  0  0
   14.3230  -17.1200   23.7734 O   0  0  0  0  0  0  0  0  0  0  0  0
   10.0547  -16.6912   26.5218 C   0  0  0  0  0  0  0  0  0  0  0  0
   10.1604  -17.6269   27.3718 O   0  0  0  0  0  0  0  0  0  0  0  0
   15.1804  -18.4796   25.3797 O   0  0  0  0  0  0  0  0  0  0  0  0
    9.6190  -15.4851   27.0377 O   0  0  0  0  0  0  0  0  0  0  0  0
  2  1  1  0
  2  3  2  0
  4  2  1  0
  5  4  1  0
  5  6  1  6
  7  5  1  0
  7  8  2  0
 10 20  2  0
 10  9  1  0
 11 10  1  0
 12 13  1  0
 12 11  2  0
 13 19  2  0
 14 13  1  0
 15 14  1  1
 15 16  1  0
 16  7  1  0
 17 15  1  0
 17 18  2  0
 19 20  1  0
 21 22  1  0
 21 17  1  0
 22 23  1  1
 23 24  1  0
 24 25  1  0
 25 29  1  0
 25 26  2  0
 27 22  1  0
 28 27  2  0
 30 27  1  0
M  END
$$$$
