NYE.pdb
     RDKit          3D

 30 30  0  0  1  0  0  0  0  0999 V2000
   11.6138  -17.1891   16.8175 N   0  0  0  0  0  0  0  0  0  0  0  0
   10.5187  -17.5397   17.6496 C   0  0  0  0  0  0  0  0  0  0  0  0
    9.7717  -18.4686   17.2702 O   0  0  0  0  0  0  0  0  0  0  0  0
   10.2504  -16.8503   18.9176 C   0  0  0  0  0  0  0  0  0  0  0  0
   10.1955  -17.7022   20.1284 C   0  0  2  0  0  0  0  0  0  0  0  0
    9.1541  -18.6764   20.1502 N   0  0  0  0  0  0  0  0  0  0  0  0
   10.2450  -16.8961   21.3999 C   0  0  0  0  0  0  0  0  0  0  0  0
   11.2474  -16.1997   21.6507 O   0  0  0  0  0  0  0  0  0  0  0  0
    7.6087  -11.8672   19.0783 O   0  0  0  0  0  0  0  0  0  0  0  0
    7.6439  -12.7530   20.1704 C   0  0  0  0  0  0  0  0  0  0  0  0
    8.4221  -12.4543   21.2619 C   0  0  0  0  0  0  0  0  0  0  0  0
    8.4641  -13.3037   22.3237 C   0  0  0  0  0  0  0  0  0  0  0  0
    7.7367  -14.5005   22.3670 C   0  0  0  0  0  0  0  0  0  0  0  0
    7.8330  -15.3500   23.5730 C   0  0  0  0  0  0  0  0  0  0  0  0
    9.0577  -16.2661   23.5419 C   0  0  2  0  0  0  0  0  0  0  0  0
    9.1623  -16.9342   22.2953 N   0  0  0  0  0  0  0  0  0  0  0  0
    9.1444  -17.1235   24.7323 C   0  0  0  0  0  0  0  0  0  0  0  0
    8.2805  -18.0266   24.9753 O   0  0  0  0  0  0  0  0  0  0  0  0
    6.9704  -14.7731   21.2685 C   0  0  0  0  0  0  0  0  0  0  0  0
    6.9216  -13.9030   20.1695 C   0  0  0  0  0  0  0  0  0  0  0  0
   10.2200  -16.9315   25.6236 N   0  0  0  0  0  0  0  0  0  0  0  0
   10.6191  -18.0141   26.5669 C   0  0  1  0  0  0  0  0  0  0  0  0
   11.9492  -18.4972   26.1514 C   0  0  0  0  0  0  0  0  0  0  0  0
   12.6149  -19.5644   26.9501 C   0  0  0  0  0  0  0  0  0  0  0  0
   13.9328  -19.9630   26.4354 C   0  0  0  0  0  0  0  0  0  0  0  0
   14.9600  -19.7087   27.1032 O   0  0  0  0  0  0  0  0  0  0  0  0
   10.3791  -17.5281   27.8965 C   0  0  0  0  0  0  0  0  0  0  0  0
   10.2114  -16.2945   28.1406 O   0  0  0  0  0  0  0  0  0  0  0  0
   14.1054  -20.6320   25.2109 O   0  0  0  0  0  0  0  0  0  0  0  0
   10.3049  -18.3538   29.0026 O   0  0  0  0  0  0  0  0  0  0  0  0
  2  1  1  0
  2  3  2  0
  4  2  1  0
  5  4  1  0
  5  6  1  6
  7  5  1  0
  7  8  2  0
 10 20  2  0
 10  9  1  0
 11 10  1  0
 12 13  1  0
 12 11  2  0
 13 19  2  0
 14 13  1  0
 15 14  1  6
 15 16  1  0
 16  7  1  0
 17 15  1  0
 17 18  2  0
 19 20  1  0
 21 22  1  0
 21 17  1  0
 22 23  1  1
 23 24  1  0
 24 25  1  0
 25 29  1  0
 25 26  2  0
 27 22  1  0
 28 27  2  0
 30 27  1  0
M  END
$$$$
