NYE.pdb
     RDKit          3D

 30 30  0  0  1  0  0  0  0  0999 V2000
   10.2136  -18.8072   15.6569 N   0  0  0  0  0  0  0  0  0  0  0  0
   10.2509  -17.3998   15.8365 C   0  0  0  0  0  0  0  0  0  0  0  0
   10.3557  -16.6840   14.8160 O   0  0  0  0  0  0  0  0  0  0  0  0
   10.1709  -16.7805   17.1652 C   0  0  0  0  0  0  0  0  0  0  0  0
   10.1922  -17.7053   18.3222 C   0  0  2  0  0  0  0  0  0  0  0  0
    9.0702  -18.5784   18.4347 N   0  0  0  0  0  0  0  0  0  0  0  0
   10.4922  -16.9972   19.6175 C   0  0  0  0  0  0  0  0  0  0  0  0
   11.5947  -16.4383   19.7745 O   0  0  0  0  0  0  0  0  0  0  0  0
    7.5416  -11.5409   18.2784 O   0  0  0  0  0  0  0  0  0  0  0  0
    7.7456  -12.5430   19.2443 C   0  0  0  0  0  0  0  0  0  0  0  0
    8.7005  -12.3655   20.2153 C   0  0  0  0  0  0  0  0  0  0  0  0
    8.9067  -13.3280   21.1543 C   0  0  0  0  0  0  0  0  0  0  0  0
    8.1783  -14.5245   21.1868 C   0  0  0  0  0  0  0  0  0  0  0  0
    8.4623  -15.5031   22.2579 C   0  0  0  0  0  0  0  0  0  0  0  0
    9.6619  -16.3931   21.9284 C   0  0  2  0  0  0  0  0  0  0  0  0
    9.5285  -16.9712   20.6403 N   0  0  0  0  0  0  0  0  0  0  0  0
    9.9784  -17.3294   23.0160 C   0  0  0  0  0  0  0  0  0  0  0  0
    9.1621  -18.2347   23.3833 O   0  0  0  0  0  0  0  0  0  0  0  0
    7.2345  -14.6753   20.2098 C   0  0  0  0  0  0  0  0  0  0  0  0
    7.0157  -13.6880   19.2378 C   0  0  0  0  0  0  0  0  0  0  0  0
   11.2254  -17.2124   23.6639 N   0  0  0  0  0  0  0  0  0  0  0  0
   11.6260  -18.1954   24.7098 C   0  0  1  0  0  0  0  0  0  0  0  0
   13.0854  -18.3829   24.6075 C   0  0  0  0  0  0  0  0  0  0  0  0
   13.6652  -18.8728   23.3255 C   0  0  0  0  0  0  0  0  0  0  0  0
   15.1322  -18.9655   23.3289 C   0  0  0  0  0  0  0  0  0  0  0  0
   15.6881  -19.9490   23.8669 O   0  0  0  0  0  0  0  0  0  0  0  0
   11.0068  -17.7839   25.9383 C   0  0  0  0  0  0  0  0  0  0  0  0
   10.6118  -16.5930   26.1251 O   0  0  0  0  0  0  0  0  0  0  0  0
   15.9615  -17.9919   22.7449 O   0  0  0  0  0  0  0  0  0  0  0  0
   10.7873  -18.6414   26.9999 O   0  0  0  0  0  0  0  0  0  0  0  0
  2  1  1  0
  2  3  2  0
  4  2  1  0
  5  4  1  0
  5  6  1  1
  7  5  1  0
  7  8  2  0
 10 20  2  0
 10  9  1  0
 11 10  1  0
 12 13  1  0
 12 11  2  0
 13 19  2  0
 14 13  1  0
 15 14  1  1
 15 16  1  0
 16  7  1  0
 17 15  1  0
 17 18  2  0
 19 20  1  0
 21 22  1  0
 21 17  1  0
 22 23  1  1
 23 24  1  0
 24 25  1  0
 25 29  1  0
 25 26  2  0
 27 22  1  0
 28 27  2  0
 30 27  1  0
M  END
$$$$
