NYE.pdb
     RDKit          3D

 30 30  0  0  1  0  0  0  0  0999 V2000
    9.5539  -16.4170   15.9240 N   0  0  0  0  0  0  0  0  0  0  0  0
   10.3146  -17.0295   16.9539 C   0  0  0  0  0  0  0  0  0  0  0  0
   10.8880  -18.1098   16.6918 O   0  0  0  0  0  0  0  0  0  0  0  0
   10.4396  -16.4348   18.2903 C   0  0  0  0  0  0  0  0  0  0  0  0
    9.7202  -17.1258   19.3855 C   0  0  2  0  0  0  0  0  0  0  0  0
    8.3727  -17.4962   19.1008 N   0  0  0  0  0  0  0  0  0  0  0  0
    9.8435  -16.4008   20.7002 C   0  0  0  0  0  0  0  0  0  0  0  0
   10.9678  -16.2367   21.2115 O   0  0  0  0  0  0  0  0  0  0  0  0
    7.1284  -11.7631   27.7658 O   0  0  0  0  0  0  0  0  0  0  0  0
    7.1719  -12.4424   26.5349 C   0  0  0  0  0  0  0  0  0  0  0  0
    7.7643  -11.8441   25.4499 C   0  0  0  0  0  0  0  0  0  0  0  0
    7.8119  -12.4915   24.2544 C   0  0  0  0  0  0  0  0  0  0  0  0
    7.2748  -13.7714   24.0629 C   0  0  0  0  0  0  0  0  0  0  0  0
    7.3912  -14.4013   22.7306 C   0  0  0  0  0  0  0  0  0  0  0  0
    8.6144  -15.3136   22.6242 C   0  0  2  0  0  0  0  0  0  0  0  0
    8.6915  -15.9146   21.3420 N   0  0  0  0  0  0  0  0  0  0  0  0
    8.7267  -16.2329   23.7653 C   0  0  0  0  0  0  0  0  0  0  0  0
    7.9319  -17.2156   23.9183 O   0  0  0  0  0  0  0  0  0  0  0  0
    6.6919  -14.3440   25.1586 C   0  0  0  0  0  0  0  0  0  0  0  0
    6.6383  -13.6833   26.3947 C   0  0  0  0  0  0  0  0  0  0  0  0
    9.7483  -16.0103   24.7114 N   0  0  0  0  0  0  0  0  0  0  0  0
   10.1641  -17.0984   25.6410 C   0  0  1  0  0  0  0  0  0  0  0  0
   11.3582  -17.7436   25.0637 C   0  0  0  0  0  0  0  0  0  0  0  0
   12.0421  -18.8218   25.8315 C   0  0  0  0  0  0  0  0  0  0  0  0
   13.2501  -19.3471   25.1791 C   0  0  0  0  0  0  0  0  0  0  0  0
   14.1256  -19.9180   25.8670 O   0  0  0  0  0  0  0  0  0  0  0  0
   10.1776  -16.5431   26.9651 C   0  0  0  0  0  0  0  0  0  0  0  0
   10.1784  -17.2758   28.0006 O   0  0  0  0  0  0  0  0  0  0  0  0
   13.4780  -19.2448   23.7954 O   0  0  0  0  0  0  0  0  0  0  0  0
   10.1980  -15.1839   27.2159 O   0  0  0  0  0  0  0  0  0  0  0  0
  2  1  1  0
  2  3  2  0
  4  2  1  0
  5  4  1  0
  5  6  1  6
  7  5  1  0
  7  8  2  0
 10 20  2  0
 10  9  1  0
 11 10  1  0
 12 13  1  0
 12 11  2  0
 13 19  2  0
 14 13  1  0
 15 14  1  6
 15 16  1  0
 16  7  1  0
 17 15  1  0
 17 18  2  0
 19 20  1  0
 21 22  1  0
 21 17  1  0
 22 23  1  6
 23 24  1  0
 24 25  1  0
 25 29  1  0
 25 26  2  0
 27 22  1  0
 28 27  2  0
 30 27  1  0
M  END
$$$$
