NYE.pdb
     RDKit          3D

 30 30  0  0  1  0  0  0  0  0999 V2000
    8.1375  -15.7822   15.4654 N   0  0  0  0  0  0  0  0  0  0  0  0
    8.9755  -16.3320   16.4703 C   0  0  0  0  0  0  0  0  0  0  0  0
    9.6349  -17.3558   16.1843 O   0  0  0  0  0  0  0  0  0  0  0  0
    9.0822  -15.7376   17.8084 C   0  0  0  0  0  0  0  0  0  0  0  0
    8.9397  -16.6678   18.9526 C   0  0  2  0  0  0  0  0  0  0  0  0
    7.7429  -17.4433   18.9715 N   0  0  0  0  0  0  0  0  0  0  0  0
    9.2009  -15.9953   20.2749 C   0  0  0  0  0  0  0  0  0  0  0  0
   10.3506  -15.6022   20.5511 O   0  0  0  0  0  0  0  0  0  0  0  0
    7.2472  -11.9393   27.8883 O   0  0  0  0  0  0  0  0  0  0  0  0
    7.1389  -12.6622   26.6866 C   0  0  0  0  0  0  0  0  0  0  0  0
    7.3830  -12.0321   25.4909 C   0  0  0  0  0  0  0  0  0  0  0  0
    7.2809  -12.7213   24.3224 C   0  0  0  0  0  0  0  0  0  0  0  0
    6.9306  -14.0769   24.2694 C   0  0  0  0  0  0  0  0  0  0  0  0
    6.8629  -14.7446   22.9522 C   0  0  0  0  0  0  0  0  0  0  0  0
    8.2287  -15.2541   22.4885 C   0  0  2  0  0  0  0  0  0  0  0  0
    8.1482  -15.8156   21.1887 N   0  0  0  0  0  0  0  0  0  0  0  0
    8.8870  -16.0897   23.5025 C   0  0  0  0  0  0  0  0  0  0  0  0
    8.4950  -17.2741   23.7562 O   0  0  0  0  0  0  0  0  0  0  0  0
    6.6937  -14.6795   25.4730 C   0  0  0  0  0  0  0  0  0  0  0  0
    6.7964  -13.9763   26.6823 C   0  0  0  0  0  0  0  0  0  0  0  0
    9.9837  -15.5535   24.2083 N   0  0  0  0  0  0  0  0  0  0  0  0
   10.8243  -16.4295   25.0726 C   0  0  1  0  0  0  0  0  0  0  0  0
   12.2357  -16.1529   24.7462 C   0  0  0  0  0  0  0  0  0  0  0  0
   12.9850  -17.1175   23.8930 C   0  0  0  0  0  0  0  0  0  0  0  0
   14.3711  -16.7167   23.6121 C   0  0  0  0  0  0  0  0  0  0  0  0
   15.2715  -16.9845   24.4388 O   0  0  0  0  0  0  0  0  0  0  0  0
   10.3262  -16.3059   26.4137 C   0  0  0  0  0  0  0  0  0  0  0  0
    9.5654  -15.3526   26.7623 O   0  0  0  0  0  0  0  0  0  0  0  0
   14.7488  -16.0391   22.4395 O   0  0  0  0  0  0  0  0  0  0  0  0
   10.6252  -17.2070   27.4184 O   0  0  0  0  0  0  0  0  0  0  0  0
  2  1  1  0
  2  3  2  0
  4  2  1  0
  5  4  1  0
  5  6  1  1
  7  5  1  0
  7  8  2  0
 10 20  2  0
 10  9  1  0
 11 10  1  0
 12 13  1  0
 12 11  2  0
 13 19  2  0
 14 13  1  0
 15 14  1  1
 15 16  1  0
 16  7  1  0
 17 15  1  0
 17 18  2  0
 19 20  1  0
 21 22  1  0
 21 17  1  0
 22 23  1  1
 23 24  1  0
 24 25  1  0
 25 29  1  0
 25 26  2  0
 27 22  1  0
 28 27  2  0
 30 27  1  0
M  END
$$$$
