NYE.pdb
     RDKit          3D

 30 30  0  0  1  0  0  0  0  0999 V2000
    9.5702  -18.3511   16.9541 N   0  0  0  0  0  0  0  0  0  0  0  0
   10.7090  -17.5852   17.3160 C   0  0  0  0  0  0  0  0  0  0  0  0
   11.6216  -17.4611   16.4696 O   0  0  0  0  0  0  0  0  0  0  0  0
   10.8353  -16.9499   18.6334 C   0  0  0  0  0  0  0  0  0  0  0  0
    9.7800  -17.2733   19.6214 C   0  0  2  0  0  0  0  0  0  0  0  0
    8.4490  -17.3145   19.1109 N   0  0  0  0  0  0  0  0  0  0  0  0
    9.8838  -16.4338   20.8678 C   0  0  0  0  0  0  0  0  0  0  0  0
   11.0010  -16.2186   21.3758 O   0  0  0  0  0  0  0  0  0  0  0  0
    6.6742  -12.0594   27.9481 O   0  0  0  0  0  0  0  0  0  0  0  0
    6.8512  -12.6328   26.6760 C   0  0  0  0  0  0  0  0  0  0  0  0
    6.4056  -13.9101   26.4392 C   0  0  0  0  0  0  0  0  0  0  0  0
    6.5717  -14.4750   25.2128 C   0  0  0  0  0  0  0  0  0  0  0  0
    7.1898  -13.8071   24.1474 C   0  0  0  0  0  0  0  0  0  0  0  0
    7.3083  -14.4976   22.8457 C   0  0  0  0  0  0  0  0  0  0  0  0
    8.6009  -15.3079   22.7336 C   0  0  2  0  0  0  0  0  0  0  0  0
    8.7218  -15.8989   21.4501 N   0  0  0  0  0  0  0  0  0  0  0  0
    8.7911  -16.2168   23.8727 C   0  0  0  0  0  0  0  0  0  0  0  0
    8.0921  -17.2712   24.0162 O   0  0  0  0  0  0  0  0  0  0  0  0
    7.6233  -12.5377   24.4099 C   0  0  0  0  0  0  0  0  0  0  0  0
    7.4563  -11.9480   25.6715 C   0  0  0  0  0  0  0  0  0  0  0  0
    9.7796  -15.9018   24.8278 N   0  0  0  0  0  0  0  0  0  0  0  0
   10.3286  -16.9610   25.7209 C   0  0  1  0  0  0  0  0  0  0  0  0
   11.6499  -17.3474   25.1914 C   0  0  0  0  0  0  0  0  0  0  0  0
   12.4660  -18.3459   25.9376 C   0  0  0  0  0  0  0  0  0  0  0  0
   13.7641  -18.6430   25.3151 C   0  0  0  0  0  0  0  0  0  0  0  0
   14.2184  -17.8761   24.4369 O   0  0  0  0  0  0  0  0  0  0  0  0
   10.1667  -16.5026   27.0720 C   0  0  0  0  0  0  0  0  0  0  0  0
    9.9170  -15.2890   27.3440 O   0  0  0  0  0  0  0  0  0  0  0  0
   14.5408  -19.7622   25.6627 O   0  0  0  0  0  0  0  0  0  0  0  0
   10.2611  -17.3360   28.1707 O   0  0  0  0  0  0  0  0  0  0  0  0
  2  1  1  0
  2  3  2  0
  4  2  1  0
  5  4  1  0
  5  6  1  6
  7  5  1  0
  7  8  2  0
 10 20  2  0
 10  9  1  0
 11 10  1  0
 12 13  1  0
 12 11  2  0
 13 19  2  0
 14 13  1  0
 15 14  1  1
 15 16  1  0
 16  7  1  0
 17 15  1  0
 17 18  2  0
 19 20  1  0
 21 22  1  0
 21 17  1  0
 22 23  1  6
 23 24  1  0
 24 25  1  0
 25 29  1  0
 25 26  2  0
 27 22  1  0
 28 27  2  0
 30 27  1  0
M  END
$$$$
