NYE.pdb
     RDKit          3D

 30 30  0  0  1  0  0  0  0  0999 V2000
    8.5974  -18.0078   16.7703 N   0  0  0  0  0  0  0  0  0  0  0  0
    9.8072  -17.2844   16.9360 C   0  0  0  0  0  0  0  0  0  0  0  0
   10.4616  -16.9990   15.9089 O   0  0  0  0  0  0  0  0  0  0  0  0
   10.2955  -16.8733   18.2580 C   0  0  0  0  0  0  0  0  0  0  0  0
    9.5174  -17.3542   19.4233 C   0  0  2  0  0  0  0  0  0  0  0  0
    8.1507  -17.6689   19.1648 N   0  0  0  0  0  0  0  0  0  0  0  0
    9.6764  -16.4626   20.6270 C   0  0  0  0  0  0  0  0  0  0  0  0
   10.8152  -16.1044   20.9838 O   0  0  0  0  0  0  0  0  0  0  0  0
    6.8189  -12.0079   27.8221 O   0  0  0  0  0  0  0  0  0  0  0  0
    6.9285  -12.6320   26.5663 C   0  0  0  0  0  0  0  0  0  0  0  0
    6.4411  -13.9046   26.3960 C   0  0  0  0  0  0  0  0  0  0  0  0
    6.5420  -14.5182   25.1860 C   0  0  0  0  0  0  0  0  0  0  0  0
    7.1322  -13.9066   24.0721 C   0  0  0  0  0  0  0  0  0  0  0  0
    7.1791  -14.6472   22.7935 C   0  0  0  0  0  0  0  0  0  0  0  0
    8.5149  -15.3631   22.5857 C   0  0  2  0  0  0  0  0  0  0  0  0
    8.5411  -16.0406   21.3402 N   0  0  0  0  0  0  0  0  0  0  0  0
    8.9072  -16.1640   23.7538 C   0  0  0  0  0  0  0  0  0  0  0  0
    8.4283  -17.3245   23.9655 O   0  0  0  0  0  0  0  0  0  0  0  0
    7.6083  -12.6406   24.2689 C   0  0  0  0  0  0  0  0  0  0  0  0
    7.5086  -12.0008   25.5131 C   0  0  0  0  0  0  0  0  0  0  0  0
    9.8421  -15.6213   24.6592 N   0  0  0  0  0  0  0  0  0  0  0  0
   10.6843  -16.5181   25.5003 C   0  0  1  0  0  0  0  0  0  0  0  0
   12.0756  -16.3935   25.0270 C   0  0  0  0  0  0  0  0  0  0  0  0
   12.8617  -17.6293   24.7537 C   0  0  0  0  0  0  0  0  0  0  0  0
   14.2206  -17.3758   24.2539 C   0  0  0  0  0  0  0  0  0  0  0  0
   14.7305  -16.2421   24.3973 O   0  0  0  0  0  0  0  0  0  0  0  0
   10.3326  -16.2688   26.8699 C   0  0  0  0  0  0  0  0  0  0  0  0
   10.4977  -17.1420   27.7753 O   0  0  0  0  0  0  0  0  0  0  0  0
   14.9963  -18.3589   23.6146 O   0  0  0  0  0  0  0  0  0  0  0  0
    9.7998  -15.0713   27.3089 O   0  0  0  0  0  0  0  0  0  0  0  0
  2  1  1  0
  2  3  2  0
  4  2  1  0
  5  4  1  0
  5  6  1  6
  7  5  1  0
  7  8  2  0
 10 20  2  0
 10  9  1  0
 11 10  1  0
 12 13  1  0
 12 11  2  0
 13 19  2  0
 14 13  1  0
 15 14  1  1
 15 16  1  0
 16  7  1  0
 17 15  1  0
 17 18  2  0
 19 20  1  0
 21 22  1  0
 21 17  1  0
 22 23  1  1
 23 24  1  0
 24 25  1  0
 25 29  1  0
 25 26  2  0
 27 22  1  0
 28 27  2  0
 30 27  1  0
M  END
$$$$
