NYE.pdb
     RDKit          3D

 30 30  0  0  1  0  0  0  0  0999 V2000
    9.1303  -18.3633   15.7835 N   0  0  0  0  0  0  0  0  0  0  0  0
    8.2841  -17.2885   16.1621 C   0  0  0  0  0  0  0  0  0  0  0  0
    7.3180  -17.0159   15.4157 O   0  0  0  0  0  0  0  0  0  0  0  0
    8.5138  -16.5078   17.3839 C   0  0  0  0  0  0  0  0  0  0  0  0
    8.6086  -17.2776   18.6460 C   0  0  2  0  0  0  0  0  0  0  0  0
    7.5309  -18.1756   18.9031 N   0  0  0  0  0  0  0  0  0  0  0  0
    8.9110  -16.3999   19.8323 C   0  0  0  0  0  0  0  0  0  0  0  0
    9.9740  -15.7506   19.8648 O   0  0  0  0  0  0  0  0  0  0  0  0
    7.0584  -12.1875   27.4808 O   0  0  0  0  0  0  0  0  0  0  0  0
    7.0336  -13.0072   26.3380 C   0  0  0  0  0  0  0  0  0  0  0  0
    6.5446  -14.2872   26.4312 C   0  0  0  0  0  0  0  0  0  0  0  0
    6.5162  -15.0891   25.3326 C   0  0  0  0  0  0  0  0  0  0  0  0
    6.9710  -14.6697   24.0754 C   0  0  0  0  0  0  0  0  0  0  0  0
    6.8828  -15.6077   22.9361 C   0  0  0  0  0  0  0  0  0  0  0  0
    8.1934  -15.6940   22.1521 C   0  0  2  0  0  0  0  0  0  0  0  0
    7.9942  -16.3186   20.8945 N   0  0  0  0  0  0  0  0  0  0  0  0
    9.2947  -16.2327   22.9624 C   0  0  0  0  0  0  0  0  0  0  0  0
   10.2674  -16.8662   22.4395 O   0  0  0  0  0  0  0  0  0  0  0  0
    7.4518  -13.3920   24.0105 C   0  0  0  0  0  0  0  0  0  0  0  0
    7.4850  -12.5588   25.1383 C   0  0  0  0  0  0  0  0  0  0  0  0
    9.2627  -16.0357   24.3583 N   0  0  0  0  0  0  0  0  0  0  0  0
   10.4051  -16.4766   25.2077 C   0  0  1  0  0  0  0  0  0  0  0  0
   11.6322  -15.8831   24.6445 C   0  0  0  0  0  0  0  0  0  0  0  0
   12.9167  -16.0358   25.3839 C   0  0  0  0  0  0  0  0  0  0  0  0
   14.0811  -16.2715   24.5183 C   0  0  0  0  0  0  0  0  0  0  0  0
   14.1737  -15.6645   23.4279 O   0  0  0  0  0  0  0  0  0  0  0  0
   10.0257  -16.2588   26.5753 C   0  0  0  0  0  0  0  0  0  0  0  0
    9.2929  -15.2829   26.9216 O   0  0  0  0  0  0  0  0  0  0  0  0
   15.1198  -17.1563   24.8575 O   0  0  0  0  0  0  0  0  0  0  0  0
   10.4166  -17.0870   27.6106 O   0  0  0  0  0  0  0  0  0  0  0  0
  2  1  1  0
  2  3  2  0
  4  2  1  0
  5  4  1  0
  5  6  1  1
  7  5  1  0
  7  8  2  0
 10 20  2  0
 10  9  1  0
 11 10  1  0
 12 13  1  0
 12 11  2  0
 13 19  2  0
 14 13  1  0
 15 14  1  1
 15 16  1  0
 16  7  1  0
 17 15  1  0
 17 18  2  0
 19 20  1  0
 21 22  1  0
 21 17  1  0
 22 23  1  6
 23 24  1  0
 24 25  1  0
 25 29  1  0
 25 26  2  0
 27 22  1  0
 28 27  2  0
 30 27  1  0
M  END
$$$$
