EAY.pdb
     RDKit          3D

 27 27  0  0  1  0  0  0  0  0999 V2000
    7.0245  -18.4265   18.4887 N   0  0  0  0  0  0  0  0  0  0  0  0
    6.9605  -18.0969   19.9009 C   0  0  1  0  0  0  0  0  0  0  0  0
    7.3240  -19.2266   20.7796 C   0  0  0  0  0  0  0  0  0  0  0  0
    6.7915  -20.5593   20.3991 C   0  0  0  0  0  0  0  0  0  0  0  0
    7.1586  -21.5365   21.4771 C   0  0  0  0  0  0  0  0  0  0  0  0
    6.5711  -21.5189   22.5863 O   0  0  0  0  0  0  0  0  0  0  0  0
    7.6972  -16.8366   20.1121 C   0  0  0  0  0  0  0  0  0  0  0  0
    8.7459  -16.5897   19.4227 O   0  0  0  0  0  0  0  0  0  0  0  0
    8.1485  -22.4862   21.2949 O   0  0  0  0  0  0  0  0  0  0  0  0
    7.3301  -13.3625   21.0915 C   0  0  0  0  0  0  0  0  0  0  0  0
    8.1244  -14.6162   21.2322 C   0  0  2  0  0  0  0  0  0  0  0  0
    7.3479  -15.8249   21.0448 N   0  0  0  0  0  0  0  0  0  0  0  0
    8.8774  -14.6702   22.5357 C   0  0  0  0  0  0  0  0  0  0  0  0
    9.7273  -13.7778   22.8202 O   0  0  0  0  0  0  0  0  0  0  0  0
    5.8165  -11.0552   26.7636 O   0  0  0  0  0  0  0  0  0  0  0  0
    6.5002  -12.2633   26.5479 C   0  0  0  0  0  0  0  0  0  0  0  0
    5.8363  -13.3469   26.0045 C   0  0  0  0  0  0  0  0  0  0  0  0
    6.5169  -14.5313   25.7958 C   0  0  0  0  0  0  0  0  0  0  0  0
    7.8502  -14.6535   26.1204 C   0  0  0  0  0  0  0  0  0  0  0  0
    8.5740  -15.9239   25.9109 C   0  0  0  0  0  0  0  0  0  0  0  0
    9.4559  -15.8096   24.7212 C   0  0  2  0  0  0  0  0  0  0  0  0
    8.6693  -15.7015   23.4775 N   0  0  0  0  0  0  0  0  0  0  0  0
   10.5041  -16.8297   24.5898 C   0  0  0  0  0  0  0  0  0  0  0  0
   10.5106  -17.6017   23.4065 O   0  0  0  0  0  0  0  0  0  0  0  0
    8.5003  -13.5764   26.6578 C   0  0  0  0  0  0  0  0  0  0  0  0
    7.8305  -12.4029   26.8658 C   0  0  0  0  0  0  0  0  0  0  0  0
   11.3891  -17.0883   25.4093 O   0  0  0  0  0  0  0  0  0  0  0  0
  2  1  1  6
  2  3  1  0
  4  3  1  0
  5  4  1  0
  6  5  2  0
  7  2  1  0
  8  7  2  0
  9  5  1  0
 11 10  1  1
 11 12  1  0
 12  7  1  0
 13 11  1  0
 13 22  1  0
 14 13  2  0
 15 16  1  0
 16 17  2  0
 17 18  1  0
 19 18  2  0
 19 20  1  0
 21 20  1  1
 21 22  1  0
 21 23  1  0
 23 24  1  0
 25 19  1  0
 26 16  1  0
 26 25  2  0
 27 23  2  0
M  END
$$$$
