EAY.pdb
     RDKit          3D

 27 27  0  0  1  0  0  0  0  0999 V2000
    8.9888  -19.1111   20.8447 N   0  0  0  0  0  0  0  0  0  0  0  0
   10.1691  -18.2911   20.6410 C   0  0  1  0  0  0  0  0  0  0  0  0
   10.7736  -18.4623   19.3047 C   0  0  0  0  0  0  0  0  0  0  0  0
    9.9171  -18.1183   18.1416 C   0  0  0  0  0  0  0  0  0  0  0  0
   10.7328  -18.2836   16.8931 C   0  0  0  0  0  0  0  0  0  0  0  0
   10.2064  -18.1545   15.7608 O   0  0  0  0  0  0  0  0  0  0  0  0
    9.8436  -16.9098   21.0430 C   0  0  0  0  0  0  0  0  0  0  0  0
   10.7805  -16.0502   21.1817 O   0  0  0  0  0  0  0  0  0  0  0  0
   12.0834  -18.5818   16.9379 O   0  0  0  0  0  0  0  0  0  0  0  0
    6.8806  -14.6029   21.4893 C   0  0  0  0  0  0  0  0  0  0  0  0
    8.2788  -15.0563   21.7384 C   0  0  2  0  0  0  0  0  0  0  0  0
    8.5393  -16.4142   21.3055 N   0  0  0  0  0  0  0  0  0  0  0  0
    8.6895  -14.8734   23.1761 C   0  0  0  0  0  0  0  0  0  0  0  0
    8.5631  -13.7477   23.7385 O   0  0  0  0  0  0  0  0  0  0  0  0
    5.8720  -10.7539   26.6570 O   0  0  0  0  0  0  0  0  0  0  0  0
    6.4305  -12.0358   26.5211 C   0  0  0  0  0  0  0  0  0  0  0  0
    5.6985  -13.0511   25.9350 C   0  0  0  0  0  0  0  0  0  0  0  0
    6.2559  -14.3089   25.8055 C   0  0  0  0  0  0  0  0  0  0  0  0
    7.5328  -14.5715   26.2512 C   0  0  0  0  0  0  0  0  0  0  0  0
    8.1233  -15.9197   26.1260 C   0  0  0  0  0  0  0  0  0  0  0  0
    9.4173  -15.8362   25.4015 C   0  0  2  0  0  0  0  0  0  0  0  0
    9.2234  -15.9328   23.9420 N   0  0  0  0  0  0  0  0  0  0  0  0
   10.4728  -16.7532   25.8505 C   0  0  0  0  0  0  0  0  0  0  0  0
   11.1313  -17.5159   24.8600 O   0  0  0  0  0  0  0  0  0  0  0  0
    8.2509  -13.5613   26.8301 C   0  0  0  0  0  0  0  0  0  0  0  0
    7.7030  -12.3155   26.9601 C   0  0  0  0  0  0  0  0  0  0  0  0
   10.8510  -16.9316   27.0110 O   0  0  0  0  0  0  0  0  0  0  0  0
  2  1  1  6
  2  3  1  0
  4  3  1  0
  5  4  1  0
  6  5  2  0
  7  2  1  0
  8  7  2  0
  9  5  1  0
 11 10  1  1
 11 12  1  0
 12  7  1  0
 13 11  1  0
 13 22  1  0
 14 13  2  0
 15 16  1  0
 16 17  2  0
 17 18  1  0
 19 18  2  0
 19 20  1  0
 21 20  1  1
 21 22  1  0
 21 23  1  0
 23 24  1  0
 25 19  1  0
 26 16  1  0
 26 25  2  0
 27 23  2  0
M  END
$$$$
