EAY.pdb
     RDKit          3D

 27 27  0  0  1  0  0  0  0  0999 V2000
    6.6537  -15.3788   18.5671 N   0  0  0  0  0  0  0  0  0  0  0  0
    7.8901  -15.0493   19.2525 C   0  0  1  0  0  0  0  0  0  0  0  0
    8.2586  -13.6241   19.1361 C   0  0  0  0  0  0  0  0  0  0  0  0
    8.2930  -13.0592   17.7633 C   0  0  0  0  0  0  0  0  0  0  0  0
    9.2752  -13.8538   16.9535 C   0  0  0  0  0  0  0  0  0  0  0  0
    8.9273  -14.3992   15.8777 O   0  0  0  0  0  0  0  0  0  0  0  0
    7.8185  -15.6000   20.6190 C   0  0  0  0  0  0  0  0  0  0  0  0
    7.2687  -14.9185   21.5513 O   0  0  0  0  0  0  0  0  0  0  0  0
   10.5896  -14.0162   17.3547 O   0  0  0  0  0  0  0  0  0  0  0  0
    8.2740  -18.8486   22.4827 C   0  0  0  0  0  0  0  0  0  0  0  0
    8.2140  -17.3625   22.3810 C   0  0  2  0  0  0  0  0  0  0  0  0
    8.3212  -16.8642   21.0248 N   0  0  0  0  0  0  0  0  0  0  0  0
    9.2253  -16.6892   23.2715 C   0  0  0  0  0  0  0  0  0  0  0  0
   10.3508  -16.3415   22.8113 O   0  0  0  0  0  0  0  0  0  0  0  0
    5.2343  -12.0216   27.2979 O   0  0  0  0  0  0  0  0  0  0  0  0
    6.4217  -12.5923   26.8100 C   0  0  0  0  0  0  0  0  0  0  0  0
    6.5084  -12.9852   25.4878 C   0  0  0  0  0  0  0  0  0  0  0  0
    7.6804  -13.5456   25.0166 C   0  0  0  0  0  0  0  0  0  0  0  0
    8.7687  -13.7211   25.8429 C   0  0  0  0  0  0  0  0  0  0  0  0
   10.0164  -14.3335   25.3429 C   0  0  0  0  0  0  0  0  0  0  0  0
    9.9621  -15.8064   25.5269 C   0  0  2  0  0  0  0  0  0  0  0  0
    8.9631  -16.4232   24.6332 N   0  0  0  0  0  0  0  0  0  0  0  0
    9.7946  -16.2825   26.9060 C   0  0  0  0  0  0  0  0  0  0  0  0
    8.6995  -17.1363   27.1669 O   0  0  0  0  0  0  0  0  0  0  0  0
    8.6749  -13.3296   27.1503 C   0  0  0  0  0  0  0  0  0  0  0  0
    7.5173  -12.7748   27.6204 C   0  0  0  0  0  0  0  0  0  0  0  0
   10.5141  -16.0150   27.8716 O   0  0  0  0  0  0  0  0  0  0  0  0
  2  1  1  1
  2  3  1  0
  4  3  1  0
  5  4  1  0
  6  5  2  0
  7  2  1  0
  8  7  2  0
  9  5  1  0
 11 10  1  6
 11 12  1  0
 12  7  1  0
 13 11  1  0
 13 22  1  0
 14 13  2  0
 15 16  1  0
 16 17  2  0
 17 18  1  0
 19 18  2  0
 19 20  1  0
 21 20  1  1
 21 22  1  0
 21 23  1  0
 23 24  1  0
 25 19  1  0
 26 16  1  0
 26 25  2  0
 27 23  2  0
M  END
$$$$
