EAY.pdb
     RDKit          3D

 27 27  0  0  1  0  0  0  0  0999 V2000
   11.3634  -17.1271   20.0354 N   0  0  0  0  0  0  0  0  0  0  0  0
   10.6188  -16.3132   19.0919 C   0  0  1  0  0  0  0  0  0  0  0  0
   10.4341  -16.9647   17.7797 C   0  0  0  0  0  0  0  0  0  0  0  0
   11.0836  -18.2878   17.6001 C   0  0  0  0  0  0  0  0  0  0  0  0
   11.6033  -18.3684   16.1947 C   0  0  0  0  0  0  0  0  0  0  0  0
   11.4107  -19.3942   15.4972 O   0  0  0  0  0  0  0  0  0  0  0  0
    9.3974  -15.8319   19.7644 C   0  0  0  0  0  0  0  0  0  0  0  0
    8.4649  -15.2892   19.0774 O   0  0  0  0  0  0  0  0  0  0  0  0
   12.3081  -17.3274   15.6164 O   0  0  0  0  0  0  0  0  0  0  0  0
    6.6777  -15.9220   21.0784 C   0  0  0  0  0  0  0  0  0  0  0  0
    7.9104  -15.4412   21.7652 C   0  0  2  0  0  0  0  0  0  0  0  0
    9.1392  -15.9108   21.1582 N   0  0  0  0  0  0  0  0  0  0  0  0
    7.8987  -15.7509   23.2394 C   0  0  0  0  0  0  0  0  0  0  0  0
    6.9123  -16.3478   23.7591 O   0  0  0  0  0  0  0  0  0  0  0  0
    6.0781  -10.3453   26.6451 O   0  0  0  0  0  0  0  0  0  0  0  0
    6.4784  -11.6859   26.5174 C   0  0  0  0  0  0  0  0  0  0  0  0
    5.5306  -12.6791   26.3587 C   0  0  0  0  0  0  0  0  0  0  0  0
    5.9336  -13.9950   26.2338 C   0  0  0  0  0  0  0  0  0  0  0  0
    7.2677  -14.3375   26.2646 C   0  0  0  0  0  0  0  0  0  0  0  0
    7.6977  -15.7456   26.1457 C   0  0  0  0  0  0  0  0  0  0  0  0
    9.0344  -15.8101   25.5012 C   0  0  2  0  0  0  0  0  0  0  0  0
    8.9700  -15.3937   24.0871 N   0  0  0  0  0  0  0  0  0  0  0  0
    9.7614  -17.0785   25.6400 C   0  0  0  0  0  0  0  0  0  0  0  0
   10.2476  -17.6782   24.4567 O   0  0  0  0  0  0  0  0  0  0  0  0
    8.1997  -13.3486   26.4219 C   0  0  0  0  0  0  0  0  0  0  0  0
    7.8051  -12.0455   26.5458 C   0  0  0  0  0  0  0  0  0  0  0  0
    9.9961  -17.6836   26.6891 O   0  0  0  0  0  0  0  0  0  0  0  0
  2  1  1  1
  2  3  1  0
  4  3  1  0
  5  4  1  0
  6  5  2  0
  7  2  1  0
  8  7  2  0
  9  5  1  0
 11 10  1  6
 11 12  1  0
 12  7  1  0
 13 11  1  0
 13 22  1  0
 14 13  2  0
 15 16  1  0
 16 17  2  0
 17 18  1  0
 19 18  2  0
 19 20  1  0
 21 20  1  6
 21 22  1  0
 21 23  1  0
 23 24  1  0
 25 19  1  0
 26 16  1  0
 26 25  2  0
 27 23  2  0
M  END
$$$$
