EAY.pdb
     RDKit          3D

 27 27  0  0  1  0  0  0  0  0999 V2000
    9.7894  -20.0479   19.6828 N   0  0  0  0  0  0  0  0  0  0  0  0
   11.0857  -19.3974   19.7416 C   0  0  1  0  0  0  0  0  0  0  0  0
   11.8752  -19.5593   18.5043 C   0  0  0  0  0  0  0  0  0  0  0  0
   11.1095  -19.6206   17.2336 C   0  0  0  0  0  0  0  0  0  0  0  0
   11.8433  -18.8120   16.2043 C   0  0  0  0  0  0  0  0  0  0  0  0
   13.0349  -19.0763   15.9108 O   0  0  0  0  0  0  0  0  0  0  0  0
   10.8850  -18.0156   20.2169 C   0  0  0  0  0  0  0  0  0  0  0  0
   11.8968  -17.2614   20.4255 O   0  0  0  0  0  0  0  0  0  0  0  0
   11.2436  -17.7541   15.5439 O   0  0  0  0  0  0  0  0  0  0  0  0
    8.0754  -15.6739   21.2810 C   0  0  0  0  0  0  0  0  0  0  0  0
    9.4902  -16.0915   21.0653 C   0  0  2  0  0  0  0  0  0  0  0  0
    9.6284  -17.4098   20.4805 N   0  0  0  0  0  0  0  0  0  0  0  0
   10.3140  -15.9831   22.3218 C   0  0  0  0  0  0  0  0  0  0  0  0
   11.1577  -15.0504   22.4543 O   0  0  0  0  0  0  0  0  0  0  0  0
   10.5706  -14.1216   30.6230 O   0  0  0  0  0  0  0  0  0  0  0  0
   10.3627  -14.4017   29.2621 C   0  0  0  0  0  0  0  0  0  0  0  0
    9.4430  -13.6678   28.5371 C   0  0  0  0  0  0  0  0  0  0  0  0
    9.2451  -13.9503   27.1990 C   0  0  0  0  0  0  0  0  0  0  0  0
    9.9498  -14.9538   26.5709 C   0  0  0  0  0  0  0  0  0  0  0  0
    9.7278  -15.2655   25.1442 C   0  0  0  0  0  0  0  0  0  0  0  0
   10.4248  -16.5288   24.7914 C   0  0  2  0  0  0  0  0  0  0  0  0
   10.1808  -16.9026   23.3851 N   0  0  0  0  0  0  0  0  0  0  0  0
   10.1900  -17.6708   25.6843 C   0  0  0  0  0  0  0  0  0  0  0  0
   11.2321  -18.0237   26.5707 O   0  0  0  0  0  0  0  0  0  0  0  0
   10.8582  -15.6757   27.2955 C   0  0  0  0  0  0  0  0  0  0  0  0
   11.0570  -15.3994   28.6195 C   0  0  0  0  0  0  0  0  0  0  0  0
    9.1706  -18.3628   25.7450 O   0  0  0  0  0  0  0  0  0  0  0  0
  2  1  1  6
  2  3  1  0
  4  3  1  0
  5  4  1  0
  6  5  2  0
  7  2  1  0
  8  7  2  0
  9  5  1  0
 11 10  1  1
 11 12  1  0
 12  7  1  0
 13 11  1  0
 13 22  1  0
 14 13  2  0
 15 16  1  0
 16 17  2  0
 17 18  1  0
 19 18  2  0
 19 20  1  0
 21 20  1  1
 21 22  1  0
 21 23  1  0
 23 24  1  0
 25 19  1  0
 26 16  1  0
 26 25  2  0
 27 23  2  0
M  END
$$$$
