EAY.pdb
     RDKit          3D

 27 27  0  0  1  0  0  0  0  0999 V2000
   10.2501  -17.3224   17.3875 N   0  0  0  0  0  0  0  0  0  0  0  0
    9.3945  -17.7571   18.4766 C   0  0  1  0  0  0  0  0  0  0  0  0
    9.7491  -19.0922   18.9984 C   0  0  0  0  0  0  0  0  0  0  0  0
   11.1976  -19.3792   19.1534 C   0  0  0  0  0  0  0  0  0  0  0  0
   11.3423  -20.7056   19.8400 C   0  0  0  0  0  0  0  0  0  0  0  0
   10.6943  -21.7060   19.4462 O   0  0  0  0  0  0  0  0  0  0  0  0
    9.3178  -16.6645   19.4645 C   0  0  0  0  0  0  0  0  0  0  0  0
   10.3528  -15.9535   19.7081 O   0  0  0  0  0  0  0  0  0  0  0  0
   12.1861  -20.8785   20.9231 O   0  0  0  0  0  0  0  0  0  0  0  0
    6.7674  -14.8880   21.6600 C   0  0  0  0  0  0  0  0  0  0  0  0
    8.1283  -15.1904   21.1316 C   0  0  2  0  0  0  0  0  0  0  0  0
    8.1626  -16.3058   20.2077 N   0  0  0  0  0  0  0  0  0  0  0  0
    9.1364  -15.3873   22.2334 C   0  0  0  0  0  0  0  0  0  0  0  0
   10.0344  -16.2715   22.1274 O   0  0  0  0  0  0  0  0  0  0  0  0
    5.7970  -10.3765   27.1112 O   0  0  0  0  0  0  0  0  0  0  0  0
    6.2824  -11.6135   26.6551 C   0  0  0  0  0  0  0  0  0  0  0  0
    5.5182  -12.3839   25.7993 C   0  0  0  0  0  0  0  0  0  0  0  0
    6.0037  -13.5993   25.3558 C   0  0  0  0  0  0  0  0  0  0  0  0
    7.2402  -14.0599   25.7519 C   0  0  0  0  0  0  0  0  0  0  0  0
    7.7530  -15.3656   25.2895 C   0  0  0  0  0  0  0  0  0  0  0  0
    9.1309  -15.2049   24.7585 C   0  0  2  0  0  0  0  0  0  0  0  0
    9.1207  -14.6064   23.4098 N   0  0  0  0  0  0  0  0  0  0  0  0
    9.9836  -16.4000   24.7937 C   0  0  0  0  0  0  0  0  0  0  0  0
   10.9783  -16.4555   25.7955 O   0  0  0  0  0  0  0  0  0  0  0  0
    7.9906  -13.2914   26.5992 C   0  0  0  0  0  0  0  0  0  0  0  0
    7.5138  -12.0884   27.0402 C   0  0  0  0  0  0  0  0  0  0  0  0
    9.9248  -17.3711   24.0353 O   0  0  0  0  0  0  0  0  0  0  0  0
  2  1  1  6
  2  3  1  0
  4  3  1  0
  5  4  1  0
  6  5  2  0
  7  2  1  0
  8  7  2  0
  9  5  1  0
 11 10  1  1
 11 12  1  0
 12  7  1  0
 13 11  1  0
 13 22  1  0
 14 13  2  0
 15 16  1  0
 16 17  2  0
 17 18  1  0
 19 18  2  0
 19 20  1  0
 21 20  1  6
 21 22  1  0
 21 23  1  0
 23 24  1  0
 25 19  1  0
 26 16  1  0
 26 25  2  0
 27 23  2  0
M  END
$$$$
