EAY.pdb
     RDKit          3D

 27 27  0  0  1  0  0  0  0  0999 V2000
   12.0546  -17.0271   19.6412 N   0  0  0  0  0  0  0  0  0  0  0  0
   11.7132  -15.7770   20.2953 C   0  0  1  0  0  0  0  0  0  0  0  0
   11.5099  -14.6614   19.3496 C   0  0  0  0  0  0  0  0  0  0  0  0
   12.4384  -13.5095   19.4750 C   0  0  0  0  0  0  0  0  0  0  0  0
   13.7323  -13.8752   18.8089 C   0  0  0  0  0  0  0  0  0  0  0  0
   14.3963  -14.8671   19.1977 O   0  0  0  0  0  0  0  0  0  0  0  0
   10.6166  -16.0407   21.2460 C   0  0  0  0  0  0  0  0  0  0  0  0
    9.4023  -15.9821   20.8484 O   0  0  0  0  0  0  0  0  0  0  0  0
   14.2411  -13.1426   17.7509 O   0  0  0  0  0  0  0  0  0  0  0  0
    9.1797  -18.2231   22.8697 C   0  0  0  0  0  0  0  0  0  0  0  0
    9.7243  -16.9507   23.4238 C   0  0  2  0  0  0  0  0  0  0  0  0
   10.7770  -16.3654   22.6187 N   0  0  0  0  0  0  0  0  0  0  0  0
   10.1744  -17.0985   24.8537 C   0  0  0  0  0  0  0  0  0  0  0  0
   10.6276  -18.2034   25.2699 O   0  0  0  0  0  0  0  0  0  0  0  0
    6.4316  -10.9821   25.8209 O   0  0  0  0  0  0  0  0  0  0  0  0
    6.8780  -12.2590   26.2002 C   0  0  0  0  0  0  0  0  0  0  0  0
    8.1075  -12.4084   26.8136 C   0  0  0  0  0  0  0  0  0  0  0  0
    8.5384  -13.6683   27.1832 C   0  0  0  0  0  0  0  0  0  0  0  0
    7.7629  -14.7831   26.9511 C   0  0  0  0  0  0  0  0  0  0  0  0
    8.2299  -16.1314   27.3331 C   0  0  0  0  0  0  0  0  0  0  0  0
    9.7049  -16.2147   27.1791 C   0  0  2  0  0  0  0  0  0  0  0  0
   10.1098  -16.0283   25.7725 N   0  0  0  0  0  0  0  0  0  0  0  0
   10.3519  -17.3997   27.7567 C   0  0  0  0  0  0  0  0  0  0  0  0
   10.3844  -17.4965   29.1659 O   0  0  0  0  0  0  0  0  0  0  0  0
    6.5473  -14.6268   26.3435 C   0  0  0  0  0  0  0  0  0  0  0  0
    6.1173  -13.3821   25.9763 C   0  0  0  0  0  0  0  0  0  0  0  0
   10.8757  -18.3297   27.1383 O   0  0  0  0  0  0  0  0  0  0  0  0
  2  1  1  6
  2  3  1  0
  4  3  1  0
  5  4  1  0
  6  5  2  0
  7  2  1  0
  8  7  2  0
  9  5  1  0
 11 10  1  6
 11 12  1  0
 12  7  1  0
 13 11  1  0
 13 22  1  0
 14 13  2  0
 15 16  1  0
 16 17  2  0
 17 18  1  0
 19 18  2  0
 19 20  1  0
 21 20  1  6
 21 22  1  0
 21 23  1  0
 23 24  1  0
 25 19  1  0
 26 16  1  0
 26 25  2  0
 27 23  2  0
M  END
$$$$
