EAY.pdb
     RDKit          3D

 27 27  0  0  1  0  0  0  0  0999 V2000
    8.5278  -19.0814   20.0631 N   0  0  0  0  0  0  0  0  0  0  0  0
    9.8348  -18.4818   20.2614 C   0  0  1  0  0  0  0  0  0  0  0  0
   10.8229  -18.8887   19.2423 C   0  0  0  0  0  0  0  0  0  0  0  0
   10.5716  -18.4252   17.8542 C   0  0  0  0  0  0  0  0  0  0  0  0
   11.6443  -18.9896   16.9697 C   0  0  0  0  0  0  0  0  0  0  0  0
   12.7225  -18.3712   16.7942 O   0  0  0  0  0  0  0  0  0  0  0  0
    9.6500  -17.0313   20.4551 C   0  0  0  0  0  0  0  0  0  0  0  0
   10.5520  -16.2164   20.0571 O   0  0  0  0  0  0  0  0  0  0  0  0
   11.4909  -20.2010   16.3186 O   0  0  0  0  0  0  0  0  0  0  0  0
    7.0517  -14.4525   21.2373 C   0  0  0  0  0  0  0  0  0  0  0  0
    8.4375  -14.9956   21.3229 C   0  0  2  0  0  0  0  0  0  0  0  0
    8.5248  -16.4189   21.0670 N   0  0  0  0  0  0  0  0  0  0  0  0
    9.1039  -14.6530   22.6296 C   0  0  0  0  0  0  0  0  0  0  0  0
    9.2606  -13.4449   22.9695 O   0  0  0  0  0  0  0  0  0  0  0  0
    5.8797  -10.8671   27.3042 O   0  0  0  0  0  0  0  0  0  0  0  0
    6.3219  -12.0742   26.7375 C   0  0  0  0  0  0  0  0  0  0  0  0
    5.5129  -12.7601   25.8514 C   0  0  0  0  0  0  0  0  0  0  0  0
    5.9561  -13.9467   25.2990 C   0  0  0  0  0  0  0  0  0  0  0  0
    7.1941  -14.4615   25.6158 C   0  0  0  0  0  0  0  0  0  0  0  0
    7.6619  -15.7372   25.0366 C   0  0  0  0  0  0  0  0  0  0  0  0
    9.1428  -15.7244   24.9230 C   0  0  2  0  0  0  0  0  0  0  0  0
    9.5731  -15.6490   23.5136 N   0  0  0  0  0  0  0  0  0  0  0  0
    9.8574  -16.7942   25.6313 C   0  0  0  0  0  0  0  0  0  0  0  0
   10.3104  -16.5131   26.9397 O   0  0  0  0  0  0  0  0  0  0  0  0
    7.9889  -13.7766   26.4937 C   0  0  0  0  0  0  0  0  0  0  0  0
    7.5541  -12.6024   27.0424 C   0  0  0  0  0  0  0  0  0  0  0  0
   10.1076  -17.9237   25.2031 O   0  0  0  0  0  0  0  0  0  0  0  0
  2  1  1  6
  2  3  1  0
  4  3  1  0
  5  4  1  0
  6  5  2  0
  7  2  1  0
  8  7  2  0
  9  5  1  0
 11 10  1  1
 11 12  1  0
 12  7  1  0
 13 11  1  0
 13 22  1  0
 14 13  2  0
 15 16  1  0
 16 17  2  0
 17 18  1  0
 19 18  2  0
 19 20  1  0
 21 20  1  6
 21 22  1  0
 21 23  1  0
 23 24  1  0
 25 19  1  0
 26 16  1  0
 26 25  2  0
 27 23  2  0
M  END
$$$$
