EAY.pdb
     RDKit          3D

 27 27  0  0  1  0  0  0  0  0999 V2000
    8.7993  -19.1177   20.6113 N   0  0  0  0  0  0  0  0  0  0  0  0
    9.9490  -18.2929   20.2876 C   0  0  1  0  0  0  0  0  0  0  0  0
   10.4515  -18.5068   18.9157 C   0  0  0  0  0  0  0  0  0  0  0  0
    9.4291  -18.5983   17.8429 C   0  0  0  0  0  0  0  0  0  0  0  0
   10.1316  -18.8860   16.5486 C   0  0  0  0  0  0  0  0  0  0  0  0
    9.6561  -18.4863   15.4577 O   0  0  0  0  0  0  0  0  0  0  0  0
    9.6362  -16.9012   20.6633 C   0  0  0  0  0  0  0  0  0  0  0  0
   10.5599  -16.0166   20.6528 O   0  0  0  0  0  0  0  0  0  0  0  0
   11.3189  -19.5956   16.5046 O   0  0  0  0  0  0  0  0  0  0  0  0
    6.6890  -14.6265   21.2921 C   0  0  0  0  0  0  0  0  0  0  0  0
    8.1116  -15.0467   21.4404 C   0  0  2  0  0  0  0  0  0  0  0  0
    8.3587  -16.4213   21.0549 N   0  0  0  0  0  0  0  0  0  0  0  0
    8.6417  -14.7843   22.8258 C   0  0  0  0  0  0  0  0  0  0  0  0
    8.6471  -13.6103   23.2961 O   0  0  0  0  0  0  0  0  0  0  0  0
    5.7874  -10.6326   26.6456 O   0  0  0  0  0  0  0  0  0  0  0  0
    6.3128  -11.9158   26.4195 C   0  0  0  0  0  0  0  0  0  0  0  0
    5.5029  -12.9168   25.9173 C   0  0  0  0  0  0  0  0  0  0  0  0
    6.0284  -14.1759   25.6981 C   0  0  0  0  0  0  0  0  0  0  0  0
    7.3497  -14.4539   25.9716 C   0  0  0  0  0  0  0  0  0  0  0  0
    7.9077  -15.8036   25.7510 C   0  0  0  0  0  0  0  0  0  0  0  0
    9.2431  -15.6966   25.1094 C   0  0  2  0  0  0  0  0  0  0  0  0
    9.1459  -15.8201   23.6423 N   0  0  0  0  0  0  0  0  0  0  0  0
   10.2907  -16.5785   25.6400 C   0  0  0  0  0  0  0  0  0  0  0  0
   11.0338  -17.3346   24.7061 O   0  0  0  0  0  0  0  0  0  0  0  0
    8.1448  -13.4578   26.4685 C   0  0  0  0  0  0  0  0  0  0  0  0
    7.6288  -12.2108   26.6868 C   0  0  0  0  0  0  0  0  0  0  0  0
   10.5954  -16.7323   26.8254 O   0  0  0  0  0  0  0  0  0  0  0  0
  2  1  1  6
  2  3  1  0
  4  3  1  0
  5  4  1  0
  6  5  2  0
  7  2  1  0
  8  7  2  0
  9  5  1  0
 11 10  1  1
 11 12  1  0
 12  7  1  0
 13 11  1  0
 13 22  1  0
 14 13  2  0
 15 16  1  0
 16 17  2  0
 17 18  1  0
 19 18  2  0
 19 20  1  0
 21 20  1  1
 21 22  1  0
 21 23  1  0
 23 24  1  0
 25 19  1  0
 26 16  1  0
 26 25  2  0
 27 23  2  0
M  END
$$$$
