EAY.pdb
     RDKit          3D

 27 27  0  0  1  0  0  0  0  0999 V2000
    8.9947  -19.1332   20.6971 N   0  0  0  0  0  0  0  0  0  0  0  0
    9.8373  -18.1855   19.9908 C   0  0  1  0  0  0  0  0  0  0  0  0
    9.8744  -18.4135   18.5323 C   0  0  0  0  0  0  0  0  0  0  0  0
   10.7747  -17.5317   17.7471 C   0  0  0  0  0  0  0  0  0  0  0  0
   10.5692  -17.8290   16.2906 C   0  0  0  0  0  0  0  0  0  0  0  0
   10.0899  -16.9615   15.5201 O   0  0  0  0  0  0  0  0  0  0  0  0
    9.4722  -16.8270   20.4345 C   0  0  0  0  0  0  0  0  0  0  0  0
   10.2945  -15.8613   20.2686 O   0  0  0  0  0  0  0  0  0  0  0  0
   10.8959  -19.0573   15.7433 O   0  0  0  0  0  0  0  0  0  0  0  0
    6.5367  -14.7073   21.2738 C   0  0  0  0  0  0  0  0  0  0  0  0
    7.9520  -15.1176   21.4996 C   0  0  2  0  0  0  0  0  0  0  0  0
    8.2484  -16.4647   21.0562 N   0  0  0  0  0  0  0  0  0  0  0  0
    8.3785  -14.9283   22.9319 C   0  0  0  0  0  0  0  0  0  0  0  0
    7.9438  -13.9491   23.6039 O   0  0  0  0  0  0  0  0  0  0  0  0
    5.9715  -10.8033   26.6275 O   0  0  0  0  0  0  0  0  0  0  0  0
    6.5474  -12.0693   26.4290 C   0  0  0  0  0  0  0  0  0  0  0  0
    7.9052  -12.2487   26.6140 C   0  0  0  0  0  0  0  0  0  0  0  0
    8.4629  -13.4975   26.4164 C   0  0  0  0  0  0  0  0  0  0  0  0
    7.6884  -14.5718   26.0369 C   0  0  0  0  0  0  0  0  0  0  0  0
    8.2869  -15.9032   25.8116 C   0  0  0  0  0  0  0  0  0  0  0  0
    9.5371  -15.7651   25.0215 C   0  0  2  0  0  0  0  0  0  0  0  0
    9.2659  -15.8206   23.5722 N   0  0  0  0  0  0  0  0  0  0  0  0
   10.6365  -16.6693   25.3828 C   0  0  0  0  0  0  0  0  0  0  0  0
   11.0150  -16.7159   26.7432 O   0  0  0  0  0  0  0  0  0  0  0  0
    6.3452  -14.3860   25.8558 C   0  0  0  0  0  0  0  0  0  0  0  0
    5.7895  -13.1521   26.0502 C   0  0  0  0  0  0  0  0  0  0  0  0
   11.2720  -17.4003   24.6190 O   0  0  0  0  0  0  0  0  0  0  0  0
  2  1  1  1
  2  3  1  0
  4  3  1  0
  5  4  1  0
  6  5  2  0
  7  2  1  0
  8  7  2  0
  9  5  1  0
 11 10  1  1
 11 12  1  0
 12  7  1  0
 13 11  1  0
 13 22  1  0
 14 13  2  0
 15 16  1  0
 16 17  2  0
 17 18  1  0
 19 18  2  0
 19 20  1  0
 21 20  1  1
 21 22  1  0
 21 23  1  0
 23 24  1  0
 25 19  1  0
 26 16  1  0
 26 25  2  0
 27 23  2  0
M  END
$$$$
