EAY.pdb
     RDKit          3D

 27 27  0  0  1  0  0  0  0  0999 V2000
   10.9614  -19.7296   21.8451 N   0  0  0  0  0  0  0  0  0  0  0  0
   10.1371  -18.5350   21.8223 C   0  0  1  0  0  0  0  0  0  0  0  0
    9.5420  -18.2632   20.4985 C   0  0  0  0  0  0  0  0  0  0  0  0
   10.4100  -18.5095   19.3193 C   0  0  0  0  0  0  0  0  0  0  0  0
    9.5820  -18.3271   18.0812 C   0  0  0  0  0  0  0  0  0  0  0  0
    9.0725  -19.3156   17.4987 O   0  0  0  0  0  0  0  0  0  0  0  0
    9.2029  -18.5999   22.9620 C   0  0  0  0  0  0  0  0  0  0  0  0
    7.9778  -18.9092   22.7633 O   0  0  0  0  0  0  0  0  0  0  0  0
    9.3489  -17.0764   17.5368 O   0  0  0  0  0  0  0  0  0  0  0  0
    9.1243  -18.2408   26.7429 C   0  0  0  0  0  0  0  0  0  0  0  0
    8.5488  -18.2117   25.3680 C   0  0  2  0  0  0  0  0  0  0  0  0
    9.5378  -18.3410   24.3171 N   0  0  0  0  0  0  0  0  0  0  0  0
    7.6887  -16.9970   25.1359 C   0  0  0  0  0  0  0  0  0  0  0  0
    6.5157  -16.9454   25.6058 O   0  0  0  0  0  0  0  0  0  0  0  0
   10.0641  -14.5265   29.9379 O   0  0  0  0  0  0  0  0  0  0  0  0
    9.5738  -14.2590   28.6488 C   0  0  0  0  0  0  0  0  0  0  0  0
    8.2834  -13.7927   28.4821 C   0  0  0  0  0  0  0  0  0  0  0  0
    7.8096  -13.5322   27.2104 C   0  0  0  0  0  0  0  0  0  0  0  0
    8.6019  -13.7292   26.1007 C   0  0  0  0  0  0  0  0  0  0  0  0
    8.0906  -13.4646   24.7404 C   0  0  0  0  0  0  0  0  0  0  0  0
    7.3521  -14.6528   24.2413 C   0  0  2  0  0  0  0  0  0  0  0  0
    8.1485  -15.8851   24.3969 N   0  0  0  0  0  0  0  0  0  0  0  0
    6.8040  -14.5527   22.8825 C   0  0  0  0  0  0  0  0  0  0  0  0
    7.1482  -15.5744   21.9694 O   0  0  0  0  0  0  0  0  0  0  0  0
    9.8779  -14.1909   26.2741 C   0  0  0  0  0  0  0  0  0  0  0  0
   10.3505  -14.4498   27.5305 C   0  0  0  0  0  0  0  0  0  0  0  0
    6.0676  -13.6638   22.4475 O   0  0  0  0  0  0  0  0  0  0  0  0
  2  1  1  6
  2  3  1  0
  4  3  1  0
  5  4  1  0
  6  5  2  0
  7  2  1  0
  8  7  2  0
  9  5  1  0
 11 10  1  1
 11 12  1  0
 12  7  1  0
 13 11  1  0
 13 22  1  0
 14 13  2  0
 15 16  1  0
 16 17  2  0
 17 18  1  0
 19 18  2  0
 19 20  1  0
 21 20  1  6
 21 22  1  0
 21 23  1  0
 23 24  1  0
 25 19  1  0
 26 16  1  0
 26 25  2  0
 27 23  2  0
M  END
$$$$
