EAY.pdb
     RDKit          3D

 27 27  0  0  1  0  0  0  0  0999 V2000
    7.1267  -18.5157   18.9395 N   0  0  0  0  0  0  0  0  0  0  0  0
    7.4959  -18.4289   20.3407 C   0  0  1  0  0  0  0  0  0  0  0  0
    8.2534  -19.6034   20.8172 C   0  0  0  0  0  0  0  0  0  0  0  0
    8.6805  -19.5834   22.2391 C   0  0  0  0  0  0  0  0  0  0  0  0
    9.4810  -20.8242   22.5059 C   0  0  0  0  0  0  0  0  0  0  0  0
   10.7341  -20.8077   22.4322 O   0  0  0  0  0  0  0  0  0  0  0  0
    8.1147  -17.1100   20.5716 C   0  0  0  0  0  0  0  0  0  0  0  0
    9.3059  -16.8860   20.1630 O   0  0  0  0  0  0  0  0  0  0  0  0
    8.8779  -22.0240   22.8403 O   0  0  0  0  0  0  0  0  0  0  0  0
    7.2758  -13.5646   21.3398 C   0  0  0  0  0  0  0  0  0  0  0  0
    8.1672  -14.7525   21.4699 C   0  0  2  0  0  0  0  0  0  0  0  0
    7.4977  -16.0151   21.2320 N   0  0  0  0  0  0  0  0  0  0  0  0
    8.8906  -14.7800   22.7909 C   0  0  0  0  0  0  0  0  0  0  0  0
    9.6401  -13.8191   23.1292 O   0  0  0  0  0  0  0  0  0  0  0  0
    5.5793  -11.1666   26.6451 O   0  0  0  0  0  0  0  0  0  0  0  0
    6.2953  -12.3685   26.5170 C   0  0  0  0  0  0  0  0  0  0  0  0
    7.6334  -12.4170   26.8595 C   0  0  0  0  0  0  0  0  0  0  0  0
    8.3296  -13.6036   26.7302 C   0  0  0  0  0  0  0  0  0  0  0  0
    7.7131  -14.7442   26.2645 C   0  0  0  0  0  0  0  0  0  0  0  0
    8.4610  -16.0089   26.1126 C   0  0  0  0  0  0  0  0  0  0  0  0
    9.4395  -15.8838   25.0021 C   0  0  2  0  0  0  0  0  0  0  0  0
    8.7640  -15.8610   23.6905 N   0  0  0  0  0  0  0  0  0  0  0  0
   10.5483  -16.8467   25.0025 C   0  0  0  0  0  0  0  0  0  0  0  0
   11.2773  -16.9932   26.2039 O   0  0  0  0  0  0  0  0  0  0  0  0
    6.3885  -14.6881   25.9276 C   0  0  0  0  0  0  0  0  0  0  0  0
    5.6961  -13.5161   26.0540 C   0  0  0  0  0  0  0  0  0  0  0  0
   10.9161  -17.5490   24.0574 O   0  0  0  0  0  0  0  0  0  0  0  0
  2  1  1  6
  2  3  1  0
  4  3  1  0
  5  4  1  0
  6  5  2  0
  7  2  1  0
  8  7  2  0
  9  5  1  0
 11 10  1  1
 11 12  1  0
 12  7  1  0
 13 11  1  0
 13 22  1  0
 14 13  2  0
 15 16  1  0
 16 17  2  0
 17 18  1  0
 19 18  2  0
 19 20  1  0
 21 20  1  1
 21 22  1  0
 21 23  1  0
 23 24  1  0
 25 19  1  0
 26 16  1  0
 26 25  2  0
 27 23  2  0
M  END
$$$$
