EQK.pdb
     RDKit          3D

 28 27  0  0  1  0  0  0  0  0999 V2000
   10.8269  -18.9324   19.3121 N   0  0  0  0  0  0  0  0  0  0  0  0
   11.8418  -17.9087   19.5021 C   0  0  1  0  0  0  0  0  0  0  0  0
   12.0913  -17.2674   18.1776 C   0  0  0  0  0  0  0  0  0  0  0  0
   12.8647  -18.1812   17.2721 C   0  0  0  0  0  0  0  0  0  0  0  0
   13.1976  -17.5973   15.9703 C   0  0  0  0  0  0  0  0  0  0  0  0
   12.9260  -16.4230   15.6228 O   0  0  0  0  0  0  0  0  0  0  0  0
   11.3753  -16.8943   20.5098 C   0  0  0  0  0  0  0  0  0  0  0  0
   12.0269  -15.8491   20.6203 O   0  0  0  0  0  0  0  0  0  0  0  0
   13.8679  -18.3566   14.9997 O   0  0  0  0  0  0  0  0  0  0  0  0
    7.0365  -15.8874   25.9091 N   0  0  0  0  0  0  0  0  0  0  0  0
    6.9728  -16.3509   24.5519 C   0  0  0  0  0  0  0  0  0  0  0  0
    6.3307  -17.4116   24.3710 O   0  0  0  0  0  0  0  0  0  0  0  0
    7.6445  -15.5810   23.4752 C   0  0  0  0  0  0  0  0  0  0  0  0
    8.2674  -16.3960   22.4135 C   0  0  0  0  0  0  0  0  0  0  0  0
    9.7586  -16.2078   22.3176 C   0  0  2  0  0  0  0  0  0  0  0  0
   10.2377  -17.1615   21.2768 N   0  0  0  0  0  0  0  0  0  0  0  0
   10.4204  -16.5552   23.5978 C   0  0  0  0  0  0  0  0  0  0  0  0
   10.2519  -17.7304   24.0971 O   0  0  0  0  0  0  0  0  0  0  0  0
   11.2445  -15.7101   24.3462 N   0  0  0  0  0  0  0  0  0  0  0  0
   11.5202  -15.9436   25.7694 C   0  0  1  0  0  0  0  0  0  0  0  0
   10.5567  -15.1009   26.5920 C   0  0  0  0  0  0  0  0  0  0  0  0
   10.7215  -15.3934   28.0334 C   0  0  0  0  0  0  0  0  0  0  0  0
    9.7881  -14.6284   28.9478 C   0  0  0  0  0  0  0  0  0  0  0  0
    9.8936  -14.9604   30.3883 C   0  0  0  0  0  0  0  0  0  0  0  0
    9.0635  -14.2113   31.2787 N   0  0  0  0  0  0  0  0  0  0  0  0
   11.4856  -17.3632   26.0909 C   0  0  0  0  0  0  0  0  0  0  0  0
   10.2530  -18.0445   26.1465 O   0  0  0  0  0  0  0  0  0  0  0  0
   12.4809  -18.0714   26.3333 O   0  0  0  0  0  0  0  0  0  0  0  0
  2  3  1  0
  2  1  1  6
  2  7  1  0
  3  4  1  0
  4  5  1  0
  5  6  2  0
  7 16  1  0
  8  7  2  0
  9  5  1  0
 11 10  1  0
 12 11  2  0
 13 11  1  0
 14 13  1  0
 15 14  1  1
 16 15  1  0
 17 19  1  0
 17 15  1  0
 18 17  2  0
 20 19  1  0
 20 26  1  0
 21 22  1  0
 20 21  1  1
 22 23  1  0
 24 23  1  0
 24 25  1  0
 26 27  1  0
 28 26  2  0
M  END
$$$$
