EQK.pdb
     RDKit          3D

 28 27  0  0  1  0  0  0  0  0999 V2000
    9.6121  -18.9858   19.1393 N   0  0  0  0  0  0  0  0  0  0  0  0
   10.8467  -18.3341   18.7327 C   0  0  1  0  0  0  0  0  0  0  0  0
   10.8120  -18.1850   17.2480 C   0  0  0  0  0  0  0  0  0  0  0  0
   12.0819  -17.5690   16.7372 C   0  0  0  0  0  0  0  0  0  0  0  0
   12.1916  -17.5409   15.2764 C   0  0  0  0  0  0  0  0  0  0  0  0
   13.0627  -18.1527   14.6129 O   0  0  0  0  0  0  0  0  0  0  0  0
   10.9728  -16.9939   19.4035 C   0  0  0  0  0  0  0  0  0  0  0  0
   12.0451  -16.3889   19.2865 O   0  0  0  0  0  0  0  0  0  0  0  0
   11.2863  -16.7933   14.5086 O   0  0  0  0  0  0  0  0  0  0  0  0
    6.4325  -13.0896   19.4192 N   0  0  0  0  0  0  0  0  0  0  0  0
    7.4079  -13.5415   18.4678 C   0  0  0  0  0  0  0  0  0  0  0  0
    7.1237  -13.3419   17.2639 O   0  0  0  0  0  0  0  0  0  0  0  0
    8.6533  -14.1966   18.9399 C   0  0  0  0  0  0  0  0  0  0  0  0
    8.7477  -14.3907   20.4003 C   0  0  0  0  0  0  0  0  0  0  0  0
    9.9695  -15.1656   20.8191 C   0  0  2  0  0  0  0  0  0  0  0  0
    9.8908  -16.4832   20.1261 N   0  0  0  0  0  0  0  0  0  0  0  0
    9.9644  -15.4147   22.2804 C   0  0  0  0  0  0  0  0  0  0  0  0
    8.8449  -15.6262   22.8809 O   0  0  0  0  0  0  0  0  0  0  0  0
   11.0915  -15.4507   23.1061 N   0  0  0  0  0  0  0  0  0  0  0  0
   11.2044  -16.3796   24.2376 C   0  0  1  0  0  0  0  0  0  0  0  0
   10.8891  -17.7834   23.7427 C   0  0  0  0  0  0  0  0  0  0  0  0
   10.9406  -18.7466   24.8651 C   0  0  0  0  0  0  0  0  0  0  0  0
   10.6207  -20.1780   24.4892 C   0  0  0  0  0  0  0  0  0  0  0  0
   10.5441  -21.1320   25.6208 C   0  0  0  0  0  0  0  0  0  0  0  0
   10.3301  -22.5049   25.2853 N   0  0  0  0  0  0  0  0  0  0  0  0
   12.4986  -16.2617   24.8941 C   0  0  0  0  0  0  0  0  0  0  0  0
   13.6541  -15.9917   24.1332 O   0  0  0  0  0  0  0  0  0  0  0  0
   12.6994  -16.3804   26.1174 O   0  0  0  0  0  0  0  0  0  0  0  0
  2  3  1  0
  2  1  1  1
  2  7  1  0
  3  4  1  0
  4  5  1  0
  5  6  2  0
  7 16  1  0
  8  7  2  0
  9  5  1  0
 11 10  1  0
 12 11  2  0
 13 11  1  0
 14 13  1  0
 15 14  1  1
 16 15  1  0
 17 19  1  0
 17 15  1  0
 18 17  2  0
 20 19  1  0
 20 26  1  0
 21 22  1  0
 20 21  1  6
 22 23  1  0
 24 23  1  0
 24 25  1  0
 26 27  1  0
 28 26  2  0
M  END
$$$$
