EQK.pdb
     RDKit          3D

 28 27  0  0  1  0  0  0  0  0999 V2000
   13.3734  -16.1076   16.0169 N   0  0  0  0  0  0  0  0  0  0  0  0
   12.1838  -16.7127   16.5938 C   0  0  1  0  0  0  0  0  0  0  0  0
   12.5529  -18.0818   17.0595 C   0  0  0  0  0  0  0  0  0  0  0  0
   12.1708  -19.1191   16.0440 C   0  0  0  0  0  0  0  0  0  0  0  0
   12.4466  -20.4969   16.4587 C   0  0  0  0  0  0  0  0  0  0  0  0
   13.4471  -21.1643   16.1021 O   0  0  0  0  0  0  0  0  0  0  0  0
   11.6765  -15.8761   17.7362 C   0  0  0  0  0  0  0  0  0  0  0  0
   12.5024  -15.4583   18.5563 O   0  0  0  0  0  0  0  0  0  0  0  0
   11.5650  -21.1728   17.3154 O   0  0  0  0  0  0  0  0  0  0  0  0
    9.0200  -11.7854   19.4453 N   0  0  0  0  0  0  0  0  0  0  0  0
    8.2026  -12.6204   20.2792 C   0  0  0  0  0  0  0  0  0  0  0  0
    8.0660  -12.2355   21.4637 O   0  0  0  0  0  0  0  0  0  0  0  0
    7.5861  -13.8486   19.7183 C   0  0  0  0  0  0  0  0  0  0  0  0
    8.3364  -14.4824   18.6161 C   0  0  0  0  0  0  0  0  0  0  0  0
    9.7432  -14.8627   18.9965 C   0  0  2  0  0  0  0  0  0  0  0  0
   10.3093  -15.6021   17.8323 N   0  0  0  0  0  0  0  0  0  0  0  0
    9.7485  -15.7741   20.1656 C   0  0  0  0  0  0  0  0  0  0  0  0
    9.3523  -16.9908   20.0194 O   0  0  0  0  0  0  0  0  0  0  0  0
   10.1596  -15.4401   21.4590 N   0  0  0  0  0  0  0  0  0  0  0  0
   10.0377  -16.3740   22.5855 C   0  0  1  0  0  0  0  0  0  0  0  0
   11.4270  -16.6341   23.1489 C   0  0  0  0  0  0  0  0  0  0  0  0
   11.3473  -17.5538   24.3056 C   0  0  0  0  0  0  0  0  0  0  0  0
   12.6838  -17.9411   24.9026 C   0  0  0  0  0  0  0  0  0  0  0  0
   12.6181  -18.8007   26.1081 C   0  0  0  0  0  0  0  0  0  0  0  0
   13.8611  -19.3070   26.5999 N   0  0  0  0  0  0  0  0  0  0  0  0
    9.0807  -15.8936   23.5721 C   0  0  0  0  0  0  0  0  0  0  0  0
    8.5800  -16.7709   24.5551 O   0  0  0  0  0  0  0  0  0  0  0  0
    8.6380  -14.7316   23.6400 O   0  0  0  0  0  0  0  0  0  0  0  0
  2  3  1  0
  2  1  1  1
  2  7  1  0
  3  4  1  0
  4  5  1  0
  5  6  2  0
  7 16  1  0
  8  7  2  0
  9  5  1  0
 11 10  1  0
 12 11  2  0
 13 11  1  0
 14 13  1  0
 15 14  1  6
 16 15  1  0
 17 19  1  0
 17 15  1  0
 18 17  2  0
 20 19  1  0
 20 26  1  0
 21 22  1  0
 20 21  1  1
 22 23  1  0
 24 23  1  0
 24 25  1  0
 26 27  1  0
 28 26  2  0
M  END
$$$$
