EQK.pdb
     RDKit          3D

 28 27  0  0  1  0  0  0  0  0999 V2000
   10.5841  -18.2211   18.4648 N   0  0  0  0  0  0  0  0  0  0  0  0
   11.6561  -18.1050   19.4402 C   0  0  1  0  0  0  0  0  0  0  0  0
   12.8272  -17.4843   18.7540 C   0  0  0  0  0  0  0  0  0  0  0  0
   13.9886  -18.4338   18.7022 C   0  0  0  0  0  0  0  0  0  0  0  0
   15.2990  -17.7875   18.8098 C   0  0  0  0  0  0  0  0  0  0  0  0
   15.8274  -17.0886   17.9121 O   0  0  0  0  0  0  0  0  0  0  0  0
   11.2103  -17.2653   20.6057 C   0  0  0  0  0  0  0  0  0  0  0  0
   11.8417  -16.2293   20.8452 O   0  0  0  0  0  0  0  0  0  0  0  0
   16.0665  -17.9234   19.9762 O   0  0  0  0  0  0  0  0  0  0  0  0
    5.8180  -18.4932   23.8339 N   0  0  0  0  0  0  0  0  0  0  0  0
    6.2416  -17.2149   24.3309 C   0  0  0  0  0  0  0  0  0  0  0  0
    5.4507  -16.6522   25.1232 O   0  0  0  0  0  0  0  0  0  0  0  0
    7.5428  -16.6471   23.8975 C   0  0  0  0  0  0  0  0  0  0  0  0
    8.2065  -17.3664   22.7924 C   0  0  0  0  0  0  0  0  0  0  0  0
    9.5843  -16.8417   22.4845 C   0  0  2  0  0  0  0  0  0  0  0  0
   10.1135  -17.6764   21.3685 N   0  0  0  0  0  0  0  0  0  0  0  0
   10.4870  -17.0064   23.6488 C   0  0  0  0  0  0  0  0  0  0  0  0
   10.8906  -18.1857   23.9728 O   0  0  0  0  0  0  0  0  0  0  0  0
   10.9691  -15.9755   24.4600 N   0  0  0  0  0  0  0  0  0  0  0  0
   11.3141  -16.1855   25.8717 C   0  0  1  0  0  0  0  0  0  0  0  0
   10.5145  -15.2033   26.7150 C   0  0  0  0  0  0  0  0  0  0  0  0
   10.7324  -15.4676   28.1548 C   0  0  0  0  0  0  0  0  0  0  0  0
    9.9840  -14.5423   29.0910 C   0  0  0  0  0  0  0  0  0  0  0  0
   10.1644  -14.8161   30.5363 C   0  0  0  0  0  0  0  0  0  0  0  0
    9.5536  -13.8943   31.4419 N   0  0  0  0  0  0  0  0  0  0  0  0
   11.1372  -17.5776   26.2600 C   0  0  0  0  0  0  0  0  0  0  0  0
    9.9063  -18.2241   26.0283 O   0  0  0  0  0  0  0  0  0  0  0  0
   12.0032  -18.2901   26.8015 O   0  0  0  0  0  0  0  0  0  0  0  0
  2  3  1  0
  2  1  1  6
  2  7  1  0
  3  4  1  0
  4  5  1  0
  5  6  2  0
  7 16  1  0
  8  7  2  0
  9  5  1  0
 11 10  1  0
 12 11  2  0
 13 11  1  0
 14 13  1  0
 15 14  1  1
 16 15  1  0
 17 19  1  0
 17 15  1  0
 18 17  2  0
 20 19  1  0
 20 26  1  0
 21 22  1  0
 20 21  1  1
 22 23  1  0
 24 23  1  0
 24 25  1  0
 26 27  1  0
 28 26  2  0
M  END
$$$$
