EQK.pdb
     RDKit          3D

 28 27  0  0  1  0  0  0  0  0999 V2000
   11.3680  -19.6570   19.0326 N   0  0  0  0  0  0  0  0  0  0  0  0
   12.3035  -18.5803   19.3148 C   0  0  1  0  0  0  0  0  0  0  0  0
   12.4747  -17.7891   18.0608 C   0  0  0  0  0  0  0  0  0  0  0  0
   13.8135  -18.0519   17.4349 C   0  0  0  0  0  0  0  0  0  0  0  0
   14.1052  -17.2176   16.2664 C   0  0  0  0  0  0  0  0  0  0  0  0
   13.9935  -17.5922   15.0745 O   0  0  0  0  0  0  0  0  0  0  0  0
   11.7800  -17.7147   20.4279 C   0  0  0  0  0  0  0  0  0  0  0  0
   12.4471  -16.7249   20.7513 O   0  0  0  0  0  0  0  0  0  0  0  0
   14.5453  -15.8954   16.4275 O   0  0  0  0  0  0  0  0  0  0  0  0
    6.0152  -18.6555   23.0656 N   0  0  0  0  0  0  0  0  0  0  0  0
    6.5622  -17.5628   23.8189 C   0  0  0  0  0  0  0  0  0  0  0  0
    5.8091  -17.0779   24.6951 O   0  0  0  0  0  0  0  0  0  0  0  0
    7.9369  -17.0818   23.5324 C   0  0  0  0  0  0  0  0  0  0  0  0
    8.6310  -17.7790   22.4318 C   0  0  0  0  0  0  0  0  0  0  0  0
    9.9816  -17.1924   22.1148 C   0  0  2  0  0  0  0  0  0  0  0  0
   10.5750  -18.0517   21.0509 N   0  0  0  0  0  0  0  0  0  0  0  0
   10.8734  -17.2450   23.2978 C   0  0  0  0  0  0  0  0  0  0  0  0
   11.2199  -18.3892   23.7768 O   0  0  0  0  0  0  0  0  0  0  0  0
   11.4026  -16.1402   23.9707 N   0  0  0  0  0  0  0  0  0  0  0  0
   11.8821  -16.2225   25.3560 C   0  0  1  0  0  0  0  0  0  0  0  0
   11.0582  -15.2694   26.2091 C   0  0  0  0  0  0  0  0  0  0  0  0
   11.4428  -15.3926   27.6329 C   0  0  0  0  0  0  0  0  0  0  0  0
   10.7385  -14.4311   28.5668 C   0  0  0  0  0  0  0  0  0  0  0  0
   11.1315  -14.5248   29.9927 C   0  0  0  0  0  0  0  0  0  0  0  0
   10.5328  -13.5807   30.8834 N   0  0  0  0  0  0  0  0  0  0  0  0
   11.8813  -17.5967   25.8373 C   0  0  0  0  0  0  0  0  0  0  0  0
   10.6874  -18.3460   25.8312 O   0  0  0  0  0  0  0  0  0  0  0  0
   12.8746  -18.2075   26.2746 O   0  0  0  0  0  0  0  0  0  0  0  0
  2  3  1  0
  2  1  1  6
  2  7  1  0
  3  4  1  0
  4  5  1  0
  5  6  2  0
  7 16  1  0
  8  7  2  0
  9  5  1  0
 11 10  1  0
 12 11  2  0
 13 11  1  0
 14 13  1  0
 15 14  1  1
 16 15  1  0
 17 19  1  0
 17 15  1  0
 18 17  2  0
 20 19  1  0
 20 26  1  0
 21 22  1  0
 20 21  1  1
 22 23  1  0
 24 23  1  0
 24 25  1  0
 26 27  1  0
 28 26  2  0
M  END
$$$$
