EQK.pdb
     RDKit          3D

 28 27  0  0  1  0  0  0  0  0999 V2000
    8.7317  -17.8547   15.9620 N   0  0  0  0  0  0  0  0  0  0  0  0
    9.7772  -18.1248   16.9357 C   0  0  1  0  0  0  0  0  0  0  0  0
   11.0634  -18.2649   16.1915 C   0  0  0  0  0  0  0  0  0  0  0  0
   10.9811  -17.6116   14.8427 C   0  0  0  0  0  0  0  0  0  0  0  0
   12.2159  -17.6933   14.0585 C   0  0  0  0  0  0  0  0  0  0  0  0
   12.2902  -17.5073   12.8202 O   0  0  0  0  0  0  0  0  0  0  0  0
    9.8564  -17.0061   17.9378 C   0  0  0  0  0  0  0  0  0  0  0  0
   10.9761  -16.6751   18.3456 O   0  0  0  0  0  0  0  0  0  0  0  0
   13.4357  -17.9984   14.6806 O   0  0  0  0  0  0  0  0  0  0  0  0
    8.3853  -11.8624   19.2965 N   0  0  0  0  0  0  0  0  0  0  0  0
    8.1146  -12.5738   20.5136 C   0  0  0  0  0  0  0  0  0  0  0  0
    8.7289  -12.1670   21.5271 O   0  0  0  0  0  0  0  0  0  0  0  0
    7.1596  -13.7100   20.5094 C   0  0  0  0  0  0  0  0  0  0  0  0
    7.3492  -14.6875   19.4195 C   0  0  0  0  0  0  0  0  0  0  0  0
    8.6900  -15.3723   19.4620 C   0  0  2  0  0  0  0  0  0  0  0  0
    8.6803  -16.3860   18.3690 N   0  0  0  0  0  0  0  0  0  0  0  0
    8.8808  -16.0854   20.7476 C   0  0  0  0  0  0  0  0  0  0  0  0
    8.1626  -17.1224   21.0068 O   0  0  0  0  0  0  0  0  0  0  0  0
    9.7978  -15.7400   21.7442 N   0  0  0  0  0  0  0  0  0  0  0  0
    9.9073  -16.4897   23.0019 C   0  0  1  0  0  0  0  0  0  0  0  0
   11.3280  -17.0204   23.1251 C   0  0  0  0  0  0  0  0  0  0  0  0
   11.3470  -18.2482   23.9511 C   0  0  0  0  0  0  0  0  0  0  0  0
   12.7157  -18.8691   24.1350 C   0  0  0  0  0  0  0  0  0  0  0  0
   12.7397  -20.1485   24.8827 C   0  0  0  0  0  0  0  0  0  0  0  0
   14.0161  -20.7723   25.0402 N   0  0  0  0  0  0  0  0  0  0  0  0
    9.4762  -15.6870   24.1376 C   0  0  0  0  0  0  0  0  0  0  0  0
    9.0355  -16.3158   25.3196 O   0  0  0  0  0  0  0  0  0  0  0  0
    9.4561  -14.4424   24.1739 O   0  0  0  0  0  0  0  0  0  0  0  0
  2  3  1  0
  2  1  1  6
  2  7  1  0
  3  4  1  0
  4  5  1  0
  5  6  2  0
  7 16  1  0
  8  7  2  0
  9  5  1  0
 11 10  1  0
 12 11  2  0
 13 11  1  0
 14 13  1  0
 15 14  1  1
 16 15  1  0
 17 19  1  0
 17 15  1  0
 18 17  2  0
 20 19  1  0
 20 26  1  0
 21 22  1  0
 20 21  1  1
 22 23  1  0
 24 23  1  0
 24 25  1  0
 26 27  1  0
 28 26  2  0
M  END
$$$$
