EQK.pdb
     RDKit          3D

 28 27  0  0  1  0  0  0  0  0999 V2000
   15.0603  -14.6321   18.7323 N   0  0  0  0  0  0  0  0  0  0  0  0
   13.6916  -14.1917   18.5158 C   0  0  1  0  0  0  0  0  0  0  0  0
   13.3612  -14.4301   17.0799 C   0  0  0  0  0  0  0  0  0  0  0  0
   14.1662  -15.5676   16.5221 C   0  0  0  0  0  0  0  0  0  0  0  0
   13.9240  -15.8363   15.1023 C   0  0  0  0  0  0  0  0  0  0  0  0
   12.9574  -16.4986   14.6547 O   0  0  0  0  0  0  0  0  0  0  0  0
   12.7531  -14.9486   19.4149 C   0  0  0  0  0  0  0  0  0  0  0  0
   11.5573  -14.6342   19.3963 O   0  0  0  0  0  0  0  0  0  0  0  0
   14.8017  -15.3444   14.1247 O   0  0  0  0  0  0  0  0  0  0  0  0
   13.4902  -20.1465   18.9197 N   0  0  0  0  0  0  0  0  0  0  0  0
   12.1047  -19.7711   18.9133 C   0  0  0  0  0  0  0  0  0  0  0  0
   11.4022  -20.3066   18.0246 O   0  0  0  0  0  0  0  0  0  0  0  0
   11.5953  -18.8058   19.9192 C   0  0  0  0  0  0  0  0  0  0  0  0
   12.6222  -18.2117   20.7977 C   0  0  0  0  0  0  0  0  0  0  0  0
   12.3629  -16.7634   21.1200 C   0  0  2  0  0  0  0  0  0  0  0  0
   13.2551  -15.9673   20.2298 N   0  0  0  0  0  0  0  0  0  0  0  0
   12.7263  -16.4594   22.5246 C   0  0  0  0  0  0  0  0  0  0  0  0
   13.9551  -16.2108   22.8192 O   0  0  0  0  0  0  0  0  0  0  0  0
   11.8398  -16.4068   23.6039 N   0  0  0  0  0  0  0  0  0  0  0  0
   12.3028  -16.3666   24.9967 C   0  0  1  0  0  0  0  0  0  0  0  0
   11.0875  -16.4195   25.9108 C   0  0  0  0  0  0  0  0  0  0  0  0
   11.5124  -16.5637   27.3211 C   0  0  0  0  0  0  0  0  0  0  0  0
   10.3784  -16.6465   28.3210 C   0  0  0  0  0  0  0  0  0  0  0  0
   10.7879  -16.7669   29.7402 C   0  0  0  0  0  0  0  0  0  0  0  0
    9.7366  -16.9072   30.6985 N   0  0  0  0  0  0  0  0  0  0  0  0
   13.2854  -17.4083   25.2599 C   0  0  0  0  0  0  0  0  0  0  0  0
   13.0514  -18.7267   24.8198 O   0  0  0  0  0  0  0  0  0  0  0  0
   14.3631  -17.2464   25.8625 O   0  0  0  0  0  0  0  0  0  0  0  0
  2  3  1  0
  2  1  1  6
  2  7  1  0
  3  4  1  0
  4  5  1  0
  5  6  2  0
  7 16  1  0
  8  7  2  0
  9  5  1  0
 11 10  1  0
 12 11  2  0
 13 11  1  0
 14 13  1  0
 15 14  1  6
 16 15  1  0
 17 19  1  0
 17 15  1  0
 18 17  2  0
 20 19  1  0
 20 26  1  0
 21 22  1  0
 20 21  1  1
 22 23  1  0
 24 23  1  0
 24 25  1  0
 26 27  1  0
 28 26  2  0
M  END
$$$$
