EQK.pdb
     RDKit          3D

 28 27  0  0  1  0  0  0  0  0999 V2000
   10.0773  -17.7225   16.9147 N   0  0  0  0  0  0  0  0  0  0  0  0
    8.9911  -17.6005   17.8735 C   0  0  1  0  0  0  0  0  0  0  0  0
    8.6462  -18.9743   18.3440 C   0  0  0  0  0  0  0  0  0  0  0  0
    9.7190  -19.9570   17.9744 C   0  0  0  0  0  0  0  0  0  0  0  0
    9.3036  -21.3596   18.0557 C   0  0  0  0  0  0  0  0  0  0  0  0
    9.7849  -22.2030   18.8497 O   0  0  0  0  0  0  0  0  0  0  0  0
    9.4094  -16.7283   19.0253 C   0  0  0  0  0  0  0  0  0  0  0  0
   10.6118  -16.6882   19.3115 O   0  0  0  0  0  0  0  0  0  0  0  0
    8.2998  -21.8552   17.2102 O   0  0  0  0  0  0  0  0  0  0  0  0
    8.1866  -14.0657   18.4359 N   0  0  0  0  0  0  0  0  0  0  0  0
    8.0410  -12.8595   19.2005 C   0  0  0  0  0  0  0  0  0  0  0  0
    8.1627  -11.7916   18.5566 O   0  0  0  0  0  0  0  0  0  0  0  0
    7.7653  -12.9359   20.6570 C   0  0  0  0  0  0  0  0  0  0  0  0
    7.6063  -14.3008   21.1967 C   0  0  0  0  0  0  0  0  0  0  0  0
    8.7912  -15.1896   20.9234 C   0  0  2  0  0  0  0  0  0  0  0  0
    8.4406  -16.0023   19.7239 N   0  0  0  0  0  0  0  0  0  0  0  0
    9.0291  -16.1187   22.0538 C   0  0  0  0  0  0  0  0  0  0  0  0
    8.1969  -17.0779   22.2683 O   0  0  0  0  0  0  0  0  0  0  0  0
   10.1065  -16.0640   22.9423 N   0  0  0  0  0  0  0  0  0  0  0  0
   10.2578  -17.0161   24.0498 C   0  0  1  0  0  0  0  0  0  0  0  0
   11.7388  -17.3135   24.2315 C   0  0  0  0  0  0  0  0  0  0  0  0
   11.9377  -18.2663   25.3464 C   0  0  0  0  0  0  0  0  0  0  0  0
   13.3817  -18.6281   25.6231 C   0  0  0  0  0  0  0  0  0  0  0  0
   13.5922  -19.6477   26.6779 C   0  0  0  0  0  0  0  0  0  0  0  0
   14.9469  -20.0103   26.9542 N   0  0  0  0  0  0  0  0  0  0  0  0
    9.5995  -16.5358   25.2564 C   0  0  0  0  0  0  0  0  0  0  0  0
    9.2386  -17.4435   26.2726 O   0  0  0  0  0  0  0  0  0  0  0  0
    9.3088  -15.3485   25.4945 O   0  0  0  0  0  0  0  0  0  0  0  0
  2  3  1  0
  2  1  1  6
  2  7  1  0
  3  4  1  0
  4  5  1  0
  5  6  2  0
  7 16  1  0
  8  7  2  0
  9  5  1  0
 11 10  1  0
 12 11  2  0
 13 11  1  0
 14 13  1  0
 15 14  1  1
 16 15  1  0
 17 19  1  0
 17 15  1  0
 18 17  2  0
 20 19  1  0
 20 26  1  0
 21 22  1  0
 20 21  1  1
 22 23  1  0
 24 23  1  0
 24 25  1  0
 26 27  1  0
 28 26  2  0
M  END
$$$$
