EQK.pdb
     RDKit          3D

 28 27  0  0  1  0  0  0  0  0999 V2000
   10.4185  -17.8915   16.1923 N   0  0  0  0  0  0  0  0  0  0  0  0
   10.2327  -16.6532   16.9314 C   0  0  1  0  0  0  0  0  0  0  0  0
    8.7652  -16.3963   17.0223 C   0  0  0  0  0  0  0  0  0  0  0  0
    8.1506  -16.2856   15.6574 C   0  0  0  0  0  0  0  0  0  0  0  0
    6.7135  -16.0009   15.6663 C   0  0  0  0  0  0  0  0  0  0  0  0
    6.0204  -15.8520   16.7011 O   0  0  0  0  0  0  0  0  0  0  0  0
   10.8430  -16.7685   18.3013 C   0  0  0  0  0  0  0  0  0  0  0  0
   10.7229  -17.8453   18.8975 O   0  0  0  0  0  0  0  0  0  0  0  0
    6.0051  -15.8748   14.4620 O   0  0  0  0  0  0  0  0  0  0  0  0
   15.7784  -13.3160   20.0464 N   0  0  0  0  0  0  0  0  0  0  0  0
   15.4407  -14.0081   21.2578 C   0  0  0  0  0  0  0  0  0  0  0  0
   16.2397  -13.8543   22.2107 O   0  0  0  0  0  0  0  0  0  0  0  0
   14.2115  -14.8381   21.3174 C   0  0  0  0  0  0  0  0  0  0  0  0
   13.3865  -14.8297   20.0932 C   0  0  0  0  0  0  0  0  0  0  0  0
   12.2035  -15.7589   20.1674 C   0  0  2  0  0  0  0  0  0  0  0  0
   11.5159  -15.6720   18.8476 N   0  0  0  0  0  0  0  0  0  0  0  0
   11.2484  -15.3191   21.2124 C   0  0  0  0  0  0  0  0  0  0  0  0
   10.3291  -14.4694   20.9100 O   0  0  0  0  0  0  0  0  0  0  0  0
   11.2372  -15.7508   22.5417 N   0  0  0  0  0  0  0  0  0  0  0  0
   10.0042  -16.1732   23.2178 C   0  0  1  0  0  0  0  0  0  0  0  0
    9.3032  -17.2029   22.3440 C   0  0  0  0  0  0  0  0  0  0  0  0
    8.0570  -17.6648   22.9950 C   0  0  0  0  0  0  0  0  0  0  0  0
    7.2207  -18.6150   22.1642 C   0  0  0  0  0  0  0  0  0  0  0  0
    5.8982  -18.9649   22.7343 C   0  0  0  0  0  0  0  0  0  0  0  0
    5.0470  -19.7764   21.9219 N   0  0  0  0  0  0  0  0  0  0  0  0
   10.2728  -16.6333   24.5728 C   0  0  0  0  0  0  0  0  0  0  0  0
   11.3621  -17.4919   24.8238 O   0  0  0  0  0  0  0  0  0  0  0  0
    9.6072  -16.3318   25.5813 O   0  0  0  0  0  0  0  0  0  0  0  0
  2  3  1  0
  2  1  1  6
  2  7  1  0
  3  4  1  0
  4  5  1  0
  5  6  2  0
  7 16  1  0
  8  7  2  0
  9  5  1  0
 11 10  1  0
 12 11  2  0
 13 11  1  0
 14 13  1  0
 15 14  1  6
 16 15  1  0
 17 19  1  0
 17 15  1  0
 18 17  2  0
 20 19  1  0
 20 26  1  0
 21 22  1  0
 20 21  1  6
 22 23  1  0
 24 23  1  0
 24 25  1  0
 26 27  1  0
 28 26  2  0
M  END
$$$$
