HDI.pdb
     RDKit          3D

 27 27  0  0  1  0  0  0  0  0999 V2000
    9.6291  -15.9065   19.9179 N   0  0  0  0  0  0  0  0  0  0  0  0
    8.9802  -14.8846   20.7860 C   0  0  1  0  0  0  0  0  0  0  0  0
    7.6905  -14.5861   20.1345 C   0  0  0  0  0  0  0  0  0  0  0  0
    7.6929  -14.1505   18.7475 C   0  0  0  0  0  0  0  0  0  0  0  0
    8.2314  -13.0666   18.1305 C   0  0  0  0  0  0  0  0  0  0  0  0
    7.9847  -13.1886   16.8054 N   0  0  0  0  0  0  0  0  0  0  0  0
    7.3138  -14.3148   16.6005 C   0  0  0  0  0  0  0  0  0  0  0  0
    7.1199  -14.9265   17.7704 N   0  0  0  0  0  0  0  0  0  0  0  0
    8.8679  -15.5028   22.1436 C   0  0  0  0  0  0  0  0  0  0  0  0
    7.8422  -15.3963   22.8169 O   0  0  0  0  0  0  0  0  0  0  0  0
    9.9436  -16.2419   22.7165 N   0  0  0  0  0  0  0  0  0  0  0  0
    9.8521  -16.8382   24.0080 C   0  0  1  0  0  0  0  0  0  0  0  0
   10.5828  -18.1526   24.1203 C   0  0  0  0  0  0  0  0  0  0  0  0
   10.6400  -18.8804   22.8381 C   0  0  0  0  0  0  0  0  0  0  0  0
    9.5770  -19.3592   22.3648 O   0  0  0  0  0  0  0  0  0  0  0  0
   10.2273  -15.8973   25.1001 C   0  0  0  0  0  0  0  0  0  0  0  0
   11.3377  -15.3213   25.0108 O   0  0  0  0  0  0  0  0  0  0  0  0
   11.7927  -19.0832   22.0986 O   0  0  0  0  0  0  0  0  0  0  0  0
    6.6710  -12.6204   27.6373 C   0  0  0  0  0  0  0  0  0  0  0  0
    7.5079  -13.8828   27.4577 C   0  0  0  0  0  0  0  0  0  0  0  0
    8.9498  -13.5459   27.2613 C   0  0  2  0  0  0  0  0  0  0  0  0
    9.2022  -12.6649   26.0752 C   0  0  0  0  0  0  0  0  0  0  0  0
    9.7877  -14.7818   27.3283 C   0  0  2  0  0  0  0  0  0  0  0  0
    9.3998  -15.6325   26.2106 N   0  0  0  0  0  0  0  0  0  0  0  0
    9.7079  -15.5165   28.6110 C   0  0  0  0  0  0  0  0  0  0  0  0
    9.2249  -16.6616   28.7428 O   0  0  0  0  0  0  0  0  0  0  0  0
   10.2019  -14.8969   29.7500 O   0  0  0  0  0  0  0  0  0  0  0  0
  2  9  1  0
  2  1  1  6
  3  2  1  0
  4  3  1  0
  4  8  1  0
  5  6  1  0
  5  4  2  0
  6  7  1  0
  7  8  2  0
  9 11  1  0
 10  9  2  0
 11 12  1  0
 12 16  1  0
 12 13  1  6
 14 13  1  0
 14 15  2  0
 16 17  2  0
 16 24  1  0
 18 14  1  0
 20 19  1  0
 21 20  1  0
 21 22  1  6
 23 21  1  0
 23 24  1  6
 25 23  1  0
 25 27  1  0
 26 25  2  0
M  END
$$$$
