HDI.pdb
     RDKit          3D

 27 27  0  0  1  0  0  0  0  0999 V2000
    9.7945  -14.8600   19.9782 N   0  0  0  0  0  0  0  0  0  0  0  0
    8.4539  -14.6118   20.5782 C   0  0  1  0  0  0  0  0  0  0  0  0
    7.4852  -15.0129   19.5403 C   0  0  0  0  0  0  0  0  0  0  0  0
    7.4858  -14.3022   18.2721 C   0  0  0  0  0  0  0  0  0  0  0  0
    8.3171  -13.3623   17.7511 C   0  0  0  0  0  0  0  0  0  0  0  0
    7.8851  -13.0867   16.4985 N   0  0  0  0  0  0  0  0  0  0  0  0
    6.8174  -13.8323   16.2441 C   0  0  0  0  0  0  0  0  0  0  0  0
    6.5481  -14.5875   17.3106 N   0  0  0  0  0  0  0  0  0  0  0  0
    8.4020  -15.4264   21.8319 C   0  0  0  0  0  0  0  0  0  0  0  0
    7.3932  -15.4587   22.5376 O   0  0  0  0  0  0  0  0  0  0  0  0
    9.5182  -16.2005   22.2636 N   0  0  0  0  0  0  0  0  0  0  0  0
    9.5443  -16.8545   23.5299 C   0  0  1  0  0  0  0  0  0  0  0  0
   10.3229  -18.1460   23.5276 C   0  0  0  0  0  0  0  0  0  0  0  0
   10.3398  -18.7997   24.8502 C   0  0  0  0  0  0  0  0  0  0  0  0
   10.0554  -20.0231   24.9255 O   0  0  0  0  0  0  0  0  0  0  0  0
    9.9715  -15.9487   24.6326 C   0  0  0  0  0  0  0  0  0  0  0  0
   11.1398  -15.4947   24.5879 O   0  0  0  0  0  0  0  0  0  0  0  0
   10.6496  -18.1626   26.0397 O   0  0  0  0  0  0  0  0  0  0  0  0
    6.5916  -12.3706   25.8663 C   0  0  0  0  0  0  0  0  0  0  0  0
    7.8762  -13.1709   25.6780 C   0  0  0  0  0  0  0  0  0  0  0  0
    8.3517  -13.7338   26.9773 C   0  0  2  0  0  0  0  0  0  0  0  0
    8.5500  -12.6972   28.0415 C   0  0  0  0  0  0  0  0  0  0  0  0
    9.5111  -14.6505   26.7551 C   0  0  2  0  0  0  0  0  0  0  0  0
    9.1312  -15.5873   25.7055 N   0  0  0  0  0  0  0  0  0  0  0  0
    9.9777  -15.3649   27.9648 C   0  0  0  0  0  0  0  0  0  0  0  0
    9.6657  -16.5388   28.2590 O   0  0  0  0  0  0  0  0  0  0  0  0
   10.8203  -14.6906   28.8369 O   0  0  0  0  0  0  0  0  0  0  0  0
  2  9  1  0
  2  1  1  6
  3  2  1  0
  4  3  1  0
  4  8  1  0
  5  6  1  0
  5  4  2  0
  6  7  1  0
  7  8  2  0
  9 11  1  0
 10  9  2  0
 11 12  1  0
 12 16  1  0
 12 13  1  6
 14 13  1  0
 14 15  2  0
 16 17  2  0
 16 24  1  0
 18 14  1  0
 20 19  1  0
 21 20  1  0
 21 22  1  1
 23 21  1  0
 23 24  1  6
 25 23  1  0
 25 27  1  0
 26 25  2  0
M  END
$$$$
