HDI.pdb
     RDKit          3D

 27 27  0  0  1  0  0  0  0  0999 V2000
    8.8110  -17.8523   19.3230 N   0  0  0  0  0  0  0  0  0  0  0  0
    8.7295  -16.6682   20.2231 C   0  0  1  0  0  0  0  0  0  0  0  0
    7.6818  -15.8093   19.6387 C   0  0  0  0  0  0  0  0  0  0  0  0
    8.0384  -14.4672   19.2085 C   0  0  0  0  0  0  0  0  0  0  0  0
    9.2257  -13.8090   19.1561 C   0  0  0  0  0  0  0  0  0  0  0  0
    8.9927  -12.5928   18.6101 N   0  0  0  0  0  0  0  0  0  0  0  0
    7.6998  -12.4945   18.3286 C   0  0  0  0  0  0  0  0  0  0  0  0
    7.0885  -13.6263   18.6831 N   0  0  0  0  0  0  0  0  0  0  0  0
    8.4147  -17.2017   21.5848 C   0  0  0  0  0  0  0  0  0  0  0  0
    7.6511  -18.1551   21.7422 O   0  0  0  0  0  0  0  0  0  0  0  0
    8.9852  -16.6294   22.7589 N   0  0  0  0  0  0  0  0  0  0  0  0
    8.7214  -17.1466   24.0608 C   0  0  1  0  0  0  0  0  0  0  0  0
    8.9815  -18.6266   24.1876 C   0  0  0  0  0  0  0  0  0  0  0  0
    8.8222  -19.1132   25.5714 C   0  0  0  0  0  0  0  0  0  0  0  0
    7.8677  -18.6727   26.2629 O   0  0  0  0  0  0  0  0  0  0  0  0
    9.4004  -16.3679   25.1338 C   0  0  0  0  0  0  0  0  0  0  0  0
   10.6543  -16.3791   25.1510 O   0  0  0  0  0  0  0  0  0  0  0  0
    9.6554  -20.0343   26.1830 O   0  0  0  0  0  0  0  0  0  0  0  0
    6.4093  -12.3150   26.5965 C   0  0  0  0  0  0  0  0  0  0  0  0
    7.5757  -13.2175   26.2076 C   0  0  0  0  0  0  0  0  0  0  0  0
    8.3229  -13.6775   27.4164 C   0  0  2  0  0  0  0  0  0  0  0  0
    8.8316  -12.5544   28.2686 C   0  0  0  0  0  0  0  0  0  0  0  0
    9.3410  -14.7050   27.0401 C   0  0  2  0  0  0  0  0  0  0  0  0
    8.7033  -15.6316   26.1137 N   0  0  0  0  0  0  0  0  0  0  0  0
    9.9471  -15.4252   28.1826 C   0  0  0  0  0  0  0  0  0  0  0  0
    9.5584  -16.5342   28.6079 O   0  0  0  0  0  0  0  0  0  0  0  0
   11.0219  -14.8338   28.8310 O   0  0  0  0  0  0  0  0  0  0  0  0
  2  9  1  0
  2  1  1  6
  3  2  1  0
  4  3  1  0
  4  8  1  0
  5  6  1  0
  5  4  2  0
  6  7  1  0
  7  8  2  0
  9 11  1  0
 10  9  2  0
 11 12  1  0
 12 16  1  0
 12 13  1  6
 14 13  1  0
 14 15  2  0
 16 17  2  0
 16 24  1  0
 18 14  1  0
 20 19  1  0
 21 20  1  0
 21 22  1  6
 23 21  1  0
 23 24  1  6
 25 23  1  0
 25 27  1  0
 26 25  2  0
M  END
$$$$
