HDI.pdb
     RDKit          3D

 27 27  0  0  1  0  0  0  0  0999 V2000
    7.7249  -17.9227   18.6750 N   0  0  0  0  0  0  0  0  0  0  0  0
    8.3620  -16.7719   19.3741 C   0  0  1  0  0  0  0  0  0  0  0  0
    7.6627  -15.5759   18.8669 C   0  0  0  0  0  0  0  0  0  0  0  0
    8.0689  -14.2689   19.3571 C   0  0  0  0  0  0  0  0  0  0  0  0
    9.1170  -13.8640   20.1208 C   0  0  0  0  0  0  0  0  0  0  0  0
    9.0479  -12.5164   20.2246 N   0  0  0  0  0  0  0  0  0  0  0  0
    7.9898  -12.0921   19.5456 C   0  0  0  0  0  0  0  0  0  0  0  0
    7.3699  -13.1414   19.0026 N   0  0  0  0  0  0  0  0  0  0  0  0
    8.1873  -17.0260   20.8379 C   0  0  0  0  0  0  0  0  0  0  0  0
    7.1101  -17.4012   21.3023 O   0  0  0  0  0  0  0  0  0  0  0  0
    9.2603  -16.8448   21.7584 N   0  0  0  0  0  0  0  0  0  0  0  0
    9.1250  -17.1314   23.1482 C   0  0  1  0  0  0  0  0  0  0  0  0
    9.9596  -18.2999   23.6088 C   0  0  0  0  0  0  0  0  0  0  0  0
    9.8168  -18.5635   25.0535 C   0  0  0  0  0  0  0  0  0  0  0  0
   10.6413  -18.0433   25.8490 O   0  0  0  0  0  0  0  0  0  0  0  0
    9.3309  -15.9287   24.0027 C   0  0  0  0  0  0  0  0  0  0  0  0
   10.3958  -15.2848   23.8474 O   0  0  0  0  0  0  0  0  0  0  0  0
    8.8286  -19.3533   25.6160 O   0  0  0  0  0  0  0  0  0  0  0  0
    6.4246  -11.3028   26.4305 C   0  0  0  0  0  0  0  0  0  0  0  0
    7.6010  -12.2583   26.6007 C   0  0  0  0  0  0  0  0  0  0  0  0
    7.3899  -13.5124   25.8172 C   0  0  2  0  0  0  0  0  0  0  0  0
    6.1079  -14.2153   26.1471 C   0  0  0  0  0  0  0  0  0  0  0  0
    8.6156  -14.3666   25.8603 C   0  0  2  0  0  0  0  0  0  0  0  0
    8.3942  -15.4924   24.9620 N   0  0  0  0  0  0  0  0  0  0  0  0
    9.0013  -14.8305   27.2122 C   0  0  0  0  0  0  0  0  0  0  0  0
    9.3581  -14.0785   28.1444 O   0  0  0  0  0  0  0  0  0  0  0  0
    8.9665  -16.1936   27.4692 O   0  0  0  0  0  0  0  0  0  0  0  0
  2  9  1  0
  2  1  1  6
  3  2  1  0
  4  3  1  0
  4  8  1  0
  5  6  1  0
  5  4  2  0
  6  7  1  0
  7  8  2  0
  9 11  1  0
 10  9  2  0
 11 12  1  0
 12 16  1  0
 12 13  1  1
 14 13  1  0
 14 15  2  0
 16 17  2  0
 16 24  1  0
 18 14  1  0
 20 19  1  0
 21 20  1  0
 21 22  1  1
 23 21  1  0
 23 24  1  6
 25 23  1  0
 25 27  1  0
 26 25  2  0
M  END
$$$$
