HDI.pdb
     RDKit          3D

 27 27  0  0  1  0  0  0  0  0999 V2000
    9.5666  -16.5903   19.7822 N   0  0  0  0  0  0  0  0  0  0  0  0
    8.9240  -15.5135   20.5862 C   0  0  1  0  0  0  0  0  0  0  0  0
    7.6551  -15.2185   19.8938 C   0  0  0  0  0  0  0  0  0  0  0  0
    7.6854  -14.3783   18.7078 C   0  0  0  0  0  0  0  0  0  0  0  0
    8.7090  -13.8556   17.9835 C   0  0  0  0  0  0  0  0  0  0  0  0
    8.1684  -13.1957   16.9329 N   0  0  0  0  0  0  0  0  0  0  0  0
    6.8475  -13.3037   16.9979 C   0  0  0  0  0  0  0  0  0  0  0  0
    6.5207  -14.0225   18.0735 N   0  0  0  0  0  0  0  0  0  0  0  0
    8.7701  -16.0627   21.9692 C   0  0  0  0  0  0  0  0  0  0  0  0
    7.7301  -15.9095   22.6109 O   0  0  0  0  0  0  0  0  0  0  0  0
    9.8208  -16.7871   22.6040 N   0  0  0  0  0  0  0  0  0  0  0  0
    9.7277  -17.2321   23.9550 C   0  0  1  0  0  0  0  0  0  0  0  0
   10.5217  -18.4830   24.2357 C   0  0  0  0  0  0  0  0  0  0  0  0
   10.3823  -18.9413   25.6312 C   0  0  0  0  0  0  0  0  0  0  0  0
    9.2773  -18.7862   26.2127 O   0  0  0  0  0  0  0  0  0  0  0  0
   10.0269  -16.1509   24.9350 C   0  0  0  0  0  0  0  0  0  0  0  0
   11.1710  -15.6383   24.8988 O   0  0  0  0  0  0  0  0  0  0  0  0
   11.3899  -19.5405   26.3677 O   0  0  0  0  0  0  0  0  0  0  0  0
    6.6407  -12.4022   25.5719 C   0  0  0  0  0  0  0  0  0  0  0  0
    7.9040  -13.2566   25.5626 C   0  0  0  0  0  0  0  0  0  0  0  0
    8.2376  -13.7342   26.9380 C   0  0  2  0  0  0  0  0  0  0  0  0
    8.3536  -12.6287   27.9435 C   0  0  0  0  0  0  0  0  0  0  0  0
    9.3926  -14.6817   26.8950 C   0  0  2  0  0  0  0  0  0  0  0  0
    9.0932  -15.6884   25.8848 N   0  0  0  0  0  0  0  0  0  0  0  0
    9.7276  -15.3109   28.1924 C   0  0  0  0  0  0  0  0  0  0  0  0
   10.2792  -14.7195   29.1453 O   0  0  0  0  0  0  0  0  0  0  0  0
    9.4099  -16.6498   28.3700 O   0  0  0  0  0  0  0  0  0  0  0  0
  2  9  1  0
  2  1  1  6
  3  2  1  0
  4  3  1  0
  4  8  1  0
  5  6  1  0
  5  4  2  0
  6  7  1  0
  7  8  2  0
  9 11  1  0
 10  9  2  0
 11 12  1  0
 12 16  1  0
 12 13  1  6
 14 13  1  0
 14 15  2  0
 16 17  2  0
 16 24  1  0
 18 14  1  0
 20 19  1  0
 21 20  1  0
 21 22  1  1
 23 21  1  0
 23 24  1  6
 25 23  1  0
 25 27  1  0
 26 25  2  0
M  END
$$$$
