HDI.pdb
     RDKit          3D

 27 27  0  0  1  0  0  0  0  0999 V2000
    8.8520  -17.0091   19.5237 N   0  0  0  0  0  0  0  0  0  0  0  0
    8.9118  -15.8657   20.4766 C   0  0  1  0  0  0  0  0  0  0  0  0
    7.7651  -15.0072   20.1233 C   0  0  0  0  0  0  0  0  0  0  0  0
    7.8218  -14.2381   18.8909 C   0  0  0  0  0  0  0  0  0  0  0  0
    8.4089  -13.0534   18.5786 C   0  0  0  0  0  0  0  0  0  0  0  0
    8.1994  -12.8307   17.2602 N   0  0  0  0  0  0  0  0  0  0  0  0
    7.5039  -13.8458   16.7636 C   0  0  0  0  0  0  0  0  0  0  0  0
    7.2575  -14.7241   17.7373 N   0  0  0  0  0  0  0  0  0  0  0  0
    8.8488  -16.4626   21.8469 C   0  0  0  0  0  0  0  0  0  0  0  0
    7.8310  -17.0191   22.2607 O   0  0  0  0  0  0  0  0  0  0  0  0
    9.9643  -16.4128   22.7328 N   0  0  0  0  0  0  0  0  0  0  0  0
    9.9195  -16.9744   24.0422 C   0  0  1  0  0  0  0  0  0  0  0  0
   10.7691  -18.2103   24.1995 C   0  0  0  0  0  0  0  0  0  0  0  0
   10.6873  -18.7850   25.5560 C   0  0  0  0  0  0  0  0  0  0  0  0
   11.7114  -18.7624   26.2868 O   0  0  0  0  0  0  0  0  0  0  0  0
   10.1970  -15.9687   25.1054 C   0  0  0  0  0  0  0  0  0  0  0  0
   11.3392  -15.4511   25.1275 O   0  0  0  0  0  0  0  0  0  0  0  0
    9.5514  -19.3592   26.1008 O   0  0  0  0  0  0  0  0  0  0  0  0
    6.2929  -12.7454   26.1997 C   0  0  0  0  0  0  0  0  0  0  0  0
    7.6364  -13.4410   26.0064 C   0  0  0  0  0  0  0  0  0  0  0  0
    8.2328  -13.8280   27.3200 C   0  0  2  0  0  0  0  0  0  0  0  0
    8.3246  -12.6920   28.2934 C   0  0  0  0  0  0  0  0  0  0  0  0
    9.4991  -14.5943   27.1120 C   0  0  2  0  0  0  0  0  0  0  0  0
    9.2451  -15.5817   26.0709 N   0  0  0  0  0  0  0  0  0  0  0  0
   10.0454  -15.2325   28.3310 C   0  0  0  0  0  0  0  0  0  0  0  0
    9.8395  -16.4199   28.6621 O   0  0  0  0  0  0  0  0  0  0  0  0
   10.8421  -14.4651   29.1685 O   0  0  0  0  0  0  0  0  0  0  0  0
  2  9  1  0
  2  1  1  6
  3  2  1  0
  4  3  1  0
  4  8  1  0
  5  6  1  0
  5  4  2  0
  6  7  1  0
  7  8  2  0
  9 11  1  0
 10  9  2  0
 11 12  1  0
 12 16  1  0
 12 13  1  6
 14 13  1  0
 14 15  2  0
 16 17  2  0
 16 24  1  0
 18 14  1  0
 20 19  1  0
 21 20  1  0
 21 22  1  1
 23 21  1  0
 23 24  1  6
 25 23  1  0
 25 27  1  0
 26 25  2  0
M  END
$$$$
