HDI.pdb
     RDKit          3D

 27 27  0  0  1  0  0  0  0  0999 V2000
    8.3909  -16.9777   19.3769 N   0  0  0  0  0  0  0  0  0  0  0  0
    8.6520  -15.8750   20.3437 C   0  0  1  0  0  0  0  0  0  0  0  0
    7.6706  -14.8257   20.0082 C   0  0  0  0  0  0  0  0  0  0  0  0
    7.8511  -14.0670   18.7813 C   0  0  0  0  0  0  0  0  0  0  0  0
    8.4143  -12.8566   18.5293 C   0  0  0  0  0  0  0  0  0  0  0  0
    8.3700  -12.6581   17.1914 N   0  0  0  0  0  0  0  0  0  0  0  0
    7.7979  -13.7126   16.6245 C   0  0  0  0  0  0  0  0  0  0  0  0
    7.4693  -14.5929   17.5718 N   0  0  0  0  0  0  0  0  0  0  0  0
    8.4914  -16.4702   21.7068 C   0  0  0  0  0  0  0  0  0  0  0  0
    7.4273  -16.9741   22.0681 O   0  0  0  0  0  0  0  0  0  0  0  0
    9.5634  -16.4797   22.6462 N   0  0  0  0  0  0  0  0  0  0  0  0
    9.4072  -16.9816   23.9712 C   0  0  1  0  0  0  0  0  0  0  0  0
   10.0449  -18.3311   24.1858 C   0  0  0  0  0  0  0  0  0  0  0  0
   10.0529  -18.7347   25.6049 C   0  0  0  0  0  0  0  0  0  0  0  0
    8.9569  -18.8213   26.2168 O   0  0  0  0  0  0  0  0  0  0  0  0
    9.8246  -15.9972   25.0083 C   0  0  0  0  0  0  0  0  0  0  0  0
   11.0182  -15.6124   24.9930 O   0  0  0  0  0  0  0  0  0  0  0  0
   11.1926  -19.0319   26.3326 O   0  0  0  0  0  0  0  0  0  0  0  0
    6.8459  -11.9397   25.8468 C   0  0  0  0  0  0  0  0  0  0  0  0
    8.0026  -12.9317   25.7822 C   0  0  0  0  0  0  0  0  0  0  0  0
    8.2896  -13.5080   27.1300 C   0  0  2  0  0  0  0  0  0  0  0  0
    8.5084  -12.4711   28.1899 C   0  0  0  0  0  0  0  0  0  0  0  0
    9.3509  -14.5560   27.0335 C   0  0  2  0  0  0  0  0  0  0  0  0
    8.9483  -15.4893   25.9892 N   0  0  0  0  0  0  0  0  0  0  0  0
    9.6396  -15.2651   28.3005 C   0  0  0  0  0  0  0  0  0  0  0  0
    9.2111  -16.4031   28.5892 O   0  0  0  0  0  0  0  0  0  0  0  0
   10.4408  -14.6280   29.2372 O   0  0  0  0  0  0  0  0  0  0  0  0
  2  9  1  0
  2  1  1  6
  3  2  1  0
  4  3  1  0
  4  8  1  0
  5  6  1  0
  5  4  2  0
  6  7  1  0
  7  8  2  0
  9 11  1  0
 10  9  2  0
 11 12  1  0
 12 16  1  0
 12 13  1  6
 14 13  1  0
 14 15  2  0
 16 17  2  0
 16 24  1  0
 18 14  1  0
 20 19  1  0
 21 20  1  0
 21 22  1  1
 23 21  1  0
 23 24  1  6
 25 23  1  0
 25 27  1  0
 26 25  2  0
M  END
$$$$
