LMR.pdb
     RDKit          3D

 28 27  0  0  1  0  0  0  0  0999 V2000
    7.4020  -12.2120   18.2591 C   0  0  0  0  0  0  0  0  0  0  0  0
    7.4481  -13.6062   18.7969 C   0  0  1  0  0  0  0  0  0  0  0  0
    7.6231  -14.6295   17.7004 C   0  0  0  0  0  0  0  0  0  0  0  0
    8.5153  -13.8138   19.8305 C   0  0  0  0  0  0  0  0  0  0  0  0
    8.4504  -15.1519   20.5260 C   0  0  2  0  0  0  0  0  0  0  0  0
    7.0770  -15.6460   20.5878 N   0  0  0  0  0  0  0  0  0  0  0  0
    8.8504  -14.8836   21.9502 C   0  0  0  0  0  0  0  0  0  0  0  0
   10.0150  -14.5343   22.2719 O   0  0  0  0  0  0  0  0  0  0  0  0
    6.1869  -11.1839   26.9866 C   0  0  0  0  0  0  0  0  0  0  0  0
    6.1093  -12.9565   27.3348 S   0  0  0  0  0  0  0  0  0  0  0  0
    7.5240  -13.7829   26.5504 C   0  0  0  0  0  0  0  0  0  0  0  0
    7.1387  -14.0752   25.1224 C   0  0  0  0  0  0  0  0  0  0  0  0
    8.2714  -14.7139   24.3391 C   0  0  2  0  0  0  0  0  0  0  0  0
    7.9054  -15.0191   22.9960 N   0  0  0  0  0  0  0  0  0  0  0  0
    8.6948  -15.9161   25.0764 C   0  0  0  0  0  0  0  0  0  0  0  0
    7.9614  -16.9424   25.2086 O   0  0  0  0  0  0  0  0  0  0  0  0
   15.6003  -16.2754   24.2164 N   0  0  0  0  0  0  0  0  0  0  0  0
   16.0483  -17.5267   24.7162 C   0  0  0  0  0  0  0  0  0  0  0  0
   17.2630  -17.6415   25.0691 N   0  0  0  0  0  0  0  0  0  0  0  0
   15.1354  -18.6095   24.8075 N   0  0  0  0  0  0  0  0  0  0  0  0
   13.8197  -18.5417   24.2624 C   0  0  0  0  0  0  0  0  0  0  0  0
   12.7211  -18.4878   25.2994 C   0  0  0  0  0  0  0  0  0  0  0  0
   11.8349  -17.3001   25.0829 C   0  0  0  0  0  0  0  0  0  0  0  0
   10.6380  -17.2303   25.9769 C   0  0  2  0  0  0  0  0  0  0  0  0
    9.9750  -15.9515   25.6730 N   0  0  0  0  0  0  0  0  0  0  0  0
   10.9236  -17.2487   27.4114 C   0  0  0  0  0  0  0  0  0  0  0  0
   11.0041  -16.1906   28.1023 O   0  0  0  0  0  0  0  0  0  0  0  0
   11.1168  -18.4479   28.0666 O   0  0  0  0  0  0  0  0  0  0  0  0
  2  1  1  6
  2  3  1  0
  4  2  1  0
  5  4  1  0
  5  6  1  1
  7  8  2  0
  7  5  1  0
  9 10  1  0
 10 11  1  0
 11 12  1  0
 13 12  1  1
 13 15  1  0
 13 14  1  0
 14  7  1  0
 15 16  2  0
 18 17  1  0
 18 20  1  0
 19 18  2  0
 20 21  1  0
 21 22  1  0
 22 23  1  0
 24 23  1  6
 24 26  1  0
 25 24  1  0
 25 15  1  0
 26 27  2  0
 26 28  1  0
M  END
$$$$
