LMR.pdb
     RDKit          3D

 28 27  0  0  1  0  0  0  0  0999 V2000
    7.5209  -11.9316   18.3351 C   0  0  0  0  0  0  0  0  0  0  0  0
    7.6437  -13.3278   18.8554 C   0  0  1  0  0  0  0  0  0  0  0  0
    8.2975  -14.2489   17.8533 C   0  0  0  0  0  0  0  0  0  0  0  0
    8.3862  -13.4185   20.1557 C   0  0  0  0  0  0  0  0  0  0  0  0
    8.4582  -14.8124   20.7306 C   0  0  2  0  0  0  0  0  0  0  0  0
    7.1265  -15.4014   20.8489 N   0  0  0  0  0  0  0  0  0  0  0  0
    8.9531  -14.6401   22.1397 C   0  0  0  0  0  0  0  0  0  0  0  0
   10.1101  -14.2241   22.4047 O   0  0  0  0  0  0  0  0  0  0  0  0
    6.3325  -13.0012   27.8636 C   0  0  0  0  0  0  0  0  0  0  0  0
    6.0981  -12.0773   26.3271 S   0  0  0  0  0  0  0  0  0  0  0  0
    7.1565  -12.7889   25.0336 C   0  0  0  0  0  0  0  0  0  0  0  0
    7.5612  -14.1671   25.4915 C   0  0  0  0  0  0  0  0  0  0  0  0
    8.5880  -14.8017   24.5711 C   0  0  2  0  0  0  0  0  0  0  0  0
    8.1114  -14.9481   23.2359 N   0  0  0  0  0  0  0  0  0  0  0  0
    8.9683  -16.0965   25.1602 C   0  0  0  0  0  0  0  0  0  0  0  0
    8.1416  -17.0379   25.3576 O   0  0  0  0  0  0  0  0  0  0  0  0
   15.0682  -15.0394   22.0197 N   0  0  0  0  0  0  0  0  0  0  0  0
   13.9816  -15.5325   21.2500 C   0  0  0  0  0  0  0  0  0  0  0  0
   13.8832  -15.1731   20.0357 N   0  0  0  0  0  0  0  0  0  0  0  0
   13.0395  -16.4069   21.8519 N   0  0  0  0  0  0  0  0  0  0  0  0
   13.0067  -16.6360   23.2587 C   0  0  0  0  0  0  0  0  0  0  0  0
   11.9800  -17.6554   23.6970 C   0  0  0  0  0  0  0  0  0  0  0  0
   12.0550  -17.8936   25.1736 C   0  0  0  0  0  0  0  0  0  0  0  0
   10.7782  -17.6661   25.9184 C   0  0  2  0  0  0  0  0  0  0  0  0
   10.3125  -16.3244   25.5306 N   0  0  0  0  0  0  0  0  0  0  0  0
   10.8890  -17.6896   27.3768 C   0  0  0  0  0  0  0  0  0  0  0  0
   10.7097  -16.6581   28.0891 O   0  0  0  0  0  0  0  0  0  0  0  0
   11.1984  -18.8644   28.0318 O   0  0  0  0  0  0  0  0  0  0  0  0
  2  1  1  6
  2  3  1  0
  4  2  1  0
  5  4  1  0
  5  6  1  1
  7  8  2  0
  7  5  1  0
  9 10  1  0
 10 11  1  0
 11 12  1  0
 13 12  1  1
 13 15  1  0
 13 14  1  0
 14  7  1  0
 15 16  2  0
 18 17  1  0
 18 20  1  0
 19 18  2  0
 20 21  1  0
 21 22  1  0
 22 23  1  0
 24 23  1  6
 24 26  1  0
 25 24  1  0
 25 15  1  0
 26 27  2  0
 26 28  1  0
M  END
$$$$
