LMR.pdb
     RDKit          3D

 28 27  0  0  1  0  0  0  0  0999 V2000
    7.6115  -11.5696   19.1427 C   0  0  0  0  0  0  0  0  0  0  0  0
    7.5470  -13.0483   19.3538 C   0  0  1  0  0  0  0  0  0  0  0  0
    7.5550  -13.8065   18.0480 C   0  0  0  0  0  0  0  0  0  0  0  0
    8.6449  -13.5761   20.2292 C   0  0  0  0  0  0  0  0  0  0  0  0
    8.4576  -15.0111   20.6583 C   0  0  2  0  0  0  0  0  0  0  0  0
    7.0414  -15.3678   20.6961 N   0  0  0  0  0  0  0  0  0  0  0  0
    8.9293  -15.0681   22.0847 C   0  0  0  0  0  0  0  0  0  0  0  0
   10.1183  -14.8249   22.4148 O   0  0  0  0  0  0  0  0  0  0  0  0
    6.4813  -10.9398   26.6906 C   0  0  0  0  0  0  0  0  0  0  0  0
    6.8618  -12.6979   26.8736 S   0  0  0  0  0  0  0  0  0  0  0  0
    7.0453  -13.4449   25.2279 C   0  0  0  0  0  0  0  0  0  0  0  0
    7.3740  -14.9024   25.4298 C   0  0  0  0  0  0  0  0  0  0  0  0
    8.4568  -15.3855   24.4821 C   0  0  2  0  0  0  0  0  0  0  0  0
    8.0275  -15.4048   23.1232 N   0  0  0  0  0  0  0  0  0  0  0  0
    8.8811  -16.7193   24.9397 C   0  0  0  0  0  0  0  0  0  0  0  0
    8.0846  -17.7002   25.0498 O   0  0  0  0  0  0  0  0  0  0  0  0
   15.5827  -20.2468   27.2300 N   0  0  0  0  0  0  0  0  0  0  0  0
   15.5826  -21.2298   26.2053 C   0  0  0  0  0  0  0  0  0  0  0  0
   16.2721  -22.2833   26.3725 N   0  0  0  0  0  0  0  0  0  0  0  0
   14.8193  -21.0121   25.0288 N   0  0  0  0  0  0  0  0  0  0  0  0
   14.1225  -19.7912   24.7906 C   0  0  0  0  0  0  0  0  0  0  0  0
   12.7691  -19.7092   25.4592 C   0  0  0  0  0  0  0  0  0  0  0  0
   12.0669  -18.4367   25.0980 C   0  0  0  0  0  0  0  0  0  0  0  0
   10.7068  -18.2707   25.6972 C   0  0  2  0  0  0  0  0  0  0  0  0
   10.2349  -16.9408   25.2774 N   0  0  0  0  0  0  0  0  0  0  0  0
   10.6543  -18.3159   27.1583 C   0  0  0  0  0  0  0  0  0  0  0  0
   10.4702  -19.3924   27.7991 O   0  0  0  0  0  0  0  0  0  0  0  0
   10.8084  -17.1595   27.8957 O   0  0  0  0  0  0  0  0  0  0  0  0
  2  1  1  6
  2  3  1  0
  4  2  1  0
  5  4  1  0
  5  6  1  1
  7  8  2  0
  7  5  1  0
  9 10  1  0
 10 11  1  0
 11 12  1  0
 13 12  1  1
 13 15  1  0
 13 14  1  0
 14  7  1  0
 15 16  2  0
 18 17  1  0
 18 20  1  0
 19 18  2  0
 20 21  1  0
 21 22  1  0
 22 23  1  0
 24 23  1  1
 24 26  1  0
 25 24  1  0
 25 15  1  0
 26 27  2  0
 26 28  1  0
M  END
$$$$
