LMR.pdb
     RDKit          3D

 28 27  0  0  1  0  0  0  0  0999 V2000
    7.9229  -11.6917   19.5243 C   0  0  0  0  0  0  0  0  0  0  0  0
    7.6554  -13.1371   19.7968 C   0  0  1  0  0  0  0  0  0  0  0  0
    7.0199  -13.8272   18.6136 C   0  0  0  0  0  0  0  0  0  0  0  0
    8.8769  -13.9043   20.2087 C   0  0  0  0  0  0  0  0  0  0  0  0
    8.5823  -15.2458   20.8350 C   0  0  2  0  0  0  0  0  0  0  0  0
    7.1460  -15.5114   20.8570 N   0  0  0  0  0  0  0  0  0  0  0  0
    8.9937  -15.1151   22.2751 C   0  0  0  0  0  0  0  0  0  0  0  0
   10.1827  -14.8973   22.6224 O   0  0  0  0  0  0  0  0  0  0  0  0
    5.4500  -11.9436   27.0048 C   0  0  0  0  0  0  0  0  0  0  0  0
    7.2470  -12.1175   27.1038 S   0  0  0  0  0  0  0  0  0  0  0  0
    7.8706  -12.7893   25.5355 C   0  0  0  0  0  0  0  0  0  0  0  0
    7.4424  -14.2331   25.4630 C   0  0  0  0  0  0  0  0  0  0  0  0
    8.4182  -15.0843   24.6708 C   0  0  2  0  0  0  0  0  0  0  0  0
    8.0319  -15.2360   23.3073 N   0  0  0  0  0  0  0  0  0  0  0  0
    8.5272  -16.3835   25.3552 C   0  0  0  0  0  0  0  0  0  0  0  0
    7.5242  -17.1120   25.6235 O   0  0  0  0  0  0  0  0  0  0  0  0
   13.4540  -21.7816   21.5444 N   0  0  0  0  0  0  0  0  0  0  0  0
   13.5321  -20.3840   21.7829 C   0  0  0  0  0  0  0  0  0  0  0  0
   14.6357  -19.7914   21.5727 N   0  0  0  0  0  0  0  0  0  0  0  0
   12.3848  -19.6897   22.2474 N   0  0  0  0  0  0  0  0  0  0  0  0
   11.2243  -20.3705   22.7192 C   0  0  0  0  0  0  0  0  0  0  0  0
   10.8897  -20.0949   24.1674 C   0  0  0  0  0  0  0  0  0  0  0  0
   10.4506  -18.6757   24.3574 C   0  0  0  0  0  0  0  0  0  0  0  0
   10.0954  -18.3042   25.7618 C   0  0  2  0  0  0  0  0  0  0  0  0
    9.7992  -16.8622   25.7406 N   0  0  0  0  0  0  0  0  0  0  0  0
   11.1470  -18.5235   26.7546 C   0  0  0  0  0  0  0  0  0  0  0  0
   11.8083  -17.5725   27.2662 O   0  0  0  0  0  0  0  0  0  0  0  0
   11.4538  -19.8029   27.1716 O   0  0  0  0  0  0  0  0  0  0  0  0
  2  1  1  6
  2  3  1  0
  4  2  1  0
  5  4  1  0
  5  6  1  1
  7  8  2  0
  7  5  1  0
  9 10  1  0
 10 11  1  0
 11 12  1  0
 13 12  1  1
 13 15  1  0
 13 14  1  0
 14  7  1  0
 15 16  2  0
 18 17  1  0
 18 20  1  0
 19 18  2  0
 20 21  1  0
 21 22  1  0
 22 23  1  0
 24 23  1  6
 24 26  1  0
 25 24  1  0
 25 15  1  0
 26 27  2  0
 26 28  1  0
M  END
$$$$
