LMR.pdb
     RDKit          3D

 28 27  0  0  1  0  0  0  0  0999 V2000
    7.7169  -12.0001   18.9124 C   0  0  0  0  0  0  0  0  0  0  0  0
    7.6222  -13.4521   19.2559 C   0  0  1  0  0  0  0  0  0  0  0  0
    7.5205  -14.3189   18.0236 C   0  0  0  0  0  0  0  0  0  0  0  0
    8.7595  -13.9421   20.1024 C   0  0  0  0  0  0  0  0  0  0  0  0
    8.5012  -15.2670   20.7781 C   0  0  2  0  0  0  0  0  0  0  0  0
    7.0701  -15.5527   20.8447 N   0  0  0  0  0  0  0  0  0  0  0  0
    8.9460  -15.0843   22.2025 C   0  0  0  0  0  0  0  0  0  0  0  0
   10.1568  -14.9761   22.5251 O   0  0  0  0  0  0  0  0  0  0  0  0
    6.3575  -11.2690   26.3420 C   0  0  0  0  0  0  0  0  0  0  0  0
    6.8800  -12.4959   27.5630 S   0  0  0  0  0  0  0  0  0  0  0  0
    8.0182  -13.6741   26.7780 C   0  0  0  0  0  0  0  0  0  0  0  0
    7.4995  -13.9423   25.3880 C   0  0  0  0  0  0  0  0  0  0  0  0
    8.4156  -14.8596   24.5983 C   0  0  2  0  0  0  0  0  0  0  0  0
    7.9923  -15.0269   23.2477 N   0  0  0  0  0  0  0  0  0  0  0  0
    8.4773  -16.1448   25.3143 C   0  0  0  0  0  0  0  0  0  0  0  0
    7.4726  -16.9044   25.4632 O   0  0  0  0  0  0  0  0  0  0  0  0
   14.3308  -19.7240   23.3591 N   0  0  0  0  0  0  0  0  0  0  0  0
   14.6901  -20.0009   24.7047 C   0  0  0  0  0  0  0  0  0  0  0  0
   15.9170  -19.9523   25.0293 N   0  0  0  0  0  0  0  0  0  0  0  0
   13.6776  -20.3232   25.6456 N   0  0  0  0  0  0  0  0  0  0  0  0
   12.3332  -20.5902   25.2532 C   0  0  0  0  0  0  0  0  0  0  0  0
   11.2897  -19.9638   26.1499 C   0  0  0  0  0  0  0  0  0  0  0  0
   10.8552  -18.6319   25.6206 C   0  0  0  0  0  0  0  0  0  0  0  0
    9.8447  -17.9155   26.4585 C   0  0  2  0  0  0  0  0  0  0  0  0
    9.7035  -16.5734   25.8700 N   0  0  0  0  0  0  0  0  0  0  0  0
   10.2039  -17.7438   27.8661 C   0  0  0  0  0  0  0  0  0  0  0  0
   10.2796  -18.7174   28.6722 O   0  0  0  0  0  0  0  0  0  0  0  0
   10.4775  -16.4866   28.3655 O   0  0  0  0  0  0  0  0  0  0  0  0
  2  1  1  6
  2  3  1  0
  4  2  1  0
  5  4  1  0
  5  6  1  1
  7  8  2  0
  7  5  1  0
  9 10  1  0
 10 11  1  0
 11 12  1  0
 13 12  1  1
 13 15  1  0
 13 14  1  0
 14  7  1  0
 15 16  2  0
 18 17  1  0
 18 20  1  0
 19 18  2  0
 20 21  1  0
 21 22  1  0
 22 23  1  0
 24 23  1  6
 24 26  1  0
 25 24  1  0
 25 15  1  0
 26 27  2  0
 26 28  1  0
M  END
$$$$
