LMR.pdb
     RDKit          3D

 28 27  0  0  1  0  0  0  0  0999 V2000
    7.6922  -12.0190   18.9969 C   0  0  0  0  0  0  0  0  0  0  0  0
    7.7742  -13.4381   19.4600 C   0  0  1  0  0  0  0  0  0  0  0  0
    8.2869  -14.3573   18.3772 C   0  0  0  0  0  0  0  0  0  0  0  0
    8.6148  -13.6187   20.6893 C   0  0  0  0  0  0  0  0  0  0  0  0
    8.6310  -15.0297   21.2253 C   0  0  2  0  0  0  0  0  0  0  0  0
    7.2744  -15.5511   21.3738 N   0  0  0  0  0  0  0  0  0  0  0  0
    9.1802  -14.9224   22.6207 C   0  0  0  0  0  0  0  0  0  0  0  0
   10.3940  -14.6902   22.8545 O   0  0  0  0  0  0  0  0  0  0  0  0
    5.7767  -12.9064   27.5366 C   0  0  0  0  0  0  0  0  0  0  0  0
    6.8767  -11.8025   26.6198 S   0  0  0  0  0  0  0  0  0  0  0  0
    7.8058  -12.7673   25.3927 C   0  0  0  0  0  0  0  0  0  0  0  0
    8.0390  -14.1362   25.9800 C   0  0  0  0  0  0  0  0  0  0  0  0
    8.8568  -15.0257   25.0612 C   0  0  2  0  0  0  0  0  0  0  0  0
    8.3270  -15.0830   23.7393 N   0  0  0  0  0  0  0  0  0  0  0  0
    8.9222  -16.3596   25.6816 C   0  0  0  0  0  0  0  0  0  0  0  0
    7.9346  -17.1543   25.7224 O   0  0  0  0  0  0  0  0  0  0  0  0
   14.4557  -20.3213   22.0891 N   0  0  0  0  0  0  0  0  0  0  0  0
   13.2241  -19.9010   21.5209 C   0  0  0  0  0  0  0  0  0  0  0  0
   13.0947  -19.9317   20.2578 N   0  0  0  0  0  0  0  0  0  0  0  0
   12.1771  -19.4597   22.3714 N   0  0  0  0  0  0  0  0  0  0  0  0
   12.3113  -19.4339   23.7906 C   0  0  0  0  0  0  0  0  0  0  0  0
   11.1278  -18.8331   24.5143 C   0  0  0  0  0  0  0  0  0  0  0  0
   11.3575  -18.8097   25.9940 C   0  0  0  0  0  0  0  0  0  0  0  0
   10.2719  -18.1635   26.7943 C   0  0  2  0  0  0  0  0  0  0  0  0
   10.1323  -16.7968   26.2650 N   0  0  0  0  0  0  0  0  0  0  0  0
   10.5291  -18.0558   28.2302 C   0  0  0  0  0  0  0  0  0  0  0  0
   10.7705  -16.9494   28.7967 O   0  0  0  0  0  0  0  0  0  0  0  0
   10.5146  -19.1836   29.0257 O   0  0  0  0  0  0  0  0  0  0  0  0
  2  1  1  6
  2  3  1  0
  4  2  1  0
  5  4  1  0
  5  6  1  1
  7  8  2  0
  7  5  1  0
  9 10  1  0
 10 11  1  0
 11 12  1  0
 13 12  1  1
 13 15  1  0
 13 14  1  0
 14  7  1  0
 15 16  2  0
 18 17  1  0
 18 20  1  0
 19 18  2  0
 20 21  1  0
 21 22  1  0
 22 23  1  0
 24 23  1  6
 24 26  1  0
 25 24  1  0
 25 15  1  0
 26 27  2  0
 26 28  1  0
M  END
$$$$
