LMR.pdb
     RDKit          3D

 28 27  0  0  1  0  0  0  0  0999 V2000
    8.4410  -11.7402   19.2694 C   0  0  0  0  0  0  0  0  0  0  0  0
    8.0991  -13.0143   19.9730 C   0  0  1  0  0  0  0  0  0  0  0  0
    6.7253  -13.5161   19.5976 C   0  0  0  0  0  0  0  0  0  0  0  0
    9.0967  -14.1109   19.7434 C   0  0  0  0  0  0  0  0  0  0  0  0
    8.8385  -15.3604   20.5498 C   0  0  2  0  0  0  0  0  0  0  0  0
    7.4265  -15.7328   20.5042 N   0  0  0  0  0  0  0  0  0  0  0  0
    9.1125  -14.9798   21.9782 C   0  0  0  0  0  0  0  0  0  0  0  0
   10.2262  -14.5363   22.3588 O   0  0  0  0  0  0  0  0  0  0  0  0
    5.3105  -11.8779   26.0745 C   0  0  0  0  0  0  0  0  0  0  0  0
    5.9545  -13.1522   27.1838 S   0  0  0  0  0  0  0  0  0  0  0  0
    7.4702  -13.8556   26.4713 C   0  0  0  0  0  0  0  0  0  0  0  0
    7.1577  -14.2507   25.0503 C   0  0  0  0  0  0  0  0  0  0  0  0
    8.3747  -14.7911   24.3216 C   0  0  2  0  0  0  0  0  0  0  0  0
    8.1010  -15.1121   22.9602 N   0  0  0  0  0  0  0  0  0  0  0  0
    8.8548  -15.9629   25.0730 C   0  0  0  0  0  0  0  0  0  0  0  0
    8.1421  -16.9904   25.2845 O   0  0  0  0  0  0  0  0  0  0  0  0
   15.0124  -14.7383   22.6574 N   0  0  0  0  0  0  0  0  0  0  0  0
   14.2400  -15.5967   21.8310 C   0  0  0  0  0  0  0  0  0  0  0  0
   13.9070  -15.1904   20.6746 N   0  0  0  0  0  0  0  0  0  0  0  0
   13.8614  -16.8763   22.3141 N   0  0  0  0  0  0  0  0  0  0  0  0
   13.6736  -17.1389   23.7028 C   0  0  0  0  0  0  0  0  0  0  0  0
   12.2466  -16.9811   24.1761 C   0  0  0  0  0  0  0  0  0  0  0  0
   12.1236  -17.3085   25.6323 C   0  0  0  0  0  0  0  0  0  0  0  0
   10.7452  -17.1776   26.1977 C   0  0  2  0  0  0  0  0  0  0  0  0
   10.1687  -15.9657   25.5923 N   0  0  0  0  0  0  0  0  0  0  0  0
   10.6743  -17.0211   27.6503 C   0  0  0  0  0  0  0  0  0  0  0  0
   10.7678  -18.0022   28.4453 O   0  0  0  0  0  0  0  0  0  0  0  0
   10.5005  -15.7702   28.2072 O   0  0  0  0  0  0  0  0  0  0  0  0
  2  1  1  6
  2  3  1  0
  4  2  1  0
  5  4  1  0
  5  6  1  1
  7  8  2  0
  7  5  1  0
  9 10  1  0
 10 11  1  0
 11 12  1  0
 13 12  1  1
 13 15  1  0
 13 14  1  0
 14  7  1  0
 15 16  2  0
 18 17  1  0
 18 20  1  0
 19 18  2  0
 20 21  1  0
 21 22  1  0
 22 23  1  0
 24 23  1  6
 24 26  1  0
 25 24  1  0
 25 15  1  0
 26 27  2  0
 26 28  1  0
M  END
$$$$
