LMR.pdb
     RDKit          3D

 28 27  0  0  1  0  0  0  0  0999 V2000
    5.9591  -19.3200   19.3613 C   0  0  0  0  0  0  0  0  0  0  0  0
    6.2736  -17.8829   19.0950 C   0  0  1  0  0  0  0  0  0  0  0  0
    5.0244  -17.0584   18.8955 C   0  0  0  0  0  0  0  0  0  0  0  0
    7.1111  -17.2457   20.1641 C   0  0  0  0  0  0  0  0  0  0  0  0
    7.3032  -15.7581   19.9945 C   0  0  2  0  0  0  0  0  0  0  0  0
    8.2057  -15.4681   18.8829 N   0  0  0  0  0  0  0  0  0  0  0  0
    8.0241  -15.3030   21.2328 C   0  0  0  0  0  0  0  0  0  0  0  0
    9.2555  -15.4904   21.4066 O   0  0  0  0  0  0  0  0  0  0  0  0
    5.4879  -12.2586   26.9631 C   0  0  0  0  0  0  0  0  0  0  0  0
    6.9749  -11.4784   26.2929 S   0  0  0  0  0  0  0  0  0  0  0  0
    7.9913  -12.7377   25.4678 C   0  0  0  0  0  0  0  0  0  0  0  0
    7.2571  -13.1621   24.2212 C   0  0  0  0  0  0  0  0  0  0  0  0
    7.9951  -14.2480   23.4594 C   0  0  2  0  0  0  0  0  0  0  0  0
    7.3214  -14.6338   22.2641 N   0  0  0  0  0  0  0  0  0  0  0  0
    8.1751  -15.3860   24.3764 C   0  0  0  0  0  0  0  0  0  0  0  0
    7.2187  -16.1263   24.7586 O   0  0  0  0  0  0  0  0  0  0  0  0
   12.6650  -19.5897   29.8779 N   0  0  0  0  0  0  0  0  0  0  0  0
   12.8070  -18.6595   28.8145 C   0  0  0  0  0  0  0  0  0  0  0  0
   13.0133  -17.4386   29.0973 N   0  0  0  0  0  0  0  0  0  0  0  0
   12.7147  -19.1132   27.4729 N   0  0  0  0  0  0  0  0  0  0  0  0
   11.4616  -19.3562   26.8378 C   0  0  0  0  0  0  0  0  0  0  0  0
   11.3185  -18.7070   25.4800 C   0  0  0  0  0  0  0  0  0  0  0  0
   11.1065  -17.2302   25.6096 C   0  0  0  0  0  0  0  0  0  0  0  0
    9.6841  -16.8076   25.7962 C   0  0  2  0  0  0  0  0  0  0  0  0
    9.4654  -15.6871   24.8666 N   0  0  0  0  0  0  0  0  0  0  0  0
    9.3386  -16.3402   27.1386 C   0  0  0  0  0  0  0  0  0  0  0  0
    9.4334  -15.1248   27.4808 O   0  0  0  0  0  0  0  0  0  0  0  0
    8.8884  -17.2320   28.0909 O   0  0  0  0  0  0  0  0  0  0  0  0
  2  1  1  1
  2  3  1  0
  4  2  1  0
  5  4  1  0
  5  6  1  6
  7  8  2  0
  7  5  1  0
  9 10  1  0
 10 11  1  0
 11 12  1  0
 13 12  1  1
 13 15  1  0
 13 14  1  0
 14  7  1  0
 15 16  2  0
 18 17  1  0
 18 20  1  0
 19 18  2  0
 20 21  1  0
 21 22  1  0
 22 23  1  0
 24 23  1  1
 24 26  1  0
 25 24  1  0
 25 15  1  0
 26 27  2  0
 26 28  1  0
M  END
$$$$
