LMR.pdb
     RDKit          3D

 28 27  0  0  1  0  0  0  0  0999 V2000
    7.8681  -12.1687   18.3412 C   0  0  0  0  0  0  0  0  0  0  0  0
    7.8522  -13.5504   18.9119 C   0  0  1  0  0  0  0  0  0  0  0  0
    7.9162  -14.6073   17.8353 C   0  0  0  0  0  0  0  0  0  0  0  0
    8.9489  -13.8004   19.9044 C   0  0  0  0  0  0  0  0  0  0  0  0
    8.8692  -15.1436   20.5886 C   0  0  2  0  0  0  0  0  0  0  0  0
    7.5055  -15.6668   20.5619 N   0  0  0  0  0  0  0  0  0  0  0  0
    9.1733  -14.8750   22.0362 C   0  0  0  0  0  0  0  0  0  0  0  0
   10.3223  -14.5602   22.4395 O   0  0  0  0  0  0  0  0  0  0  0  0
    6.8866  -11.1170   28.1450 C   0  0  0  0  0  0  0  0  0  0  0  0
    6.2562  -12.3630   26.9963 S   0  0  0  0  0  0  0  0  0  0  0  0
    7.6368  -13.3849   26.4052 C   0  0  0  0  0  0  0  0  0  0  0  0
    7.2993  -13.8300   25.0048 C   0  0  0  0  0  0  0  0  0  0  0  0
    8.4199  -14.6332   24.3697 C   0  0  2  0  0  0  0  0  0  0  0  0
    8.1511  -14.9706   23.0114 N   0  0  0  0  0  0  0  0  0  0  0  0
    8.6286  -15.8319   25.1991 C   0  0  0  0  0  0  0  0  0  0  0  0
    7.7738  -16.7637   25.2982 O   0  0  0  0  0  0  0  0  0  0  0  0
   14.9646  -20.0972   23.3438 N   0  0  0  0  0  0  0  0  0  0  0  0
   13.7271  -20.7547   23.1143 C   0  0  0  0  0  0  0  0  0  0  0  0
   13.7381  -21.9962   22.8461 N   0  0  0  0  0  0  0  0  0  0  0  0
   12.5186  -20.0143   23.1889 N   0  0  0  0  0  0  0  0  0  0  0  0
   12.4207  -18.7913   23.9150 C   0  0  0  0  0  0  0  0  0  0  0  0
   11.6930  -18.9104   25.2347 C   0  0  0  0  0  0  0  0  0  0  0  0
   11.5777  -17.5775   25.9076 C   0  0  0  0  0  0  0  0  0  0  0  0
   10.2331  -17.2740   26.4876 C   0  0  2  0  0  0  0  0  0  0  0  0
    9.8307  -15.9731   25.9277 N   0  0  0  0  0  0  0  0  0  0  0  0
   10.1891  -17.1589   27.9452 C   0  0  0  0  0  0  0  0  0  0  0  0
   10.2233  -16.0418   28.5404 O   0  0  0  0  0  0  0  0  0  0  0  0
   10.1063  -18.2913   28.7299 O   0  0  0  0  0  0  0  0  0  0  0  0
  2  1  1  6
  2  3  1  0
  4  2  1  0
  5  4  1  0
  5  6  1  1
  7  8  2  0
  7  5  1  0
  9 10  1  0
 10 11  1  0
 11 12  1  0
 13 12  1  1
 13 15  1  0
 13 14  1  0
 14  7  1  0
 15 16  2  0
 18 17  1  0
 18 20  1  0
 19 18  2  0
 20 21  1  0
 21 22  1  0
 22 23  1  0
 24 23  1  1
 24 26  1  0
 25 24  1  0
 25 15  1  0
 26 27  2  0
 26 28  1  0
M  END
$$$$
