KNR.pdb
     RDKit          3D

 29 28  0  0  1  0  0  0  0  0999 V2000
    9.8089  -18.8543   18.9066 N   0  0  0  0  0  0  0  0  0  0  0  0
   10.9066  -18.0256   19.3024 C   0  0  1  0  0  0  0  0  0  0  0  0
   11.7846  -17.5733   18.1486 C   0  0  0  0  0  0  0  0  0  0  0  0
   12.3395  -18.7914   17.4974 C   0  0  0  0  0  0  0  0  0  0  0  0
   13.3260  -18.5723   16.4070 C   0  0  0  0  0  0  0  0  0  0  0  0
   13.8290  -19.7826   15.7076 C   0  0  0  0  0  0  0  0  0  0  0  0
   14.7897  -19.5766   14.6792 N   0  0  0  0  0  0  0  0  0  0  0  0
   10.3755  -16.8574   20.0449 C   0  0  0  0  0  0  0  0  0  0  0  0
   11.1905  -16.0068   20.4710 O   0  0  0  0  0  0  0  0  0  0  0  0
    7.6963  -12.3341   20.6158 N   0  0  0  0  0  0  0  0  0  0  0  0
    7.0301  -13.5265   21.0240 C   0  0  0  0  0  0  0  0  0  0  0  0
    6.1770  -13.5330   21.9379 O   0  0  0  0  0  0  0  0  0  0  0  0
    7.4053  -14.7877   20.2967 C   0  0  0  0  0  0  0  0  0  0  0  0
    8.5806  -15.4615   20.9764 C   0  0  2  0  0  0  0  0  0  0  0  0
    8.9977  -16.6495   20.2994 N   0  0  0  0  0  0  0  0  0  0  0  0
    8.1365  -15.7611   22.3821 C   0  0  0  0  0  0  0  0  0  0  0  0
    7.4731  -16.8019   22.5897 O   0  0  0  0  0  0  0  0  0  0  0  0
   11.2599  -16.2804   28.7240 N   0  0  0  0  0  0  0  0  0  0  0  0
   11.1177  -14.8677   28.7111 C   0  0  0  0  0  0  0  0  0  0  0  0
   12.1157  -14.1451   28.3557 N   0  0  0  0  0  0  0  0  0  0  0  0
    9.8980  -14.2297   29.0816 N   0  0  0  0  0  0  0  0  0  0  0  0
    9.0922  -13.4923   28.1309 C   0  0  0  0  0  0  0  0  0  0  0  0
    8.4098  -14.5201   27.2040 C   0  0  0  0  0  0  0  0  0  0  0  0
    8.6633  -14.1699   25.7673 C   0  0  0  0  0  0  0  0  0  0  0  0
    8.0720  -15.1575   24.8493 C   0  0  2  0  0  0  0  0  0  0  0  0
    8.4390  -14.9194   23.4598 N   0  0  0  0  0  0  0  0  0  0  0  0
    6.6312  -15.3129   25.0020 C   0  0  0  0  0  0  0  0  0  0  0  0
    5.8329  -14.6637   24.2211 O   0  0  0  0  0  0  0  0  0  0  0  0
    6.0095  -16.1179   25.9314 O   0  0  0  0  0  0  0  0  0  0  0  0
  2  1  1  6
  2  3  1  0
  3  4  1  0
  4  5  1  0
  6  7  1  0
  6  5  1  0
  8  9  2  0
  8  2  1  0
 11 10  1  0
 11 13  1  0
 12 11  2  0
 14 13  1  6
 14 16  1  0
 14 15  1  0
 15  8  1  0
 16 26  1  0
 17 16  2  0
 19 20  2  0
 19 18  1  0
 21 22  1  0
 21 19  1  0
 22 23  1  0
 23 24  1  0
 25 24  1  1
 25 27  1  0
 26 25  1  0
 27 28  2  0
 27 29  1  0
M  END
$$$$
