KNR.pdb
     RDKit          3D

 29 28  0  0  1  0  0  0  0  0999 V2000
    3.5617  -19.6380   22.6073 N   0  0  0  0  0  0  0  0  0  0  0  0
    4.7360  -20.3300   23.0437 C   0  0  1  0  0  0  0  0  0  0  0  0
    5.5184  -20.9860   21.9193 C   0  0  0  0  0  0  0  0  0  0  0  0
    5.8513  -19.9307   20.9238 C   0  0  0  0  0  0  0  0  0  0  0  0
    6.4194  -20.3920   19.6297 C   0  0  0  0  0  0  0  0  0  0  0  0
    6.7813  -19.3396   18.6456 C   0  0  0  0  0  0  0  0  0  0  0  0
    7.3451  -19.7780   17.4155 N   0  0  0  0  0  0  0  0  0  0  0  0
    5.5940  -19.3820   23.7943 C   0  0  0  0  0  0  0  0  0  0  0  0
    5.4376  -18.1556   23.5926 O   0  0  0  0  0  0  0  0  0  0  0  0
    6.9858  -20.7444   28.2676 N   0  0  0  0  0  0  0  0  0  0  0  0
    7.1390  -19.4430   27.7061 C   0  0  0  0  0  0  0  0  0  0  0  0
    6.4965  -18.4564   28.1268 O   0  0  0  0  0  0  0  0  0  0  0  0
    8.1190  -19.3116   26.5735 C   0  0  0  0  0  0  0  0  0  0  0  0
    7.4234  -18.7998   25.3279 C   0  0  2  0  0  0  0  0  0  0  0  0
    6.5806  -19.7858   24.7268 N   0  0  0  0  0  0  0  0  0  0  0  0
    8.5139  -18.3662   24.3869 C   0  0  0  0  0  0  0  0  0  0  0  0
    9.1364  -19.2448   23.7489 O   0  0  0  0  0  0  0  0  0  0  0  0
    7.3741  -11.9475   19.1037 N   0  0  0  0  0  0  0  0  0  0  0  0
    7.9444  -13.1116   18.5241 C   0  0  0  0  0  0  0  0  0  0  0  0
    7.9334  -13.2406   17.2483 N   0  0  0  0  0  0  0  0  0  0  0  0
    8.5287  -14.1404   19.3192 N   0  0  0  0  0  0  0  0  0  0  0  0
    8.6545  -14.0277   20.7574 C   0  0  0  0  0  0  0  0  0  0  0  0
    9.3373  -15.3143   21.2666 C   0  0  0  0  0  0  0  0  0  0  0  0
    9.5933  -15.2154   22.7416 C   0  0  0  0  0  0  0  0  0  0  0  0
    9.9126  -16.5259   23.3321 C   0  0  2  0  0  0  0  0  0  0  0  0
    8.8538  -17.0201   24.2020 N   0  0  0  0  0  0  0  0  0  0  0  0
   11.2111  -16.5726   23.9917 C   0  0  0  0  0  0  0  0  0  0  0  0
   12.2773  -16.2805   23.3237 O   0  0  0  0  0  0  0  0  0  0  0  0
   11.4241  -16.9076   25.3111 O   0  0  0  0  0  0  0  0  0  0  0  0
  2  1  1  6
  2  3  1  0
  3  4  1  0
  4  5  1  0
  6  7  1  0
  6  5  1  0
  8  9  2  0
  8  2  1  0
 11 10  1  0
 11 13  1  0
 12 11  2  0
 14 13  1  1
 14 16  1  0
 14 15  1  0
 15  8  1  0
 16 26  1  0
 17 16  2  0
 19 20  2  0
 19 18  1  0
 21 22  1  0
 21 19  1  0
 22 23  1  0
 23 24  1  0
 25 24  1  1
 25 27  1  0
 26 25  1  0
 27 28  2  0
 27 29  1  0
M  END
$$$$
