KNR.pdb
     RDKit          3D

 29 28  0  0  1  0  0  0  0  0999 V2000
    3.7921  -21.2256   21.8852 N   0  0  0  0  0  0  0  0  0  0  0  0
    5.1305  -20.7330   21.7652 C   0  0  1  0  0  0  0  0  0  0  0  0
    5.3500  -19.8320   20.5624 C   0  0  0  0  0  0  0  0  0  0  0  0
    5.8256  -20.6847   19.4389 C   0  0  0  0  0  0  0  0  0  0  0  0
    6.1196  -19.9927   18.1564 C   0  0  0  0  0  0  0  0  0  0  0  0
    6.5684  -20.8443   17.0249 C   0  0  0  0  0  0  0  0  0  0  0  0
    6.8796  -20.1803   15.8061 N   0  0  0  0  0  0  0  0  0  0  0  0
    5.4910  -20.0288   23.0191 C   0  0  0  0  0  0  0  0  0  0  0  0
    4.7599  -19.0852   23.3989 O   0  0  0  0  0  0  0  0  0  0  0  0
    7.1967  -18.8255   27.9965 N   0  0  0  0  0  0  0  0  0  0  0  0
    8.1495  -19.3899   27.0987 C   0  0  0  0  0  0  0  0  0  0  0  0
    9.3699  -19.1286   27.1723 O   0  0  0  0  0  0  0  0  0  0  0  0
    7.6125  -20.3231   26.0494 C   0  0  0  0  0  0  0  0  0  0  0  0
    6.9577  -19.5400   24.9290 C   0  0  2  0  0  0  0  0  0  0  0  0
    6.6162  -20.3636   23.8116 N   0  0  0  0  0  0  0  0  0  0  0  0
    7.9381  -18.4681   24.5382 C   0  0  0  0  0  0  0  0  0  0  0  0
    8.9864  -18.8056   23.9435 O   0  0  0  0  0  0  0  0  0  0  0  0
    8.4539  -11.5519   20.2633 N   0  0  0  0  0  0  0  0  0  0  0  0
    8.1613  -12.8298   19.7178 C   0  0  0  0  0  0  0  0  0  0  0  0
    8.7064  -13.1724   18.6088 N   0  0  0  0  0  0  0  0  0  0  0  0
    7.2798  -13.7425   20.3672 N   0  0  0  0  0  0  0  0  0  0  0  0
    7.0949  -13.7483   21.8034 C   0  0  0  0  0  0  0  0  0  0  0  0
    8.0279  -14.8295   22.3879 C   0  0  0  0  0  0  0  0  0  0  0  0
    7.9009  -14.8699   23.8823 C   0  0  0  0  0  0  0  0  0  0  0  0
    8.6140  -16.0199   24.4626 C   0  0  2  0  0  0  0  0  0  0  0  0
    7.7181  -17.1130   24.8159 N   0  0  0  0  0  0  0  0  0  0  0  0
    9.4912  -15.6687   25.5718 C   0  0  0  0  0  0  0  0  0  0  0  0
    9.1330  -15.9459   26.7815 O   0  0  0  0  0  0  0  0  0  0  0  0
   10.7159  -15.0482   25.4549 O   0  0  0  0  0  0  0  0  0  0  0  0
  2  1  1  1
  2  3  1  0
  3  4  1  0
  4  5  1  0
  6  7  1  0
  6  5  1  0
  8  9  2  0
  8  2  1  0
 11 10  1  0
 11 13  1  0
 12 11  2  0
 14 13  1  1
 14 16  1  0
 14 15  1  0
 15  8  1  0
 16 26  1  0
 17 16  2  0
 19 20  2  0
 19 18  1  0
 21 22  1  0
 21 19  1  0
 22 23  1  0
 23 24  1  0
 25 24  1  1
 25 27  1  0
 26 25  1  0
 27 28  2  0
 27 29  1  0
M  END
$$$$
