KNR.pdb
     RDKit          3D

 29 28  0  0  1  0  0  0  0  0999 V2000
    8.2842  -24.3155   22.8531 N   0  0  0  0  0  0  0  0  0  0  0  0
    8.1262  -25.1842   23.9794 C   0  0  1  0  0  0  0  0  0  0  0  0
    7.8762  -26.6356   23.6080 C   0  0  0  0  0  0  0  0  0  0  0  0
    6.6549  -26.6814   22.7583 C   0  0  0  0  0  0  0  0  0  0  0  0
    6.2961  -28.0030   22.1795 C   0  0  0  0  0  0  0  0  0  0  0  0
    5.1030  -28.0437   21.2952 C   0  0  0  0  0  0  0  0  0  0  0  0
    4.8162  -29.2844   20.6614 N   0  0  0  0  0  0  0  0  0  0  0  0
    9.3253  -25.0642   24.8431 C   0  0  0  0  0  0  0  0  0  0  0  0
    9.4652  -25.8857   25.7784 O   0  0  0  0  0  0  0  0  0  0  0  0
   12.5890  -25.6094   23.7254 N   0  0  0  0  0  0  0  0  0  0  0  0
   13.2358  -24.3482   23.8775 C   0  0  0  0  0  0  0  0  0  0  0  0
   14.2219  -24.0176   23.1835 O   0  0  0  0  0  0  0  0  0  0  0  0
   12.6709  -23.4255   24.9215 C   0  0  0  0  0  0  0  0  0  0  0  0
   11.4398  -24.0378   25.5593 C   0  0  2  0  0  0  0  0  0  0  0  0
   10.3215  -24.0724   24.6694 N   0  0  0  0  0  0  0  0  0  0  0  0
   11.1425  -23.2080   26.7782 C   0  0  0  0  0  0  0  0  0  0  0  0
   10.4718  -22.1605   26.6385 O   0  0  0  0  0  0  0  0  0  0  0  0
   10.5653  -27.4859   34.0943 N   0  0  0  0  0  0  0  0  0  0  0  0
    9.6809  -27.5364   32.9846 C   0  0  0  0  0  0  0  0  0  0  0  0
    8.7646  -28.4332   32.9596 N   0  0  0  0  0  0  0  0  0  0  0  0
    9.7820  -26.6193   31.8980 N   0  0  0  0  0  0  0  0  0  0  0  0
   10.7790  -25.5696   31.8634 C   0  0  0  0  0  0  0  0  0  0  0  0
   10.5267  -24.7306   30.5932 C   0  0  0  0  0  0  0  0  0  0  0  0
   11.5391  -23.6279   30.4919 C   0  0  0  0  0  0  0  0  0  0  0  0
   11.3447  -22.8143   29.2802 C   0  0  2  0  0  0  0  0  0  0  0  0
   11.5884  -23.5664   28.0566 N   0  0  0  0  0  0  0  0  0  0  0  0
   12.0831  -21.5582   29.2910 C   0  0  0  0  0  0  0  0  0  0  0  0
   11.9737  -20.7620   30.3022 O   0  0  0  0  0  0  0  0  0  0  0  0
   12.9232  -21.1179   28.2915 O   0  0  0  0  0  0  0  0  0  0  0  0
  2  1  1  6
  2  3  1  0
  3  4  1  0
  4  5  1  0
  6  7  1  0
  6  5  1  0
  8  9  2  0
  8  2  1  0
 11 10  1  0
 11 13  1  0
 12 11  2  0
 14 13  1  6
 14 16  1  0
 14 15  1  0
 15  8  1  0
 16 26  1  0
 17 16  2  0
 19 20  2  0
 19 18  1  0
 21 22  1  0
 21 19  1  0
 22 23  1  0
 23 24  1  0
 25 24  1  1
 25 27  1  0
 26 25  1  0
 27 28  2  0
 27 29  1  0
M  END
$$$$
