KNR.pdb
     RDKit          3D

 29 28  0  0  1  0  0  0  0  0999 V2000
    8.5622  -18.9146   19.7680 N   0  0  0  0  0  0  0  0  0  0  0  0
    9.8716  -18.3813   19.5455 C   0  0  1  0  0  0  0  0  0  0  0  0
   10.3719  -18.5500   18.1214 C   0  0  0  0  0  0  0  0  0  0  0  0
    9.1931  -18.8338   17.2580 C   0  0  0  0  0  0  0  0  0  0  0  0
    9.1463  -20.1732   16.6147 C   0  0  0  0  0  0  0  0  0  0  0  0
    8.0296  -20.4208   15.6667 C   0  0  0  0  0  0  0  0  0  0  0  0
    7.9198  -21.7351   15.1339 N   0  0  0  0  0  0  0  0  0  0  0  0
    9.8736  -16.9507   19.9347 C   0  0  0  0  0  0  0  0  0  0  0  0
   10.9508  -16.3166   19.8522 O   0  0  0  0  0  0  0  0  0  0  0  0
    5.5539  -15.4895   20.5245 N   0  0  0  0  0  0  0  0  0  0  0  0
    6.4448  -15.0032   21.5255 C   0  0  0  0  0  0  0  0  0  0  0  0
    6.2758  -15.2434   22.7408 O   0  0  0  0  0  0  0  0  0  0  0  0
    7.6082  -14.1801   21.0464 C   0  0  0  0  0  0  0  0  0  0  0  0
    8.8803  -15.0040   21.0580 C   0  0  2  0  0  0  0  0  0  0  0  0
    8.7252  -16.2608   20.3946 N   0  0  0  0  0  0  0  0  0  0  0  0
    9.2452  -15.1916   22.5052 C   0  0  0  0  0  0  0  0  0  0  0  0
    8.7636  -14.4031   23.3495 O   0  0  0  0  0  0  0  0  0  0  0  0
    9.7631  -13.4337   29.3932 N   0  0  0  0  0  0  0  0  0  0  0  0
   10.4245  -14.6778   29.5691 C   0  0  0  0  0  0  0  0  0  0  0  0
   11.1973  -14.8340   30.5804 N   0  0  0  0  0  0  0  0  0  0  0  0
   10.2542  -15.7577   28.6544 N   0  0  0  0  0  0  0  0  0  0  0  0
    9.8945  -15.5461   27.2677 C   0  0  0  0  0  0  0  0  0  0  0  0
    9.7223  -16.9337   26.6152 C   0  0  0  0  0  0  0  0  0  0  0  0
    9.3266  -16.7832   25.1757 C   0  0  0  0  0  0  0  0  0  0  0  0
   10.4824  -16.4706   24.3189 C   0  0  2  0  0  0  0  0  0  0  0  0
   10.1005  -16.2132   22.9368 N   0  0  0  0  0  0  0  0  0  0  0  0
   11.5578  -17.4503   24.4022 C   0  0  0  0  0  0  0  0  0  0  0  0
   11.6307  -18.3944   23.5236 O   0  0  0  0  0  0  0  0  0  0  0  0
   12.5468  -17.4698   25.3612 O   0  0  0  0  0  0  0  0  0  0  0  0
  2  1  1  6
  2  3  1  0
  3  4  1  0
  4  5  1  0
  6  7  1  0
  6  5  1  0
  8  9  2  0
  8  2  1  0
 11 10  1  0
 11 13  1  0
 12 11  2  0
 14 13  1  1
 14 16  1  0
 14 15  1  0
 15  8  1  0
 16 26  1  0
 17 16  2  0
 19 20  2  0
 19 18  1  0
 21 22  1  0
 21 19  1  0
 22 23  1  0
 23 24  1  0
 25 24  1  1
 25 27  1  0
 26 25  1  0
 27 28  2  0
 27 29  1  0
M  END
$$$$
