QMF.pdb
     RDKit          3D

 29 29  0  0  1  0  0  0  0  0999 V2000
   12.0678  -18.5080   19.3008 N   0  0  0  0  0  0  0  0  0  0  0  0
   11.1287  -18.6458   18.2490 C   0  0  0  0  0  0  0  0  0  0  0  0
   11.1697  -19.6197   17.4568 O   0  0  0  0  0  0  0  0  0  0  0  0
   10.0745  -17.6365   18.0642 C   0  0  0  0  0  0  0  0  0  0  0  0
   10.1496  -16.5556   19.1524 C   0  0  0  0  0  0  0  0  0  0  0  0
    9.2946  -17.0717   20.2909 C   0  0  2  0  0  0  0  0  0  0  0  0
    7.9133  -16.8964   19.8829 N   0  0  0  0  0  0  0  0  0  0  0  0
    9.5130  -16.3717   21.5499 C   0  0  0  0  0  0  0  0  0  0  0  0
   10.5338  -15.6648   21.7097 O   0  0  0  0  0  0  0  0  0  0  0  0
    7.3270  -12.1281   25.7475 C   0  0  0  0  0  0  0  0  0  0  0  0
    6.1166  -13.4345   25.4251 S   0  0  0  0  0  0  0  0  0  0  0  0
    6.7183  -14.4274   24.0423 C   0  0  0  0  0  0  0  0  0  0  0  0
    7.4241  -15.6472   24.5263 C   0  0  0  0  0  0  0  0  0  0  0  0
    8.7683  -15.8835   23.9251 C   0  0  2  0  0  0  0  0  0  0  0  0
    8.5779  -16.4815   22.6039 N   0  0  0  0  0  0  0  0  0  0  0  0
    9.6273  -16.7921   24.7449 C   0  0  0  0  0  0  0  0  0  0  0  0
    9.3780  -18.0240   24.7643 O   0  0  0  0  0  0  0  0  0  0  0  0
   10.7021  -16.2874   25.4882 N   0  0  0  0  0  0  0  0  0  0  0  0
   11.5320  -17.1803   26.2492 C   0  0  1  0  0  0  0  0  0  0  0  0
   12.4168  -16.3996   27.2315 C   0  0  0  0  0  0  0  0  0  0  0  0
   11.5889  -15.5329   28.0957 C   0  0  0  0  0  0  0  0  0  0  0  0
   11.0320  -14.3635   27.6345 C   0  0  0  0  0  0  0  0  0  0  0  0
   10.2756  -13.6218   28.5269 C   0  0  0  0  0  0  0  0  0  0  0  0
   10.0683  -14.0039   29.8214 C   0  0  0  0  0  0  0  0  0  0  0  0
   10.6470  -15.1885   30.2458 C   0  0  0  0  0  0  0  0  0  0  0  0
   11.3993  -15.9547   29.4095 C   0  0  0  0  0  0  0  0  0  0  0  0
   10.7739  -18.1755   27.0243 C   0  0  0  0  0  0  0  0  0  0  0  0
    9.3971  -18.0591   27.0838 O   0  0  0  0  0  0  0  0  0  0  0  0
   11.3149  -19.1264   27.6360 O   0  0  0  0  0  0  0  0  0  0  0  0
  2  1  1  0
  2  3  2  0
  4  2  1  0
  5  6  1  0
  5  4  1  0
  6  8  1  0
  6  7  1  6
  8  9  2  0
  8 15  1  0
 11 10  1  0
 12 11  1  0
 14 13  1  1
 13 12  1  0
 14 16  1  0
 15 14  1  0
 16 17  2  0
 18 16  1  0
 18 19  1  0
 19 27  1  0
 19 20  1  1
 21 20  1  0
 22 21  2  0
 23 22  1  0
 24 25  1  0
 24 23  2  0
 25 26  2  0
 26 21  1  0
 27 28  1  0
 29 27  2  0
M  END
$$$$
