QMF.pdb
     RDKit          3D

 29 29  0  0  1  0  0  0  0  0999 V2000
   11.7589  -20.2611   17.8733 N   0  0  0  0  0  0  0  0  0  0  0  0
   10.7871  -19.2964   17.5098 C   0  0  0  0  0  0  0  0  0  0  0  0
   10.9368  -18.5628   16.5013 O   0  0  0  0  0  0  0  0  0  0  0  0
    9.5691  -19.1350   18.3188 C   0  0  0  0  0  0  0  0  0  0  0  0
    9.4974  -17.7292   18.9326 C   0  0  0  0  0  0  0  0  0  0  0  0
    9.4164  -17.9478   20.4290 C   0  0  2  0  0  0  0  0  0  0  0  0
    8.0841  -18.4540   20.7012 N   0  0  0  0  0  0  0  0  0  0  0  0
    9.6357  -16.7372   21.2094 C   0  0  0  0  0  0  0  0  0  0  0  0
   10.7075  -16.0999   21.0970 O   0  0  0  0  0  0  0  0  0  0  0  0
    5.7936  -12.9665   26.2309 C   0  0  0  0  0  0  0  0  0  0  0  0
    7.4684  -12.9507   25.5451 S   0  0  0  0  0  0  0  0  0  0  0  0
    7.3473  -13.2182   23.7636 C   0  0  0  0  0  0  0  0  0  0  0  0
    7.4666  -14.6656   23.4303 C   0  0  0  0  0  0  0  0  0  0  0  0
    8.8152  -15.1009   22.9654 C   0  0  2  0  0  0  0  0  0  0  0  0
    8.6445  -16.2683   22.1009 N   0  0  0  0  0  0  0  0  0  0  0  0
    9.7348  -15.4637   24.0872 C   0  0  0  0  0  0  0  0  0  0  0  0
   10.6062  -14.6384   24.4609 O   0  0  0  0  0  0  0  0  0  0  0  0
    9.6361  -16.7080   24.7231 N   0  0  0  0  0  0  0  0  0  0  0  0
   10.6027  -17.0859   25.7171 C   0  0  1  0  0  0  0  0  0  0  0  0
    9.9653  -17.1201   27.1135 C   0  0  0  0  0  0  0  0  0  0  0  0
   10.0325  -15.7859   27.7448 C   0  0  0  0  0  0  0  0  0  0  0  0
   11.0940  -15.4051   28.5314 C   0  0  0  0  0  0  0  0  0  0  0  0
   11.0578  -14.1335   29.0795 C   0  0  0  0  0  0  0  0  0  0  0  0
   10.0264  -13.2634   28.8699 C   0  0  0  0  0  0  0  0  0  0  0  0
    8.9769  -13.6863   28.0712 C   0  0  0  0  0  0  0  0  0  0  0  0
    8.9630  -14.9256   27.5086 C   0  0  0  0  0  0  0  0  0  0  0  0
   11.2173  -18.4009   25.4739 C   0  0  0  0  0  0  0  0  0  0  0  0
   12.1898  -18.8489   26.3491 O   0  0  0  0  0  0  0  0  0  0  0  0
   10.9031  -19.1377   24.5099 O   0  0  0  0  0  0  0  0  0  0  0  0
  2  1  1  0
  2  3  2  0
  4  2  1  0
  5  6  1  0
  5  4  1  0
  6  8  1  0
  6  7  1  6
  8  9  2  0
  8 15  1  0
 11 10  1  0
 12 11  1  0
 14 13  1  1
 13 12  1  0
 14 16  1  0
 15 14  1  0
 16 17  2  0
 18 16  1  0
 18 19  1  0
 19 27  1  0
 19 20  1  1
 21 20  1  0
 22 21  2  0
 23 22  1  0
 24 25  1  0
 24 23  2  0
 25 26  2  0
 26 21  1  0
 27 28  1  0
 29 27  2  0
M  END
$$$$
