QMF.pdb
     RDKit          3D

 29 29  0  0  1  0  0  0  0  0999 V2000
   14.5044  -16.7556   18.1200 N   0  0  0  0  0  0  0  0  0  0  0  0
   13.3413  -16.8906   17.3224 C   0  0  0  0  0  0  0  0  0  0  0  0
   13.4122  -17.0034   16.0735 O   0  0  0  0  0  0  0  0  0  0  0  0
   12.0120  -16.9012   17.9523 C   0  0  0  0  0  0  0  0  0  0  0  0
   12.1277  -16.9450   19.4830 C   0  0  0  0  0  0  0  0  0  0  0  0
   10.7022  -16.9391   19.9941 C   0  0  2  0  0  0  0  0  0  0  0  0
    9.8835  -16.3907   18.9291 N   0  0  0  0  0  0  0  0  0  0  0  0
   10.5163  -16.1407   21.1985 C   0  0  0  0  0  0  0  0  0  0  0  0
   11.4807  -15.5175   21.6972 O   0  0  0  0  0  0  0  0  0  0  0  0
    7.1528  -12.3263   26.4305 C   0  0  0  0  0  0  0  0  0  0  0  0
    7.6416  -12.8608   24.7719 S   0  0  0  0  0  0  0  0  0  0  0  0
    7.1525  -14.5873   24.5724 C   0  0  0  0  0  0  0  0  0  0  0  0
    7.5777  -15.1142   23.2450 C   0  0  0  0  0  0  0  0  0  0  0  0
    9.0232  -15.4643   23.1344 C   0  0  2  0  0  0  0  0  0  0  0  0
    9.2484  -16.0599   21.8176 N   0  0  0  0  0  0  0  0  0  0  0  0
    9.4760  -16.4296   24.1825 C   0  0  0  0  0  0  0  0  0  0  0  0
    9.1550  -17.6410   24.0843 O   0  0  0  0  0  0  0  0  0  0  0  0
   10.2505  -16.0004   25.2680 N   0  0  0  0  0  0  0  0  0  0  0  0
   10.9152  -16.9634   26.1023 C   0  0  1  0  0  0  0  0  0  0  0  0
   11.7969  -16.2646   27.1471 C   0  0  0  0  0  0  0  0  0  0  0  0
   10.9656  -15.4764   28.0804 C   0  0  0  0  0  0  0  0  0  0  0  0
   10.7239  -15.8916   29.3687 C   0  0  0  0  0  0  0  0  0  0  0  0
    9.9281  -15.0811   30.1614 C   0  0  0  0  0  0  0  0  0  0  0  0
    9.3868  -13.9088   29.7170 C   0  0  0  0  0  0  0  0  0  0  0  0
    9.6549  -13.5269   28.4130 C   0  0  0  0  0  0  0  0  0  0  0  0
   10.4306  -14.2867   27.5923 C   0  0  0  0  0  0  0  0  0  0  0  0
    9.9942  -17.8584   26.8211 C   0  0  0  0  0  0  0  0  0  0  0  0
   10.5266  -18.8797   27.5866 O   0  0  0  0  0  0  0  0  0  0  0  0
    8.7472  -17.7417   26.7740 O   0  0  0  0  0  0  0  0  0  0  0  0
  2  1  1  0
  2  3  2  0
  4  2  1  0
  5  6  1  0
  5  4  1  0
  6  8  1  0
  6  7  1  6
  8  9  2  0
  8 15  1  0
 11 10  1  0
 12 11  1  0
 14 13  1  1
 13 12  1  0
 14 16  1  0
 15 14  1  0
 16 17  2  0
 18 16  1  0
 18 19  1  0
 19 27  1  0
 19 20  1  1
 21 20  1  0
 22 21  2  0
 23 22  1  0
 24 25  1  0
 24 23  2  0
 25 26  2  0
 26 21  1  0
 27 28  1  0
 29 27  2  0
M  END
$$$$
