QMF.pdb
     RDKit          3D

 29 29  0  0  1  0  0  0  0  0999 V2000
    9.0160  -22.4655   23.4919 N   0  0  0  0  0  0  0  0  0  0  0  0
    8.2664  -22.0081   22.3800 C   0  0  0  0  0  0  0  0  0  0  0  0
    8.4462  -22.4791   21.2296 O   0  0  0  0  0  0  0  0  0  0  0  0
    7.2504  -20.9590   22.5565 C   0  0  0  0  0  0  0  0  0  0  0  0
    7.1082  -20.5728   24.0360 C   0  0  0  0  0  0  0  0  0  0  0  0
    6.1692  -19.3849   24.0527 C   0  0  2  0  0  0  0  0  0  0  0  0
    5.1943  -19.6137   23.0027 N   0  0  0  0  0  0  0  0  0  0  0  0
    6.8344  -18.1103   23.8169 C   0  0  0  0  0  0  0  0  0  0  0  0
    7.6795  -18.0002   22.8998 O   0  0  0  0  0  0  0  0  0  0  0  0
    6.7227  -10.5790   26.3283 C   0  0  0  0  0  0  0  0  0  0  0  0
    6.1845  -12.2896   26.5728 S   0  0  0  0  0  0  0  0  0  0  0  0
    6.9248  -13.3013   25.2734 C   0  0  0  0  0  0  0  0  0  0  0  0
    6.5363  -14.7322   25.4222 C   0  0  0  0  0  0  0  0  0  0  0  0
    7.0849  -15.6504   24.3829 C   0  0  2  0  0  0  0  0  0  0  0  0
    6.5353  -16.9853   24.6182 N   0  0  0  0  0  0  0  0  0  0  0  0
    8.5775  -15.7347   24.4018 C   0  0  0  0  0  0  0  0  0  0  0  0
    9.2469  -14.9761   23.6557 O   0  0  0  0  0  0  0  0  0  0  0  0
    9.2350  -16.6459   25.2383 N   0  0  0  0  0  0  0  0  0  0  0  0
   10.6585  -16.8156   25.1384 C   0  0  1  0  0  0  0  0  0  0  0  0
   11.3899  -15.5133   25.4940 C   0  0  0  0  0  0  0  0  0  0  0  0
   11.0466  -15.0863   26.8663 C   0  0  0  0  0  0  0  0  0  0  0  0
   11.2516  -15.9006   27.9550 C   0  0  0  0  0  0  0  0  0  0  0  0
   10.8919  -15.4062   29.1980 C   0  0  0  0  0  0  0  0  0  0  0  0
   10.3523  -14.1644   29.3756 C   0  0  0  0  0  0  0  0  0  0  0  0
   10.1625  -13.3761   28.2527 C   0  0  0  0  0  0  0  0  0  0  0  0
   10.4986  -13.8138   27.0086 C   0  0  0  0  0  0  0  0  0  0  0  0
   11.1895  -17.8781   26.0073 C   0  0  0  0  0  0  0  0  0  0  0  0
   10.3097  -18.5707   26.8190 O   0  0  0  0  0  0  0  0  0  0  0  0
   12.4033  -18.1879   26.0494 O   0  0  0  0  0  0  0  0  0  0  0  0
  2  1  1  0
  2  3  2  0
  4  2  1  0
  5  6  1  0
  5  4  1  0
  6  8  1  0
  6  7  1  6
  8  9  2  0
  8 15  1  0
 11 10  1  0
 12 11  1  0
 14 13  1  1
 13 12  1  0
 14 16  1  0
 15 14  1  0
 16 17  2  0
 18 16  1  0
 18 19  1  0
 19 27  1  0
 19 20  1  1
 21 20  1  0
 22 21  2  0
 23 22  1  0
 24 25  1  0
 24 23  2  0
 25 26  2  0
 26 21  1  0
 27 28  1  0
 29 27  2  0
M  END
$$$$
