QMF.pdb
     RDKit          3D

 29 29  0  0  1  0  0  0  0  0999 V2000
   10.2900  -14.7756   16.3997 N   0  0  0  0  0  0  0  0  0  0  0  0
   10.6319  -16.1371   16.2083 C   0  0  0  0  0  0  0  0  0  0  0  0
   11.3846  -16.4985   15.2700 O   0  0  0  0  0  0  0  0  0  0  0  0
   10.1036  -17.1653   17.1182 C   0  0  0  0  0  0  0  0  0  0  0  0
    9.1859  -16.5424   18.1803 C   0  0  0  0  0  0  0  0  0  0  0  0
    9.3887  -17.3782   19.4267 C   0  0  2  0  0  0  0  0  0  0  0  0
    8.2365  -18.2541   19.5291 N   0  0  0  0  0  0  0  0  0  0  0  0
    9.4993  -16.5904   20.6473 C   0  0  0  0  0  0  0  0  0  0  0  0
   10.5569  -15.9719   20.9051 O   0  0  0  0  0  0  0  0  0  0  0  0
    7.0048  -12.2264   26.1648 C   0  0  0  0  0  0  0  0  0  0  0  0
    7.4441  -12.8819   24.5360 S   0  0  0  0  0  0  0  0  0  0  0  0
    7.0568  -14.6453   24.5183 C   0  0  0  0  0  0  0  0  0  0  0  0
    7.1994  -15.2110   23.1471 C   0  0  0  0  0  0  0  0  0  0  0  0
    8.5021  -15.8820   22.8695 C   0  0  2  0  0  0  0  0  0  0  0  0
    8.4175  -16.5147   21.5534 N   0  0  0  0  0  0  0  0  0  0  0  0
    8.8541  -16.9240   23.8823 C   0  0  0  0  0  0  0  0  0  0  0  0
    7.9462  -17.6507   24.3595 O   0  0  0  0  0  0  0  0  0  0  0  0
   10.1788  -17.0982   24.3032 N   0  0  0  0  0  0  0  0  0  0  0  0
   10.5608  -16.7398   25.6414 C   0  0  1  0  0  0  0  0  0  0  0  0
   10.1316  -15.3016   25.9652 C   0  0  0  0  0  0  0  0  0  0  0  0
   10.2572  -15.0389   27.4138 C   0  0  0  0  0  0  0  0  0  0  0  0
   10.8461  -15.9402   28.2690 C   0  0  0  0  0  0  0  0  0  0  0  0
   10.9103  -15.5990   29.6100 C   0  0  0  0  0  0  0  0  0  0  0  0
   10.4194  -14.4233   30.1015 C   0  0  0  0  0  0  0  0  0  0  0  0
    9.8341  -13.5433   29.2064 C   0  0  0  0  0  0  0  0  0  0  0  0
    9.7454  -13.8299   27.8788 C   0  0  0  0  0  0  0  0  0  0  0  0
    9.9911  -17.6197   26.6744 C   0  0  0  0  0  0  0  0  0  0  0  0
   10.8385  -18.1605   27.6241 O   0  0  0  0  0  0  0  0  0  0  0  0
    8.7722  -17.9053   26.7369 O   0  0  0  0  0  0  0  0  0  0  0  0
  2  1  1  0
  2  3  2  0
  4  2  1  0
  5  6  1  0
  5  4  1  0
  6  8  1  0
  6  7  1  1
  8  9  2  0
  8 15  1  0
 11 10  1  0
 12 11  1  0
 14 13  1  1
 13 12  1  0
 14 16  1  0
 15 14  1  0
 16 17  2  0
 18 16  1  0
 18 19  1  0
 19 27  1  0
 19 20  1  1
 21 20  1  0
 22 21  2  0
 23 22  1  0
 24 25  1  0
 24 23  2  0
 25 26  2  0
 26 21  1  0
 27 28  1  0
 29 27  2  0
M  END
$$$$
