QMF.pdb
     RDKit          3D

 29 29  0  0  1  0  0  0  0  0999 V2000
   12.9357  -18.3353   16.9096 N   0  0  0  0  0  0  0  0  0  0  0  0
   11.5575  -18.1043   16.6766 C   0  0  0  0  0  0  0  0  0  0  0  0
   11.1527  -17.5680   15.6154 O   0  0  0  0  0  0  0  0  0  0  0  0
   10.5628  -18.4941   17.6880 C   0  0  0  0  0  0  0  0  0  0  0  0
   10.0370  -17.2663   18.4457 C   0  0  0  0  0  0  0  0  0  0  0  0
    9.6568  -17.7750   19.8205 C   0  0  2  0  0  0  0  0  0  0  0  0
    8.2270  -18.0198   19.7899 N   0  0  0  0  0  0  0  0  0  0  0  0
    9.9577  -16.8377   20.8945 C   0  0  0  0  0  0  0  0  0  0  0  0
   11.0861  -16.3000   20.9646 O   0  0  0  0  0  0  0  0  0  0  0  0
    6.6706  -12.2120   26.3422 C   0  0  0  0  0  0  0  0  0  0  0  0
    6.4408  -13.4060   25.0017 S   0  0  0  0  0  0  0  0  0  0  0  0
    8.0440  -14.1501   24.6328 C   0  0  0  0  0  0  0  0  0  0  0  0
    7.9574  -15.0477   23.4466 C   0  0  0  0  0  0  0  0  0  0  0  0
    9.2420  -15.6859   23.0383 C   0  0  2  0  0  0  0  0  0  0  0  0
    8.9825  -16.5246   21.8683 N   0  0  0  0  0  0  0  0  0  0  0  0
    9.8452  -16.5327   24.1127 C   0  0  0  0  0  0  0  0  0  0  0  0
    9.5315  -17.7476   24.1885 O   0  0  0  0  0  0  0  0  0  0  0  0
   10.7520  -15.9891   25.0317 N   0  0  0  0  0  0  0  0  0  0  0  0
   11.4698  -16.8516   25.9295 C   0  0  1  0  0  0  0  0  0  0  0  0
   12.2102  -16.0338   26.9973 C   0  0  0  0  0  0  0  0  0  0  0  0
   11.2469  -15.3230   27.8634 C   0  0  0  0  0  0  0  0  0  0  0  0
   10.5417  -14.2280   27.4228 C   0  0  0  0  0  0  0  0  0  0  0  0
    9.6662  -13.6318   28.3153 C   0  0  0  0  0  0  0  0  0  0  0  0
    9.4831  -14.0844   29.5906 C   0  0  0  0  0  0  0  0  0  0  0  0
   10.2128  -15.1901   29.9946 C   0  0  0  0  0  0  0  0  0  0  0  0
   11.0864  -15.8131   29.1572 C   0  0  0  0  0  0  0  0  0  0  0  0
   10.6128  -17.8245   26.6259 C   0  0  0  0  0  0  0  0  0  0  0  0
    9.2440  -17.7511   26.4428 O   0  0  0  0  0  0  0  0  0  0  0  0
   11.0623  -18.7192   27.3799 O   0  0  0  0  0  0  0  0  0  0  0  0
  2  1  1  0
  2  3  2  0
  4  2  1  0
  5  6  1  0
  5  4  1  0
  6  8  1  0
  6  7  1  6
  8  9  2  0
  8 15  1  0
 11 10  1  0
 12 11  1  0
 14 13  1  1
 13 12  1  0
 14 16  1  0
 15 14  1  0
 16 17  2  0
 18 16  1  0
 18 19  1  0
 19 27  1  0
 19 20  1  1
 21 20  1  0
 22 21  2  0
 23 22  1  0
 24 25  1  0
 24 23  2  0
 25 26  2  0
 26 21  1  0
 27 28  1  0
 29 27  2  0
M  END
$$$$
