ESS.pdb
     RDKit          3D

 22 21  0  0  1  0  0  0  0  0999 V2000
   12.2202  -17.0322   16.6912 N   0  0  0  0  0  0  0  0  0  0  0  0
   11.9927  -17.8548   17.8633 C   0  0  1  0  0  0  0  0  0  0  0  0
   12.9263  -19.0211   17.9004 C   0  0  0  0  0  0  0  0  0  0  0  0
   13.4988  -19.4244   16.5911 C   0  0  0  0  0  0  0  0  0  0  0  0
   14.4398  -20.5489   16.6862 C   0  0  0  0  0  0  0  0  0  0  0  0
   14.1160  -21.7430   16.5482 O   0  0  0  0  0  0  0  0  0  0  0  0
   12.1510  -17.0635   19.1163 C   0  0  0  0  0  0  0  0  0  0  0  0
   13.0939  -16.2365   19.1895 O   0  0  0  0  0  0  0  0  0  0  0  0
   15.7948  -20.2986   16.9478 O   0  0  0  0  0  0  0  0  0  0  0  0
   10.3032  -15.3569   23.2529 O   0  0  0  0  0  0  0  0  0  0  0  0
   10.1361  -16.1825   22.1443 C   0  0  0  0  0  0  0  0  0  0  0  0
   11.4599  -16.3625   21.4073 C   0  0  2  0  0  0  0  0  0  0  0  0
   11.2975  -17.1829   20.2465 N   0  0  0  0  0  0  0  0  0  0  0  0
   12.4693  -16.8717   22.3571 C   0  0  0  0  0  0  0  0  0  0  0  0
   12.3536  -18.0654   22.7361 O   0  0  0  0  0  0  0  0  0  0  0  0
   15.4893  -14.5356   23.9475 O   0  0  0  0  0  0  0  0  0  0  0  0
   15.8418  -15.8640   23.6759 C   0  0  0  0  0  0  0  0  0  0  0  0
   14.5596  -16.6696   23.7450 C   0  0  2  0  0  0  0  0  0  0  0  0
   13.5480  -16.1230   22.8682 N   0  0  0  0  0  0  0  0  0  0  0  0
   14.0135  -16.7245   25.1085 C   0  0  0  0  0  0  0  0  0  0  0  0
   12.8952  -16.2442   25.3579 O   0  0  0  0  0  0  0  0  0  0  0  0
   14.7476  -17.3127   26.1138 O   0  0  0  0  0  0  0  0  0  0  0  0
  2  1  1  6
  2  7  1  0
  3  4  1  0
  3  2  1  0
  5  4  1  0
  6  5  2  0
  7  8  2  0
  7 13  1  0
  9  5  1  0
 10 11  1  0
 12 14  1  0
 12 11  1  1
 13 12  1  0
 14 19  1  0
 15 14  2  0
 16 17  1  0
 18 17  1  1
 18 20  1  0
 19 18  1  0
 20 21  2  0
 20 22  1  0
M  END
$$$$
