ESS.pdb
     RDKit          3D

 22 21  0  0  1  0  0  0  0  0999 V2000
   10.1721  -16.6055   20.1568 N   0  0  0  0  0  0  0  0  0  0  0  0
   10.0043  -17.4690   21.3093 C   0  0  1  0  0  0  0  0  0  0  0  0
   11.2798  -18.1644   21.6598 C   0  0  0  0  0  0  0  0  0  0  0  0
   12.5046  -17.3280   21.5903 C   0  0  0  0  0  0  0  0  0  0  0  0
   13.7316  -18.0587   21.9364 C   0  0  0  0  0  0  0  0  0  0  0  0
   14.1645  -18.1849   23.0967 O   0  0  0  0  0  0  0  0  0  0  0  0
    9.5265  -16.7007   22.4937 C   0  0  0  0  0  0  0  0  0  0  0  0
    9.8763  -15.4998   22.6116 O   0  0  0  0  0  0  0  0  0  0  0  0
   14.4873  -18.6642   20.9218 O   0  0  0  0  0  0  0  0  0  0  0  0
    7.3121  -18.3827   25.7033 O   0  0  0  0  0  0  0  0  0  0  0  0
    7.0295  -17.0843   25.2876 C   0  0  0  0  0  0  0  0  0  0  0  0
    8.2517  -16.4579   24.6229 C   0  0  2  0  0  0  0  0  0  0  0  0
    8.6926  -17.2411   23.5098 N   0  0  0  0  0  0  0  0  0  0  0  0
    9.2937  -16.2424   25.6465 C   0  0  0  0  0  0  0  0  0  0  0  0
   10.2903  -17.0094   25.6248 O   0  0  0  0  0  0  0  0  0  0  0  0
   11.0185  -13.8457   29.4893 O   0  0  0  0  0  0  0  0  0  0  0  0
    9.9907  -13.8881   28.5383 C   0  0  0  0  0  0  0  0  0  0  0  0
   10.2497  -15.1122   27.6826 C   0  0  2  0  0  0  0  0  0  0  0  0
    9.2550  -15.2456   26.6417 N   0  0  0  0  0  0  0  0  0  0  0  0
   10.2618  -16.3495   28.4760 C   0  0  0  0  0  0  0  0  0  0  0  0
   11.3012  -16.7209   29.0462 O   0  0  0  0  0  0  0  0  0  0  0  0
    9.1128  -17.0997   28.5867 O   0  0  0  0  0  0  0  0  0  0  0  0
  2  1  1  6
  2  7  1  0
  3  4  1  0
  3  2  1  0
  5  4  1  0
  6  5  2  0
  7  8  2  0
  7 13  1  0
  9  5  1  0
 10 11  1  0
 12 14  1  0
 12 11  1  1
 13 12  1  0
 14 19  1  0
 15 14  2  0
 16 17  1  0
 18 17  1  1
 18 20  1  0
 19 18  1  0
 20 21  2  0
 20 22  1  0
M  END
$$$$
