ESS.pdb
     RDKit          3D

 22 21  0  0  1  0  0  0  0  0999 V2000
   10.4676  -16.6177   15.1625 N   0  0  0  0  0  0  0  0  0  0  0  0
   10.2284  -17.7451   16.0423 C   0  0  1  0  0  0  0  0  0  0  0  0
   11.3919  -18.6829   16.0554 C   0  0  0  0  0  0  0  0  0  0  0  0
   12.6567  -18.1257   16.5979 C   0  0  0  0  0  0  0  0  0  0  0  0
   13.7903  -19.0566   16.5102 C   0  0  0  0  0  0  0  0  0  0  0  0
   14.6314  -19.0471   15.5925 O   0  0  0  0  0  0  0  0  0  0  0  0
    9.9511  -17.2927   17.4351 C   0  0  0  0  0  0  0  0  0  0  0  0
   10.3958  -16.1773   17.8041 O   0  0  0  0  0  0  0  0  0  0  0  0
   13.9668  -20.0295   17.5049 O   0  0  0  0  0  0  0  0  0  0  0  0
    7.7549  -19.5573   20.2698 O   0  0  0  0  0  0  0  0  0  0  0  0
    7.5547  -18.1829   20.1718 C   0  0  0  0  0  0  0  0  0  0  0  0
    8.8103  -17.4961   19.6430 C   0  0  2  0  0  0  0  0  0  0  0  0
    9.2092  -18.0468   18.3843 N   0  0  0  0  0  0  0  0  0  0  0  0
    9.8612  -17.5602   20.6783 C   0  0  0  0  0  0  0  0  0  0  0  0
   10.8261  -18.3403   20.4725 O   0  0  0  0  0  0  0  0  0  0  0  0
    9.4905  -15.6041   24.2087 O   0  0  0  0  0  0  0  0  0  0  0  0
   10.8368  -15.7605   23.8546 C   0  0  0  0  0  0  0  0  0  0  0  0
   10.8919  -16.9245   22.8852 C   0  0  2  0  0  0  0  0  0  0  0  0
    9.8635  -16.8155   21.8745 N   0  0  0  0  0  0  0  0  0  0  0  0
   10.7406  -18.2187   23.5654 C   0  0  0  0  0  0  0  0  0  0  0  0
    9.7210  -18.9064   23.3893 O   0  0  0  0  0  0  0  0  0  0  0  0
   11.7364  -18.6695   24.4024 O   0  0  0  0  0  0  0  0  0  0  0  0
  2  1  1  6
  2  7  1  0
  3  4  1  0
  3  2  1  0
  5  4  1  0
  6  5  2  0
  7  8  2  0
  7 13  1  0
  9  5  1  0
 10 11  1  0
 12 14  1  0
 12 11  1  1
 13 12  1  0
 14 19  1  0
 15 14  2  0
 16 17  1  0
 18 17  1  1
 18 20  1  0
 19 18  1  0
 20 21  2  0
 20 22  1  0
M  END
$$$$
