ESS.pdb
     RDKit          3D

 22 21  0  0  1  0  0  0  0  0999 V2000
    6.8704  -18.2109   18.1292 N   0  0  0  0  0  0  0  0  0  0  0  0
    7.6967  -18.8765   19.1173 C   0  0  1  0  0  0  0  0  0  0  0  0
    8.9914  -19.3332   18.5269 C   0  0  0  0  0  0  0  0  0  0  0  0
    9.7054  -18.3301   17.6971 C   0  0  0  0  0  0  0  0  0  0  0  0
   10.9655  -18.8306   17.1307 C   0  0  0  0  0  0  0  0  0  0  0  0
   11.0894  -19.2462   15.9639 O   0  0  0  0  0  0  0  0  0  0  0  0
    7.9777  -17.9821   20.2759 C   0  0  0  0  0  0  0  0  0  0  0  0
    8.3658  -16.8090   20.0488 O   0  0  0  0  0  0  0  0  0  0  0  0
   12.1208  -18.8562   17.9256 O   0  0  0  0  0  0  0  0  0  0  0  0
    6.6739  -18.6963   24.1293 O   0  0  0  0  0  0  0  0  0  0  0  0
    7.0876  -17.4209   23.7542 C   0  0  0  0  0  0  0  0  0  0  0  0
    8.1999  -17.5042   22.7131 C   0  0  2  0  0  0  0  0  0  0  0  0
    7.8346  -18.3713   21.6353 N   0  0  0  0  0  0  0  0  0  0  0  0
    9.4557  -17.8913   23.3864 C   0  0  0  0  0  0  0  0  0  0  0  0
    9.8176  -19.0915   23.2852 O   0  0  0  0  0  0  0  0  0  0  0  0
   12.8539  -16.0689   23.6114 O   0  0  0  0  0  0  0  0  0  0  0  0
   12.4860  -16.3495   24.9336 C   0  0  0  0  0  0  0  0  0  0  0  0
   11.4451  -17.4492   24.8640 C   0  0  2  0  0  0  0  0  0  0  0  0
   10.2753  -17.0197   24.1306 N   0  0  0  0  0  0  0  0  0  0  0  0
   11.0202  -17.8942   26.1989 C   0  0  0  0  0  0  0  0  0  0  0  0
    9.8528  -17.7090   26.5815 O   0  0  0  0  0  0  0  0  0  0  0  0
   11.9232  -18.5201   27.0285 O   0  0  0  0  0  0  0  0  0  0  0  0
  2  1  1  6
  2  7  1  0
  3  4  1  0
  3  2  1  0
  5  4  1  0
  6  5  2  0
  7  8  2  0
  7 13  1  0
  9  5  1  0
 10 11  1  0
 12 14  1  0
 12 11  1  1
 13 12  1  0
 14 19  1  0
 15 14  2  0
 16 17  1  0
 18 17  1  1
 18 20  1  0
 19 18  1  0
 20 21  2  0
 20 22  1  0
M  END
$$$$
