ESS.pdb
     RDKit          3D

 22 21  0  0  1  0  0  0  0  0999 V2000
    9.8131  -15.9082   14.2464 N   0  0  0  0  0  0  0  0  0  0  0  0
    8.9652  -15.9746   15.4206 C   0  0  1  0  0  0  0  0  0  0  0  0
    8.6026  -17.3859   15.7522 C   0  0  0  0  0  0  0  0  0  0  0  0
    9.6816  -18.1945   16.3738 C   0  0  0  0  0  0  0  0  0  0  0  0
    9.2497  -19.5436   16.7644 C   0  0  0  0  0  0  0  0  0  0  0  0
    8.1988  -19.7871   17.3856 O   0  0  0  0  0  0  0  0  0  0  0  0
    9.6288  -15.3515   16.6008 C   0  0  0  0  0  0  0  0  0  0  0  0
   10.8826  -15.3854   16.6723 O   0  0  0  0  0  0  0  0  0  0  0  0
   10.0463  -20.6495   16.4332 O   0  0  0  0  0  0  0  0  0  0  0  0
    7.9615  -12.4001   18.9588 O   0  0  0  0  0  0  0  0  0  0  0  0
    8.6480  -13.3732   19.6803 C   0  0  0  0  0  0  0  0  0  0  0  0
    9.6153  -14.1281   18.7735 C   0  0  2  0  0  0  0  0  0  0  0  0
    8.9308  -14.7144   17.6624 N   0  0  0  0  0  0  0  0  0  0  0  0
   10.3699  -15.1025   19.5868 C   0  0  0  0  0  0  0  0  0  0  0  0
    9.8968  -16.2642   19.6802 O   0  0  0  0  0  0  0  0  0  0  0  0
   14.0235  -14.2771   21.4320 O   0  0  0  0  0  0  0  0  0  0  0  0
   13.8157  -15.5622   20.9145 C   0  0  0  0  0  0  0  0  0  0  0  0
   12.3247  -15.8220   21.0000 C   0  0  2  0  0  0  0  0  0  0  0  0
   11.5753  -14.8290   20.2631 N   0  0  0  0  0  0  0  0  0  0  0  0
   11.8436  -15.8320   22.3889 C   0  0  0  0  0  0  0  0  0  0  0  0
   10.9938  -15.0081   22.7661 O   0  0  0  0  0  0  0  0  0  0  0  0
   12.3393  -16.7614   23.2755 O   0  0  0  0  0  0  0  0  0  0  0  0
  2  1  1  6
  2  7  1  0
  3  4  1  0
  3  2  1  0
  5  4  1  0
  6  5  2  0
  7  8  2  0
  7 13  1  0
  9  5  1  0
 10 11  1  0
 12 14  1  0
 12 11  1  1
 13 12  1  0
 14 19  1  0
 15 14  2  0
 16 17  1  0
 18 17  1  1
 18 20  1  0
 19 18  1  0
 20 21  2  0
 20 22  1  0
M  END
$$$$
