ESS.pdb
     RDKit          3D

 22 21  0  0  1  0  0  0  0  0999 V2000
   11.7116  -18.8362   15.6308 N   0  0  0  0  0  0  0  0  0  0  0  0
   11.8710  -19.8661   16.6389 C   0  0  1  0  0  0  0  0  0  0  0  0
   12.7579  -20.9680   16.1569 C   0  0  0  0  0  0  0  0  0  0  0  0
   12.7266  -21.2212   14.6942 C   0  0  0  0  0  0  0  0  0  0  0  0
   13.5859  -22.3374   14.2758 C   0  0  0  0  0  0  0  0  0  0  0  0
   13.2132  -23.5240   14.2262 O   0  0  0  0  0  0  0  0  0  0  0  0
   12.4329  -19.3040   17.8997 C   0  0  0  0  0  0  0  0  0  0  0  0
   13.4066  -18.5137   17.8235 O   0  0  0  0  0  0  0  0  0  0  0  0
   14.9144  -22.0870   13.9023 O   0  0  0  0  0  0  0  0  0  0  0  0
   10.5700  -19.7595   21.6248 O   0  0  0  0  0  0  0  0  0  0  0  0
   11.3519  -18.6385   21.3589 C   0  0  0  0  0  0  0  0  0  0  0  0
   12.4634  -18.9837   20.3724 C   0  0  2  0  0  0  0  0  0  0  0  0
   11.9360  -19.6053   19.1967 N   0  0  0  0  0  0  0  0  0  0  0  0
   13.4823  -19.7961   21.0667 C   0  0  0  0  0  0  0  0  0  0  0  0
   13.3783  -21.0467   20.9817 O   0  0  0  0  0  0  0  0  0  0  0  0
   16.6566  -18.0960   22.9167 O   0  0  0  0  0  0  0  0  0  0  0  0
   16.8867  -19.4272   22.5459 C   0  0  0  0  0  0  0  0  0  0  0  0
   15.5289  -20.0996   22.5005 C   0  0  2  0  0  0  0  0  0  0  0  0
   14.5580  -19.2769   21.8141 N   0  0  0  0  0  0  0  0  0  0  0  0
   15.0159  -20.4019   23.8443 C   0  0  0  0  0  0  0  0  0  0  0  0
   13.9901  -19.8426   24.2664 O   0  0  0  0  0  0  0  0  0  0  0  0
   15.6781  -21.3110   24.6384 O   0  0  0  0  0  0  0  0  0  0  0  0
  2  1  1  6
  2  7  1  0
  3  4  1  0
  3  2  1  0
  5  4  1  0
  6  5  2  0
  7  8  2  0
  7 13  1  0
  9  5  1  0
 10 11  1  0
 12 14  1  0
 12 11  1  1
 13 12  1  0
 14 19  1  0
 15 14  2  0
 16 17  1  0
 18 17  1  1
 18 20  1  0
 19 18  1  0
 20 21  2  0
 20 22  1  0
M  END
$$$$
