ESS.pdb
     RDKit          3D

 22 21  0  0  1  0  0  0  0  0999 V2000
    7.8305  -12.8109   17.3045 N   0  0  0  0  0  0  0  0  0  0  0  0
    7.8949  -14.1170   17.9307 C   0  0  1  0  0  0  0  0  0  0  0  0
    8.6901  -15.0777   17.1074 C   0  0  0  0  0  0  0  0  0  0  0  0
    8.0925  -15.4467   15.7993 C   0  0  0  0  0  0  0  0  0  0  0  0
    8.8571  -16.4721   15.0759 C   0  0  0  0  0  0  0  0  0  0  0  0
    9.3146  -16.3210   13.9281 O   0  0  0  0  0  0  0  0  0  0  0  0
    8.4917  -14.0326   19.2938 C   0  0  0  0  0  0  0  0  0  0  0  0
    9.4177  -13.2075   19.4940 O   0  0  0  0  0  0  0  0  0  0  0  0
    9.1059  -17.7102   15.6861 O   0  0  0  0  0  0  0  0  0  0  0  0
    6.6934  -15.4276   22.7795 O   0  0  0  0  0  0  0  0  0  0  0  0
    7.6862  -14.4514   22.7718 C   0  0  0  0  0  0  0  0  0  0  0  0
    8.7085  -14.7372   21.6758 C   0  0  2  0  0  0  0  0  0  0  0  0
    8.0792  -14.8316   20.3945 N   0  0  0  0  0  0  0  0  0  0  0  0
    9.4824  -15.9387   22.0466 C   0  0  0  0  0  0  0  0  0  0  0  0
    9.1571  -17.0246   21.5017 O   0  0  0  0  0  0  0  0  0  0  0  0
   13.1961  -15.8948   23.5106 O   0  0  0  0  0  0  0  0  0  0  0  0
   12.7122  -17.1083   23.0048 C   0  0  0  0  0  0  0  0  0  0  0  0
   11.2409  -17.1658   23.3651 C   0  0  2  0  0  0  0  0  0  0  0  0
   10.5537  -15.9593   22.9617 N   0  0  0  0  0  0  0  0  0  0  0  0
   11.0316  -17.3606   24.8069 C   0  0  0  0  0  0  0  0  0  0  0  0
   10.3173  -16.5740   25.4507 O   0  0  0  0  0  0  0  0  0  0  0  0
   11.6318  -18.4223   25.4456 O   0  0  0  0  0  0  0  0  0  0  0  0
  2  1  1  6
  2  7  1  0
  3  4  1  0
  3  2  1  0
  5  4  1  0
  6  5  2  0
  7  8  2  0
  7 13  1  0
  9  5  1  0
 10 11  1  0
 12 14  1  0
 12 11  1  1
 13 12  1  0
 14 19  1  0
 15 14  2  0
 16 17  1  0
 18 17  1  1
 18 20  1  0
 19 18  1  0
 20 21  2  0
 20 22  1  0
M  END
$$$$
