ESS.pdb
     RDKit          3D

 22 21  0  0  1  0  0  0  0  0999 V2000
   12.0069  -16.3857   20.2535 N   0  0  0  0  0  0  0  0  0  0  0  0
   11.9798  -17.0695   21.5317 C   0  0  1  0  0  0  0  0  0  0  0  0
   13.3574  -17.2533   22.0810 C   0  0  0  0  0  0  0  0  0  0  0  0
   14.1493  -16.0090   22.2521 C   0  0  0  0  0  0  0  0  0  0  0  0
   15.4770  -16.2374   22.8387 C   0  0  0  0  0  0  0  0  0  0  0  0
   16.5082  -16.4426   22.1723 O   0  0  0  0  0  0  0  0  0  0  0  0
   11.1545  -16.3244   22.5243 C   0  0  0  0  0  0  0  0  0  0  0  0
   11.1682  -15.0685   22.4949 O   0  0  0  0  0  0  0  0  0  0  0  0
   15.6292  -16.2306   24.2330 O   0  0  0  0  0  0  0  0  0  0  0  0
    8.4498  -18.1773   25.1946 O   0  0  0  0  0  0  0  0  0  0  0  0
    8.2194  -16.8924   24.7101 C   0  0  0  0  0  0  0  0  0  0  0  0
    9.5402  -16.1858   24.4197 C   0  0  2  0  0  0  0  0  0  0  0  0
   10.3441  -16.9460   23.5127 N   0  0  0  0  0  0  0  0  0  0  0  0
   10.2122  -15.8856   25.6996 C   0  0  0  0  0  0  0  0  0  0  0  0
   11.2456  -16.5469   25.9770 O   0  0  0  0  0  0  0  0  0  0  0  0
    8.6355  -13.2308   28.2473 O   0  0  0  0  0  0  0  0  0  0  0  0
   10.0068  -13.3610   28.5027 C   0  0  0  0  0  0  0  0  0  0  0  0
   10.4298  -14.6871   27.9025 C   0  0  2  0  0  0  0  0  0  0  0  0
    9.7840  -14.9175   26.6295 N   0  0  0  0  0  0  0  0  0  0  0  0
   10.1255  -15.8184   28.7903 C   0  0  0  0  0  0  0  0  0  0  0  0
    9.3205  -16.6962   28.4370 O   0  0  0  0  0  0  0  0  0  0  0  0
   10.7378  -15.9037   30.0204 O   0  0  0  0  0  0  0  0  0  0  0  0
  2  1  1  6
  2  7  1  0
  3  4  1  0
  3  2  1  0
  5  4  1  0
  6  5  2  0
  7  8  2  0
  7 13  1  0
  9  5  1  0
 10 11  1  0
 12 14  1  0
 12 11  1  1
 13 12  1  0
 14 19  1  0
 15 14  2  0
 16 17  1  0
 18 17  1  1
 18 20  1  0
 19 18  1  0
 20 21  2  0
 20 22  1  0
M  END
$$$$
