ESS.pdb
     RDKit          3D

 22 21  0  0  1  0  0  0  0  0999 V2000
   12.3957  -20.7165   18.1299 N   0  0  0  0  0  0  0  0  0  0  0  0
   13.0256  -19.4343   18.3779 C   0  0  1  0  0  0  0  0  0  0  0  0
   13.0282  -18.5817   17.1506 C   0  0  0  0  0  0  0  0  0  0  0  0
   14.3428  -18.4351   16.4761 C   0  0  0  0  0  0  0  0  0  0  0  0
   14.2473  -17.8539   15.1299 C   0  0  0  0  0  0  0  0  0  0  0  0
   13.7437  -16.7423   14.8841 O   0  0  0  0  0  0  0  0  0  0  0  0
   12.3402  -18.7010   19.4796 C   0  0  0  0  0  0  0  0  0  0  0  0
   12.7834  -17.5754   19.8187 O   0  0  0  0  0  0  0  0  0  0  0  0
   14.7443  -18.5680   14.0298 O   0  0  0  0  0  0  0  0  0  0  0  0
    9.0045  -20.2315   21.5307 O   0  0  0  0  0  0  0  0  0  0  0  0
    9.1017  -18.8525   21.3650 C   0  0  0  0  0  0  0  0  0  0  0  0
   10.5605  -18.4348   21.2057 C   0  0  2  0  0  0  0  0  0  0  0  0
   11.2064  -19.1948   20.1801 N   0  0  0  0  0  0  0  0  0  0  0  0
   11.2285  -18.5234   22.5196 C   0  0  0  0  0  0  0  0  0  0  0  0
   12.0518  -19.4596   22.6855 O   0  0  0  0  0  0  0  0  0  0  0  0
   12.0074  -15.5175   24.9427 O   0  0  0  0  0  0  0  0  0  0  0  0
   11.4894  -16.5512   25.7337 C   0  0  0  0  0  0  0  0  0  0  0  0
   11.5975  -17.8175   24.9075 C   0  0  2  0  0  0  0  0  0  0  0  0
   11.0131  -17.6409   23.5967 N   0  0  0  0  0  0  0  0  0  0  0  0
   10.9425  -18.9608   25.5589 C   0  0  0  0  0  0  0  0  0  0  0  0
   11.3733  -19.4016   26.6376 O   0  0  0  0  0  0  0  0  0  0  0  0
    9.8448  -19.5450   24.9682 O   0  0  0  0  0  0  0  0  0  0  0  0
  2  1  1  6
  2  7  1  0
  3  4  1  0
  3  2  1  0
  5  4  1  0
  6  5  2  0
  7  8  2  0
  7 13  1  0
  9  5  1  0
 10 11  1  0
 12 14  1  0
 12 11  1  1
 13 12  1  0
 14 19  1  0
 15 14  2  0
 16 17  1  0
 18 17  1  1
 18 20  1  0
 19 18  1  0
 20 21  2  0
 20 22  1  0
M  END
$$$$
