ESS.pdb
     RDKit          3D

 22 21  0  0  1  0  0  0  0  0999 V2000
   11.3726  -13.7150   19.3262 N   0  0  0  0  0  0  0  0  0  0  0  0
    9.9729  -13.3789   19.4991 C   0  0  1  0  0  0  0  0  0  0  0  0
    9.2025  -13.5852   18.2353 C   0  0  0  0  0  0  0  0  0  0  0  0
    9.8195  -14.5130   17.2540 C   0  0  0  0  0  0  0  0  0  0  0  0
    9.0179  -14.6927   16.0357 C   0  0  0  0  0  0  0  0  0  0  0  0
    7.9641  -14.0747   15.7965 O   0  0  0  0  0  0  0  0  0  0  0  0
    9.3538  -14.1902   20.5854 C   0  0  0  0  0  0  0  0  0  0  0  0
    8.1266  -14.0501   20.8147 O   0  0  0  0  0  0  0  0  0  0  0  0
    9.4359  -15.6093   15.0599 O   0  0  0  0  0  0  0  0  0  0  0  0
   10.1204  -17.9510   21.3451 O   0  0  0  0  0  0  0  0  0  0  0  0
    9.0096  -17.2734   21.8407 C   0  0  0  0  0  0  0  0  0  0  0  0
    9.4167  -15.9095   22.3902 C   0  0  2  0  0  0  0  0  0  0  0  0
   10.0664  -15.1218   21.3881 N   0  0  0  0  0  0  0  0  0  0  0  0
   10.2288  -16.1085   23.6073 C   0  0  0  0  0  0  0  0  0  0  0  0
   11.4777  -16.0200   23.4876 O   0  0  0  0  0  0  0  0  0  0  0  0
   10.6173  -16.7046   28.3882 O   0  0  0  0  0  0  0  0  0  0  0  0
    9.7191  -16.5174   27.3296 C   0  0  0  0  0  0  0  0  0  0  0  0
   10.5345  -16.6097   26.0551 C   0  0  2  0  0  0  0  0  0  0  0  0
    9.7109  -16.3888   24.8873 N   0  0  0  0  0  0  0  0  0  0  0  0
   11.1986  -17.9137   25.9164 C   0  0  0  0  0  0  0  0  0  0  0  0
   10.6784  -18.8154   25.2383 O   0  0  0  0  0  0  0  0  0  0  0  0
   12.4046  -18.1347   26.5426 O   0  0  0  0  0  0  0  0  0  0  0  0
  2  1  1  6
  2  7  1  0
  3  4  1  0
  3  2  1  0
  5  4  1  0
  6  5  2  0
  7  8  2  0
  7 13  1  0
  9  5  1  0
 10 11  1  0
 12 14  1  0
 12 11  1  6
 13 12  1  0
 14 19  1  0
 15 14  2  0
 16 17  1  0
 18 17  1  1
 18 20  1  0
 19 18  1  0
 20 21  2  0
 20 22  1  0
M  END
$$$$
