ESS.pdb
     RDKit          3D

 22 21  0  0  1  0  0  0  0  0999 V2000
    9.2606  -24.3185   29.2447 N   0  0  0  0  0  0  0  0  0  0  0  0
    9.5976  -23.3444   30.2644 C   0  0  1  0  0  0  0  0  0  0  0  0
    9.6817  -23.9767   31.6158 C   0  0  0  0  0  0  0  0  0  0  0  0
    9.5560  -25.4560   31.6391 C   0  0  0  0  0  0  0  0  0  0  0  0
    9.5319  -26.0191   32.9961 C   0  0  0  0  0  0  0  0  0  0  0  0
   10.5127  -26.5508   33.5483 O   0  0  0  0  0  0  0  0  0  0  0  0
   10.8918  -22.6708   29.9598 C   0  0  0  0  0  0  0  0  0  0  0  0
   11.3300  -22.7156   28.7832 O   0  0  0  0  0  0  0  0  0  0  0  0
    8.3469  -25.9722   33.7450 O   0  0  0  0  0  0  0  0  0  0  0  0
   12.1566  -19.1081   31.1115 O   0  0  0  0  0  0  0  0  0  0  0  0
   13.1162  -20.0703   31.4144 C   0  0  0  0  0  0  0  0  0  0  0  0
   12.8991  -21.3250   30.5740 C   0  0  2  0  0  0  0  0  0  0  0  0
   11.6721  -21.9736   30.9215 N   0  0  0  0  0  0  0  0  0  0  0  0
   14.0859  -22.1946   30.6992 C   0  0  0  0  0  0  0  0  0  0  0  0
   14.1390  -22.9569   31.6981 O   0  0  0  0  0  0  0  0  0  0  0  0
   15.4109  -24.4082   28.0972 O   0  0  0  0  0  0  0  0  0  0  0  0
   16.5831  -23.7788   28.5357 C   0  0  0  0  0  0  0  0  0  0  0  0
   16.2607  -23.1649   29.8836 C   0  0  2  0  0  0  0  0  0  0  0  0
   15.1588  -22.2337   29.7866 N   0  0  0  0  0  0  0  0  0  0  0  0
   17.4148  -22.4616   30.4616 C   0  0  0  0  0  0  0  0  0  0  0  0
   17.3485  -21.2475   30.7162 O   0  0  0  0  0  0  0  0  0  0  0  0
   18.5754  -23.1550   30.7216 O   0  0  0  0  0  0  0  0  0  0  0  0
  2  1  1  6
  2  7  1  0
  3  4  1  0
  3  2  1  0
  5  4  1  0
  6  5  2  0
  7  8  2  0
  7 13  1  0
  9  5  1  0
 10 11  1  0
 12 14  1  0
 12 11  1  1
 13 12  1  0
 14 19  1  0
 15 14  2  0
 16 17  1  0
 18 17  1  6
 18 20  1  0
 19 18  1  0
 20 21  2  0
 20 22  1  0
M  END
$$$$
