IGD.pdb
     RDKit          3D

 21 20  0  0  1  0  0  0  0  0999 V2000
    7.0223  -11.5517   27.4269 C   0  0  0  0  0  0  0  0  0  0  0  0
    6.3018  -12.8364   26.9939 C   0  0  0  0  0  0  0  0  0  0  0  0
    6.9257  -13.2548   25.7046 C   0  0  2  0  0  0  0  0  0  0  0  0
    6.8216  -12.0842   24.7374 C   0  0  0  0  0  0  0  0  0  0  0  0
    6.3553  -14.5107   25.1085 C   0  0  2  0  0  0  0  0  0  0  0  0
    6.6140  -15.5770   26.0686 N   0  0  0  0  0  0  0  0  0  0  0  0
    6.8791  -14.8389   23.7707 C   0  0  0  0  0  0  0  0  0  0  0  0
    6.6453  -14.0907   22.7902 O   0  0  0  0  0  0  0  0  0  0  0  0
    7.6612  -16.0028   23.5401 N   0  0  0  0  0  0  0  0  0  0  0  0
    8.2560  -16.3281   22.2579 C   0  0  0  0  0  0  0  0  0  0  0  0
    9.7395  -16.2956   22.4295 C   0  0  0  0  0  0  0  0  0  0  0  0
   10.4305  -15.2901   22.0538 O   0  0  0  0  0  0  0  0  0  0  0  0
   10.4715  -17.3604   23.0116 N   0  0  0  0  0  0  0  0  0  0  0  0
   11.9293  -17.3280   23.0594 C   0  0  1  0  0  0  0  0  0  0  0  0
   12.4543  -18.3474   24.0393 C   0  0  0  0  0  0  0  0  0  0  0  0
   12.1950  -17.9485   25.4291 C   0  0  0  0  0  0  0  0  0  0  0  0
   12.5157  -16.7796   25.8047 O   0  0  0  0  0  0  0  0  0  0  0  0
   12.4051  -17.5992   21.6557 C   0  0  0  0  0  0  0  0  0  0  0  0
   13.5311  -16.9042   21.1688 O   0  0  0  0  0  0  0  0  0  0  0  0
   11.6191  -18.7618   26.3840 O   0  0  0  0  0  0  0  0  0  0  0  0
   11.8625  -18.4066   20.8882 O   0  0  0  0  0  0  0  0  0  0  0  0
  1  2  1  0
  3  5  1  0
  3  2  1  0
  3  4  1  6
  5  6  1  1
  7  5  1  0
  7  8  2  0
  9  7  1  0
 10  9  1  0
 11 10  1  0
 12 11  2  0
 13 11  1  0
 14 13  1  0
 14 15  1  1
 15 16  1  0
 16 17  2  0
 18 14  1  0
 19 18  1  0
 20 16  1  0
 21 18  2  0
M  END
$$$$
