IGD.pdb
     RDKit          3D

 21 20  0  0  1  0  0  0  0  0999 V2000
    7.3561  -12.2641   19.5093 C   0  0  0  0  0  0  0  0  0  0  0  0
    8.2619  -13.4269   19.9388 C   0  0  0  0  0  0  0  0  0  0  0  0
    7.6857  -13.9632   21.2065 C   0  0  2  0  0  0  0  0  0  0  0  0
    7.5935  -12.8119   22.1978 C   0  0  0  0  0  0  0  0  0  0  0  0
    8.4293  -15.1311   21.7905 C   0  0  2  0  0  0  0  0  0  0  0  0
    8.3253  -16.2133   20.8191 N   0  0  0  0  0  0  0  0  0  0  0  0
    7.9577  -15.5445   23.1241 C   0  0  0  0  0  0  0  0  0  0  0  0
    8.2169  -14.8515   24.1382 O   0  0  0  0  0  0  0  0  0  0  0  0
    7.1990  -16.7312   23.3129 N   0  0  0  0  0  0  0  0  0  0  0  0
    6.6056  -17.1103   24.5809 C   0  0  0  0  0  0  0  0  0  0  0  0
    7.6736  -17.7565   25.4014 C   0  0  0  0  0  0  0  0  0  0  0  0
    7.4057  -18.3264   26.5119 O   0  0  0  0  0  0  0  0  0  0  0  0
    9.0358  -17.7818   25.0114 N   0  0  0  0  0  0  0  0  0  0  0  0
   10.0374  -18.4510   25.8345 C   0  0  1  0  0  0  0  0  0  0  0  0
   11.3898  -18.4109   25.1679 C   0  0  0  0  0  0  0  0  0  0  0  0
   11.4926  -19.4017   24.0881 C   0  0  0  0  0  0  0  0  0  0  0  0
   10.5226  -20.1940   23.8846 O   0  0  0  0  0  0  0  0  0  0  0  0
   10.0421  -17.7359   27.1608 C   0  0  0  0  0  0  0  0  0  0  0  0
   10.2748  -18.4777   28.3370 O   0  0  0  0  0  0  0  0  0  0  0  0
   12.5857  -19.5465   23.2580 O   0  0  0  0  0  0  0  0  0  0  0  0
    9.8515  -16.5181   27.2876 O   0  0  0  0  0  0  0  0  0  0  0  0
  1  2  1  0
  3  5  1  0
  3  2  1  0
  3  4  1  1
  5  6  1  6
  7  5  1  0
  7  8  2  0
  9  7  1  0
 10  9  1  0
 11 10  1  0
 12 11  2  0
 13 11  1  0
 14 13  1  0
 14 15  1  6
 15 16  1  0
 16 17  2  0
 18 14  1  0
 19 18  1  0
 20 16  1  0
 21 18  2  0
M  END
$$$$
