IGD.pdb
     RDKit          3D

 21 20  0  0  1  0  0  0  0  0999 V2000
    7.0185  -10.9479   27.1771 C   0  0  0  0  0  0  0  0  0  0  0  0
    6.4224  -12.3492   26.9818 C   0  0  0  0  0  0  0  0  0  0  0  0
    6.9702  -12.8637   25.6927 C   0  0  2  0  0  0  0  0  0  0  0  0
    6.5496  -11.9000   24.5922 C   0  0  0  0  0  0  0  0  0  0  0  0
    6.5794  -14.2766   25.3628 C   0  0  2  0  0  0  0  0  0  0  0  0
    7.0302  -15.1001   26.4783 N   0  0  0  0  0  0  0  0  0  0  0  0
    7.1023  -14.7652   24.0745 C   0  0  0  0  0  0  0  0  0  0  0  0
    6.6589  -14.3130   22.9906 O   0  0  0  0  0  0  0  0  0  0  0  0
    8.1181  -15.7568   24.0090 N   0  0  0  0  0  0  0  0  0  0  0  0
    8.7218  -16.2055   22.7688 C   0  0  0  0  0  0  0  0  0  0  0  0
    9.7996  -17.1783   23.1199 C   0  0  0  0  0  0  0  0  0  0  0  0
    9.6295  -18.4363   22.9855 O   0  0  0  0  0  0  0  0  0  0  0  0
   11.0650  -16.7798   23.6184 N   0  0  0  0  0  0  0  0  0  0  0  0
   12.0665  -17.7712   23.9959 C   0  0  1  0  0  0  0  0  0  0  0  0
   13.4535  -17.2847   23.6578 C   0  0  0  0  0  0  0  0  0  0  0  0
   13.5812  -16.9567   22.2316 C   0  0  0  0  0  0  0  0  0  0  0  0
   13.1819  -17.7964   21.3681 O   0  0  0  0  0  0  0  0  0  0  0  0
   11.8962  -18.0031   25.4751 C   0  0  0  0  0  0  0  0  0  0  0  0
   12.7118  -18.9578   26.1161 O   0  0  0  0  0  0  0  0  0  0  0  0
   14.1153  -15.7820   21.7418 O   0  0  0  0  0  0  0  0  0  0  0  0
   11.0724  -17.3994   26.1767 O   0  0  0  0  0  0  0  0  0  0  0  0
  1  2  1  0
  3  5  1  0
  3  2  1  0
  3  4  1  6
  5  6  1  1
  7  5  1  0
  7  8  2  0
  9  7  1  0
 10  9  1  0
 11 10  1  0
 12 11  2  0
 13 11  1  0
 14 13  1  0
 14 15  1  1
 15 16  1  0
 16 17  2  0
 18 14  1  0
 19 18  1  0
 20 16  1  0
 21 18  2  0
M  END
$$$$
