IGD.pdb
     RDKit          3D

 21 20  0  0  1  0  0  0  0  0999 V2000
    6.6092  -13.6417   19.6027 C   0  0  0  0  0  0  0  0  0  0  0  0
    7.5684  -13.5834   18.4054 C   0  0  0  0  0  0  0  0  0  0  0  0
    8.9013  -14.0231   18.9120 C   0  0  2  0  0  0  0  0  0  0  0  0
    9.3441  -13.0291   19.9762 C   0  0  0  0  0  0  0  0  0  0  0  0
    9.9517  -14.1948   17.8513 C   0  0  2  0  0  0  0  0  0  0  0  0
    9.3261  -14.9456   16.7694 N   0  0  0  0  0  0  0  0  0  0  0  0
   11.1894  -14.8411   18.3228 C   0  0  0  0  0  0  0  0  0  0  0  0
   11.3485  -16.0809   18.2070 O   0  0  0  0  0  0  0  0  0  0  0  0
   12.2404  -14.0945   18.9206 N   0  0  0  0  0  0  0  0  0  0  0  0
   13.5511  -14.6445   19.2092 C   0  0  0  0  0  0  0  0  0  0  0  0
   13.4275  -15.4760   20.4439 C   0  0  0  0  0  0  0  0  0  0  0  0
   12.3081  -15.6176   21.0410 O   0  0  0  0  0  0  0  0  0  0  0  0
   14.5254  -16.1546   21.0292 N   0  0  0  0  0  0  0  0  0  0  0  0
   14.3634  -16.9147   22.2639 C   0  0  1  0  0  0  0  0  0  0  0  0
   15.4357  -17.9682   22.3871 C   0  0  0  0  0  0  0  0  0  0  0  0
   15.7634  -18.5643   21.0850 C   0  0  0  0  0  0  0  0  0  0  0  0
   14.8814  -19.2478   20.4809 O   0  0  0  0  0  0  0  0  0  0  0  0
   14.4257  -15.9137   23.3885 C   0  0  0  0  0  0  0  0  0  0  0  0
   14.1555  -16.3446   24.7034 O   0  0  0  0  0  0  0  0  0  0  0  0
   16.9829  -18.4408   20.4506 O   0  0  0  0  0  0  0  0  0  0  0  0
   14.7035  -14.7165   23.2306 O   0  0  0  0  0  0  0  0  0  0  0  0
  1  2  1  0
  3  5  1  0
  3  2  1  0
  3  4  1  1
  5  6  1  6
  7  5  1  0
  7  8  2  0
  9  7  1  0
 10  9  1  0
 11 10  1  0
 12 11  2  0
 13 11  1  0
 14 13  1  0
 14 15  1  1
 15 16  1  0
 16 17  2  0
 18 14  1  0
 19 18  1  0
 20 16  1  0
 21 18  2  0
M  END
$$$$
