KKF.pdb
     RDKit          3D

 30 30  0  0  1  0  0  0  0  0999 V2000
    6.8919  -20.5628   22.0524 N   0  0  0  0  0  0  0  0  0  0  0  0
    6.4522  -19.3373   22.6956 C   0  0  1  0  0  0  0  0  0  0  0  0
    6.4768  -19.5279   24.1715 C   0  0  0  0  0  0  0  0  0  0  0  0
    7.3907  -20.6489   24.5902 C   0  0  0  0  0  0  0  0  0  0  0  0
    6.6604  -21.5496   25.5336 C   0  0  0  0  0  0  0  0  0  0  0  0
    7.5516  -22.6485   26.0840 C   0  0  0  0  0  0  0  0  0  0  0  0
    8.1622  -22.2296   27.3285 N   0  0  0  0  0  0  0  0  0  0  0  0
    7.3550  -18.2105   22.2678 C   0  0  0  0  0  0  0  0  0  0  0  0
    8.5338  -18.4530   21.9049 O   0  0  0  0  0  0  0  0  0  0  0  0
    6.8467  -16.8912   22.2855 N   0  0  0  0  0  0  0  0  0  0  0  0
    7.7034  -15.7087   22.0202 C   0  0  1  0  0  0  0  0  0  0  0  0
    6.8157  -14.5757   21.6441 C   0  0  0  0  0  0  0  0  0  0  0  0
    7.4367  -13.3318   21.1454 C   0  0  0  0  0  0  0  0  0  0  0  0
    7.6709  -13.3075   19.6518 C   0  0  0  0  0  0  0  0  0  0  0  0
    8.3353  -12.0062   19.2362 C   0  0  0  0  0  0  0  0  0  0  0  0
    8.3878  -12.0244   17.7725 N   0  0  0  0  0  0  0  0  0  0  0  0
    8.5531  -15.4791   23.2167 C   0  0  0  0  0  0  0  0  0  0  0  0
    9.5299  -14.6460   23.1316 O   0  0  0  0  0  0  0  0  0  0  0  0
    8.3969  -16.0916   24.4693 N   0  0  0  0  0  0  0  0  0  0  0  0
    9.2525  -15.7699   25.6173 C   0  0  1  0  0  0  0  0  0  0  0  0
    8.5110  -15.2352   26.7883 C   0  0  0  0  0  0  0  0  0  0  0  0
    7.8942  -13.9198   26.5610 C   0  0  0  0  0  0  0  0  0  0  0  0
    6.5543  -13.7733   26.2746 C   0  0  0  0  0  0  0  0  0  0  0  0
    6.0289  -12.5096   26.0682 C   0  0  0  0  0  0  0  0  0  0  0  0
    6.7945  -11.3635   26.1360 C   0  0  0  0  0  0  0  0  0  0  0  0
    8.1345  -11.5171   26.4230 C   0  0  0  0  0  0  0  0  0  0  0  0
    8.6714  -12.7904   26.6324 C   0  0  0  0  0  0  0  0  0  0  0  0
    9.9989  -16.9911   25.9906 C   0  0  0  0  0  0  0  0  0  0  0  0
    9.8421  -18.0620   25.3705 O   0  0  0  0  0  0  0  0  0  0  0  0
   10.9001  -16.9568   27.0568 O   0  0  0  0  0  0  0  0  0  0  0  0
  2  1  1  6
  2  8  1  0
  3  2  1  0
  4  3  1  0
  4  5  1  0
  6  5  1  0
  6  7  1  0
  8  9  2  0
 10 11  1  0
 10  8  1  0
 11 17  1  0
 11 12  1  1
 13 12  1  0
 14 13  1  0
 15 14  1  0
 16 15  1  0
 17 18  2  0
 17 19  1  0
 19 20  1  0
 20 28  1  0
 20 21  1  1
 22 21  1  0
 23 22  2  0
 24 23  1  0
 25 26  1  0
 25 24  2  0
 26 27  2  0
 27 22  1  0
 28 29  2  0
 28 30  1  0
M  END
$$$$
