KKF.pdb
     RDKit          3D

 30 30  0  0  1  0  0  0  0  0999 V2000
    9.4913  -19.5744   19.9748 N   0  0  0  0  0  0  0  0  0  0  0  0
    8.6925  -18.9931   21.0392 C   0  0  1  0  0  0  0  0  0  0  0  0
    8.5716  -19.9779   22.1485 C   0  0  0  0  0  0  0  0  0  0  0  0
    8.9780  -21.3661   21.7303 C   0  0  0  0  0  0  0  0  0  0  0  0
    7.7752  -22.0980   21.2281 C   0  0  0  0  0  0  0  0  0  0  0  0
    8.0730  -23.5571   20.9324 C   0  0  0  0  0  0  0  0  0  0  0  0
    6.8708  -24.2430   20.5064 N   0  0  0  0  0  0  0  0  0  0  0  0
    9.3474  -17.7178   21.5000 C   0  0  0  0  0  0  0  0  0  0  0  0
   10.6010  -17.6357   21.5446 O   0  0  0  0  0  0  0  0  0  0  0  0
    8.5245  -16.6310   21.8757 N   0  0  0  0  0  0  0  0  0  0  0  0
    9.0809  -15.3008   22.2271 C   0  0  1  0  0  0  0  0  0  0  0  0
    8.3382  -14.2738   21.4480 C   0  0  0  0  0  0  0  0  0  0  0  0
    8.3601  -14.3584   19.9736 C   0  0  0  0  0  0  0  0  0  0  0  0
    7.7316  -13.1756   19.2720 C   0  0  0  0  0  0  0  0  0  0  0  0
    7.7997  -13.3505   17.7646 C   0  0  0  0  0  0  0  0  0  0  0  0
    7.0482  -12.2323   17.1900 N   0  0  0  0  0  0  0  0  0  0  0  0
    9.0128  -15.1496   23.7032 C   0  0  0  0  0  0  0  0  0  0  0  0
    8.6449  -14.0182   24.1932 O   0  0  0  0  0  0  0  0  0  0  0  0
    9.3140  -16.1413   24.6488 N   0  0  0  0  0  0  0  0  0  0  0  0
    9.1597  -15.9281   26.0925 C   0  0  1  0  0  0  0  0  0  0  0  0
    7.7818  -15.5517   26.5006 C   0  0  0  0  0  0  0  0  0  0  0  0
    7.5334  -14.1025   26.5171 C   0  0  0  0  0  0  0  0  0  0  0  0
    6.3902  -13.5441   25.9876 C   0  0  0  0  0  0  0  0  0  0  0  0
    6.2110  -12.1724   26.0298 C   0  0  0  0  0  0  0  0  0  0  0  0
    7.1386  -11.3161   26.5872 C   0  0  0  0  0  0  0  0  0  0  0  0
    8.2803  -11.8811   27.1152 C   0  0  0  0  0  0  0  0  0  0  0  0
    8.4674  -13.2657   27.0757 C   0  0  0  0  0  0  0  0  0  0  0  0
    9.5867  -17.1620   26.7875 C   0  0  0  0  0  0  0  0  0  0  0  0
    9.9193  -18.1823   26.1517 O   0  0  0  0  0  0  0  0  0  0  0  0
    9.6223  -17.1975   28.1830 O   0  0  0  0  0  0  0  0  0  0  0  0
  2  1  1  6
  2  8  1  0
  3  2  1  0
  4  3  1  0
  4  5  1  0
  6  5  1  0
  6  7  1  0
  8  9  2  0
 10 11  1  0
 10  8  1  0
 11 17  1  0
 11 12  1  6
 13 12  1  0
 14 13  1  0
 15 14  1  0
 16 15  1  0
 17 18  2  0
 17 19  1  0
 19 20  1  0
 20 28  1  0
 20 21  1  6
 22 21  1  0
 23 22  2  0
 24 23  1  0
 25 26  1  0
 25 24  2  0
 26 27  2  0
 27 22  1  0
 28 29  2  0
 28 30  1  0
M  END
$$$$
