KKF.pdb
     RDKit          3D

 30 30  0  0  1  0  0  0  0  0999 V2000
    7.1032  -19.3695   22.5208 N   0  0  0  0  0  0  0  0  0  0  0  0
    8.3216  -19.4073   21.7315 C   0  0  1  0  0  0  0  0  0  0  0  0
    8.0220  -20.0115   20.4048 C   0  0  0  0  0  0  0  0  0  0  0  0
    7.0928  -21.1917   20.5084 C   0  0  0  0  0  0  0  0  0  0  0  0
    6.8719  -21.7621   19.1444 C   0  0  0  0  0  0  0  0  0  0  0  0
    5.8833  -22.9144   19.1571 C   0  0  0  0  0  0  0  0  0  0  0  0
    5.6412  -23.3887   17.8105 N   0  0  0  0  0  0  0  0  0  0  0  0
    8.8575  -18.0068   21.5937 C   0  0  0  0  0  0  0  0  0  0  0  0
    9.9015  -17.7963   20.9258 O   0  0  0  0  0  0  0  0  0  0  0  0
    8.1635  -16.9504   22.2276 N   0  0  0  0  0  0  0  0  0  0  0  0
    8.6636  -15.5532   22.2133 C   0  0  1  0  0  0  0  0  0  0  0  0
    7.6305  -14.7040   21.5614 C   0  0  0  0  0  0  0  0  0  0  0  0
    8.0710  -13.5011   20.8263 C   0  0  0  0  0  0  0  0  0  0  0  0
    7.8538  -13.5697   19.3315 C   0  0  0  0  0  0  0  0  0  0  0  0
    8.3793  -12.3142   18.6569 C   0  0  0  0  0  0  0  0  0  0  0  0
    8.0579  -12.4506   17.2344 N   0  0  0  0  0  0  0  0  0  0  0  0
    9.0090  -15.1745   23.6074 C   0  0  0  0  0  0  0  0  0  0  0  0
    9.1655  -13.9290   23.8899 O   0  0  0  0  0  0  0  0  0  0  0  0
    9.1857  -16.0583   24.6827 N   0  0  0  0  0  0  0  0  0  0  0  0
    9.3721  -15.5951   26.0626 C   0  0  1  0  0  0  0  0  0  0  0  0
    8.1018  -15.4017   26.8083 C   0  0  0  0  0  0  0  0  0  0  0  0
    7.3819  -14.1673   26.4613 C   0  0  0  0  0  0  0  0  0  0  0  0
    7.9315  -12.9169   26.6440 C   0  0  0  0  0  0  0  0  0  0  0  0
    7.2059  -11.7895   26.3006 C   0  0  0  0  0  0  0  0  0  0  0  0
    5.9324  -11.8543   25.7731 C   0  0  0  0  0  0  0  0  0  0  0  0
    5.3883  -13.1084   25.5929 C   0  0  0  0  0  0  0  0  0  0  0  0
    6.1156  -14.2511   25.9376 C   0  0  0  0  0  0  0  0  0  0  0  0
   10.2394  -16.5687   26.7610 C   0  0  0  0  0  0  0  0  0  0  0  0
   10.5571  -16.4128   27.9570 O   0  0  0  0  0  0  0  0  0  0  0  0
   10.7182  -17.6887   26.0780 O   0  0  0  0  0  0  0  0  0  0  0  0
  2  1  1  1
  2  8  1  0
  3  2  1  0
  4  3  1  0
  4  5  1  0
  6  5  1  0
  6  7  1  0
  8  9  2  0
 10 11  1  0
 10  8  1  0
 11 17  1  0
 11 12  1  1
 13 12  1  0
 14 13  1  0
 15 14  1  0
 16 15  1  0
 17 18  2  0
 17 19  1  0
 19 20  1  0
 20 28  1  0
 20 21  1  1
 22 21  1  0
 23 22  2  0
 24 23  1  0
 25 26  1  0
 25 24  2  0
 26 27  2  0
 27 22  1  0
 28 29  2  0
 28 30  1  0
M  END
$$$$
