KKF.pdb
     RDKit          3D

 30 30  0  0  1  0  0  0  0  0999 V2000
    9.6197  -15.6107   20.5562 N   0  0  0  0  0  0  0  0  0  0  0  0
    8.6289  -14.6249   20.9504 C   0  0  1  0  0  0  0  0  0  0  0  0
    7.7601  -14.3159   19.7821 C   0  0  0  0  0  0  0  0  0  0  0  0
    8.5453  -14.1699   18.5058 C   0  0  0  0  0  0  0  0  0  0  0  0
    7.6165  -13.7798   17.4014 C   0  0  0  0  0  0  0  0  0  0  0  0
    8.3310  -13.6540   16.0677 C   0  0  0  0  0  0  0  0  0  0  0  0
    7.3971  -13.2797   15.0262 N   0  0  0  0  0  0  0  0  0  0  0  0
    7.8306  -15.1700   22.1051 C   0  0  0  0  0  0  0  0  0  0  0  0
    6.9353  -14.4665   22.6377 O   0  0  0  0  0  0  0  0  0  0  0  0
    8.1124  -16.4765   22.5666 N   0  0  0  0  0  0  0  0  0  0  0  0
    7.2850  -17.1469   23.6004 C   0  0  1  0  0  0  0  0  0  0  0  0
    7.0927  -18.5625   23.1852 C   0  0  0  0  0  0  0  0  0  0  0  0
    7.0965  -18.8786   21.7424 C   0  0  0  0  0  0  0  0  0  0  0  0
    6.9559  -20.3505   21.4263 C   0  0  0  0  0  0  0  0  0  0  0  0
    6.8958  -20.5713   19.9246 C   0  0  0  0  0  0  0  0  0  0  0  0
    6.9790  -22.0194   19.7217 N   0  0  0  0  0  0  0  0  0  0  0  0
    7.9488  -16.9558   24.9153 C   0  0  0  0  0  0  0  0  0  0  0  0
    7.7002  -17.7914   25.8615 O   0  0  0  0  0  0  0  0  0  0  0  0
    8.8480  -15.9302   25.2442 N   0  0  0  0  0  0  0  0  0  0  0  0
    9.2230  -15.6236   26.6294 C   0  0  1  0  0  0  0  0  0  0  0  0
    8.0967  -15.1267   27.4610 C   0  0  0  0  0  0  0  0  0  0  0  0
    7.5837  -13.8098   27.0550 C   0  0  0  0  0  0  0  0  0  0  0  0
    8.3473  -12.9071   26.3473 C   0  0  0  0  0  0  0  0  0  0  0  0
    7.8118  -11.6809   25.9936 C   0  0  0  0  0  0  0  0  0  0  0  0
    6.5241  -11.3074   26.3203 C   0  0  0  0  0  0  0  0  0  0  0  0
    5.7653  -12.2152   27.0285 C   0  0  0  0  0  0  0  0  0  0  0  0
    6.3001  -13.4552   27.3889 C   0  0  0  0  0  0  0  0  0  0  0  0
    9.8097  -16.8427   27.2273 C   0  0  0  0  0  0  0  0  0  0  0  0
   10.2856  -16.8350   28.3803 O   0  0  0  0  0  0  0  0  0  0  0  0
    9.8369  -18.0321   26.4961 O   0  0  0  0  0  0  0  0  0  0  0  0
  2  1  1  6
  2  8  1  0
  3  2  1  0
  4  3  1  0
  4  5  1  0
  6  5  1  0
  6  7  1  0
  8  9  2  0
 10 11  1  0
 10  8  1  0
 11 17  1  0
 11 12  1  6
 13 12  1  0
 14 13  1  0
 15 14  1  0
 16 15  1  0
 17 18  2  0
 17 19  1  0
 19 20  1  0
 20 28  1  0
 20 21  1  1
 22 21  1  0
 23 22  2  0
 24 23  1  0
 25 26  1  0
 25 24  2  0
 26 27  2  0
 27 22  1  0
 28 29  2  0
 28 30  1  0
M  END
$$$$
