KKF.pdb
     RDKit          3D

 30 30  0  0  1  0  0  0  0  0999 V2000
    8.9531  -16.1308   19.9522 N   0  0  0  0  0  0  0  0  0  0  0  0
    8.4032  -14.9370   20.5698 C   0  0  1  0  0  0  0  0  0  0  0  0
    7.6310  -14.1751   19.5508 C   0  0  0  0  0  0  0  0  0  0  0  0
    7.8321  -14.7122   18.1586 C   0  0  0  0  0  0  0  0  0  0  0  0
    7.9134  -13.5685   17.1995 C   0  0  0  0  0  0  0  0  0  0  0  0
    7.9992  -14.0340   15.7569 C   0  0  0  0  0  0  0  0  0  0  0  0
    8.1186  -12.8994   14.8651 N   0  0  0  0  0  0  0  0  0  0  0  0
    7.5357  -15.3439   21.7315 C   0  0  0  0  0  0  0  0  0  0  0  0
    6.9312  -14.4685   22.4012 O   0  0  0  0  0  0  0  0  0  0  0  0
    7.4218  -16.7184   22.0432 N   0  0  0  0  0  0  0  0  0  0  0  0
    6.6060  -17.2071   23.1826 C   0  0  1  0  0  0  0  0  0  0  0  0
    6.6854  -18.6927   23.1982 C   0  0  0  0  0  0  0  0  0  0  0  0
    5.8120  -19.4529   22.2813 C   0  0  0  0  0  0  0  0  0  0  0  0
    5.1118  -20.6306   22.9207 C   0  0  0  0  0  0  0  0  0  0  0  0
    4.2571  -21.3625   21.9003 C   0  0  0  0  0  0  0  0  0  0  0  0
    3.5619  -22.4217   22.6352 N   0  0  0  0  0  0  0  0  0  0  0  0
    7.0876  -16.5329   24.4153 C   0  0  0  0  0  0  0  0  0  0  0  0
    6.7248  -15.3189   24.6390 O   0  0  0  0  0  0  0  0  0  0  0  0
    7.9201  -17.0980   25.3931 N   0  0  0  0  0  0  0  0  0  0  0  0
    8.5212  -16.3053   26.4720 C   0  0  1  0  0  0  0  0  0  0  0  0
    7.5330  -15.5541   27.2881 C   0  0  0  0  0  0  0  0  0  0  0  0
    7.3409  -14.1583   26.8669 C   0  0  0  0  0  0  0  0  0  0  0  0
    6.1006  -13.5583   26.8462 C   0  0  0  0  0  0  0  0  0  0  0  0
    5.9800  -12.2413   26.4385 C   0  0  0  0  0  0  0  0  0  0  0  0
    7.0616  -11.4811   26.0428 C   0  0  0  0  0  0  0  0  0  0  0  0
    8.2999  -12.0875   26.0658 C   0  0  0  0  0  0  0  0  0  0  0  0
    8.4286  -13.4172   26.4765 C   0  0  0  0  0  0  0  0  0  0  0  0
    9.3121  -17.2174   27.3266 C   0  0  0  0  0  0  0  0  0  0  0  0
    9.8785  -16.8093   28.3602 O   0  0  0  0  0  0  0  0  0  0  0  0
    9.4342  -18.5645   26.9796 O   0  0  0  0  0  0  0  0  0  0  0  0
  2  1  1  6
  2  8  1  0
  3  2  1  0
  4  3  1  0
  4  5  1  0
  6  5  1  0
  6  7  1  0
  8  9  2  0
 10 11  1  0
 10  8  1  0
 11 17  1  0
 11 12  1  1
 13 12  1  0
 14 13  1  0
 15 14  1  0
 16 15  1  0
 17 18  2  0
 17 19  1  0
 19 20  1  0
 20 28  1  0
 20 21  1  1
 22 21  1  0
 23 22  2  0
 24 23  1  0
 25 26  1  0
 25 24  2  0
 26 27  2  0
 27 22  1  0
 28 29  2  0
 28 30  1  0
M  END
$$$$
