KKF.pdb
     RDKit          3D

 30 30  0  0  1  0  0  0  0  0999 V2000
    8.0388  -16.1504   20.4520 N   0  0  0  0  0  0  0  0  0  0  0  0
    7.6850  -15.0066   21.2738 C   0  0  1  0  0  0  0  0  0  0  0  0
    6.5557  -14.2792   20.6329 C   0  0  0  0  0  0  0  0  0  0  0  0
    6.6279  -14.3176   19.1295 C   0  0  0  0  0  0  0  0  0  0  0  0
    7.8049  -13.5159   18.6752 C   0  0  0  0  0  0  0  0  0  0  0  0
    7.9114  -13.4594   17.1617 C   0  0  0  0  0  0  0  0  0  0  0  0
    9.0900  -12.7178   16.7644 N   0  0  0  0  0  0  0  0  0  0  0  0
    7.3206  -15.4902   22.6526 C   0  0  0  0  0  0  0  0  0  0  0  0
    6.6715  -14.7445   23.4289 O   0  0  0  0  0  0  0  0  0  0  0  0
    7.7234  -16.7880   23.0438 N   0  0  0  0  0  0  0  0  0  0  0  0
    7.4720  -17.3180   24.4070 C   0  0  1  0  0  0  0  0  0  0  0  0
    7.5217  -18.8033   24.3367 C   0  0  0  0  0  0  0  0  0  0  0  0
    7.4949  -19.5680   25.6001 C   0  0  0  0  0  0  0  0  0  0  0  0
    7.6673  -21.0604   25.4292 C   0  0  0  0  0  0  0  0  0  0  0  0
    7.6262  -21.7609   26.7764 C   0  0  0  0  0  0  0  0  0  0  0  0
    7.9642  -23.1624   26.5179 N   0  0  0  0  0  0  0  0  0  0  0  0
    8.4526  -16.6932   25.3311 C   0  0  0  0  0  0  0  0  0  0  0  0
    9.6786  -16.5894   24.9549 O   0  0  0  0  0  0  0  0  0  0  0  0
    8.1744  -16.1863   26.6095 N   0  0  0  0  0  0  0  0  0  0  0  0
    9.2133  -15.6187   27.4767 C   0  0  1  0  0  0  0  0  0  0  0  0
    8.8681  -14.2860   28.0349 C   0  0  0  0  0  0  0  0  0  0  0  0
    8.3766  -13.3242   27.0370 C   0  0  0  0  0  0  0  0  0  0  0  0
    7.0367  -13.0418   26.8824 C   0  0  0  0  0  0  0  0  0  0  0  0
    6.6320  -12.1283   25.9247 C   0  0  0  0  0  0  0  0  0  0  0  0
    7.5206  -11.4711   25.0983 C   0  0  0  0  0  0  0  0  0  0  0  0
    8.8598  -11.7582   25.2582 C   0  0  0  0  0  0  0  0  0  0  0  0
    9.2753  -12.6798   26.2234 C   0  0  0  0  0  0  0  0  0  0  0  0
    9.4799  -16.5831   28.5661 C   0  0  0  0  0  0  0  0  0  0  0  0
    8.7749  -17.6007   28.7183 O   0  0  0  0  0  0  0  0  0  0  0  0
   10.5394  -16.3605   29.4482 O   0  0  0  0  0  0  0  0  0  0  0  0
  2  1  1  6
  2  8  1  0
  3  2  1  0
  4  3  1  0
  4  5  1  0
  6  5  1  0
  6  7  1  0
  8  9  2  0
 10 11  1  0
 10  8  1  0
 11 17  1  0
 11 12  1  6
 13 12  1  0
 14 13  1  0
 15 14  1  0
 16 15  1  0
 17 18  2  0
 17 19  1  0
 19 20  1  0
 20 28  1  0
 20 21  1  1
 22 21  1  0
 23 22  2  0
 24 23  1  0
 25 26  1  0
 25 24  2  0
 26 27  2  0
 27 22  1  0
 28 29  2  0
 28 30  1  0
M  END
$$$$
