KKF.pdb
     RDKit          3D

 30 30  0  0  1  0  0  0  0  0999 V2000
    6.5673  -17.0381   20.4698 N   0  0  0  0  0  0  0  0  0  0  0  0
    7.7851  -16.5415   21.0856 C   0  0  1  0  0  0  0  0  0  0  0  0
    7.7905  -15.0546   21.0204 C   0  0  0  0  0  0  0  0  0  0  0  0
    7.9477  -14.5423   19.6134 C   0  0  0  0  0  0  0  0  0  0  0  0
    8.3280  -13.0974   19.6580 C   0  0  0  0  0  0  0  0  0  0  0  0
    8.4884  -12.5028   18.2703 C   0  0  0  0  0  0  0  0  0  0  0  0
    8.7884  -11.0887   18.3568 N   0  0  0  0  0  0  0  0  0  0  0  0
    7.8490  -17.0336   22.5073 C   0  0  0  0  0  0  0  0  0  0  0  0
    6.7929  -17.1538   23.1786 O   0  0  0  0  0  0  0  0  0  0  0  0
    9.1118  -17.3519   23.0580 N   0  0  0  0  0  0  0  0  0  0  0  0
    9.2667  -17.8543   24.4459 C   0  0  1  0  0  0  0  0  0  0  0  0
   10.0910  -19.0918   24.3952 C   0  0  0  0  0  0  0  0  0  0  0  0
    9.5188  -20.2916   23.7514 C   0  0  0  0  0  0  0  0  0  0  0  0
   10.4605  -21.4727   23.6854 C   0  0  0  0  0  0  0  0  0  0  0  0
    9.7940  -22.6497   22.9941 C   0  0  0  0  0  0  0  0  0  0  0  0
   10.7924  -23.7208   22.9591 N   0  0  0  0  0  0  0  0  0  0  0  0
    9.8240  -16.7540   25.2734 C   0  0  0  0  0  0  0  0  0  0  0  0
   10.8247  -16.0842   24.8201 O   0  0  0  0  0  0  0  0  0  0  0  0
    9.3588  -16.3537   26.5351 N   0  0  0  0  0  0  0  0  0  0  0  0
   10.0068  -15.2928   27.3151 C   0  0  1  0  0  0  0  0  0  0  0  0
    9.0536  -14.3991   28.0219 C   0  0  0  0  0  0  0  0  0  0  0  0
    8.0885  -13.7284   27.1381 C   0  0  0  0  0  0  0  0  0  0  0  0
    8.4809  -12.9924   26.0412 C   0  0  0  0  0  0  0  0  0  0  0  0
    7.5275  -12.3814   25.2456 C   0  0  0  0  0  0  0  0  0  0  0  0
    6.1742  -12.4732   25.4997 C   0  0  0  0  0  0  0  0  0  0  0  0
    5.7882  -13.2111   26.5987 C   0  0  0  0  0  0  0  0  0  0  0  0
    6.7460  -13.8307   27.4064 C   0  0  0  0  0  0  0  0  0  0  0  0
   10.9309  -15.9299   28.2784 C   0  0  0  0  0  0  0  0  0  0  0  0
   11.6311  -15.2479   29.0533 O   0  0  0  0  0  0  0  0  0  0  0  0
   11.0301  -17.3218   28.3307 O   0  0  0  0  0  0  0  0  0  0  0  0
  2  1  1  1
  2  8  1  0
  3  2  1  0
  4  3  1  0
  4  5  1  0
  6  5  1  0
  6  7  1  0
  8  9  2  0
 10 11  1  0
 10  8  1  0
 11 17  1  0
 11 12  1  6
 13 12  1  0
 14 13  1  0
 15 14  1  0
 16 15  1  0
 17 18  2  0
 17 19  1  0
 19 20  1  0
 20 28  1  0
 20 21  1  1
 22 21  1  0
 23 22  2  0
 24 23  1  0
 25 26  1  0
 25 24  2  0
 26 27  2  0
 27 22  1  0
 28 29  2  0
 28 30  1  0
M  END
$$$$
