FFY.pdb
     RDKit          3D

 35 37  0  0  1  0  0  0  0  0999 V2000
    6.9520  -18.6349   20.2627 N   0  0  0  0  0  0  0  0  0  0  0  0
    6.8853  -18.5681   21.7070 C   0  0  1  0  0  0  0  0  0  0  0  0
    7.7870  -19.6496   22.2598 C   0  0  0  0  0  0  0  0  0  0  0  0
    7.1316  -20.9573   22.0039 C   0  0  0  0  0  0  0  0  0  0  0  0
    7.6182  -21.7990   21.0269 C   0  0  0  0  0  0  0  0  0  0  0  0
    6.9968  -23.0191   20.7967 C   0  0  0  0  0  0  0  0  0  0  0  0
    5.8877  -23.3850   21.5526 C   0  0  0  0  0  0  0  0  0  0  0  0
    5.3928  -22.5529   22.5309 C   0  0  0  0  0  0  0  0  0  0  0  0
    6.0198  -21.3512   22.7443 C   0  0  0  0  0  0  0  0  0  0  0  0
    7.3571  -17.2522   22.1978 C   0  0  0  0  0  0  0  0  0  0  0  0
    8.2266  -16.6118   21.5895 O   0  0  0  0  0  0  0  0  0  0  0  0
    6.7942  -16.7167   23.3969 N   0  0  0  0  0  0  0  0  0  0  0  0
    7.3294  -15.4889   24.0086 C   0  0  1  0  0  0  0  0  0  0  0  0
    6.2748  -14.8163   24.8347 C   0  0  0  0  0  0  0  0  0  0  0  0
    6.7609  -13.6291   25.5325 C   0  0  0  0  0  0  0  0  0  0  0  0
    7.1400  -12.5268   24.7624 C   0  0  0  0  0  0  0  0  0  0  0  0
    7.5893  -11.3810   25.3772 C   0  0  0  0  0  0  0  0  0  0  0  0
    7.6703  -11.3072   26.7512 C   0  0  0  0  0  0  0  0  0  0  0  0
    7.2963  -12.3934   27.5037 C   0  0  0  0  0  0  0  0  0  0  0  0
    6.8465  -13.5399   26.8863 C   0  0  0  0  0  0  0  0  0  0  0  0
    8.4600  -15.8810   24.8677 C   0  0  0  0  0  0  0  0  0  0  0  0
    8.3090  -16.3842   26.0107 O   0  0  0  0  0  0  0  0  0  0  0  0
    8.1643  -19.9823   29.6319 O   0  0  0  0  0  0  0  0  0  0  0  0
    8.7274  -19.4819   28.4663 C   0  0  0  0  0  0  0  0  0  0  0  0
    9.8302  -18.6599   28.5663 C   0  0  0  0  0  0  0  0  0  0  0  0
   10.4006  -18.1557   27.4248 C   0  0  0  0  0  0  0  0  0  0  0  0
    9.8953  -18.4521   26.1676 C   0  0  0  0  0  0  0  0  0  0  0  0
   10.4941  -17.9150   24.9474 C   0  0  0  0  0  0  0  0  0  0  0  0
   10.8521  -16.4472   25.0426 C   0  0  2  0  0  0  0  0  0  0  0  0
    9.7861  -15.6935   24.4104 N   0  0  0  0  0  0  0  0  0  0  0  0
   12.1177  -16.0943   24.3928 C   0  0  0  0  0  0  0  0  0  0  0  0
   12.1966  -16.0306   23.0198 O   0  0  0  0  0  0  0  0  0  0  0  0
    8.7942  -19.2742   26.0909 C   0  0  0  0  0  0  0  0  0  0  0  0
    8.1940  -19.8011   27.2352 C   0  0  0  0  0  0  0  0  0  0  0  0
   13.1385  -15.8473   25.0705 O   0  0  0  0  0  0  0  0  0  0  0  0
  2  1  1  6
  2  3  1  0
  3  4  1  0
  4  9  1  0
  4  5  2  0
  5  6  1  0
  6  7  2  0
  8  7  1  0
  9  8  2  0
 10 12  1  0
 10  2  1  0
 11 10  2  0
 13 12  1  0
 13 21  1  0
 13 14  1  1
 15 20  1  0
 15 14  1  0
 16 15  2  0
 17 18  2  0
 17 16  1  0
 18 19  1  0
 19 20  2  0
 21 22  2  0
 23 24  1  0
 24 25  2  0
 24 34  1  0
 25 26  1  0
 26 27  2  0
 27 28  1  0
 29 31  1  0
 29 28  1  6
 30 21  1  0
 30 29  1  0
 31 32  1  0
 33 27  1  0
 34 33  2  0
 35 31  2  0
M  END
$$$$
