FFY.pdb
     RDKit          3D

 35 37  0  0  1  0  0  0  0  0999 V2000
    8.3458  -17.5253   21.3676 N   0  0  0  0  0  0  0  0  0  0  0  0
    9.6038  -16.8681   21.6513 C   0  0  1  0  0  0  0  0  0  0  0  0
    9.9190  -15.9557   20.4866 C   0  0  0  0  0  0  0  0  0  0  0  0
    8.7810  -15.0146   20.3303 C   0  0  0  0  0  0  0  0  0  0  0  0
    8.9908  -13.6539   20.3949 C   0  0  0  0  0  0  0  0  0  0  0  0
    7.9189  -12.7838   20.2475 C   0  0  0  0  0  0  0  0  0  0  0  0
    6.6404  -13.2896   20.0358 C   0  0  0  0  0  0  0  0  0  0  0  0
    6.4186  -14.6463   19.9694 C   0  0  0  0  0  0  0  0  0  0  0  0
    7.4898  -15.4909   20.1173 C   0  0  0  0  0  0  0  0  0  0  0  0
    9.5089  -16.0551   22.8862 C   0  0  0  0  0  0  0  0  0  0  0  0
   10.4879  -15.4355   23.3264 O   0  0  0  0  0  0  0  0  0  0  0  0
    8.2607  -15.9885   23.5785 N   0  0  0  0  0  0  0  0  0  0  0  0
    8.1384  -15.2807   24.8639 C   0  0  1  0  0  0  0  0  0  0  0  0
    6.8275  -14.5574   24.9374 C   0  0  0  0  0  0  0  0  0  0  0  0
    6.8939  -13.3239   25.7162 C   0  0  0  0  0  0  0  0  0  0  0  0
    8.0968  -13.0192   26.3580 C   0  0  0  0  0  0  0  0  0  0  0  0
    8.2106  -11.8599   27.0901 C   0  0  0  0  0  0  0  0  0  0  0  0
    7.1462  -10.9909   27.1985 C   0  0  0  0  0  0  0  0  0  0  0  0
    5.9660  -11.2950   26.5656 C   0  0  0  0  0  0  0  0  0  0  0  0
    5.8539  -12.4562   25.8328 C   0  0  0  0  0  0  0  0  0  0  0  0
    8.2097  -16.2919   25.9327 C   0  0  0  0  0  0  0  0  0  0  0  0
    8.1852  -15.9984   27.1556 O   0  0  0  0  0  0  0  0  0  0  0  0
    7.4058  -24.2575   29.5849 O   0  0  0  0  0  0  0  0  0  0  0  0
    7.4136  -23.1510   28.7471 C   0  0  0  0  0  0  0  0  0  0  0  0
    6.2219  -22.7367   28.1901 C   0  0  0  0  0  0  0  0  0  0  0  0
    6.2100  -21.6448   27.3594 C   0  0  0  0  0  0  0  0  0  0  0  0
    7.3695  -20.9437   27.0637 C   0  0  0  0  0  0  0  0  0  0  0  0
    7.3658  -19.7827   26.1758 C   0  0  0  0  0  0  0  0  0  0  0  0
    8.2421  -18.6467   26.6589 C   0  0  2  0  0  0  0  0  0  0  0  0
    8.3108  -17.6626   25.5954 N   0  0  0  0  0  0  0  0  0  0  0  0
    9.6079  -19.0483   27.0079 C   0  0  0  0  0  0  0  0  0  0  0  0
   10.5850  -19.0934   26.0391 O   0  0  0  0  0  0  0  0  0  0  0  0
    8.5476  -21.3743   27.6301 C   0  0  0  0  0  0  0  0  0  0  0  0
    8.5890  -22.4816   28.4785 C   0  0  0  0  0  0  0  0  0  0  0  0
    9.9050  -19.3541   28.1829 O   0  0  0  0  0  0  0  0  0  0  0  0
  2  1  1  6
  2  3  1  0
  3  4  1  0
  4  9  1  0
  4  5  2  0
  5  6  1  0
  6  7  2  0
  8  7  1  0
  9  8  2  0
 10 12  1  0
 10  2  1  0
 11 10  2  0
 13 12  1  0
 13 21  1  0
 13 14  1  6
 15 20  1  0
 15 14  1  0
 16 15  2  0
 17 18  2  0
 17 16  1  0
 18 19  1  0
 19 20  2  0
 21 22  2  0
 23 24  1  0
 24 25  2  0
 24 34  1  0
 25 26  1  0
 26 27  2  0
 27 28  1  0
 29 31  1  0
 29 28  1  6
 30 21  1  0
 30 29  1  0
 31 32  1  0
 33 27  1  0
 34 33  2  0
 35 31  2  0
M  END
$$$$
