FFY.pdb
     RDKit          3D

 35 37  0  0  1  0  0  0  0  0999 V2000
   10.4060  -17.3475   20.0349 N   0  0  0  0  0  0  0  0  0  0  0  0
    9.9511  -16.3182   20.9452 C   0  0  1  0  0  0  0  0  0  0  0  0
    8.4385  -16.3424   20.9483 C   0  0  0  0  0  0  0  0  0  0  0  0
    7.9653  -15.0015   20.5204 C   0  0  0  0  0  0  0  0  0  0  0  0
    8.8711  -13.9973   20.2543 C   0  0  0  0  0  0  0  0  0  0  0  0
    8.4167  -12.7476   19.8552 C   0  0  0  0  0  0  0  0  0  0  0  0
    7.0510  -12.5160   19.7262 C   0  0  0  0  0  0  0  0  0  0  0  0
    6.1370  -13.5108   19.9891 C   0  0  0  0  0  0  0  0  0  0  0  0
    6.6045  -14.7395   20.3824 C   0  0  0  0  0  0  0  0  0  0  0  0
   10.4383  -16.5755   22.3204 C   0  0  0  0  0  0  0  0  0  0  0  0
   11.5984  -16.9573   22.5320 O   0  0  0  0  0  0  0  0  0  0  0  0
    9.5478  -16.3776   23.4201 N   0  0  0  0  0  0  0  0  0  0  0  0
   10.0318  -15.8557   24.7091 C   0  0  1  0  0  0  0  0  0  0  0  0
    8.8765  -15.5507   25.6143 C   0  0  0  0  0  0  0  0  0  0  0  0
    9.2884  -15.1227   26.9484 C   0  0  0  0  0  0  0  0  0  0  0  0
    9.3876  -13.7511   27.1941 C   0  0  0  0  0  0  0  0  0  0  0  0
    9.7569  -13.3012   28.4407 C   0  0  0  0  0  0  0  0  0  0  0  0
   10.0316  -14.1924   29.4555 C   0  0  0  0  0  0  0  0  0  0  0  0
    9.9324  -15.5398   29.2090 C   0  0  0  0  0  0  0  0  0  0  0  0
    9.5623  -15.9884   27.9601 C   0  0  0  0  0  0  0  0  0  0  0  0
   10.8788  -16.8966   25.3163 C   0  0  0  0  0  0  0  0  0  0  0  0
   11.6295  -16.6795   26.3021 O   0  0  0  0  0  0  0  0  0  0  0  0
    6.0659  -19.8690   28.8909 O   0  0  0  0  0  0  0  0  0  0  0  0
    7.1794  -20.0158   28.0757 C   0  0  0  0  0  0  0  0  0  0  0  0
    7.0138  -19.9245   26.7096 C   0  0  0  0  0  0  0  0  0  0  0  0
    8.1032  -20.0670   25.8878 C   0  0  0  0  0  0  0  0  0  0  0  0
    9.3719  -20.3014   26.3965 C   0  0  0  0  0  0  0  0  0  0  0  0
   10.5363  -20.4593   25.5275 C   0  0  0  0  0  0  0  0  0  0  0  0
   11.4789  -19.2750   25.5549 C   0  0  2  0  0  0  0  0  0  0  0  0
   10.8663  -18.2086   24.7858 N   0  0  0  0  0  0  0  0  0  0  0  0
   12.8046  -19.5494   24.9930 C   0  0  0  0  0  0  0  0  0  0  0  0
   13.2639  -18.8238   23.9169 O   0  0  0  0  0  0  0  0  0  0  0  0
    9.5146  -20.3890   27.7626 C   0  0  0  0  0  0  0  0  0  0  0  0
    8.4242  -20.2481   28.6221 C   0  0  0  0  0  0  0  0  0  0  0  0
   13.5341  -20.4406   25.4786 O   0  0  0  0  0  0  0  0  0  0  0  0
  2  1  1  6
  2  3  1  0
  3  4  1  0
  4  9  1  0
  4  5  2  0
  5  6  1  0
  6  7  2  0
  8  7  1  0
  9  8  2  0
 10 12  1  0
 10  2  1  0
 11 10  2  0
 13 12  1  0
 13 21  1  0
 13 14  1  1
 15 20  1  0
 15 14  1  0
 16 15  2  0
 17 18  2  0
 17 16  1  0
 18 19  1  0
 19 20  2  0
 21 22  2  0
 23 24  1  0
 24 25  2  0
 24 34  1  0
 25 26  1  0
 26 27  2  0
 27 28  1  0
 29 31  1  0
 29 28  1  6
 30 21  1  0
 30 29  1  0
 31 32  1  0
 33 27  1  0
 34 33  2  0
 35 31  2  0
M  END
$$$$
