FFY.pdb
     RDKit          3D

 35 37  0  0  1  0  0  0  0  0999 V2000
    6.2235  -20.2202   22.6068 N   0  0  0  0  0  0  0  0  0  0  0  0
    6.5719  -19.6147   23.8744 C   0  0  1  0  0  0  0  0  0  0  0  0
    7.7541  -20.3726   24.4369 C   0  0  0  0  0  0  0  0  0  0  0  0
    7.2938  -21.7452   24.7672 C   0  0  0  0  0  0  0  0  0  0  0  0
    6.4184  -21.9520   25.8116 C   0  0  0  0  0  0  0  0  0  0  0  0
    5.9953  -23.2400   26.1111 C   0  0  0  0  0  0  0  0  0  0  0  0
    6.4567  -24.3136   25.3562 C   0  0  0  0  0  0  0  0  0  0  0  0
    7.3308  -24.1196   24.3111 C   0  0  0  0  0  0  0  0  0  0  0  0
    7.7381  -22.8398   24.0298 C   0  0  0  0  0  0  0  0  0  0  0  0
    6.9533  -18.1944   23.6949 C   0  0  0  0  0  0  0  0  0  0  0  0
    7.6309  -17.8271   22.7242 O   0  0  0  0  0  0  0  0  0  0  0  0
    6.5281  -17.2343   24.6639 N   0  0  0  0  0  0  0  0  0  0  0  0
    6.9532  -15.8270   24.5806 C   0  0  1  0  0  0  0  0  0  0  0  0
    6.1157  -14.9755   25.4863 C   0  0  0  0  0  0  0  0  0  0  0  0
    6.5322  -13.5760   25.5079 C   0  0  0  0  0  0  0  0  0  0  0  0
    6.6065  -12.9342   26.7466 C   0  0  0  0  0  0  0  0  0  0  0  0
    7.0091  -11.6206   26.8170 C   0  0  0  0  0  0  0  0  0  0  0  0
    7.3420  -10.9263   25.6737 C   0  0  0  0  0  0  0  0  0  0  0  0
    7.2675  -11.5617   24.4585 C   0  0  0  0  0  0  0  0  0  0  0  0
    6.8642  -12.8772   24.3900 C   0  0  0  0  0  0  0  0  0  0  0  0
    8.3631  -15.7664   25.0033 C   0  0  0  0  0  0  0  0  0  0  0  0
    8.7181  -15.8008   26.2095 O   0  0  0  0  0  0  0  0  0  0  0  0
   10.4107  -16.1725   30.8143 O   0  0  0  0  0  0  0  0  0  0  0  0
   10.5735  -16.3142   29.4433 C   0  0  0  0  0  0  0  0  0  0  0  0
   10.6376  -17.5863   28.9144 C   0  0  0  0  0  0  0  0  0  0  0  0
   10.7983  -17.7461   27.5612 C   0  0  0  0  0  0  0  0  0  0  0  0
   10.8983  -16.6576   26.7075 C   0  0  0  0  0  0  0  0  0  0  0  0
   11.0747  -16.8197   25.2657 C   0  0  0  0  0  0  0  0  0  0  0  0
   10.7615  -15.5692   24.4719 C   0  0  2  0  0  0  0  0  0  0  0  0
    9.3837  -15.6646   24.0282 N   0  0  0  0  0  0  0  0  0  0  0  0
   11.6147  -15.3749   23.2960 C   0  0  0  0  0  0  0  0  0  0  0  0
   12.9572  -15.1119   23.4508 O   0  0  0  0  0  0  0  0  0  0  0  0
   10.8320  -15.3973   27.2563 C   0  0  0  0  0  0  0  0  0  0  0  0
   10.6689  -15.2053   28.6289 C   0  0  0  0  0  0  0  0  0  0  0  0
   11.1401  -15.4444   22.1418 O   0  0  0  0  0  0  0  0  0  0  0  0
  2  1  1  6
  2  3  1  0
  3  4  1  0
  4  9  1  0
  4  5  2  0
  5  6  1  0
  6  7  2  0
  8  7  1  0
  9  8  2  0
 10 12  1  0
 10  2  1  0
 11 10  2  0
 13 12  1  0
 13 21  1  0
 13 14  1  1
 15 20  1  0
 15 14  1  0
 16 15  2  0
 17 18  2  0
 17 16  1  0
 18 19  1  0
 19 20  2  0
 21 22  2  0
 23 24  1  0
 24 25  2  0
 24 34  1  0
 25 26  1  0
 26 27  2  0
 27 28  1  0
 29 31  1  0
 29 28  1  6
 30 21  1  0
 30 29  1  0
 31 32  1  0
 33 27  1  0
 34 33  2  0
 35 31  2  0
M  END
$$$$
