FFY.pdb
     RDKit          3D

 35 37  0  0  1  0  0  0  0  0999 V2000
   10.2908  -17.0403   18.4693 N   0  0  0  0  0  0  0  0  0  0  0  0
    9.2420  -17.2273   19.4490 C   0  0  1  0  0  0  0  0  0  0  0  0
    9.3844  -18.6230   20.0148 C   0  0  0  0  0  0  0  0  0  0  0  0
    8.6012  -19.5419   19.1504 C   0  0  0  0  0  0  0  0  0  0  0  0
    7.2388  -19.6635   19.3206 C   0  0  0  0  0  0  0  0  0  0  0  0
    6.5171  -20.5261   18.5064 C   0  0  0  0  0  0  0  0  0  0  0  0
    7.1723  -21.2621   17.5244 C   0  0  0  0  0  0  0  0  0  0  0  0
    8.5321  -21.1491   17.3451 C   0  0  0  0  0  0  0  0  0  0  0  0
    9.2289  -20.2918   18.1589 C   0  0  0  0  0  0  0  0  0  0  0  0
    9.3682  -16.2466   20.5524 C   0  0  0  0  0  0  0  0  0  0  0  0
   10.4768  -15.8411   20.9302 O   0  0  0  0  0  0  0  0  0  0  0  0
    8.1841  -15.7630   21.1892 N   0  0  0  0  0  0  0  0  0  0  0  0
    8.2568  -14.8495   22.3418 C   0  0  1  0  0  0  0  0  0  0  0  0
    6.8787  -14.4978   22.8153 C   0  0  0  0  0  0  0  0  0  0  0  0
    6.8765  -13.7109   24.0455 C   0  0  0  0  0  0  0  0  0  0  0  0
    6.1836  -14.2200   25.1466 C   0  0  0  0  0  0  0  0  0  0  0  0
    6.1671  -13.5208   26.3313 C   0  0  0  0  0  0  0  0  0  0  0  0
    6.8296  -12.3175   26.4455 C   0  0  0  0  0  0  0  0  0  0  0  0
    7.5094  -11.8215   25.3601 C   0  0  0  0  0  0  0  0  0  0  0  0
    7.5249  -12.5231   24.1747 C   0  0  0  0  0  0  0  0  0  0  0  0
    8.9880  -15.5483   23.4128 C   0  0  0  0  0  0  0  0  0  0  0  0
   10.2433  -15.5547   23.4932 O   0  0  0  0  0  0  0  0  0  0  0  0
   12.0286  -16.3820   31.2057 O   0  0  0  0  0  0  0  0  0  0  0  0
   11.4511  -16.1434   29.9665 C   0  0  0  0  0  0  0  0  0  0  0  0
   11.3782  -17.1815   29.0616 C   0  0  0  0  0  0  0  0  0  0  0  0
   10.8106  -16.9645   27.8314 C   0  0  0  0  0  0  0  0  0  0  0  0
   10.3061  -15.7234   27.4723 C   0  0  0  0  0  0  0  0  0  0  0  0
    9.7047  -15.4831   26.1622 C   0  0  0  0  0  0  0  0  0  0  0  0
    8.9757  -16.6847   25.5996 C   0  0  2  0  0  0  0  0  0  0  0  0
    8.2696  -16.2517   24.4088 N   0  0  0  0  0  0  0  0  0  0  0  0
    8.0063  -17.2845   26.5210 C   0  0  0  0  0  0  0  0  0  0  0  0
    8.3752  -18.3417   27.3220 O   0  0  0  0  0  0  0  0  0  0  0  0
   10.3894  -14.7016   28.3904 C   0  0  0  0  0  0  0  0  0  0  0  0
   10.9613  -14.8939   29.6487 C   0  0  0  0  0  0  0  0  0  0  0  0
    6.8371  -16.8485   26.5935 O   0  0  0  0  0  0  0  0  0  0  0  0
  2  1  1  6
  2  3  1  0
  3  4  1  0
  4  9  1  0
  4  5  2  0
  5  6  1  0
  6  7  2  0
  8  7  1  0
  9  8  2  0
 10 12  1  0
 10  2  1  0
 11 10  2  0
 13 12  1  0
 13 21  1  0
 13 14  1  1
 15 20  1  0
 15 14  1  0
 16 15  2  0
 17 18  2  0
 17 16  1  0
 18 19  1  0
 19 20  2  0
 21 22  2  0
 23 24  1  0
 24 25  2  0
 24 34  1  0
 25 26  1  0
 26 27  2  0
 27 28  1  0
 29 31  1  0
 29 28  1  1
 30 21  1  0
 30 29  1  0
 31 32  1  0
 33 27  1  0
 34 33  2  0
 35 31  2  0
M  END
$$$$
