FFY.pdb
     RDKit          3D

 35 37  0  0  1  0  0  0  0  0999 V2000
    9.9525  -15.3409   18.9639 N   0  0  0  0  0  0  0  0  0  0  0  0
    9.6563  -16.2554   20.0460 C   0  0  1  0  0  0  0  0  0  0  0  0
   10.6960  -17.3538   20.0176 C   0  0  0  0  0  0  0  0  0  0  0  0
   10.2786  -18.3948   20.9908 C   0  0  0  0  0  0  0  0  0  0  0  0
   10.6423  -18.2926   22.3163 C   0  0  0  0  0  0  0  0  0  0  0  0
   10.2463  -19.2723   23.2169 C   0  0  0  0  0  0  0  0  0  0  0  0
    9.4854  -20.3506   22.7769 C   0  0  0  0  0  0  0  0  0  0  0  0
    9.1162  -20.4635   21.4559 C   0  0  0  0  0  0  0  0  0  0  0  0
    9.5166  -19.4859   20.5803 C   0  0  0  0  0  0  0  0  0  0  0  0
    9.7229  -15.5648   21.3550 C   0  0  0  0  0  0  0  0  0  0  0  0
   10.7242  -14.9162   21.6911 O   0  0  0  0  0  0  0  0  0  0  0  0
    8.6069  -15.6525   22.2430 N   0  0  0  0  0  0  0  0  0  0  0  0
    8.6077  -14.9556   23.5401 C   0  0  1  0  0  0  0  0  0  0  0  0
    7.2689  -14.3324   23.7973 C   0  0  0  0  0  0  0  0  0  0  0  0
    7.2019  -13.6173   25.0688 C   0  0  0  0  0  0  0  0  0  0  0  0
    6.3402  -14.1098   26.0520 C   0  0  0  0  0  0  0  0  0  0  0  0
    6.2559  -13.4778   27.2710 C   0  0  0  0  0  0  0  0  0  0  0  0
    7.0154  -12.3584   27.5354 C   0  0  0  0  0  0  0  0  0  0  0  0
    7.8611  -11.8783   26.5656 C   0  0  0  0  0  0  0  0  0  0  0  0
    7.9444  -12.5127   25.3455 C   0  0  0  0  0  0  0  0  0  0  0  0
    8.8980  -15.9585   24.5793 C   0  0  0  0  0  0  0  0  0  0  0  0
    8.3559  -17.0933   24.6060 O   0  0  0  0  0  0  0  0  0  0  0  0
   15.9986  -16.3005   24.0656 O   0  0  0  0  0  0  0  0  0  0  0  0
   14.7422  -16.6758   24.5203 C   0  0  0  0  0  0  0  0  0  0  0  0
   13.6514  -16.4486   23.7076 C   0  0  0  0  0  0  0  0  0  0  0  0
   12.4013  -16.8130   24.1402 C   0  0  0  0  0  0  0  0  0  0  0  0
   12.2048  -17.4062   25.3784 C   0  0  0  0  0  0  0  0  0  0  0  0
   10.8759  -17.7924   25.8483 C   0  0  0  0  0  0  0  0  0  0  0  0
   10.1446  -16.6853   26.5772 C   0  0  2  0  0  0  0  0  0  0  0  0
    9.8247  -15.6568   25.6055 N   0  0  0  0  0  0  0  0  0  0  0  0
   10.9128  -16.0726   27.6647 C   0  0  0  0  0  0  0  0  0  0  0  0
   11.3946  -16.8489   28.6946 O   0  0  0  0  0  0  0  0  0  0  0  0
   13.3070  -17.6235   26.1733 C   0  0  0  0  0  0  0  0  0  0  0  0
   14.5899  -17.2632   25.7588 C   0  0  0  0  0  0  0  0  0  0  0  0
   11.1410  -14.8437   27.6743 O   0  0  0  0  0  0  0  0  0  0  0  0
  2  1  1  6
  2  3  1  0
  3  4  1  0
  4  9  1  0
  4  5  2  0
  5  6  1  0
  6  7  2  0
  8  7  1  0
  9  8  2  0
 10 12  1  0
 10  2  1  0
 11 10  2  0
 13 12  1  0
 13 21  1  0
 13 14  1  1
 15 20  1  0
 15 14  1  0
 16 15  2  0
 17 18  2  0
 17 16  1  0
 18 19  1  0
 19 20  2  0
 21 22  2  0
 23 24  1  0
 24 25  2  0
 24 34  1  0
 25 26  1  0
 26 27  2  0
 27 28  1  0
 29 31  1  0
 29 28  1  6
 30 21  1  0
 30 29  1  0
 31 32  1  0
 33 27  1  0
 34 33  2  0
 35 31  2  0
M  END
$$$$
