FFY.pdb
     RDKit          3D

 35 37  0  0  1  0  0  0  0  0999 V2000
    8.5290  -17.6961   20.7471 N   0  0  0  0  0  0  0  0  0  0  0  0
    9.6392  -16.7858   20.5634 C   0  0  1  0  0  0  0  0  0  0  0  0
    9.4004  -16.0220   19.2797 C   0  0  0  0  0  0  0  0  0  0  0  0
    8.4265  -14.9401   19.5735 C   0  0  0  0  0  0  0  0  0  0  0  0
    7.0963  -15.2388   19.7759 C   0  0  0  0  0  0  0  0  0  0  0  0
    6.1951  -14.2187   20.0496 C   0  0  0  0  0  0  0  0  0  0  0  0
    6.6392  -12.9021   20.1180 C   0  0  0  0  0  0  0  0  0  0  0  0
    7.9649  -12.5916   19.9176 C   0  0  0  0  0  0  0  0  0  0  0  0
    8.8410  -13.6127   19.6482 C   0  0  0  0  0  0  0  0  0  0  0  0
    9.7249  -15.8231   21.6863 C   0  0  0  0  0  0  0  0  0  0  0  0
   10.6244  -14.9719   21.7378 O   0  0  0  0  0  0  0  0  0  0  0  0
    8.7479  -15.8828   22.7271 N   0  0  0  0  0  0  0  0  0  0  0  0
    8.7426  -14.9020   23.8254 C   0  0  1  0  0  0  0  0  0  0  0  0
    7.3399  -14.6444   24.2868 C   0  0  0  0  0  0  0  0  0  0  0  0
    7.2649  -13.7086   25.4054 C   0  0  0  0  0  0  0  0  0  0  0  0
    7.4308  -12.3484   25.1329 C   0  0  0  0  0  0  0  0  0  0  0  0
    7.3526  -11.4287   26.1530 C   0  0  0  0  0  0  0  0  0  0  0  0
    7.1113  -11.8354   27.4477 C   0  0  0  0  0  0  0  0  0  0  0  0
    6.9489  -13.1735   27.7103 C   0  0  0  0  0  0  0  0  0  0  0  0
    7.0273  -14.0930   26.6875 C   0  0  0  0  0  0  0  0  0  0  0  0
    9.5332  -15.4724   24.9297 C   0  0  0  0  0  0  0  0  0  0  0  0
    9.7935  -14.8379   25.9842 O   0  0  0  0  0  0  0  0  0  0  0  0
    5.4806  -20.1516   27.9647 O   0  0  0  0  0  0  0  0  0  0  0  0
    6.7312  -19.8257   27.4588 C   0  0  0  0  0  0  0  0  0  0  0  0
    7.7341  -19.4900   28.3440 C   0  0  0  0  0  0  0  0  0  0  0  0
    8.9770  -19.1651   27.8624 C   0  0  0  0  0  0  0  0  0  0  0  0
    9.2529  -19.1653   26.5032 C   0  0  0  0  0  0  0  0  0  0  0  0
   10.5728  -18.8155   25.9822 C   0  0  0  0  0  0  0  0  0  0  0  0
   10.8243  -17.3240   25.9189 C   0  0  2  0  0  0  0  0  0  0  0  0
   10.0344  -16.7917   24.8248 N   0  0  0  0  0  0  0  0  0  0  0  0
   12.2269  -16.9603   25.6979 C   0  0  0  0  0  0  0  0  0  0  0  0
   12.7954  -17.1193   24.4542 O   0  0  0  0  0  0  0  0  0  0  0  0
    8.2377  -19.5032   25.6376 C   0  0  0  0  0  0  0  0  0  0  0  0
    6.9642  -19.8381   26.0996 C   0  0  0  0  0  0  0  0  0  0  0  0
   12.9243  -16.5030   26.6289 O   0  0  0  0  0  0  0  0  0  0  0  0
  2  1  1  1
  2  3  1  0
  3  4  1  0
  4  9  1  0
  4  5  2  0
  5  6  1  0
  6  7  2  0
  8  7  1  0
  9  8  2  0
 10 12  1  0
 10  2  1  0
 11 10  2  0
 13 12  1  0
 13 21  1  0
 13 14  1  1
 15 20  1  0
 15 14  1  0
 16 15  2  0
 17 18  2  0
 17 16  1  0
 18 19  1  0
 19 20  2  0
 21 22  2  0
 23 24  1  0
 24 25  2  0
 24 34  1  0
 25 26  1  0
 26 27  2  0
 27 28  1  0
 29 31  1  0
 29 28  1  6
 30 21  1  0
 30 29  1  0
 31 32  1  0
 33 27  1  0
 34 33  2  0
 35 31  2  0
M  END
$$$$
