FFY.pdb
     RDKit          3D

 35 37  0  0  1  0  0  0  0  0999 V2000
    9.4527  -15.7891   19.7531 N   0  0  0  0  0  0  0  0  0  0  0  0
    8.6184  -16.3526   20.7929 C   0  0  1  0  0  0  0  0  0  0  0  0
    8.8176  -17.8521   20.7804 C   0  0  0  0  0  0  0  0  0  0  0  0
    8.1741  -18.3821   19.5515 C   0  0  0  0  0  0  0  0  0  0  0  0
    8.8579  -18.3841   18.3548 C   0  0  0  0  0  0  0  0  0  0  0  0
    8.2458  -18.8820   17.2124 C   0  0  0  0  0  0  0  0  0  0  0  0
    6.9470  -19.3757   17.2818 C   0  0  0  0  0  0  0  0  0  0  0  0
    6.2542  -19.3789   18.4710 C   0  0  0  0  0  0  0  0  0  0  0  0
    6.8752  -18.8829   19.5895 C   0  0  0  0  0  0  0  0  0  0  0  0
    9.0050  -15.8279   22.1234 C   0  0  0  0  0  0  0  0  0  0  0  0
   10.1605  -15.4431   22.3532 O   0  0  0  0  0  0  0  0  0  0  0  0
    8.0210  -15.7672   23.1576 N   0  0  0  0  0  0  0  0  0  0  0  0
    8.4031  -15.5416   24.5616 C   0  0  1  0  0  0  0  0  0  0  0  0
    7.1891  -15.2513   25.3916 C   0  0  0  0  0  0  0  0  0  0  0  0
    7.0891  -13.8514   25.7948 C   0  0  0  0  0  0  0  0  0  0  0  0
    5.9430  -13.4494   26.4853 C   0  0  0  0  0  0  0  0  0  0  0  0
    5.8123  -12.1438   26.8987 C   0  0  0  0  0  0  0  0  0  0  0  0
    6.8040  -11.2225   26.6385 C   0  0  0  0  0  0  0  0  0  0  0  0
    7.9287  -11.6227   25.9595 C   0  0  0  0  0  0  0  0  0  0  0  0
    8.0579  -12.9306   25.5465 C   0  0  0  0  0  0  0  0  0  0  0  0
    9.0540  -16.7716   25.0446 C   0  0  0  0  0  0  0  0  0  0  0  0
    9.2051  -17.7934   24.3266 O   0  0  0  0  0  0  0  0  0  0  0  0
   12.9807  -19.2989   20.8940 O   0  0  0  0  0  0  0  0  0  0  0  0
   12.7028  -18.6888   22.1092 C   0  0  0  0  0  0  0  0  0  0  0  0
   12.5651  -17.3170   22.1427 C   0  0  0  0  0  0  0  0  0  0  0  0
   12.2903  -16.6963   23.3351 C   0  0  0  0  0  0  0  0  0  0  0  0
   12.1466  -17.4149   24.5125 C   0  0  0  0  0  0  0  0  0  0  0  0
   11.8589  -16.7606   25.7874 C   0  0  0  0  0  0  0  0  0  0  0  0
   10.8155  -17.4791   26.6162 C   0  0  2  0  0  0  0  0  0  0  0  0
    9.5399  -16.8329   26.3723 N   0  0  0  0  0  0  0  0  0  0  0  0
   11.0767  -17.4600   28.0584 C   0  0  0  0  0  0  0  0  0  0  0  0
   10.1770  -16.8694   28.9169 O   0  0  0  0  0  0  0  0  0  0  0  0
   12.2882  -18.7827   24.4565 C   0  0  0  0  0  0  0  0  0  0  0  0
   12.5676  -19.4403   23.2577 C   0  0  0  0  0  0  0  0  0  0  0  0
   12.1134  -17.9763   28.5284 O   0  0  0  0  0  0  0  0  0  0  0  0
  2  1  1  6
  2  3  1  0
  3  4  1  0
  4  9  1  0
  4  5  2  0
  5  6  1  0
  6  7  2  0
  8  7  1  0
  9  8  2  0
 10 12  1  0
 10  2  1  0
 11 10  2  0
 13 12  1  0
 13 21  1  0
 13 14  1  1
 15 20  1  0
 15 14  1  0
 16 15  2  0
 17 18  2  0
 17 16  1  0
 18 19  1  0
 19 20  2  0
 21 22  2  0
 23 24  1  0
 24 25  2  0
 24 34  1  0
 25 26  1  0
 26 27  2  0
 27 28  1  0
 29 31  1  0
 29 28  1  6
 30 21  1  0
 30 29  1  0
 31 32  1  0
 33 27  1  0
 34 33  2  0
 35 31  2  0
M  END
$$$$
