FFY.pdb
     RDKit          3D

 35 37  0  0  1  0  0  0  0  0999 V2000
    8.5590  -17.1124   20.1377 N   0  0  0  0  0  0  0  0  0  0  0  0
    8.4476  -16.4764   21.4331 C   0  0  1  0  0  0  0  0  0  0  0  0
    7.2724  -15.5254   21.3793 C   0  0  0  0  0  0  0  0  0  0  0  0
    7.5954  -14.4653   20.3909 C   0  0  0  0  0  0  0  0  0  0  0  0
    8.5023  -13.4759   20.7046 C   0  0  0  0  0  0  0  0  0  0  0  0
    8.7961  -12.4898   19.7723 C   0  0  0  0  0  0  0  0  0  0  0  0
    8.1740  -12.5058   18.5281 C   0  0  0  0  0  0  0  0  0  0  0  0
    7.2668  -13.4884   18.2035 C   0  0  0  0  0  0  0  0  0  0  0  0
    6.9890  -14.4546   19.1373 C   0  0  0  0  0  0  0  0  0  0  0  0
    8.2050  -17.4799   22.4957 C   0  0  0  0  0  0  0  0  0  0  0  0
    8.5576  -18.6603   22.3597 O   0  0  0  0  0  0  0  0  0  0  0  0
    7.5511  -17.0718   23.6988 N   0  0  0  0  0  0  0  0  0  0  0  0
    7.6914  -15.7001   24.2155 C   0  0  1  0  0  0  0  0  0  0  0  0
    6.8217  -15.5062   25.4210 C   0  0  0  0  0  0  0  0  0  0  0  0
    6.8855  -14.1524   25.9646 C   0  0  0  0  0  0  0  0  0  0  0  0
    5.8547  -13.2673   25.6391 C   0  0  0  0  0  0  0  0  0  0  0  0
    5.8647  -11.9864   26.1411 C   0  0  0  0  0  0  0  0  0  0  0  0
    6.8851  -11.5636   26.9656 C   0  0  0  0  0  0  0  0  0  0  0  0
    7.8959  -12.4375   27.2827 C   0  0  0  0  0  0  0  0  0  0  0  0
    7.8841  -13.7198   26.7793 C   0  0  0  0  0  0  0  0  0  0  0  0
    9.1046  -15.5106   24.5855 C   0  0  0  0  0  0  0  0  0  0  0  0
    9.5476  -14.4374   25.0695 O   0  0  0  0  0  0  0  0  0  0  0  0
   10.7544  -16.2627   31.0285 O   0  0  0  0  0  0  0  0  0  0  0  0
   10.9431  -15.9948   29.6798 C   0  0  0  0  0  0  0  0  0  0  0  0
   10.9456  -14.6804   29.2622 C   0  0  0  0  0  0  0  0  0  0  0  0
   11.1308  -14.3962   27.9328 C   0  0  0  0  0  0  0  0  0  0  0  0
   11.3165  -15.3998   26.9938 C   0  0  0  0  0  0  0  0  0  0  0  0
   11.5094  -15.1054   25.5753 C   0  0  0  0  0  0  0  0  0  0  0  0
   11.4277  -16.3273   24.6854 C   0  0  2  0  0  0  0  0  0  0  0  0
   10.0264  -16.5680   24.3979 N   0  0  0  0  0  0  0  0  0  0  0  0
   11.9942  -17.5417   25.2793 C   0  0  0  0  0  0  0  0  0  0  0  0
   11.1905  -18.6324   25.5240 O   0  0  0  0  0  0  0  0  0  0  0  0
   11.3104  -16.7044   27.4322 C   0  0  0  0  0  0  0  0  0  0  0  0
   11.1243  -17.0225   28.7781 C   0  0  0  0  0  0  0  0  0  0  0  0
   13.2079  -17.6058   25.5710 O   0  0  0  0  0  0  0  0  0  0  0  0
  2  1  1  6
  2  3  1  0
  3  4  1  0
  4  9  1  0
  4  5  2  0
  5  6  1  0
  6  7  2  0
  8  7  1  0
  9  8  2  0
 10 12  1  0
 10  2  1  0
 11 10  2  0
 13 12  1  0
 13 21  1  0
 13 14  1  1
 15 20  1  0
 15 14  1  0
 16 15  2  0
 17 18  2  0
 17 16  1  0
 18 19  1  0
 19 20  2  0
 21 22  2  0
 23 24  1  0
 24 25  2  0
 24 34  1  0
 25 26  1  0
 26 27  2  0
 27 28  1  0
 29 31  1  0
 29 28  1  1
 30 21  1  0
 30 29  1  0
 31 32  1  0
 33 27  1  0
 34 33  2  0
 35 31  2  0
M  END
$$$$
