YEC.pdb
     RDKit          3D

 28 28  0  0  1  0  0  0  0  0999 V2000
    7.3391  -12.7132   16.9063 O   0  0  0  0  0  0  0  0  0  0  0  0
    7.4908  -13.2887   18.1644 C   0  0  0  0  0  0  0  0  0  0  0  0
    8.7303  -13.7104   18.6242 C   0  0  0  0  0  0  0  0  0  0  0  0
    8.8580  -14.2788   19.8756 C   0  0  0  0  0  0  0  0  0  0  0  0
    7.7329  -14.4187   20.6574 C   0  0  0  0  0  0  0  0  0  0  0  0
    7.8517  -15.0281   22.0064 C   0  0  0  0  0  0  0  0  0  0  0  0
    8.3153  -16.4464   21.8982 C   0  0  2  0  0  0  0  0  0  0  0  0
    7.1946  -17.3386   21.8191 N   0  0  0  0  0  0  0  0  0  0  0  0
    9.2020  -16.7397   23.0471 C   0  0  0  0  0  0  0  0  0  0  0  0
    8.6671  -17.1897   24.0930 O   0  0  0  0  0  0  0  0  0  0  0  0
    6.5131  -13.9946   20.1838 C   0  0  0  0  0  0  0  0  0  0  0  0
    6.3648  -13.4227   18.9327 C   0  0  0  0  0  0  0  0  0  0  0  0
   10.5922  -16.5235   22.9732 N   0  0  0  0  0  0  0  0  0  0  0  0
   11.4247  -16.7857   24.1144 C   0  0  1  0  0  0  0  0  0  0  0  0
   12.8803  -16.6892   23.6587 C   0  0  0  0  0  0  0  0  0  0  0  0
   13.8076  -16.9041   24.8540 C   0  0  0  0  0  0  0  0  0  0  0  0
   15.2281  -16.8543   24.4281 C   0  0  0  0  0  0  0  0  0  0  0  0
   15.8512  -15.7581   24.4651 O   0  0  0  0  0  0  0  0  0  0  0  0
   11.1167  -15.7935   25.1521 C   0  0  0  0  0  0  0  0  0  0  0  0
   10.8685  -14.5739   24.9157 O   0  0  0  0  0  0  0  0  0  0  0  0
   15.9145  -17.9694   23.9848 O   0  0  0  0  0  0  0  0  0  0  0  0
   11.0810  -16.1752   26.5407 N   0  0  0  0  0  0  0  0  0  0  0  0
   10.7552  -15.2387   27.5704 C   0  0  1  0  0  0  0  0  0  0  0  0
    9.4101  -14.6235   27.2289 C   0  0  0  0  0  0  0  0  0  0  0  0
    8.9651  -13.5006   28.5782 S   0  0  0  0  0  0  0  0  0  0  0  0
   10.7751  -15.8299   28.9174 C   0  0  0  0  0  0  0  0  0  0  0  0
   11.0173  -17.1782   29.1364 O   0  0  0  0  0  0  0  0  0  0  0  0
   10.5678  -15.1082   29.9249 O   0  0  0  0  0  0  0  0  0  0  0  0
  2  1  1  0
  2 12  2  0
  3  2  1  0
  4  3  2  0
  4  5  1  0
  5 11  2  0
  6  7  1  0
  6  5  1  0
  7  8  1  1
  9 13  1  0
  9  7  1  0
 10  9  2  0
 11 12  1  0
 14 19  1  0
 14 13  1  0
 14 15  1  6
 16 15  1  0
 16 17  1  0
 17 18  2  0
 19 22  1  0
 20 19  2  0
 21 17  1  0
 22 23  1  0
 23 26  1  0
 23 24  1  6
 25 24  1  0
 26 28  2  0
 26 27  1  0
M  END
$$$$
