YEC.pdb
     RDKit          3D

 28 28  0  0  1  0  0  0  0  0999 V2000
    8.9123  -12.5113   18.4409 O   0  0  0  0  0  0  0  0  0  0  0  0
    8.4052  -13.2247   19.5229 C   0  0  0  0  0  0  0  0  0  0  0  0
    9.2083  -13.5816   20.5968 C   0  0  0  0  0  0  0  0  0  0  0  0
    8.6844  -14.2894   21.6598 C   0  0  0  0  0  0  0  0  0  0  0  0
    7.3513  -14.6337   21.6335 C   0  0  0  0  0  0  0  0  0  0  0  0
    6.7709  -15.3952   22.7687 C   0  0  0  0  0  0  0  0  0  0  0  0
    7.1401  -16.8415   22.6686 C   0  0  2  0  0  0  0  0  0  0  0  0
    5.9857  -17.6712   22.8606 N   0  0  0  0  0  0  0  0  0  0  0  0
    8.2160  -17.1204   23.6469 C   0  0  0  0  0  0  0  0  0  0  0  0
    7.8730  -17.3724   24.8307 O   0  0  0  0  0  0  0  0  0  0  0  0
    6.5715  -14.2708   20.5601 C   0  0  0  0  0  0  0  0  0  0  0  0
    7.0780  -13.5615   19.4856 C   0  0  0  0  0  0  0  0  0  0  0  0
    9.5727  -17.1044   23.2678 N   0  0  0  0  0  0  0  0  0  0  0  0
   10.5946  -17.4081   24.2312 C   0  0  1  0  0  0  0  0  0  0  0  0
   11.9219  -17.5152   23.4812 C   0  0  0  0  0  0  0  0  0  0  0  0
   13.0257  -17.9382   24.4496 C   0  0  0  0  0  0  0  0  0  0  0  0
   14.3027  -18.1506   23.7245 C   0  0  0  0  0  0  0  0  0  0  0  0
   15.1549  -17.2216   23.6790 O   0  0  0  0  0  0  0  0  0  0  0  0
   10.6245  -16.3334   25.2313 C   0  0  0  0  0  0  0  0  0  0  0  0
   10.5644  -15.0999   24.9488 O   0  0  0  0  0  0  0  0  0  0  0  0
   14.6103  -19.3371   23.0852 O   0  0  0  0  0  0  0  0  0  0  0  0
   10.7274  -16.6433   26.6343 N   0  0  0  0  0  0  0  0  0  0  0  0
   10.6024  -15.6342   27.6390 C   0  0  1  0  0  0  0  0  0  0  0  0
    9.2489  -14.9698   27.4629 C   0  0  0  0  0  0  0  0  0  0  0  0
    9.1807  -13.5607   28.5984 S   0  0  0  0  0  0  0  0  0  0  0  0
   10.8008  -16.1483   29.0030 C   0  0  0  0  0  0  0  0  0  0  0  0
   11.1819  -15.3333   30.0590 O   0  0  0  0  0  0  0  0  0  0  0  0
   10.6251  -17.3682   29.2479 O   0  0  0  0  0  0  0  0  0  0  0  0
  2  1  1  0
  2 12  2  0
  3  2  1  0
  4  3  2  0
  4  5  1  0
  5 11  2  0
  6  7  1  0
  6  5  1  0
  7  8  1  1
  9 13  1  0
  9  7  1  0
 10  9  2  0
 11 12  1  0
 14 19  1  0
 14 13  1  0
 14 15  1  6
 16 15  1  0
 16 17  1  0
 17 18  2  0
 19 22  1  0
 20 19  2  0
 21 17  1  0
 22 23  1  0
 23 26  1  0
 23 24  1  1
 25 24  1  0
 26 28  2  0
 26 27  1  0
M  END
$$$$
