YEC.pdb
     RDKit          3D

 28 28  0  0  1  0  0  0  0  0999 V2000
    7.2048  -12.4955   17.3341 O   0  0  0  0  0  0  0  0  0  0  0  0
    7.5301  -13.0436   18.5713 C   0  0  0  0  0  0  0  0  0  0  0  0
    8.8497  -13.1993   18.9711 C   0  0  0  0  0  0  0  0  0  0  0  0
    9.1498  -13.7454   20.2029 C   0  0  0  0  0  0  0  0  0  0  0  0
    8.1153  -14.1320   21.0256 C   0  0  0  0  0  0  0  0  0  0  0  0
    8.4197  -14.7214   22.3543 C   0  0  0  0  0  0  0  0  0  0  0  0
    8.8767  -16.1380   22.2032 C   0  0  2  0  0  0  0  0  0  0  0  0
    7.8187  -16.9567   21.6850 N   0  0  0  0  0  0  0  0  0  0  0  0
    9.3794  -16.6115   23.5129 C   0  0  0  0  0  0  0  0  0  0  0  0
    8.5334  -17.0439   24.3375 O   0  0  0  0  0  0  0  0  0  0  0  0
    6.8137  -13.9696   20.6114 C   0  0  0  0  0  0  0  0  0  0  0  0
    6.4929  -13.4244   19.3809 C   0  0  0  0  0  0  0  0  0  0  0  0
   10.7528  -16.5796   23.8252 N   0  0  0  0  0  0  0  0  0  0  0  0
   11.2273  -17.1579   25.0520 C   0  0  1  0  0  0  0  0  0  0  0  0
   12.6326  -17.7012   24.7956 C   0  0  0  0  0  0  0  0  0  0  0  0
   12.5587  -18.8756   23.8207 C   0  0  0  0  0  0  0  0  0  0  0  0
   13.9181  -19.3853   23.5140 C   0  0  0  0  0  0  0  0  0  0  0  0
   14.5853  -18.8579   22.5824 O   0  0  0  0  0  0  0  0  0  0  0  0
   11.2316  -16.1153   26.0860 C   0  0  0  0  0  0  0  0  0  0  0  0
   11.9858  -15.0977   26.0638 O   0  0  0  0  0  0  0  0  0  0  0  0
   14.4997  -20.4280   24.2109 O   0  0  0  0  0  0  0  0  0  0  0  0
   10.3443  -16.2043   27.2173 N   0  0  0  0  0  0  0  0  0  0  0  0
   10.5204  -15.3884   28.3778 C   0  0  1  0  0  0  0  0  0  0  0  0
    9.2310  -14.6198   28.6041 C   0  0  0  0  0  0  0  0  0  0  0  0
    8.8156  -13.7821   27.0532 S   0  0  0  0  0  0  0  0  0  0  0  0
   10.9327  -16.1528   29.5652 C   0  0  0  0  0  0  0  0  0  0  0  0
   11.2159  -15.5470   30.7806 O   0  0  0  0  0  0  0  0  0  0  0  0
   11.0401  -17.4033   29.5030 O   0  0  0  0  0  0  0  0  0  0  0  0
  2  1  1  0
  2 12  2  0
  3  2  1  0
  4  3  2  0
  4  5  1  0
  5 11  2  0
  6  7  1  0
  6  5  1  0
  7  8  1  1
  9 13  1  0
  9  7  1  0
 10  9  2  0
 11 12  1  0
 14 19  1  0
 14 13  1  0
 14 15  1  6
 16 15  1  0
 16 17  1  0
 17 18  2  0
 19 22  1  0
 20 19  2  0
 21 17  1  0
 22 23  1  0
 23 26  1  0
 23 24  1  1
 25 24  1  0
 26 28  2  0
 26 27  1  0
M  END
$$$$
