YEC.pdb
     RDKit          3D

 28 28  0  0  1  0  0  0  0  0999 V2000
    7.6761  -12.7103   16.3372 O   0  0  0  0  0  0  0  0  0  0  0  0
    7.7913  -13.2062   17.6325 C   0  0  0  0  0  0  0  0  0  0  0  0
    6.7204  -13.1859   18.5147 C   0  0  0  0  0  0  0  0  0  0  0  0
    6.8569  -13.6831   19.7951 C   0  0  0  0  0  0  0  0  0  0  0  0
    8.0747  -14.1989   20.1790 C   0  0  0  0  0  0  0  0  0  0  0  0
    8.2395  -14.7381   21.5529 C   0  0  0  0  0  0  0  0  0  0  0  0
    8.2838  -16.2333   21.5236 C   0  0  2  0  0  0  0  0  0  0  0  0
    6.9861  -16.7707   21.2320 N   0  0  0  0  0  0  0  0  0  0  0  0
    8.8262  -16.7124   22.8153 C   0  0  0  0  0  0  0  0  0  0  0  0
    8.0212  -16.8299   23.7749 O   0  0  0  0  0  0  0  0  0  0  0  0
    9.1243  -14.2101   19.2900 C   0  0  0  0  0  0  0  0  0  0  0  0
    9.0073  -13.7165   18.0028 C   0  0  0  0  0  0  0  0  0  0  0  0
   10.1915  -17.0252   22.9655 N   0  0  0  0  0  0  0  0  0  0  0  0
   10.7043  -17.4200   24.2483 C   0  0  1  0  0  0  0  0  0  0  0  0
   12.0929  -18.0194   24.0283 C   0  0  0  0  0  0  0  0  0  0  0  0
   12.7036  -18.4069   25.3743 C   0  0  0  0  0  0  0  0  0  0  0  0
   14.0298  -19.0438   25.1815 C   0  0  0  0  0  0  0  0  0  0  0  0
   15.0704  -18.4450   25.5686 O   0  0  0  0  0  0  0  0  0  0  0  0
   10.7586  -16.2339   25.1122 C   0  0  0  0  0  0  0  0  0  0  0  0
   10.8998  -15.0502   24.6834 O   0  0  0  0  0  0  0  0  0  0  0  0
   14.1842  -20.2829   24.5882 O   0  0  0  0  0  0  0  0  0  0  0  0
   10.6496  -16.3658   26.5425 N   0  0  0  0  0  0  0  0  0  0  0  0
   10.5577  -15.2248   27.3986 C   0  0  1  0  0  0  0  0  0  0  0  0
    9.3820  -14.3868   26.9296 C   0  0  0  0  0  0  0  0  0  0  0  0
    9.2347  -12.9752   28.0545 S   0  0  0  0  0  0  0  0  0  0  0  0
   10.4616  -15.5771   28.8237 C   0  0  0  0  0  0  0  0  0  0  0  0
   10.7769  -14.6824   29.8359 O   0  0  0  0  0  0  0  0  0  0  0  0
   10.0819  -16.7255   29.1642 O   0  0  0  0  0  0  0  0  0  0  0  0
  2  1  1  0
  2 12  2  0
  3  2  1  0
  4  3  2  0
  4  5  1  0
  5 11  2  0
  6  7  1  0
  6  5  1  0
  7  8  1  1
  9 13  1  0
  9  7  1  0
 10  9  2  0
 11 12  1  0
 14 19  1  0
 14 13  1  0
 14 15  1  6
 16 15  1  0
 16 17  1  0
 17 18  2  0
 19 22  1  0
 20 19  2  0
 21 17  1  0
 22 23  1  0
 23 26  1  0
 23 24  1  6
 25 24  1  0
 26 28  2  0
 26 27  1  0
M  END
$$$$
