YEC.pdb
     RDKit          3D

 28 28  0  0  1  0  0  0  0  0999 V2000
    7.4626  -11.7399   27.2017 O   0  0  0  0  0  0  0  0  0  0  0  0
    7.2932  -12.6813   26.1908 C   0  0  0  0  0  0  0  0  0  0  0  0
    6.2207  -13.5618   26.1920 C   0  0  0  0  0  0  0  0  0  0  0  0
    6.0721  -14.4877   25.1790 C   0  0  0  0  0  0  0  0  0  0  0  0
    7.0077  -14.5203   24.1691 C   0  0  0  0  0  0  0  0  0  0  0  0
    6.8636  -15.5099   23.0712 C   0  0  0  0  0  0  0  0  0  0  0  0
    7.0125  -16.9011   23.6012 C   0  0  2  0  0  0  0  0  0  0  0  0
    5.9896  -17.1853   24.5661 N   0  0  0  0  0  0  0  0  0  0  0  0
    8.3785  -17.0499   24.1527 C   0  0  0  0  0  0  0  0  0  0  0  0
    8.4838  -17.3267   25.3753 O   0  0  0  0  0  0  0  0  0  0  0  0
    8.0639  -13.6392   24.1856 C   0  0  0  0  0  0  0  0  0  0  0  0
    8.2301  -12.7042   25.1918 C   0  0  0  0  0  0  0  0  0  0  0  0
    9.5179  -16.8879   23.3402 N   0  0  0  0  0  0  0  0  0  0  0  0
   10.8175  -17.2399   23.8417 C   0  0  1  0  0  0  0  0  0  0  0  0
   11.8301  -16.9848   22.7257 C   0  0  0  0  0  0  0  0  0  0  0  0
   13.2359  -17.3195   23.2221 C   0  0  0  0  0  0  0  0  0  0  0  0
   14.2246  -17.1759   22.1250 C   0  0  0  0  0  0  0  0  0  0  0  0
   14.4731  -18.1614   21.3777 O   0  0  0  0  0  0  0  0  0  0  0  0
   11.0981  -16.4160   25.0243 C   0  0  0  0  0  0  0  0  0  0  0  0
   11.1108  -15.1492   25.0192 O   0  0  0  0  0  0  0  0  0  0  0  0
   14.8987  -15.9948   21.8768 O   0  0  0  0  0  0  0  0  0  0  0  0
   11.3829  -17.0332   26.2943 N   0  0  0  0  0  0  0  0  0  0  0  0
   11.5608  -16.2604   27.4836 C   0  0  1  0  0  0  0  0  0  0  0  0
   10.3525  -15.3535   27.6323 C   0  0  0  0  0  0  0  0  0  0  0  0
   10.6033  -14.3494   29.1184 S   0  0  0  0  0  0  0  0  0  0  0  0
   11.7932  -17.0847   28.6797 C   0  0  0  0  0  0  0  0  0  0  0  0
   12.4580  -16.6044   29.7986 O   0  0  0  0  0  0  0  0  0  0  0  0
   11.3843  -18.2723   28.7152 O   0  0  0  0  0  0  0  0  0  0  0  0
  2  1  1  0
  2 12  2  0
  3  2  1  0
  4  3  2  0
  4  5  1  0
  5 11  2  0
  6  7  1  0
  6  5  1  0
  7  8  1  1
  9 13  1  0
  9  7  1  0
 10  9  2  0
 11 12  1  0
 14 19  1  0
 14 13  1  0
 14 15  1  6
 16 15  1  0
 16 17  1  0
 17 18  2  0
 19 22  1  0
 20 19  2  0
 21 17  1  0
 22 23  1  0
 23 26  1  0
 23 24  1  1
 25 24  1  0
 26 28  2  0
 26 27  1  0
M  END
$$$$
