YEC.pdb
     RDKit          3D

 28 28  0  0  1  0  0  0  0  0999 V2000
    7.2146  -11.7607   18.3644 O   0  0  0  0  0  0  0  0  0  0  0  0
    7.7504  -12.7989   19.1207 C   0  0  0  0  0  0  0  0  0  0  0  0
    8.6399  -13.7117   18.5719 C   0  0  0  0  0  0  0  0  0  0  0  0
    9.1593  -14.7340   19.3404 C   0  0  0  0  0  0  0  0  0  0  0  0
    8.7778  -14.8299   20.6602 C   0  0  0  0  0  0  0  0  0  0  0  0
    9.3266  -15.9235   21.5017 C   0  0  0  0  0  0  0  0  0  0  0  0
    9.5165  -17.1632   20.6859 C   0  0  2  0  0  0  0  0  0  0  0  0
    8.2504  -17.7644   20.3800 N   0  0  0  0  0  0  0  0  0  0  0  0
   10.4219  -18.0752   21.4212 C   0  0  0  0  0  0  0  0  0  0  0  0
    9.8938  -18.9521   22.1525 O   0  0  0  0  0  0  0  0  0  0  0  0
    7.8949  -13.9154   21.1858 C   0  0  0  0  0  0  0  0  0  0  0  0
    7.3636  -12.8841   20.4319 C   0  0  0  0  0  0  0  0  0  0  0  0
   11.8218  -17.9664   21.3071 N   0  0  0  0  0  0  0  0  0  0  0  0
   12.6740  -18.9484   21.9186 C   0  0  1  0  0  0  0  0  0  0  0  0
   14.0387  -18.8684   21.2351 C   0  0  0  0  0  0  0  0  0  0  0  0
   13.9895  -19.6140   19.9022 C   0  0  0  0  0  0  0  0  0  0  0  0
   15.2878  -19.5008   19.1928 C   0  0  0  0  0  0  0  0  0  0  0  0
   15.6120  -18.4049   18.6587 O   0  0  0  0  0  0  0  0  0  0  0  0
   12.7702  -18.6514   23.3534 C   0  0  0  0  0  0  0  0  0  0  0  0
   12.9711  -17.4932   23.8258 O   0  0  0  0  0  0  0  0  0  0  0  0
   16.1753  -20.5554   19.0863 O   0  0  0  0  0  0  0  0  0  0  0  0
   12.6356  -19.7033   24.3281 N   0  0  0  0  0  0  0  0  0  0  0  0
   12.7486  -19.4490   25.7303 C   0  0  1  0  0  0  0  0  0  0  0  0
   11.3756  -19.6418   26.3485 C   0  0  0  0  0  0  0  0  0  0  0  0
   11.5274  -19.3241   28.1249 S   0  0  0  0  0  0  0  0  0  0  0  0
   13.7784  -20.2699   26.3859 C   0  0  0  0  0  0  0  0  0  0  0  0
   14.4630  -19.8453   27.5153 O   0  0  0  0  0  0  0  0  0  0  0  0
   14.0681  -21.4027   25.9256 O   0  0  0  0  0  0  0  0  0  0  0  0
  2  1  1  0
  2 12  2  0
  3  2  1  0
  4  3  2  0
  4  5  1  0
  5 11  2  0
  6  7  1  0
  6  5  1  0
  7  8  1  1
  9 13  1  0
  9  7  1  0
 10  9  2  0
 11 12  1  0
 14 19  1  0
 14 13  1  0
 14 15  1  6
 16 15  1  0
 16 17  1  0
 17 18  2  0
 19 22  1  0
 20 19  2  0
 21 17  1  0
 22 23  1  0
 23 26  1  0
 23 24  1  1
 25 24  1  0
 26 28  2  0
 26 27  1  0
M  END
$$$$
