YEC.pdb
     RDKit          3D

 28 28  0  0  1  0  0  0  0  0999 V2000
    4.7773  -10.0108   26.1874 O   0  0  0  0  0  0  0  0  0  0  0  0
    5.5724  -11.1511   26.1206 C   0  0  0  0  0  0  0  0  0  0  0  0
    6.5130  -11.3214   25.1148 C   0  0  0  0  0  0  0  0  0  0  0  0
    7.2911  -12.4606   25.0676 C   0  0  0  0  0  0  0  0  0  0  0  0
    7.1157  -13.4230   26.0369 C   0  0  0  0  0  0  0  0  0  0  0  0
    7.9442  -14.6550   26.0016 C   0  0  0  0  0  0  0  0  0  0  0  0
    7.4567  -15.5800   24.9316 C   0  0  2  0  0  0  0  0  0  0  0  0
    6.2086  -16.1768   25.3111 N   0  0  0  0  0  0  0  0  0  0  0  0
    8.5125  -16.5818   24.6599 C   0  0  0  0  0  0  0  0  0  0  0  0
    8.5267  -17.6180   25.3731 O   0  0  0  0  0  0  0  0  0  0  0  0
    6.1781  -13.2358   27.0258 C   0  0  0  0  0  0  0  0  0  0  0  0
    5.3889  -12.1012   27.0900 C   0  0  0  0  0  0  0  0  0  0  0  0
    9.4656  -16.3836   23.6416 N   0  0  0  0  0  0  0  0  0  0  0  0
   10.6526  -17.1920   23.5971 C   0  0  1  0  0  0  0  0  0  0  0  0
   11.3472  -16.9231   22.2626 C   0  0  0  0  0  0  0  0  0  0  0  0
   12.5571  -17.8452   22.1190 C   0  0  0  0  0  0  0  0  0  0  0  0
   13.2290  -17.6251   20.8144 C   0  0  0  0  0  0  0  0  0  0  0  0
   13.6976  -18.6104   20.1813 O   0  0  0  0  0  0  0  0  0  0  0  0
   11.5068  -16.8261   24.7341 C   0  0  0  0  0  0  0  0  0  0  0  0
   11.8656  -15.6403   24.9987 O   0  0  0  0  0  0  0  0  0  0  0  0
   13.3692  -16.3716   20.2486 O   0  0  0  0  0  0  0  0  0  0  0  0
   11.9955  -17.8372   25.6361 N   0  0  0  0  0  0  0  0  0  0  0  0
   12.2940  -17.5454   27.0033 C   0  0  1  0  0  0  0  0  0  0  0  0
   11.0754  -16.8739   27.6106 C   0  0  0  0  0  0  0  0  0  0  0  0
   11.5090  -15.1455   27.9338 S   0  0  0  0  0  0  0  0  0  0  0  0
   12.7211  -18.7277   27.7673 C   0  0  0  0  0  0  0  0  0  0  0  0
   12.1294  -19.9722   27.6079 O   0  0  0  0  0  0  0  0  0  0  0  0
   13.6554  -18.6340   28.6025 O   0  0  0  0  0  0  0  0  0  0  0  0
  2  1  1  0
  2 12  2  0
  3  2  1  0
  4  3  2  0
  4  5  1  0
  5 11  2  0
  6  7  1  0
  6  5  1  0
  7  8  1  1
  9 13  1  0
  9  7  1  0
 10  9  2  0
 11 12  1  0
 14 19  1  0
 14 13  1  0
 14 15  1  6
 16 15  1  0
 16 17  1  0
 17 18  2  0
 19 22  1  0
 20 19  2  0
 21 17  1  0
 22 23  1  0
 23 26  1  0
 23 24  1  1
 25 24  1  0
 26 28  2  0
 26 27  1  0
M  END
$$$$
