YEC.pdb
     RDKit          3D

 28 28  0  0  1  0  0  0  0  0999 V2000
   10.5342  -15.9204   31.3097 O   0  0  0  0  0  0  0  0  0  0  0  0
   10.4686  -15.8080   29.9240 C   0  0  0  0  0  0  0  0  0  0  0  0
   10.3341  -16.9247   29.1114 C   0  0  0  0  0  0  0  0  0  0  0  0
   10.2710  -16.7901   27.7390 C   0  0  0  0  0  0  0  0  0  0  0  0
   10.3440  -15.5278   27.1934 C   0  0  0  0  0  0  0  0  0  0  0  0
   10.2778  -15.3643   25.7188 C   0  0  0  0  0  0  0  0  0  0  0  0
   11.3502  -16.1704   25.0567 C   0  0  2  0  0  0  0  0  0  0  0  0
   12.6448  -15.7731   25.5304 N   0  0  0  0  0  0  0  0  0  0  0  0
   11.2073  -16.0276   23.5900 C   0  0  0  0  0  0  0  0  0  0  0  0
   11.5669  -14.9374   23.0753 O   0  0  0  0  0  0  0  0  0  0  0  0
   10.4772  -14.4331   28.0156 C   0  0  0  0  0  0  0  0  0  0  0  0
   10.5422  -14.5475   29.3929 C   0  0  0  0  0  0  0  0  0  0  0  0
   10.6886  -17.0719   22.7995 N   0  0  0  0  0  0  0  0  0  0  0  0
   10.4528  -16.8665   21.3972 C   0  0  1  0  0  0  0  0  0  0  0  0
   10.9080  -18.1261   20.6609 C   0  0  0  0  0  0  0  0  0  0  0  0
   10.7176  -17.9380   19.1564 C   0  0  0  0  0  0  0  0  0  0  0  0
   11.0861  -19.1755   18.4252 C   0  0  0  0  0  0  0  0  0  0  0  0
   10.3039  -19.6381   17.5503 O   0  0  0  0  0  0  0  0  0  0  0  0
    9.0201  -16.6131   21.1991 C   0  0  0  0  0  0  0  0  0  0  0  0
    8.0987  -17.2571   21.7831 O   0  0  0  0  0  0  0  0  0  0  0  0
   12.2650  -19.8586   18.6594 O   0  0  0  0  0  0  0  0  0  0  0  0
    8.5784  -15.5806   20.2969 N   0  0  0  0  0  0  0  0  0  0  0  0
    7.1920  -15.3585   20.0283 C   0  0  1  0  0  0  0  0  0  0  0  0
    7.0245  -13.9033   19.6297 C   0  0  0  0  0  0  0  0  0  0  0  0
    8.0436  -13.6191   18.1599 S   0  0  0  0  0  0  0  0  0  0  0  0
    6.6423  -16.2815   19.0233 C   0  0  0  0  0  0  0  0  0  0  0  0
    5.2867  -16.3513   18.7374 O   0  0  0  0  0  0  0  0  0  0  0  0
    7.4083  -17.0466   18.3853 O   0  0  0  0  0  0  0  0  0  0  0  0
  2  1  1  0
  2 12  2  0
  3  2  1  0
  4  3  2  0
  4  5  1  0
  5 11  2  0
  6  7  1  0
  6  5  1  0
  7  8  1  1
  9 13  1  0
  9  7  1  0
 10  9  2  0
 11 12  1  0
 14 19  1  0
 14 13  1  0
 14 15  1  6
 16 15  1  0
 16 17  1  0
 17 18  2  0
 19 22  1  0
 20 19  2  0
 21 17  1  0
 22 23  1  0
 23 26  1  0
 23 24  1  6
 25 24  1  0
 26 28  2  0
 26 27  1  0
M  END
$$$$
