YEC.pdb
     RDKit          3D

 28 28  0  0  1  0  0  0  0  0999 V2000
   11.6393  -14.7499   30.3933 O   0  0  0  0  0  0  0  0  0  0  0  0
   10.6171  -14.6871   29.4509 C   0  0  0  0  0  0  0  0  0  0  0  0
    9.8303  -15.7924   29.1597 C   0  0  0  0  0  0  0  0  0  0  0  0
    8.8216  -15.7078   28.2212 C   0  0  0  0  0  0  0  0  0  0  0  0
    8.6120  -14.5069   27.5806 C   0  0  0  0  0  0  0  0  0  0  0  0
    7.5312  -14.3978   26.5680 C   0  0  0  0  0  0  0  0  0  0  0  0
    7.1929  -15.7481   26.0199 C   0  0  2  0  0  0  0  0  0  0  0  0
    8.0784  -16.7442   26.5508 N   0  0  0  0  0  0  0  0  0  0  0  0
    7.2294  -15.6775   24.5415 C   0  0  0  0  0  0  0  0  0  0  0  0
    6.5407  -14.7832   23.9860 O   0  0  0  0  0  0  0  0  0  0  0  0
    9.4026  -13.4226   27.8830 C   0  0  0  0  0  0  0  0  0  0  0  0
   10.4182  -13.4875   28.8203 C   0  0  0  0  0  0  0  0  0  0  0  0
    8.0054  -16.5769   23.7842 N   0  0  0  0  0  0  0  0  0  0  0  0
    7.8455  -16.6441   22.3579 C   0  0  1  0  0  0  0  0  0  0  0  0
    9.1458  -17.1920   21.7706 C   0  0  0  0  0  0  0  0  0  0  0  0
   10.2611  -16.1620   21.9438 C   0  0  0  0  0  0  0  0  0  0  0  0
   11.5053  -16.6236   21.2799 C   0  0  0  0  0  0  0  0  0  0  0  0
   12.1844  -17.5485   21.8040 O   0  0  0  0  0  0  0  0  0  0  0  0
    6.7061  -17.5207   22.0588 C   0  0  0  0  0  0  0  0  0  0  0  0
    6.1879  -18.3199   22.8941 O   0  0  0  0  0  0  0  0  0  0  0  0
   11.9651  -16.0806   20.0947 O   0  0  0  0  0  0  0  0  0  0  0  0
    6.1011  -17.5126   20.7516 N   0  0  0  0  0  0  0  0  0  0  0  0
    4.9699  -18.3294   20.4408 C   0  0  1  0  0  0  0  0  0  0  0  0
    4.0631  -17.5341   19.5190 C   0  0  0  0  0  0  0  0  0  0  0  0
    5.0029  -17.1621   18.0164 S   0  0  0  0  0  0  0  0  0  0  0  0
    5.3381  -19.6360   19.8738 C   0  0  0  0  0  0  0  0  0  0  0  0
    4.4225  -20.6668   19.7201 O   0  0  0  0  0  0  0  0  0  0  0  0
    6.5202  -19.8526   19.5069 O   0  0  0  0  0  0  0  0  0  0  0  0
  2  1  1  0
  2 12  2  0
  3  2  1  0
  4  3  2  0
  4  5  1  0
  5 11  2  0
  6  7  1  0
  6  5  1  0
  7  8  1  1
  9 13  1  0
  9  7  1  0
 10  9  2  0
 11 12  1  0
 14 19  1  0
 14 13  1  0
 14 15  1  6
 16 15  1  0
 16 17  1  0
 17 18  2  0
 19 22  1  0
 20 19  2  0
 21 17  1  0
 22 23  1  0
 23 26  1  0
 23 24  1  6
 25 24  1  0
 26 28  2  0
 26 27  1  0
M  END
$$$$
