YEC.pdb
     RDKit          3D

 28 28  0  0  1  0  0  0  0  0999 V2000
    6.7798  -11.7835   17.5905 O   0  0  0  0  0  0  0  0  0  0  0  0
    7.3519  -12.6142   18.5494 C   0  0  0  0  0  0  0  0  0  0  0  0
    6.5798  -13.2518   19.5102 C   0  0  0  0  0  0  0  0  0  0  0  0
    7.1682  -14.0716   20.4521 C   0  0  0  0  0  0  0  0  0  0  0  0
    8.5341  -14.2438   20.4195 C   0  0  0  0  0  0  0  0  0  0  0  0
    9.1840  -15.1222   21.4253 C   0  0  0  0  0  0  0  0  0  0  0  0
    9.5973  -16.4158   20.7974 C   0  0  2  0  0  0  0  0  0  0  0  0
    8.4503  -17.1358   20.3241 N   0  0  0  0  0  0  0  0  0  0  0  0
   10.3903  -17.1843   21.7836 C   0  0  0  0  0  0  0  0  0  0  0  0
    9.7650  -17.7483   22.7182 O   0  0  0  0  0  0  0  0  0  0  0  0
    9.2822  -13.6032   19.4593 C   0  0  0  0  0  0  0  0  0  0  0  0
    8.7111  -12.7778   18.5070 C   0  0  0  0  0  0  0  0  0  0  0  0
   11.7920  -17.2811   21.6806 N   0  0  0  0  0  0  0  0  0  0  0  0
   12.5280  -18.1030   22.6010 C   0  0  1  0  0  0  0  0  0  0  0  0
   13.9279  -18.3075   22.0231 C   0  0  0  0  0  0  0  0  0  0  0  0
   14.7443  -19.1979   22.9589 C   0  0  0  0  0  0  0  0  0  0  0  0
   16.0839  -19.4711   22.3822 C   0  0  0  0  0  0  0  0  0  0  0  0
   16.9906  -18.5987   22.4729 O   0  0  0  0  0  0  0  0  0  0  0  0
   12.5743  -17.4194   23.8998 C   0  0  0  0  0  0  0  0  0  0  0  0
   13.2853  -16.3985   24.1387 O   0  0  0  0  0  0  0  0  0  0  0  0
   16.3930  -20.6552   21.7391 O   0  0  0  0  0  0  0  0  0  0  0  0
   11.7832  -17.8959   25.0052 N   0  0  0  0  0  0  0  0  0  0  0  0
   11.9976  -17.4309   26.3398 C   0  0  1  0  0  0  0  0  0  0  0  0
   10.8227  -16.5466   26.7170 C   0  0  0  0  0  0  0  0  0  0  0  0
    9.3124  -17.5203   26.4921 S   0  0  0  0  0  0  0  0  0  0  0  0
   12.2111  -18.5206   27.3048 C   0  0  0  0  0  0  0  0  0  0  0  0
   12.0518  -19.8568   26.9678 O   0  0  0  0  0  0  0  0  0  0  0  0
   12.5512  -18.2582   28.4857 O   0  0  0  0  0  0  0  0  0  0  0  0
  2  1  1  0
  2 12  2  0
  3  2  1  0
  4  3  2  0
  4  5  1  0
  5 11  2  0
  6  7  1  0
  6  5  1  0
  7  8  1  1
  9 13  1  0
  9  7  1  0
 10  9  2  0
 11 12  1  0
 14 19  1  0
 14 13  1  0
 14 15  1  6
 16 15  1  0
 16 17  1  0
 17 18  2  0
 19 22  1  0
 20 19  2  0
 21 17  1  0
 22 23  1  0
 23 26  1  0
 23 24  1  1
 25 24  1  0
 26 28  2  0
 26 27  1  0
M  END
$$$$
