YEC.pdb
     RDKit          3D

 28 28  0  0  1  0  0  0  0  0999 V2000
    7.8508  -12.4283   17.1883 O   0  0  0  0  0  0  0  0  0  0  0  0
    7.9387  -13.0243   18.4429 C   0  0  0  0  0  0  0  0  0  0  0  0
    9.1627  -13.3734   18.9957 C   0  0  0  0  0  0  0  0  0  0  0  0
    9.2268  -13.9636   20.2419 C   0  0  0  0  0  0  0  0  0  0  0  0
    8.0540  -14.1987   20.9244 C   0  0  0  0  0  0  0  0  0  0  0  0
    8.1042  -14.8329   22.2663 C   0  0  0  0  0  0  0  0  0  0  0  0
    8.1500  -16.3227   22.1368 C   0  0  2  0  0  0  0  0  0  0  0  0
    6.8282  -16.8554   21.9723 N   0  0  0  0  0  0  0  0  0  0  0  0
    8.8482  -16.8756   23.3196 C   0  0  0  0  0  0  0  0  0  0  0  0
    8.1383  -17.2816   24.2755 O   0  0  0  0  0  0  0  0  0  0  0  0
    6.8506  -13.8454   20.3596 C   0  0  0  0  0  0  0  0  0  0  0  0
    6.7657  -13.2531   19.1121 C   0  0  0  0  0  0  0  0  0  0  0  0
   10.2543  -16.9452   23.3738 N   0  0  0  0  0  0  0  0  0  0  0  0
   10.9053  -17.4960   24.5301 C   0  0  1  0  0  0  0  0  0  0  0  0
   12.2950  -17.9650   24.1007 C   0  0  0  0  0  0  0  0  0  0  0  0
   13.0228  -18.5762   25.2973 C   0  0  0  0  0  0  0  0  0  0  0  0
   14.3777  -19.0362   24.9045 C   0  0  0  0  0  0  0  0  0  0  0  0
   14.6761  -20.2572   25.0116 O   0  0  0  0  0  0  0  0  0  0  0  0
   10.9817  -16.4533   25.5612 C   0  0  0  0  0  0  0  0  0  0  0  0
   11.0919  -15.2161   25.3117 O   0  0  0  0  0  0  0  0  0  0  0  0
   15.3463  -18.1779   24.4184 O   0  0  0  0  0  0  0  0  0  0  0  0
   10.9331  -16.8017   26.9580 N   0  0  0  0  0  0  0  0  0  0  0  0
   10.8224  -15.8067   27.9784 C   0  0  1  0  0  0  0  0  0  0  0  0
    9.5377  -15.0351   27.7360 C   0  0  0  0  0  0  0  0  0  0  0  0
    9.3395  -13.8622   29.1016 S   0  0  0  0  0  0  0  0  0  0  0  0
   10.8939  -16.3625   29.3386 C   0  0  0  0  0  0  0  0  0  0  0  0
   11.2558  -15.5983   30.4383 O   0  0  0  0  0  0  0  0  0  0  0  0
   10.6218  -17.5728   29.5394 O   0  0  0  0  0  0  0  0  0  0  0  0
  2  1  1  0
  2 12  2  0
  3  2  1  0
  4  3  2  0
  4  5  1  0
  5 11  2  0
  6  7  1  0
  6  5  1  0
  7  8  1  1
  9 13  1  0
  9  7  1  0
 10  9  2  0
 11 12  1  0
 14 19  1  0
 14 13  1  0
 14 15  1  6
 16 15  1  0
 16 17  1  0
 17 18  2  0
 19 22  1  0
 20 19  2  0
 21 17  1  0
 22 23  1  0
 23 26  1  0
 23 24  1  1
 25 24  1  0
 26 28  2  0
 26 27  1  0
M  END
$$$$
