YEC.pdb
     RDKit          3D

 28 28  0  0  1  0  0  0  0  0999 V2000
    7.5555  -12.2878   17.1501 O   0  0  0  0  0  0  0  0  0  0  0  0
    7.8477  -12.8680   18.3810 C   0  0  0  0  0  0  0  0  0  0  0  0
    9.1485  -13.1920   18.7395 C   0  0  0  0  0  0  0  0  0  0  0  0
    9.4156  -13.7670   19.9656 C   0  0  0  0  0  0  0  0  0  0  0  0
    8.3675  -14.0122   20.8246 C   0  0  0  0  0  0  0  0  0  0  0  0
    8.6366  -14.6302   22.1479 C   0  0  0  0  0  0  0  0  0  0  0  0
    8.9398  -16.0868   21.9904 C   0  0  2  0  0  0  0  0  0  0  0  0
    7.7696  -16.8030   21.5711 N   0  0  0  0  0  0  0  0  0  0  0  0
    9.4947  -16.5916   23.2669 C   0  0  0  0  0  0  0  0  0  0  0  0
    8.6899  -16.7808   24.2151 O   0  0  0  0  0  0  0  0  0  0  0  0
    7.0851  -13.6838   20.4511 C   0  0  0  0  0  0  0  0  0  0  0  0
    6.7971  -13.1071   19.2268 C   0  0  0  0  0  0  0  0  0  0  0  0
   10.8714  -16.8508   23.4154 N   0  0  0  0  0  0  0  0  0  0  0  0
   11.3863  -17.3165   24.6733 C   0  0  1  0  0  0  0  0  0  0  0  0
   12.7805  -17.8892   24.4205 C   0  0  0  0  0  0  0  0  0  0  0  0
   13.3607  -18.4237   25.7292 C   0  0  0  0  0  0  0  0  0  0  0  0
   14.6807  -19.0591   25.4936 C   0  0  0  0  0  0  0  0  0  0  0  0
   14.7365  -20.2763   25.1670 O   0  0  0  0  0  0  0  0  0  0  0  0
   11.4288  -16.1833   25.6062 C   0  0  0  0  0  0  0  0  0  0  0  0
   12.0592  -15.1068   25.3859 O   0  0  0  0  0  0  0  0  0  0  0  0
   15.8735  -18.3712   25.6165 O   0  0  0  0  0  0  0  0  0  0  0  0
   10.7290  -16.2452   26.8637 N   0  0  0  0  0  0  0  0  0  0  0  0
   10.9761  -15.3027   27.9097 C   0  0  1  0  0  0  0  0  0  0  0  0
   10.1301  -14.0725   27.6347 C   0  0  0  0  0  0  0  0  0  0  0  0
    8.4315  -14.6313   27.3479 S   0  0  0  0  0  0  0  0  0  0  0  0
   10.7420  -15.8547   29.2530 C   0  0  0  0  0  0  0  0  0  0  0  0
   10.8557  -15.0889   30.4041 O   0  0  0  0  0  0  0  0  0  0  0  0
   10.4258  -17.0631   29.3909 O   0  0  0  0  0  0  0  0  0  0  0  0
  2  1  1  0
  2 12  2  0
  3  2  1  0
  4  3  2  0
  4  5  1  0
  5 11  2  0
  6  7  1  0
  6  5  1  0
  7  8  1  1
  9 13  1  0
  9  7  1  0
 10  9  2  0
 11 12  1  0
 14 19  1  0
 14 13  1  0
 14 15  1  6
 16 15  1  0
 16 17  1  0
 17 18  2  0
 19 22  1  0
 20 19  2  0
 21 17  1  0
 22 23  1  0
 23 26  1  0
 23 24  1  6
 25 24  1  0
 26 28  2  0
 26 27  1  0
M  END
$$$$
