IWT.pdb
     RDKit          3D

 30 31  0  0  1  0  0  0  0  0999 V2000
   27.3329  -21.7558  -19.7102 C   0  0  0  0  0  0  0  0  0  0  0  0
   27.8931  -22.3222  -18.4462 C   0  0  0  0  0  0  0  0  0  0  0  0
   27.0217  -22.0658  -17.2350 C   0  0  2  0  0  0  0  0  0  0  0  0
   26.8856  -20.5701  -17.0634 C   0  0  0  0  0  0  0  0  0  0  0  0
   27.7019  -22.7307  -16.0600 C   0  0  2  0  0  0  0  0  0  0  0  0
   27.6154  -24.1759  -16.3273 N   0  0  0  0  0  0  0  0  0  0  0  0
   27.0346  -22.4847  -14.7832 C   0  0  0  0  0  0  0  0  0  0  0  0
   25.8917  -22.9927  -14.6027 O   0  0  0  0  0  0  0  0  0  0  0  0
   27.5532  -21.7161  -13.7030 N   0  0  0  0  0  0  0  0  0  0  0  0
   26.8139  -21.5699  -12.4650 C   0  0  1  0  0  0  0  0  0  0  0  0
   27.7527  -21.1633  -11.3286 C   0  0  0  0  0  0  0  0  0  0  0  0
   26.9783  -20.9345  -10.0832 C   0  0  0  0  0  0  0  0  0  0  0  0
   25.6090  -20.9454   -9.9290 C   0  0  0  0  0  0  0  0  0  0  0  0
   25.2955  -20.6920   -8.6335 N   0  0  0  0  0  0  0  0  0  0  0  0
   26.4311  -20.5196   -7.9562 C   0  0  0  0  0  0  0  0  0  0  0  0
   26.6523  -20.2402   -6.6131 C   0  0  0  0  0  0  0  0  0  0  0  0
   27.9504  -20.1059   -6.1478 C   0  0  0  0  0  0  0  0  0  0  0  0
   29.0131  -20.2462   -7.0000 C   0  0  0  0  0  0  0  0  0  0  0  0
   28.7673  -20.5233   -8.3284 C   0  0  0  0  0  0  0  0  0  0  0  0
   27.4966  -20.6655   -8.8364 C   0  0  0  0  0  0  0  0  0  0  0  0
   25.6943  -20.6233  -12.6013 C   0  0  0  0  0  0  0  0  0  0  0  0
   25.9407  -19.4123  -12.8469 O   0  0  0  0  0  0  0  0  0  0  0  0
   23.8760  -19.5335  -15.0292 C   0  0  0  0  0  0  0  0  0  0  0  0
   22.8337  -20.1625  -14.1678 C   0  0  1  0  0  0  0  0  0  0  0  0
   22.6061  -21.4632  -14.5880 O   0  0  0  0  0  0  0  0  0  0  0  0
   23.2256  -20.1018  -12.7053 C   0  0  2  0  0  0  0  0  0  0  0  0
   24.3276  -21.0104  -12.4679 N   0  0  0  0  0  0  0  0  0  0  0  0
   22.0476  -20.5567  -11.9145 C   0  0  0  0  0  0  0  0  0  0  0  0
   20.8620  -19.8597  -11.8327 O   0  0  0  0  0  0  0  0  0  0  0  0
   22.0991  -21.6529  -11.2588 O   0  0  0  0  0  0  0  0  0  0  0  0
  2  1  1  0
  2  3  1  0
  3  4  1  1
  5  3  1  0
  5  6  1  6
  7  5  1  0
  7  8  2  0
  9  7  1  0
 10  9  1  0
 10 11  1  1
 12 11  1  0
 13 12  2  0
 14 13  1  0
 15 14  1  0
 15 20  2  0
 16 15  1  0
 17 16  2  0
 17 18  1  0
 18 19  2  0
 19 20  1  0
 20 12  1  0
 21 10  1  0
 22 21  2  0
 24 23  1  6
 24 25  1  0
 24 26  1  0
 26 27  1  6
 26 28  1  0
 27 21  1  0
 28 29  1  0
 30 28  2  0
M  END
$$$$
