IWT.pdb
     RDKit          3D

 30 31  0  0  1  0  0  0  0  0999 V2000
   26.6065  -21.5191  -18.2800 C   0  0  0  0  0  0  0  0  0  0  0  0
   27.3442  -21.0254  -17.0782 C   0  0  0  0  0  0  0  0  0  0  0  0
   26.5194  -21.0645  -15.8092 C   0  0  2  0  0  0  0  0  0  0  0  0
   26.0641  -19.6561  -15.5023 C   0  0  0  0  0  0  0  0  0  0  0  0
   27.4071  -21.6414  -14.7300 C   0  0  2  0  0  0  0  0  0  0  0  0
   27.6169  -23.0482  -15.1099 N   0  0  0  0  0  0  0  0  0  0  0  0
   26.7925  -21.6368  -13.4040 C   0  0  0  0  0  0  0  0  0  0  0  0
   25.8682  -22.4674  -13.1748 O   0  0  0  0  0  0  0  0  0  0  0  0
   27.1376  -20.7744  -12.3253 N   0  0  0  0  0  0  0  0  0  0  0  0
   26.4074  -20.8111  -11.0739 C   0  0  1  0  0  0  0  0  0  0  0  0
   27.2261  -20.1578   -9.9599 C   0  0  0  0  0  0  0  0  0  0  0  0
   26.5640  -20.3685   -8.6483 C   0  0  0  0  0  0  0  0  0  0  0  0
   25.3343  -20.9422   -8.4083 C   0  0  0  0  0  0  0  0  0  0  0  0
   25.0889  -20.9495   -7.0739 N   0  0  0  0  0  0  0  0  0  0  0  0
   26.1318  -20.3946   -6.4555 C   0  0  0  0  0  0  0  0  0  0  0  0
   26.3697  -20.1675   -5.1055 C   0  0  0  0  0  0  0  0  0  0  0  0
   27.5530  -19.5636   -4.7121 C   0  0  0  0  0  0  0  0  0  0  0  0
   28.4864  -19.1905   -5.6422 C   0  0  0  0  0  0  0  0  0  0  0  0
   28.2268  -19.4267   -6.9758 C   0  0  0  0  0  0  0  0  0  0  0  0
   27.0669  -20.0230   -7.4140 C   0  0  0  0  0  0  0  0  0  0  0  0
   25.0765  -20.1929  -11.1953 C   0  0  0  0  0  0  0  0  0  0  0  0
   24.9923  -18.9628  -11.4544 O   0  0  0  0  0  0  0  0  0  0  0  0
   22.9685  -19.7666  -13.6150 C   0  0  0  0  0  0  0  0  0  0  0  0
   22.1250  -20.5569  -12.6726 C   0  0  1  0  0  0  0  0  0  0  0  0
   22.1683  -21.8972  -13.0219 O   0  0  0  0  0  0  0  0  0  0  0  0
   22.5554  -20.3333  -11.2370 C   0  0  2  0  0  0  0  0  0  0  0  0
   23.8617  -20.9233  -11.0325 N   0  0  0  0  0  0  0  0  0  0  0  0
   21.5692  -21.0340  -10.3674 C   0  0  0  0  0  0  0  0  0  0  0  0
   20.2558  -20.6429  -10.2259 O   0  0  0  0  0  0  0  0  0  0  0  0
   21.9224  -22.0631   -9.6961 O   0  0  0  0  0  0  0  0  0  0  0  0
  2  1  1  0
  2  3  1  0
  3  4  1  1
  5  3  1  0
  5  6  1  6
  7  5  1  0
  7  8  2  0
  9  7  1  0
 10  9  1  0
 10 11  1  1
 12 11  1  0
 13 12  2  0
 14 13  1  0
 15 14  1  0
 15 20  2  0
 16 15  1  0
 17 16  2  0
 17 18  1  0
 18 19  2  0
 19 20  1  0
 20 12  1  0
 21 10  1  0
 22 21  2  0
 24 23  1  6
 24 25  1  0
 24 26  1  0
 26 27  1  6
 26 28  1  0
 27 21  1  0
 28 29  1  0
 30 28  2  0
M  END
$$$$
