IWT.pdb
     RDKit          3D

 30 31  0  0  1  0  0  0  0  0999 V2000
   31.1750  -17.3620  -14.2600 C   0  0  0  0  0  0  0  0  0  0  0  0
   29.7732  -17.2735  -13.7505 C   0  0  0  0  0  0  0  0  0  0  0  0
   29.3023  -18.5385  -13.0647 C   0  0  2  0  0  0  0  0  0  0  0  0
   29.6543  -19.7112  -13.9510 C   0  0  0  0  0  0  0  0  0  0  0  0
   27.8127  -18.3907  -12.8528 C   0  0  2  0  0  0  0  0  0  0  0  0
   27.6540  -17.1704  -12.0446 N   0  0  0  0  0  0  0  0  0  0  0  0
   27.2183  -19.4919  -12.0977 C   0  0  0  0  0  0  0  0  0  0  0  0
   27.4336  -20.6710  -12.4981 O   0  0  0  0  0  0  0  0  0  0  0  0
   26.4064  -19.3664  -10.9352 N   0  0  0  0  0  0  0  0  0  0  0  0
   25.5695  -20.4605  -10.4844 C   0  0  1  0  0  0  0  0  0  0  0  0
   25.1210  -20.2286   -9.0411 C   0  0  0  0  0  0  0  0  0  0  0  0
   26.2398  -19.6697   -8.2418 C   0  0  0  0  0  0  0  0  0  0  0  0
   26.8572  -18.4476   -8.3969 C   0  0  0  0  0  0  0  0  0  0  0  0
   27.8363  -18.3118   -7.4675 N   0  0  0  0  0  0  0  0  0  0  0  0
   27.8594  -19.4173   -6.7223 C   0  0  0  0  0  0  0  0  0  0  0  0
   28.6689  -19.7711   -5.6497 C   0  0  0  0  0  0  0  0  0  0  0  0
   28.4900  -20.9995   -5.0344 C   0  0  0  0  0  0  0  0  0  0  0  0
   27.5239  -21.8642   -5.4750 C   0  0  0  0  0  0  0  0  0  0  0  0
   26.7334  -21.4900   -6.5412 C   0  0  0  0  0  0  0  0  0  0  0  0
   26.8737  -20.2815   -7.1837 C   0  0  0  0  0  0  0  0  0  0  0  0
   24.4180  -20.6759  -11.3765 C   0  0  0  0  0  0  0  0  0  0  0  0
   23.7850  -19.6781  -11.8137 O   0  0  0  0  0  0  0  0  0  0  0  0
   24.3026  -23.3697  -14.3308 C   0  0  0  0  0  0  0  0  0  0  0  0
   23.0960  -23.4666  -13.4597 C   0  0  1  0  0  0  0  0  0  0  0  0
   23.2192  -24.5575  -12.6142 O   0  0  0  0  0  0  0  0  0  0  0  0
   22.8731  -22.1793  -12.6920 C   0  0  2  0  0  0  0  0  0  0  0  0
   23.9757  -21.9720  -11.7766 N   0  0  0  0  0  0  0  0  0  0  0  0
   21.6192  -22.3475  -11.9050 C   0  0  0  0  0  0  0  0  0  0  0  0
   20.3692  -22.4754  -12.4699 O   0  0  0  0  0  0  0  0  0  0  0  0
   21.6623  -22.3799  -10.6277 O   0  0  0  0  0  0  0  0  0  0  0  0
  2  1  1  0
  2  3  1  0
  3  4  1  6
  5  3  1  0
  5  6  1  1
  7  5  1  0
  7  8  2  0
  9  7  1  0
 10  9  1  0
 10 11  1  1
 12 11  1  0
 13 12  2  0
 14 13  1  0
 15 14  1  0
 15 20  2  0
 16 15  1  0
 17 16  2  0
 17 18  1  0
 18 19  2  0
 19 20  1  0
 20 12  1  0
 21 10  1  0
 22 21  2  0
 24 23  1  1
 24 25  1  0
 24 26  1  0
 26 27  1  1
 26 28  1  0
 27 21  1  0
 28 29  1  0
 30 28  2  0
M  END
$$$$
