IWT.pdb
     RDKit          3D

 30 31  0  0  1  0  0  0  0  0999 V2000
   15.3383  -12.6608  -21.5615 C   0  0  0  0  0  0  0  0  0  0  0  0
   16.5586  -12.8070  -20.7119 C   0  0  0  0  0  0  0  0  0  0  0  0
   16.6791  -11.7397  -19.6448 C   0  0  2  0  0  0  0  0  0  0  0  0
   16.8460  -10.4046  -20.3336 C   0  0  0  0  0  0  0  0  0  0  0  0
   17.8694  -12.1106  -18.7898 C   0  0  2  0  0  0  0  0  0  0  0  0
   17.5422  -13.4270  -18.2175 N   0  0  0  0  0  0  0  0  0  0  0  0
   18.0938  -11.1952  -17.6727 C   0  0  0  0  0  0  0  0  0  0  0  0
   17.2653  -11.2081  -16.7186 O   0  0  0  0  0  0  0  0  0  0  0  0
   19.1721  -10.2741  -17.5500 N   0  0  0  0  0  0  0  0  0  0  0  0
   19.2685   -9.3810  -16.4127 C   0  0  1  0  0  0  0  0  0  0  0  0
   20.5527   -9.6532  -15.6286 C   0  0  0  0  0  0  0  0  0  0  0  0
   20.6504   -8.7293  -14.4710 C   0  0  0  0  0  0  0  0  0  0  0  0
   20.0520   -8.8599  -13.2367 C   0  0  0  0  0  0  0  0  0  0  0  0
   20.3891   -7.8041  -12.4542 N   0  0  0  0  0  0  0  0  0  0  0  0
   21.1884   -7.0021  -13.1585 C   0  0  0  0  0  0  0  0  0  0  0  0
   21.7999   -5.8024  -12.8153 C   0  0  0  0  0  0  0  0  0  0  0  0
   22.5974   -5.1519  -13.7429 C   0  0  0  0  0  0  0  0  0  0  0  0
   22.7861   -5.6818  -14.9915 C   0  0  0  0  0  0  0  0  0  0  0  0
   22.1684   -6.8734  -15.3079 C   0  0  0  0  0  0  0  0  0  0  0  0
   21.3680   -7.5554  -14.4206 C   0  0  0  0  0  0  0  0  0  0  0  0
   19.1739   -7.9673  -16.8138 C   0  0  0  0  0  0  0  0  0  0  0  0
   19.8484   -7.5619  -17.7976 O   0  0  0  0  0  0  0  0  0  0  0  0
   16.5227   -5.9137  -18.2883 C   0  0  0  0  0  0  0  0  0  0  0  0
   16.8296   -5.3260  -16.9525 C   0  0  1  0  0  0  0  0  0  0  0  0
   15.9104   -5.7824  -16.0214 O   0  0  0  0  0  0  0  0  0  0  0  0
   18.2542   -5.6318  -16.5365 C   0  0  2  0  0  0  0  0  0  0  0  0
   18.3478   -7.0206  -16.1378 N   0  0  0  0  0  0  0  0  0  0  0  0
   18.5638   -4.7713  -15.3602 C   0  0  0  0  0  0  0  0  0  0  0  0
   18.9244   -3.4449  -15.4526 O   0  0  0  0  0  0  0  0  0  0  0  0
   18.5031   -5.2540  -14.1780 O   0  0  0  0  0  0  0  0  0  0  0  0
  2  1  1  0
  2  3  1  0
  3  4  1  6
  5  3  1  0
  5  6  1  1
  7  5  1  0
  7  8  2  0
  9  7  1  0
 10  9  1  0
 10 11  1  6
 12 11  1  0
 13 12  2  0
 14 13  1  0
 15 14  1  0
 15 20  2  0
 16 15  1  0
 17 16  2  0
 17 18  1  0
 18 19  2  0
 19 20  1  0
 20 12  1  0
 21 10  1  0
 22 21  2  0
 24 23  1  6
 24 25  1  0
 24 26  1  0
 26 27  1  1
 26 28  1  0
 27 21  1  0
 28 29  1  0
 30 28  2  0
M  END
$$$$
