IWT.pdb
     RDKit          3D

 30 31  0  0  1  0  0  0  0  0999 V2000
   28.4688  -18.2244  -15.7916 C   0  0  0  0  0  0  0  0  0  0  0  0
   28.8496  -18.9828  -14.5619 C   0  0  0  0  0  0  0  0  0  0  0  0
   27.6589  -19.4725  -13.7654 C   0  0  2  0  0  0  0  0  0  0  0  0
   26.7885  -18.2798  -13.4419 C   0  0  0  0  0  0  0  0  0  0  0  0
   28.2089  -20.1486  -12.5302 C   0  0  2  0  0  0  0  0  0  0  0  0
   28.9638  -21.3110  -13.0265 N   0  0  0  0  0  0  0  0  0  0  0  0
   27.1735  -20.6548  -11.6314 C   0  0  0  0  0  0  0  0  0  0  0  0
   26.6687  -21.7854  -11.8841 O   0  0  0  0  0  0  0  0  0  0  0  0
   26.6681  -19.9894  -10.4790 N   0  0  0  0  0  0  0  0  0  0  0  0
   25.6066  -20.5724   -9.6828 C   0  0  1  0  0  0  0  0  0  0  0  0
   25.7656  -20.1798   -8.2135 C   0  0  0  0  0  0  0  0  0  0  0  0
   27.1582  -20.4305   -7.7653 C   0  0  0  0  0  0  0  0  0  0  0  0
   28.1959  -20.9630   -8.4990 C   0  0  0  0  0  0  0  0  0  0  0  0
   29.3101  -21.0304   -7.7278 N   0  0  0  0  0  0  0  0  0  0  0  0
   29.0096  -20.5538   -6.5193 C   0  0  0  0  0  0  0  0  0  0  0  0
   29.7936  -20.4083   -5.3813 C   0  0  0  0  0  0  0  0  0  0  0  0
   29.2352  -19.8768   -4.2300 C   0  0  0  0  0  0  0  0  0  0  0  0
   27.9203  -19.4952   -4.2066 C   0  0  0  0  0  0  0  0  0  0  0  0
   27.1632  -19.6497   -5.3489 C   0  0  0  0  0  0  0  0  0  0  0  0
   27.6733  -20.1723   -6.5149 C   0  0  0  0  0  0  0  0  0  0  0  0
   24.2738  -20.2112  -10.1939 C   0  0  0  0  0  0  0  0  0  0  0  0
   23.8957  -19.0111  -10.1286 O   0  0  0  0  0  0  0  0  0  0  0  0
   23.1577  -20.8587  -13.7136 C   0  0  0  0  0  0  0  0  0  0  0  0
   22.1200  -21.4372  -12.8121 C   0  0  1  0  0  0  0  0  0  0  0  0
   22.2887  -22.8102  -12.7297 O   0  0  0  0  0  0  0  0  0  0  0  0
   22.1565  -20.7808  -11.4469 C   0  0  2  0  0  0  0  0  0  0  0  0
   23.3764  -21.1614  -10.7662 N   0  0  0  0  0  0  0  0  0  0  0  0
   20.9926  -21.3020  -10.6764 C   0  0  0  0  0  0  0  0  0  0  0  0
   19.6786  -21.0620  -11.0139 O   0  0  0  0  0  0  0  0  0  0  0  0
   21.1813  -22.0182   -9.6344 O   0  0  0  0  0  0  0  0  0  0  0  0
  2  1  1  0
  2  3  1  0
  3  4  1  1
  5  3  1  0
  5  6  1  6
  7  5  1  0
  7  8  2  0
  9  7  1  0
 10  9  1  0
 10 11  1  1
 12 11  1  0
 13 12  2  0
 14 13  1  0
 15 14  1  0
 15 20  2  0
 16 15  1  0
 17 16  2  0
 17 18  1  0
 18 19  2  0
 19 20  1  0
 20 12  1  0
 21 10  1  0
 22 21  2  0
 24 23  1  6
 24 25  1  0
 24 26  1  0
 26 27  1  1
 26 28  1  0
 27 21  1  0
 28 29  1  0
 30 28  2  0
M  END
$$$$
