IWT.pdb
     RDKit          3D

 30 31  0  0  1  0  0  0  0  0999 V2000
   28.6482  -18.1475  -19.3529 C   0  0  0  0  0  0  0  0  0  0  0  0
   28.3623  -19.1631  -18.2950 C   0  0  0  0  0  0  0  0  0  0  0  0
   27.2507  -18.7525  -17.3528 C   0  0  2  0  0  0  0  0  0  0  0  0
   27.6458  -17.4466  -16.7022 C   0  0  0  0  0  0  0  0  0  0  0  0
   27.0864  -19.8773  -16.3561 C   0  0  2  0  0  0  0  0  0  0  0  0
   26.8383  -21.0815  -17.1660 N   0  0  0  0  0  0  0  0  0  0  0  0
   25.9382  -19.7074  -15.4678 C   0  0  0  0  0  0  0  0  0  0  0  0
   26.0372  -18.8753  -14.5219 O   0  0  0  0  0  0  0  0  0  0  0  0
   24.6973  -20.3980  -15.5638 N   0  0  0  0  0  0  0  0  0  0  0  0
   23.6284  -20.1528  -14.6163 C   0  0  1  0  0  0  0  0  0  0  0  0
   22.2675  -20.3286  -15.2909 C   0  0  0  0  0  0  0  0  0  0  0  0
   21.9600  -19.1481  -16.1366 C   0  0  0  0  0  0  0  0  0  0  0  0
   21.9828  -17.8202  -15.7693 C   0  0  0  0  0  0  0  0  0  0  0  0
   21.6392  -17.0490  -16.8313 N   0  0  0  0  0  0  0  0  0  0  0  0
   21.3974  -17.8517  -17.8682 C   0  0  0  0  0  0  0  0  0  0  0  0
   21.0152  -17.5590  -19.1717 C   0  0  0  0  0  0  0  0  0  0  0  0
   20.8244  -18.5912  -20.0761 C   0  0  0  0  0  0  0  0  0  0  0  0
   21.0095  -19.8934  -19.6949 C   0  0  0  0  0  0  0  0  0  0  0  0
   21.3889  -20.1578  -18.3957 C   0  0  0  0  0  0  0  0  0  0  0  0
   21.5901  -19.1669  -17.4627 C   0  0  0  0  0  0  0  0  0  0  0  0
   23.7482  -21.0025  -13.4197 C   0  0  0  0  0  0  0  0  0  0  0  0
   23.6257  -22.2508  -13.5384 O   0  0  0  0  0  0  0  0  0  0  0  0
   25.5088  -19.5459   -9.9230 C   0  0  0  0  0  0  0  0  0  0  0  0
   25.3955  -21.0040  -10.2150 C   0  0  1  0  0  0  0  0  0  0  0  0
   25.5155  -21.7248   -9.0376 O   0  0  0  0  0  0  0  0  0  0  0  0
   24.1014  -21.3161  -10.9389 C   0  0  2  0  0  0  0  0  0  0  0  0
   23.9987  -20.4794  -12.1161 N   0  0  0  0  0  0  0  0  0  0  0  0
   22.9855  -20.9801  -10.0106 C   0  0  0  0  0  0  0  0  0  0  0  0
   22.7257  -21.6635   -8.8429 O   0  0  0  0  0  0  0  0  0  0  0  0
   22.1996  -20.0075  -10.2769 O   0  0  0  0  0  0  0  0  0  0  0  0
  2  1  1  0
  2  3  1  0
  3  4  1  1
  5  3  1  0
  5  6  1  6
  7  5  1  0
  7  8  2  0
  9  7  1  0
 10  9  1  0
 10 11  1  6
 12 11  1  0
 13 12  2  0
 14 13  1  0
 15 14  1  0
 15 20  2  0
 16 15  1  0
 17 16  2  0
 17 18  1  0
 18 19  2  0
 19 20  1  0
 20 12  1  0
 21 10  1  0
 22 21  2  0
 24 23  1  1
 24 25  1  0
 24 26  1  0
 26 27  1  6
 26 28  1  0
 27 21  1  0
 28 29  1  0
 30 28  2  0
M  END
$$$$
