IWT.pdb
     RDKit          3D

 30 31  0  0  1  0  0  0  0  0999 V2000
   26.8928  -19.3440   -3.7037 C   0  0  0  0  0  0  0  0  0  0  0  0
   27.5162  -19.6447   -5.0278 C   0  0  0  0  0  0  0  0  0  0  0  0
   26.5182  -19.6892   -6.1653 C   0  0  2  0  0  0  0  0  0  0  0  0
   25.4393  -20.6844   -5.8040 C   0  0  0  0  0  0  0  0  0  0  0  0
   27.2878  -20.0840   -7.4052 C   0  0  2  0  0  0  0  0  0  0  0  0
   28.4271  -19.1537   -7.4685 N   0  0  0  0  0  0  0  0  0  0  0  0
   26.5257  -19.9220   -8.6418 C   0  0  0  0  0  0  0  0  0  0  0  0
   26.3209  -18.7486   -9.0638 O   0  0  0  0  0  0  0  0  0  0  0  0
   25.9816  -20.9731   -9.4326 N   0  0  0  0  0  0  0  0  0  0  0  0
   25.4853  -20.7235  -10.7712 C   0  0  1  0  0  0  0  0  0  0  0  0
   26.3086  -21.5015  -11.7984 C   0  0  0  0  0  0  0  0  0  0  0  0
   27.6548  -20.8928  -11.9413 C   0  0  0  0  0  0  0  0  0  0  0  0
   28.0085  -19.8008  -12.7036 C   0  0  0  0  0  0  0  0  0  0  0  0
   29.3366  -19.5606  -12.5648 N   0  0  0  0  0  0  0  0  0  0  0  0
   29.8400  -20.4725  -11.7324 C   0  0  0  0  0  0  0  0  0  0  0  0
   31.1366  -20.6596  -11.2690 C   0  0  0  0  0  0  0  0  0  0  0  0
   31.4064  -21.6996  -10.3941 C   0  0  0  0  0  0  0  0  0  0  0  0
   30.4068  -22.5413   -9.9846 C   0  0  0  0  0  0  0  0  0  0  0  0
   29.1284  -22.3348  -10.4588 C   0  0  0  0  0  0  0  0  0  0  0  0
   28.8125  -21.3164  -11.3282 C   0  0  0  0  0  0  0  0  0  0  0  0
   24.0498  -21.0284  -10.8915 C   0  0  0  0  0  0  0  0  0  0  0  0
   23.5439  -21.9065  -10.1430 O   0  0  0  0  0  0  0  0  0  0  0  0
   21.1019  -18.2792  -11.3763 C   0  0  0  0  0  0  0  0  0  0  0  0
   21.0679  -19.3691  -12.3937 C   0  0  1  0  0  0  0  0  0  0  0  0
   21.6242  -18.9160  -13.5793 O   0  0  0  0  0  0  0  0  0  0  0  0
   21.7643  -20.6140  -11.8826 C   0  0  2  0  0  0  0  0  0  0  0  0
   23.1908  -20.3732  -11.8235 N   0  0  0  0  0  0  0  0  0  0  0  0
   21.5000  -21.7016  -12.8660 C   0  0  0  0  0  0  0  0  0  0  0  0
   20.2659  -22.2848  -13.0529 O   0  0  0  0  0  0  0  0  0  0  0  0
   22.4473  -22.1486  -13.5989 O   0  0  0  0  0  0  0  0  0  0  0  0
  2  1  1  0
  2  3  1  0
  3  4  1  1
  5  3  1  0
  5  6  1  6
  7  5  1  0
  7  8  2  0
  9  7  1  0
 10  9  1  0
 10 11  1  6
 12 11  1  0
 13 12  2  0
 14 13  1  0
 15 14  1  0
 15 20  2  0
 16 15  1  0
 17 16  2  0
 17 18  1  0
 18 19  2  0
 19 20  1  0
 20 12  1  0
 21 10  1  0
 22 21  2  0
 24 23  1  1
 24 25  1  0
 24 26  1  0
 26 27  1  6
 26 28  1  0
 27 21  1  0
 28 29  1  0
 30 28  2  0
M  END
$$$$
