IWT.pdb
     RDKit          3D

 30 31  0  0  1  0  0  0  0  0999 V2000
   26.3521  -20.6868  -18.0494 C   0  0  0  0  0  0  0  0  0  0  0  0
   27.0598  -21.3456  -16.9104 C   0  0  0  0  0  0  0  0  0  0  0  0
   26.2954  -21.2732  -15.6056 C   0  0  2  0  0  0  0  0  0  0  0  0
   26.1055  -19.8155  -15.2536 C   0  0  0  0  0  0  0  0  0  0  0  0
   27.1141  -22.0220  -14.5786 C   0  0  2  0  0  0  0  0  0  0  0  0
   27.0227  -23.4392  -14.9665 N   0  0  0  0  0  0  0  0  0  0  0  0
   26.5900  -21.9093  -13.2190 C   0  0  0  0  0  0  0  0  0  0  0  0
   25.5086  -22.5043  -12.9480 O   0  0  0  0  0  0  0  0  0  0  0  0
   27.1870  -21.1830  -12.1501 N   0  0  0  0  0  0  0  0  0  0  0  0
   26.5160  -21.0425  -10.8732 C   0  0  1  0  0  0  0  0  0  0  0  0
   27.4676  -20.4497   -9.8335 C   0  0  0  0  0  0  0  0  0  0  0  0
   26.7838  -20.3357   -8.5210 C   0  0  0  0  0  0  0  0  0  0  0  0
   25.4741  -20.6447   -8.2243 C   0  0  0  0  0  0  0  0  0  0  0  0
   25.2360  -20.4010   -6.9110 N   0  0  0  0  0  0  0  0  0  0  0  0
   26.3616  -19.9440   -6.3614 C   0  0  0  0  0  0  0  0  0  0  0  0
   26.6403  -19.5529   -5.0575 C   0  0  0  0  0  0  0  0  0  0  0  0
   27.9119  -19.1076   -4.7345 C   0  0  0  0  0  0  0  0  0  0  0  0
   28.8925  -19.0506   -5.6887 C   0  0  0  0  0  0  0  0  0  0  0  0
   28.5909  -19.4442   -6.9756 C   0  0  0  0  0  0  0  0  0  0  0  0
   27.3435  -19.8932   -7.3436 C   0  0  0  0  0  0  0  0  0  0  0  0
   25.2810  -20.2484  -10.9853 C   0  0  0  0  0  0  0  0  0  0  0  0
   25.3602  -18.9914  -11.0173 O   0  0  0  0  0  0  0  0  0  0  0  0
   23.3154  -19.2967  -13.5266 C   0  0  0  0  0  0  0  0  0  0  0  0
   22.3635  -20.0799  -12.6872 C   0  0  1  0  0  0  0  0  0  0  0  0
   22.2686  -21.3733  -13.1753 O   0  0  0  0  0  0  0  0  0  0  0  0
   22.7749  -20.0552  -11.2290 C   0  0  2  0  0  0  0  0  0  0  0  0
   23.9828  -20.8356  -11.0602 N   0  0  0  0  0  0  0  0  0  0  0  0
   21.6765  -20.6939  -10.4507 C   0  0  0  0  0  0  0  0  0  0  0  0
   21.7837  -21.9232   -9.8380 O   0  0  0  0  0  0  0  0  0  0  0  0
   20.5524  -20.0992  -10.3201 O   0  0  0  0  0  0  0  0  0  0  0  0
  2  1  1  0
  2  3  1  0
  3  4  1  1
  5  3  1  0
  5  6  1  6
  7  5  1  0
  7  8  2  0
  9  7  1  0
 10  9  1  0
 10 11  1  1
 12 11  1  0
 13 12  2  0
 14 13  1  0
 15 14  1  0
 15 20  2  0
 16 15  1  0
 17 16  2  0
 17 18  1  0
 18 19  2  0
 19 20  1  0
 20 12  1  0
 21 10  1  0
 22 21  2  0
 24 23  1  6
 24 25  1  0
 24 26  1  0
 26 27  1  6
 26 28  1  0
 27 21  1  0
 28 29  1  0
 30 28  2  0
M  END
$$$$
