DIG.pdb
     RDKit          3D

 21 20  0  0  1  0  0  0  0  0999 V2000
   10.3097  -17.5666   16.8666 N   0  0  0  0  0  0  0  0  0  0  0  0
   10.0379  -18.0122   18.2177 C   0  0  1  0  0  0  0  0  0  0  0  0
   10.9247  -19.1917   18.5418 C   0  0  0  0  0  0  0  0  0  0  0  0
   10.5758  -20.3539   17.6880 C   0  0  0  0  0  0  0  0  0  0  0  0
   11.1847  -20.6091   16.6183 O   0  0  0  0  0  0  0  0  0  0  0  0
   10.2323  -16.8880   19.1567 C   0  0  0  0  0  0  0  0  0  0  0  0
   11.2433  -16.1129   19.0243 O   0  0  0  0  0  0  0  0  0  0  0  0
    9.5412  -21.2129   18.0563 O   0  0  0  0  0  0  0  0  0  0  0  0
    6.3212  -13.4853   20.0185 C   0  0  0  0  0  0  0  0  0  0  0  0
    7.7898  -13.9199   19.8399 C   0  0  0  0  0  0  0  0  0  0  0  0
    8.1740  -14.6864   21.0677 C   0  0  2  0  0  0  0  0  0  0  0  0
    8.0183  -13.7636   22.2627 C   0  0  0  0  0  0  0  0  0  0  0  0
    9.5196  -15.3437   21.0292 C   0  0  2  0  0  0  0  0  0  0  0  0
    9.3640  -16.5885   20.2252 N   0  0  0  0  0  0  0  0  0  0  0  0
   10.0945  -15.6801   22.3442 C   0  0  0  0  0  0  0  0  0  0  0  0
   10.3798  -14.7181   23.1375 O   0  0  0  0  0  0  0  0  0  0  0  0
   10.3659  -16.9728   22.8333 N   0  0  0  0  0  0  0  0  0  0  0  0
   10.8133  -17.2205   24.1965 C   0  0  0  0  0  0  0  0  0  0  0  0
   10.9138  -18.6800   24.4167 C   0  0  0  0  0  0  0  0  0  0  0  0
   10.7144  -19.4968   23.4654 O   0  0  0  0  0  0  0  0  0  0  0  0
   11.2249  -19.2367   25.6480 O   0  0  0  0  0  0  0  0  0  0  0  0
  2  1  1  6
  3  2  1  0
  4  3  1  0
  5  4  2  0
  6  7  2  0
  6  2  1  0
  8  4  1  0
  9 10  1  0
 10 11  1  0
 11 13  1  0
 11 12  1  1
 13 14  1  6
 14  6  1  0
 15 13  1  0
 16 15  2  0
 17 15  1  0
 18 17  1  0
 19 21  1  0
 19 18  1  0
 20 19  2  0
M  END
$$$$
