DIG.pdb
     RDKit          3D

 21 20  0  0  1  0  0  0  0  0999 V2000
    8.1201  -14.7810   20.5881 N   0  0  0  0  0  0  0  0  0  0  0  0
    7.5207  -15.5381   21.6677 C   0  0  1  0  0  0  0  0  0  0  0  0
    7.6117  -17.0130   21.3530 C   0  0  0  0  0  0  0  0  0  0  0  0
    6.8585  -17.3271   20.1138 C   0  0  0  0  0  0  0  0  0  0  0  0
    5.9884  -16.5525   19.6414 O   0  0  0  0  0  0  0  0  0  0  0  0
    8.1858  -15.1930   22.9412 C   0  0  0  0  0  0  0  0  0  0  0  0
    9.4490  -14.9830   22.9655 O   0  0  0  0  0  0  0  0  0  0  0  0
    7.1003  -18.5148   19.4248 O   0  0  0  0  0  0  0  0  0  0  0  0
    6.1591  -11.7310   26.2122 C   0  0  0  0  0  0  0  0  0  0  0  0
    7.2469  -12.5019   25.4377 C   0  0  0  0  0  0  0  0  0  0  0  0
    7.5060  -13.7710   26.1893 C   0  0  2  0  0  0  0  0  0  0  0  0
    8.1697  -13.4079   27.5051 C   0  0  0  0  0  0  0  0  0  0  0  0
    8.2641  -14.8256   25.4427 C   0  0  2  0  0  0  0  0  0  0  0  0
    7.5187  -15.0718   24.1763 N   0  0  0  0  0  0  0  0  0  0  0  0
    8.4427  -16.1006   26.1605 C   0  0  0  0  0  0  0  0  0  0  0  0
    7.3937  -16.7421   26.5132 O   0  0  0  0  0  0  0  0  0  0  0  0
    9.6686  -16.7037   26.5036 N   0  0  0  0  0  0  0  0  0  0  0  0
    9.7576  -18.0513   27.0474 C   0  0  0  0  0  0  0  0  0  0  0  0
   10.3381  -17.9887   28.4068 C   0  0  0  0  0  0  0  0  0  0  0  0
   10.6982  -16.8802   28.9101 O   0  0  0  0  0  0  0  0  0  0  0  0
   10.5219  -19.1110   29.2001 O   0  0  0  0  0  0  0  0  0  0  0  0
  2  1  1  6
  3  2  1  0
  4  3  1  0
  5  4  2  0
  6  7  2  0
  6  2  1  0
  8  4  1  0
  9 10  1  0
 10 11  1  0
 11 13  1  0
 11 12  1  1
 13 14  1  6
 14  6  1  0
 15 13  1  0
 16 15  2  0
 17 15  1  0
 18 17  1  0
 19 21  1  0
 19 18  1  0
 20 19  2  0
M  END
$$$$
