DIG.pdb
     RDKit          3D

 21 20  0  0  1  0  0  0  0  0999 V2000
   11.0221  -16.3383   15.2986 N   0  0  0  0  0  0  0  0  0  0  0  0
   10.2095  -16.8397   16.3878 C   0  0  1  0  0  0  0  0  0  0  0  0
   10.5472  -18.2914   16.6347 C   0  0  0  0  0  0  0  0  0  0  0  0
   10.0601  -19.1355   15.5158 C   0  0  0  0  0  0  0  0  0  0  0  0
   10.8220  -19.5519   14.6069 O   0  0  0  0  0  0  0  0  0  0  0  0
   10.4196  -16.0019   17.5867 C   0  0  0  0  0  0  0  0  0  0  0  0
   11.5815  -15.5244   17.8364 O   0  0  0  0  0  0  0  0  0  0  0  0
    8.7158  -19.4975   15.4403 O   0  0  0  0  0  0  0  0  0  0  0  0
    7.0270  -12.1785   19.0546 C   0  0  0  0  0  0  0  0  0  0  0  0
    8.3527  -12.9159   18.7781 C   0  0  0  0  0  0  0  0  0  0  0  0
    8.5419  -13.9093   19.8826 C   0  0  2  0  0  0  0  0  0  0  0  0
    8.6028  -13.1457   21.1929 C   0  0  0  0  0  0  0  0  0  0  0  0
    9.6959  -14.8506   19.7197 C   0  0  2  0  0  0  0  0  0  0  0  0
    9.4085  -15.6737   18.5114 N   0  0  0  0  0  0  0  0  0  0  0  0
    9.9508  -15.7398   20.8674 C   0  0  0  0  0  0  0  0  0  0  0  0
    9.0519  -16.5970   21.1729 O   0  0  0  0  0  0  0  0  0  0  0  0
   11.1024  -15.7506   21.6784 N   0  0  0  0  0  0  0  0  0  0  0  0
   11.2940  -16.7060   22.7603 C   0  0  0  0  0  0  0  0  0  0  0  0
   12.6471  -16.5276   23.3313 C   0  0  0  0  0  0  0  0  0  0  0  0
   13.5072  -15.7963   22.7505 O   0  0  0  0  0  0  0  0  0  0  0  0
   13.0534  -17.1338   24.5103 O   0  0  0  0  0  0  0  0  0  0  0  0
  2  1  1  6
  3  2  1  0
  4  3  1  0
  5  4  2  0
  6  7  2  0
  6  2  1  0
  8  4  1  0
  9 10  1  0
 10 11  1  0
 11 13  1  0
 11 12  1  1
 13 14  1  6
 14  6  1  0
 15 13  1  0
 16 15  2  0
 17 15  1  0
 18 17  1  0
 19 21  1  0
 19 18  1  0
 20 19  2  0
M  END
$$$$
