DIG.pdb
     RDKit          3D

 21 20  0  0  1  0  0  0  0  0999 V2000
    7.8612  -14.9596   20.3342 N   0  0  0  0  0  0  0  0  0  0  0  0
    7.3788  -15.7033   21.4797 C   0  0  1  0  0  0  0  0  0  0  0  0
    7.5453  -17.1824   21.2201 C   0  0  0  0  0  0  0  0  0  0  0  0
    6.7913  -17.5849   20.0073 C   0  0  0  0  0  0  0  0  0  0  0  0
    5.5357  -17.6400   19.9838 O   0  0  0  0  0  0  0  0  0  0  0  0
    8.0968  -15.2613   22.6931 C   0  0  0  0  0  0  0  0  0  0  0  0
    9.3708  -15.1319   22.6698 O   0  0  0  0  0  0  0  0  0  0  0  0
    7.4689  -17.9201   18.8358 O   0  0  0  0  0  0  0  0  0  0  0  0
    6.0795  -11.6027   25.9921 C   0  0  0  0  0  0  0  0  0  0  0  0
    7.0953  -12.3786   25.1297 C   0  0  0  0  0  0  0  0  0  0  0  0
    7.4762  -13.6068   25.8972 C   0  0  2  0  0  0  0  0  0  0  0  0
    8.1816  -13.1649   27.1664 C   0  0  0  0  0  0  0  0  0  0  0  0
    8.2627  -14.6305   25.1372 C   0  0  2  0  0  0  0  0  0  0  0  0
    7.4708  -14.9596   23.9188 N   0  0  0  0  0  0  0  0  0  0  0  0
    8.5620  -15.8709   25.8753 C   0  0  0  0  0  0  0  0  0  0  0  0
    7.5824  -16.5159   26.3859 O   0  0  0  0  0  0  0  0  0  0  0  0
    9.8356  -16.4366   26.0803 N   0  0  0  0  0  0  0  0  0  0  0  0
   10.0431  -17.6438   26.8672 C   0  0  0  0  0  0  0  0  0  0  0  0
   11.4895  -17.9511   26.9123 C   0  0  0  0  0  0  0  0  0  0  0  0
   12.3174  -17.2894   26.2133 O   0  0  0  0  0  0  0  0  0  0  0  0
   12.0216  -18.9586   27.7026 O   0  0  0  0  0  0  0  0  0  0  0  0
  2  1  1  6
  3  2  1  0
  4  3  1  0
  5  4  2  0
  6  7  2  0
  6  2  1  0
  8  4  1  0
  9 10  1  0
 10 11  1  0
 11 13  1  0
 11 12  1  1
 13 14  1  6
 14  6  1  0
 15 13  1  0
 16 15  2  0
 17 15  1  0
 18 17  1  0
 19 21  1  0
 19 18  1  0
 20 19  2  0
M  END
$$$$
