DIG.pdb
     RDKit          3D

 21 20  0  0  1  0  0  0  0  0999 V2000
   10.3939  -18.1179   17.4396 N   0  0  0  0  0  0  0  0  0  0  0  0
    9.4815  -18.0787   18.5639 C   0  0  1  0  0  0  0  0  0  0  0  0
    9.5497  -19.3922   19.3075 C   0  0  0  0  0  0  0  0  0  0  0  0
    9.0892  -20.5045   18.4402 C   0  0  0  0  0  0  0  0  0  0  0  0
    7.8788  -20.8325   18.3534 O   0  0  0  0  0  0  0  0  0  0  0  0
    9.8117  -16.9261   19.4275 C   0  0  0  0  0  0  0  0  0  0  0  0
   11.0060  -16.4639   19.4467 O   0  0  0  0  0  0  0  0  0  0  0  0
   10.0056  -21.2317   17.6816 O   0  0  0  0  0  0  0  0  0  0  0  0
    6.4400  -12.7732   19.7270 C   0  0  0  0  0  0  0  0  0  0  0  0
    7.7794  -13.5280   19.6091 C   0  0  0  0  0  0  0  0  0  0  0  0
    8.0670  -14.1256   20.9518 C   0  0  2  0  0  0  0  0  0  0  0  0
    8.1576  -12.9928   21.9579 C   0  0  0  0  0  0  0  0  0  0  0  0
    9.2528  -15.0388   21.0164 C   0  0  2  0  0  0  0  0  0  0  0  0
    8.8853  -16.2701   20.2623 N   0  0  0  0  0  0  0  0  0  0  0  0
    9.6894  -15.4096   22.3746 C   0  0  0  0  0  0  0  0  0  0  0  0
   10.1916  -14.4944   23.1138 O   0  0  0  0  0  0  0  0  0  0  0  0
    9.6082  -16.6882   22.9602 N   0  0  0  0  0  0  0  0  0  0  0  0
    9.8897  -16.9280   24.3684 C   0  0  0  0  0  0  0  0  0  0  0  0
   11.3183  -17.2791   24.5247 C   0  0  0  0  0  0  0  0  0  0  0  0
   12.0762  -17.3883   23.5120 O   0  0  0  0  0  0  0  0  0  0  0  0
   11.9078  -17.5063   25.7591 O   0  0  0  0  0  0  0  0  0  0  0  0
  2  1  1  6
  3  2  1  0
  4  3  1  0
  5  4  2  0
  6  7  2  0
  6  2  1  0
  8  4  1  0
  9 10  1  0
 10 11  1  0
 11 13  1  0
 11 12  1  1
 13 14  1  6
 14  6  1  0
 15 13  1  0
 16 15  2  0
 17 15  1  0
 18 17  1  0
 19 21  1  0
 19 18  1  0
 20 19  2  0
M  END
$$$$
