DIG.pdb
     RDKit          3D

 21 20  0  0  1  0  0  0  0  0999 V2000
    7.7227  -13.9820   20.2251 N   0  0  0  0  0  0  0  0  0  0  0  0
    7.5428  -15.0001   21.2396 C   0  0  1  0  0  0  0  0  0  0  0  0
    8.0827  -16.3151   20.7278 C   0  0  0  0  0  0  0  0  0  0  0  0
    7.2422  -16.8243   19.6162 C   0  0  0  0  0  0  0  0  0  0  0  0
    7.5709  -16.6927   18.4100 O   0  0  0  0  0  0  0  0  0  0  0  0
    8.2007  -14.5713   22.4912 C   0  0  0  0  0  0  0  0  0  0  0  0
    9.3703  -14.0509   22.4520 O   0  0  0  0  0  0  0  0  0  0  0  0
    6.0394  -17.4764   19.8844 O   0  0  0  0  0  0  0  0  0  0  0  0
    5.7471  -11.7171   26.0404 C   0  0  0  0  0  0  0  0  0  0  0  0
    6.8612  -12.2714   25.1300 C   0  0  0  0  0  0  0  0  0  0  0  0
    7.4408  -13.4663   25.8221 C   0  0  2  0  0  0  0  0  0  0  0  0
    8.0812  -12.9932   27.1143 C   0  0  0  0  0  0  0  0  0  0  0  0
    8.3715  -14.3053   25.0010 C   0  0  2  0  0  0  0  0  0  0  0  0
    7.6247  -14.6929   23.7713 N   0  0  0  0  0  0  0  0  0  0  0  0
    8.8799  -15.5182   25.6667 C   0  0  0  0  0  0  0  0  0  0  0  0
    8.0317  -16.4071   26.0225 O   0  0  0  0  0  0  0  0  0  0  0  0
   10.2268  -15.8122   25.9561 N   0  0  0  0  0  0  0  0  0  0  0  0
   10.6610  -17.1139   26.4427 C   0  0  0  0  0  0  0  0  0  0  0  0
   10.5954  -17.1261   27.9206 C   0  0  0  0  0  0  0  0  0  0  0  0
   10.1623  -16.1190   28.5610 O   0  0  0  0  0  0  0  0  0  0  0  0
   10.9937  -18.2132   28.6837 O   0  0  0  0  0  0  0  0  0  0  0  0
  2  1  1  6
  3  2  1  0
  4  3  1  0
  5  4  2  0
  6  7  2  0
  6  2  1  0
  8  4  1  0
  9 10  1  0
 10 11  1  0
 11 13  1  0
 11 12  1  1
 13 14  1  6
 14  6  1  0
 15 13  1  0
 16 15  2  0
 17 15  1  0
 18 17  1  0
 19 21  1  0
 19 18  1  0
 20 19  2  0
M  END
$$$$
