DIG.pdb
     RDKit          3D

 21 20  0  0  1  0  0  0  0  0999 V2000
    7.1985  -16.5567   22.3216 N   0  0  0  0  0  0  0  0  0  0  0  0
    8.5121  -15.9720   22.1465 C   0  0  1  0  0  0  0  0  0  0  0  0
    8.4989  -15.0700   20.9345 C   0  0  0  0  0  0  0  0  0  0  0  0
    8.4855  -15.8748   19.6882 C   0  0  0  0  0  0  0  0  0  0  0  0
    9.4173  -16.6630   19.3869 O   0  0  0  0  0  0  0  0  0  0  0  0
    8.9006  -15.2536   23.3778 C   0  0  0  0  0  0  0  0  0  0  0  0
   10.0658  -14.7302   23.4711 O   0  0  0  0  0  0  0  0  0  0  0  0
    7.4168  -15.7770   18.7982 O   0  0  0  0  0  0  0  0  0  0  0  0
    5.6917  -11.8538   25.7742 C   0  0  0  0  0  0  0  0  0  0  0  0
    6.9902  -12.4741   25.2203 C   0  0  0  0  0  0  0  0  0  0  0  0
    7.4274  -13.5229   26.1958 C   0  0  2  0  0  0  0  0  0  0  0  0
    7.7460  -12.8348   27.5106 C   0  0  0  0  0  0  0  0  0  0  0  0
    8.5406  -14.4140   25.7367 C   0  0  2  0  0  0  0  0  0  0  0  0
    8.0626  -15.0917   24.4989 N   0  0  0  0  0  0  0  0  0  0  0  0
    8.9781  -15.4293   26.7118 C   0  0  0  0  0  0  0  0  0  0  0  0
    9.5303  -15.0243   27.7922 O   0  0  0  0  0  0  0  0  0  0  0  0
    8.8477  -16.8259   26.5818 N   0  0  0  0  0  0  0  0  0  0  0  0
    9.1762  -17.7504   27.6574 C   0  0  0  0  0  0  0  0  0  0  0  0
   10.5688  -18.2194   27.4859 C   0  0  0  0  0  0  0  0  0  0  0  0
   11.4995  -17.4042   27.2012 O   0  0  0  0  0  0  0  0  0  0  0  0
   10.9383  -19.5490   27.6217 O   0  0  0  0  0  0  0  0  0  0  0  0
  2  1  1  1
  3  2  1  0
  4  3  1  0
  5  4  2  0
  6  7  2  0
  6  2  1  0
  8  4  1  0
  9 10  1  0
 10 11  1  0
 11 13  1  0
 11 12  1  1
 13 14  1  6
 14  6  1  0
 15 13  1  0
 16 15  2  0
 17 15  1  0
 18 17  1  0
 19 21  1  0
 19 18  1  0
 20 19  2  0
M  END
$$$$
