DIG.pdb
     RDKit          3D

 21 20  0  0  1  0  0  0  0  0999 V2000
    5.3285  -18.1697   22.5648 N   0  0  0  0  0  0  0  0  0  0  0  0
    5.9264  -18.0131   23.8748 C   0  0  1  0  0  0  0  0  0  0  0  0
    6.7440  -19.2412   24.1999 C   0  0  0  0  0  0  0  0  0  0  0  0
    5.8577  -20.4073   24.4372 C   0  0  0  0  0  0  0  0  0  0  0  0
    4.8928  -20.6833   23.6802 O   0  0  0  0  0  0  0  0  0  0  0  0
    6.7342  -16.7761   23.9039 C   0  0  0  0  0  0  0  0  0  0  0  0
    7.4698  -16.4701   22.9012 O   0  0  0  0  0  0  0  0  0  0  0  0
    6.0752  -21.2465   25.5291 O   0  0  0  0  0  0  0  0  0  0  0  0
    5.3918  -12.2648   26.6527 C   0  0  0  0  0  0  0  0  0  0  0  0
    5.9621  -13.0835   25.4771 C   0  0  0  0  0  0  0  0  0  0  0  0
    7.2204  -13.7337   25.9635 C   0  0  2  0  0  0  0  0  0  0  0  0
    8.2263  -12.6379   26.2656 C   0  0  0  0  0  0  0  0  0  0  0  0
    7.7886  -14.7968   25.0741 C   0  0  2  0  0  0  0  0  0  0  0  0
    6.7619  -15.8729   24.9850 N   0  0  0  0  0  0  0  0  0  0  0  0
    9.0671  -15.3771   25.5230 C   0  0  0  0  0  0  0  0  0  0  0  0
    9.1345  -15.8265   26.7187 O   0  0  0  0  0  0  0  0  0  0  0  0
   10.2458  -15.4964   24.7609 N   0  0  0  0  0  0  0  0  0  0  0  0
   11.4785  -16.0526   25.3001 C   0  0  0  0  0  0  0  0  0  0  0  0
   12.5271  -16.0095   24.2575 C   0  0  0  0  0  0  0  0  0  0  0  0
   12.2594  -15.6133   23.0814 O   0  0  0  0  0  0  0  0  0  0  0  0
   13.8396  -16.3905   24.4924 O   0  0  0  0  0  0  0  0  0  0  0  0
  2  1  1  6
  3  2  1  0
  4  3  1  0
  5  4  2  0
  6  7  2  0
  6  2  1  0
  8  4  1  0
  9 10  1  0
 10 11  1  0
 11 13  1  0
 11 12  1  6
 13 14  1  1
 14  6  1  0
 15 13  1  0
 16 15  2  0
 17 15  1  0
 18 17  1  0
 19 21  1  0
 19 18  1  0
 20 19  2  0
M  END
$$$$
