DIG.pdb
     RDKit          3D

 21 20  0  0  1  0  0  0  0  0999 V2000
    7.4891  -15.5368   20.6341 N   0  0  0  0  0  0  0  0  0  0  0  0
    7.0984  -16.0398   21.9350 C   0  0  1  0  0  0  0  0  0  0  0  0
    7.2179  -17.5459   21.9438 C   0  0  0  0  0  0  0  0  0  0  0  0
    6.2731  -18.1476   20.9708 C   0  0  0  0  0  0  0  0  0  0  0  0
    5.9441  -19.3600   21.0150 O   0  0  0  0  0  0  0  0  0  0  0  0
    7.9279  -15.4039   22.9795 C   0  0  0  0  0  0  0  0  0  0  0  0
    9.1447  -15.0936   22.7277 O   0  0  0  0  0  0  0  0  0  0  0  0
    5.7125  -17.3685   19.9596 O   0  0  0  0  0  0  0  0  0  0  0  0
    5.9663  -11.7500   26.2321 C   0  0  0  0  0  0  0  0  0  0  0  0
    6.9557  -12.4743   25.2972 C   0  0  0  0  0  0  0  0  0  0  0  0
    7.6123  -13.5527   26.1025 C   0  0  2  0  0  0  0  0  0  0  0  0
    8.4502  -12.8876   27.1793 C   0  0  0  0  0  0  0  0  0  0  0  0
    8.3921  -14.5648   25.3203 C   0  0  2  0  0  0  0  0  0  0  0  0
    7.4721  -15.1002   24.2777 N   0  0  0  0  0  0  0  0  0  0  0  0
    8.9417  -15.6830   26.1080 C   0  0  0  0  0  0  0  0  0  0  0  0
    8.1620  -16.2782   26.9289 O   0  0  0  0  0  0  0  0  0  0  0  0
   10.2585  -16.1799   26.0505 N   0  0  0  0  0  0  0  0  0  0  0  0
   10.7127  -17.3006   26.8613 C   0  0  0  0  0  0  0  0  0  0  0  0
   12.1219  -17.6020   26.5267 C   0  0  0  0  0  0  0  0  0  0  0  0
   12.7051  -17.0063   25.5691 O   0  0  0  0  0  0  0  0  0  0  0  0
   12.8790  -18.5331   27.2216 O   0  0  0  0  0  0  0  0  0  0  0  0
  2  1  1  6
  3  2  1  0
  4  3  1  0
  5  4  2  0
  6  7  2  0
  6  2  1  0
  8  4  1  0
  9 10  1  0
 10 11  1  0
 11 13  1  0
 11 12  1  1
 13 14  1  6
 14  6  1  0
 15 13  1  0
 16 15  2  0
 17 15  1  0
 18 17  1  0
 19 21  1  0
 19 18  1  0
 20 19  2  0
M  END
$$$$
