DIG.pdb
     RDKit          3D

 21 20  0  0  1  0  0  0  0  0999 V2000
    7.6396  -14.3596   20.2495 N   0  0  0  0  0  0  0  0  0  0  0  0
    7.3402  -15.2242   21.3725 C   0  0  1  0  0  0  0  0  0  0  0  0
    7.7379  -16.6411   21.0309 C   0  0  0  0  0  0  0  0  0  0  0  0
    6.9092  -17.1584   19.9141 C   0  0  0  0  0  0  0  0  0  0  0  0
    5.6657  -17.3123   20.0151 O   0  0  0  0  0  0  0  0  0  0  0  0
    8.0294  -14.7222   22.5793 C   0  0  0  0  0  0  0  0  0  0  0  0
    9.2540  -14.3541   22.5087 O   0  0  0  0  0  0  0  0  0  0  0  0
    7.4992  -17.4950   18.6966 O   0  0  0  0  0  0  0  0  0  0  0  0
    5.7830  -11.4806   26.0805 C   0  0  0  0  0  0  0  0  0  0  0  0
    6.8553  -12.1158   25.1726 C   0  0  0  0  0  0  0  0  0  0  0  0
    7.3601  -13.3374   25.8767 C   0  0  2  0  0  0  0  0  0  0  0  0
    8.0499  -12.8900   27.1526 C   0  0  0  0  0  0  0  0  0  0  0  0
    8.2186  -14.2517   25.0575 C   0  0  2  0  0  0  0  0  0  0  0  0
    7.4265  -14.6117   23.8480 N   0  0  0  0  0  0  0  0  0  0  0  0
    8.6570  -15.4832   25.7389 C   0  0  0  0  0  0  0  0  0  0  0  0
    7.7612  -16.3284   26.0846 O   0  0  0  0  0  0  0  0  0  0  0  0
    9.9830  -15.8391   26.0537 N   0  0  0  0  0  0  0  0  0  0  0  0
   10.3527  -17.1706   26.5121 C   0  0  0  0  0  0  0  0  0  0  0  0
   10.5431  -17.1434   27.9790 C   0  0  0  0  0  0  0  0  0  0  0  0
   10.3449  -16.0785   28.6412 O   0  0  0  0  0  0  0  0  0  0  0  0
   10.9412  -18.2537   28.7080 O   0  0  0  0  0  0  0  0  0  0  0  0
  2  1  1  6
  3  2  1  0
  4  3  1  0
  5  4  2  0
  6  7  2  0
  6  2  1  0
  8  4  1  0
  9 10  1  0
 10 11  1  0
 11 13  1  0
 11 12  1  1
 13 14  1  6
 14  6  1  0
 15 13  1  0
 16 15  2  0
 17 15  1  0
 18 17  1  0
 19 21  1  0
 19 18  1  0
 20 19  2  0
M  END
$$$$
