RKN.pdb
     RDKit          3D

 29 28  0  0  1  0  0  0  0  0999 V2000
    9.0723  -15.1052   17.1589 N   0  0  0  0  0  0  0  0  0  0  0  0
    8.5501  -13.8393   16.8094 C   0  0  0  0  0  0  0  0  0  0  0  0
    7.9819  -13.6831   15.6612 N   0  0  0  0  0  0  0  0  0  0  0  0
    8.6145  -12.6920   17.6723 N   0  0  0  0  0  0  0  0  0  0  0  0
    7.9578  -12.6214   18.9254 C   0  0  0  0  0  0  0  0  0  0  0  0
    7.4421  -13.9194   19.4173 C   0  0  0  0  0  0  0  0  0  0  0  0
    8.0214  -14.3949   20.6846 C   0  0  0  0  0  0  0  0  0  0  0  0
    8.7739  -15.6838   20.6610 C   0  0  2  0  0  0  0  0  0  0  0  0
    7.8785  -16.7804   21.0030 N   0  0  0  0  0  0  0  0  0  0  0  0
    9.8665  -15.6542   21.6949 C   0  0  0  0  0  0  0  0  0  0  0  0
   10.7623  -14.8030   21.5886 O   0  0  0  0  0  0  0  0  0  0  0  0
    7.6874  -12.7684   15.2850 N   0  0  0  0  0  0  0  0  0  0  0  0
    9.8583  -16.5785   22.7528 C   0  0  1  0  0  0  0  0  0  0  0  0
   10.9738  -16.5555   23.7058 C   0  0  0  0  0  0  0  0  0  0  0  0
   10.7084  -17.5963   24.7817 C   0  0  0  0  0  0  0  0  0  0  0  0
   11.7435  -17.5902   25.8265 C   0  0  0  0  0  0  0  0  0  0  0  0
   11.4346  -18.6326   26.8889 C   0  0  0  0  0  0  0  0  0  0  0  0
   12.4536  -18.5395   27.9844 N   0  0  0  0  0  0  0  0  0  0  0  0
   12.0508  -19.4910   29.0211 C   0  0  0  0  0  0  0  0  0  0  0  0
   12.2431  -16.8438   23.0389 O   0  0  0  0  0  0  0  0  0  0  0  0
   12.3879  -17.9399   22.4444 N   0  0  0  0  0  0  0  0  0  0  0  0
   13.2957  -13.8276   19.9665 C   0  0  0  0  0  0  0  0  0  0  0  0
   14.0007  -15.0237   20.2405 O   0  0  0  0  0  0  0  0  0  0  0  0
   13.8872  -15.9842   19.4647 C   0  0  0  0  0  0  0  0  0  0  0  0
   14.8450  -15.0968   21.4313 C   0  0  2  0  0  0  0  0  0  0  0  0
   14.5391  -16.2077   22.3898 N   0  0  0  0  0  0  0  0  0  0  0  0
   13.2900  -15.8705   23.0793 C   0  0  0  0  0  0  0  0  0  0  0  0
   15.5436  -16.3618   23.4741 O   0  0  0  0  0  0  0  0  0  0  0  0
   15.1841  -16.2429   24.7966 O   0  0  0  0  0  0  0  0  0  0  0  0
  2  1  1  0
  3  2  2  0
  4  2  1  0
  5  4  1  0
  6  5  1  0
  7  6  1  0
  8  7  1  0
  8  9  1  1
 10  8  1  0
 10 11  2  0
 12 10  1  0
 13 12  1  0
 13 14  1  6
 15 14  1  0
 16 17  1  0
 16 15  1  0
 18 17  1  0
 19 13  1  0
 20 19  2  0
 22 23  2  0
 22 21  1  0
 24 22  1  0
 25 24  1  6
 25 26  1  0
 26 19  1  0
 27 28  1  0
 27 25  1  0
 29 27  2  0
M  END
$$$$
