RKN.pdb
     RDKit          3D

 29 28  0  0  1  0  0  0  0  0999 V2000
    9.3288  -12.7788   18.3466 N   0  0  0  0  0  0  0  0  0  0  0  0
    8.1816  -13.3620   17.7626 C   0  0  0  0  0  0  0  0  0  0  0  0
    7.8067  -12.9833   16.5872 N   0  0  0  0  0  0  0  0  0  0  0  0
    7.3910  -14.3717   18.4110 N   0  0  0  0  0  0  0  0  0  0  0  0
    7.8668  -15.1640   19.4846 C   0  0  0  0  0  0  0  0  0  0  0  0
    9.0461  -15.9955   19.1526 C   0  0  0  0  0  0  0  0  0  0  0  0
    9.9208  -16.3401   20.2857 C   0  0  0  0  0  0  0  0  0  0  0  0
    9.3719  -17.2537   21.3307 C   0  0  2  0  0  0  0  0  0  0  0  0
    7.9211  -17.3132   21.2167 N   0  0  0  0  0  0  0  0  0  0  0  0
    9.6953  -16.7155   22.6979 C   0  0  0  0  0  0  0  0  0  0  0  0
   10.8659  -16.3898   22.9468 O   0  0  0  0  0  0  0  0  0  0  0  0
    8.2763  -12.2416   16.0448 N   0  0  0  0  0  0  0  0  0  0  0  0
    8.6813  -16.5906   23.6622 C   0  0  1  0  0  0  0  0  0  0  0  0
    9.0594  -16.1899   25.0221 C   0  0  0  0  0  0  0  0  0  0  0  0
    7.8546  -15.5411   25.6846 C   0  0  0  0  0  0  0  0  0  0  0  0
    7.7825  -14.0976   25.4123 C   0  0  0  0  0  0  0  0  0  0  0  0
    6.6489  -13.4624   26.2009 C   0  0  0  0  0  0  0  0  0  0  0  0
    6.6863  -11.9759   26.0111 N   0  0  0  0  0  0  0  0  0  0  0  0
    5.5522  -11.4241   26.7539 C   0  0  0  0  0  0  0  0  0  0  0  0
    9.4975  -17.3423   25.8088 O   0  0  0  0  0  0  0  0  0  0  0  0
    9.3677  -18.4958   25.3307 N   0  0  0  0  0  0  0  0  0  0  0  0
   12.3917  -20.3885   28.5688 C   0  0  0  0  0  0  0  0  0  0  0  0
   12.7325  -19.7440   27.3559 O   0  0  0  0  0  0  0  0  0  0  0  0
   13.7550  -20.0969   26.7497 C   0  0  0  0  0  0  0  0  0  0  0  0
   11.8708  -18.6784   26.8480 C   0  0  1  0  0  0  0  0  0  0  0  0
   10.7333  -18.2708   27.7346 N   0  0  0  0  0  0  0  0  0  0  0  0
   10.0636  -17.1289   27.1045 C   0  0  0  0  0  0  0  0  0  0  0  0
   11.1575  -17.7748   29.0697 O   0  0  0  0  0  0  0  0  0  0  0  0
   11.2723  -18.6303   30.1409 O   0  0  0  0  0  0  0  0  0  0  0  0
  2  1  1  0
  3  2  2  0
  4  2  1  0
  5  4  1  0
  6  5  1  0
  7  6  1  0
  8  7  1  0
  8  9  1  1
 10  8  1  0
 10 11  2  0
 12 10  1  0
 13 12  1  0
 13 14  1  1
 15 14  1  0
 16 17  1  0
 16 15  1  0
 18 17  1  0
 19 13  1  0
 20 19  2  0
 22 23  2  0
 22 21  1  0
 24 22  1  0
 25 24  1  6
 25 26  1  0
 26 19  1  0
 27 28  1  0
 27 25  1  0
 29 27  2  0
M  END
$$$$
