RKN.pdb
     RDKit          3D

 29 28  0  0  1  0  0  0  0  0999 V2000
    8.1151  -15.3721   16.4978 N   0  0  0  0  0  0  0  0  0  0  0  0
    7.7965  -14.0174   16.2517 C   0  0  0  0  0  0  0  0  0  0  0  0
    7.7439  -13.5894   15.0354 N   0  0  0  0  0  0  0  0  0  0  0  0
    7.5220  -13.0679   17.2949 N   0  0  0  0  0  0  0  0  0  0  0  0
    7.9319  -13.2465   18.6390 C   0  0  0  0  0  0  0  0  0  0  0  0
    7.0670  -14.1566   19.4242 C   0  0  0  0  0  0  0  0  0  0  0  0
    7.5647  -14.5080   20.7645 C   0  0  0  0  0  0  0  0  0  0  0  0
    8.2889  -15.8045   20.9159 C   0  0  2  0  0  0  0  0  0  0  0  0
    7.5874  -16.8467   20.1788 N   0  0  0  0  0  0  0  0  0  0  0  0
    8.3075  -16.2109   22.3644 C   0  0  0  0  0  0  0  0  0  0  0  0
    8.8272  -15.4449   23.1899 O   0  0  0  0  0  0  0  0  0  0  0  0
    7.6042  -12.5995   14.7795 N   0  0  0  0  0  0  0  0  0  0  0  0
    7.7439  -17.4360   22.7580 C   0  0  1  0  0  0  0  0  0  0  0  0
    7.9558  -17.8883   24.1377 C   0  0  0  0  0  0  0  0  0  0  0  0
    7.2942  -19.2469   24.3051 C   0  0  0  0  0  0  0  0  0  0  0  0
    7.4086  -19.7536   25.6810 C   0  0  0  0  0  0  0  0  0  0  0  0
    6.6924  -21.0872   25.8193 C   0  0  0  0  0  0  0  0  0  0  0  0
    6.9170  -21.6289   27.1988 N   0  0  0  0  0  0  0  0  0  0  0  0
    6.1855  -22.8939   27.2828 C   0  0  0  0  0  0  0  0  0  0  0  0
    9.3817  -17.9894   24.4464 O   0  0  0  0  0  0  0  0  0  0  0  0
   10.1775  -18.3653   23.5512 N   0  0  0  0  0  0  0  0  0  0  0  0
   12.3807  -16.3897   22.9300 C   0  0  0  0  0  0  0  0  0  0  0  0
   12.7522  -16.9574   24.1719 O   0  0  0  0  0  0  0  0  0  0  0  0
   13.7351  -17.7114   24.2226 C   0  0  0  0  0  0  0  0  0  0  0  0
   11.9677  -16.6408   25.3638 C   0  0  2  0  0  0  0  0  0  0  0  0
   11.2730  -17.7941   26.0221 N   0  0  0  0  0  0  0  0  0  0  0  0
    9.8369  -17.6578   25.7609 C   0  0  0  0  0  0  0  0  0  0  0  0
   11.3920  -17.8035   27.5033 O   0  0  0  0  0  0  0  0  0  0  0  0
   12.5664  -18.1704   28.1187 O   0  0  0  0  0  0  0  0  0  0  0  0
  2  1  1  0
  3  2  2  0
  4  2  1  0
  5  4  1  0
  6  5  1  0
  7  6  1  0
  8  7  1  0
  8  9  1  6
 10  8  1  0
 10 11  2  0
 12 10  1  0
 13 12  1  0
 13 14  1  1
 15 14  1  0
 16 17  1  0
 16 15  1  0
 18 17  1  0
 19 13  1  0
 20 19  2  0
 22 23  2  0
 22 21  1  0
 24 22  1  0
 25 24  1  6
 25 26  1  0
 26 19  1  0
 27 28  1  0
 27 25  1  0
 29 27  2  0
M  END
$$$$
