RKN.pdb
     RDKit          3D

 29 28  0  0  1  0  0  0  0  0999 V2000
    6.1155  -15.1015   13.7594 N   0  0  0  0  0  0  0  0  0  0  0  0
    6.6638  -13.9111   13.2306 C   0  0  0  0  0  0  0  0  0  0  0  0
    6.2186  -13.4514   12.1099 N   0  0  0  0  0  0  0  0  0  0  0  0
    7.7082  -13.1661   13.8780 N   0  0  0  0  0  0  0  0  0  0  0  0
    8.5567  -13.7149   14.8707 C   0  0  0  0  0  0  0  0  0  0  0  0
    7.8418  -14.3832   15.9820 C   0  0  0  0  0  0  0  0  0  0  0  0
    8.3916  -14.1444   17.3268 C   0  0  0  0  0  0  0  0  0  0  0  0
    9.3465  -15.1532   17.8733 C   0  0  2  0  0  0  0  0  0  0  0  0
    9.1388  -16.4337   17.2111 N   0  0  0  0  0  0  0  0  0  0  0  0
    9.0866  -15.3569   19.3411 C   0  0  0  0  0  0  0  0  0  0  0  0
    9.2712  -14.4054   20.1150 O   0  0  0  0  0  0  0  0  0  0  0  0
    6.5426  -12.5710   11.6800 N   0  0  0  0  0  0  0  0  0  0  0  0
    8.6444  -16.6052   19.8101 C   0  0  1  0  0  0  0  0  0  0  0  0
    8.5971  -16.8272   21.2597 C   0  0  0  0  0  0  0  0  0  0  0  0
    7.7027  -18.0258   21.5335 C   0  0  0  0  0  0  0  0  0  0  0  0
    6.5268  -18.0533   20.6507 C   0  0  0  0  0  0  0  0  0  0  0  0
    5.6762  -19.2808   20.9339 C   0  0  0  0  0  0  0  0  0  0  0  0
    4.5189  -19.3112   19.9817 N   0  0  0  0  0  0  0  0  0  0  0  0
    3.7547  -20.5233   20.2806 C   0  0  0  0  0  0  0  0  0  0  0  0
    9.9341  -17.0723   21.7995 O   0  0  0  0  0  0  0  0  0  0  0  0
   10.7075  -17.8516   21.1907 N   0  0  0  0  0  0  0  0  0  0  0  0
   13.1575  -14.3231   20.9910 C   0  0  0  0  0  0  0  0  0  0  0  0
   13.2101  -15.4539   21.8402 O   0  0  0  0  0  0  0  0  0  0  0  0
   13.8550  -16.4503   21.4816 C   0  0  0  0  0  0  0  0  0  0  0  0
   12.5027  -15.4191   23.1186 C   0  0  2  0  0  0  0  0  0  0  0  0
   11.7053  -16.6399   23.4650 N   0  0  0  0  0  0  0  0  0  0  0  0
   10.3299  -16.4187   23.0082 C   0  0  0  0  0  0  0  0  0  0  0  0
   11.5868  -16.8881   24.9254 O   0  0  0  0  0  0  0  0  0  0  0  0
   12.5917  -17.5187   25.6218 O   0  0  0  0  0  0  0  0  0  0  0  0
  2  1  1  0
  3  2  2  0
  4  2  1  0
  5  4  1  0
  6  5  1  0
  7  6  1  0
  8  7  1  0
  8  9  1  6
 10  8  1  0
 10 11  2  0
 12 10  1  0
 13 12  1  0
 13 14  1  1
 15 14  1  0
 16 17  1  0
 16 15  1  0
 18 17  1  0
 19 13  1  0
 20 19  2  0
 22 23  2  0
 22 21  1  0
 24 22  1  0
 25 24  1  6
 25 26  1  0
 26 19  1  0
 27 28  1  0
 27 25  1  0
 29 27  2  0
M  END
$$$$
