RKN.pdb
     RDKit          3D

 29 28  0  0  1  0  0  0  0  0999 V2000
    8.0417  -12.7981   13.1166 N   0  0  0  0  0  0  0  0  0  0  0  0
    7.0331  -13.6719   13.5818 C   0  0  0  0  0  0  0  0  0  0  0  0
    5.7933  -13.3615   13.4025 N   0  0  0  0  0  0  0  0  0  0  0  0
    7.3095  -14.9104   14.2561 N   0  0  0  0  0  0  0  0  0  0  0  0
    8.3105  -15.0511   15.2485 C   0  0  0  0  0  0  0  0  0  0  0  0
    8.5000  -13.8525   16.0972 C   0  0  0  0  0  0  0  0  0  0  0  0
    9.8042  -13.7515   16.7731 C   0  0  0  0  0  0  0  0  0  0  0  0
   10.3944  -15.0048   17.3289 C   0  0  2  0  0  0  0  0  0  0  0  0
    9.3601  -16.0235   17.4466 N   0  0  0  0  0  0  0  0  0  0  0  0
   10.9314  -14.7454   18.7102 C   0  0  0  0  0  0  0  0  0  0  0  0
   11.6858  -13.7761   18.8822 O   0  0  0  0  0  0  0  0  0  0  0  0
    5.0032  -13.9574   13.6948 N   0  0  0  0  0  0  0  0  0  0  0  0
   10.5764  -15.5928   19.7730 C   0  0  1  0  0  0  0  0  0  0  0  0
   11.2658  -15.4248   21.0573 C   0  0  0  0  0  0  0  0  0  0  0  0
   10.4885  -16.1812   22.1227 C   0  0  0  0  0  0  0  0  0  0  0  0
   11.1166  -16.0742   23.4482 C   0  0  0  0  0  0  0  0  0  0  0  0
   10.3531  -16.9029   24.4684 C   0  0  0  0  0  0  0  0  0  0  0  0
   10.9920  -16.7419   25.8148 N   0  0  0  0  0  0  0  0  0  0  0  0
   10.2760  -17.6281   26.7336 C   0  0  0  0  0  0  0  0  0  0  0  0
   12.6364  -15.9306   20.9901 O   0  0  0  0  0  0  0  0  0  0  0  0
   12.8354  -17.1149   20.6241 N   0  0  0  0  0  0  0  0  0  0  0  0
   15.4564  -13.2780   18.4170 C   0  0  0  0  0  0  0  0  0  0  0  0
   15.7068  -14.5297   19.0279 O   0  0  0  0  0  0  0  0  0  0  0  0
   15.7575  -15.5479   18.3222 C   0  0  0  0  0  0  0  0  0  0  0  0
   15.8992  -14.5909   20.4754 C   0  0  2  0  0  0  0  0  0  0  0  0
   15.0746  -15.6054   21.2083 N   0  0  0  0  0  0  0  0  0  0  0  0
   13.7184  -15.0648   21.3429 C   0  0  0  0  0  0  0  0  0  0  0  0
   15.5255  -15.8553   22.6021 O   0  0  0  0  0  0  0  0  0  0  0  0
   16.6227  -16.6433   22.8624 O   0  0  0  0  0  0  0  0  0  0  0  0
  2  1  1  0
  3  2  2  0
  4  2  1  0
  5  4  1  0
  6  5  1  0
  7  6  1  0
  8  7  1  0
  8  9  1  1
 10  8  1  0
 10 11  2  0
 12 10  1  0
 13 12  1  0
 13 14  1  1
 15 14  1  0
 16 17  1  0
 16 15  1  0
 18 17  1  0
 19 13  1  0
 20 19  2  0
 22 23  2  0
 22 21  1  0
 24 22  1  0
 25 24  1  6
 25 26  1  0
 26 19  1  0
 27 28  1  0
 27 25  1  0
 29 27  2  0
M  END
$$$$
