RKN.pdb
     RDKit          3D

 29 28  0  0  1  0  0  0  0  0999 V2000
    9.4082  -13.4222   10.5069 N   0  0  0  0  0  0  0  0  0  0  0  0
   10.6845  -13.2300    9.9310 C   0  0  0  0  0  0  0  0  0  0  0  0
   10.7789  -12.6750    8.7698 N   0  0  0  0  0  0  0  0  0  0  0  0
   11.9086  -13.6230   10.5731 N   0  0  0  0  0  0  0  0  0  0  0  0
   12.0637  -13.6923   11.9794 C   0  0  0  0  0  0  0  0  0  0  0  0
   10.8185  -14.0100   12.7150 C   0  0  0  0  0  0  0  0  0  0  0  0
   10.9632  -14.1695   14.1715 C   0  0  0  0  0  0  0  0  0  0  0  0
    9.7608  -14.6017   14.9432 C   0  0  2  0  0  0  0  0  0  0  0  0
    8.7564  -13.5472   14.9168 N   0  0  0  0  0  0  0  0  0  0  0  0
   10.1354  -14.8321   16.3821 C   0  0  0  0  0  0  0  0  0  0  0  0
   10.2903  -13.8479   17.1208 O   0  0  0  0  0  0  0  0  0  0  0  0
   11.6742  -12.4133    8.3285 N   0  0  0  0  0  0  0  0  0  0  0  0
   10.3028  -16.1410   16.8639 C   0  0  2  0  0  0  0  0  0  0  0  0
   10.7505  -16.3208   18.2497 C   0  0  0  0  0  0  0  0  0  0  0  0
    9.9996  -17.4994   18.8484 C   0  0  0  0  0  0  0  0  0  0  0  0
   10.3994  -17.7630   20.2390 C   0  0  0  0  0  0  0  0  0  0  0  0
    9.7662  -19.0505   20.7407 C   0  0  0  0  0  0  0  0  0  0  0  0
   10.1553  -19.2684   22.1718 N   0  0  0  0  0  0  0  0  0  0  0  0
    9.4262  -20.4499   22.6352 C   0  0  0  0  0  0  0  0  0  0  0  0
   12.1907  -16.5673   18.3107 O   0  0  0  0  0  0  0  0  0  0  0  0
   12.6820  -17.5012   17.6307 N   0  0  0  0  0  0  0  0  0  0  0  0
   15.2108  -12.7467   17.4816 C   0  0  0  0  0  0  0  0  0  0  0  0
   15.2557  -14.1494   17.6630 O   0  0  0  0  0  0  0  0  0  0  0  0
   15.3766  -14.8842   16.6716 C   0  0  0  0  0  0  0  0  0  0  0  0
   15.1582  -14.6971   19.0146 C   0  0  2  0  0  0  0  0  0  0  0  0
   14.4471  -16.0099   19.1449 N   0  0  0  0  0  0  0  0  0  0  0  0
   13.0064  -15.7389   19.1434 C   0  0  0  0  0  0  0  0  0  0  0  0
   14.7024  -16.7085   20.4314 O   0  0  0  0  0  0  0  0  0  0  0  0
   13.6741  -16.9975   21.2982 O   0  0  0  0  0  0  0  0  0  0  0  0
  2  1  1  0
  3  2  2  0
  4  2  1  0
  5  4  1  0
  6  5  1  0
  7  6  1  0
  8  7  1  0
  8  9  1  1
 10  8  1  0
 10 11  2  0
 12 10  1  0
 13 12  1  0
 13 14  1  6
 15 14  1  0
 16 17  1  0
 16 15  1  0
 18 17  1  0
 19 13  1  0
 20 19  2  0
 22 23  2  0
 22 21  1  0
 24 22  1  0
 25 24  1  6
 25 26  1  0
 26 19  1  0
 27 28  1  0
 27 25  1  0
 29 27  2  0
M  END
$$$$
