RKN.pdb
     RDKit          3D

 29 28  0  0  1  0  0  0  0  0999 V2000
    7.6890  -13.5008   17.0402 N   0  0  0  0  0  0  0  0  0  0  0  0
    7.0314  -13.1383   18.2375 C   0  0  0  0  0  0  0  0  0  0  0  0
    6.4863  -11.9724   18.3334 N   0  0  0  0  0  0  0  0  0  0  0  0
    6.9305  -14.0067   19.3780 N   0  0  0  0  0  0  0  0  0  0  0  0
    7.7264  -15.1662   19.5477 C   0  0  0  0  0  0  0  0  0  0  0  0
    8.9893  -14.9358   20.2857 C   0  0  0  0  0  0  0  0  0  0  0  0
    8.8953  -15.0298   21.7520 C   0  0  0  0  0  0  0  0  0  0  0  0
    9.7143  -16.0760   22.4323 C   0  0  2  0  0  0  0  0  0  0  0  0
    9.6733  -17.3099   21.6596 N   0  0  0  0  0  0  0  0  0  0  0  0
    9.1351  -16.3735   23.7886 C   0  0  0  0  0  0  0  0  0  0  0  0
    8.9050  -15.4275   24.5571 O   0  0  0  0  0  0  0  0  0  0  0  0
    5.9662  -11.6472   19.1631 N   0  0  0  0  0  0  0  0  0  0  0  0
    8.8660  -17.7007   24.1623 C   0  0  1  0  0  0  0  0  0  0  0  0
    8.3816  -17.9560   25.5237 C   0  0  0  0  0  0  0  0  0  0  0  0
    7.9911  -19.4217   25.6280 C   0  0  0  0  0  0  0  0  0  0  0  0
    7.5434  -19.7812   26.9820 C   0  0  0  0  0  0  0  0  0  0  0  0
    7.1452  -21.2470   27.0401 C   0  0  0  0  0  0  0  0  0  0  0  0
    6.5485  -21.5448   28.3825 N   0  0  0  0  0  0  0  0  0  0  0  0
    6.0220  -22.9091   28.3202 C   0  0  0  0  0  0  0  0  0  0  0  0
    9.4096  -17.6446   26.5161 O   0  0  0  0  0  0  0  0  0  0  0  0
   10.5589  -18.1314   26.3816 N   0  0  0  0  0  0  0  0  0  0  0  0
    9.3179  -12.9712   27.7771 C   0  0  0  0  0  0  0  0  0  0  0  0
   10.2006  -14.0741   27.8607 O   0  0  0  0  0  0  0  0  0  0  0  0
   11.0974  -14.1969   27.0133 C   0  0  0  0  0  0  0  0  0  0  0  0
   10.0330  -15.0410   28.9437 C   0  0  2  0  0  0  0  0  0  0  0  0
   10.1583  -16.4854   28.5640 N   0  0  0  0  0  0  0  0  0  0  0  0
    9.0821  -16.7927   27.6170 C   0  0  0  0  0  0  0  0  0  0  0  0
    9.9508  -17.4262   29.6955 O   0  0  0  0  0  0  0  0  0  0  0  0
   10.8410  -17.4841   30.7427 O   0  0  0  0  0  0  0  0  0  0  0  0
  2  1  1  0
  3  2  2  0
  4  2  1  0
  5  4  1  0
  6  5  1  0
  7  6  1  0
  8  7  1  0
  8  9  1  6
 10  8  1  0
 10 11  2  0
 12 10  1  0
 13 12  1  0
 13 14  1  1
 15 14  1  0
 16 17  1  0
 16 15  1  0
 18 17  1  0
 19 13  1  0
 20 19  2  0
 22 23  2  0
 22 21  1  0
 24 22  1  0
 25 24  1  6
 25 26  1  0
 26 19  1  0
 27 28  1  0
 27 25  1  0
 29 27  2  0
M  END
$$$$
