RKN.pdb
     RDKit          3D

 29 28  0  0  1  0  0  0  0  0999 V2000
    9.0171  -15.3733   17.4508 N   0  0  0  0  0  0  0  0  0  0  0  0
    8.5090  -14.4000   16.5608 C   0  0  0  0  0  0  0  0  0  0  0  0
    9.0561  -14.2546   15.4010 N   0  0  0  0  0  0  0  0  0  0  0  0
    7.3976  -13.5451   16.8750 N   0  0  0  0  0  0  0  0  0  0  0  0
    6.7504  -13.5394   18.1351 C   0  0  0  0  0  0  0  0  0  0  0  0
    7.6288  -13.1736   19.2697 C   0  0  0  0  0  0  0  0  0  0  0  0
    7.8071  -14.2132   20.2969 C   0  0  0  0  0  0  0  0  0  0  0  0
    9.1740  -14.3939   20.8687 C   0  0  2  0  0  0  0  0  0  0  0  0
   10.0462  -14.9994   19.8717 N   0  0  0  0  0  0  0  0  0  0  0  0
    9.1141  -15.3308   22.0444 C   0  0  0  0  0  0  0  0  0  0  0  0
    8.3818  -15.0373   23.0015 O   0  0  0  0  0  0  0  0  0  0  0  0
    8.7293  -13.5803   14.6915 N   0  0  0  0  0  0  0  0  0  0  0  0
    9.8778  -16.5099   22.0432 C   0  0  1  0  0  0  0  0  0  0  0  0
    9.9280  -17.3080   23.2735 C   0  0  0  0  0  0  0  0  0  0  0  0
   10.7881  -18.5349   23.0159 C   0  0  0  0  0  0  0  0  0  0  0  0
   10.8374  -19.4319   24.1803 C   0  0  0  0  0  0  0  0  0  0  0  0
   11.6179  -20.6934   23.8486 C   0  0  0  0  0  0  0  0  0  0  0  0
   11.7018  -21.5588   25.0697 N   0  0  0  0  0  0  0  0  0  0  0  0
   12.5054  -22.7274   24.7079 C   0  0  0  0  0  0  0  0  0  0  0  0
   10.4869  -16.5341   24.3815 O   0  0  0  0  0  0  0  0  0  0  0  0
   11.5855  -15.9469   24.2262 N   0  0  0  0  0  0  0  0  0  0  0  0
    9.1000  -12.7343   28.6760 C   0  0  0  0  0  0  0  0  0  0  0  0
    9.9050  -13.8230   28.2642 O   0  0  0  0  0  0  0  0  0  0  0  0
   10.9135  -14.1134   28.9244 C   0  0  0  0  0  0  0  0  0  0  0  0
    9.5275  -14.5777   27.0709 C   0  0  1  0  0  0  0  0  0  0  0  0
   10.4085  -15.7375   26.7176 N   0  0  0  0  0  0  0  0  0  0  0  0
    9.7691  -16.4641   25.6164 C   0  0  0  0  0  0  0  0  0  0  0  0
   10.5495  -16.7404   27.8051 O   0  0  0  0  0  0  0  0  0  0  0  0
    9.5410  -17.6345   28.0810 O   0  0  0  0  0  0  0  0  0  0  0  0
  2  1  1  0
  3  2  2  0
  4  2  1  0
  5  4  1  0
  6  5  1  0
  7  6  1  0
  8  7  1  0
  8  9  1  6
 10  8  1  0
 10 11  2  0
 12 10  1  0
 13 12  1  0
 13 14  1  6
 15 14  1  0
 16 17  1  0
 16 15  1  0
 18 17  1  0
 19 13  1  0
 20 19  2  0
 22 23  2  0
 22 21  1  0
 24 22  1  0
 25 24  1  6
 25 26  1  0
 26 19  1  0
 27 28  1  0
 27 25  1  0
 29 27  2  0
M  END
$$$$
