RKN.pdb
     RDKit          3D

 29 28  0  0  1  0  0  0  0  0999 V2000
   16.5071  -13.9282   18.9364 N   0  0  0  0  0  0  0  0  0  0  0  0
   15.9352  -14.1867   17.6701 C   0  0  0  0  0  0  0  0  0  0  0  0
   14.8688  -13.5526   17.3148 N   0  0  0  0  0  0  0  0  0  0  0  0
   16.4800  -15.1319   16.7348 N   0  0  0  0  0  0  0  0  0  0  0  0
   15.8878  -15.4164   15.4798 C   0  0  0  0  0  0  0  0  0  0  0  0
   14.8477  -16.4695   15.5214 C   0  0  0  0  0  0  0  0  0  0  0  0
   13.5219  -16.0743   15.0175 C   0  0  0  0  0  0  0  0  0  0  0  0
   12.4342  -17.0958   15.0565 C   0  0  2  0  0  0  0  0  0  0  0  0
   11.1929  -16.5087   14.5707 N   0  0  0  0  0  0  0  0  0  0  0  0
   12.2000  -17.5358   16.4760 C   0  0  0  0  0  0  0  0  0  0  0  0
   11.6770  -16.7366   17.2674 O   0  0  0  0  0  0  0  0  0  0  0  0
   14.3568  -13.7347   16.4376 N   0  0  0  0  0  0  0  0  0  0  0  0
   12.5716  -18.8284   16.8817 C   0  0  2  0  0  0  0  0  0  0  0  0
   12.3618  -19.2051   18.2842 C   0  0  0  0  0  0  0  0  0  0  0  0
   12.7460  -20.6665   18.4521 C   0  0  0  0  0  0  0  0  0  0  0  0
   12.4256  -21.1733   19.7950 C   0  0  0  0  0  0  0  0  0  0  0  0
   12.8620  -22.6225   19.9360 C   0  0  0  0  0  0  0  0  0  0  0  0
   12.4259  -23.1428   21.2724 N   0  0  0  0  0  0  0  0  0  0  0  0
   12.8907  -24.5279   21.3613 C   0  0  0  0  0  0  0  0  0  0  0  0
   13.1667  -18.3745   19.1793 O   0  0  0  0  0  0  0  0  0  0  0  0
   14.1165  -17.7046   18.7050 N   0  0  0  0  0  0  0  0  0  0  0  0
   12.3193  -13.6431   19.8019 C   0  0  0  0  0  0  0  0  0  0  0  0
   13.0064  -14.7268   20.3985 O   0  0  0  0  0  0  0  0  0  0  0  0
   14.1740  -14.5650   20.7829 C   0  0  0  0  0  0  0  0  0  0  0  0
   12.3225  -16.0100   20.5466 C   0  0  2  0  0  0  0  0  0  0  0  0
   13.0758  -17.0785   21.2793 N   0  0  0  0  0  0  0  0  0  0  0  0
   12.8533  -18.3445   20.5742 C   0  0  0  0  0  0  0  0  0  0  0  0
   12.5867  -17.3208   22.6615 O   0  0  0  0  0  0  0  0  0  0  0  0
   11.3714  -17.9241   22.8887 O   0  0  0  0  0  0  0  0  0  0  0  0
  2  1  1  0
  3  2  2  0
  4  2  1  0
  5  4  1  0
  6  5  1  0
  7  6  1  0
  8  7  1  0
  8  9  1  1
 10  8  1  0
 10 11  2  0
 12 10  1  0
 13 12  1  0
 13 14  1  6
 15 14  1  0
 16 17  1  0
 16 15  1  0
 18 17  1  0
 19 13  1  0
 20 19  2  0
 22 23  2  0
 22 21  1  0
 24 22  1  0
 25 24  1  6
 25 26  1  0
 26 19  1  0
 27 28  1  0
 27 25  1  0
 29 27  2  0
M  END
$$$$
