RKN.pdb
     RDKit          3D

 29 28  0  0  1  0  0  0  0  0999 V2000
    8.2727  -14.3661   17.7129 N   0  0  0  0  0  0  0  0  0  0  0  0
    8.6134  -13.2539   18.5156 C   0  0  0  0  0  0  0  0  0  0  0  0
    9.7420  -12.6574   18.3262 N   0  0  0  0  0  0  0  0  0  0  0  0
    7.7621  -12.7361   19.5511 N   0  0  0  0  0  0  0  0  0  0  0  0
    6.8441  -13.5340   20.2771 C   0  0  0  0  0  0  0  0  0  0  0  0
    7.0739  -14.9917   20.1548 C   0  0  0  0  0  0  0  0  0  0  0  0
    7.3612  -15.6983   21.4141 C   0  0  0  0  0  0  0  0  0  0  0  0
    6.3201  -16.6314   21.9371 C   0  0  2  0  0  0  0  0  0  0  0  0
    5.0542  -15.9248   22.0767 N   0  0  0  0  0  0  0  0  0  0  0  0
    6.7162  -17.1217   23.3033 C   0  0  0  0  0  0  0  0  0  0  0  0
    6.4462  -16.4183   24.2885 O   0  0  0  0  0  0  0  0  0  0  0  0
   10.0204  -11.7874   18.8062 N   0  0  0  0  0  0  0  0  0  0  0  0
    7.3779  -18.3529   23.4436 C   0  0  2  0  0  0  0  0  0  0  0  0
    7.9092  -18.7111   24.7637 C   0  0  0  0  0  0  0  0  0  0  0  0
    7.5901  -20.1736   25.0296 C   0  0  0  0  0  0  0  0  0  0  0  0
    8.0903  -20.6213   26.3382 C   0  0  0  0  0  0  0  0  0  0  0  0
    7.7567  -22.0870   26.5634 C   0  0  0  0  0  0  0  0  0  0  0  0
    8.2933  -22.5177   27.8951 N   0  0  0  0  0  0  0  0  0  0  0  0
    8.0514  -23.9571   28.0053 C   0  0  0  0  0  0  0  0  0  0  0  0
    9.3550  -18.4996   24.8253 O   0  0  0  0  0  0  0  0  0  0  0  0
   10.0093  -18.4231   23.7566 N   0  0  0  0  0  0  0  0  0  0  0  0
   12.8676  -15.6792   23.5555 C   0  0  0  0  0  0  0  0  0  0  0  0
   12.6664  -16.8448   24.3323 O   0  0  0  0  0  0  0  0  0  0  0  0
   13.3417  -17.8564   24.0915 C   0  0  0  0  0  0  0  0  0  0  0  0
   11.6675  -16.8272   25.3990 C   0  0  2  0  0  0  0  0  0  0  0  0
   11.4336  -18.1280   26.1056 N   0  0  0  0  0  0  0  0  0  0  0  0
    9.9902  -18.3848   26.1013 C   0  0  0  0  0  0  0  0  0  0  0  0
   11.8135  -18.1104   27.5422 O   0  0  0  0  0  0  0  0  0  0  0  0
   10.8692  -18.2803   28.5281 O   0  0  0  0  0  0  0  0  0  0  0  0
  2  1  1  0
  3  2  2  0
  4  2  1  0
  5  4  1  0
  6  5  1  0
  7  6  1  0
  8  7  1  0
  8  9  1  1
 10  8  1  0
 10 11  2  0
 12 10  1  0
 13 12  1  0
 13 14  1  6
 15 14  1  0
 16 17  1  0
 16 15  1  0
 18 17  1  0
 19 13  1  0
 20 19  2  0
 22 23  2  0
 22 21  1  0
 24 22  1  0
 25 24  1  6
 25 26  1  0
 26 19  1  0
 27 28  1  0
 27 25  1  0
 29 27  2  0
M  END
$$$$
