EHS.pdb
     RDKit          3D

 26 26  0  0  1  0  0  0  0  0999 V2000
   11.7685  -17.0616   14.7711 N   0  0  0  0  0  0  0  0  0  0  0  0
   10.9747  -17.6700   15.8063 C   0  0  1  0  0  0  0  0  0  0  0  0
   11.4030  -19.1126   15.8714 C   0  0  0  0  0  0  0  0  0  0  0  0
   12.8217  -19.3556   16.2158 C   0  0  0  0  0  0  0  0  0  0  0  0
   13.1769  -20.7787   16.2187 C   0  0  0  0  0  0  0  0  0  0  0  0
   14.3077  -21.2424   16.4959 O   0  0  0  0  0  0  0  0  0  0  0  0
   11.0812  -17.0442   17.1098 C   0  0  0  0  0  0  0  0  0  0  0  0
   12.1201  -16.4017   17.4023 O   0  0  0  0  0  0  0  0  0  0  0  0
   12.2007  -21.7459   15.8893 O   0  0  0  0  0  0  0  0  0  0  0  0
   10.0762  -17.0962   18.1222 N   0  0  0  0  0  0  0  0  0  0  0  0
   10.1976  -16.4426   19.4052 C   0  0  1  0  0  0  0  0  0  0  0  0
    8.8505  -16.0285   19.9549 C   0  0  0  0  0  0  0  0  0  0  0  0
    8.3328  -14.7910   19.3593 C   0  0  0  0  0  0  0  0  0  0  0  0
    8.9448  -13.9939   18.4192 C   0  0  0  0  0  0  0  0  0  0  0  0
    8.1298  -12.9387   18.1305 N   0  0  0  0  0  0  0  0  0  0  0  0
    7.0246  -13.0790   18.8828 C   0  0  0  0  0  0  0  0  0  0  0  0
    7.1541  -14.1980   19.6209 N   0  0  0  0  0  0  0  0  0  0  0  0
   10.9594  -17.3268   20.3218 C   0  0  0  0  0  0  0  0  0  0  0  0
   10.7336  -18.5678   20.3620 O   0  0  0  0  0  0  0  0  0  0  0  0
   14.8174  -17.1450   21.4263 O   0  0  0  0  0  0  0  0  0  0  0  0
   13.9522  -17.0430   22.4928 C   0  0  0  0  0  0  0  0  0  0  0  0
   12.6125  -17.7279   22.1766 C   0  0  2  0  0  0  0  0  0  0  0  0
   11.9771  -16.8449   21.2001 N   0  0  0  0  0  0  0  0  0  0  0  0
   11.8388  -17.7172   23.4174 C   0  0  0  0  0  0  0  0  0  0  0  0
   12.1691  -18.5178   24.4999 O   0  0  0  0  0  0  0  0  0  0  0  0
   10.8407  -16.9652   23.5232 O   0  0  0  0  0  0  0  0  0  0  0  0
  2  1  1  6
  2  7  1  0
  3  2  1  0
  4  3  1  0
  4  5  1  0
  5  6  2  0
  7  8  2  0
  9  5  1  0
 10  7  1  0
 10 11  1  0
 11 12  1  1
 12 13  1  0
 13 17  1  0
 13 14  2  0
 14 15  1  0
 16 15  1  0
 17 16  2  0
 18 11  1  0
 18 19  2  0
 20 21  1  0
 22 21  1  1
 22 23  1  0
 23 18  1  0
 24 22  1  0
 24 25  1  0
 26 24  2  0
M  END
$$$$
