EHS.pdb
     RDKit          3D

 26 26  0  0  1  0  0  0  0  0999 V2000
   11.5628  -15.2971   16.4506 N   0  0  0  0  0  0  0  0  0  0  0  0
   12.0407  -16.0608   17.5731 C   0  0  1  0  0  0  0  0  0  0  0  0
   13.5443  -16.0391   17.4867 C   0  0  0  0  0  0  0  0  0  0  0  0
   14.1413  -14.8586   16.8233 C   0  0  0  0  0  0  0  0  0  0  0  0
   15.5977  -14.9559   16.6784 C   0  0  0  0  0  0  0  0  0  0  0  0
   16.4353  -14.6484   17.5585 O   0  0  0  0  0  0  0  0  0  0  0  0
   11.5948  -15.5910   18.8703 C   0  0  0  0  0  0  0  0  0  0  0  0
   12.1389  -14.5804   19.3805 O   0  0  0  0  0  0  0  0  0  0  0  0
   16.1519  -15.4288   15.4677 O   0  0  0  0  0  0  0  0  0  0  0  0
   10.5581  -16.1960   19.6429 N   0  0  0  0  0  0  0  0  0  0  0  0
   10.0603  -15.6477   20.8836 C   0  0  1  0  0  0  0  0  0  0  0  0
    8.5842  -15.3266   20.8041 C   0  0  0  0  0  0  0  0  0  0  0  0
    8.2556  -14.3467   19.7620 C   0  0  0  0  0  0  0  0  0  0  0  0
    8.2767  -12.9746   19.8657 C   0  0  0  0  0  0  0  0  0  0  0  0
    7.9051  -12.4312   18.6708 N   0  0  0  0  0  0  0  0  0  0  0  0
    7.6561  -13.4542   17.8350 C   0  0  0  0  0  0  0  0  0  0  0  0
    7.8696  -14.6057   18.4998 N   0  0  0  0  0  0  0  0  0  0  0  0
   10.4001  -16.5789   21.9880 C   0  0  0  0  0  0  0  0  0  0  0  0
   10.2980  -17.8277   21.8377 O   0  0  0  0  0  0  0  0  0  0  0  0
   13.0133  -17.0552   25.8166 O   0  0  0  0  0  0  0  0  0  0  0  0
   11.9639  -16.2925   25.3544 C   0  0  0  0  0  0  0  0  0  0  0  0
   11.1146  -17.0852   24.3474 C   0  0  2  0  0  0  0  0  0  0  0  0
   10.8561  -16.1354   23.2666 N   0  0  0  0  0  0  0  0  0  0  0  0
    9.8587  -17.4039   25.0252 C   0  0  0  0  0  0  0  0  0  0  0  0
    9.7582  -18.4355   25.9458 O   0  0  0  0  0  0  0  0  0  0  0  0
    8.8288  -16.7323   24.7776 O   0  0  0  0  0  0  0  0  0  0  0  0
  2  1  1  6
  2  7  1  0
  3  2  1  0
  4  3  1  0
  4  5  1  0
  5  6  2  0
  7  8  2  0
  9  5  1  0
 10  7  1  0
 10 11  1  0
 11 12  1  6
 12 13  1  0
 13 17  1  0
 13 14  2  0
 14 15  1  0
 16 15  1  0
 17 16  2  0
 18 11  1  0
 18 19  2  0
 20 21  1  0
 22 21  1  1
 22 23  1  0
 23 18  1  0
 24 22  1  0
 24 25  1  0
 26 24  2  0
M  END
$$$$
