EHS.pdb
     RDKit          3D

 26 26  0  0  1  0  0  0  0  0999 V2000
   12.9363  -15.5851   17.3478 N   0  0  0  0  0  0  0  0  0  0  0  0
   13.6178  -15.5005   18.6128 C   0  0  1  0  0  0  0  0  0  0  0  0
   14.7017  -14.4693   18.4382 C   0  0  0  0  0  0  0  0  0  0  0  0
   15.8239  -14.8482   17.5509 C   0  0  0  0  0  0  0  0  0  0  0  0
   16.8878  -13.8394   17.5068 C   0  0  0  0  0  0  0  0  0  0  0  0
   17.4371  -13.3219   18.5074 O   0  0  0  0  0  0  0  0  0  0  0  0
   12.7736  -15.1705   19.7444 C   0  0  0  0  0  0  0  0  0  0  0  0
   13.2630  -15.1763   20.9012 O   0  0  0  0  0  0  0  0  0  0  0  0
   17.3678  -13.3804   16.2596 O   0  0  0  0  0  0  0  0  0  0  0  0
   11.3905  -14.8287   19.6559 N   0  0  0  0  0  0  0  0  0  0  0  0
   10.4614  -14.9598   20.7547 C   0  0  1  0  0  0  0  0  0  0  0  0
    9.1206  -15.4900   20.2971 C   0  0  0  0  0  0  0  0  0  0  0  0
    8.4079  -14.5753   19.3973 C   0  0  0  0  0  0  0  0  0  0  0  0
    8.3303  -14.6416   18.0250 C   0  0  0  0  0  0  0  0  0  0  0  0
    7.5715  -13.6030   17.5705 N   0  0  0  0  0  0  0  0  0  0  0  0
    7.1825  -12.9000   18.6483 C   0  0  0  0  0  0  0  0  0  0  0  0
    7.6905  -13.4922   19.7459 N   0  0  0  0  0  0  0  0  0  0  0  0
   11.0891  -15.7868   21.8151 C   0  0  0  0  0  0  0  0  0  0  0  0
   12.0218  -16.5919   21.5425 O   0  0  0  0  0  0  0  0  0  0  0  0
    9.5683  -15.5712   25.4908 O   0  0  0  0  0  0  0  0  0  0  0  0
   10.8830  -15.9788   25.5327 C   0  0  0  0  0  0  0  0  0  0  0  0
   11.3072  -16.5938   24.1890 C   0  0  2  0  0  0  0  0  0  0  0  0
   10.6901  -15.7285   23.1851 N   0  0  0  0  0  0  0  0  0  0  0  0
   10.6956  -17.9207   24.1292 C   0  0  0  0  0  0  0  0  0  0  0  0
   11.1014  -18.9580   24.9544 O   0  0  0  0  0  0  0  0  0  0  0  0
    9.7724  -18.1452   23.3105 O   0  0  0  0  0  0  0  0  0  0  0  0
  2  1  1  6
  2  7  1  0
  3  2  1  0
  4  3  1  0
  4  5  1  0
  5  6  2  0
  7  8  2  0
  9  5  1  0
 10  7  1  0
 10 11  1  0
 11 12  1  6
 12 13  1  0
 13 17  1  0
 13 14  2  0
 14 15  1  0
 16 15  1  0
 17 16  2  0
 18 11  1  0
 18 19  2  0
 20 21  1  0
 22 21  1  1
 22 23  1  0
 23 18  1  0
 24 22  1  0
 24 25  1  0
 26 24  2  0
M  END
$$$$
