EHS.pdb
     RDKit          3D

 26 26  0  0  1  0  0  0  0  0999 V2000
    9.9935  -17.4813   18.2044 N   0  0  0  0  0  0  0  0  0  0  0  0
   10.1168  -18.1288   19.4839 C   0  0  1  0  0  0  0  0  0  0  0  0
   11.3327  -19.0130   19.3922 C   0  0  0  0  0  0  0  0  0  0  0  0
   12.3791  -18.5840   18.4376 C   0  0  0  0  0  0  0  0  0  0  0  0
   13.5214  -19.5026   18.3857 C   0  0  0  0  0  0  0  0  0  0  0  0
   13.7163  -20.3668   17.4993 O   0  0  0  0  0  0  0  0  0  0  0  0
   10.2191  -17.2322   20.6188 C   0  0  0  0  0  0  0  0  0  0  0  0
   11.2309  -16.4970   20.7343 O   0  0  0  0  0  0  0  0  0  0  0  0
   14.5105  -19.4492   19.3935 O   0  0  0  0  0  0  0  0  0  0  0  0
    9.2390  -17.1081   21.6491 N   0  0  0  0  0  0  0  0  0  0  0  0
    9.3636  -16.2019   22.7676 C   0  0  1  0  0  0  0  0  0  0  0  0
    8.1646  -15.2872   22.8864 C   0  0  0  0  0  0  0  0  0  0  0  0
    7.9574  -14.4407   21.7054 C   0  0  0  0  0  0  0  0  0  0  0  0
    6.9505  -14.5363   20.7724 C   0  0  0  0  0  0  0  0  0  0  0  0
    7.1184  -13.5610   19.8334 N   0  0  0  0  0  0  0  0  0  0  0  0
    8.2169  -12.8679   20.1796 C   0  0  0  0  0  0  0  0  0  0  0  0
    8.7173  -13.4039   21.3091 N   0  0  0  0  0  0  0  0  0  0  0  0
    9.6233  -16.9923   23.9965 C   0  0  0  0  0  0  0  0  0  0  0  0
    9.0109  -18.0743   24.2129 O   0  0  0  0  0  0  0  0  0  0  0  0
   12.7743  -18.2894   27.2839 O   0  0  0  0  0  0  0  0  0  0  0  0
   12.3677  -17.5123   26.2222 C   0  0  0  0  0  0  0  0  0  0  0  0
   10.8335  -17.4344   26.1584 C   0  0  2  0  0  0  0  0  0  0  0  0
   10.5629  -16.5920   24.9946 N   0  0  0  0  0  0  0  0  0  0  0  0
   10.4032  -16.7404   27.3715 C   0  0  0  0  0  0  0  0  0  0  0  0
   10.5046  -17.3183   28.6275 O   0  0  0  0  0  0  0  0  0  0  0  0
    9.9244  -15.5840   27.2915 O   0  0  0  0  0  0  0  0  0  0  0  0
  2  1  1  6
  2  7  1  0
  3  2  1  0
  4  3  1  0
  4  5  1  0
  5  6  2  0
  7  8  2  0
  9  5  1  0
 10  7  1  0
 10 11  1  0
 11 12  1  1
 12 13  1  0
 13 17  1  0
 13 14  2  0
 14 15  1  0
 16 15  1  0
 17 16  2  0
 18 11  1  0
 18 19  2  0
 20 21  1  0
 22 21  1  1
 22 23  1  0
 23 18  1  0
 24 22  1  0
 24 25  1  0
 26 24  2  0
M  END
$$$$
