EHS.pdb
     RDKit          3D

 26 26  0  0  1  0  0  0  0  0999 V2000
   13.0442  -14.5810   15.3795 N   0  0  0  0  0  0  0  0  0  0  0  0
   12.6685  -15.6102   16.3129 C   0  0  1  0  0  0  0  0  0  0  0  0
   13.7055  -16.6947   16.1826 C   0  0  0  0  0  0  0  0  0  0  0  0
   15.1124  -16.2765   16.3727 C   0  0  0  0  0  0  0  0  0  0  0  0
   16.0535  -17.4015   16.3581 C   0  0  0  0  0  0  0  0  0  0  0  0
   16.6284  -17.8779   17.3647 O   0  0  0  0  0  0  0  0  0  0  0  0
   12.5508  -15.1762   17.6913 C   0  0  0  0  0  0  0  0  0  0  0  0
   13.3243  -14.2871   18.1260 O   0  0  0  0  0  0  0  0  0  0  0  0
   16.3713  -18.0342   15.1353 O   0  0  0  0  0  0  0  0  0  0  0  0
   11.6022  -15.6874   18.6275 N   0  0  0  0  0  0  0  0  0  0  0  0
   11.4273  -15.1575   19.9604 C   0  0  1  0  0  0  0  0  0  0  0  0
    9.9822  -15.2165   20.4036 C   0  0  0  0  0  0  0  0  0  0  0  0
    9.1074  -14.2985   19.6645 C   0  0  0  0  0  0  0  0  0  0  0  0
    9.4758  -13.3706   18.7175 C   0  0  0  0  0  0  0  0  0  0  0  0
    8.3618  -12.7208   18.2727 N   0  0  0  0  0  0  0  0  0  0  0  0
    7.3138  -13.2394   18.9360 C   0  0  0  0  0  0  0  0  0  0  0  0
    7.7711  -14.1899   19.7733 N   0  0  0  0  0  0  0  0  0  0  0  0
   12.3531  -15.8634   20.8806 C   0  0  0  0  0  0  0  0  0  0  0  0
   12.4352  -17.1227   20.8777 O   0  0  0  0  0  0  0  0  0  0  0  0
   15.9387  -14.6085   21.7138 O   0  0  0  0  0  0  0  0  0  0  0  0
   15.2866  -14.9076   22.8893 C   0  0  0  0  0  0  0  0  0  0  0  0
   14.1495  -15.9125   22.6426 C   0  0  2  0  0  0  0  0  0  0  0  0
   13.1956  -15.1814   21.8104 N   0  0  0  0  0  0  0  0  0  0  0  0
   13.5474  -16.1852   23.9470 C   0  0  0  0  0  0  0  0  0  0  0  0
   14.2094  -16.9057   24.9291 O   0  0  0  0  0  0  0  0  0  0  0  0
   12.3952  -15.7609   24.2027 O   0  0  0  0  0  0  0  0  0  0  0  0
  2  1  1  6
  2  7  1  0
  3  2  1  0
  4  3  1  0
  4  5  1  0
  5  6  2  0
  7  8  2  0
  9  5  1  0
 10  7  1  0
 10 11  1  0
 11 12  1  1
 12 13  1  0
 13 17  1  0
 13 14  2  0
 14 15  1  0
 16 15  1  0
 17 16  2  0
 18 11  1  0
 18 19  2  0
 20 21  1  0
 22 21  1  1
 22 23  1  0
 23 18  1  0
 24 22  1  0
 24 25  1  0
 26 24  2  0
M  END
$$$$
