EHS.pdb
     RDKit          3D

 26 26  0  0  1  0  0  0  0  0999 V2000
   10.4630  -18.9983   17.8131 N   0  0  0  0  0  0  0  0  0  0  0  0
   11.5387  -18.0965   18.1317 C   0  0  1  0  0  0  0  0  0  0  0  0
   11.7925  -17.2883   16.8863 C   0  0  0  0  0  0  0  0  0  0  0  0
   11.1829  -17.8039   15.6402 C   0  0  0  0  0  0  0  0  0  0  0  0
   11.5774  -17.0432   14.4497 C   0  0  0  0  0  0  0  0  0  0  0  0
   10.8790  -16.8967   13.4195 O   0  0  0  0  0  0  0  0  0  0  0  0
   11.2959  -17.2273   19.2665 C   0  0  0  0  0  0  0  0  0  0  0  0
   12.2283  -16.5073   19.7023 O   0  0  0  0  0  0  0  0  0  0  0  0
   12.8373  -16.4046   14.4112 O   0  0  0  0  0  0  0  0  0  0  0  0
   10.0498  -17.1146   19.9536 N   0  0  0  0  0  0  0  0  0  0  0  0
    9.8315  -16.2315   21.0763 C   0  0  1  0  0  0  0  0  0  0  0  0
    8.4417  -15.6345   21.0601 C   0  0  0  0  0  0  0  0  0  0  0  0
    8.2501  -14.6312   20.0061 C   0  0  0  0  0  0  0  0  0  0  0  0
    9.1679  -14.2149   19.0690 C   0  0  0  0  0  0  0  0  0  0  0  0
    8.5933  -13.2687   18.2717 N   0  0  0  0  0  0  0  0  0  0  0  0
    7.3334  -13.0996   18.7087 C   0  0  0  0  0  0  0  0  0  0  0  0
    7.1337  -13.9243   19.7545 N   0  0  0  0  0  0  0  0  0  0  0  0
   10.1410  -16.9652   22.3286 C   0  0  0  0  0  0  0  0  0  0  0  0
    9.6222  -18.0910   22.5655 O   0  0  0  0  0  0  0  0  0  0  0  0
   13.6774  -17.1110   24.0065 O   0  0  0  0  0  0  0  0  0  0  0  0
   12.7346  -16.7509   24.9435 C   0  0  0  0  0  0  0  0  0  0  0  0
   11.3369  -17.2368   24.5263 C   0  0  2  0  0  0  0  0  0  0  0  0
   11.0272  -16.4593   23.3277 N   0  0  0  0  0  0  0  0  0  0  0  0
   10.4261  -16.8525   25.6038 C   0  0  0  0  0  0  0  0  0  0  0  0
   10.4519  -17.4670   26.8462 O   0  0  0  0  0  0  0  0  0  0  0  0
    9.5877  -15.9389   25.4153 O   0  0  0  0  0  0  0  0  0  0  0  0
  2  1  1  6
  2  7  1  0
  3  2  1  0
  4  3  1  0
  4  5  1  0
  5  6  2  0
  7  8  2  0
  9  5  1  0
 10  7  1  0
 10 11  1  0
 11 12  1  1
 12 13  1  0
 13 17  1  0
 13 14  2  0
 14 15  1  0
 16 15  1  0
 17 16  2  0
 18 11  1  0
 18 19  2  0
 20 21  1  0
 22 21  1  1
 22 23  1  0
 23 18  1  0
 24 22  1  0
 24 25  1  0
 26 24  2  0
M  END
$$$$
