EHS.pdb
     RDKit          3D

 26 26  0  0  1  0  0  0  0  0999 V2000
    9.4495  -12.9420   16.7793 N   0  0  0  0  0  0  0  0  0  0  0  0
    8.1342  -13.4313   17.0993 C   0  0  1  0  0  0  0  0  0  0  0  0
    7.5472  -13.9353   15.8070 C   0  0  0  0  0  0  0  0  0  0  0  0
    8.2588  -15.0628   15.1647 C   0  0  0  0  0  0  0  0  0  0  0  0
    7.5509  -15.5991   13.9974 C   0  0  0  0  0  0  0  0  0  0  0  0
    7.2451  -16.8022   13.8254 O   0  0  0  0  0  0  0  0  0  0  0  0
    8.0935  -14.4626   18.1177 C   0  0  0  0  0  0  0  0  0  0  0  0
    6.9886  -14.9621   18.4455 O   0  0  0  0  0  0  0  0  0  0  0  0
    7.1599  -14.7300   12.9540 O   0  0  0  0  0  0  0  0  0  0  0  0
    9.2359  -14.9764   18.8021 N   0  0  0  0  0  0  0  0  0  0  0  0
    9.1652  -15.9915   19.8280 C   0  0  1  0  0  0  0  0  0  0  0  0
   10.0108  -17.1979   19.4843 C   0  0  0  0  0  0  0  0  0  0  0  0
    9.3415  -18.1411   18.5808 C   0  0  0  0  0  0  0  0  0  0  0  0
    7.9968  -18.4256   18.5132 C   0  0  0  0  0  0  0  0  0  0  0  0
    7.7865  -19.3574   17.5392 N   0  0  0  0  0  0  0  0  0  0  0  0
    8.9868  -19.6480   17.0083 C   0  0  0  0  0  0  0  0  0  0  0  0
    9.9193  -18.9109   17.6412 N   0  0  0  0  0  0  0  0  0  0  0  0
    9.5192  -15.3784   21.1322 C   0  0  0  0  0  0  0  0  0  0  0  0
   10.6419  -14.8292   21.3070 O   0  0  0  0  0  0  0  0  0  0  0  0
    6.7172  -15.0097   24.0186 O   0  0  0  0  0  0  0  0  0  0  0  0
    7.8161  -14.1882   24.1371 C   0  0  0  0  0  0  0  0  0  0  0  0
    9.0682  -14.8635   23.5540 C   0  0  2  0  0  0  0  0  0  0  0  0
    8.6336  -15.3675   22.2524 N   0  0  0  0  0  0  0  0  0  0  0  0
    9.3783  -15.9903   24.4328 C   0  0  0  0  0  0  0  0  0  0  0  0
    9.8184  -15.8111   25.7351 O   0  0  0  0  0  0  0  0  0  0  0  0
    9.2474  -17.1642   24.0110 O   0  0  0  0  0  0  0  0  0  0  0  0
  2  1  1  6
  2  7  1  0
  3  2  1  0
  4  3  1  0
  4  5  1  0
  5  6  2  0
  7  8  2  0
  9  5  1  0
 10  7  1  0
 10 11  1  0
 11 12  1  6
 12 13  1  0
 13 17  1  0
 13 14  2  0
 14 15  1  0
 16 15  1  0
 17 16  2  0
 18 11  1  0
 18 19  2  0
 20 21  1  0
 22 21  1  1
 22 23  1  0
 23 18  1  0
 24 22  1  0
 24 25  1  0
 26 24  2  0
M  END
$$$$
