EHS.pdb
     RDKit          3D

 26 26  0  0  1  0  0  0  0  0999 V2000
    9.4113  -17.9805   17.3350 N   0  0  0  0  0  0  0  0  0  0  0  0
    8.9306  -18.3080   18.6516 C   0  0  1  0  0  0  0  0  0  0  0  0
    9.3371  -19.7361   18.9043 C   0  0  0  0  0  0  0  0  0  0  0  0
   10.7417  -20.0789   18.5884 C   0  0  0  0  0  0  0  0  0  0  0  0
   11.1769  -21.3398   19.1983 C   0  0  0  0  0  0  0  0  0  0  0  0
   11.0033  -22.4798   18.7074 O   0  0  0  0  0  0  0  0  0  0  0  0
    9.4086  -17.4433   19.7128 C   0  0  0  0  0  0  0  0  0  0  0  0
   10.6089  -17.0734   19.7131 O   0  0  0  0  0  0  0  0  0  0  0  0
   11.8510  -21.3222   20.4401 O   0  0  0  0  0  0  0  0  0  0  0  0
    8.6085  -16.9603   20.7917 N   0  0  0  0  0  0  0  0  0  0  0  0
    9.0888  -16.0361   21.7933 C   0  0  1  0  0  0  0  0  0  0  0  0
    8.1241  -14.8912   22.0105 C   0  0  0  0  0  0  0  0  0  0  0  0
    7.9409  -14.0493   20.8223 C   0  0  0  0  0  0  0  0  0  0  0  0
    6.8069  -13.9211   20.0533 C   0  0  0  0  0  0  0  0  0  0  0  0
    7.0516  -13.0392   19.0415 N   0  0  0  0  0  0  0  0  0  0  0  0
    8.3228  -12.6249   19.1808 C   0  0  0  0  0  0  0  0  0  0  0  0
    8.8525  -13.2381   20.2565 N   0  0  0  0  0  0  0  0  0  0  0  0
    9.3927  -16.7914   23.0340 C   0  0  0  0  0  0  0  0  0  0  0  0
    8.4945  -17.4472   23.6303 O   0  0  0  0  0  0  0  0  0  0  0  0
   12.9318  -18.1408   23.5770 O   0  0  0  0  0  0  0  0  0  0  0  0
   11.9518  -18.6880   24.3749 C   0  0  0  0  0  0  0  0  0  0  0  0
   10.9536  -17.6109   24.8301 C   0  0  2  0  0  0  0  0  0  0  0  0
   10.6928  -16.8274   23.6238 N   0  0  0  0  0  0  0  0  0  0  0  0
   11.6571  -16.7804   25.8066 C   0  0  0  0  0  0  0  0  0  0  0  0
   11.9625  -15.4507   25.5607 O   0  0  0  0  0  0  0  0  0  0  0  0
   12.0030  -17.2708   26.9079 O   0  0  0  0  0  0  0  0  0  0  0  0
  2  1  1  6
  2  7  1  0
  3  2  1  0
  4  3  1  0
  4  5  1  0
  5  6  2  0
  7  8  2  0
  9  5  1  0
 10  7  1  0
 10 11  1  0
 11 12  1  1
 12 13  1  0
 13 17  1  0
 13 14  2  0
 14 15  1  0
 16 15  1  0
 17 16  2  0
 18 11  1  0
 18 19  2  0
 20 21  1  0
 22 21  1  6
 22 23  1  0
 23 18  1  0
 24 22  1  0
 24 25  1  0
 26 24  2  0
M  END
$$$$
