EHS.pdb
     RDKit          3D

 26 26  0  0  1  0  0  0  0  0999 V2000
   10.3774  -16.1009   14.3827 N   0  0  0  0  0  0  0  0  0  0  0  0
   10.4202  -16.6000   15.7320 C   0  0  1  0  0  0  0  0  0  0  0  0
   11.1914  -17.8927   15.6777 C   0  0  0  0  0  0  0  0  0  0  0  0
   12.3981  -17.8954   14.8210 C   0  0  0  0  0  0  0  0  0  0  0  0
   13.1251  -19.1688   14.8560 C   0  0  0  0  0  0  0  0  0  0  0  0
   13.5010  -19.7600   15.8951 O   0  0  0  0  0  0  0  0  0  0  0  0
   11.0035  -15.6954   16.7034 C   0  0  0  0  0  0  0  0  0  0  0  0
   11.8112  -14.8141   16.3180 O   0  0  0  0  0  0  0  0  0  0  0  0
   13.4525  -19.8229   13.6469 O   0  0  0  0  0  0  0  0  0  0  0  0
   10.7312  -15.7197   18.1045 N   0  0  0  0  0  0  0  0  0  0  0  0
   11.2960  -14.7805   19.0462 C   0  0  1  0  0  0  0  0  0  0  0  0
   10.3161  -14.4259   20.1428 C   0  0  0  0  0  0  0  0  0  0  0  0
    9.0418  -13.9001   19.6389 C   0  0  0  0  0  0  0  0  0  0  0  0
    8.7709  -12.6163   19.2238 C   0  0  0  0  0  0  0  0  0  0  0  0
    7.4671  -12.5410   18.8293 N   0  0  0  0  0  0  0  0  0  0  0  0
    6.9348  -13.7638   18.9976 C   0  0  0  0  0  0  0  0  0  0  0  0
    7.8901  -14.5779   19.4860 N   0  0  0  0  0  0  0  0  0  0  0  0
   12.5768  -15.3284   19.5577 C   0  0  0  0  0  0  0  0  0  0  0  0
   12.6891  -16.5516   19.8474 O   0  0  0  0  0  0  0  0  0  0  0  0
   16.2444  -13.9607   18.5508 O   0  0  0  0  0  0  0  0  0  0  0  0
   16.0599  -14.0610   19.9118 C   0  0  0  0  0  0  0  0  0  0  0  0
   14.9893  -15.1140   20.2416 C   0  0  2  0  0  0  0  0  0  0  0  0
   13.7430  -14.5275   19.7518 N   0  0  0  0  0  0  0  0  0  0  0  0
   14.9403  -15.2123   21.6997 C   0  0  0  0  0  0  0  0  0  0  0  0
   15.9941  -15.7243   22.4406 O   0  0  0  0  0  0  0  0  0  0  0  0
   13.9191  -14.8254   22.3166 O   0  0  0  0  0  0  0  0  0  0  0  0
  2  1  1  6
  2  7  1  0
  3  2  1  0
  4  3  1  0
  4  5  1  0
  5  6  2  0
  7  8  2  0
  9  5  1  0
 10  7  1  0
 10 11  1  0
 11 12  1  1
 12 13  1  0
 13 17  1  0
 13 14  2  0
 14 15  1  0
 16 15  1  0
 17 16  2  0
 18 11  1  0
 18 19  2  0
 20 21  1  0
 22 21  1  1
 22 23  1  0
 23 18  1  0
 24 22  1  0
 24 25  1  0
 26 24  2  0
M  END
$$$$
