SCQ.pdb
     RDKit          3D

 22 21  0  0  1  0  0  0  0  0999 V2000
   25.9546  -20.1485   -8.6614 O   0  0  0  0  0  0  0  0  0  0  0  0
   25.2616  -19.9695   -9.8323 C   0  0  0  0  0  0  0  0  0  0  0  0
   24.8989  -21.2732  -10.4989 C   0  0  2  0  0  0  0  0  0  0  0  0
   26.0869  -21.9771  -10.8676 N   0  0  0  0  0  0  0  0  0  0  0  0
   23.9996  -21.1410  -11.6403 C   0  0  0  0  0  0  0  0  0  0  0  0
   24.3944  -21.5464  -12.7636 O   0  0  0  0  0  0  0  0  0  0  0  0
   22.6959  -20.5887  -11.6076 N   0  0  0  0  0  0  0  0  0  0  0  0
   21.8601  -20.3810  -12.7551 C   0  0  1  0  0  0  0  0  0  0  0  0
   20.4682  -19.9318  -12.4108 C   0  0  0  0  0  0  0  0  0  0  0  0
   20.4882  -19.4089  -10.6594 S   0  0  0  0  0  0  0  0  0  0  0  0
   22.4484  -19.3648  -13.6684 C   0  0  0  0  0  0  0  0  0  0  0  0
   22.7152  -18.1862  -13.2733 O   0  0  0  0  0  0  0  0  0  0  0  0
   27.9005  -20.3433  -15.7424 N   0  0  0  0  0  0  0  0  0  0  0  0
   27.4044  -19.2251  -16.5144 C   0  0  0  0  0  0  0  0  0  0  0  0
   28.2470  -18.5978  -17.2449 O   0  0  0  0  0  0  0  0  0  0  0  0
   26.0366  -18.7838  -16.4905 C   0  0  0  0  0  0  0  0  0  0  0  0
   24.9382  -19.4026  -15.7953 C   0  0  0  0  0  0  0  0  0  0  0  0
   23.5528  -18.9197  -15.8972 C   0  0  2  0  0  0  0  0  0  0  0  0
   22.7026  -19.7587  -15.0022 N   0  0  0  0  0  0  0  0  0  0  0  0
   22.9144  -18.8157  -17.2078 C   0  0  0  0  0  0  0  0  0  0  0  0
   23.1049  -17.8742  -18.1601 O   0  0  0  0  0  0  0  0  0  0  0  0
   22.0426  -19.7224  -17.5409 O   0  0  0  0  0  0  0  0  0  0  0  0
  1  2  1  0
  2  3  1  0
  3  4  1  6
  5  3  1  0
  5  7  1  0
  6  5  2  0
  8  7  1  0
  8 11  1  0
  9 10  1  0
  8  9  1  1
 11 12  2  0
 11 19  1  0
 13 14  1  0
 14 15  2  0
 16 14  1  0
 16 17  1  0
 18 17  1  6
 18 20  1  0
 19 18  1  0
 20 22  2  0
 20 21  1  0
M  END
$$$$
