SCQ.pdb
     RDKit          3D

 22 21  0  0  1  0  0  0  0  0999 V2000
   18.6246  -13.9426  -15.9999 O   0  0  0  0  0  0  0  0  0  0  0  0
   17.9239  -12.7832  -15.7806 C   0  0  0  0  0  0  0  0  0  0  0  0
   17.2299  -12.7672  -14.4414 C   0  0  2  0  0  0  0  0  0  0  0  0
   16.2370  -13.7943  -14.3966 N   0  0  0  0  0  0  0  0  0  0  0  0
   16.6580  -11.4772  -14.0701 C   0  0  0  0  0  0  0  0  0  0  0  0
   15.4081  -11.3426  -14.1104 O   0  0  0  0  0  0  0  0  0  0  0  0
   17.3881  -10.3353  -13.6592 N   0  0  0  0  0  0  0  0  0  0  0  0
   16.8108   -9.0661  -13.3213 C   0  0  1  0  0  0  0  0  0  0  0  0
   16.0253   -9.0856  -12.0405 C   0  0  0  0  0  0  0  0  0  0  0  0
   17.1436   -9.6999  -10.7315 S   0  0  0  0  0  0  0  0  0  0  0  0
   17.8597   -8.0193  -13.1905 C   0  0  0  0  0  0  0  0  0  0  0  0
   19.0144   -8.2845  -12.7296 O   0  0  0  0  0  0  0  0  0  0  0  0
   21.9856   -5.5482  -12.4731 N   0  0  0  0  0  0  0  0  0  0  0  0
   21.9399   -5.0850  -13.8428 C   0  0  0  0  0  0  0  0  0  0  0  0
   22.9021   -4.3420  -14.2422 O   0  0  0  0  0  0  0  0  0  0  0  0
   20.8773   -5.4026  -14.7571 C   0  0  0  0  0  0  0  0  0  0  0  0
   19.6918   -6.1695  -14.4755 C   0  0  0  0  0  0  0  0  0  0  0  0
   18.5683   -5.6447  -13.6849 C   0  0  2  0  0  0  0  0  0  0  0  0
   17.5246   -6.7083  -13.6001 N   0  0  0  0  0  0  0  0  0  0  0  0
   17.9384   -4.3823  -14.0668 C   0  0  0  0  0  0  0  0  0  0  0  0
   16.8503   -4.1915  -14.8473 O   0  0  0  0  0  0  0  0  0  0  0  0
   18.4601   -3.2758  -13.6234 O   0  0  0  0  0  0  0  0  0  0  0  0
  1  2  1  0
  2  3  1  0
  3  4  1  6
  5  3  1  0
  5  7  1  0
  6  5  2  0
  8  7  1  0
  8 11  1  0
  9 10  1  0
  8  9  1  1
 11 12  2  0
 11 19  1  0
 13 14  1  0
 14 15  2  0
 16 14  1  0
 16 17  1  0
 18 17  1  6
 18 20  1  0
 19 18  1  0
 20 22  2  0
 20 21  1  0
M  END
$$$$
