SCQ.pdb
     RDKit          3D

 22 21  0  0  1  0  0  0  0  0999 V2000
   16.5142  -27.5635  -10.8970 O   0  0  0  0  0  0  0  0  0  0  0  0
   17.7340  -27.1579  -11.3776 C   0  0  0  0  0  0  0  0  0  0  0  0
   18.8759  -27.5534  -10.4748 C   0  0  2  0  0  0  0  0  0  0  0  0
   18.9763  -28.9778  -10.4143 N   0  0  0  0  0  0  0  0  0  0  0  0
   18.8152  -26.9808   -9.1341 C   0  0  0  0  0  0  0  0  0  0  0  0
   18.8423  -27.7611   -8.1481 O   0  0  0  0  0  0  0  0  0  0  0  0
   18.7269  -25.6012   -8.8262 N   0  0  0  0  0  0  0  0  0  0  0  0
   18.6807  -25.0543   -7.5006 C   0  0  1  0  0  0  0  0  0  0  0  0
   18.8455  -23.5613   -7.4609 C   0  0  0  0  0  0  0  0  0  0  0  0
   17.7677  -22.8652   -8.7628 S   0  0  0  0  0  0  0  0  0  0  0  0
   17.3939  -25.3834   -6.8307 C   0  0  0  0  0  0  0  0  0  0  0  0
   16.3426  -25.6459   -7.4957 O   0  0  0  0  0  0  0  0  0  0  0  0
   19.2057  -28.4515   -1.9623 N   0  0  0  0  0  0  0  0  0  0  0  0
   18.6055  -27.2838   -2.5697 C   0  0  0  0  0  0  0  0  0  0  0  0
   19.2841  -26.1992   -2.5502 O   0  0  0  0  0  0  0  0  0  0  0  0
   17.3003  -27.2800   -3.1718 C   0  0  0  0  0  0  0  0  0  0  0  0
   16.4301  -26.1466   -3.3474 C   0  0  0  0  0  0  0  0  0  0  0  0
   16.1045  -25.5845   -4.6668 C   0  0  2  0  0  0  0  0  0  0  0  0
   17.3808  -25.3942   -5.4171 N   0  0  0  0  0  0  0  0  0  0  0  0
   15.3058  -24.3640   -4.7596 C   0  0  0  0  0  0  0  0  0  0  0  0
   13.9959  -24.1959   -4.4675 O   0  0  0  0  0  0  0  0  0  0  0  0
   15.8892  -23.2773   -5.1743 O   0  0  0  0  0  0  0  0  0  0  0  0
  1  2  1  0
  2  3  1  0
  3  4  1  1
  5  3  1  0
  5  7  1  0
  6  5  2  0
  8  7  1  0
  8 11  1  0
  9 10  1  0
  8  9  1  6
 11 12  2  0
 11 19  1  0
 13 14  1  0
 14 15  2  0
 16 14  1  0
 16 17  1  0
 18 17  1  1
 18 20  1  0
 19 18  1  0
 20 22  2  0
 20 21  1  0
M  END
$$$$
