SCQ.pdb
     RDKit          3D

 22 21  0  0  1  0  0  0  0  0999 V2000
   22.9861  -15.2397  -19.3409 O   0  0  0  0  0  0  0  0  0  0  0  0
   23.0395  -14.0898  -18.5937 C   0  0  0  0  0  0  0  0  0  0  0  0
   24.2478  -14.0374  -17.6922 C   0  0  2  0  0  0  0  0  0  0  0  0
   24.2798  -15.1953  -16.8550 N   0  0  0  0  0  0  0  0  0  0  0  0
   24.3581  -12.8194  -16.8964 C   0  0  0  0  0  0  0  0  0  0  0  0
   23.5320  -12.6353  -15.9660 O   0  0  0  0  0  0  0  0  0  0  0  0
   25.3260  -11.8004  -17.0719 N   0  0  0  0  0  0  0  0  0  0  0  0
   25.3559  -10.5598  -16.3520 C   0  0  1  0  0  0  0  0  0  0  0  0
   26.6667   -9.8334  -16.4617 C   0  0  0  0  0  0  0  0  0  0  0  0
   27.9414  -10.9043  -15.7070 S   0  0  0  0  0  0  0  0  0  0  0  0
   24.2893   -9.6389  -16.8287 C   0  0  0  0  0  0  0  0  0  0  0  0
   24.0209   -9.5105  -18.0648 O   0  0  0  0  0  0  0  0  0  0  0  0
   18.6352   -9.1159  -14.0195 N   0  0  0  0  0  0  0  0  0  0  0  0
   18.7752   -8.0240  -14.9581 C   0  0  0  0  0  0  0  0  0  0  0  0
   17.7458   -7.2923  -15.1632 O   0  0  0  0  0  0  0  0  0  0  0  0
   19.9904   -7.7345  -15.6692 C   0  0  0  0  0  0  0  0  0  0  0  0
   21.2453   -8.4318  -15.5607 C   0  0  0  0  0  0  0  0  0  0  0  0
   22.4697   -7.9864  -16.2427 C   0  0  2  0  0  0  0  0  0  0  0  0
   23.5787   -8.9055  -15.8511 N   0  0  0  0  0  0  0  0  0  0  0  0
   22.9187   -6.6029  -16.0994 C   0  0  0  0  0  0  0  0  0  0  0  0
   23.8453   -6.1068  -15.2481 O   0  0  0  0  0  0  0  0  0  0  0  0
   22.3828   -5.6997  -16.8678 O   0  0  0  0  0  0  0  0  0  0  0  0
  1  2  1  0
  2  3  1  0
  3  4  1  1
  5  3  1  0
  5  7  1  0
  6  5  2  0
  8  7  1  0
  8 11  1  0
  9 10  1  0
  8  9  1  6
 11 12  2  0
 11 19  1  0
 13 14  1  0
 14 15  2  0
 16 14  1  0
 16 17  1  0
 18 17  1  1
 18 20  1  0
 19 18  1  0
 20 22  2  0
 20 21  1  0
M  END
$$$$
