SCQ.pdb
     RDKit          3D

 22 21  0  0  1  0  0  0  0  0999 V2000
   21.8193  -10.0906  -15.5813 O   0  0  0  0  0  0  0  0  0  0  0  0
   20.5442  -10.2698  -16.0558 C   0  0  0  0  0  0  0  0  0  0  0  0
   19.5916   -9.2001  -15.5827 C   0  0  2  0  0  0  0  0  0  0  0  0
   19.8751   -7.9680  -16.2492 N   0  0  0  0  0  0  0  0  0  0  0  0
   19.5614   -9.0117  -14.1362 C   0  0  0  0  0  0  0  0  0  0  0  0
   19.2188   -9.9822  -13.4131 O   0  0  0  0  0  0  0  0  0  0  0  0
   19.8873   -7.8165  -13.4498 N   0  0  0  0  0  0  0  0  0  0  0  0
   19.8331   -7.6427  -12.0267 C   0  0  1  0  0  0  0  0  0  0  0  0
   21.0450   -6.9600  -11.4585 C   0  0  0  0  0  0  0  0  0  0  0  0
   21.2298   -5.3687  -12.3388 S   0  0  0  0  0  0  0  0  0  0  0  0
   18.6405   -6.8468  -11.6302 C   0  0  0  0  0  0  0  0  0  0  0  0
   18.1939   -5.9047  -12.3578 O   0  0  0  0  0  0  0  0  0  0  0  0
   13.5061   -9.4369   -8.8232 N   0  0  0  0  0  0  0  0  0  0  0  0
   13.4350   -8.0003   -8.6695 C   0  0  0  0  0  0  0  0  0  0  0  0
   12.3776   -7.5204   -8.1322 O   0  0  0  0  0  0  0  0  0  0  0  0
   14.4714   -7.1003   -9.0961 C   0  0  0  0  0  0  0  0  0  0  0  0
   15.7821   -7.4529   -9.5763 C   0  0  0  0  0  0  0  0  0  0  0  0
   16.7922   -6.4526   -9.9527 C   0  0  2  0  0  0  0  0  0  0  0  0
   18.0158   -7.1774  -10.4058 N   0  0  0  0  0  0  0  0  0  0  0  0
   17.1748   -5.4124   -8.9999 C   0  0  0  0  0  0  0  0  0  0  0  0
   16.5388   -4.2500   -8.7284 O   0  0  0  0  0  0  0  0  0  0  0  0
   18.2611   -5.5849   -8.3045 O   0  0  0  0  0  0  0  0  0  0  0  0
  1  2  1  0
  2  3  1  0
  3  4  1  6
  5  3  1  0
  5  7  1  0
  6  5  2  0
  8  7  1  0
  8 11  1  0
  9 10  1  0
  8  9  1  6
 11 12  2  0
 11 19  1  0
 13 14  1  0
 14 15  2  0
 16 14  1  0
 16 17  1  0
 18 17  1  1
 18 20  1  0
 19 18  1  0
 20 22  2  0
 20 21  1  0
M  END
$$$$
