SCQ.pdb
     RDKit          3D

 22 21  0  0  1  0  0  0  0  0999 V2000
   23.5224  -13.1325  -20.6805 O   0  0  0  0  0  0  0  0  0  0  0  0
   24.7733  -13.6744  -20.8386 C   0  0  0  0  0  0  0  0  0  0  0  0
   25.3209  -14.2571  -19.5595 C   0  0  2  0  0  0  0  0  0  0  0  0
   24.5577  -15.4054  -19.1831 N   0  0  0  0  0  0  0  0  0  0  0  0
   25.4131  -13.3107  -18.4527 C   0  0  0  0  0  0  0  0  0  0  0  0
   24.4851  -13.2899  -17.6040 O   0  0  0  0  0  0  0  0  0  0  0  0
   26.4688  -12.3921  -18.2346 N   0  0  0  0  0  0  0  0  0  0  0  0
   26.4833  -11.3803  -17.2176 C   0  0  1  0  0  0  0  0  0  0  0  0
   27.8529  -10.8284  -16.9392 C   0  0  0  0  0  0  0  0  0  0  0  0
   27.7383   -9.8541  -15.3968 S   0  0  0  0  0  0  0  0  0  0  0  0
   25.6040  -10.2385  -17.5865 C   0  0  0  0  0  0  0  0  0  0  0  0
   25.5825   -9.7658  -18.7665 O   0  0  0  0  0  0  0  0  0  0  0  0
   19.5624  -10.1298  -17.2036 N   0  0  0  0  0  0  0  0  0  0  0  0
   19.9618   -8.7412  -17.2725 C   0  0  0  0  0  0  0  0  0  0  0  0
   19.0384   -7.8746  -17.4561 O   0  0  0  0  0  0  0  0  0  0  0  0
   21.3240   -8.2966  -17.1599 C   0  0  0  0  0  0  0  0  0  0  0  0
   22.4831   -9.1108  -16.9024 C   0  0  0  0  0  0  0  0  0  0  0  0
   23.8497   -8.5687  -16.8657 C   0  0  2  0  0  0  0  0  0  0  0  0
   24.7862   -9.6928  -16.5705 N   0  0  0  0  0  0  0  0  0  0  0  0
   24.1606   -7.4412  -15.9893 C   0  0  0  0  0  0  0  0  0  0  0  0
   23.9842   -6.1215  -16.2275 O   0  0  0  0  0  0  0  0  0  0  0  0
   24.6772   -7.6938  -14.8220 O   0  0  0  0  0  0  0  0  0  0  0  0
  1  2  1  0
  2  3  1  0
  3  4  1  1
  5  3  1  0
  5  7  1  0
  6  5  2  0
  8  7  1  0
  8 11  1  0
  9 10  1  0
  8  9  1  6
 11 12  2  0
 11 19  1  0
 13 14  1  0
 14 15  2  0
 16 14  1  0
 16 17  1  0
 18 17  1  1
 18 20  1  0
 19 18  1  0
 20 22  2  0
 20 21  1  0
M  END
$$$$
