SCQ.pdb
     RDKit          3D

 22 21  0  0  1  0  0  0  0  0999 V2000
   27.4845  -12.0587  -22.2413 O   0  0  0  0  0  0  0  0  0  0  0  0
   26.5560  -12.0204  -21.2314 C   0  0  0  0  0  0  0  0  0  0  0  0
   26.7932  -10.8862  -20.2657 C   0  0  2  0  0  0  0  0  0  0  0  0
   28.1478  -10.9111  -19.8104 N   0  0  0  0  0  0  0  0  0  0  0  0
   25.8682  -10.8465  -19.1379 C   0  0  0  0  0  0  0  0  0  0  0  0
   24.6363  -10.7613  -19.3768 O   0  0  0  0  0  0  0  0  0  0  0  0
   26.2288  -10.8958  -17.7692 N   0  0  0  0  0  0  0  0  0  0  0  0
   25.3031  -10.9001  -16.6731 C   0  0  1  0  0  0  0  0  0  0  0  0
   25.8728  -11.4775  -15.4083 C   0  0  0  0  0  0  0  0  0  0  0  0
   26.3851  -13.1921  -15.7812 S   0  0  0  0  0  0  0  0  0  0  0  0
   24.8304   -9.5233  -16.3667 C   0  0  0  0  0  0  0  0  0  0  0  0
   25.6339   -8.5403  -16.3005 O   0  0  0  0  0  0  0  0  0  0  0  0
   22.0153   -3.6857  -18.4556 N   0  0  0  0  0  0  0  0  0  0  0  0
   22.4471   -5.0663  -18.4433 C   0  0  0  0  0  0  0  0  0  0  0  0
   22.5381   -5.6616  -19.5723 O   0  0  0  0  0  0  0  0  0  0  0  0
   22.7605   -5.7933  -17.2435 C   0  0  0  0  0  0  0  0  0  0  0  0
   23.1118   -7.1856  -17.1405 C   0  0  0  0  0  0  0  0  0  0  0  0
   22.8762   -7.9827  -15.9272 C   0  0  2  0  0  0  0  0  0  0  0  0
   23.4448   -9.3446  -16.1499 N   0  0  0  0  0  0  0  0  0  0  0  0
   21.5219   -8.1087  -15.3925 C   0  0  0  0  0  0  0  0  0  0  0  0
   20.8642   -7.2610  -14.5688 O   0  0  0  0  0  0  0  0  0  0  0  0
   20.8250   -9.1565  -15.7235 O   0  0  0  0  0  0  0  0  0  0  0  0
  1  2  1  0
  2  3  1  0
  3  4  1  1
  5  3  1  0
  5  7  1  0
  6  5  2  0
  8  7  1  0
  8 11  1  0
  9 10  1  0
  8  9  1  1
 11 12  2  0
 11 19  1  0
 13 14  1  0
 14 15  2  0
 16 14  1  0
 16 17  1  0
 18 17  1  6
 18 20  1  0
 19 18  1  0
 20 22  2  0
 20 21  1  0
M  END
$$$$
