SCQ.pdb
     RDKit          3D

 22 21  0  0  1  0  0  0  0  0999 V2000
   18.3863   -8.3747  -17.4546 O   0  0  0  0  0  0  0  0  0  0  0  0
   18.1363   -8.4362  -16.1066 C   0  0  0  0  0  0  0  0  0  0  0  0
   19.2440   -9.1149  -15.3398 C   0  0  2  0  0  0  0  0  0  0  0  0
   19.2097  -10.5232  -15.5813 N   0  0  0  0  0  0  0  0  0  0  0  0
   19.2501   -8.8348  -13.9079 C   0  0  0  0  0  0  0  0  0  0  0  0
   18.6579   -9.6346  -13.1388 O   0  0  0  0  0  0  0  0  0  0  0  0
   19.8715   -7.7256  -13.2839 N   0  0  0  0  0  0  0  0  0  0  0  0
   19.7957   -7.4185  -11.8845 C   0  0  1  0  0  0  0  0  0  0  0  0
   20.9473   -6.5907  -11.3881 C   0  0  0  0  0  0  0  0  0  0  0  0
   21.1949   -5.2358  -12.5900 S   0  0  0  0  0  0  0  0  0  0  0  0
   18.5423   -6.6837  -11.5653 C   0  0  0  0  0  0  0  0  0  0  0  0
   17.9944   -5.9013  -12.4043 O   0  0  0  0  0  0  0  0  0  0  0  0
   13.7286   -9.2938   -8.2659 N   0  0  0  0  0  0  0  0  0  0  0  0
   13.5016   -7.8687   -8.3665 C   0  0  0  0  0  0  0  0  0  0  0  0
   12.3877   -7.4205   -7.9242 O   0  0  0  0  0  0  0  0  0  0  0  0
   14.4451   -6.9494   -8.9415 C   0  0  0  0  0  0  0  0  0  0  0  0
   15.7797   -7.2461   -9.3926 C   0  0  0  0  0  0  0  0  0  0  0  0
   16.7003   -6.2174   -9.8994 C   0  0  2  0  0  0  0  0  0  0  0  0
   17.9769   -6.8875  -10.2856 N   0  0  0  0  0  0  0  0  0  0  0  0
   17.0016   -5.0450   -9.0802 C   0  0  0  0  0  0  0  0  0  0  0  0
   16.2585   -3.9275   -8.9115 O   0  0  0  0  0  0  0  0  0  0  0  0
   18.1188   -5.0316   -8.4131 O   0  0  0  0  0  0  0  0  0  0  0  0
  1  2  1  0
  2  3  1  0
  3  4  1  1
  5  3  1  0
  5  7  1  0
  6  5  2  0
  8  7  1  0
  8 11  1  0
  9 10  1  0
  8  9  1  6
 11 12  2  0
 11 19  1  0
 13 14  1  0
 14 15  2  0
 16 14  1  0
 16 17  1  0
 18 17  1  1
 18 20  1  0
 19 18  1  0
 20 22  2  0
 20 21  1  0
M  END
$$$$
