CKG.pdb
     RDKit          3D

 20 19  0  0  1  0  0  0  0  0999 V2000
   30.0886  -31.9173  -16.4642 N   0  0  0  0  0  0  0  0  0  0  0  0
   28.9411  -31.7048  -17.2926 C   0  0  1  0  0  0  0  0  0  0  0  0
   28.7914  -32.8210  -18.3252 C   0  0  0  0  0  0  0  0  0  0  0  0
   28.6609  -34.4165  -17.5040 S   0  0  0  0  0  0  0  0  0  0  0  0
   27.6815  -31.6280  -16.4909 C   0  0  0  0  0  0  0  0  0  0  0  0
   27.7648  -31.7668  -15.2450 O   0  0  0  0  0  0  0  0  0  0  0  0
   26.4128  -31.4067  -17.0833 N   0  0  0  0  0  0  0  0  0  0  0  0
   25.2527  -31.2036  -16.2097 C   0  0  1  0  0  0  0  0  0  0  0  0
   24.2333  -30.3524  -16.9064 C   0  0  0  0  0  0  0  0  0  0  0  0
   23.1286  -29.9243  -16.0010 C   0  0  0  0  0  0  0  0  0  0  0  0
   22.1704  -28.9700  -16.7209 C   0  0  0  0  0  0  0  0  0  0  0  0
   21.0290  -28.6969  -15.7658 C   0  0  0  0  0  0  0  0  0  0  0  0
   19.9827  -27.9278  -16.3997 N   0  0  0  0  0  0  0  0  0  0  0  0
   24.6699  -32.4832  -15.8039 C   0  0  0  0  0  0  0  0  0  0  0  0
   24.6884  -33.4621  -16.5684 O   0  0  0  0  0  0  0  0  0  0  0  0
   24.0509  -32.6976  -14.5286 N   0  0  0  0  0  0  0  0  0  0  0  0
   23.5692  -34.0067  -14.1631 C   0  0  0  0  0  0  0  0  0  0  0  0
   22.9654  -34.0593  -12.8293 C   0  0  0  0  0  0  0  0  0  0  0  0
   22.4149  -35.2643  -12.4119 O   0  0  0  0  0  0  0  0  0  0  0  0
   22.9138  -33.0846  -12.0395 O   0  0  0  0  0  0  0  0  0  0  0  0
  2  3  1  0
  2  1  1  1
  4  3  1  0
  5  2  1  0
  6  5  2  0
  7  5  1  0
  8  9  1  6
  8  7  1  0
 10  9  1  0
 11 12  1  0
 11 10  1  0
 13 12  1  0
 14  8  1  0
 14 15  2  0
 16 14  1  0
 17 18  1  0
 17 16  1  0
 18 19  1  0
 20 18  2  0
M  END
$$$$
