CKG.pdb
     RDKit          3D

 20 19  0  0  1  0  0  0  0  0999 V2000
   19.3353  -26.4140  -10.3244 N   0  0  0  0  0  0  0  0  0  0  0  0
   19.3231  -26.3625  -11.7546 C   0  0  1  0  0  0  0  0  0  0  0  0
   17.9431  -26.7148  -12.3079 C   0  0  0  0  0  0  0  0  0  0  0  0
   17.7354  -28.5007  -12.3740 S   0  0  0  0  0  0  0  0  0  0  0  0
   19.7092  -25.0121  -12.2669 C   0  0  0  0  0  0  0  0  0  0  0  0
   19.4608  -24.0136  -11.5461 O   0  0  0  0  0  0  0  0  0  0  0  0
   20.3382  -24.8243  -13.5234 N   0  0  0  0  0  0  0  0  0  0  0  0
   20.7498  -23.4712  -13.9104 C   0  0  1  0  0  0  0  0  0  0  0  0
   21.9331  -23.5420  -14.8292 C   0  0  0  0  0  0  0  0  0  0  0  0
   23.2268  -23.3476  -14.1137 C   0  0  0  0  0  0  0  0  0  0  0  0
   24.1586  -24.5436  -14.3341 C   0  0  0  0  0  0  0  0  0  0  0  0
   24.6794  -24.4342  -15.7505 C   0  0  0  0  0  0  0  0  0  0  0  0
   25.6390  -25.4746  -16.0420 N   0  0  0  0  0  0  0  0  0  0  0  0
   19.6461  -22.7462  -14.5412 C   0  0  0  0  0  0  0  0  0  0  0  0
   19.8037  -21.5884  -14.9630 O   0  0  0  0  0  0  0  0  0  0  0  0
   18.3360  -23.3020  -14.7150 N   0  0  0  0  0  0  0  0  0  0  0  0
   17.3128  -22.5550  -15.4038 C   0  0  0  0  0  0  0  0  0  0  0  0
   16.5080  -21.7080  -14.5199 C   0  0  0  0  0  0  0  0  0  0  0  0
   15.4124  -21.0532  -15.0674 O   0  0  0  0  0  0  0  0  0  0  0  0
   16.7456  -21.5365  -13.2990 O   0  0  0  0  0  0  0  0  0  0  0  0
  2  3  1  0
  2  1  1  1
  4  3  1  0
  5  2  1  0
  6  5  2  0
  7  5  1  0
  8  9  1  6
  8  7  1  0
 10  9  1  0
 11 12  1  0
 11 10  1  0
 13 12  1  0
 14  8  1  0
 14 15  2  0
 16 14  1  0
 17 18  1  0
 17 16  1  0
 18 19  1  0
 20 18  2  0
M  END
$$$$
