CKG.pdb
     RDKit          3D

 20 19  0  0  1  0  0  0  0  0999 V2000
   25.7554  -12.5857  -17.6342 N   0  0  0  0  0  0  0  0  0  0  0  0
   25.1648  -12.0612  -16.4407 C   0  0  1  0  0  0  0  0  0  0  0  0
   26.0361  -10.9648  -15.8296 C   0  0  0  0  0  0  0  0  0  0  0  0
   27.5825  -11.6604  -15.2280 S   0  0  0  0  0  0  0  0  0  0  0  0
   23.8027  -11.4991  -16.6935 C   0  0  0  0  0  0  0  0  0  0  0  0
   23.5592  -11.0301  -17.8333 O   0  0  0  0  0  0  0  0  0  0  0  0
   22.7901  -11.4785  -15.7016 N   0  0  0  0  0  0  0  0  0  0  0  0
   21.4856  -10.8993  -16.0378 C   0  0  1  0  0  0  0  0  0  0  0  0
   20.3930  -11.8613  -15.6771 C   0  0  0  0  0  0  0  0  0  0  0  0
   19.0402  -11.3595  -16.0533 C   0  0  0  0  0  0  0  0  0  0  0  0
   17.9551  -12.3685  -15.6638 C   0  0  0  0  0  0  0  0  0  0  0  0
   16.6347  -11.7830  -16.1145 C   0  0  0  0  0  0  0  0  0  0  0  0
   15.5328  -12.6651  -15.8048 N   0  0  0  0  0  0  0  0  0  0  0  0
   21.2905   -9.6159  -15.3623 C   0  0  0  0  0  0  0  0  0  0  0  0
   20.1979   -9.0274  -15.4170 O   0  0  0  0  0  0  0  0  0  0  0  0
   22.3172   -8.9590  -14.6074 N   0  0  0  0  0  0  0  0  0  0  0  0
   22.1003   -7.6342  -14.0808 C   0  0  0  0  0  0  0  0  0  0  0  0
   22.2323   -6.5743  -15.0836 C   0  0  0  0  0  0  0  0  0  0  0  0
   22.3277   -5.2633  -14.6352 O   0  0  0  0  0  0  0  0  0  0  0  0
   22.2645   -6.7757  -16.3225 O   0  0  0  0  0  0  0  0  0  0  0  0
  2  3  1  0
  2  1  1  6
  4  3  1  0
  5  2  1  0
  6  5  2  0
  7  5  1  0
  8  9  1  1
  8  7  1  0
 10  9  1  0
 11 12  1  0
 11 10  1  0
 13 12  1  0
 14  8  1  0
 14 15  2  0
 16 14  1  0
 17 18  1  0
 17 16  1  0
 18 19  1  0
 20 18  2  0
M  END
$$$$
