CKG.pdb
     RDKit          3D

 20 19  0  0  1  0  0  0  0  0999 V2000
   26.5477  -21.7957  -13.7123 N   0  0  0  0  0  0  0  0  0  0  0  0
   26.1513  -21.1220  -12.5134 C   0  0  1  0  0  0  0  0  0  0  0  0
   27.2558  -20.1933  -12.0112 C   0  0  0  0  0  0  0  0  0  0  0  0
   28.7949  -21.1042  -11.8150 S   0  0  0  0  0  0  0  0  0  0  0  0
   24.9077  -20.3163  -12.7120 C   0  0  0  0  0  0  0  0  0  0  0  0
   24.5282  -19.5740  -11.7721 O   0  0  0  0  0  0  0  0  0  0  0  0
   24.1526  -20.3622  -13.9109 N   0  0  0  0  0  0  0  0  0  0  0  0
   22.9443  -19.5380  -14.0150 C   0  0  1  0  0  0  0  0  0  0  0  0
   22.8319  -18.9713  -15.3990 C   0  0  0  0  0  0  0  0  0  0  0  0
   23.9363  -18.0229  -15.7215 C   0  0  0  0  0  0  0  0  0  0  0  0
   24.4139  -18.2105  -17.1651 C   0  0  0  0  0  0  0  0  0  0  0  0
   25.4921  -17.1762  -17.4045 C   0  0  0  0  0  0  0  0  0  0  0  0
   25.9210  -17.1704  -18.7845 N   0  0  0  0  0  0  0  0  0  0  0  0
   21.7497  -20.3109  -13.6724 C   0  0  0  0  0  0  0  0  0  0  0  0
   21.7080  -21.5373  -13.8658 O   0  0  0  0  0  0  0  0  0  0  0  0
   20.5703  -19.7272  -13.1035 N   0  0  0  0  0  0  0  0  0  0  0  0
   19.4681  -20.5624  -12.6946 C   0  0  0  0  0  0  0  0  0  0  0  0
   18.4887  -20.8046  -13.7569 C   0  0  0  0  0  0  0  0  0  0  0  0
   18.7073  -21.8783  -14.6103 O   0  0  0  0  0  0  0  0  0  0  0  0
   17.4643  -20.1033  -13.9449 O   0  0  0  0  0  0  0  0  0  0  0  0
  2  3  1  0
  2  1  1  6
  4  3  1  0
  5  2  1  0
  6  5  2  0
  7  5  1  0
  8  9  1  6
  8  7  1  0
 10  9  1  0
 11 12  1  0
 11 10  1  0
 13 12  1  0
 14  8  1  0
 14 15  2  0
 16 14  1  0
 17 18  1  0
 17 16  1  0
 18 19  1  0
 20 18  2  0
M  END
$$$$
