CKG.pdb
     RDKit          3D

 20 19  0  0  1  0  0  0  0  0999 V2000
   26.8588  -20.2764  -15.3668 N   0  0  0  0  0  0  0  0  0  0  0  0
   27.1882  -21.1825  -16.4245 C   0  0  1  0  0  0  0  0  0  0  0  0
   28.5797  -20.8935  -16.9855 C   0  0  0  0  0  0  0  0  0  0  0  0
   28.5391  -19.4287  -18.0294 S   0  0  0  0  0  0  0  0  0  0  0  0
   27.1454  -22.6066  -15.9718 C   0  0  0  0  0  0  0  0  0  0  0  0
   27.5182  -22.8657  -14.8003 O   0  0  0  0  0  0  0  0  0  0  0  0
   26.7036  -23.6606  -16.8105 N   0  0  0  0  0  0  0  0  0  0  0  0
   26.6570  -25.0217  -16.2672 C   0  0  1  0  0  0  0  0  0  0  0  0
   25.2901  -25.6046  -16.4699 C   0  0  0  0  0  0  0  0  0  0  0  0
   24.2583  -24.9598  -15.6079 C   0  0  0  0  0  0  0  0  0  0  0  0
   22.8676  -25.5338  -15.8974 C   0  0  0  0  0  0  0  0  0  0  0  0
   21.8936  -24.7771  -15.0210 C   0  0  0  0  0  0  0  0  0  0  0  0
   20.5497  -25.2897  -15.1606 N   0  0  0  0  0  0  0  0  0  0  0  0
   27.6787  -25.8690  -16.8835 C   0  0  0  0  0  0  0  0  0  0  0  0
   27.7050  -26.0421  -18.1133 O   0  0  0  0  0  0  0  0  0  0  0  0
   28.6981  -26.5445  -16.1351 N   0  0  0  0  0  0  0  0  0  0  0  0
   28.7187  -27.9847  -16.0667 C   0  0  0  0  0  0  0  0  0  0  0  0
   29.1050  -28.6274  -17.3253 C   0  0  0  0  0  0  0  0  0  0  0  0
   29.7176  -29.8720  -17.2585 O   0  0  0  0  0  0  0  0  0  0  0  0
   28.9175  -28.1246  -18.4604 O   0  0  0  0  0  0  0  0  0  0  0  0
  2  3  1  0
  2  1  1  1
  4  3  1  0
  5  2  1  0
  6  5  2  0
  7  5  1  0
  8  9  1  6
  8  7  1  0
 10  9  1  0
 11 12  1  0
 11 10  1  0
 13 12  1  0
 14  8  1  0
 14 15  2  0
 16 14  1  0
 17 18  1  0
 17 16  1  0
 18 19  1  0
 20 18  2  0
M  END
$$$$
