CKG.pdb
     RDKit          3D

 20 19  0  0  1  0  0  0  0  0999 V2000
   24.2313  -12.6014  -17.5444 N   0  0  0  0  0  0  0  0  0  0  0  0
   24.0863  -11.9327  -16.2873 C   0  0  1  0  0  0  0  0  0  0  0  0
   25.4472  -11.5710  -15.6943 C   0  0  0  0  0  0  0  0  0  0  0  0
   26.3526  -13.0628  -15.2564 S   0  0  0  0  0  0  0  0  0  0  0  0
   23.2754  -10.6829  -16.4113 C   0  0  0  0  0  0  0  0  0  0  0  0
   23.4490   -9.9641  -17.4270 O   0  0  0  0  0  0  0  0  0  0  0  0
   22.3291  -10.2875  -15.4326 N   0  0  0  0  0  0  0  0  0  0  0  0
   21.4751   -9.1273  -15.7058 C   0  0  1  0  0  0  0  0  0  0  0  0
   20.0507   -9.4522  -15.3670 C   0  0  0  0  0  0  0  0  0  0  0  0
   19.4940  -10.5437  -16.2168 C   0  0  0  0  0  0  0  0  0  0  0  0
   18.0334  -10.8291  -15.8528 C   0  0  0  0  0  0  0  0  0  0  0  0
   17.5663  -11.9405  -16.7671 C   0  0  0  0  0  0  0  0  0  0  0  0
   16.2253  -12.3665  -16.4378 N   0  0  0  0  0  0  0  0  0  0  0  0
   21.9302   -7.9525  -14.9612 C   0  0  0  0  0  0  0  0  0  0  0  0
   22.2386   -8.0397  -13.7610 O   0  0  0  0  0  0  0  0  0  0  0  0
   22.0513   -6.6485  -15.5446 N   0  0  0  0  0  0  0  0  0  0  0  0
   22.6400   -5.5664  -14.7950 C   0  0  0  0  0  0  0  0  0  0  0  0
   21.6574   -4.7260  -14.1061 C   0  0  0  0  0  0  0  0  0  0  0  0
   22.1280   -3.6488  -13.3664 O   0  0  0  0  0  0  0  0  0  0  0  0
   20.4170   -4.9175  -14.1418 O   0  0  0  0  0  0  0  0  0  0  0  0
  2  3  1  0
  2  1  1  6
  4  3  1  0
  5  2  1  0
  6  5  2  0
  7  5  1  0
  8  9  1  1
  8  7  1  0
 10  9  1  0
 11 12  1  0
 11 10  1  0
 13 12  1  0
 14  8  1  0
 14 15  2  0
 16 14  1  0
 17 18  1  0
 17 16  1  0
 18 19  1  0
 20 18  2  0
M  END
$$$$
