CKG.pdb
     RDKit          3D

 20 19  0  0  1  0  0  0  0  0999 V2000
   24.2660  -21.8816  -10.9588 N   0  0  0  0  0  0  0  0  0  0  0  0
   24.8224  -20.5908  -11.2283 C   0  0  1  0  0  0  0  0  0  0  0  0
   26.2898  -20.5236  -10.8080 C   0  0  0  0  0  0  0  0  0  0  0  0
   26.4504  -20.8624   -9.0484 S   0  0  0  0  0  0  0  0  0  0  0  0
   24.7268  -20.2342  -12.6770 C   0  0  0  0  0  0  0  0  0  0  0  0
   25.1521  -19.1084  -13.0377 O   0  0  0  0  0  0  0  0  0  0  0  0
   24.1790  -21.1138  -13.6444 N   0  0  0  0  0  0  0  0  0  0  0  0
   24.0558  -20.6495  -15.0298 C   0  0  1  0  0  0  0  0  0  0  0  0
   24.9066  -21.4967  -15.9285 C   0  0  0  0  0  0  0  0  0  0  0  0
   26.3620  -21.3640  -15.6324 C   0  0  0  0  0  0  0  0  0  0  0  0
   27.1974  -22.1919  -16.6142 C   0  0  0  0  0  0  0  0  0  0  0  0
   28.6492  -21.9393  -16.2709 C   0  0  0  0  0  0  0  0  0  0  0  0
   29.5286  -22.7963  -17.0327 N   0  0  0  0  0  0  0  0  0  0  0  0
   22.6598  -20.6682  -15.4683 C   0  0  0  0  0  0  0  0  0  0  0  0
   21.9284  -21.6419  -15.2226 O   0  0  0  0  0  0  0  0  0  0  0  0
   22.0477  -19.5941  -16.1944 N   0  0  0  0  0  0  0  0  0  0  0  0
   20.6619  -19.6748  -16.5848 C   0  0  0  0  0  0  0  0  0  0  0  0
   19.7327  -19.2051  -15.5541 C   0  0  0  0  0  0  0  0  0  0  0  0
   18.3785  -19.1817  -15.8616 O   0  0  0  0  0  0  0  0  0  0  0  0
   20.0826  -18.8225  -14.4106 O   0  0  0  0  0  0  0  0  0  0  0  0
  2  3  1  0
  2  1  1  6
  4  3  1  0
  5  2  1  0
  6  5  2  0
  7  5  1  0
  8  9  1  6
  8  7  1  0
 10  9  1  0
 11 12  1  0
 11 10  1  0
 13 12  1  0
 14  8  1  0
 14 15  2  0
 16 14  1  0
 17 18  1  0
 17 16  1  0
 18 19  1  0
 20 18  2  0
M  END
$$$$
