CKG.pdb
     RDKit          3D

 20 19  0  0  1  0  0  0  0  0999 V2000
   25.3794  -35.2631  -21.7786 N   0  0  0  0  0  0  0  0  0  0  0  0
   24.7230  -34.8627  -20.5716 C   0  0  1  0  0  0  0  0  0  0  0  0
   23.5409  -35.7782  -20.2563 C   0  0  0  0  0  0  0  0  0  0  0  0
   23.2435  -36.9062  -21.6260 S   0  0  0  0  0  0  0  0  0  0  0  0
   25.6541  -34.8702  -19.4020 C   0  0  0  0  0  0  0  0  0  0  0  0
   26.6152  -35.6792  -19.4171 O   0  0  0  0  0  0  0  0  0  0  0  0
   25.4899  -34.0054  -18.2908 N   0  0  0  0  0  0  0  0  0  0  0  0
   26.5215  -33.9925  -17.2489 C   0  0  1  0  0  0  0  0  0  0  0  0
   27.8374  -33.5824  -17.8400 C   0  0  0  0  0  0  0  0  0  0  0  0
   28.9652  -33.7109  -16.8731 C   0  0  0  0  0  0  0  0  0  0  0  0
   29.7176  -32.3839  -16.7312 C   0  0  0  0  0  0  0  0  0  0  0  0
   31.1925  -32.7075  -16.8281 C   0  0  0  0  0  0  0  0  0  0  0  0
   32.0025  -31.5152  -16.7248 N   0  0  0  0  0  0  0  0  0  0  0  0
   26.1470  -33.1025  -16.1493 C   0  0  0  0  0  0  0  0  0  0  0  0
   25.4422  -32.1001  -16.3535 O   0  0  0  0  0  0  0  0  0  0  0  0
   26.5540  -33.3142  -14.7910 N   0  0  0  0  0  0  0  0  0  0  0  0
   26.1863  -32.3708  -13.7643 C   0  0  0  0  0  0  0  0  0  0  0  0
   26.6237  -32.7626  -12.4221 C   0  0  0  0  0  0  0  0  0  0  0  0
   26.0299  -33.8773  -11.8443 O   0  0  0  0  0  0  0  0  0  0  0  0
   27.5012  -32.1549  -11.7609 O   0  0  0  0  0  0  0  0  0  0  0  0
  2  3  1  0
  2  1  1  6
  4  3  1  0
  5  2  1  0
  6  5  2  0
  7  5  1  0
  8  9  1  6
  8  7  1  0
 10  9  1  0
 11 12  1  0
 11 10  1  0
 13 12  1  0
 14  8  1  0
 14 15  2  0
 16 14  1  0
 17 18  1  0
 17 16  1  0
 18 19  1  0
 20 18  2  0
M  END
$$$$
