LMI.pdb
     RDKit          3D

 25 24  0  0  1  0  0  0  0  0999 V2000
   18.6285  -15.8687  -20.1131 C   0  0  0  0  0  0  0  0  0  0  0  0
   19.2498  -16.0252  -18.7498 C   0  0  2  0  0  0  0  0  0  0  0  0
   18.2059  -16.4050  -17.7292 C   0  0  0  0  0  0  0  0  0  0  0  0
   20.0469  -14.8260  -18.3539 C   0  0  0  0  0  0  0  0  0  0  0  0
   21.0897  -14.4468  -19.3817 C   0  0  2  0  0  0  0  0  0  0  0  0
   22.1596  -15.3788  -19.4746 N   0  0  0  0  0  0  0  0  0  0  0  0
   21.4808  -13.0590  -19.1345 C   0  0  0  0  0  0  0  0  0  0  0  0
   22.4630  -12.8736  -18.3495 O   0  0  0  0  0  0  0  0  0  0  0  0
   21.4677   -7.2603  -22.9317 C   0  0  0  0  0  0  0  0  0  0  0  0
   21.2181   -9.0065  -23.3178 S   0  0  0  0  0  0  0  0  0  0  0  0
   21.6660  -10.0687  -21.9482 C   0  0  0  0  0  0  0  0  0  0  0  0
   21.0563   -9.6935  -20.6416 C   0  0  0  0  0  0  0  0  0  0  0  0
   21.4750  -10.5824  -19.4867 C   0  0  2  0  0  0  0  0  0  0  0  0
   20.8762  -11.9204  -19.6799 N   0  0  0  0  0  0  0  0  0  0  0  0
   21.0844  -10.1111  -18.1647 C   0  0  0  0  0  0  0  0  0  0  0  0
   19.9184  -10.3321  -17.6842 O   0  0  0  0  0  0  0  0  0  0  0  0
   24.2277  -11.1779  -14.3823 C   0  0  0  0  0  0  0  0  0  0  0  0
   23.0150  -10.7420  -15.1825 C   0  0  0  0  0  0  0  0  0  0  0  0
   22.7419   -9.2682  -15.0076 C   0  0  2  0  0  0  0  0  0  0  0  0
   22.2551   -8.9290  -13.6350 C   0  0  0  0  0  0  0  0  0  0  0  0
   21.5623   -8.9393  -15.9629 C   0  0  2  0  0  0  0  0  0  0  0  0
   21.9566   -9.3756  -17.2869 N   0  0  0  0  0  0  0  0  0  0  0  0
   21.2620   -7.5012  -15.8704 C   0  0  0  0  0  0  0  0  0  0  0  0
   20.3806   -6.9835  -14.9364 O   0  0  0  0  0  0  0  0  0  0  0  0
   21.8151   -6.7020  -16.6578 O   0  0  0  0  0  0  0  0  0  0  0  0
  2  1  1  6
  3  2  1  0
  4  2  1  0
  4  5  1  0
  5  6  1  1
  7  8  2  0
  7  5  1  0
 10 11  1  0
 10  9  1  0
 11 12  1  0
 13 12  1  6
 13 14  1  0
 14  7  1  0
 15 16  2  0
 15 13  1  0
 18 19  1  0
 18 17  1  0
 19 21  1  0
 19 20  1  1
 21 22  1  6
 22 15  1  0
 23 21  1  0
 24 23  1  0
 25 23  2  0
M  END
$$$$
