LMI.pdb
     RDKit          3D

 25 24  0  0  1  0  0  0  0  0999 V2000
   21.5509  -23.2382  -13.7785 C   0  0  0  0  0  0  0  0  0  0  0  0
   20.6969  -22.0067  -13.6267 C   0  0  2  0  0  0  0  0  0  0  0  0
   19.9651  -21.7044  -14.9107 C   0  0  0  0  0  0  0  0  0  0  0  0
   21.4757  -20.8426  -13.1086 C   0  0  0  0  0  0  0  0  0  0  0  0
   22.4199  -21.2178  -11.9881 C   0  0  2  0  0  0  0  0  0  0  0  0
   21.8607  -21.0421  -10.6925 N   0  0  0  0  0  0  0  0  0  0  0  0
   23.6921  -20.5356  -12.2247 C   0  0  0  0  0  0  0  0  0  0  0  0
   23.7017  -19.2745  -12.0674 O   0  0  0  0  0  0  0  0  0  0  0  0
   29.9026  -21.9215  -10.0141 C   0  0  0  0  0  0  0  0  0  0  0  0
   30.0067  -21.5360  -11.7751 S   0  0  0  0  0  0  0  0  0  0  0  0
   28.6261  -20.5396  -12.3281 C   0  0  0  0  0  0  0  0  0  0  0  0
   27.2944  -21.1969  -12.2090 C   0  0  0  0  0  0  0  0  0  0  0  0
   26.1400  -20.3477  -12.7045 C   0  0  2  0  0  0  0  0  0  0  0  0
   24.8954  -21.1400  -12.6067 N   0  0  0  0  0  0  0  0  0  0  0  0
   26.2571  -19.8783  -14.0787 C   0  0  0  0  0  0  0  0  0  0  0  0
   25.8859  -20.5945  -15.0729 O   0  0  0  0  0  0  0  0  0  0  0  0
   25.9728  -14.6161  -14.8309 C   0  0  0  0  0  0  0  0  0  0  0  0
   25.8243  -16.0654  -15.2531 C   0  0  0  0  0  0  0  0  0  0  0  0
   27.1218  -16.6166  -15.7916 C   0  0  2  0  0  0  0  0  0  0  0  0
   27.3754  -16.2175  -17.2102 C   0  0  0  0  0  0  0  0  0  0  0  0
   26.9493  -18.1600  -15.8158 C   0  0  2  0  0  0  0  0  0  0  0  0
   26.7815  -18.5879  -14.4419 N   0  0  0  0  0  0  0  0  0  0  0  0
   28.1119  -18.7581  -16.4923 C   0  0  0  0  0  0  0  0  0  0  0  0
   28.0355  -19.2998  -17.7642 O   0  0  0  0  0  0  0  0  0  0  0  0
   29.2188  -18.7867  -15.9104 O   0  0  0  0  0  0  0  0  0  0  0  0
  2  1  1  6
  3  2  1  0
  4  2  1  0
  4  5  1  0
  5  6  1  1
  7  8  2  0
  7  5  1  0
 10 11  1  0
 10  9  1  0
 11 12  1  0
 13 12  1  6
 13 14  1  0
 14  7  1  0
 15 16  2  0
 15 13  1  0
 18 19  1  0
 18 17  1  0
 19 21  1  0
 19 20  1  6
 21 22  1  1
 22 15  1  0
 23 21  1  0
 24 23  1  0
 25 23  2  0
M  END
$$$$
