LMI.pdb
     RDKit          3D

 25 24  0  0  1  0  0  0  0  0999 V2000
   22.6348  -19.5574  -13.8490 C   0  0  0  0  0  0  0  0  0  0  0  0
   22.7676  -20.8987  -13.1763 C   0  0  2  0  0  0  0  0  0  0  0  0
   21.4282  -21.5879  -13.0935 C   0  0  0  0  0  0  0  0  0  0  0  0
   23.4578  -20.7997  -11.8557 C   0  0  0  0  0  0  0  0  0  0  0  0
   24.8035  -20.1148  -11.9448 C   0  0  2  0  0  0  0  0  0  0  0  0
   25.3939  -20.1904  -13.2362 N   0  0  0  0  0  0  0  0  0  0  0  0
   25.6310  -20.6046  -10.8424 C   0  0  0  0  0  0  0  0  0  0  0  0
   25.0361  -20.8470   -9.7457 O   0  0  0  0  0  0  0  0  0  0  0  0
   32.1428  -22.0689  -11.0298 C   0  0  0  0  0  0  0  0  0  0  0  0
   31.5868  -22.8677   -9.5088 S   0  0  0  0  0  0  0  0  0  0  0  0
   29.9570  -22.3151   -9.0160 C   0  0  0  0  0  0  0  0  0  0  0  0
   29.1347  -21.7369  -10.1157 C   0  0  0  0  0  0  0  0  0  0  0  0
   27.7232  -21.3675   -9.7029 C   0  0  2  0  0  0  0  0  0  0  0  0
   27.0118  -20.8303  -10.8826 N   0  0  0  0  0  0  0  0  0  0  0  0
   27.6245  -20.3766   -8.6394 C   0  0  0  0  0  0  0  0  0  0  0  0
   27.5161  -19.1253   -8.8878 O   0  0  0  0  0  0  0  0  0  0  0  0
   27.3309  -17.4876   -3.5500 C   0  0  0  0  0  0  0  0  0  0  0  0
   28.2032  -18.4065   -4.3839 C   0  0  0  0  0  0  0  0  0  0  0  0
   27.3782  -19.2170   -5.3534 C   0  0  2  0  0  0  0  0  0  0  0  0
   26.5775  -20.2851   -4.6794 C   0  0  0  0  0  0  0  0  0  0  0  0
   28.3974  -19.9648   -6.2557 C   0  0  2  0  0  0  0  0  0  0  0  0
   27.6300  -20.7035   -7.2376 N   0  0  0  0  0  0  0  0  0  0  0  0
   29.2550  -20.8081   -5.4070 C   0  0  0  0  0  0  0  0  0  0  0  0
   29.2798  -22.1885   -5.5127 O   0  0  0  0  0  0  0  0  0  0  0  0
   29.9959  -20.2740   -4.5524 O   0  0  0  0  0  0  0  0  0  0  0  0
  2  1  1  1
  3  2  1  0
  4  2  1  0
  4  5  1  0
  5  6  1  6
  7  8  2  0
  7  5  1  0
 10 11  1  0
 10  9  1  0
 11 12  1  0
 13 12  1  6
 13 14  1  0
 14  7  1  0
 15 16  2  0
 15 13  1  0
 18 19  1  0
 18 17  1  0
 19 21  1  0
 19 20  1  1
 21 22  1  6
 22 15  1  0
 23 21  1  0
 24 23  1  0
 25 23  2  0
M  END
$$$$
