LMI.pdb
     RDKit          3D

 25 24  0  0  1  0  0  0  0  0999 V2000
   27.6710  -17.5862  -14.0534 C   0  0  0  0  0  0  0  0  0  0  0  0
   26.6179  -18.4567  -14.6878 C   0  0  2  0  0  0  0  0  0  0  0  0
   25.6121  -17.6169  -15.4352 C   0  0  0  0  0  0  0  0  0  0  0  0
   25.9884  -19.3862  -13.7029 C   0  0  0  0  0  0  0  0  0  0  0  0
   27.0036  -20.1621  -12.8936 C   0  0  2  0  0  0  0  0  0  0  0  0
   27.7357  -21.1096  -13.6607 N   0  0  0  0  0  0  0  0  0  0  0  0
   26.3247  -20.6950  -11.7125 C   0  0  0  0  0  0  0  0  0  0  0  0
   25.8027  -21.8483  -11.8256 O   0  0  0  0  0  0  0  0  0  0  0  0
   27.9785  -18.3453   -6.0258 C   0  0  0  0  0  0  0  0  0  0  0  0
   28.2353  -20.1093   -6.3137 S   0  0  0  0  0  0  0  0  0  0  0  0
   27.5011  -20.6533   -7.8530 C   0  0  0  0  0  0  0  0  0  0  0  0
   26.0846  -20.2364   -8.0509 C   0  0  0  0  0  0  0  0  0  0  0  0
   25.4787  -20.7083   -9.3584 C   0  0  2  0  0  0  0  0  0  0  0  0
   26.1969  -20.0556  -10.4740 N   0  0  0  0  0  0  0  0  0  0  0  0
   24.0587  -20.4279   -9.5239 C   0  0  0  0  0  0  0  0  0  0  0  0
   23.6358  -19.2881   -9.9255 O   0  0  0  0  0  0  0  0  0  0  0  0
   19.5421  -21.0606  -12.7145 C   0  0  0  0  0  0  0  0  0  0  0  0
   19.9021  -21.0116  -11.2418 C   0  0  0  0  0  0  0  0  0  0  0  0
   21.3666  -21.3034  -11.0240 C   0  0  2  0  0  0  0  0  0  0  0  0
   21.7230  -22.7255  -11.3183 C   0  0  0  0  0  0  0  0  0  0  0  0
   21.6144  -21.1165   -9.5022 C   0  0  2  0  0  0  0  0  0  0  0  0
   23.0177  -21.3881   -9.2662 N   0  0  0  0  0  0  0  0  0  0  0  0
   20.6998  -21.9989   -8.7593 C   0  0  0  0  0  0  0  0  0  0  0  0
   21.1478  -23.0711   -8.0065 O   0  0  0  0  0  0  0  0  0  0  0  0
   19.4678  -21.7865   -8.7986 O   0  0  0  0  0  0  0  0  0  0  0  0
  2  1  1  1
  3  2  1  0
  4  2  1  0
  4  5  1  0
  5  6  1  6
  7  8  2  0
  7  5  1  0
 10 11  1  0
 10  9  1  0
 11 12  1  0
 13 12  1  1
 13 14  1  0
 14  7  1  0
 15 16  2  0
 15 13  1  0
 18 19  1  0
 18 17  1  0
 19 21  1  0
 19 20  1  1
 21 22  1  6
 22 15  1  0
 23 21  1  0
 24 23  1  0
 25 23  2  0
M  END
$$$$
