LMI.pdb
     RDKit          3D

 25 24  0  0  1  0  0  0  0  0999 V2000
   19.9598  -23.5233  -14.5332 C   0  0  0  0  0  0  0  0  0  0  0  0
   19.8196  -22.1779  -15.1961 C   0  0  2  0  0  0  0  0  0  0  0  0
   19.9183  -22.3101  -16.6956 C   0  0  0  0  0  0  0  0  0  0  0  0
   20.7689  -21.1719  -14.6332 C   0  0  0  0  0  0  0  0  0  0  0  0
   20.7031  -21.0799  -13.1249 C   0  0  2  0  0  0  0  0  0  0  0  0
   19.5271  -20.4394  -12.6466 N   0  0  0  0  0  0  0  0  0  0  0  0
   21.9669  -20.5138  -12.6534 C   0  0  0  0  0  0  0  0  0  0  0  0
   22.0558  -19.2460  -12.6422 O   0  0  0  0  0  0  0  0  0  0  0  0
   27.7424  -19.6513   -7.6428 C   0  0  0  0  0  0  0  0  0  0  0  0
   26.2553  -20.5241   -8.1789 S   0  0  0  0  0  0  0  0  0  0  0  0
   25.9990  -20.3934   -9.9457 C   0  0  0  0  0  0  0  0  0  0  0  0
   24.7259  -20.9907  -10.4379 C   0  0  0  0  0  0  0  0  0  0  0  0
   24.3287  -20.5382  -11.8295 C   0  0  2  0  0  0  0  0  0  0  0  0
   23.0832  -21.2355  -12.2150 N   0  0  0  0  0  0  0  0  0  0  0  0
   25.3154  -20.7895  -12.8715 C   0  0  0  0  0  0  0  0  0  0  0  0
   25.6037  -21.9751  -13.2593 O   0  0  0  0  0  0  0  0  0  0  0  0
   27.1119  -16.2954  -15.4747 C   0  0  0  0  0  0  0  0  0  0  0  0
   26.5793  -17.6988  -15.2567 C   0  0  0  0  0  0  0  0  0  0  0  0
   27.6931  -18.6661  -14.9387 C   0  0  2  0  0  0  0  0  0  0  0  0
   28.5722  -18.9432  -16.1161 C   0  0  0  0  0  0  0  0  0  0  0  0
   27.0006  -20.0160  -14.6068 C   0  0  2  0  0  0  0  0  0  0  0  0
   26.0386  -19.7504  -13.5567 N   0  0  0  0  0  0  0  0  0  0  0  0
   28.0307  -21.0019  -14.2409 C   0  0  0  0  0  0  0  0  0  0  0  0
   28.4808  -21.9702  -15.1224 O   0  0  0  0  0  0  0  0  0  0  0  0
   28.5292  -20.9786  -13.0939 O   0  0  0  0  0  0  0  0  0  0  0  0
  2  1  1  1
  3  2  1  0
  4  2  1  0
  4  5  1  0
  5  6  1  6
  7  8  2  0
  7  5  1  0
 10 11  1  0
 10  9  1  0
 11 12  1  0
 13 12  1  1
 13 14  1  0
 14  7  1  0
 15 16  2  0
 15 13  1  0
 18 19  1  0
 18 17  1  0
 19 21  1  0
 19 20  1  6
 21 22  1  1
 22 15  1  0
 23 21  1  0
 24 23  1  0
 25 23  2  0
M  END
$$$$
