LMI.pdb
     RDKit          3D

 25 24  0  0  1  0  0  0  0  0999 V2000
   22.5561  -20.4121  -14.2220 C   0  0  0  0  0  0  0  0  0  0  0  0
   23.7329  -21.1542  -14.7994 C   0  0  2  0  0  0  0  0  0  0  0  0
   23.2706  -22.2149  -15.7674 C   0  0  0  0  0  0  0  0  0  0  0  0
   24.6391  -21.6851  -13.7378 C   0  0  0  0  0  0  0  0  0  0  0  0
   25.0718  -20.6253  -12.7492 C   0  0  2  0  0  0  0  0  0  0  0  0
   25.5750  -19.4466  -13.3655 N   0  0  0  0  0  0  0  0  0  0  0  0
   25.9604  -21.2565  -11.7736 C   0  0  0  0  0  0  0  0  0  0  0  0
   25.5819  -22.3707  -11.2935 O   0  0  0  0  0  0  0  0  0  0  0  0
   32.6265  -22.1091  -10.5472 C   0  0  0  0  0  0  0  0  0  0  0  0
   31.6514  -21.8270  -12.0406 S   0  0  0  0  0  0  0  0  0  0  0  0
   29.8937  -21.9694  -11.7329 C   0  0  0  0  0  0  0  0  0  0  0  0
   29.4159  -21.2715  -10.5063 C   0  0  0  0  0  0  0  0  0  0  0  0
   27.9312  -21.4321  -10.2430 C   0  0  2  0  0  0  0  0  0  0  0  0
   27.1842  -20.7497  -11.3212 N   0  0  0  0  0  0  0  0  0  0  0  0
   27.4622  -20.8943   -8.9729 C   0  0  0  0  0  0  0  0  0  0  0  0
   26.6728  -19.8880   -8.9138 O   0  0  0  0  0  0  0  0  0  0  0  0
   29.4206  -20.3537   -3.1804 C   0  0  0  0  0  0  0  0  0  0  0  0
   28.2633  -20.4204   -4.1588 C   0  0  0  0  0  0  0  0  0  0  0  0
   28.7257  -20.8542   -5.5282 C   0  0  2  0  0  0  0  0  0  0  0  0
   29.6959  -19.8958   -6.1416 C   0  0  0  0  0  0  0  0  0  0  0  0
   27.4653  -20.8110   -6.4347 C   0  0  2  0  0  0  0  0  0  0  0  0
   27.8263  -21.4370   -7.6903 N   0  0  0  0  0  0  0  0  0  0  0  0
   27.0222  -19.4135   -6.5672 C   0  0  0  0  0  0  0  0  0  0  0  0
   25.8439  -18.9500   -6.0069 O   0  0  0  0  0  0  0  0  0  0  0  0
   27.7246  -18.6001   -7.2071 O   0  0  0  0  0  0  0  0  0  0  0  0
  2  1  1  1
  3  2  1  0
  4  2  1  0
  4  5  1  0
  5  6  1  6
  7  8  2  0
  7  5  1  0
 10 11  1  0
 10  9  1  0
 11 12  1  0
 13 12  1  6
 13 14  1  0
 14  7  1  0
 15 16  2  0
 15 13  1  0
 18 19  1  0
 18 17  1  0
 19 21  1  0
 19 20  1  6
 21 22  1  6
 22 15  1  0
 23 21  1  0
 24 23  1  0
 25 23  2  0
M  END
$$$$
