LMI.pdb
     RDKit          3D

 25 24  0  0  1  0  0  0  0  0999 V2000
   17.3917  -12.1970  -20.6867 C   0  0  0  0  0  0  0  0  0  0  0  0
   18.6756  -12.8993  -20.3299 C   0  0  2  0  0  0  0  0  0  0  0  0
   18.9092  -14.0781  -21.2418 C   0  0  0  0  0  0  0  0  0  0  0  0
   18.7368  -13.2582  -18.8815 C   0  0  0  0  0  0  0  0  0  0  0  0
   20.0408  -13.9189  -18.4934 C   0  0  2  0  0  0  0  0  0  0  0  0
   19.9070  -15.3010  -18.1866 N   0  0  0  0  0  0  0  0  0  0  0  0
   20.6688  -13.0998  -17.4567 C   0  0  0  0  0  0  0  0  0  0  0  0
   20.1812  -13.1875  -16.2863 O   0  0  0  0  0  0  0  0  0  0  0  0
   26.1338  -15.1426  -14.8773 C   0  0  0  0  0  0  0  0  0  0  0  0
   25.8466  -13.5754  -15.7271 S   0  0  0  0  0  0  0  0  0  0  0  0
   24.1097  -13.1449  -15.7749 C   0  0  0  0  0  0  0  0  0  0  0  0
   23.8101  -11.8264  -16.4007 C   0  0  0  0  0  0  0  0  0  0  0  0
   22.3309  -11.5037  -16.4833 C   0  0  2  0  0  0  0  0  0  0  0  0
   21.7525  -12.2317  -17.6330 N   0  0  0  0  0  0  0  0  0  0  0  0
   22.0095  -10.0923  -16.6482 C   0  0  0  0  0  0  0  0  0  0  0  0
   21.7796   -9.5801  -17.7988 O   0  0  0  0  0  0  0  0  0  0  0  0
   18.1208   -6.3681  -16.9362 C   0  0  0  0  0  0  0  0  0  0  0  0
   19.5403   -6.4404  -16.4066 C   0  0  0  0  0  0  0  0  0  0  0  0
   19.9805   -7.8701  -16.2074 C   0  0  2  0  0  0  0  0  0  0  0  0
   19.2266   -8.5606  -15.1161 C   0  0  0  0  0  0  0  0  0  0  0  0
   21.4523   -7.7963  -15.7171 C   0  0  2  0  0  0  0  0  0  0  0  0
   21.9127   -9.1603  -15.5554 N   0  0  0  0  0  0  0  0  0  0  0  0
   21.5030   -6.9961  -14.4826 C   0  0  0  0  0  0  0  0  0  0  0  0
   21.6149   -5.6161  -14.4941 O   0  0  0  0  0  0  0  0  0  0  0  0
   21.4439   -7.5684  -13.3719 O   0  0  0  0  0  0  0  0  0  0  0  0
  2  1  1  6
  3  2  1  0
  4  2  1  0
  4  5  1  0
  5  6  1  1
  7  8  2  0
  7  5  1  0
 10 11  1  0
 10  9  1  0
 11 12  1  0
 13 12  1  6
 13 14  1  0
 14  7  1  0
 15 16  2  0
 15 13  1  0
 18 19  1  0
 18 17  1  0
 19 21  1  0
 19 20  1  1
 21 22  1  1
 22 15  1  0
 23 21  1  0
 24 23  1  0
 25 23  2  0
M  END
$$$$
