LMI.pdb
     RDKit          3D

 25 24  0  0  1  0  0  0  0  0999 V2000
   28.2489  -17.4223  -18.0316 C   0  0  0  0  0  0  0  0  0  0  0  0
   28.8746  -18.5821  -17.3018 C   0  0  2  0  0  0  0  0  0  0  0  0
   29.7595  -19.3790  -18.2277 C   0  0  0  0  0  0  0  0  0  0  0  0
   27.8571  -19.4196  -16.5993 C   0  0  0  0  0  0  0  0  0  0  0  0
   26.9867  -18.6200  -15.6555 C   0  0  2  0  0  0  0  0  0  0  0  0
   27.6746  -17.5514  -15.0175 N   0  0  0  0  0  0  0  0  0  0  0  0
   26.3119  -19.5602  -14.7608 C   0  0  0  0  0  0  0  0  0  0  0  0
   25.7505  -20.5627  -15.3040 O   0  0  0  0  0  0  0  0  0  0  0  0
   26.6613  -19.8027   -8.1753 C   0  0  0  0  0  0  0  0  0  0  0  0
   25.5044  -21.1485   -8.5084 S   0  0  0  0  0  0  0  0  0  0  0  0
   25.0152  -21.2042  -10.2294 C   0  0  0  0  0  0  0  0  0  0  0  0
   25.8105  -20.3267  -11.1334 C   0  0  0  0  0  0  0  0  0  0  0  0
   25.4000  -20.4074  -12.5909 C   0  0  2  0  0  0  0  0  0  0  0  0
   26.2272  -19.4592  -13.3673 N   0  0  0  0  0  0  0  0  0  0  0  0
   24.0025  -20.0983  -12.8624 C   0  0  0  0  0  0  0  0  0  0  0  0
   23.6395  -18.9669  -13.3392 O   0  0  0  0  0  0  0  0  0  0  0  0
   20.0031  -20.5322  -16.5508 C   0  0  0  0  0  0  0  0  0  0  0  0
   20.1392  -20.5390  -15.0401 C   0  0  0  0  0  0  0  0  0  0  0  0
   21.5583  -20.8304  -14.6174 C   0  0  2  0  0  0  0  0  0  0  0  0
   21.9909  -22.2196  -14.9626 C   0  0  0  0  0  0  0  0  0  0  0  0
   21.5605  -20.7651  -13.0656 C   0  0  2  0  0  0  0  0  0  0  0  0
   22.9199  -21.0191  -12.6340 N   0  0  0  0  0  0  0  0  0  0  0  0
   20.5768  -21.7299  -12.5475 C   0  0  0  0  0  0  0  0  0  0  0  0
   20.9456  -22.9442  -11.9938 O   0  0  0  0  0  0  0  0  0  0  0  0
   19.3569  -21.4585  -12.6016 O   0  0  0  0  0  0  0  0  0  0  0  0
  2  1  1  6
  3  2  1  0
  4  2  1  0
  4  5  1  0
  5  6  1  1
  7  8  2  0
  7  5  1  0
 10 11  1  0
 10  9  1  0
 11 12  1  0
 13 12  1  1
 13 14  1  0
 14  7  1  0
 15 16  2  0
 15 13  1  0
 18 19  1  0
 18 17  1  0
 19 21  1  0
 19 20  1  1
 21 22  1  1
 22 15  1  0
 23 21  1  0
 24 23  1  0
 25 23  2  0
M  END
$$$$
