LHK.pdb
     RDKit          3D

 28 28  0  0  1  0  0  0  0  0999 V2000
    7.3184  -12.5645   21.0595 C   0  0  0  0  0  0  0  0  0  0  0  0
    7.8293  -13.2433   19.8250 C   0  0  1  0  0  0  0  0  0  0  0  0
    7.8106  -12.3418   18.6161 C   0  0  0  0  0  0  0  0  0  0  0  0
    9.1494  -13.9088   20.0361 C   0  0  0  0  0  0  0  0  0  0  0  0
    9.5735  -14.6268   18.7788 C   0  0  2  0  0  0  0  0  0  0  0  0
    8.5735  -15.5874   18.3646 N   0  0  0  0  0  0  0  0  0  0  0  0
   10.8504  -15.3584   18.9575 C   0  0  0  0  0  0  0  0  0  0  0  0
   10.8451  -16.5244   19.3546 O   0  0  0  0  0  0  0  0  0  0  0  0
   12.1211  -14.7396   18.6771 N   0  0  0  0  0  0  0  0  0  0  0  0
   13.3859  -15.3608   18.9882 C   0  0  1  0  0  0  0  0  0  0  0  0
   14.4337  -14.5605   18.2060 C   0  0  0  0  0  0  0  0  0  0  0  0
   14.5170  -15.0122   16.7899 C   0  0  0  0  0  0  0  0  0  0  0  0
   13.9244  -16.0913   16.1677 C   0  0  0  0  0  0  0  0  0  0  0  0
   14.2670  -16.1336   14.8646 N   0  0  0  0  0  0  0  0  0  0  0  0
   15.0704  -15.0955   14.6474 C   0  0  0  0  0  0  0  0  0  0  0  0
   15.2288  -14.4187   15.7831 N   0  0  0  0  0  0  0  0  0  0  0  0
   13.6613  -15.4523   20.4199 C   0  0  0  0  0  0  0  0  0  0  0  0
   13.2522  -14.5412   21.1848 O   0  0  0  0  0  0  0  0  0  0  0  0
   14.3682  -16.5106   21.0316 N   0  0  0  0  0  0  0  0  0  0  0  0
   14.3532  -16.6365   22.4911 C   0  0  1  0  0  0  0  0  0  0  0  0
   13.2493  -17.5830   22.9098 C   0  0  0  0  0  0  0  0  0  0  0  0
   13.2636  -17.8764   24.3815 C   0  0  0  0  0  0  0  0  0  0  0  0
   12.2010  -18.8985   24.7609 C   0  0  0  0  0  0  0  0  0  0  0  0
   12.1590  -19.0823   26.2518 C   0  0  0  0  0  0  0  0  0  0  0  0
   10.9755  -19.8792   26.6002 N   0  0  0  0  0  0  0  0  0  0  0  0
   15.6966  -17.0313   22.8926 C   0  0  0  0  0  0  0  0  0  0  0  0
   16.6737  -17.3873   21.9665 O   0  0  0  0  0  0  0  0  0  0  0  0
   16.0106  -17.0607   24.1072 O   0  0  0  0  0  0  0  0  0  0  0  0
  2  1  1  1
  2  3  1  0
  4  5  1  0
  4  2  1  0
  5  6  1  1
  7  5  1  0
  7  8  2  0
  9  7  1  0
 10  9  1  0
 11 12  1  0
 10 11  1  6
 12 16  1  0
 12 13  2  0
 13 14  1  0
 15 14  1  0
 16 15  2  0
 17 10  1  0
 18 17  2  0
 19 17  1  0
 20 21  1  6
 20 19  1  0
 21 22  1  0
 22 23  1  0
 23 24  1  0
 24 25  1  0
 26 20  1  0
 27 26  1  0
 28 26  2  0
M  END
$$$$
