LHK.pdb
     RDKit          3D

 28 28  0  0  1  0  0  0  0  0999 V2000
    4.3059  -20.4333   23.2795 C   0  0  0  0  0  0  0  0  0  0  0  0
    4.5202  -19.6636   22.0117 C   0  0  1  0  0  0  0  0  0  0  0  0
    3.3216  -18.8335   21.6262 C   0  0  0  0  0  0  0  0  0  0  0  0
    5.7930  -18.8827   22.0181 C   0  0  0  0  0  0  0  0  0  0  0  0
    5.9893  -18.2029   20.6856 C   0  0  2  0  0  0  0  0  0  0  0  0
    6.0005  -19.1661   19.6056 N   0  0  0  0  0  0  0  0  0  0  0  0
    7.2642  -17.4487   20.6262 C   0  0  0  0  0  0  0  0  0  0  0  0
    8.3260  -18.0425   20.4332 O   0  0  0  0  0  0  0  0  0  0  0  0
    7.3035  -16.0176   20.7898 N   0  0  0  0  0  0  0  0  0  0  0  0
    8.5331  -15.2646   20.8489 C   0  0  1  0  0  0  0  0  0  0  0  0
    8.1758  -13.8643   20.3377 C   0  0  0  0  0  0  0  0  0  0  0  0
    8.1650  -13.8151   18.8497 C   0  0  0  0  0  0  0  0  0  0  0  0
    8.5184  -14.7793   17.9287 C   0  0  0  0  0  0  0  0  0  0  0  0
    8.3562  -14.3168   16.6729 N   0  0  0  0  0  0  0  0  0  0  0  0
    7.9039  -13.0702   16.7809 C   0  0  0  0  0  0  0  0  0  0  0  0
    7.7849  -12.7572   18.0696 N   0  0  0  0  0  0  0  0  0  0  0  0
    9.1639  -15.2686   22.1666 C   0  0  0  0  0  0  0  0  0  0  0  0
    8.4516  -15.1043   23.1904 O   0  0  0  0  0  0  0  0  0  0  0  0
   10.5466  -15.4479   22.3900 N   0  0  0  0  0  0  0  0  0  0  0  0
   11.0007  -16.0335   23.6538 C   0  0  1  0  0  0  0  0  0  0  0  0
   10.3445  -17.3821   23.8555 C   0  0  0  0  0  0  0  0  0  0  0  0
   10.8654  -18.1060   25.0625 C   0  0  0  0  0  0  0  0  0  0  0  0
   10.1928  -19.4604   25.2389 C   0  0  0  0  0  0  0  0  0  0  0  0
   10.6535  -20.1128   26.5118 C   0  0  0  0  0  0  0  0  0  0  0  0
    9.8829  -21.3454   26.7212 N   0  0  0  0  0  0  0  0  0  0  0  0
   12.4565  -16.0505   23.6098 C   0  0  0  0  0  0  0  0  0  0  0  0
   13.2317  -16.2335   24.7520 O   0  0  0  0  0  0  0  0  0  0  0  0
   13.0581  -15.8970   22.5193 O   0  0  0  0  0  0  0  0  0  0  0  0
  2  1  1  1
  2  3  1  0
  4  5  1  0
  4  2  1  0
  5  6  1  6
  7  5  1  0
  7  8  2  0
  9  7  1  0
 10  9  1  0
 11 12  1  0
 10 11  1  1
 12 16  1  0
 12 13  2  0
 13 14  1  0
 15 14  1  0
 16 15  2  0
 17 10  1  0
 18 17  2  0
 19 17  1  0
 20 21  1  6
 20 19  1  0
 21 22  1  0
 22 23  1  0
 23 24  1  0
 24 25  1  0
 26 20  1  0
 27 26  1  0
 28 26  2  0
M  END
$$$$
