LHK.pdb
     RDKit          3D

 28 28  0  0  1  0  0  0  0  0999 V2000
    7.3301  -12.1932   19.3740 C   0  0  0  0  0  0  0  0  0  0  0  0
    7.6361  -13.6116   19.7485 C   0  0  1  0  0  0  0  0  0  0  0  0
    9.0137  -14.0435   19.3125 C   0  0  0  0  0  0  0  0  0  0  0  0
    7.3622  -13.9010   21.1877 C   0  0  0  0  0  0  0  0  0  0  0  0
    7.5417  -15.3736   21.4623 C   0  0  2  0  0  0  0  0  0  0  0  0
    6.6357  -16.1676   20.6604 N   0  0  0  0  0  0  0  0  0  0  0  0
    7.2935  -15.7105   22.8845 C   0  0  0  0  0  0  0  0  0  0  0  0
    6.4568  -15.0805   23.5327 O   0  0  0  0  0  0  0  0  0  0  0  0
    8.0118  -16.7701   23.5461 N   0  0  0  0  0  0  0  0  0  0  0  0
    7.7801  -17.1399   24.9216 C   0  0  1  0  0  0  0  0  0  0  0  0
    6.2676  -17.3640   25.0317 C   0  0  0  0  0  0  0  0  0  0  0  0
    5.8693  -18.6781   24.4563 C   0  0  0  0  0  0  0  0  0  0  0  0
    5.4760  -19.0014   23.1742 C   0  0  0  0  0  0  0  0  0  0  0  0
    5.2027  -20.3181   23.0805 N   0  0  0  0  0  0  0  0  0  0  0  0
    5.4165  -20.8390   24.2860 C   0  0  0  0  0  0  0  0  0  0  0  0
    5.8136  -19.8759   25.1154 N   0  0  0  0  0  0  0  0  0  0  0  0
    8.5793  -18.2781   25.3687 C   0  0  0  0  0  0  0  0  0  0  0  0
    8.5059  -19.3660   24.7412 O   0  0  0  0  0  0  0  0  0  0  0  0
    9.4524  -18.2548   26.4782 N   0  0  0  0  0  0  0  0  0  0  0  0
   10.2901  -19.4235   26.7587 C   0  0  1  0  0  0  0  0  0  0  0  0
   11.3644  -19.5465   25.7000 C   0  0  0  0  0  0  0  0  0  0  0  0
   12.3384  -18.4050   25.7265 C   0  0  0  0  0  0  0  0  0  0  0  0
   13.4352  -18.5782   24.6849 C   0  0  0  0  0  0  0  0  0  0  0  0
   14.3767  -17.4074   24.7154 C   0  0  0  0  0  0  0  0  0  0  0  0
   15.4128  -17.6027   23.6930 N   0  0  0  0  0  0  0  0  0  0  0  0
   10.7761  -19.2743   28.1236 C   0  0  0  0  0  0  0  0  0  0  0  0
   11.5961  -20.2238   28.7277 O   0  0  0  0  0  0  0  0  0  0  0  0
   10.4601  -18.2661   28.8007 O   0  0  0  0  0  0  0  0  0  0  0  0
  2  1  1  1
  2  3  1  0
  4  5  1  0
  4  2  1  0
  5  6  1  6
  7  5  1  0
  7  8  2  0
  9  7  1  0
 10  9  1  0
 11 12  1  0
 10 11  1  6
 12 16  1  0
 12 13  2  0
 13 14  1  0
 15 14  1  0
 16 15  2  0
 17 10  1  0
 18 17  2  0
 19 17  1  0
 20 21  1  6
 20 19  1  0
 21 22  1  0
 22 23  1  0
 23 24  1  0
 24 25  1  0
 26 20  1  0
 27 26  1  0
 28 26  2  0
M  END
$$$$
