LHK.pdb
     RDKit          3D

 28 28  0  0  1  0  0  0  0  0999 V2000
    8.0593  -12.1634   26.6699 C   0  0  0  0  0  0  0  0  0  0  0  0
    6.8500  -13.0000   26.3812 C   0  0  1  0  0  0  0  0  0  0  0  0
    5.6085  -12.4816   27.0626 C   0  0  0  0  0  0  0  0  0  0  0  0
    6.6542  -13.2481   24.9218 C   0  0  0  0  0  0  0  0  0  0  0  0
    6.2319  -14.6782   24.6923 C   0  0  2  0  0  0  0  0  0  0  0  0
    5.6697  -15.2550   25.8947 N   0  0  0  0  0  0  0  0  0  0  0  0
    7.3668  -15.5349   24.2730 C   0  0  0  0  0  0  0  0  0  0  0  0
    7.7115  -16.4901   24.9700 O   0  0  0  0  0  0  0  0  0  0  0  0
    8.0936  -15.2826   23.0546 N   0  0  0  0  0  0  0  0  0  0  0  0
    9.1135  -16.1687   22.5475 C   0  0  1  0  0  0  0  0  0  0  0  0
    9.5047  -15.5960   21.1805 C   0  0  0  0  0  0  0  0  0  0  0  0
   10.4134  -16.5176   20.4447 C   0  0  0  0  0  0  0  0  0  0  0  0
   10.9576  -17.7237   20.8346 C   0  0  0  0  0  0  0  0  0  0  0  0
   11.7317  -18.2327   19.8554 N   0  0  0  0  0  0  0  0  0  0  0  0
   11.6885  -17.3670   18.8460 C   0  0  0  0  0  0  0  0  0  0  0  0
   10.9083  -16.3414   19.1812 N   0  0  0  0  0  0  0  0  0  0  0  0
   10.2426  -16.3494   23.4567 C   0  0  0  0  0  0  0  0  0  0  0  0
   10.6840  -15.3587   24.0942 O   0  0  0  0  0  0  0  0  0  0  0  0
   10.8958  -17.5803   23.6848 N   0  0  0  0  0  0  0  0  0  0  0  0
   11.7545  -17.7313   24.8622 C   0  0  1  0  0  0  0  0  0  0  0  0
   11.1150  -18.6937   25.8394 C   0  0  0  0  0  0  0  0  0  0  0  0
   11.9983  -19.0012   27.0130 C   0  0  0  0  0  0  0  0  0  0  0  0
   11.3695  -20.0388   27.9327 C   0  0  0  0  0  0  0  0  0  0  0  0
   12.2710  -20.3178   29.1021 C   0  0  0  0  0  0  0  0  0  0  0  0
   11.5757  -21.2126   30.0365 N   0  0  0  0  0  0  0  0  0  0  0  0
   13.0704  -18.1221   24.3751 C   0  0  0  0  0  0  0  0  0  0  0  0
   14.2412  -17.7907   25.0522 O   0  0  0  0  0  0  0  0  0  0  0  0
   13.1816  -18.7796   23.3121 O   0  0  0  0  0  0  0  0  0  0  0  0
  2  1  1  6
  2  3  1  0
  4  5  1  0
  4  2  1  0
  5  6  1  1
  7  5  1  0
  7  8  2  0
  9  7  1  0
 10  9  1  0
 11 12  1  0
 10 11  1  6
 12 16  1  0
 12 13  2  0
 13 14  1  0
 15 14  1  0
 16 15  2  0
 17 10  1  0
 18 17  2  0
 19 17  1  0
 20 21  1  1
 20 19  1  0
 21 22  1  0
 22 23  1  0
 23 24  1  0
 24 25  1  0
 26 20  1  0
 27 26  1  0
 28 26  2  0
M  END
$$$$
