LHK.pdb
     RDKit          3D

 28 28  0  0  1  0  0  0  0  0999 V2000
    6.9103  -12.5310   18.5704 C   0  0  0  0  0  0  0  0  0  0  0  0
    8.2833  -13.0816   18.8106 C   0  0  1  0  0  0  0  0  0  0  0  0
    9.2813  -12.0132   19.1805 C   0  0  0  0  0  0  0  0  0  0  0  0
    8.2853  -14.2353   19.7587 C   0  0  0  0  0  0  0  0  0  0  0  0
    9.6971  -14.5489   20.1884 C   0  0  2  0  0  0  0  0  0  0  0  0
   10.5087  -14.9500   19.0594 N   0  0  0  0  0  0  0  0  0  0  0  0
    9.7464  -15.6438   21.1868 C   0  0  0  0  0  0  0  0  0  0  0  0
    9.0082  -15.6162   22.1724 O   0  0  0  0  0  0  0  0  0  0  0  0
   10.6459  -16.7599   21.0398 N   0  0  0  0  0  0  0  0  0  0  0  0
   10.7936  -17.7899   22.0397 C   0  0  1  0  0  0  0  0  0  0  0  0
   11.2836  -19.0267   21.2781 C   0  0  0  0  0  0  0  0  0  0  0  0
   10.2561  -19.5170   20.3187 C   0  0  0  0  0  0  0  0  0  0  0  0
    8.9574  -19.0968   20.1200 C   0  0  0  0  0  0  0  0  0  0  0  0
    8.3710  -19.8165   19.1425 N   0  0  0  0  0  0  0  0  0  0  0  0
    9.2788  -20.6903   18.7152 C   0  0  0  0  0  0  0  0  0  0  0  0
   10.4055  -20.5246   19.4051 N   0  0  0  0  0  0  0  0  0  0  0  0
   11.6520  -17.4071   23.1580 C   0  0  0  0  0  0  0  0  0  0  0  0
   12.7251  -18.0340   23.3529 O   0  0  0  0  0  0  0  0  0  0  0  0
   11.3672  -16.3605   24.0622 N   0  0  0  0  0  0  0  0  0  0  0  0
   11.7971  -16.4791   25.4577 C   0  0  1  0  0  0  0  0  0  0  0  0
   10.7282  -15.9173   26.3698 C   0  0  0  0  0  0  0  0  0  0  0  0
   11.0191  -16.1589   27.8221 C   0  0  0  0  0  0  0  0  0  0  0  0
   10.5843  -14.9826   28.6854 C   0  0  0  0  0  0  0  0  0  0  0  0
   10.8435  -15.2734   30.1367 C   0  0  0  0  0  0  0  0  0  0  0  0
   10.4251  -14.1149   30.9366 N   0  0  0  0  0  0  0  0  0  0  0  0
   12.1289  -17.8802   25.6776 C   0  0  0  0  0  0  0  0  0  0  0  0
   13.3474  -18.2780   26.2216 O   0  0  0  0  0  0  0  0  0  0  0  0
   11.3077  -18.7795   25.3752 O   0  0  0  0  0  0  0  0  0  0  0  0
  2  1  1  1
  2  3  1  0
  4  5  1  0
  4  2  1  0
  5  6  1  6
  7  5  1  0
  7  8  2  0
  9  7  1  0
 10  9  1  0
 11 12  1  0
 10 11  1  6
 12 16  1  0
 12 13  2  0
 13 14  1  0
 15 14  1  0
 16 15  2  0
 17 10  1  0
 18 17  2  0
 19 17  1  0
 20 21  1  1
 20 19  1  0
 21 22  1  0
 22 23  1  0
 23 24  1  0
 24 25  1  0
 26 20  1  0
 27 26  1  0
 28 26  2  0
M  END
$$$$
