LHK.pdb
     RDKit          3D

 28 28  0  0  1  0  0  0  0  0999 V2000
    6.8318  -12.2059   18.2162 C   0  0  0  0  0  0  0  0  0  0  0  0
    7.7642  -13.2679   18.7148 C   0  0  1  0  0  0  0  0  0  0  0  0
    9.2095  -12.8392   18.6718 C   0  0  0  0  0  0  0  0  0  0  0  0
    7.3576  -13.8164   20.0429 C   0  0  0  0  0  0  0  0  0  0  0  0
    8.3738  -14.8249   20.5189 C   0  0  2  0  0  0  0  0  0  0  0  0
    8.5563  -15.8802   19.5456 N   0  0  0  0  0  0  0  0  0  0  0  0
    7.9737  -15.4594   21.7977 C   0  0  0  0  0  0  0  0  0  0  0  0
    7.4767  -14.7798   22.6967 O   0  0  0  0  0  0  0  0  0  0  0  0
    8.1503  -16.8708   22.0282 N   0  0  0  0  0  0  0  0  0  0  0  0
    7.7410  -17.5276   23.2462 C   0  0  1  0  0  0  0  0  0  0  0  0
    7.3579  -18.9522   22.8294 C   0  0  0  0  0  0  0  0  0  0  0  0
    6.0460  -18.9788   22.1262 C   0  0  0  0  0  0  0  0  0  0  0  0
    4.9371  -18.1745   22.2888 C   0  0  0  0  0  0  0  0  0  0  0  0
    3.9557  -18.5440   21.4417 N   0  0  0  0  0  0  0  0  0  0  0  0
    4.4241  -19.5734   20.7409 C   0  0  0  0  0  0  0  0  0  0  0  0
    5.6664  -19.8440   21.1365 N   0  0  0  0  0  0  0  0  0  0  0  0
    8.7406  -17.4727   24.3101 C   0  0  0  0  0  0  0  0  0  0  0  0
    9.9225  -17.8256   24.0629 O   0  0  0  0  0  0  0  0  0  0  0  0
    8.4804  -17.0425   25.6296 N   0  0  0  0  0  0  0  0  0  0  0  0
    9.5925  -16.9035   26.5732 C   0  0  1  0  0  0  0  0  0  0  0  0
    9.2272  -15.9026   27.6477 C   0  0  0  0  0  0  0  0  0  0  0  0
   10.2357  -15.8491   28.7577 C   0  0  0  0  0  0  0  0  0  0  0  0
    9.8868  -14.7786   29.7825 C   0  0  0  0  0  0  0  0  0  0  0  0
   10.8929  -14.7737   30.8988 C   0  0  0  0  0  0  0  0  0  0  0  0
   10.5698  -13.6817   31.8262 N   0  0  0  0  0  0  0  0  0  0  0  0
    9.9072  -18.2428   27.0517 C   0  0  0  0  0  0  0  0  0  0  0  0
    8.9194  -19.1883   27.3148 O   0  0  0  0  0  0  0  0  0  0  0  0
   11.1002  -18.5821   27.2422 O   0  0  0  0  0  0  0  0  0  0  0  0
  2  1  1  1
  2  3  1  0
  4  5  1  0
  4  2  1  0
  5  6  1  6
  7  5  1  0
  7  8  2  0
  9  7  1  0
 10  9  1  0
 11 12  1  0
 10 11  1  6
 12 16  1  0
 12 13  2  0
 13 14  1  0
 15 14  1  0
 16 15  2  0
 17 10  1  0
 18 17  2  0
 19 17  1  0
 20 21  1  1
 20 19  1  0
 21 22  1  0
 22 23  1  0
 23 24  1  0
 24 25  1  0
 26 20  1  0
 27 26  1  0
 28 26  2  0
M  END
$$$$
