LHK.pdb
     RDKit          3D

 28 28  0  0  1  0  0  0  0  0999 V2000
    7.4273  -12.3578   21.2201 C   0  0  0  0  0  0  0  0  0  0  0  0
    7.6997  -13.4605   20.2425 C   0  0  1  0  0  0  0  0  0  0  0  0
    8.1610  -12.9474   18.9014 C   0  0  0  0  0  0  0  0  0  0  0  0
    8.5925  -14.5196   20.8004 C   0  0  0  0  0  0  0  0  0  0  0  0
    8.7457  -15.6436   19.8058 C   0  0  2  0  0  0  0  0  0  0  0  0
    7.4638  -16.2330   19.4837 N   0  0  0  0  0  0  0  0  0  0  0  0
    9.6205  -16.7259   20.3169 C   0  0  0  0  0  0  0  0  0  0  0  0
    9.1419  -17.6475   20.9792 O   0  0  0  0  0  0  0  0  0  0  0  0
   11.0383  -16.7357   20.0599 N   0  0  0  0  0  0  0  0  0  0  0  0
   11.9212  -17.7659   20.5514 C   0  0  1  0  0  0  0  0  0  0  0  0
   13.1587  -17.7037   19.6489 C   0  0  0  0  0  0  0  0  0  0  0  0
   12.9541  -18.4745   18.3917 C   0  0  0  0  0  0  0  0  0  0  0  0
   11.9549  -19.3616   18.0489 C   0  0  0  0  0  0  0  0  0  0  0  0
   12.1514  -19.8381   16.8033 N   0  0  0  0  0  0  0  0  0  0  0  0
   13.2629  -19.2666   16.3470 C   0  0  0  0  0  0  0  0  0  0  0  0
   13.7522  -18.4527   17.2804 N   0  0  0  0  0  0  0  0  0  0  0  0
   12.2236  -17.6527   21.9762 C   0  0  0  0  0  0  0  0  0  0  0  0
   12.5158  -16.5269   22.4556 O   0  0  0  0  0  0  0  0  0  0  0  0
   12.2131  -18.7344   22.8837 N   0  0  0  0  0  0  0  0  0  0  0  0
   12.5402  -18.4950   24.2916 C   0  0  1  0  0  0  0  0  0  0  0  0
   11.8742  -19.5442   25.1551 C   0  0  0  0  0  0  0  0  0  0  0  0
   12.3407  -19.5036   26.5809 C   0  0  0  0  0  0  0  0  0  0  0  0
   11.7838  -20.6686   27.3875 C   0  0  0  0  0  0  0  0  0  0  0  0
   12.2410  -20.5829   28.8164 C   0  0  0  0  0  0  0  0  0  0  0  0
   11.5617  -21.6251   29.5970 N   0  0  0  0  0  0  0  0  0  0  0  0
   13.9930  -18.4450   24.3827 C   0  0  0  0  0  0  0  0  0  0  0  0
   14.8155  -19.1982   23.5488 O   0  0  0  0  0  0  0  0  0  0  0  0
   14.5483  -17.7074   25.2325 O   0  0  0  0  0  0  0  0  0  0  0  0
  2  1  1  1
  2  3  1  0
  4  5  1  0
  4  2  1  0
  5  6  1  1
  7  5  1  0
  7  8  2  0
  9  7  1  0
 10  9  1  0
 11 12  1  0
 10 11  1  6
 12 16  1  0
 12 13  2  0
 13 14  1  0
 15 14  1  0
 16 15  2  0
 17 10  1  0
 18 17  2  0
 19 17  1  0
 20 21  1  1
 20 19  1  0
 21 22  1  0
 22 23  1  0
 23 24  1  0
 24 25  1  0
 26 20  1  0
 27 26  1  0
 28 26  2  0
M  END
$$$$
