LHK.pdb
     RDKit          3D

 28 28  0  0  1  0  0  0  0  0999 V2000
    7.1320  -12.1913   20.3670 C   0  0  0  0  0  0  0  0  0  0  0  0
    7.2866  -13.5672   19.7935 C   0  0  1  0  0  0  0  0  0  0  0  0
    7.5532  -13.5515   18.3092 C   0  0  0  0  0  0  0  0  0  0  0  0
    8.2636  -14.4031   20.5529 C   0  0  0  0  0  0  0  0  0  0  0  0
    8.2544  -15.8167   20.0255 C   0  0  2  0  0  0  0  0  0  0  0  0
    6.9715  -16.4480   20.2488 N   0  0  0  0  0  0  0  0  0  0  0  0
    9.2874  -16.6605   20.6726 C   0  0  0  0  0  0  0  0  0  0  0  0
    9.0399  -17.2383   21.7319 O   0  0  0  0  0  0  0  0  0  0  0  0
   10.5956  -16.8305   20.0929 N   0  0  0  0  0  0  0  0  0  0  0  0
   11.6875  -17.4707   20.7859 C   0  0  1  0  0  0  0  0  0  0  0  0
   12.7727  -17.6826   19.7241 C   0  0  0  0  0  0  0  0  0  0  0  0
   13.9060  -18.4870   20.2578 C   0  0  0  0  0  0  0  0  0  0  0  0
   14.0800  -19.0560   21.5023 C   0  0  0  0  0  0  0  0  0  0  0  0
   15.2596  -19.7054   21.5655 N   0  0  0  0  0  0  0  0  0  0  0  0
   15.8404  -19.5581   20.3776 C   0  0  0  0  0  0  0  0  0  0  0  0
   15.0475  -18.8356   19.5886 N   0  0  0  0  0  0  0  0  0  0  0  0
   12.1486  -16.7387   21.9630 C   0  0  0  0  0  0  0  0  0  0  0  0
   12.4081  -15.5119   21.8622 O   0  0  0  0  0  0  0  0  0  0  0  0
   12.3306  -17.3126   23.2403 N   0  0  0  0  0  0  0  0  0  0  0  0
   12.6207  -16.4442   24.3840 C   0  0  1  0  0  0  0  0  0  0  0  0
   11.7411  -16.8305   25.5533 C   0  0  0  0  0  0  0  0  0  0  0  0
   12.0784  -16.0774   26.8067 C   0  0  0  0  0  0  0  0  0  0  0  0
   11.1689  -16.4730   27.9618 C   0  0  0  0  0  0  0  0  0  0  0  0
   11.4985  -15.6689   29.1878 C   0  0  0  0  0  0  0  0  0  0  0  0
   10.7012  -16.1703   30.3147 N   0  0  0  0  0  0  0  0  0  0  0  0
   14.0540  -16.5347   24.6273 C   0  0  0  0  0  0  0  0  0  0  0  0
   14.7499  -17.7364   24.5249 O   0  0  0  0  0  0  0  0  0  0  0  0
   14.7079  -15.5109   24.9417 O   0  0  0  0  0  0  0  0  0  0  0  0
  2  1  1  1
  2  3  1  0
  4  5  1  0
  4  2  1  0
  5  6  1  1
  7  5  1  0
  7  8  2  0
  9  7  1  0
 10  9  1  0
 11 12  1  0
 10 11  1  6
 12 16  1  0
 12 13  2  0
 13 14  1  0
 15 14  1  0
 16 15  2  0
 17 10  1  0
 18 17  2  0
 19 17  1  0
 20 21  1  1
 20 19  1  0
 21 22  1  0
 22 23  1  0
 23 24  1  0
 24 25  1  0
 26 20  1  0
 27 26  1  0
 28 26  2  0
M  END
$$$$
