SVF.pdb
     RDKit          3D

 25 25  0  0  1  0  0  0  0  0999 V2000
    6.1749  -18.8829   24.0396 O   0  0  0  0  0  0  0  0  0  0  0  0
    5.1829  -18.5233   23.1330 C   0  0  0  0  0  0  0  0  0  0  0  0
    5.8351  -18.3758   21.7753 C   0  0  2  0  0  0  0  0  0  0  0  0
    6.2970  -19.6451   21.2595 N   0  0  0  0  0  0  0  0  0  0  0  0
    6.9768  -17.4323   21.8241 C   0  0  0  0  0  0  0  0  0  0  0  0
    8.1751  -17.8442   21.8975 O   0  0  0  0  0  0  0  0  0  0  0  0
    8.4043  -12.6889   21.4559 C   0  0  0  0  0  0  0  0  0  0  0  0
    7.3136  -13.7272   21.3909 C   0  0  1  0  0  0  0  0  0  0  0  0
    6.8057  -13.8197   19.9880 C   0  0  0  0  0  0  0  0  0  0  0  0
    7.8085  -15.0918   21.8859 C   0  0  2  0  0  0  0  0  0  0  0  0
    6.7490  -16.0460   21.7895 N   0  0  0  0  0  0  0  0  0  0  0  0
    8.2097  -14.8611   23.3206 C   0  0  0  0  0  0  0  0  0  0  0  0
    7.8195  -13.8317   23.9295 O   0  0  0  0  0  0  0  0  0  0  0  0
    9.0219  -15.7694   24.0265 N   0  0  0  0  0  0  0  0  0  0  0  0
    9.3644  -15.6142   25.4333 C   0  0  1  0  0  0  0  0  0  0  0  0
    8.1275  -15.5095   26.2941 C   0  0  0  0  0  0  0  0  0  0  0  0
    7.6698  -14.1450   26.5154 C   0  0  0  0  0  0  0  0  0  0  0  0
    8.5479  -13.1534   26.8815 C   0  0  0  0  0  0  0  0  0  0  0  0
    8.1542  -11.8478   27.1007 C   0  0  0  0  0  0  0  0  0  0  0  0
    6.8239  -11.5326   26.9442 C   0  0  0  0  0  0  0  0  0  0  0  0
    5.9312  -12.5176   26.5770 C   0  0  0  0  0  0  0  0  0  0  0  0
    6.3433  -13.8275   26.3600 C   0  0  0  0  0  0  0  0  0  0  0  0
   10.2336  -16.7452   25.8411 C   0  0  0  0  0  0  0  0  0  0  0  0
   10.7059  -16.8128   27.0059 O   0  0  0  0  0  0  0  0  0  0  0  0
   10.5724  -17.7794   24.9765 O   0  0  0  0  0  0  0  0  0  0  0  0
  2  1  1  0
  3  2  1  0
  3  4  1  1
  5  3  1  0
  5  6  2  0
  8  7  1  6
  8 10  1  0
  9  8  1  0
 10 12  1  0
 10 11  1  1
 11  5  1  0
 12 14  1  0
 13 12  2  0
 14 15  1  0
 15 23  1  0
 15 16  1  1
 17 16  1  0
 17 22  2  0
 18 17  1  0
 19 18  2  0
 19 20  1  0
 20 21  2  0
 21 22  1  0
 23 24  2  0
 23 25  1  0
M  END
$$$$
