SVF.pdb
     RDKit          3D

 25 25  0  0  1  0  0  0  0  0999 V2000
    6.9221  -19.2638   23.0468 O   0  0  0  0  0  0  0  0  0  0  0  0
    5.8001  -18.7340   22.4175 C   0  0  0  0  0  0  0  0  0  0  0  0
    6.2261  -18.2602   21.0448 C   0  0  2  0  0  0  0  0  0  0  0  0
    6.7551  -19.3407   20.2428 N   0  0  0  0  0  0  0  0  0  0  0  0
    7.2429  -17.1860   21.1354 C   0  0  0  0  0  0  0  0  0  0  0  0
    8.4837  -17.4491   21.1793 O   0  0  0  0  0  0  0  0  0  0  0  0
    8.0619  -12.2839   21.2110 C   0  0  0  0  0  0  0  0  0  0  0  0
    7.1079  -13.4376   21.0353 C   0  0  1  0  0  0  0  0  0  0  0  0
    6.6124  -13.4555   19.6250 C   0  0  0  0  0  0  0  0  0  0  0  0
    7.7689  -14.7722   21.4012 C   0  0  2  0  0  0  0  0  0  0  0  0
    6.8449  -15.8388   21.1750 N   0  0  0  0  0  0  0  0  0  0  0  0
    8.1131  -14.6459   22.8634 C   0  0  0  0  0  0  0  0  0  0  0  0
    7.6038  -13.7281   23.5568 O   0  0  0  0  0  0  0  0  0  0  0  0
    9.0015  -15.5318   23.5029 N   0  0  0  0  0  0  0  0  0  0  0  0
    9.4015  -15.4002   24.8968 C   0  0  1  0  0  0  0  0  0  0  0  0
    8.2013  -15.2845   25.8068 C   0  0  0  0  0  0  0  0  0  0  0  0
    7.8401  -13.9148   26.1446 C   0  0  0  0  0  0  0  0  0  0  0  0
    6.5239  -13.5290   26.2278 C   0  0  0  0  0  0  0  0  0  0  0  0
    6.1397  -12.2407   26.5450 C   0  0  0  0  0  0  0  0  0  0  0  0
    7.1220  -11.3080   26.7870 C   0  0  0  0  0  0  0  0  0  0  0  0
    8.4473  -11.6811   26.7071 C   0  0  0  0  0  0  0  0  0  0  0  0
    8.8179  -12.9821   26.3866 C   0  0  0  0  0  0  0  0  0  0  0  0
   10.2653  -16.5515   25.2568 C   0  0  0  0  0  0  0  0  0  0  0  0
   10.7778  -16.6442   26.4028 O   0  0  0  0  0  0  0  0  0  0  0  0
   10.5552  -17.5781   24.3659 O   0  0  0  0  0  0  0  0  0  0  0  0
  2  1  1  0
  3  2  1  0
  3  4  1  6
  5  3  1  0
  5  6  2  0
  8  7  1  6
  8 10  1  0
  9  8  1  0
 10 12  1  0
 10 11  1  1
 11  5  1  0
 12 14  1  0
 13 12  2  0
 14 15  1  0
 15 23  1  0
 15 16  1  1
 17 16  1  0
 17 22  2  0
 18 17  1  0
 19 18  2  0
 19 20  1  0
 20 21  2  0
 21 22  1  0
 23 24  2  0
 23 25  1  0
M  END
$$$$
