SVF.pdb
     RDKit          3D

 25 25  0  0  1  0  0  0  0  0999 V2000
   11.3448  -13.0128   19.5982 O   0  0  0  0  0  0  0  0  0  0  0  0
   10.7218  -14.1863   19.1855 C   0  0  0  0  0  0  0  0  0  0  0  0
    9.2395  -13.9026   19.0734 C   0  0  2  0  0  0  0  0  0  0  0  0
    8.9827  -12.5626   18.5950 N   0  0  0  0  0  0  0  0  0  0  0  0
    8.5540  -14.0887   20.3739 C   0  0  0  0  0  0  0  0  0  0  0  0
    8.2531  -13.1013   21.1125 O   0  0  0  0  0  0  0  0  0  0  0  0
    5.6095  -16.8315   20.7843 C   0  0  0  0  0  0  0  0  0  0  0  0
    6.6731  -16.9284   21.8480 C   0  0  1  0  0  0  0  0  0  0  0  0
    7.6001  -18.0530   21.5155 C   0  0  0  0  0  0  0  0  0  0  0  0
    7.4417  -15.6092   21.9939 C   0  0  2  0  0  0  0  0  0  0  0  0
    8.2207  -15.3797   20.8180 N   0  0  0  0  0  0  0  0  0  0  0  0
    8.3197  -15.8044   23.2037 C   0  0  0  0  0  0  0  0  0  0  0  0
    9.5666  -15.9056   23.0715 O   0  0  0  0  0  0  0  0  0  0  0  0
    7.7925  -15.8802   24.5073 N   0  0  0  0  0  0  0  0  0  0  0  0
    8.6175  -15.8958   25.7071 C   0  0  1  0  0  0  0  0  0  0  0  0
    7.9109  -15.2421   26.8712 C   0  0  0  0  0  0  0  0  0  0  0  0
    7.5304  -13.8566   26.6349 C   0  0  0  0  0  0  0  0  0  0  0  0
    8.4814  -12.8761   26.4849 C   0  0  0  0  0  0  0  0  0  0  0  0
    8.1622  -11.5513   26.2596 C   0  0  0  0  0  0  0  0  0  0  0  0
    6.8328  -11.2046   26.1830 C   0  0  0  0  0  0  0  0  0  0  0  0
    5.8674  -12.1782   26.3316 C   0  0  0  0  0  0  0  0  0  0  0  0
    6.2049  -13.5077   26.5580 C   0  0  0  0  0  0  0  0  0  0  0  0
    9.0024  -17.2975   26.0041 C   0  0  0  0  0  0  0  0  0  0  0  0
    9.8710  -17.5604   26.8764 O   0  0  0  0  0  0  0  0  0  0  0  0
    8.4369  -18.3848   25.3486 O   0  0  0  0  0  0  0  0  0  0  0  0
  2  1  1  0
  3  2  1  0
  3  4  1  1
  5  3  1  0
  5  6  2  0
  8  7  1  6
  8 10  1  0
  9  8  1  0
 10 12  1  0
 10 11  1  6
 11  5  1  0
 12 14  1  0
 13 12  2  0
 14 15  1  0
 15 23  1  0
 15 16  1  1
 17 16  1  0
 17 22  2  0
 18 17  1  0
 19 18  2  0
 19 20  1  0
 20 21  2  0
 21 22  1  0
 23 24  2  0
 23 25  1  0
M  END
$$$$
