SVF.pdb
     RDKit          3D

 25 25  0  0  1  0  0  0  0  0999 V2000
    8.3887  -12.8204   20.9185 O   0  0  0  0  0  0  0  0  0  0  0  0
    7.4550  -13.2893   19.9999 C   0  0  0  0  0  0  0  0  0  0  0  0
    7.8407  -14.7073   19.6384 C   0  0  2  0  0  0  0  0  0  0  0  0
    7.0423  -15.2206   18.5477 N   0  0  0  0  0  0  0  0  0  0  0  0
    7.7079  -15.6165   20.8011 C   0  0  0  0  0  0  0  0  0  0  0  0
    6.5842  -16.0987   21.1412 O   0  0  0  0  0  0  0  0  0  0  0  0
   11.1253  -17.6487   22.1464 C   0  0  0  0  0  0  0  0  0  0  0  0
    9.6967  -18.0864   22.3450 C   0  0  1  0  0  0  0  0  0  0  0  0
    9.6397  -19.0925   23.4492 C   0  0  0  0  0  0  0  0  0  0  0  0
    8.7810  -16.8928   22.6431 C   0  0  2  0  0  0  0  0  0  0  0  0
    8.8397  -15.9651   21.5575 N   0  0  0  0  0  0  0  0  0  0  0  0
    9.3313  -16.2895   23.9102 C   0  0  0  0  0  0  0  0  0  0  0  0
   10.3403  -15.5393   23.8681 O   0  0  0  0  0  0  0  0  0  0  0  0
    8.7514  -16.5347   25.1698 N   0  0  0  0  0  0  0  0  0  0  0  0
    9.2812  -15.9981   26.4155 C   0  0  1  0  0  0  0  0  0  0  0  0
    8.1932  -15.3650   27.2506 C   0  0  0  0  0  0  0  0  0  0  0  0
    7.7157  -14.0885   26.7379 C   0  0  0  0  0  0  0  0  0  0  0  0
    8.4893  -12.9560   26.8241 C   0  0  0  0  0  0  0  0  0  0  0  0
    8.0733  -11.7271   26.3503 C   0  0  0  0  0  0  0  0  0  0  0  0
    6.8297  -11.6395   25.7678 C   0  0  0  0  0  0  0  0  0  0  0  0
    6.0424  -12.7679   25.6745 C   0  0  0  0  0  0  0  0  0  0  0  0
    6.4755  -13.9980   26.1563 C   0  0  0  0  0  0  0  0  0  0  0  0
    9.9826  -17.0840   27.1436 C   0  0  0  0  0  0  0  0  0  0  0  0
   10.6631  -16.8394   28.1738 O   0  0  0  0  0  0  0  0  0  0  0  0
    9.9309  -18.4125   26.7387 O   0  0  0  0  0  0  0  0  0  0  0  0
  2  1  1  0
  3  2  1  0
  3  4  1  6
  5  3  1  0
  5  6  2  0
  8  7  1  1
  8 10  1  0
  9  8  1  0
 10 12  1  0
 10 11  1  6
 11  5  1  0
 12 14  1  0
 13 12  2  0
 14 15  1  0
 15 23  1  0
 15 16  1  1
 17 16  1  0
 17 22  2  0
 18 17  1  0
 19 18  2  0
 19 20  1  0
 20 21  2  0
 21 22  1  0
 23 24  2  0
 23 25  1  0
M  END
$$$$
