SVF.pdb
     RDKit          3D

 25 25  0  0  1  0  0  0  0  0999 V2000
    6.3717  -18.5440   23.6291 O   0  0  0  0  0  0  0  0  0  0  0  0
    6.5172  -19.4535   22.5864 C   0  0  0  0  0  0  0  0  0  0  0  0
    6.4288  -18.6801   21.2886 C   0  0  2  0  0  0  0  0  0  0  0  0
    6.5800  -19.5417   20.1374 N   0  0  0  0  0  0  0  0  0  0  0  0
    7.4523  -17.6102   21.2265 C   0  0  0  0  0  0  0  0  0  0  0  0
    8.6417  -17.8508   20.8548 O   0  0  0  0  0  0  0  0  0  0  0  0
    8.3010  -12.7300   21.4183 C   0  0  0  0  0  0  0  0  0  0  0  0
    7.3429  -13.8927   21.3712 C   0  0  1  0  0  0  0  0  0  0  0  0
    6.6057  -13.8699   20.0708 C   0  0  0  0  0  0  0  0  0  0  0  0
    8.0720  -15.2280   21.5648 C   0  0  2  0  0  0  0  0  0  0  0  0
    7.1186  -16.2925   21.5831 N   0  0  0  0  0  0  0  0  0  0  0  0
    8.7733  -15.0972   22.8927 C   0  0  0  0  0  0  0  0  0  0  0  0
    9.7974  -14.3744   22.9995 O   0  0  0  0  0  0  0  0  0  0  0  0
    8.3216  -15.7650   24.0473 N   0  0  0  0  0  0  0  0  0  0  0  0
    8.9578  -15.6347   25.3506 C   0  0  1  0  0  0  0  0  0  0  0  0
    7.9425  -15.3630   26.4356 C   0  0  0  0  0  0  0  0  0  0  0  0
    7.4499  -13.9929   26.4606 C   0  0  0  0  0  0  0  0  0  0  0  0
    6.1141  -13.7169   26.2939 C   0  0  0  0  0  0  0  0  0  0  0  0
    5.6070  -12.4322   26.3110 C   0  0  0  0  0  0  0  0  0  0  0  0
    6.4822  -11.3880   26.5036 C   0  0  0  0  0  0  0  0  0  0  0  0
    7.8257  -11.6501   26.6722 C   0  0  0  0  0  0  0  0  0  0  0  0
    8.3207  -12.9490   26.6525 C   0  0  0  0  0  0  0  0  0  0  0  0
    9.7486  -16.8605   25.6211 C   0  0  0  0  0  0  0  0  0  0  0  0
   10.4055  -16.9861   26.6874 O   0  0  0  0  0  0  0  0  0  0  0  0
    9.8102  -17.9244   24.7289 O   0  0  0  0  0  0  0  0  0  0  0  0
  2  1  1  0
  3  2  1  0
  3  4  1  6
  5  3  1  0
  5  6  2  0
  8  7  1  6
  8 10  1  0
  9  8  1  0
 10 12  1  0
 10 11  1  1
 11  5  1  0
 12 14  1  0
 13 12  2  0
 14 15  1  0
 15 23  1  0
 15 16  1  1
 17 16  1  0
 17 22  2  0
 18 17  1  0
 19 18  2  0
 19 20  1  0
 20 21  2  0
 21 22  1  0
 23 24  2  0
 23 25  1  0
M  END
$$$$
