SVF.pdb
     RDKit          3D

 25 25  0  0  1  0  0  0  0  0999 V2000
    8.6756  -11.8568   18.4230 O   0  0  0  0  0  0  0  0  0  0  0  0
    8.8133  -12.7105   19.5129 C   0  0  0  0  0  0  0  0  0  0  0  0
    8.4891  -14.1114   19.0409 C   0  0  2  0  0  0  0  0  0  0  0  0
    7.5437  -14.1054   17.9469 N   0  0  0  0  0  0  0  0  0  0  0  0
    7.9450  -14.9402   20.1423 C   0  0  0  0  0  0  0  0  0  0  0  0
    6.7018  -14.9732   20.3958 O   0  0  0  0  0  0  0  0  0  0  0  0
    8.1126  -18.5778   20.4819 C   0  0  0  0  0  0  0  0  0  0  0  0
    8.7880  -18.0090   21.7036 C   0  0  1  0  0  0  0  0  0  0  0  0
   10.2703  -18.0749   21.5215 C   0  0  0  0  0  0  0  0  0  0  0  0
    8.3326  -16.5702   21.9770 C   0  0  2  0  0  0  0  0  0  0  0  0
    8.8084  -15.7145   20.9360 N   0  0  0  0  0  0  0  0  0  0  0  0
    8.9508  -16.2142   23.3049 C   0  0  0  0  0  0  0  0  0  0  0  0
   10.1682  -15.9046   23.3740 O   0  0  0  0  0  0  0  0  0  0  0  0
    8.2074  -16.2128   24.5009 N   0  0  0  0  0  0  0  0  0  0  0  0
    8.7925  -15.9566   25.8094 C   0  0  1  0  0  0  0  0  0  0  0  0
    7.7787  -15.3669   26.7615 C   0  0  0  0  0  0  0  0  0  0  0  0
    7.4033  -13.9935   26.4558 C   0  0  0  0  0  0  0  0  0  0  0  0
    6.3367  -13.3943   27.0815 C   0  0  0  0  0  0  0  0  0  0  0  0
    5.9485  -12.0948   26.8199 C   0  0  0  0  0  0  0  0  0  0  0  0
    6.6647  -11.3744   25.8918 C   0  0  0  0  0  0  0  0  0  0  0  0
    7.7376  -11.9630   25.2559 C   0  0  0  0  0  0  0  0  0  0  0  0
    8.1159  -13.2723   25.5302 C   0  0  0  0  0  0  0  0  0  0  0  0
    9.3759  -17.2185   26.3275 C   0  0  0  0  0  0  0  0  0  0  0  0
    9.0755  -18.3292   25.8170 O   0  0  0  0  0  0  0  0  0  0  0  0
   10.2730  -17.2490   27.3886 O   0  0  0  0  0  0  0  0  0  0  0  0
  2  1  1  0
  3  2  1  0
  3  4  1  6
  5  3  1  0
  5  6  2  0
  8  7  1  6
  8 10  1  0
  9  8  1  0
 10 12  1  0
 10 11  1  6
 11  5  1  0
 12 14  1  0
 13 12  2  0
 14 15  1  0
 15 23  1  0
 15 16  1  1
 17 16  1  0
 17 22  2  0
 18 17  1  0
 19 18  2  0
 19 20  1  0
 20 21  2  0
 21 22  1  0
 23 24  2  0
 23 25  1  0
M  END
$$$$
