SVF.pdb
     RDKit          3D

 25 25  0  0  1  0  0  0  0  0999 V2000
    6.9067  -19.1533   24.3385 O   0  0  0  0  0  0  0  0  0  0  0  0
    5.7086  -18.7100   23.7876 C   0  0  0  0  0  0  0  0  0  0  0  0
    5.9112  -18.5824   22.2933 C   0  0  2  0  0  0  0  0  0  0  0  0
    6.1662  -19.8636   21.6735 N   0  0  0  0  0  0  0  0  0  0  0  0
    7.0298  -17.6636   21.9763 C   0  0  0  0  0  0  0  0  0  0  0  0
    8.1950  -18.0991   21.7244 O   0  0  0  0  0  0  0  0  0  0  0  0
    6.2994  -13.4324   22.2847 C   0  0  0  0  0  0  0  0  0  0  0  0
    7.3617  -13.9892   21.3717 C   0  0  1  0  0  0  0  0  0  0  0  0
    8.4695  -12.9938   21.2417 C   0  0  0  0  0  0  0  0  0  0  0  0
    7.8910  -15.3348   21.8829 C   0  0  2  0  0  0  0  0  0  0  0  0
    6.8165  -16.2748   21.9488 N   0  0  0  0  0  0  0  0  0  0  0  0
    8.4445  -15.0379   23.2532 C   0  0  0  0  0  0  0  0  0  0  0  0
    8.5519  -13.8485   23.6487 O   0  0  0  0  0  0  0  0  0  0  0  0
    8.8568  -16.0584   24.1316 N   0  0  0  0  0  0  0  0  0  0  0  0
    9.2593  -15.8168   25.5100 C   0  0  1  0  0  0  0  0  0  0  0  0
    8.0618  -15.5972   26.4043 C   0  0  0  0  0  0  0  0  0  0  0  0
    7.6215  -14.2112   26.4800 C   0  0  0  0  0  0  0  0  0  0  0  0
    6.3059  -13.8732   26.2723 C   0  0  0  0  0  0  0  0  0  0  0  0
    5.8482  -12.5714   26.3351 C   0  0  0  0  0  0  0  0  0  0  0  0
    6.7536  -11.5747   26.6184 C   0  0  0  0  0  0  0  0  0  0  0  0
    8.0773  -11.8993   26.8292 C   0  0  0  0  0  0  0  0  0  0  0  0
    8.5224  -13.2146   26.7624 C   0  0  0  0  0  0  0  0  0  0  0  0
   10.0974  -16.9518   25.9691 C   0  0  0  0  0  0  0  0  0  0  0  0
   10.6095  -16.9561   27.1189 O   0  0  0  0  0  0  0  0  0  0  0  0
   10.3624  -18.0583   25.1709 O   0  0  0  0  0  0  0  0  0  0  0  0
  2  1  1  0
  3  2  1  0
  3  4  1  1
  5  3  1  0
  5  6  2  0
  8  7  1  1
  8 10  1  0
  9  8  1  0
 10 12  1  0
 10 11  1  1
 11  5  1  0
 12 14  1  0
 13 12  2  0
 14 15  1  0
 15 23  1  0
 15 16  1  1
 17 16  1  0
 17 22  2  0
 18 17  1  0
 19 18  2  0
 19 20  1  0
 20 21  2  0
 21 22  1  0
 23 24  2  0
 23 25  1  0
M  END
$$$$
