ENH.pdb
     RDKit          3D

 28 28  0  0  1  0  0  0  0  0999 V2000
   24.6206   -4.4833  -22.5008 N   0  0  0  0  0  0  0  0  0  0  0  0
   23.7465   -4.0862  -21.3781 C   0  0  1  0  0  0  0  0  0  0  0  0
   22.3965   -3.8613  -21.9699 C   0  0  0  0  0  0  0  0  0  0  0  0
   21.2902   -3.6011  -21.0129 C   0  0  0  0  0  0  0  0  0  0  0  0
   19.9852   -3.4992  -21.6770 C   0  0  0  0  0  0  0  0  0  0  0  0
   19.8440   -3.6013  -22.9049 O   0  0  0  0  0  0  0  0  0  0  0  0
   23.7684   -5.2202  -20.4155 C   0  0  0  0  0  0  0  0  0  0  0  0
   24.2619   -6.3182  -20.7693 O   0  0  0  0  0  0  0  0  0  0  0  0
   18.8395   -3.2747  -20.8883 O   0  0  0  0  0  0  0  0  0  0  0  0
   23.8180   -8.1782  -16.4172 N   0  0  0  0  0  0  0  0  0  0  0  0
   24.9402   -7.4253  -16.8221 C   0  0  0  0  0  0  0  0  0  0  0  0
   26.0780   -7.6858  -16.3715 O   0  0  0  0  0  0  0  0  0  0  0  0
   24.7905   -6.3172  -17.7849 C   0  0  0  0  0  0  0  0  0  0  0  0
   23.3256   -6.1096  -18.0959 C   0  0  2  0  0  0  0  0  0  0  0  0
   23.2532   -5.0983  -19.1222 N   0  0  0  0  0  0  0  0  0  0  0  0
   22.5197   -5.8123  -16.9157 C   0  0  0  0  0  0  0  0  0  0  0  0
   23.0938   -5.4698  -15.8522 O   0  0  0  0  0  0  0  0  0  0  0  0
   21.1030   -5.9035  -16.9505 N   0  0  0  0  0  0  0  0  0  0  0  0
   20.3478   -6.9685  -16.2951 C   0  0  1  0  0  0  0  0  0  0  0  0
   20.8149   -8.3154  -16.8355 C   0  0  0  0  0  0  0  0  0  0  0  0
   20.0269   -9.4370  -16.2707 C   0  0  0  0  0  0  0  0  0  0  0  0
   18.6881   -9.4264  -15.8856 C   0  0  0  0  0  0  0  0  0  0  0  0
   18.3302  -10.6359  -15.4205 N   0  0  0  0  0  0  0  0  0  0  0  0
   19.4304  -11.4080  -15.5088 C   0  0  0  0  0  0  0  0  0  0  0  0
   20.4512  -10.6949  -16.0180 N   0  0  0  0  0  0  0  0  0  0  0  0
   20.4133   -6.8746  -14.8371 C   0  0  0  0  0  0  0  0  0  0  0  0
   21.5121   -6.6274  -14.2855 O   0  0  0  0  0  0  0  0  0  0  0  0
   19.3072   -7.0475  -14.0295 O   0  0  0  0  0  0  0  0  0  0  0  0
  2  1  1  6
  2  3  1  0
  4  3  1  0
  5  6  2  0
  5  4  1  0
  7 15  1  0
  7  2  1  0
  8  7  2  0
  9  5  1  0
 11 10  1  0
 12 11  2  0
 14 13  1  1
 13 11  1  0
 14 15  1  0
 16 14  1  0
 17 16  2  0
 18 16  1  0
 19 20  1  1
 19 18  1  0
 20 21  1  0
 21 22  2  0
 22 23  1  0
 24 23  1  0
 25 21  1  0
 25 24  2  0
 26 19  1  0
 27 26  2  0
 28 26  1  0
M  END
$$$$
