ENH.pdb
     RDKit          3D

 28 28  0  0  1  0  0  0  0  0999 V2000
   12.7323   -8.5622   -9.3968 N   0  0  0  0  0  0  0  0  0  0  0  0
   14.1857   -8.6680   -9.1543 C   0  0  1  0  0  0  0  0  0  0  0  0
   14.6225   -9.9252   -9.8266 C   0  0  0  0  0  0  0  0  0  0  0  0
   14.1580  -11.1974   -9.2156 C   0  0  0  0  0  0  0  0  0  0  0  0
   12.9450  -11.7186   -9.8571 C   0  0  0  0  0  0  0  0  0  0  0  0
   11.9391  -12.0621   -9.2181 O   0  0  0  0  0  0  0  0  0  0  0  0
   14.7955   -7.4533   -9.7589 C   0  0  0  0  0  0  0  0  0  0  0  0
   14.4373   -7.0905  -10.9053 O   0  0  0  0  0  0  0  0  0  0  0  0
   12.9182  -11.8362  -11.2608 O   0  0  0  0  0  0  0  0  0  0  0  0
   14.5543   -3.5444   -7.3514 N   0  0  0  0  0  0  0  0  0  0  0  0
   15.1648   -3.8583   -8.5838 C   0  0  0  0  0  0  0  0  0  0  0  0
   14.5863   -3.6046   -9.6639 O   0  0  0  0  0  0  0  0  0  0  0  0
   16.4971   -4.4914   -8.6196 C   0  0  0  0  0  0  0  0  0  0  0  0
   16.5046   -5.6001   -9.6475 C   0  0  2  0  0  0  0  0  0  0  0  0
   15.7603   -6.7002   -9.0844 N   0  0  0  0  0  0  0  0  0  0  0  0
   17.8447   -5.9627  -10.0982 C   0  0  0  0  0  0  0  0  0  0  0  0
   18.5447   -6.7256   -9.3870 O   0  0  0  0  0  0  0  0  0  0  0  0
   18.3676   -5.4690  -11.3227 N   0  0  0  0  0  0  0  0  0  0  0  0
   19.5067   -6.0693  -12.0127 C   0  0  1  0  0  0  0  0  0  0  0  0
   19.1724   -7.5154  -12.3610 C   0  0  0  0  0  0  0  0  0  0  0  0
   20.2735   -8.1691  -13.1081 C   0  0  0  0  0  0  0  0  0  0  0  0
   21.6432   -8.0437  -12.8866 C   0  0  0  0  0  0  0  0  0  0  0  0
   22.3259   -8.7929  -13.7697 N   0  0  0  0  0  0  0  0  0  0  0  0
   21.3997   -9.3889  -14.5451 C   0  0  0  0  0  0  0  0  0  0  0  0
   20.1670   -9.0190  -14.1535 N   0  0  0  0  0  0  0  0  0  0  0  0
   19.9320   -5.2784  -13.1671 C   0  0  0  0  0  0  0  0  0  0  0  0
   19.0711   -4.8644  -13.9797 O   0  0  0  0  0  0  0  0  0  0  0  0
   21.2542   -4.9622  -13.4066 O   0  0  0  0  0  0  0  0  0  0  0  0
  2  1  1  6
  2  3  1  0
  4  3  1  0
  5  6  2  0
  5  4  1  0
  7 15  1  0
  7  2  1  0
  8  7  2  0
  9  5  1  0
 11 10  1  0
 12 11  2  0
 14 13  1  1
 13 11  1  0
 14 15  1  0
 16 14  1  0
 17 16  2  0
 18 16  1  0
 19 20  1  6
 19 18  1  0
 20 21  1  0
 21 22  2  0
 22 23  1  0
 24 23  1  0
 25 21  1  0
 25 24  2  0
 26 19  1  0
 27 26  2  0
 28 26  1  0
M  END
$$$$
