ENH.pdb
     RDKit          3D

 28 28  0  0  1  0  0  0  0  0999 V2000
   20.6805  -10.3399  -17.4336 N   0  0  0  0  0  0  0  0  0  0  0  0
   19.3991  -10.1978  -18.1547 C   0  0  1  0  0  0  0  0  0  0  0  0
   18.6431  -11.4572  -17.8983 C   0  0  0  0  0  0  0  0  0  0  0  0
   18.8505  -12.0942  -16.5721 C   0  0  0  0  0  0  0  0  0  0  0  0
   18.0577  -13.3184  -16.4068 C   0  0  0  0  0  0  0  0  0  0  0  0
   18.4673  -14.4380  -16.7489 O   0  0  0  0  0  0  0  0  0  0  0  0
   18.7303   -9.0007  -17.5780 C   0  0  0  0  0  0  0  0  0  0  0  0
   17.5121   -8.8062  -17.8071 O   0  0  0  0  0  0  0  0  0  0  0  0
   16.7736  -13.2218  -15.8353 O   0  0  0  0  0  0  0  0  0  0  0  0
   16.2976   -6.7955  -16.9609 N   0  0  0  0  0  0  0  0  0  0  0  0
   16.4278   -7.4724  -15.7301 C   0  0  0  0  0  0  0  0  0  0  0  0
   15.4171   -7.8958  -15.1261 O   0  0  0  0  0  0  0  0  0  0  0  0
   17.7595   -7.6927  -15.1341 C   0  0  0  0  0  0  0  0  0  0  0  0
   18.8155   -7.0373  -15.9950 C   0  0  2  0  0  0  0  0  0  0  0  0
   19.4219   -8.0817  -16.7842 N   0  0  0  0  0  0  0  0  0  0  0  0
   19.7727   -6.2419  -15.2323 C   0  0  0  0  0  0  0  0  0  0  0  0
   19.3503   -5.4657  -14.3395 O   0  0  0  0  0  0  0  0  0  0  0  0
   21.1677   -6.3312  -15.4821 N   0  0  0  0  0  0  0  0  0  0  0  0
   22.1697   -5.5722  -14.7378 C   0  0  1  0  0  0  0  0  0  0  0  0
   23.5457   -6.1746  -14.9985 C   0  0  0  0  0  0  0  0  0  0  0  0
   23.5435   -7.6465  -14.8215 C   0  0  0  0  0  0  0  0  0  0  0  0
   22.4756   -8.4553  -14.4388 C   0  0  0  0  0  0  0  0  0  0  0  0
   22.8631   -9.7417  -14.3896 N   0  0  0  0  0  0  0  0  0  0  0  0
   24.1644   -9.7510  -14.7375 C   0  0  0  0  0  0  0  0  0  0  0  0
   24.5783   -8.4977  -14.9978 N   0  0  0  0  0  0  0  0  0  0  0  0
   22.1007   -4.1394  -15.0229 C   0  0  0  0  0  0  0  0  0  0  0  0
   21.4366   -3.7398  -16.0088 O   0  0  0  0  0  0  0  0  0  0  0  0
   22.7407   -3.1942  -14.2466 O   0  0  0  0  0  0  0  0  0  0  0  0
  2  1  1  1
  2  3  1  0
  4  3  1  0
  5  6  2  0
  5  4  1  0
  7 15  1  0
  7  2  1  0
  8  7  2  0
  9  5  1  0
 11 10  1  0
 12 11  2  0
 14 13  1  1
 13 11  1  0
 14 15  1  0
 16 14  1  0
 17 16  2  0
 18 16  1  0
 19 20  1  6
 19 18  1  0
 20 21  1  0
 21 22  2  0
 22 23  1  0
 24 23  1  0
 25 21  1  0
 25 24  2  0
 26 19  1  0
 27 26  2  0
 28 26  1  0
M  END
$$$$
