ENH.pdb
     RDKit          3D

 28 28  0  0  1  0  0  0  0  0999 V2000
   22.2378   -9.7290  -16.0291 N   0  0  0  0  0  0  0  0  0  0  0  0
   21.4387   -9.1455  -14.9321 C   0  0  1  0  0  0  0  0  0  0  0  0
   22.3098   -8.1179  -14.2928 C   0  0  0  0  0  0  0  0  0  0  0  0
   22.5101   -6.8564  -15.0518 C   0  0  0  0  0  0  0  0  0  0  0  0
   22.3093   -5.6631  -14.2210 C   0  0  0  0  0  0  0  0  0  0  0  0
   23.1383   -5.2782  -13.3827 O   0  0  0  0  0  0  0  0  0  0  0  0
   20.2302   -8.5563  -15.5687 C   0  0  0  0  0  0  0  0  0  0  0  0
   20.2566   -8.2673  -16.7894 O   0  0  0  0  0  0  0  0  0  0  0  0
   21.1232   -4.9194  -14.3792 O   0  0  0  0  0  0  0  0  0  0  0  0
   15.1013   -9.5712  -16.2982 N   0  0  0  0  0  0  0  0  0  0  0  0
   16.3163   -9.5686  -15.5814 C   0  0  0  0  0  0  0  0  0  0  0  0
   17.0947  -10.5462  -15.6438 O   0  0  0  0  0  0  0  0  0  0  0  0
   16.6899   -8.4115  -14.7454 C   0  0  0  0  0  0  0  0  0  0  0  0
   17.8669   -7.6950  -15.3674 C   0  0  2  0  0  0  0  0  0  0  0  0
   19.0602   -8.3140  -14.8439 N   0  0  0  0  0  0  0  0  0  0  0  0
   17.8246   -6.2471  -15.1868 C   0  0  0  0  0  0  0  0  0  0  0  0
   18.2262   -5.7529  -14.1041 O   0  0  0  0  0  0  0  0  0  0  0  0
   17.3390   -5.3920  -16.2113 N   0  0  0  0  0  0  0  0  0  0  0  0
   17.3107   -3.9357  -16.0991 C   0  0  1  0  0  0  0  0  0  0  0  0
   17.1972   -3.3309  -17.4939 C   0  0  0  0  0  0  0  0  0  0  0  0
   17.1139   -1.8515  -17.4461 C   0  0  0  0  0  0  0  0  0  0  0  0
   16.7367   -1.0556  -16.3666 C   0  0  0  0  0  0  0  0  0  0  0  0
   16.7862    0.2435  -16.7093 N   0  0  0  0  0  0  0  0  0  0  0  0
   17.1907    0.2734  -17.9937 C   0  0  0  0  0  0  0  0  0  0  0  0
   17.3890   -0.9796  -18.4413 N   0  0  0  0  0  0  0  0  0  0  0  0
   16.2712   -3.4731  -15.1803 C   0  0  0  0  0  0  0  0  0  0  0  0
   15.1205   -3.9661  -15.2550 O   0  0  0  0  0  0  0  0  0  0  0  0
   16.5011   -2.5064  -14.2219 O   0  0  0  0  0  0  0  0  0  0  0  0
  2  1  1  6
  2  3  1  0
  4  3  1  0
  5  6  2  0
  5  4  1  0
  7 15  1  0
  7  2  1  0
  8  7  2  0
  9  5  1  0
 11 10  1  0
 12 11  2  0
 14 13  1  1
 13 11  1  0
 14 15  1  0
 16 14  1  0
 17 16  2  0
 18 16  1  0
 19 20  1  6
 19 18  1  0
 20 21  1  0
 21 22  2  0
 22 23  1  0
 24 23  1  0
 25 21  1  0
 25 24  2  0
 26 19  1  0
 27 26  2  0
 28 26  1  0
M  END
$$$$
