ENH.pdb
     RDKit          3D

 28 28  0  0  1  0  0  0  0  0999 V2000
   17.9306  -12.7153  -14.9219 N   0  0  0  0  0  0  0  0  0  0  0  0
   18.5794  -11.8323  -15.9127 C   0  0  1  0  0  0  0  0  0  0  0  0
   17.9569  -12.1642  -17.2264 C   0  0  0  0  0  0  0  0  0  0  0  0
   17.0154  -13.3135  -17.2402 C   0  0  0  0  0  0  0  0  0  0  0  0
   17.6690  -14.5705  -17.6233 C   0  0  0  0  0  0  0  0  0  0  0  0
   18.8972  -14.6778  -17.7583 O   0  0  0  0  0  0  0  0  0  0  0  0
   18.2906  -10.4395  -15.4775 C   0  0  0  0  0  0  0  0  0  0  0  0
   17.1646   -9.9407  -15.7176 O   0  0  0  0  0  0  0  0  0  0  0  0
   16.8694  -15.7083  -17.8495 O   0  0  0  0  0  0  0  0  0  0  0  0
   16.9195   -8.8940  -12.9017 N   0  0  0  0  0  0  0  0  0  0  0  0
   18.0926   -8.5410  -12.2023 C   0  0  0  0  0  0  0  0  0  0  0  0
   18.1024   -8.5066  -10.9515 O   0  0  0  0  0  0  0  0  0  0  0  0
   19.3289   -8.2063  -12.9348 C   0  0  0  0  0  0  0  0  0  0  0  0
   19.0741   -8.2850  -14.4230 C   0  0  2  0  0  0  0  0  0  0  0  0
   19.2408   -9.6660  -14.8054 N   0  0  0  0  0  0  0  0  0  0  0  0
   19.8875   -7.3545  -15.1997 C   0  0  0  0  0  0  0  0  0  0  0  0
   21.1016   -7.6143  -15.3906 O   0  0  0  0  0  0  0  0  0  0  0  0
   19.3307   -6.1657  -15.7410 N   0  0  0  0  0  0  0  0  0  0  0  0
   20.1010   -5.1944  -16.5139 C   0  0  1  0  0  0  0  0  0  0  0  0
   19.2656   -4.7268  -17.7003 C   0  0  0  0  0  0  0  0  0  0  0  0
   19.0625   -5.8114  -18.6905 C   0  0  0  0  0  0  0  0  0  0  0  0
   19.9564   -6.8207  -19.0414 C   0  0  0  0  0  0  0  0  0  0  0  0
   19.4111   -7.6180  -19.9764 N   0  0  0  0  0  0  0  0  0  0  0  0
   18.1827   -7.1209  -20.2177 C   0  0  0  0  0  0  0  0  0  0  0  0
   17.9676   -6.0375  -19.4497 N   0  0  0  0  0  0  0  0  0  0  0  0
   20.5951   -4.0960  -15.6841 C   0  0  0  0  0  0  0  0  0  0  0  0
   21.2702   -3.1811  -16.2131 O   0  0  0  0  0  0  0  0  0  0  0  0
   20.3493   -4.0187  -14.3279 O   0  0  0  0  0  0  0  0  0  0  0  0
  2  1  1  1
  2  3  1  0
  4  3  1  0
  5  6  2  0
  5  4  1  0
  7 15  1  0
  7  2  1  0
  8  7  2  0
  9  5  1  0
 11 10  1  0
 12 11  2  0
 14 13  1  1
 13 11  1  0
 14 15  1  0
 16 14  1  0
 17 16  2  0
 18 16  1  0
 19 20  1  6
 19 18  1  0
 20 21  1  0
 21 22  2  0
 22 23  1  0
 24 23  1  0
 25 21  1  0
 25 24  2  0
 26 19  1  0
 27 26  2  0
 28 26  1  0
M  END
$$$$
