ENH.pdb
     RDKit          3D

 28 28  0  0  1  0  0  0  0  0999 V2000
   18.5176  -14.5634  -16.3052 N   0  0  0  0  0  0  0  0  0  0  0  0
   19.5150  -13.5162  -16.6070 C   0  0  1  0  0  0  0  0  0  0  0  0
   19.8959  -13.7131  -18.0351 C   0  0  0  0  0  0  0  0  0  0  0  0
   18.7884  -14.0118  -18.9795 C   0  0  0  0  0  0  0  0  0  0  0  0
   19.2603  -14.2035  -20.3560 C   0  0  0  0  0  0  0  0  0  0  0  0
   19.5804  -15.3121  -20.8107 O   0  0  0  0  0  0  0  0  0  0  0  0
   18.8337  -12.2153  -16.3699 C   0  0  0  0  0  0  0  0  0  0  0  0
   17.5815  -12.1573  -16.4255 O   0  0  0  0  0  0  0  0  0  0  0  0
   19.3561  -13.0807  -21.2017 O   0  0  0  0  0  0  0  0  0  0  0  0
   15.6931  -10.9866  -14.7284 N   0  0  0  0  0  0  0  0  0  0  0  0
   16.6120  -10.0658  -15.2742 C   0  0  0  0  0  0  0  0  0  0  0  0
   16.2907   -9.3453  -16.2454 O   0  0  0  0  0  0  0  0  0  0  0  0
   17.9685   -9.9369  -14.7082 C   0  0  0  0  0  0  0  0  0  0  0  0
   18.9697   -9.7548  -15.8263 C   0  0  2  0  0  0  0  0  0  0  0  0
   19.5504  -11.0498  -16.0854 N   0  0  0  0  0  0  0  0  0  0  0  0
   19.9527   -8.7094  -15.5588 C   0  0  0  0  0  0  0  0  0  0  0  0
   20.8184   -8.8962  -14.6680 O   0  0  0  0  0  0  0  0  0  0  0  0
   19.9461   -7.4900  -16.2864 N   0  0  0  0  0  0  0  0  0  0  0  0
   20.8169   -6.3598  -15.9726 C   0  0  1  0  0  0  0  0  0  0  0  0
   20.6867   -5.3108  -17.0711 C   0  0  0  0  0  0  0  0  0  0  0  0
   21.5701   -4.1458  -16.8256 C   0  0  0  0  0  0  0  0  0  0  0  0
   22.9476   -4.1521  -16.6172 C   0  0  0  0  0  0  0  0  0  0  0  0
   23.3937   -2.8977  -16.4306 N   0  0  0  0  0  0  0  0  0  0  0  0
   22.3108   -2.1015  -16.5194 C   0  0  0  0  0  0  0  0  0  0  0  0
   21.2141   -2.8439  -16.7563 N   0  0  0  0  0  0  0  0  0  0  0  0
   20.5709   -5.8291  -14.6322 C   0  0  0  0  0  0  0  0  0  0  0  0
   19.4041   -5.8368  -14.1723 O   0  0  0  0  0  0  0  0  0  0  0  0
   21.5765   -5.3138  -13.8393 O   0  0  0  0  0  0  0  0  0  0  0  0
  2  1  1  6
  2  3  1  0
  4  3  1  0
  5  6  2  0
  5  4  1  0
  7 15  1  0
  7  2  1  0
  8  7  2  0
  9  5  1  0
 11 10  1  0
 12 11  2  0
 14 13  1  1
 13 11  1  0
 14 15  1  0
 16 14  1  0
 17 16  2  0
 18 16  1  0
 19 20  1  6
 19 18  1  0
 20 21  1  0
 21 22  2  0
 22 23  1  0
 24 23  1  0
 25 21  1  0
 25 24  2  0
 26 19  1  0
 27 26  2  0
 28 26  1  0
M  END
$$$$
