NTP.pdb
     RDKit          3D

 23 23  0  0  1  0  0  0  0  0999 V2000
   17.0421  -15.9958  -17.8936 N   0  0  0  0  0  0  0  0  0  0  0  0
   17.1742  -15.5698  -16.5463 C   0  0  0  0  0  0  0  0  0  0  0  0
   16.1730  -15.7578  -15.7919 O   0  0  0  0  0  0  0  0  0  0  0  0
   18.4274  -14.9311  -16.0359 C   0  0  0  0  0  0  0  0  0  0  0  0
   19.3700  -14.7419  -17.2052 C   0  0  2  0  0  0  0  0  0  0  0  0
   20.0820  -15.9659  -17.5138 N   0  0  0  0  0  0  0  0  0  0  0  0
   20.2643  -13.5964  -17.0089 C   0  0  0  0  0  0  0  0  0  0  0  0
   21.2956  -13.7660  -16.3127 O   0  0  0  0  0  0  0  0  0  0  0  0
   21.6726  -11.3463  -19.7881 C   0  0  0  0  0  0  0  0  0  0  0  0
   21.1086  -10.4373  -18.7444 C   0  0  1  0  0  0  0  0  0  0  0  0
   19.9399   -9.8787  -19.1905 O   0  0  0  0  0  0  0  0  0  0  0  0
   20.9325  -11.2068  -17.4387 C   0  0  2  0  0  0  0  0  0  0  0  0
   20.0250  -12.2944  -17.5684 N   0  0  0  0  0  0  0  0  0  0  0  0
   20.7869  -10.3183  -16.2898 C   0  0  0  0  0  0  0  0  0  0  0  0
   19.5828   -9.8719  -16.1201 O   0  0  0  0  0  0  0  0  0  0  0  0
   21.7498   -9.8858  -15.3621 N   0  0  0  0  0  0  0  0  0  0  0  0
   23.0951  -10.4207  -15.3307 C   0  0  0  0  0  0  0  0  0  0  0  0
   23.8199   -9.6830  -14.2063 C   0  0  0  0  0  0  0  0  0  0  0  0
   23.0651   -8.3886  -14.1871 C   0  0  0  0  0  0  0  0  0  0  0  0
   21.6163   -8.8972  -14.3299 C   0  0  1  0  0  0  0  0  0  0  0  0
   20.7390   -7.7565  -14.6329 C   0  0  0  0  0  0  0  0  0  0  0  0
   19.9695   -7.2810  -13.5720 O   0  0  0  0  0  0  0  0  0  0  0  0
   20.6141   -7.1785  -15.7265 O   0  0  0  0  0  0  0  0  0  0  0  0
  2  4  1  0
  2  1  1  0
  3  2  2  0
  4  5  1  0
  5  7  1  0
  5  6  1  1
  7  8  2  0
 10  9  1  6
 10 11  1  0
 10 12  1  0
 12 14  1  0
 12 13  1  6
 13  7  1  0
 14 16  1  0
 14 15  2  0
 16 17  1  0
 17 18  1  0
 19 18  1  0
 20 16  1  0
 20 19  1  0
 20 21  1  6
 22 21  1  0
 23 21  2  0
M  END
$$$$
