NTP.pdb
     RDKit          3D

 23 23  0  0  1  0  0  0  0  0999 V2000
   18.7750  -19.0733  -14.2656 N   0  0  0  0  0  0  0  0  0  0  0  0
   19.8108  -19.2162  -13.3060 C   0  0  0  0  0  0  0  0  0  0  0  0
   19.7510  -18.4593  -12.2908 O   0  0  0  0  0  0  0  0  0  0  0  0
   20.9191  -20.2068  -13.4771 C   0  0  0  0  0  0  0  0  0  0  0  0
   20.5630  -21.1176  -14.6325 C   0  0  2  0  0  0  0  0  0  0  0  0
   19.5408  -22.0738  -14.2564 N   0  0  0  0  0  0  0  0  0  0  0  0
   21.7492  -21.7518  -15.2168 C   0  0  0  0  0  0  0  0  0  0  0  0
   22.1556  -22.8250  -14.7067 O   0  0  0  0  0  0  0  0  0  0  0  0
   24.5069  -23.1033  -18.8451 C   0  0  0  0  0  0  0  0  0  0  0  0
   23.2753  -22.4737  -18.2788 C   0  0  1  0  0  0  0  0  0  0  0  0
   22.2658  -23.3971  -18.2091 O   0  0  0  0  0  0  0  0  0  0  0  0
   23.5977  -21.8505  -16.9239 C   0  0  2  0  0  0  0  0  0  0  0  0
   22.4692  -21.2132  -16.3379 N   0  0  0  0  0  0  0  0  0  0  0  0
   24.8687  -21.1327  -16.9350 C   0  0  0  0  0  0  0  0  0  0  0  0
   24.8546  -20.0502  -17.6462 O   0  0  0  0  0  0  0  0  0  0  0  0
   26.0816  -21.4455  -16.2977 N   0  0  0  0  0  0  0  0  0  0  0  0
   26.2069  -22.5401  -15.3579 C   0  0  0  0  0  0  0  0  0  0  0  0
   27.6688  -22.5546  -14.9147 C   0  0  0  0  0  0  0  0  0  0  0  0
   28.3322  -21.9485  -16.1139 C   0  0  0  0  0  0  0  0  0  0  0  0
   27.3558  -20.7985  -16.4334 C   0  0  1  0  0  0  0  0  0  0  0  0
   27.6725  -20.2613  -17.7652 C   0  0  0  0  0  0  0  0  0  0  0  0
   28.6403  -19.2584  -17.8033 O   0  0  0  0  0  0  0  0  0  0  0  0
   27.1713  -20.6057  -18.8496 O   0  0  0  0  0  0  0  0  0  0  0  0
  2  4  1  0
  2  1  1  0
  3  2  2  0
  4  5  1  0
  5  7  1  0
  5  6  1  1
  7  8  2  0
 10  9  1  1
 10 11  1  0
 10 12  1  0
 12 14  1  0
 12 13  1  6
 13  7  1  0
 14 16  1  0
 14 15  2  0
 16 17  1  0
 17 18  1  0
 19 18  1  0
 20 16  1  0
 20 19  1  0
 20 21  1  6
 22 21  1  0
 23 21  2  0
M  END
$$$$
