NTP.pdb
     RDKit          3D

 23 23  0  0  1  0  0  0  0  0999 V2000
   20.4672  -18.5011  -15.7416 N   0  0  0  0  0  0  0  0  0  0  0  0
   21.4739  -18.3983  -14.7466 C   0  0  0  0  0  0  0  0  0  0  0  0
   21.2612  -19.0147  -13.6595 O   0  0  0  0  0  0  0  0  0  0  0  0
   22.7243  -17.6052  -14.9627 C   0  0  0  0  0  0  0  0  0  0  0  0
   22.6628  -16.9963  -16.3472 C   0  0  2  0  0  0  0  0  0  0  0  0
   22.7488  -18.0131  -17.3763 N   0  0  0  0  0  0  0  0  0  0  0  0
   23.6503  -15.9258  -16.5198 C   0  0  0  0  0  0  0  0  0  0  0  0
   24.8609  -16.2485  -16.6049 O   0  0  0  0  0  0  0  0  0  0  0  0
   25.1942  -14.6764  -18.8959 C   0  0  0  0  0  0  0  0  0  0  0  0
   24.4916  -13.4376  -18.4427 C   0  0  1  0  0  0  0  0  0  0  0  0
   23.3394  -13.2615  -19.1626 O   0  0  0  0  0  0  0  0  0  0  0  0
   24.2407  -13.5141  -16.9397 C   0  0  2  0  0  0  0  0  0  0  0  0
   23.3083  -14.5321  -16.5967 N   0  0  0  0  0  0  0  0  0  0  0  0
   24.0743  -12.1938  -16.3399 C   0  0  0  0  0  0  0  0  0  0  0  0
   22.8711  -11.7230  -16.4313 O   0  0  0  0  0  0  0  0  0  0  0  0
   25.0171  -11.3769  -15.6927 N   0  0  0  0  0  0  0  0  0  0  0  0
   26.3850  -11.7953  -15.4680 C   0  0  0  0  0  0  0  0  0  0  0  0
   27.0761  -10.6291  -14.7635 C   0  0  0  0  0  0  0  0  0  0  0  0
   26.2639   -9.4751  -15.2675 C   0  0  0  0  0  0  0  0  0  0  0  0
   24.8394  -10.0558  -15.1598 C   0  0  1  0  0  0  0  0  0  0  0  0
   23.9117   -9.1801  -15.8911 C   0  0  0  0  0  0  0  0  0  0  0  0
   23.2049   -8.2599  -15.1180 O   0  0  0  0  0  0  0  0  0  0  0  0
   23.6948   -9.1757  -17.1154 O   0  0  0  0  0  0  0  0  0  0  0  0
  2  4  1  0
  2  1  1  0
  3  2  2  0
  4  5  1  0
  5  7  1  0
  5  6  1  6
  7  8  2  0
 10  9  1  6
 10 11  1  0
 10 12  1  0
 12 14  1  0
 12 13  1  6
 13  7  1  0
 14 16  1  0
 14 15  2  0
 16 17  1  0
 17 18  1  0
 19 18  1  0
 20 16  1  0
 20 19  1  0
 20 21  1  6
 22 21  1  0
 23 21  2  0
M  END
$$$$
