NTP.pdb
     RDKit          3D

 23 23  0  0  1  0  0  0  0  0999 V2000
   16.9053  -12.1613  -18.3394 N   0  0  0  0  0  0  0  0  0  0  0  0
   16.5522  -10.9164  -17.7567 C   0  0  0  0  0  0  0  0  0  0  0  0
   15.5374  -10.3315  -18.2414 O   0  0  0  0  0  0  0  0  0  0  0  0
   17.3328  -10.3192  -16.6284 C   0  0  0  0  0  0  0  0  0  0  0  0
   18.4445  -11.2798  -16.2640 C   0  0  2  0  0  0  0  0  0  0  0  0
   17.9540  -12.3697  -15.4443 N   0  0  0  0  0  0  0  0  0  0  0  0
   19.5922  -10.5894  -15.6665 C   0  0  0  0  0  0  0  0  0  0  0  0
   19.5855  -10.4001  -14.4251 O   0  0  0  0  0  0  0  0  0  0  0  0
   24.3000   -9.4065  -15.5961 C   0  0  0  0  0  0  0  0  0  0  0  0
   23.1678  -10.0751  -16.3066 C   0  0  1  0  0  0  0  0  0  0  0  0
   23.2319  -11.4308  -16.1202 O   0  0  0  0  0  0  0  0  0  0  0  0
   21.8455   -9.4779  -15.8347 C   0  0  2  0  0  0  0  0  0  0  0  0
   20.7202  -10.1192  -16.4227 N   0  0  0  0  0  0  0  0  0  0  0  0
   21.8757   -8.0186  -15.8120 C   0  0  0  0  0  0  0  0  0  0  0  0
   21.9434   -7.4762  -16.9863 O   0  0  0  0  0  0  0  0  0  0  0  0
   21.8450   -7.1373  -14.7178 N   0  0  0  0  0  0  0  0  0  0  0  0
   21.6259   -7.5903  -13.3600 C   0  0  0  0  0  0  0  0  0  0  0  0
   21.6847   -6.3423  -12.4808 C   0  0  0  0  0  0  0  0  0  0  0  0
   22.5794   -5.4629  -13.3004 C   0  0  0  0  0  0  0  0  0  0  0  0
   22.0133   -5.7117  -14.7130 C   0  0  1  0  0  0  0  0  0  0  0  0
   22.9514   -5.1653  -15.7049 C   0  0  0  0  0  0  0  0  0  0  0  0
   22.5030   -4.0567  -16.4218 O   0  0  0  0  0  0  0  0  0  0  0  0
   24.0916   -5.5858  -15.9675 O   0  0  0  0  0  0  0  0  0  0  0  0
  2  4  1  0
  2  1  1  0
  3  2  2  0
  4  5  1  0
  5  7  1  0
  5  6  1  1
  7  8  2  0
 10  9  1  1
 10 11  1  0
 10 12  1  0
 12 14  1  0
 12 13  1  6
 13  7  1  0
 14 16  1  0
 14 15  2  0
 16 17  1  0
 17 18  1  0
 19 18  1  0
 20 16  1  0
 20 19  1  0
 20 21  1  6
 22 21  1  0
 23 21  2  0
M  END
$$$$
