NTP.pdb
     RDKit          3D

 23 23  0  0  1  0  0  0  0  0999 V2000
   13.6898  -11.3036  -16.1777 N   0  0  0  0  0  0  0  0  0  0  0  0
   14.0427  -10.6340  -14.9772 C   0  0  0  0  0  0  0  0  0  0  0  0
   13.0852  -10.2382  -14.2468 O   0  0  0  0  0  0  0  0  0  0  0  0
   15.4689  -10.4037  -14.5875 C   0  0  0  0  0  0  0  0  0  0  0  0
   16.3523  -10.9419  -15.6927 C   0  0  2  0  0  0  0  0  0  0  0  0
   16.3818  -12.3908  -15.6877 N   0  0  0  0  0  0  0  0  0  0  0  0
   17.6914  -10.3446  -15.6644 C   0  0  0  0  0  0  0  0  0  0  0  0
   18.5816  -10.9244  -14.9949 O   0  0  0  0  0  0  0  0  0  0  0  0
   20.1132   -9.9987  -18.2582 C   0  0  0  0  0  0  0  0  0  0  0  0
   19.9615   -8.5915  -17.7779 C   0  0  1  0  0  0  0  0  0  0  0  0
   19.2223   -7.8666  -18.6750 O   0  0  0  0  0  0  0  0  0  0  0  0
   19.3532   -8.5927  -16.3787 C   0  0  2  0  0  0  0  0  0  0  0  0
   18.0386   -9.1354  -16.3592 N   0  0  0  0  0  0  0  0  0  0  0  0
   19.5939   -7.3387  -15.6712 C   0  0  0  0  0  0  0  0  0  0  0  0
   18.7654   -6.3928  -15.9820 O   0  0  0  0  0  0  0  0  0  0  0  0
   20.5792   -7.0189  -14.7216 N   0  0  0  0  0  0  0  0  0  0  0  0
   21.4957   -8.0055  -14.1890 C   0  0  0  0  0  0  0  0  0  0  0  0
   22.4059   -7.2586  -13.2156 C   0  0  0  0  0  0  0  0  0  0  0  0
   22.3672   -5.8782  -13.7975 C   0  0  0  0  0  0  0  0  0  0  0  0
   20.8663   -5.7451  -14.1252 C   0  0  1  0  0  0  0  0  0  0  0  0
   20.6690   -4.5673  -14.9833 C   0  0  0  0  0  0  0  0  0  0  0  0
   20.5700   -3.3427  -14.3240 O   0  0  0  0  0  0  0  0  0  0  0  0
   20.5821   -4.5511  -16.2235 O   0  0  0  0  0  0  0  0  0  0  0  0
  2  4  1  0
  2  1  1  0
  3  2  2  0
  4  5  1  0
  5  7  1  0
  5  6  1  1
  7  8  2  0
 10  9  1  6
 10 11  1  0
 10 12  1  0
 12 14  1  0
 12 13  1  6
 13  7  1  0
 14 16  1  0
 14 15  2  0
 16 17  1  0
 17 18  1  0
 19 18  1  0
 20 16  1  0
 20 19  1  0
 20 21  1  6
 22 21  1  0
 23 21  2  0
M  END
$$$$
