NTP.pdb
     RDKit          3D

 23 23  0  0  1  0  0  0  0  0999 V2000
   14.6660  -15.7510  -14.2437 N   0  0  0  0  0  0  0  0  0  0  0  0
   15.1511  -14.4710  -14.6185 C   0  0  0  0  0  0  0  0  0  0  0  0
   14.2826  -13.5637  -14.7897 O   0  0  0  0  0  0  0  0  0  0  0  0
   16.6109  -14.1995  -14.8037 C   0  0  0  0  0  0  0  0  0  0  0  0
   16.8482  -13.8733  -16.2628 C   0  0  2  0  0  0  0  0  0  0  0  0
   16.7862  -15.0634  -17.0874 N   0  0  0  0  0  0  0  0  0  0  0  0
   18.0832  -13.1073  -16.4597 C   0  0  0  0  0  0  0  0  0  0  0  0
   19.1637  -13.7419  -16.5430 O   0  0  0  0  0  0  0  0  0  0  0  0
   19.3558  -11.2439  -19.2252 C   0  0  0  0  0  0  0  0  0  0  0  0
   19.3328  -10.2288  -18.1285 C   0  0  1  0  0  0  0  0  0  0  0  0
   18.2658   -9.3851  -18.2922 O   0  0  0  0  0  0  0  0  0  0  0  0
   19.3209  -10.9375  -16.7774 C   0  0  2  0  0  0  0  0  0  0  0  0
   18.1235  -11.6744  -16.5620 N   0  0  0  0  0  0  0  0  0  0  0  0
   19.8086  -10.0810  -15.7006 C   0  0  0  0  0  0  0  0  0  0  0  0
   18.9126   -9.2776  -15.2215 O   0  0  0  0  0  0  0  0  0  0  0  0
   21.0879  -10.0051  -15.1239 N   0  0  0  0  0  0  0  0  0  0  0  0
   22.1178  -10.9895  -15.3832 C   0  0  0  0  0  0  0  0  0  0  0  0
   23.3455  -10.5384  -14.5937 C   0  0  0  0  0  0  0  0  0  0  0  0
   23.1161   -9.0586  -14.5385 C   0  0  0  0  0  0  0  0  0  0  0  0
   21.6066   -9.0119  -14.2266 C   0  0  1  0  0  0  0  0  0  0  0  0
   21.1212   -7.6384  -14.4275 C   0  0  0  0  0  0  0  0  0  0  0  0
   20.9304   -6.8842  -13.2705 O   0  0  0  0  0  0  0  0  0  0  0  0
   20.8660   -7.0861  -15.5118 O   0  0  0  0  0  0  0  0  0  0  0  0
  2  4  1  0
  2  1  1  0
  3  2  2  0
  4  5  1  0
  5  7  1  0
  5  6  1  6
  7  8  2  0
 10  9  1  6
 10 11  1  0
 10 12  1  0
 12 14  1  0
 12 13  1  1
 13  7  1  0
 14 16  1  0
 14 15  2  0
 16 17  1  0
 17 18  1  0
 19 18  1  0
 20 16  1  0
 20 19  1  0
 20 21  1  6
 22 21  1  0
 23 21  2  0
M  END
$$$$
