NTP.pdb
     RDKit          3D

 23 23  0  0  1  0  0  0  0  0999 V2000
   13.7616  -13.1794  -15.4659 N   0  0  0  0  0  0  0  0  0  0  0  0
   14.1777  -12.3193  -14.4165 C   0  0  0  0  0  0  0  0  0  0  0  0
   13.2970  -12.0004  -13.5624 O   0  0  0  0  0  0  0  0  0  0  0  0
   15.5817  -11.8114  -14.3172 C   0  0  0  0  0  0  0  0  0  0  0  0
   16.3355  -12.2656  -15.5489 C   0  0  2  0  0  0  0  0  0  0  0  0
   16.5897  -13.6921  -15.5171 N   0  0  0  0  0  0  0  0  0  0  0  0
   17.5506  -11.4751  -15.7708 C   0  0  0  0  0  0  0  0  0  0  0  0
   18.6496  -11.9727  -15.4221 O   0  0  0  0  0  0  0  0  0  0  0  0
   18.9569  -10.3763  -18.9622 C   0  0  0  0  0  0  0  0  0  0  0  0
   18.8315   -9.1150  -18.1703 C   0  0  1  0  0  0  0  0  0  0  0  0
   17.7597   -8.3865  -18.6147 O   0  0  0  0  0  0  0  0  0  0  0  0
   18.7390   -9.4520  -16.6851 C   0  0  2  0  0  0  0  0  0  0  0  0
   17.5515  -10.1661  -16.3640 N   0  0  0  0  0  0  0  0  0  0  0  0
   19.1181   -8.3248  -15.8387 C   0  0  0  0  0  0  0  0  0  0  0  0
   18.1641   -7.4708  -15.6428 O   0  0  0  0  0  0  0  0  0  0  0  0
   20.3479   -8.0400  -15.2211 N   0  0  0  0  0  0  0  0  0  0  0  0
   21.4507   -8.9784  -15.2143 C   0  0  0  0  0  0  0  0  0  0  0  0
   22.5919   -8.2880  -14.4693 C   0  0  0  0  0  0  0  0  0  0  0  0
   22.2703   -6.8486  -14.7342 C   0  0  0  0  0  0  0  0  0  0  0  0
   20.7430   -6.8502  -14.5218 C   0  0  1  0  0  0  0  0  0  0  0  0
   20.1904   -5.5854  -15.0289 C   0  0  0  0  0  0  0  0  0  0  0  0
   20.1803   -4.5205  -14.1290 O   0  0  0  0  0  0  0  0  0  0  0  0
   19.7358   -5.3699  -16.1659 O   0  0  0  0  0  0  0  0  0  0  0  0
  2  4  1  0
  2  1  1  0
  3  2  2  0
  4  5  1  0
  5  7  1  0
  5  6  1  1
  7  8  2  0
 10  9  1  6
 10 11  1  0
 10 12  1  0
 12 14  1  0
 12 13  1  1
 13  7  1  0
 14 16  1  0
 14 15  2  0
 16 17  1  0
 17 18  1  0
 19 18  1  0
 20 16  1  0
 20 19  1  0
 20 21  1  6
 22 21  1  0
 23 21  2  0
M  END
$$$$
