NTP.pdb
     RDKit          3D

 23 23  0  0  1  0  0  0  0  0999 V2000
   15.3598  -13.7327  -10.6989 N   0  0  0  0  0  0  0  0  0  0  0  0
   16.0045  -13.0680  -11.7743 C   0  0  0  0  0  0  0  0  0  0  0  0
   16.7541  -13.7769  -12.5109 O   0  0  0  0  0  0  0  0  0  0  0  0
   15.8140  -11.6063  -12.0314 C   0  0  0  0  0  0  0  0  0  0  0  0
   14.9763  -11.0352  -10.9072 C   0  0  2  0  0  0  0  0  0  0  0  0
   13.6774  -11.6744  -10.8385 N   0  0  0  0  0  0  0  0  0  0  0  0
   14.8890   -9.5730  -10.9766 C   0  0  0  0  0  0  0  0  0  0  0  0
   13.8621   -9.0675  -11.4933 O   0  0  0  0  0  0  0  0  0  0  0  0
   15.1455   -6.9411   -8.1493 C   0  0  0  0  0  0  0  0  0  0  0  0
   16.1913   -6.6398   -9.1738 C   0  0  1  0  0  0  0  0  0  0  0  0
   17.4175   -7.0601   -8.7304 O   0  0  0  0  0  0  0  0  0  0  0  0
   15.7983   -7.2725  -10.5054 C   0  0  2  0  0  0  0  0  0  0  0  0
   15.9118   -8.6902  -10.4866 N   0  0  0  0  0  0  0  0  0  0  0  0
   16.3540   -6.5495  -11.6453 C   0  0  0  0  0  0  0  0  0  0  0  0
   17.6332   -6.6956  -11.7870 O   0  0  0  0  0  0  0  0  0  0  0  0
   15.7102   -5.7321  -12.5899 N   0  0  0  0  0  0  0  0  0  0  0  0
   14.2691   -5.6823  -12.7220 C   0  0  0  0  0  0  0  0  0  0  0  0
   13.9784   -4.6731  -13.8314 C   0  0  0  0  0  0  0  0  0  0  0  0
   15.1842   -3.7892  -13.7303 C   0  0  0  0  0  0  0  0  0  0  0  0
   16.2980   -4.8401  -13.5488 C   0  0  1  0  0  0  0  0  0  0  0  0
   17.5321   -4.1586  -13.1303 C   0  0  0  0  0  0  0  0  0  0  0  0
   18.1927   -3.4322  -14.1202 O   0  0  0  0  0  0  0  0  0  0  0  0
   18.0418   -4.1633  -11.9963 O   0  0  0  0  0  0  0  0  0  0  0  0
  2  4  1  0
  2  1  1  0
  3  2  2  0
  4  5  1  0
  5  7  1  0
  5  6  1  6
  7  8  2  0
 10  9  1  1
 10 11  1  0
 10 12  1  0
 12 14  1  0
 12 13  1  1
 13  7  1  0
 14 16  1  0
 14 15  2  0
 16 17  1  0
 17 18  1  0
 19 18  1  0
 20 16  1  0
 20 19  1  0
 20 21  1  1
 22 21  1  0
 23 21  2  0
M  END
$$$$
