NTP.pdb
     RDKit          3D

 23 23  0  0  1  0  0  0  0  0999 V2000
   20.3536  -19.1128  -15.9916 N   0  0  0  0  0  0  0  0  0  0  0  0
   20.8408  -18.7380  -14.7125 C   0  0  0  0  0  0  0  0  0  0  0  0
   20.3427  -19.3440  -13.7166 O   0  0  0  0  0  0  0  0  0  0  0  0
   21.8879  -17.6831  -14.5406 C   0  0  0  0  0  0  0  0  0  0  0  0
   22.3124  -17.2120  -15.9152 C   0  0  2  0  0  0  0  0  0  0  0  0
   23.1318  -18.2028  -16.5840 N   0  0  0  0  0  0  0  0  0  0  0  0
   22.9414  -15.8880  -15.8712 C   0  0  0  0  0  0  0  0  0  0  0  0
   24.1931  -15.8324  -15.7860 O   0  0  0  0  0  0  0  0  0  0  0  0
   22.2150  -13.1771  -18.4146 C   0  0  0  0  0  0  0  0  0  0  0  0
   23.3448  -13.1052  -17.4387 C   0  0  1  0  0  0  0  0  0  0  0  0
   23.9778  -11.8947  -17.5419 O   0  0  0  0  0  0  0  0  0  0  0  0
   22.8216  -13.3778  -16.0316 C   0  0  2  0  0  0  0  0  0  0  0  0
   22.2051  -14.6548  -15.9201 N   0  0  0  0  0  0  0  0  0  0  0  0
   22.1283  -12.2238  -15.4674 C   0  0  0  0  0  0  0  0  0  0  0  0
   20.9519  -12.0203  -15.9700 O   0  0  0  0  0  0  0  0  0  0  0  0
   22.5495  -11.3194  -14.4776 N   0  0  0  0  0  0  0  0  0  0  0  0
   23.8125  -11.4590  -13.7831 C   0  0  0  0  0  0  0  0  0  0  0  0
   23.8987  -10.2792  -12.8163 C   0  0  0  0  0  0  0  0  0  0  0  0
   23.0497   -9.2700  -13.5279 C   0  0  0  0  0  0  0  0  0  0  0  0
   21.8716  -10.1542  -13.9842 C   0  0  1  0  0  0  0  0  0  0  0  0
   21.0674   -9.4077  -14.9632 C   0  0  0  0  0  0  0  0  0  0  0  0
   20.0393   -8.6260  -14.4379 O   0  0  0  0  0  0  0  0  0  0  0  0
   21.2082   -9.4019  -16.1985 O   0  0  0  0  0  0  0  0  0  0  0  0
  2  4  1  0
  2  1  1  0
  3  2  2  0
  4  5  1  0
  5  7  1  0
  5  6  1  1
  7  8  2  0
 10  9  1  6
 10 11  1  0
 10 12  1  0
 12 14  1  0
 12 13  1  6
 13  7  1  0
 14 16  1  0
 14 15  2  0
 16 17  1  0
 17 18  1  0
 19 18  1  0
 20 16  1  0
 20 19  1  0
 20 21  1  6
 22 21  1  0
 23 21  2  0
M  END
$$$$
