IYW.pdb
     RDKit          3D

 35 37  0  0  1  0  0  0  0  0999 V2000
    8.0129  -11.9043   19.1000 C   0  0  0  0  0  0  0  0  0  0  0  0
    8.1489  -13.4013   18.9403 C   0  0  0  0  0  0  0  0  0  0  0  0
    7.9226  -14.1365   20.2238 C   0  0  2  0  0  0  0  0  0  0  0  0
    8.8083  -13.6465   21.3374 C   0  0  0  0  0  0  0  0  0  0  0  0
    7.9628  -15.6216   20.0528 C   0  0  2  0  0  0  0  0  0  0  0  0
    6.9683  -15.9658   19.0446 N   0  0  0  0  0  0  0  0  0  0  0  0
    7.7755  -16.3994   21.2909 C   0  0  0  0  0  0  0  0  0  0  0  0
    6.6567  -16.4327   21.8587 O   0  0  0  0  0  0  0  0  0  0  0  0
    8.7101  -22.0882   27.9699 O   0  0  0  0  0  0  0  0  0  0  0  0
    8.7725  -21.3900   26.7649 C   0  0  0  0  0  0  0  0  0  0  0  0
   10.0226  -21.0111   26.3082 C   0  0  0  0  0  0  0  0  0  0  0  0
   10.1588  -20.3218   25.1297 C   0  0  0  0  0  0  0  0  0  0  0  0
    9.0256  -19.9953   24.3769 C   0  0  0  0  0  0  0  0  0  0  0  0
    9.1539  -19.2376   23.1196 C   0  0  0  0  0  0  0  0  0  0  0  0
    8.6800  -17.8267   23.1885 C   0  0  2  0  0  0  0  0  0  0  0  0
    8.8187  -17.1441   21.9093 N   0  0  0  0  0  0  0  0  0  0  0  0
    9.4832  -17.0734   24.1847 C   0  0  0  0  0  0  0  0  0  0  0  0
   10.6073  -16.5631   23.8758 O   0  0  0  0  0  0  0  0  0  0  0  0
    7.7930  -20.3768   24.8419 C   0  0  0  0  0  0  0  0  0  0  0  0
    7.6423  -21.0730   26.0299 C   0  0  0  0  0  0  0  0  0  0  0  0
    9.0435  -16.8843   25.5206 N   0  0  0  0  0  0  0  0  0  0  0  0
    9.8571  -16.1267   26.4606 C   0  0  1  0  0  0  0  0  0  0  0  0
    8.9762  -15.4591   27.4867 C   0  0  0  0  0  0  0  0  0  0  0  0
    7.7559  -14.8414   26.9627 C   0  0  0  0  0  0  0  0  0  0  0  0
    6.5871  -15.5193   26.6026 C   0  0  0  0  0  0  0  0  0  0  0  0
    5.6905  -14.6402   26.1364 N   0  0  0  0  0  0  0  0  0  0  0  0
    6.1958  -13.3978   26.1637 C   0  0  0  0  0  0  0  0  0  0  0  0
    5.6873  -12.1504   25.8142 C   0  0  0  0  0  0  0  0  0  0  0  0
    6.4640  -11.0475   25.9835 C   0  0  0  0  0  0  0  0  0  0  0  0
    7.7422  -11.1293   26.4914 C   0  0  0  0  0  0  0  0  0  0  0  0
    8.2349  -12.3615   26.8321 C   0  0  0  0  0  0  0  0  0  0  0  0
    7.4925  -13.5128   26.6813 C   0  0  0  0  0  0  0  0  0  0  0  0
   10.9795  -16.8991   26.9672 C   0  0  0  0  0  0  0  0  0  0  0  0
   11.2674  -18.2243   26.7085 O   0  0  0  0  0  0  0  0  0  0  0  0
   11.8073  -16.3139   27.7452 O   0  0  0  0  0  0  0  0  0  0  0  0
  2  1  1  0
  3  5  1  0
  3  2  1  0
  3  4  1  1
  5  6  1  6
  7  8  2  0
  7  5  1  0
  9 10  1  0
 10 11  2  0
 10 20  1  0
 11 12  1  0
 12 13  2  0
 13 14  1  0
 15 14  1  6
 15 16  1  0
 15 17  1  0
 16  7  1  0
 17 21  1  0
 18 17  2  0
 19 13  1  0
 20 19  2  0
 21 22  1  0
 22 23  1  1
 22 33  1  0
 24 23  1  0
 25 24  2  0
 26 25  1  0
 27 26  1  0
 27 32  2  0
 28 29  2  0
 28 27  1  0
 29 30  1  0
 30 31  2  0
 32 31  1  0
 32 24  1  0
 33 35  2  0
 33 34  1  0
M  END
$$$$
