IYW.pdb
     RDKit          3D

 35 37  0  0  1  0  0  0  0  0999 V2000
    8.0040  -11.9894   18.6901 C   0  0  0  0  0  0  0  0  0  0  0  0
    8.9165  -13.0880   19.1857 C   0  0  0  0  0  0  0  0  0  0  0  0
    8.5514  -14.4288   18.6308 C   0  0  2  0  0  0  0  0  0  0  0  0
    7.0699  -14.6899   18.6711 C   0  0  0  0  0  0  0  0  0  0  0  0
    9.3589  -15.5385   19.2250 C   0  0  2  0  0  0  0  0  0  0  0  0
    9.2488  -16.6801   18.3259 N   0  0  0  0  0  0  0  0  0  0  0  0
    9.0038  -15.8988   20.6095 C   0  0  0  0  0  0  0  0  0  0  0  0
    9.1386  -15.0659   21.5387 O   0  0  0  0  0  0  0  0  0  0  0  0
    7.2178  -21.1716   27.5810 O   0  0  0  0  0  0  0  0  0  0  0  0
    7.3167  -20.5705   26.3270 C   0  0  0  0  0  0  0  0  0  0  0  0
    6.8803  -21.2963   25.2326 C   0  0  0  0  0  0  0  0  0  0  0  0
    6.9475  -20.7669   23.9687 C   0  0  0  0  0  0  0  0  0  0  0  0
    7.4619  -19.4799   23.7773 C   0  0  0  0  0  0  0  0  0  0  0  0
    7.5596  -18.9055   22.4238 C   0  0  0  0  0  0  0  0  0  0  0  0
    8.2462  -17.5851   22.3528 C   0  0  2  0  0  0  0  0  0  0  0  0
    8.4984  -17.1773   20.9775 N   0  0  0  0  0  0  0  0  0  0  0  0
    9.5590  -17.6620   23.0425 C   0  0  0  0  0  0  0  0  0  0  0  0
   10.6481  -17.6988   22.3855 O   0  0  0  0  0  0  0  0  0  0  0  0
    7.8912  -18.7722   24.8709 C   0  0  0  0  0  0  0  0  0  0  0  0
    7.8284  -19.2955   26.1520 C   0  0  0  0  0  0  0  0  0  0  0  0
    9.6670  -17.6976   24.4570 N   0  0  0  0  0  0  0  0  0  0  0  0
    9.2049  -16.5722   25.2567 C   0  0  1  0  0  0  0  0  0  0  0  0
    7.8642  -16.0971   24.7559 C   0  0  0  0  0  0  0  0  0  0  0  0
    7.1436  -15.1885   25.6507 C   0  0  0  0  0  0  0  0  0  0  0  0
    6.0287  -15.5204   26.4266 C   0  0  0  0  0  0  0  0  0  0  0  0
    5.6154  -14.4359   27.0954 N   0  0  0  0  0  0  0  0  0  0  0  0
    6.3976  -13.3841   26.8100 C   0  0  0  0  0  0  0  0  0  0  0  0
    6.4127  -12.0594   27.2363 C   0  0  0  0  0  0  0  0  0  0  0  0
    7.3740  -11.2224   26.7636 C   0  0  0  0  0  0  0  0  0  0  0  0
    8.3351  -11.6483   25.8728 C   0  0  0  0  0  0  0  0  0  0  0  0
    8.3122  -12.9538   25.4580 C   0  0  0  0  0  0  0  0  0  0  0  0
    7.3610  -13.8459   25.9037 C   0  0  0  0  0  0  0  0  0  0  0  0
    9.3162  -16.8261   26.6837 C   0  0  0  0  0  0  0  0  0  0  0  0
    9.9005  -16.0137   27.6347 O   0  0  0  0  0  0  0  0  0  0  0  0
    8.8318  -17.9181   27.1378 O   0  0  0  0  0  0  0  0  0  0  0  0
  2  1  1  0
  3  5  1  0
  3  2  1  0
  3  4  1  1
  5  6  1  6
  7  8  2  0
  7  5  1  0
  9 10  1  0
 10 11  2  0
 10 20  1  0
 11 12  1  0
 12 13  2  0
 13 14  1  0
 15 14  1  6
 15 16  1  0
 15 17  1  0
 16  7  1  0
 17 21  1  0
 18 17  2  0
 19 13  1  0
 20 19  2  0
 21 22  1  0
 22 23  1  1
 22 33  1  0
 24 23  1  0
 25 24  2  0
 26 25  1  0
 27 26  1  0
 27 32  2  0
 28 29  2  0
 28 27  1  0
 29 30  1  0
 30 31  2  0
 32 31  1  0
 32 24  1  0
 33 35  2  0
 33 34  1  0
M  END
$$$$
