IYW.pdb
     RDKit          3D

 35 37  0  0  1  0  0  0  0  0999 V2000
    8.0076  -11.9311   18.8502 C   0  0  0  0  0  0  0  0  0  0  0  0
    7.9853  -13.4221   18.6020 C   0  0  0  0  0  0  0  0  0  0  0  0
    8.3199  -14.2114   19.8284 C   0  0  2  0  0  0  0  0  0  0  0  0
    9.5380  -13.6885   20.5408 C   0  0  0  0  0  0  0  0  0  0  0  0
    8.3786  -15.6831   19.5692 C   0  0  2  0  0  0  0  0  0  0  0  0
    7.1141  -16.0621   18.9518 N   0  0  0  0  0  0  0  0  0  0  0  0
    8.6803  -16.5146   20.7483 C   0  0  0  0  0  0  0  0  0  0  0  0
    7.7723  -16.8258   21.5571 O   0  0  0  0  0  0  0  0  0  0  0  0
   12.8666  -22.1783   26.1539 O   0  0  0  0  0  0  0  0  0  0  0  0
   12.4802  -21.3657   25.0890 C   0  0  0  0  0  0  0  0  0  0  0  0
   13.2844  -20.2809   24.7865 C   0  0  0  0  0  0  0  0  0  0  0  0
   12.9652  -19.4392   23.7512 C   0  0  0  0  0  0  0  0  0  0  0  0
   11.8156  -19.6743   22.9893 C   0  0  0  0  0  0  0  0  0  0  0  0
   11.4484  -18.7675   21.8872 C   0  0  0  0  0  0  0  0  0  0  0  0
   10.2844  -17.8808   22.1683 C   0  0  2  0  0  0  0  0  0  0  0  0
    9.9825  -17.0077   21.0424 N   0  0  0  0  0  0  0  0  0  0  0  0
   10.5817  -17.0142   23.3369 C   0  0  0  0  0  0  0  0  0  0  0  0
   11.3862  -16.0328   23.2427 O   0  0  0  0  0  0  0  0  0  0  0  0
   11.0275  -20.7528   23.3006 C   0  0  0  0  0  0  0  0  0  0  0  0
   11.3391  -21.6100   24.3433 C   0  0  0  0  0  0  0  0  0  0  0  0
    9.9895  -17.2325   24.6079 N   0  0  0  0  0  0  0  0  0  0  0  0
   10.4444  -16.4801   25.7683 C   0  0  1  0  0  0  0  0  0  0  0  0
    9.9840  -15.0474   25.6694 C   0  0  0  0  0  0  0  0  0  0  0  0
    8.5333  -14.8483   25.7043 C   0  0  0  0  0  0  0  0  0  0  0  0
    7.5692  -15.8609   25.6813 C   0  0  0  0  0  0  0  0  0  0  0  0
    6.3481  -15.3107   25.6946 N   0  0  0  0  0  0  0  0  0  0  0  0
    6.4383  -13.9726   25.7260 C   0  0  0  0  0  0  0  0  0  0  0  0
    5.4944  -12.9507   25.7655 C   0  0  0  0  0  0  0  0  0  0  0  0
    5.9175  -11.6597   25.8123 C   0  0  0  0  0  0  0  0  0  0  0  0
    7.2561  -11.3330   25.8214 C   0  0  0  0  0  0  0  0  0  0  0  0
    8.1784  -12.3454   25.7816 C   0  0  0  0  0  0  0  0  0  0  0  0
    7.8065  -13.6716   25.7327 C   0  0  0  0  0  0  0  0  0  0  0  0
   10.1672  -17.1701   27.0173 C   0  0  0  0  0  0  0  0  0  0  0  0
   10.6644  -16.8665   28.2688 O   0  0  0  0  0  0  0  0  0  0  0  0
    9.3818  -18.1778   26.9839 O   0  0  0  0  0  0  0  0  0  0  0  0
  2  1  1  0
  3  5  1  0
  3  2  1  0
  3  4  1  6
  5  6  1  1
  7  8  2  0
  7  5  1  0
  9 10  1  0
 10 11  2  0
 10 20  1  0
 11 12  1  0
 12 13  2  0
 13 14  1  0
 15 14  1  6
 15 16  1  0
 15 17  1  0
 16  7  1  0
 17 21  1  0
 18 17  2  0
 19 13  1  0
 20 19  2  0
 21 22  1  0
 22 23  1  1
 22 33  1  0
 24 23  1  0
 25 24  2  0
 26 25  1  0
 27 26  1  0
 27 32  2  0
 28 29  2  0
 28 27  1  0
 29 30  1  0
 30 31  2  0
 32 31  1  0
 32 24  1  0
 33 35  2  0
 33 34  1  0
M  END
$$$$
