IYW.pdb
     RDKit          3D

 35 37  0  0  1  0  0  0  0  0999 V2000
    7.0083  -12.0367   19.3334 C   0  0  0  0  0  0  0  0  0  0  0  0
    7.8403  -13.1956   18.8338 C   0  0  0  0  0  0  0  0  0  0  0  0
    8.1799  -14.1666   19.9206 C   0  0  2  0  0  0  0  0  0  0  0  0
    8.6889  -13.4903   21.1649 C   0  0  0  0  0  0  0  0  0  0  0  0
    9.0688  -15.2728   19.4488 C   0  0  2  0  0  0  0  0  0  0  0  0
    8.4266  -15.8756   18.2878 N   0  0  0  0  0  0  0  0  0  0  0  0
    9.4079  -16.2813   20.4689 C   0  0  0  0  0  0  0  0  0  0  0  0
    8.5946  -17.1924   20.7585 O   0  0  0  0  0  0  0  0  0  0  0  0
   14.0264  -21.7307   25.6794 O   0  0  0  0  0  0  0  0  0  0  0  0
   13.6543  -20.6750   24.8482 C   0  0  0  0  0  0  0  0  0  0  0  0
   12.9174  -20.9795   23.7172 C   0  0  0  0  0  0  0  0  0  0  0  0
   12.5166  -19.9906   22.8548 C   0  0  0  0  0  0  0  0  0  0  0  0
   12.8533  -18.6579   23.1159 C   0  0  0  0  0  0  0  0  0  0  0  0
   12.4477  -17.5869   22.1885 C   0  0  0  0  0  0  0  0  0  0  0  0
   10.9902  -17.2775   22.1895 C   0  0  2  0  0  0  0  0  0  0  0  0
   10.6436  -16.2918   21.1748 N   0  0  0  0  0  0  0  0  0  0  0  0
   10.5945  -16.7186   23.5070 C   0  0  0  0  0  0  0  0  0  0  0  0
   11.0278  -15.5890   23.9014 O   0  0  0  0  0  0  0  0  0  0  0  0
   13.5843  -18.3708   24.2403 C   0  0  0  0  0  0  0  0  0  0  0  0
   13.9948  -19.3602   25.1187 C   0  0  0  0  0  0  0  0  0  0  0  0
    9.7204  -17.4079   24.3871 N   0  0  0  0  0  0  0  0  0  0  0  0
    9.4004  -16.8470   25.6918 C   0  0  1  0  0  0  0  0  0  0  0  0
    7.9226  -16.9770   25.9630 C   0  0  0  0  0  0  0  0  0  0  0  0
    7.1734  -15.7186   25.9848 C   0  0  0  0  0  0  0  0  0  0  0  0
    5.7851  -15.5928   25.8750 C   0  0  0  0  0  0  0  0  0  0  0  0
    5.4539  -14.2952   25.9034 N   0  0  0  0  0  0  0  0  0  0  0  0
    6.5521  -13.5349   26.0279 C   0  0  0  0  0  0  0  0  0  0  0  0
    6.7597  -12.1619   26.1198 C   0  0  0  0  0  0  0  0  0  0  0  0
    8.0273  -11.6918   26.2626 C   0  0  0  0  0  0  0  0  0  0  0  0
    9.1143  -12.5368   26.3186 C   0  0  0  0  0  0  0  0  0  0  0  0
    8.9006  -13.8870   26.2265 C   0  0  0  0  0  0  0  0  0  0  0  0
    7.6376  -14.4190   26.0802 C   0  0  0  0  0  0  0  0  0  0  0  0
   10.2991  -17.3202   26.7318 C   0  0  0  0  0  0  0  0  0  0  0  0
   10.5479  -16.7295   27.9546 O   0  0  0  0  0  0  0  0  0  0  0  0
   10.9489  -18.3994   26.5170 O   0  0  0  0  0  0  0  0  0  0  0  0
  2  1  1  0
  3  5  1  0
  3  2  1  0
  3  4  1  1
  5  6  1  6
  7  8  2  0
  7  5  1  0
  9 10  1  0
 10 11  2  0
 10 20  1  0
 11 12  1  0
 12 13  2  0
 13 14  1  0
 15 14  1  1
 15 16  1  0
 15 17  1  0
 16  7  1  0
 17 21  1  0
 18 17  2  0
 19 13  1  0
 20 19  2  0
 21 22  1  0
 22 23  1  1
 22 33  1  0
 24 23  1  0
 25 24  2  0
 26 25  1  0
 27 26  1  0
 27 32  2  0
 28 29  2  0
 28 27  1  0
 29 30  1  0
 30 31  2  0
 32 31  1  0
 32 24  1  0
 33 35  2  0
 33 34  1  0
M  END
$$$$
