IYW.pdb
     RDKit          3D

 35 37  0  0  1  0  0  0  0  0999 V2000
    7.6201  -12.4829   18.8220 C   0  0  0  0  0  0  0  0  0  0  0  0
    7.4918  -13.9890   18.8052 C   0  0  0  0  0  0  0  0  0  0  0  0
    7.5123  -14.5803   20.1797 C   0  0  2  0  0  0  0  0  0  0  0  0
    8.7452  -14.2029   20.9556 C   0  0  0  0  0  0  0  0  0  0  0  0
    7.2477  -16.0523   20.1785 C   0  0  2  0  0  0  0  0  0  0  0  0
    6.0853  -16.2799   19.3295 N   0  0  0  0  0  0  0  0  0  0  0  0
    7.0764  -16.6583   21.5112 C   0  0  0  0  0  0  0  0  0  0  0  0
    6.1066  -16.3329   22.2386 O   0  0  0  0  0  0  0  0  0  0  0  0
    8.4548  -21.7231   28.7082 O   0  0  0  0  0  0  0  0  0  0  0  0
    8.4422  -21.1832   27.4229 C   0  0  0  0  0  0  0  0  0  0  0  0
    7.2183  -21.0721   26.7869 C   0  0  0  0  0  0  0  0  0  0  0  0
    7.1311  -20.5495   25.5213 C   0  0  0  0  0  0  0  0  0  0  0  0
    8.2885  -20.1227   24.8610 C   0  0  0  0  0  0  0  0  0  0  0  0
    8.2137  -19.5783   23.4937 C   0  0  0  0  0  0  0  0  0  0  0  0
    7.9018  -18.1234   23.4161 C   0  0  2  0  0  0  0  0  0  0  0  0
    7.9713  -17.6253   22.0491 N   0  0  0  0  0  0  0  0  0  0  0  0
    8.8839  -17.3537   24.2211 C   0  0  0  0  0  0  0  0  0  0  0  0
   10.0880  -17.2127   23.8342 O   0  0  0  0  0  0  0  0  0  0  0  0
    9.4947  -20.2392   25.5032 C   0  0  0  0  0  0  0  0  0  0  0  0
    9.5958  -20.7650   26.7809 C   0  0  0  0  0  0  0  0  0  0  0  0
    8.5347  -16.7404   25.4522 N   0  0  0  0  0  0  0  0  0  0  0  0
    9.5447  -16.0481   26.2396 C   0  0  1  0  0  0  0  0  0  0  0  0
    9.4913  -14.5666   25.9628 C   0  0  0  0  0  0  0  0  0  0  0  0
    8.1491  -13.9817   25.9217 C   0  0  0  0  0  0  0  0  0  0  0  0
    6.9667  -14.6701   25.6333 C   0  0  0  0  0  0  0  0  0  0  0  0
    5.9379  -13.8127   25.6551 N   0  0  0  0  0  0  0  0  0  0  0  0
    6.3666  -12.5750   25.9451 C   0  0  0  0  0  0  0  0  0  0  0  0
    5.7221  -11.3518   26.1031 C   0  0  0  0  0  0  0  0  0  0  0  0
    6.4555  -10.2535   26.4253 C   0  0  0  0  0  0  0  0  0  0  0  0
    7.8208  -10.3164   26.5999 C   0  0  0  0  0  0  0  0  0  0  0  0
    8.4471  -11.5246   26.4417 C   0  0  0  0  0  0  0  0  0  0  0  0
    7.7540  -12.6701   26.1148 C   0  0  0  0  0  0  0  0  0  0  0  0
    9.5294  -16.4524   27.6358 C   0  0  0  0  0  0  0  0  0  0  0  0
   10.5084  -16.2270   28.5826 O   0  0  0  0  0  0  0  0  0  0  0  0
    8.5099  -17.0939   28.0629 O   0  0  0  0  0  0  0  0  0  0  0  0
  2  1  1  0
  3  5  1  0
  3  2  1  0
  3  4  1  6
  5  6  1  6
  7  8  2  0
  7  5  1  0
  9 10  1  0
 10 11  2  0
 10 20  1  0
 11 12  1  0
 12 13  2  0
 13 14  1  0
 15 14  1  6
 15 16  1  0
 15 17  1  0
 16  7  1  0
 17 21  1  0
 18 17  2  0
 19 13  1  0
 20 19  2  0
 21 22  1  0
 22 23  1  1
 22 33  1  0
 24 23  1  0
 25 24  2  0
 26 25  1  0
 27 26  1  0
 27 32  2  0
 28 29  2  0
 28 27  1  0
 29 30  1  0
 30 31  2  0
 32 31  1  0
 32 24  1  0
 33 35  2  0
 33 34  1  0
M  END
$$$$
