IYW.pdb
     RDKit          3D

 35 37  0  0  1  0  0  0  0  0999 V2000
    7.7579  -11.7623   18.7576 C   0  0  0  0  0  0  0  0  0  0  0  0
    8.2710  -13.1405   18.4080 C   0  0  0  0  0  0  0  0  0  0  0  0
    8.4120  -14.0205   19.6100 C   0  0  2  0  0  0  0  0  0  0  0  0
    9.1486  -13.3492   20.7376 C   0  0  0  0  0  0  0  0  0  0  0  0
    8.9582  -15.3718   19.2750 C   0  0  2  0  0  0  0  0  0  0  0  0
    8.1256  -15.9212   18.2126 N   0  0  0  0  0  0  0  0  0  0  0  0
    9.0721  -16.3007   20.4138 C   0  0  0  0  0  0  0  0  0  0  0  0
    8.0581  -16.8949   20.8545 O   0  0  0  0  0  0  0  0  0  0  0  0
   10.5554  -22.0199   17.5901 O   0  0  0  0  0  0  0  0  0  0  0  0
   10.8219  -21.1252   18.6256 C   0  0  0  0  0  0  0  0  0  0  0  0
   10.4408  -21.4932   19.9040 C   0  0  0  0  0  0  0  0  0  0  0  0
   10.6723  -20.6621   20.9707 C   0  0  0  0  0  0  0  0  0  0  0  0
   11.2999  -19.4277   20.7706 C   0  0  0  0  0  0  0  0  0  0  0  0
   11.5370  -18.5152   21.9032 C   0  0  0  0  0  0  0  0  0  0  0  0
   10.4411  -17.5390   22.1599 C   0  0  2  0  0  0  0  0  0  0  0  0
   10.3023  -16.5800   21.0724 N   0  0  0  0  0  0  0  0  0  0  0  0
   10.7301  -16.7706   23.3972 C   0  0  0  0  0  0  0  0  0  0  0  0
   11.4533  -15.7239   23.3700 O   0  0  0  0  0  0  0  0  0  0  0  0
   11.6717  -19.0758   19.4983 C   0  0  0  0  0  0  0  0  0  0  0  0
   11.4437  -19.9061   18.4131 C   0  0  0  0  0  0  0  0  0  0  0  0
   10.2194  -17.1591   24.6629 N   0  0  0  0  0  0  0  0  0  0  0  0
   10.4508  -16.3265   25.8345 C   0  0  1  0  0  0  0  0  0  0  0  0
    9.8508  -14.9589   25.6245 C   0  0  0  0  0  0  0  0  0  0  0  0
    8.4058  -14.8648   25.8441 C   0  0  0  0  0  0  0  0  0  0  0  0
    7.4832  -15.9001   25.6644 C   0  0  0  0  0  0  0  0  0  0  0  0
    6.2508  -15.4464   25.9277 N   0  0  0  0  0  0  0  0  0  0  0  0
    6.2938  -14.1521   26.2781 C   0  0  0  0  0  0  0  0  0  0  0  0
    5.3220  -13.2306   26.6563 C   0  0  0  0  0  0  0  0  0  0  0  0
    5.6992  -11.9649   26.9786 C   0  0  0  0  0  0  0  0  0  0  0  0
    7.0180  -11.5674   26.9412 C   0  0  0  0  0  0  0  0  0  0  0  0
    7.9679  -12.4810   26.5669 C   0  0  0  0  0  0  0  0  0  0  0  0
    7.6427  -13.7770   26.2292 C   0  0  0  0  0  0  0  0  0  0  0  0
   10.1074  -17.0069   27.0723 C   0  0  0  0  0  0  0  0  0  0  0  0
   10.4086  -16.6061   28.3585 O   0  0  0  0  0  0  0  0  0  0  0  0
    9.4574  -18.1044   26.9925 O   0  0  0  0  0  0  0  0  0  0  0  0
  2  1  1  0
  3  5  1  0
  3  2  1  0
  3  4  1  1
  5  6  1  6
  7  8  2  0
  7  5  1  0
  9 10  1  0
 10 11  2  0
 10 20  1  0
 11 12  1  0
 12 13  2  0
 13 14  1  0
 15 14  1  6
 15 16  1  0
 15 17  1  0
 16  7  1  0
 17 21  1  0
 18 17  2  0
 19 13  1  0
 20 19  2  0
 21 22  1  0
 22 23  1  6
 22 33  1  0
 24 23  1  0
 25 24  2  0
 26 25  1  0
 27 26  1  0
 27 32  2  0
 28 29  2  0
 28 27  1  0
 29 30  1  0
 30 31  2  0
 32 31  1  0
 32 24  1  0
 33 35  2  0
 33 34  1  0
M  END
$$$$
