IYW.pdb
     RDKit          3D

 35 37  0  0  1  0  0  0  0  0999 V2000
    2.3819  -18.2538   20.6837 C   0  0  0  0  0  0  0  0  0  0  0  0
    3.5132  -18.4854   21.6592 C   0  0  0  0  0  0  0  0  0  0  0  0
    4.8372  -18.0513   21.1134 C   0  0  2  0  0  0  0  0  0  0  0  0
    5.0988  -18.5861   19.7313 C   0  0  0  0  0  0  0  0  0  0  0  0
    5.9640  -18.3049   22.0634 C   0  0  2  0  0  0  0  0  0  0  0  0
    5.4711  -18.0133   23.4035 N   0  0  0  0  0  0  0  0  0  0  0  0
    7.2081  -17.5713   21.7686 C   0  0  0  0  0  0  0  0  0  0  0  0
    7.9288  -17.9048   20.7966 O   0  0  0  0  0  0  0  0  0  0  0  0
    7.7479  -13.3320   16.5589 O   0  0  0  0  0  0  0  0  0  0  0  0
    7.9642  -13.5596   17.9172 C   0  0  0  0  0  0  0  0  0  0  0  0
    9.1104  -14.2463   18.2770 C   0  0  0  0  0  0  0  0  0  0  0  0
    9.3874  -14.5052   19.5956 C   0  0  0  0  0  0  0  0  0  0  0  0
    8.5055  -14.0729   20.5921 C   0  0  0  0  0  0  0  0  0  0  0  0
    8.7788  -14.3611   22.0112 C   0  0  0  0  0  0  0  0  0  0  0  0
    8.9455  -15.8058   22.3351 C   0  0  2  0  0  0  0  0  0  0  0  0
    7.6644  -16.4673   22.5420 N   0  0  0  0  0  0  0  0  0  0  0  0
    9.7308  -15.9544   23.5866 C   0  0  0  0  0  0  0  0  0  0  0  0
   10.9012  -15.4664   23.6928 O   0  0  0  0  0  0  0  0  0  0  0  0
    7.3732  -13.3938   20.2210 C   0  0  0  0  0  0  0  0  0  0  0  0
    7.0824  -13.1262   18.8933 C   0  0  0  0  0  0  0  0  0  0  0  0
    9.2221  -16.6413   24.7193 N   0  0  0  0  0  0  0  0  0  0  0  0
    9.9857  -16.6798   25.9582 C   0  0  1  0  0  0  0  0  0  0  0  0
    9.4146  -15.6968   26.9491 C   0  0  0  0  0  0  0  0  0  0  0  0
    8.0949  -15.1579   26.6123 C   0  0  0  0  0  0  0  0  0  0  0  0
    6.9876  -15.9065   26.2016 C   0  0  0  0  0  0  0  0  0  0  0  0
    5.9630  -15.0811   25.9504 N   0  0  0  0  0  0  0  0  0  0  0  0
    6.3229  -13.8079   26.1718 C   0  0  0  0  0  0  0  0  0  0  0  0
    5.6495  -12.5936   26.0799 C   0  0  0  0  0  0  0  0  0  0  0  0
    6.3050  -11.4467   26.4008 C   0  0  0  0  0  0  0  0  0  0  0  0
    7.6193  -11.4518   26.8147 C   0  0  0  0  0  0  0  0  0  0  0  0
    8.2747  -12.6518   26.9016 C   0  0  0  0  0  0  0  0  0  0  0  0
    7.6600  -13.8449   26.5882 C   0  0  0  0  0  0  0  0  0  0  0  0
   10.1989  -18.0368   26.4337 C   0  0  0  0  0  0  0  0  0  0  0  0
   11.0657  -18.4489   27.4260 O   0  0  0  0  0  0  0  0  0  0  0  0
    9.5257  -18.9760   25.8877 O   0  0  0  0  0  0  0  0  0  0  0  0
  2  1  1  0
  3  5  1  0
  3  2  1  0
  3  4  1  6
  5  6  1  1
  7  8  2  0
  7  5  1  0
  9 10  1  0
 10 11  2  0
 10 20  1  0
 11 12  1  0
 12 13  2  0
 13 14  1  0
 15 14  1  1
 15 16  1  0
 15 17  1  0
 16  7  1  0
 17 21  1  0
 18 17  2  0
 19 13  1  0
 20 19  2  0
 21 22  1  0
 22 23  1  1
 22 33  1  0
 24 23  1  0
 25 24  2  0
 26 25  1  0
 27 26  1  0
 27 32  2  0
 28 29  2  0
 28 27  1  0
 29 30  1  0
 30 31  2  0
 32 31  1  0
 32 24  1  0
 33 35  2  0
 33 34  1  0
M  END
$$$$
