IYW.pdb
     RDKit          3D

 35 37  0  0  1  0  0  0  0  0999 V2000
    6.6927  -11.8098   18.8530 C   0  0  0  0  0  0  0  0  0  0  0  0
    7.8119  -12.6588   18.2948 C   0  0  0  0  0  0  0  0  0  0  0  0
    8.5155  -13.4468   19.3547 C   0  0  2  0  0  0  0  0  0  0  0  0
    8.8340  -12.6245   20.5741 C   0  0  0  0  0  0  0  0  0  0  0  0
    9.6974  -14.1962   18.8275 C   0  0  2  0  0  0  0  0  0  0  0  0
    9.2560  -14.9153   17.6393 N   0  0  0  0  0  0  0  0  0  0  0  0
   10.3520  -15.0939   19.7961 C   0  0  0  0  0  0  0  0  0  0  0  0
   10.0274  -16.3045   19.8623 O   0  0  0  0  0  0  0  0  0  0  0  0
   15.8456  -15.9264   16.3667 O   0  0  0  0  0  0  0  0  0  0  0  0
   15.2843  -15.7225   17.6265 C   0  0  0  0  0  0  0  0  0  0  0  0
   15.2011  -16.8127   18.4746 C   0  0  0  0  0  0  0  0  0  0  0  0
   14.6607  -16.6849   19.7292 C   0  0  0  0  0  0  0  0  0  0  0  0
   14.1867  -15.4416   20.1618 C   0  0  0  0  0  0  0  0  0  0  0  0
   13.5850  -15.2928   21.4987 C   0  0  0  0  0  0  0  0  0  0  0  0
   12.1209  -15.5624   21.5591 C   0  0  2  0  0  0  0  0  0  0  0  0
   11.3671  -14.6634   20.6959 N   0  0  0  0  0  0  0  0  0  0  0  0
   11.6288  -15.3649   22.9461 C   0  0  0  0  0  0  0  0  0  0  0  0
   11.5714  -14.2053   23.4668 O   0  0  0  0  0  0  0  0  0  0  0  0
   14.2751  -14.3699   19.3105 C   0  0  0  0  0  0  0  0  0  0  0  0
   14.8186  -14.4861   18.0416 C   0  0  0  0  0  0  0  0  0  0  0  0
   11.2005  -16.4486   23.7560 N   0  0  0  0  0  0  0  0  0  0  0  0
   10.1124  -16.2691   24.7065 C   0  0  1  0  0  0  0  0  0  0  0  0
    8.9501  -15.5785   24.0384 C   0  0  0  0  0  0  0  0  0  0  0  0
    7.8207  -15.2572   24.9139 C   0  0  0  0  0  0  0  0  0  0  0  0
    6.7606  -16.1136   25.2269 C   0  0  0  0  0  0  0  0  0  0  0  0
    5.8973  -15.4760   26.0284 N   0  0  0  0  0  0  0  0  0  0  0  0
    6.3222  -14.2275   26.2743 C   0  0  0  0  0  0  0  0  0  0  0  0
    5.8189  -13.1787   27.0381 C   0  0  0  0  0  0  0  0  0  0  0  0
    6.5144  -12.0124   27.1017 C   0  0  0  0  0  0  0  0  0  0  0  0
    7.7051  -11.8383   26.4304 C   0  0  0  0  0  0  0  0  0  0  0  0
    8.1927  -12.8758   25.6803 C   0  0  0  0  0  0  0  0  0  0  0  0
    7.5296  -14.0798   25.5793 C   0  0  0  0  0  0  0  0  0  0  0  0
    9.8136  -17.4876   25.4405 C   0  0  0  0  0  0  0  0  0  0  0  0
    9.4859  -17.6000   26.7768 O   0  0  0  0  0  0  0  0  0  0  0  0
    9.8552  -18.5956   24.8050 O   0  0  0  0  0  0  0  0  0  0  0  0
  2  1  1  0
  3  5  1  0
  3  2  1  0
  3  4  1  1
  5  6  1  6
  7  8  2  0
  7  5  1  0
  9 10  1  0
 10 11  2  0
 10 20  1  0
 11 12  1  0
 12 13  2  0
 13 14  1  0
 15 14  1  1
 15 16  1  0
 15 17  1  0
 16  7  1  0
 17 21  1  0
 18 17  2  0
 19 13  1  0
 20 19  2  0
 21 22  1  0
 22 23  1  6
 22 33  1  0
 24 23  1  0
 25 24  2  0
 26 25  1  0
 27 26  1  0
 27 32  2  0
 28 29  2  0
 28 27  1  0
 29 30  1  0
 30 31  2  0
 32 31  1  0
 32 24  1  0
 33 35  2  0
 33 34  1  0
M  END
$$$$
