IYW.pdb
     RDKit          3D

 35 37  0  0  1  0  0  0  0  0999 V2000
    5.3408  -17.8337   21.3008 C   0  0  0  0  0  0  0  0  0  0  0  0
    6.1446  -17.3033   20.1357 C   0  0  0  0  0  0  0  0  0  0  0  0
    7.6043  -17.1986   20.4481 C   0  0  2  0  0  0  0  0  0  0  0  0
    7.8782  -16.3597   21.6671 C   0  0  0  0  0  0  0  0  0  0  0  0
    8.4205  -16.7939   19.2621 C   0  0  2  0  0  0  0  0  0  0  0  0
    8.0277  -17.6561   18.1548 N   0  0  0  0  0  0  0  0  0  0  0  0
    9.8794  -16.8075   19.4725 C   0  0  0  0  0  0  0  0  0  0  0  0
   10.5419  -17.8543   19.2710 O   0  0  0  0  0  0  0  0  0  0  0  0
   18.2380  -13.8761   19.8691 O   0  0  0  0  0  0  0  0  0  0  0  0
   16.8492  -13.9717   19.9449 C   0  0  0  0  0  0  0  0  0  0  0  0
   16.1522  -14.1266   18.7596 C   0  0  0  0  0  0  0  0  0  0  0  0
   14.7840  -14.2279   18.7593 C   0  0  0  0  0  0  0  0  0  0  0  0
   14.0798  -14.1747   19.9671 C   0  0  0  0  0  0  0  0  0  0  0  0
   12.6088  -14.2616   19.9815 C   0  0  0  0  0  0  0  0  0  0  0  0
   12.0648  -15.6470   20.0501 C   0  0  2  0  0  0  0  0  0  0  0  0
   10.6157  -15.6691   19.9052 N   0  0  0  0  0  0  0  0  0  0  0  0
   12.3901  -16.2516   21.3667 C   0  0  0  0  0  0  0  0  0  0  0  0
   12.3575  -17.5119   21.5400 O   0  0  0  0  0  0  0  0  0  0  0  0
   14.7835  -14.0205   21.1342 C   0  0  0  0  0  0  0  0  0  0  0  0
   16.1648  -13.9172   21.1477 C   0  0  0  0  0  0  0  0  0  0  0  0
   12.7516  -15.4635   22.4901 N   0  0  0  0  0  0  0  0  0  0  0  0
   12.1276  -15.7002   23.7839 C   0  0  1  0  0  0  0  0  0  0  0  0
   10.7361  -15.1188   23.8016 C   0  0  0  0  0  0  0  0  0  0  0  0
    9.9568  -15.3873   25.0123 C   0  0  0  0  0  0  0  0  0  0  0  0
    8.9327  -16.3318   25.1316 C   0  0  0  0  0  0  0  0  0  0  0  0
    8.4246  -16.2808   26.3699 N   0  0  0  0  0  0  0  0  0  0  0  0
    9.0561  -15.3465   27.0965 C   0  0  0  0  0  0  0  0  0  0  0  0
    8.9307  -14.9114   28.4123 C   0  0  0  0  0  0  0  0  0  0  0  0
    9.7564  -13.9321   28.8677 C   0  0  0  0  0  0  0  0  0  0  0  0
   10.7151  -13.3567   28.0625 C   0  0  0  0  0  0  0  0  0  0  0  0
   10.8311  -13.7907   26.7682 C   0  0  0  0  0  0  0  0  0  0  0  0
   10.0207  -14.7795   26.2534 C   0  0  0  0  0  0  0  0  0  0  0  0
   12.2640  -17.0805   24.2186 C   0  0  0  0  0  0  0  0  0  0  0  0
   13.3909  -17.8742   24.1417 O   0  0  0  0  0  0  0  0  0  0  0  0
   11.2413  -17.6519   24.7296 O   0  0  0  0  0  0  0  0  0  0  0  0
  2  1  1  0
  3  5  1  0
  3  2  1  0
  3  4  1  1
  5  6  1  6
  7  8  2  0
  7  5  1  0
  9 10  1  0
 10 11  2  0
 10 20  1  0
 11 12  1  0
 12 13  2  0
 13 14  1  0
 15 14  1  1
 15 16  1  0
 15 17  1  0
 16  7  1  0
 17 21  1  0
 18 17  2  0
 19 13  1  0
 20 19  2  0
 21 22  1  0
 22 23  1  6
 22 33  1  0
 24 23  1  0
 25 24  2  0
 26 25  1  0
 27 26  1  0
 27 32  2  0
 28 29  2  0
 28 27  1  0
 29 30  1  0
 30 31  2  0
 32 31  1  0
 32 24  1  0
 33 35  2  0
 33 34  1  0
M  END
$$$$
