IYW.pdb
     RDKit          3D

 35 37  0  0  1  0  0  0  0  0999 V2000
    2.9408  -18.3131   19.4373 C   0  0  0  0  0  0  0  0  0  0  0  0
    3.8743  -18.5865   20.5944 C   0  0  0  0  0  0  0  0  0  0  0  0
    5.2575  -18.0717   20.3475 C   0  0  2  0  0  0  0  0  0  0  0  0
    5.8303  -18.5503   19.0408 C   0  0  0  0  0  0  0  0  0  0  0  0
    6.1733  -18.2991   21.5077 C   0  0  2  0  0  0  0  0  0  0  0  0
    5.4268  -17.9720   22.7158 N   0  0  0  0  0  0  0  0  0  0  0  0
    7.4545  -17.5729   21.4453 C   0  0  0  0  0  0  0  0  0  0  0  0
    8.3085  -17.8623   20.5722 O   0  0  0  0  0  0  0  0  0  0  0  0
    7.5951  -13.2915   16.5277 O   0  0  0  0  0  0  0  0  0  0  0  0
    7.9372  -13.5766   17.8489 C   0  0  0  0  0  0  0  0  0  0  0  0
    7.0516  -13.1868   18.8382 C   0  0  0  0  0  0  0  0  0  0  0  0
    7.3235  -13.4354   20.1597 C   0  0  0  0  0  0  0  0  0  0  0  0
    8.5073  -14.0896   20.5178 C   0  0  0  0  0  0  0  0  0  0  0  0
    8.8232  -14.3456   21.9342 C   0  0  0  0  0  0  0  0  0  0  0  0
    9.0502  -15.7781   22.2754 C   0  0  2  0  0  0  0  0  0  0  0  0
    7.8014  -16.5247   22.3432 N   0  0  0  0  0  0  0  0  0  0  0  0
    9.7042  -15.8822   23.6044 C   0  0  0  0  0  0  0  0  0  0  0  0
   10.7686  -15.2366   23.8682 O   0  0  0  0  0  0  0  0  0  0  0  0
    9.3760  -14.4699   19.5269 C   0  0  0  0  0  0  0  0  0  0  0  0
    9.1128  -14.2247   18.1891 C   0  0  0  0  0  0  0  0  0  0  0  0
    9.1813  -16.6988   24.6405 N   0  0  0  0  0  0  0  0  0  0  0  0
    9.8105  -16.7110   25.9534 C   0  0  1  0  0  0  0  0  0  0  0  0
    8.7658  -16.5533   27.0295 C   0  0  0  0  0  0  0  0  0  0  0  0
    7.7030  -15.5883   26.7388 C   0  0  0  0  0  0  0  0  0  0  0  0
    6.4355  -15.8965   26.2350 C   0  0  0  0  0  0  0  0  0  0  0  0
    5.7390  -14.7652   26.0645 N   0  0  0  0  0  0  0  0  0  0  0  0
    6.4742  -13.7039   26.4293 C   0  0  0  0  0  0  0  0  0  0  0  0
    6.2265  -12.3350   26.4641 C   0  0  0  0  0  0  0  0  0  0  0  0
    7.1968  -11.4977   26.9173 C   0  0  0  0  0  0  0  0  0  0  0  0
    8.4206  -11.9659   27.3435 C   0  0  0  0  0  0  0  0  0  0  0  0
    8.6560  -13.3151   27.3050 C   0  0  0  0  0  0  0  0  0  0  0  0
    7.7094  -14.2098   26.8547 C   0  0  0  0  0  0  0  0  0  0  0  0
   10.7453  -17.8134   26.1076 C   0  0  0  0  0  0  0  0  0  0  0  0
   11.6569  -18.0006   27.1272 O   0  0  0  0  0  0  0  0  0  0  0  0
   10.7501  -18.7250   25.2118 O   0  0  0  0  0  0  0  0  0  0  0  0
  2  1  1  0
  3  5  1  0
  3  2  1  0
  3  4  1  6
  5  6  1  1
  7  8  2  0
  7  5  1  0
  9 10  1  0
 10 11  2  0
 10 20  1  0
 11 12  1  0
 12 13  2  0
 13 14  1  0
 15 14  1  1
 15 16  1  0
 15 17  1  0
 16  7  1  0
 17 21  1  0
 18 17  2  0
 19 13  1  0
 20 19  2  0
 21 22  1  0
 22 23  1  1
 22 33  1  0
 24 23  1  0
 25 24  2  0
 26 25  1  0
 27 26  1  0
 27 32  2  0
 28 29  2  0
 28 27  1  0
 29 30  1  0
 30 31  2  0
 32 31  1  0
 32 24  1  0
 33 35  2  0
 33 34  1  0
M  END
$$$$
