IYW.pdb
     RDKit          3D

 35 37  0  0  1  0  0  0  0  0999 V2000
    7.4748  -12.7956   16.6758 C   0  0  0  0  0  0  0  0  0  0  0  0
    8.4902  -13.7384   17.2800 C   0  0  0  0  0  0  0  0  0  0  0  0
    8.0849  -14.2230   18.6365 C   0  0  2  0  0  0  0  0  0  0  0  0
    7.7305  -13.0990   19.5723 C   0  0  0  0  0  0  0  0  0  0  0  0
    9.0674  -15.1863   19.2224 C   0  0  2  0  0  0  0  0  0  0  0  0
    9.3332  -16.1995   18.2092 N   0  0  0  0  0  0  0  0  0  0  0  0
    8.6627  -15.7906   20.5045 C   0  0  0  0  0  0  0  0  0  0  0  0
    8.4058  -15.0662   21.4968 O   0  0  0  0  0  0  0  0  0  0  0  0
    7.4805  -21.8848   26.8662 O   0  0  0  0  0  0  0  0  0  0  0  0
    7.6417  -21.2458   25.6376 C   0  0  0  0  0  0  0  0  0  0  0  0
    8.9338  -21.0432   25.1857 C   0  0  0  0  0  0  0  0  0  0  0  0
    9.1668  -20.4214   23.9851 C   0  0  0  0  0  0  0  0  0  0  0  0
    8.0909  -19.9848   23.2046 C   0  0  0  0  0  0  0  0  0  0  0  0
    8.3254  -19.2971   21.9226 C   0  0  0  0  0  0  0  0  0  0  0  0
    8.2331  -17.8113   21.9839 C   0  0  2  0  0  0  0  0  0  0  0  0
    8.5387  -17.1947   20.7002 N   0  0  0  0  0  0  0  0  0  0  0  0
    9.2076  -17.2861   22.9736 C   0  0  0  0  0  0  0  0  0  0  0  0
   10.4477  -17.2059   22.6997 O   0  0  0  0  0  0  0  0  0  0  0  0
    6.8157  -20.1918   23.6651 C   0  0  0  0  0  0  0  0  0  0  0  0
    6.5673  -20.8184   24.8753 C   0  0  0  0  0  0  0  0  0  0  0  0
    8.8110  -16.8499   24.2644 N   0  0  0  0  0  0  0  0  0  0  0  0
    9.7869  -16.2667   25.1738 C   0  0  1  0  0  0  0  0  0  0  0  0
    9.5541  -14.7821   25.3003 C   0  0  0  0  0  0  0  0  0  0  0  0
    8.2314  -14.3918   25.7937 C   0  0  0  0  0  0  0  0  0  0  0  0
    7.1161  -15.2296   25.8907 C   0  0  0  0  0  0  0  0  0  0  0  0
    6.0734  -14.5278   26.3536 N   0  0  0  0  0  0  0  0  0  0  0  0
    6.4289  -13.2534   26.5756 C   0  0  0  0  0  0  0  0  0  0  0  0
    5.7474  -12.1403   27.0586 C   0  0  0  0  0  0  0  0  0  0  0  0
    6.4124  -10.9618   27.1893 C   0  0  0  0  0  0  0  0  0  0  0  0
    7.7436  -10.8373   26.8564 C   0  0  0  0  0  0  0  0  0  0  0  0
    8.4065  -11.9381   26.3811 C   0  0  0  0  0  0  0  0  0  0  0  0
    7.7825  -13.1573   26.2275 C   0  0  0  0  0  0  0  0  0  0  0  0
    9.9042  -17.0171   26.4132 C   0  0  0  0  0  0  0  0  0  0  0  0
   10.8873  -16.8953   27.3748 O   0  0  0  0  0  0  0  0  0  0  0  0
    9.0144  -17.8986   26.6667 O   0  0  0  0  0  0  0  0  0  0  0  0
  2  1  1  0
  3  5  1  0
  3  2  1  0
  3  4  1  1
  5  6  1  6
  7  8  2  0
  7  5  1  0
  9 10  1  0
 10 11  2  0
 10 20  1  0
 11 12  1  0
 12 13  2  0
 13 14  1  0
 15 14  1  6
 15 16  1  0
 15 17  1  0
 16  7  1  0
 17 21  1  0
 18 17  2  0
 19 13  1  0
 20 19  2  0
 21 22  1  0
 22 23  1  1
 22 33  1  0
 24 23  1  0
 25 24  2  0
 26 25  1  0
 27 26  1  0
 27 32  2  0
 28 29  2  0
 28 27  1  0
 29 30  1  0
 30 31  2  0
 32 31  1  0
 32 24  1  0
 33 35  2  0
 33 34  1  0
M  END
$$$$
