HCE.pdb
     RDKit          3D

 26 26  0  0  1  0  0  0  0  0999 V2000
    8.2211  -12.7673   19.9032 N   0  0  0  0  0  0  0  0  0  0  0  0
    7.6466  -13.9103   20.5833 C   0  0  1  0  0  0  0  0  0  0  0  0
    8.0573  -15.1489   19.7937 C   0  0  0  0  0  0  0  0  0  0  0  0
    7.7851  -14.8969   18.3565 C   0  0  0  0  0  0  0  0  0  0  0  0
    7.3833  -13.7078   17.7791 C   0  0  0  0  0  0  0  0  0  0  0  0
    7.2358  -13.8576   16.4498 N   0  0  0  0  0  0  0  0  0  0  0  0
    7.5412  -15.1325   16.1816 C   0  0  0  0  0  0  0  0  0  0  0  0
    7.8725  -15.7706   17.3100 N   0  0  0  0  0  0  0  0  0  0  0  0
    8.2396  -13.9892   21.9397 C   0  0  0  0  0  0  0  0  0  0  0  0
    9.4311  -14.3180   22.0789 O   0  0  0  0  0  0  0  0  0  0  0  0
    7.5077  -13.7039   23.1273 N   0  0  0  0  0  0  0  0  0  0  0  0
    8.0830  -13.9142   24.4276 C   0  0  1  0  0  0  0  0  0  0  0  0
    7.1787  -13.4265   25.5223 C   0  0  0  0  0  0  0  0  0  0  0  0
    5.5437  -14.1967   25.2494 S   0  0  0  0  0  0  0  0  0  0  0  0
    8.4273  -15.3365   24.6729 C   0  0  0  0  0  0  0  0  0  0  0  0
    7.8759  -16.3016   24.0841 O   0  0  0  0  0  0  0  0  0  0  0  0
    9.4427  -15.5968   25.6332 N   0  0  0  0  0  0  0  0  0  0  0  0
   10.1280  -16.8498   25.7608 C   0  0  1  0  0  0  0  0  0  0  0  0
   11.3422  -16.8942   24.9144 C   0  0  0  0  0  0  0  0  0  0  0  0
   12.1206  -18.1598   24.9106 C   0  0  0  0  0  0  0  0  0  0  0  0
   13.3357  -18.0102   24.0832 C   0  0  0  0  0  0  0  0  0  0  0  0
   13.7577  -16.8920   23.7296 O   0  0  0  0  0  0  0  0  0  0  0  0
   10.2906  -17.3015   27.1528 C   0  0  0  0  0  0  0  0  0  0  0  0
   10.6167  -18.6274   27.3895 O   0  0  0  0  0  0  0  0  0  0  0  0
   13.9922  -19.2006   23.7155 O   0  0  0  0  0  0  0  0  0  0  0  0
   10.1517  -16.5487   28.1456 O   0  0  0  0  0  0  0  0  0  0  0  0
  2  1  1  6
  2  3  1  0
  3  4  1  0
  4  8  1  0
  4  5  2  0
  5  6  1  0
  7  6  1  0
  8  7  2  0
  9  2  1  0
  9 10  2  0
 11  9  1  0
 12 11  1  0
 12 13  1  1
 13 14  1  0
 15 12  1  0
 16 15  2  0
 17 15  1  0
 18 17  1  0
 18 23  1  0
 18 19  1  1
 20 19  1  0
 21 22  2  0
 21 20  1  0
 23 24  1  0
 25 21  1  0
 26 23  2  0
M  END
$$$$
