HCE.pdb
     RDKit          3D

 26 26  0  0  1  0  0  0  0  0999 V2000
   10.9343  -13.5253   19.6065 N   0  0  0  0  0  0  0  0  0  0  0  0
    9.6708  -13.9746   20.1547 C   0  0  1  0  0  0  0  0  0  0  0  0
    9.2997  -15.2585   19.4198 C   0  0  0  0  0  0  0  0  0  0  0  0
    8.7511  -14.8925   18.0900 C   0  0  0  0  0  0  0  0  0  0  0  0
    8.6578  -13.6262   17.5454 C   0  0  0  0  0  0  0  0  0  0  0  0
    8.1067  -13.6820   16.3188 N   0  0  0  0  0  0  0  0  0  0  0  0
    7.8507  -14.9741   16.0831 C   0  0  0  0  0  0  0  0  0  0  0  0
    8.2293  -15.7141   17.1315 N   0  0  0  0  0  0  0  0  0  0  0  0
    9.8725  -14.2861   21.5900 C   0  0  0  0  0  0  0  0  0  0  0  0
   10.9127  -14.8579   21.9615 O   0  0  0  0  0  0  0  0  0  0  0  0
    8.9208  -13.9621   22.5983 N   0  0  0  0  0  0  0  0  0  0  0  0
    9.1234  -14.3482   23.9679 C   0  0  1  0  0  0  0  0  0  0  0  0
    8.0521  -13.7999   24.8656 C   0  0  0  0  0  0  0  0  0  0  0  0
    6.4773  -14.5751   24.3554 S   0  0  0  0  0  0  0  0  0  0  0  0
    9.1995  -15.8203   24.1376 C   0  0  0  0  0  0  0  0  0  0  0  0
    8.7291  -16.6450   23.3126 O   0  0  0  0  0  0  0  0  0  0  0  0
    9.8470  -16.3009   25.3084 N   0  0  0  0  0  0  0  0  0  0  0  0
   10.5213  -17.5633   25.3947 C   0  0  1  0  0  0  0  0  0  0  0  0
   11.7947  -17.5525   24.6390 C   0  0  0  0  0  0  0  0  0  0  0  0
   12.0299  -18.6712   23.6898 C   0  0  0  0  0  0  0  0  0  0  0  0
   13.3671  -18.5463   23.0735 C   0  0  0  0  0  0  0  0  0  0  0  0
   14.1317  -17.6005   23.3461 O   0  0  0  0  0  0  0  0  0  0  0  0
   10.5810  -18.1155   26.7585 C   0  0  0  0  0  0  0  0  0  0  0  0
   10.5869  -19.4917   26.9207 O   0  0  0  0  0  0  0  0  0  0  0  0
   13.7314  -19.5548   22.1608 O   0  0  0  0  0  0  0  0  0  0  0  0
   10.6290  -17.4061   27.7910 O   0  0  0  0  0  0  0  0  0  0  0  0
  2  1  1  6
  2  3  1  0
  3  4  1  0
  4  8  1  0
  4  5  2  0
  5  6  1  0
  7  6  1  0
  8  7  2  0
  9  2  1  0
  9 10  2  0
 11  9  1  0
 12 11  1  0
 12 13  1  1
 13 14  1  0
 15 12  1  0
 16 15  2  0
 17 15  1  0
 18 17  1  0
 18 23  1  0
 18 19  1  1
 20 19  1  0
 21 22  2  0
 21 20  1  0
 23 24  1  0
 25 21  1  0
 26 23  2  0
M  END
$$$$
