HCE.pdb
     RDKit          3D

 26 26  0  0  1  0  0  0  0  0999 V2000
   10.0181  -13.8942   20.7273 N   0  0  0  0  0  0  0  0  0  0  0  0
    8.6968  -13.9400   21.3198 C   0  0  1  0  0  0  0  0  0  0  0  0
    7.9364  -15.0631   20.6222 C   0  0  0  0  0  0  0  0  0  0  0  0
    7.6994  -14.6605   19.2133 C   0  0  0  0  0  0  0  0  0  0  0  0
    8.1137  -13.4953   18.5973 C   0  0  0  0  0  0  0  0  0  0  0  0
    7.7161  -13.4768   17.3117 N   0  0  0  0  0  0  0  0  0  0  0  0
    7.0532  -14.6215   17.1095 C   0  0  0  0  0  0  0  0  0  0  0  0
    7.0325  -15.3432   18.2360 N   0  0  0  0  0  0  0  0  0  0  0  0
    8.8438  -14.2813   22.7550 C   0  0  0  0  0  0  0  0  0  0  0  0
    9.7847  -15.0037   23.1288 O   0  0  0  0  0  0  0  0  0  0  0  0
    7.9476  -13.8199   23.7607 N   0  0  0  0  0  0  0  0  0  0  0  0
    8.1168  -14.1912   25.1389 C   0  0  1  0  0  0  0  0  0  0  0  0
    7.1797  -13.4378   26.0379 C   0  0  0  0  0  0  0  0  0  0  0  0
    5.5221  -13.5182   25.2719 S   0  0  0  0  0  0  0  0  0  0  0  0
    7.9433  -15.6482   25.3599 C   0  0  0  0  0  0  0  0  0  0  0  0
    7.2831  -16.3981   24.5958 O   0  0  0  0  0  0  0  0  0  0  0  0
    8.5697  -16.2043   26.5085 N   0  0  0  0  0  0  0  0  0  0  0  0
    9.0260  -17.5606   26.5993 C   0  0  1  0  0  0  0  0  0  0  0  0
    9.7888  -17.9595   25.3944 C   0  0  0  0  0  0  0  0  0  0  0  0
   11.1729  -17.4356   25.2633 C   0  0  0  0  0  0  0  0  0  0  0  0
   11.8728  -18.1125   24.1518 C   0  0  0  0  0  0  0  0  0  0  0  0
   11.3470  -18.2511   23.0303 O   0  0  0  0  0  0  0  0  0  0  0  0
    9.6376  -17.8984   27.8956 C   0  0  0  0  0  0  0  0  0  0  0  0
    9.8579  -16.8838   28.8133 O   0  0  0  0  0  0  0  0  0  0  0  0
   13.1674  -18.5927   24.4283 O   0  0  0  0  0  0  0  0  0  0  0  0
    9.9719  -19.0621   28.2208 O   0  0  0  0  0  0  0  0  0  0  0  0
  2  1  1  6
  2  3  1  0
  3  4  1  0
  4  8  1  0
  4  5  2  0
  5  6  1  0
  7  6  1  0
  8  7  2  0
  9  2  1  0
  9 10  2  0
 11  9  1  0
 12 11  1  0
 12 13  1  1
 13 14  1  0
 15 12  1  0
 16 15  2  0
 17 15  1  0
 18 17  1  0
 18 23  1  0
 18 19  1  6
 20 19  1  0
 21 22  2  0
 21 20  1  0
 23 24  1  0
 25 21  1  0
 26 23  2  0
M  END
$$$$
