HCE.pdb
     RDKit          3D

 26 26  0  0  1  0  0  0  0  0999 V2000
   11.4946  -13.8457   19.5387 N   0  0  0  0  0  0  0  0  0  0  0  0
   10.1968  -14.1621   20.0994 C   0  0  1  0  0  0  0  0  0  0  0  0
    9.6549  -15.3550   19.3186 C   0  0  0  0  0  0  0  0  0  0  0  0
    9.1683  -14.8690   18.0033 C   0  0  0  0  0  0  0  0  0  0  0  0
    9.2520  -13.5828   17.5057 C   0  0  0  0  0  0  0  0  0  0  0  0
    8.7047  -13.5177   16.2779 N   0  0  0  0  0  0  0  0  0  0  0  0
    8.2753  -14.7530   15.9947 C   0  0  0  0  0  0  0  0  0  0  0  0
    8.5437  -15.5758   17.0151 N   0  0  0  0  0  0  0  0  0  0  0  0
   10.3879  -14.5631   21.5138 C   0  0  0  0  0  0  0  0  0  0  0  0
   11.4746  -15.0429   21.8823 O   0  0  0  0  0  0  0  0  0  0  0  0
    9.3743  -14.4292   22.5048 N   0  0  0  0  0  0  0  0  0  0  0  0
    9.5926  -14.8592   23.8589 C   0  0  1  0  0  0  0  0  0  0  0  0
    8.4853  -14.4143   24.7700 C   0  0  0  0  0  0  0  0  0  0  0  0
    6.9245  -15.0590   24.0705 S   0  0  0  0  0  0  0  0  0  0  0  0
    9.7567  -16.3298   23.9682 C   0  0  0  0  0  0  0  0  0  0  0  0
    9.5123  -17.1328   23.0314 O   0  0  0  0  0  0  0  0  0  0  0  0
   10.2185  -16.8353   25.2141 N   0  0  0  0  0  0  0  0  0  0  0  0
   10.5648  -18.2069   25.4478 C   0  0  1  0  0  0  0  0  0  0  0  0
   11.3881  -18.7554   24.3459 C   0  0  0  0  0  0  0  0  0  0  0  0
   12.8503  -18.4967   24.3982 C   0  0  0  0  0  0  0  0  0  0  0  0
   13.5039  -19.0076   23.1753 C   0  0  0  0  0  0  0  0  0  0  0  0
   12.8595  -19.5786   22.2741 O   0  0  0  0  0  0  0  0  0  0  0  0
   11.0459  -18.4762   26.8132 C   0  0  0  0  0  0  0  0  0  0  0  0
   11.2582  -19.7904   27.1981 O   0  0  0  0  0  0  0  0  0  0  0  0
   14.8957  -18.8141   23.0828 O   0  0  0  0  0  0  0  0  0  0  0  0
   11.2785  -17.5769   27.6551 O   0  0  0  0  0  0  0  0  0  0  0  0
  2  1  1  6
  2  3  1  0
  3  4  1  0
  4  8  1  0
  4  5  2  0
  5  6  1  0
  7  6  1  0
  8  7  2  0
  9  2  1  0
  9 10  2  0
 11  9  1  0
 12 11  1  0
 12 13  1  1
 13 14  1  0
 15 12  1  0
 16 15  2  0
 17 15  1  0
 18 17  1  0
 18 23  1  0
 18 19  1  6
 20 19  1  0
 21 22  2  0
 21 20  1  0
 23 24  1  0
 25 21  1  0
 26 23  2  0
M  END
$$$$
