HCE.pdb
     RDKit          3D

 26 26  0  0  1  0  0  0  0  0999 V2000
   10.0903  -16.0484   18.4003 N   0  0  0  0  0  0  0  0  0  0  0  0
    9.2978  -16.6681   19.4428 C   0  0  1  0  0  0  0  0  0  0  0  0
    9.6430  -18.1537   19.4388 C   0  0  0  0  0  0  0  0  0  0  0  0
    8.7945  -18.8267   18.4238 C   0  0  0  0  0  0  0  0  0  0  0  0
    8.5393  -18.4011   17.1344 C   0  0  0  0  0  0  0  0  0  0  0  0
    7.7254  -19.2692   16.5058 N   0  0  0  0  0  0  0  0  0  0  0  0
    7.4636  -20.2410   17.3877 C   0  0  0  0  0  0  0  0  0  0  0  0
    8.0945  -19.9938   18.5414 N   0  0  0  0  0  0  0  0  0  0  0  0
    9.7057  -16.0856   20.7437 C   0  0  0  0  0  0  0  0  0  0  0  0
   10.9015  -15.8184   20.9573 O   0  0  0  0  0  0  0  0  0  0  0  0
    8.7860  -15.8058   21.7941 N   0  0  0  0  0  0  0  0  0  0  0  0
    9.2384  -15.5520   23.1346 C   0  0  1  0  0  0  0  0  0  0  0  0
    8.1390  -15.0071   23.9997 C   0  0  0  0  0  0  0  0  0  0  0  0
    6.8996  -16.3368   24.1916 S   0  0  0  0  0  0  0  0  0  0  0  0
    9.8159  -16.7584   23.7770 C   0  0  0  0  0  0  0  0  0  0  0  0
    9.8724  -17.8866   23.2239 O   0  0  0  0  0  0  0  0  0  0  0  0
   10.3287  -16.6036   25.0939 N   0  0  0  0  0  0  0  0  0  0  0  0
   11.3318  -17.4496   25.6718 C   0  0  1  0  0  0  0  0  0  0  0  0
   12.5361  -17.5294   24.8138 C   0  0  0  0  0  0  0  0  0  0  0  0
   13.2957  -16.2718   24.5922 C   0  0  0  0  0  0  0  0  0  0  0  0
   14.4947  -16.5368   23.7702 C   0  0  0  0  0  0  0  0  0  0  0  0
   14.5819  -16.1484   22.5891 O   0  0  0  0  0  0  0  0  0  0  0  0
   11.5704  -17.1997   27.1032 C   0  0  0  0  0  0  0  0  0  0  0  0
   10.8564  -16.1921   27.7319 O   0  0  0  0  0  0  0  0  0  0  0  0
   15.5348  -17.2523   24.3941 O   0  0  0  0  0  0  0  0  0  0  0  0
   12.3883  -17.8529   27.7930 O   0  0  0  0  0  0  0  0  0  0  0  0
  2  1  1  6
  2  3  1  0
  3  4  1  0
  4  8  1  0
  4  5  2  0
  5  6  1  0
  7  6  1  0
  8  7  2  0
  9  2  1  0
  9 10  2  0
 11  9  1  0
 12 11  1  0
 12 13  1  1
 13 14  1  0
 15 12  1  0
 16 15  2  0
 17 15  1  0
 18 17  1  0
 18 23  1  0
 18 19  1  6
 20 19  1  0
 21 22  2  0
 21 20  1  0
 23 24  1  0
 25 21  1  0
 26 23  2  0
M  END
$$$$
