AVE.pdb
     RDKit          3D

 22 21  0  0  1  0  0  0  0  0999 V2000
   16.9478  -12.4409  -16.5396 C   0  0  0  0  0  0  0  0  0  0  0  0
   17.7678  -11.2990  -17.0951 C   0  0  2  0  0  0  0  0  0  0  0  0
   18.4832  -11.7873  -18.2527 N   0  0  0  0  0  0  0  0  0  0  0  0
   18.7035  -10.8270  -16.0693 C   0  0  0  0  0  0  0  0  0  0  0  0
   18.2726  -10.3703  -14.9773 O   0  0  0  0  0  0  0  0  0  0  0  0
   22.9280  -10.9535  -16.8808 C   0  0  0  0  0  0  0  0  0  0  0  0
   22.3618  -11.0123  -15.4929 C   0  0  1  0  0  0  0  0  0  0  0  0
   23.3658  -10.3508  -14.5464 C   0  0  0  0  0  0  0  0  0  0  0  0
   21.0768  -10.2452  -15.3878 C   0  0  2  0  0  0  0  0  0  0  0  0
   20.0988  -10.8632  -16.2570 N   0  0  0  0  0  0  0  0  0  0  0  0
   21.2749   -8.8269  -15.6477 C   0  0  0  0  0  0  0  0  0  0  0  0
   21.4123   -8.3871  -16.8088 O   0  0  0  0  0  0  0  0  0  0  0  0
   21.3163   -7.9087  -14.5783 N   0  0  0  0  0  0  0  0  0  0  0  0
   21.4379   -6.4823  -14.8533 C   0  0  1  0  0  0  0  0  0  0  0  0
   20.1140   -5.9665  -15.3194 C   0  0  0  0  0  0  0  0  0  0  0  0
   20.0293   -4.5054  -15.5784 C   0  0  0  0  0  0  0  0  0  0  0  0
   18.6858   -4.0717  -16.0046 C   0  0  0  0  0  0  0  0  0  0  0  0
   17.8047   -4.9465  -16.2061 O   0  0  0  0  0  0  0  0  0  0  0  0
   21.9471   -5.7529  -13.6718 C   0  0  0  0  0  0  0  0  0  0  0  0
   22.4442   -4.4755  -13.8312 O   0  0  0  0  0  0  0  0  0  0  0  0
   18.3245   -2.7542  -16.2012 O   0  0  0  0  0  0  0  0  0  0  0  0
   21.9464   -6.2522  -12.5217 O   0  0  0  0  0  0  0  0  0  0  0  0
  2  1  1  1
  2  3  1  0
  4  2  1  0
  5  4  2  0
  7  6  1  6
  7  9  1  0
  8  7  1  0
  9 10  1  6
  9 11  1  0
 10  4  1  0
 11 12  2  0
 13 11  1  0
 13 14  1  0
 14 15  1  1
 16 15  1  0
 17 21  1  0
 17 16  1  0
 18 17  2  0
 19 20  1  0
 19 14  1  0
 22 19  2  0
M  END
$$$$
