AVE.pdb
     RDKit          3D

 22 21  0  0  1  0  0  0  0  0999 V2000
   23.4577  -15.7228  -16.9860 C   0  0  0  0  0  0  0  0  0  0  0  0
   24.8601  -16.2418  -17.2075 C   0  0  2  0  0  0  0  0  0  0  0  0
   25.0849  -16.3207  -18.6335 N   0  0  0  0  0  0  0  0  0  0  0  0
   24.9936  -17.5643  -16.5883 C   0  0  0  0  0  0  0  0  0  0  0  0
   24.0505  -18.3966  -16.6566 O   0  0  0  0  0  0  0  0  0  0  0  0
   28.6002  -18.4600  -14.5078 C   0  0  0  0  0  0  0  0  0  0  0  0
   27.8322  -19.5283  -15.2285 C   0  0  1  0  0  0  0  0  0  0  0  0
   28.0194  -20.8401  -14.4633 C   0  0  0  0  0  0  0  0  0  0  0  0
   26.3619  -19.2308  -15.2519 C   0  0  2  0  0  0  0  0  0  0  0  0
   26.1605  -17.9542  -15.9028 N   0  0  0  0  0  0  0  0  0  0  0  0
   25.7772  -19.3061  -13.9212 C   0  0  0  0  0  0  0  0  0  0  0  0
   25.9823  -18.4199  -13.0651 O   0  0  0  0  0  0  0  0  0  0  0  0
   24.9562  -20.3966  -13.5677 N   0  0  0  0  0  0  0  0  0  0  0  0
   24.3266  -20.4326  -12.2534 C   0  0  1  0  0  0  0  0  0  0  0  0
   22.8418  -20.4096  -12.4292 C   0  0  0  0  0  0  0  0  0  0  0  0
   22.0290  -20.5125  -11.1891 C   0  0  0  0  0  0  0  0  0  0  0  0
   20.5802  -20.5897  -11.4533 C   0  0  0  0  0  0  0  0  0  0  0  0
   20.1874  -20.6676  -12.6457 O   0  0  0  0  0  0  0  0  0  0  0  0
   24.7877  -21.6011  -11.4730 C   0  0  0  0  0  0  0  0  0  0  0  0
   25.3102  -22.6917  -12.1376 O   0  0  0  0  0  0  0  0  0  0  0  0
   19.6129  -20.5810  -10.4688 O   0  0  0  0  0  0  0  0  0  0  0  0
   24.7219  -21.6420  -10.2215 O   0  0  0  0  0  0  0  0  0  0  0  0
  2  1  1  6
  2  3  1  0
  4  2  1  0
  5  4  2  0
  7  6  1  1
  7  9  1  0
  8  7  1  0
  9 10  1  1
  9 11  1  0
 10  4  1  0
 11 12  2  0
 13 11  1  0
 13 14  1  0
 14 15  1  6
 16 15  1  0
 17 21  1  0
 17 16  1  0
 18 17  2  0
 19 20  1  0
 19 14  1  0
 22 19  2  0
M  END
$$$$
