AVE.pdb
     RDKit          3D

 22 21  0  0  1  0  0  0  0  0999 V2000
   17.0389  -10.7162  -17.2185 C   0  0  0  0  0  0  0  0  0  0  0  0
   18.0307  -11.4908  -16.3808 C   0  0  2  0  0  0  0  0  0  0  0  0
   17.2841  -12.3324  -15.4728 N   0  0  0  0  0  0  0  0  0  0  0  0
   18.8788  -10.5527  -15.6385 C   0  0  0  0  0  0  0  0  0  0  0  0
   18.4469   -9.9932  -14.5959 O   0  0  0  0  0  0  0  0  0  0  0  0
   23.4701   -8.9130  -14.8729 C   0  0  0  0  0  0  0  0  0  0  0  0
   22.4504   -9.9077  -15.3433 C   0  0  1  0  0  0  0  0  0  0  0  0
   22.4117  -11.0559  -14.3327 C   0  0  0  0  0  0  0  0  0  0  0  0
   21.0758   -9.3085  -15.3913 C   0  0  2  0  0  0  0  0  0  0  0  0
   20.1890  -10.2423  -16.0515 N   0  0  0  0  0  0  0  0  0  0  0  0
   21.0870   -7.9857  -15.9983 C   0  0  0  0  0  0  0  0  0  0  0  0
   21.4086   -7.8167  -17.1934 O   0  0  0  0  0  0  0  0  0  0  0  0
   20.7302   -6.8532  -15.2378 N   0  0  0  0  0  0  0  0  0  0  0  0
   20.7234   -5.5355  -15.8612 C   0  0  1  0  0  0  0  0  0  0  0  0
   19.5837   -4.7442  -15.3036 C   0  0  0  0  0  0  0  0  0  0  0  0
   19.4648   -3.3387  -15.7721 C   0  0  0  0  0  0  0  0  0  0  0  0
   18.3550   -2.6086  -15.1316 C   0  0  0  0  0  0  0  0  0  0  0  0
   17.2158   -2.6550  -15.6629 O   0  0  0  0  0  0  0  0  0  0  0  0
   22.0253   -4.8560  -15.6865 C   0  0  0  0  0  0  0  0  0  0  0  0
   22.5119   -4.0603  -16.7035 O   0  0  0  0  0  0  0  0  0  0  0  0
   18.4827   -1.8672  -13.9745 O   0  0  0  0  0  0  0  0  0  0  0  0
   22.7111   -4.9751  -14.6437 O   0  0  0  0  0  0  0  0  0  0  0  0
  2  1  1  1
  2  3  1  0
  4  2  1  0
  5  4  2  0
  7  6  1  1
  7  9  1  0
  8  7  1  0
  9 10  1  6
  9 11  1  0
 10  4  1  0
 11 12  2  0
 13 11  1  0
 13 14  1  0
 14 15  1  1
 16 15  1  0
 17 21  1  0
 17 16  1  0
 18 17  2  0
 19 20  1  0
 19 14  1  0
 22 19  2  0
M  END
$$$$
