AVE.pdb
     RDKit          3D

 22 21  0  0  1  0  0  0  0  0999 V2000
   27.2351  -10.5162  -16.5529 C   0  0  0  0  0  0  0  0  0  0  0  0
   26.1214  -11.3891  -16.0210 C   0  0  2  0  0  0  0  0  0  0  0  0
   26.1734  -12.6526  -16.7219 N   0  0  0  0  0  0  0  0  0  0  0  0
   24.8331  -10.7255  -16.2449 C   0  0  0  0  0  0  0  0  0  0  0  0
   24.2954  -10.7482  -17.3838 O   0  0  0  0  0  0  0  0  0  0  0  0
   21.5653  -11.3530  -14.9384 C   0  0  0  0  0  0  0  0  0  0  0  0
   21.8719   -9.9519  -14.4988 C   0  0  1  0  0  0  0  0  0  0  0  0
   22.4423  -10.0177  -13.0805 C   0  0  0  0  0  0  0  0  0  0  0  0
   22.9142   -9.3154  -15.3702 C   0  0  2  0  0  0  0  0  0  0  0  0
   24.1534  -10.0463  -15.2151 N   0  0  0  0  0  0  0  0  0  0  0  0
   23.0401   -7.8901  -15.1035 C   0  0  0  0  0  0  0  0  0  0  0  0
   23.9446   -7.4389  -14.3696 O   0  0  0  0  0  0  0  0  0  0  0  0
   22.1303   -6.9780  -15.6767 N   0  0  0  0  0  0  0  0  0  0  0  0
   22.3203   -5.5460  -15.4806 C   0  0  1  0  0  0  0  0  0  0  0  0
   21.7418   -4.8180  -16.6516 C   0  0  0  0  0  0  0  0  0  0  0  0
   21.8409   -3.3353  -16.6212 C   0  0  0  0  0  0  0  0  0  0  0  0
   21.2244   -2.6914  -17.7959 C   0  0  0  0  0  0  0  0  0  0  0  0
   20.7754   -3.4202  -18.7176 O   0  0  0  0  0  0  0  0  0  0  0  0
   21.7414   -5.1024  -14.1941 C   0  0  0  0  0  0  0  0  0  0  0  0
   20.6139   -5.7333  -13.7093 O   0  0  0  0  0  0  0  0  0  0  0  0
   21.1058   -1.3256  -17.9560 O   0  0  0  0  0  0  0  0  0  0  0  0
   22.2369   -4.1681  -13.5206 O   0  0  0  0  0  0  0  0  0  0  0  0
  2  1  1  6
  2  3  1  0
  4  2  1  0
  5  4  2  0
  7  6  1  6
  7  9  1  0
  8  7  1  0
  9 10  1  1
  9 11  1  0
 10  4  1  0
 11 12  2  0
 13 11  1  0
 13 14  1  0
 14 15  1  6
 16 15  1  0
 17 21  1  0
 17 16  1  0
 18 17  2  0
 19 20  1  0
 19 14  1  0
 22 19  2  0
M  END
$$$$
