AVE.pdb
     RDKit          3D

 22 21  0  0  1  0  0  0  0  0999 V2000
   18.3077  -10.7534  -18.1238 C   0  0  0  0  0  0  0  0  0  0  0  0
   19.5668  -11.4430  -17.6504 C   0  0  2  0  0  0  0  0  0  0  0  0
   19.2385  -12.8221  -17.3662 N   0  0  0  0  0  0  0  0  0  0  0  0
   20.0671  -10.7713  -16.4467 C   0  0  0  0  0  0  0  0  0  0  0  0
   19.3513  -10.7033  -15.4124 O   0  0  0  0  0  0  0  0  0  0  0  0
   23.1567  -11.3965  -14.5470 C   0  0  0  0  0  0  0  0  0  0  0  0
   23.2218   -9.9471  -14.9285 C   0  0  1  0  0  0  0  0  0  0  0  0
   24.1064   -9.8267  -16.1712 C   0  0  0  0  0  0  0  0  0  0  0  0
   21.8684   -9.4100  -15.2900 C   0  0  2  0  0  0  0  0  0  0  0  0
   21.3460  -10.1836  -16.3957 N   0  0  0  0  0  0  0  0  0  0  0  0
   21.9098   -7.9782  -15.5477 C   0  0  0  0  0  0  0  0  0  0  0  0
   22.1967   -7.5241  -16.6755 O   0  0  0  0  0  0  0  0  0  0  0  0
   21.6230   -7.0627  -14.5143 N   0  0  0  0  0  0  0  0  0  0  0  0
   21.6719   -5.6305  -14.7817 C   0  0  1  0  0  0  0  0  0  0  0  0
   20.2801   -5.1357  -15.0140 C   0  0  0  0  0  0  0  0  0  0  0  0
   20.1228   -3.6686  -15.1932 C   0  0  0  0  0  0  0  0  0  0  0  0
   18.7224   -3.2604  -15.4103 C   0  0  0  0  0  0  0  0  0  0  0  0
   17.8318   -4.1484  -15.4353 O   0  0  0  0  0  0  0  0  0  0  0  0
   22.3565   -4.9069  -13.6886 C   0  0  0  0  0  0  0  0  0  0  0  0
   22.8329   -3.6325  -13.9190 O   0  0  0  0  0  0  0  0  0  0  0  0
   18.3169   -1.9536  -15.5914 O   0  0  0  0  0  0  0  0  0  0  0  0
   22.5238   -5.4086  -12.5518 O   0  0  0  0  0  0  0  0  0  0  0  0
  2  1  1  1
  2  3  1  0
  4  2  1  0
  5  4  2  0
  7  6  1  6
  7  9  1  0
  8  7  1  0
  9 10  1  6
  9 11  1  0
 10  4  1  0
 11 12  2  0
 13 11  1  0
 13 14  1  0
 14 15  1  1
 16 15  1  0
 17 21  1  0
 17 16  1  0
 18 17  2  0
 19 20  1  0
 19 14  1  0
 22 19  2  0
M  END
$$$$
