AYG.pdb
     RDKit          3D

 22 22  0  0  1  0  0  0  0  0999 V2000
   25.6792  -21.2171  -17.7520 C   0  0  0  0  0  0  0  0  0  0  0  0
   26.6310  -21.9957  -16.8657 C   0  0  2  0  0  0  0  0  0  0  0  0
   26.7556  -23.3647  -17.3502 N   0  0  0  0  0  0  0  0  0  0  0  0
   26.1171  -22.0055  -15.4707 C   0  0  0  0  0  0  0  0  0  0  0  0
   25.2682  -22.8479  -15.1252 O   0  0  0  0  0  0  0  0  0  0  0  0
   25.2473  -20.1668   -6.9334 O   0  0  0  0  0  0  0  0  0  0  0  0
   25.7141  -20.2545   -8.2347 C   0  0  0  0  0  0  0  0  0  0  0  0
   26.0905  -21.4532   -8.7909 C   0  0  0  0  0  0  0  0  0  0  0  0
   26.5463  -21.4816  -10.0866 C   0  0  0  0  0  0  0  0  0  0  0  0
   26.6453  -20.3457  -10.8675 C   0  0  0  0  0  0  0  0  0  0  0  0
   27.1332  -20.3665  -12.2589 C   0  0  0  0  0  0  0  0  0  0  0  0
   26.1675  -21.0666  -13.1909 C   0  0  2  0  0  0  0  0  0  0  0  0
   26.6043  -21.0514  -14.5529 N   0  0  0  0  0  0  0  0  0  0  0  0
   24.8505  -20.3790  -13.0904 C   0  0  0  0  0  0  0  0  0  0  0  0
   24.6482  -19.2758  -13.6701 O   0  0  0  0  0  0  0  0  0  0  0  0
   26.2620  -19.1542  -10.2885 C   0  0  0  0  0  0  0  0  0  0  0  0
   25.8009  -19.0829   -8.9962 C   0  0  0  0  0  0  0  0  0  0  0  0
   23.7798  -20.9282  -12.3478 N   0  0  0  0  0  0  0  0  0  0  0  0
   22.5257  -20.2354  -12.2032 C   0  0  0  0  0  0  0  0  0  0  0  0
   21.4818  -20.8666  -13.0508 C   0  0  0  0  0  0  0  0  0  0  0  0
   21.7890  -21.7083  -13.9329 O   0  0  0  0  0  0  0  0  0  0  0  0
   20.1441  -20.5360  -12.8823 O   0  0  0  0  0  0  0  0  0  0  0  0
  2  1  1  6
  2  4  1  0
  3  2  1  0
  4 13  1  0
  4  5  2  0
  7  6  1  0
  8  7  2  0
  9  8  1  0
 10 16  1  0
 10  9  2  0
 11 10  1  0
 12 11  1  1
 13 12  1  0
 14 12  1  0
 14 18  1  0
 15 14  2  0
 16 17  2  0
 17  7  1  0
 19 18  1  0
 19 20  1  0
 20 21  2  0
 20 22  1  0
M  END
$$$$
