AYG.pdb
     RDKit          3D

 22 22  0  0  1  0  0  0  0  0999 V2000
   30.2304  -27.8472  -21.3852 C   0  0  0  0  0  0  0  0  0  0  0  0
   29.4285  -27.1914  -20.2786 C   0  0  2  0  0  0  0  0  0  0  0  0
   28.3168  -26.4396  -20.8475 N   0  0  0  0  0  0  0  0  0  0  0  0
   30.3057  -26.2746  -19.5039 C   0  0  0  0  0  0  0  0  0  0  0  0
   30.4642  -25.0984  -19.8796 O   0  0  0  0  0  0  0  0  0  0  0  0
   26.2541  -22.8754  -16.2234 O   0  0  0  0  0  0  0  0  0  0  0  0
   27.4734  -23.5325  -16.2028 C   0  0  0  0  0  0  0  0  0  0  0  0
   28.6648  -22.8494  -16.1609 C   0  0  0  0  0  0  0  0  0  0  0  0
   29.8448  -23.5526  -16.1421 C   0  0  0  0  0  0  0  0  0  0  0  0
   29.8904  -24.9337  -16.1637 C   0  0  0  0  0  0  0  0  0  0  0  0
   31.1521  -25.6969  -16.1437 C   0  0  0  0  0  0  0  0  0  0  0  0
   31.7307  -25.8775  -17.5308 C   0  0  2  0  0  0  0  0  0  0  0  0
   30.9499  -26.7568  -18.3454 N   0  0  0  0  0  0  0  0  0  0  0  0
   33.1050  -26.4325  -17.3876 C   0  0  0  0  0  0  0  0  0  0  0  0
   33.2974  -27.6777  -17.3080 O   0  0  0  0  0  0  0  0  0  0  0  0
   28.6827  -25.5981  -16.2058 C   0  0  0  0  0  0  0  0  0  0  0  0
   27.4810  -24.9324  -16.2257 C   0  0  0  0  0  0  0  0  0  0  0  0
   34.2432  -25.5950  -17.3352 N   0  0  0  0  0  0  0  0  0  0  0  0
   35.5655  -26.1276  -17.1311 C   0  0  0  0  0  0  0  0  0  0  0  0
   36.2906  -26.2295  -18.4235 C   0  0  0  0  0  0  0  0  0  0  0  0
   37.5304  -26.4372  -18.4530 O   0  0  0  0  0  0  0  0  0  0  0  0
   35.6085  -26.0966  -19.6252 O   0  0  0  0  0  0  0  0  0  0  0  0
  2  1  1  6
  2  4  1  0
  3  2  1  0
  4 13  1  0
  4  5  2  0
  7  6  1  0
  8  7  2  0
  9  8  1  0
 10 16  1  0
 10  9  2  0
 11 10  1  0
 12 11  1  1
 13 12  1  0
 14 12  1  0
 14 18  1  0
 15 14  2  0
 16 17  2  0
 17  7  1  0
 19 18  1  0
 19 20  1  0
 20 21  2  0
 20 22  1  0
M  END
$$$$
