AYG.pdb
     RDKit          3D

 22 22  0  0  1  0  0  0  0  0999 V2000
   27.3028  -23.6548  -16.0929 C   0  0  0  0  0  0  0  0  0  0  0  0
   26.0991  -22.7345  -16.0487 C   0  0  2  0  0  0  0  0  0  0  0  0
   25.9199  -22.0864  -17.3420 N   0  0  0  0  0  0  0  0  0  0  0  0
   26.2994  -21.7025  -14.9975 C   0  0  0  0  0  0  0  0  0  0  0  0
   27.1971  -20.8494  -15.1248 O   0  0  0  0  0  0  0  0  0  0  0  0
   19.3582  -21.8768  -13.1804 O   0  0  0  0  0  0  0  0  0  0  0  0
   20.6262  -21.3306  -13.0688 C   0  0  0  0  0  0  0  0  0  0  0  0
   21.1749  -21.0139  -11.8496 C   0  0  0  0  0  0  0  0  0  0  0  0
   22.4372  -20.4743  -11.7980 C   0  0  0  0  0  0  0  0  0  0  0  0
   23.1914  -20.2317  -12.9303 C   0  0  0  0  0  0  0  0  0  0  0  0
   24.5470  -19.6529  -12.8847 C   0  0  0  0  0  0  0  0  0  0  0  0
   25.6205  -20.7191  -12.8403 C   0  0  2  0  0  0  0  0  0  0  0  0
   25.4615  -21.7068  -13.8628 N   0  0  0  0  0  0  0  0  0  0  0  0
   25.5589  -21.3791  -11.5069 C   0  0  0  0  0  0  0  0  0  0  0  0
   25.4398  -22.6321  -11.4076 O   0  0  0  0  0  0  0  0  0  0  0  0
   22.6207  -20.5574  -14.1428 C   0  0  0  0  0  0  0  0  0  0  0  0
   21.3615  -21.0986  -14.2376 C   0  0  0  0  0  0  0  0  0  0  0  0
   25.6307  -20.6365  -10.3057 N   0  0  0  0  0  0  0  0  0  0  0  0
   25.6900  -21.2817   -9.0197 C   0  0  0  0  0  0  0  0  0  0  0  0
   25.7717  -20.2715   -7.9338 C   0  0  0  0  0  0  0  0  0  0  0  0
   25.7669  -20.6208   -6.7260 O   0  0  0  0  0  0  0  0  0  0  0  0
   25.8550  -18.9191   -8.2360 O   0  0  0  0  0  0  0  0  0  0  0  0
  2  1  1  6
  2  4  1  0
  3  2  1  0
  4 13  1  0
  4  5  2  0
  7  6  1  0
  8  7  2  0
  9  8  1  0
 10 16  1  0
 10  9  2  0
 11 10  1  0
 12 11  1  1
 13 12  1  0
 14 12  1  0
 14 18  1  0
 15 14  2  0
 16 17  2  0
 17  7  1  0
 19 18  1  0
 19 20  1  0
 20 21  2  0
 20 22  1  0
M  END
$$$$
