AYG.pdb
     RDKit          3D

 22 22  0  0  1  0  0  0  0  0999 V2000
   24.0682  -22.7416  -16.4117 C   0  0  0  0  0  0  0  0  0  0  0  0
   25.2736  -23.3152  -15.6935 C   0  0  2  0  0  0  0  0  0  0  0  0
   25.3116  -24.7625  -15.8619 N   0  0  0  0  0  0  0  0  0  0  0  0
   25.1955  -22.9835  -14.2464 C   0  0  0  0  0  0  0  0  0  0  0  0
   24.5628  -23.7236  -13.4707 O   0  0  0  0  0  0  0  0  0  0  0  0
   27.0260  -19.9376   -6.3188 O   0  0  0  0  0  0  0  0  0  0  0  0
   26.9722  -20.0842   -7.6951 C   0  0  0  0  0  0  0  0  0  0  0  0
   26.0059  -19.4681   -8.4530 C   0  0  0  0  0  0  0  0  0  0  0  0
   26.0003  -19.6485   -9.8149 C   0  0  0  0  0  0  0  0  0  0  0  0
   26.9337  -20.4314  -10.4673 C   0  0  0  0  0  0  0  0  0  0  0  0
   26.9356  -20.6309  -11.9284 C   0  0  0  0  0  0  0  0  0  0  0  0
   25.7550  -21.4569  -12.3922 C   0  0  2  0  0  0  0  0  0  0  0  0
   25.8456  -21.8252  -13.7715 N   0  0  0  0  0  0  0  0  0  0  0  0
   24.5192  -20.6538  -12.1792 C   0  0  0  0  0  0  0  0  0  0  0  0
   24.2673  -19.6469  -12.8980 O   0  0  0  0  0  0  0  0  0  0  0  0
   27.8939  -21.0400   -9.6866 C   0  0  0  0  0  0  0  0  0  0  0  0
   27.9344  -20.8851   -8.3221 C   0  0  0  0  0  0  0  0  0  0  0  0
   23.5835  -20.9825  -11.1713 N   0  0  0  0  0  0  0  0  0  0  0  0
   22.4147  -20.1761  -10.9320 C   0  0  0  0  0  0  0  0  0  0  0  0
   21.2882  -20.6249  -11.7899 C   0  0  0  0  0  0  0  0  0  0  0  0
   21.2637  -20.3527  -13.0171 O   0  0  0  0  0  0  0  0  0  0  0  0
   20.2394  -21.3555  -11.2483 O   0  0  0  0  0  0  0  0  0  0  0  0
  2  1  1  6
  2  4  1  0
  3  2  1  0
  4 13  1  0
  4  5  2  0
  7  6  1  0
  8  7  2  0
  9  8  1  0
 10 16  1  0
 10  9  2  0
 11 10  1  0
 12 11  1  6
 13 12  1  0
 14 12  1  0
 14 18  1  0
 15 14  2  0
 16 17  2  0
 17  7  1  0
 19 18  1  0
 19 20  1  0
 20 21  2  0
 20 22  1  0
M  END
$$$$
