AYG.pdb
     RDKit          3D

 22 22  0  0  1  0  0  0  0  0999 V2000
   12.0929   -9.7834  -11.9869 C   0  0  0  0  0  0  0  0  0  0  0  0
   13.5282   -9.6216  -12.4468 C   0  0  2  0  0  0  0  0  0  0  0  0
   14.3125  -10.7841  -12.0496 N   0  0  0  0  0  0  0  0  0  0  0  0
   14.1106   -8.3960  -11.8393 C   0  0  0  0  0  0  0  0  0  0  0  0
   13.6124   -7.2818  -12.0845 O   0  0  0  0  0  0  0  0  0  0  0  0
   10.4645   -7.3942   -6.6006 O   0  0  0  0  0  0  0  0  0  0  0  0
   11.7404   -7.4901   -7.1314 C   0  0  0  0  0  0  0  0  0  0  0  0
   12.2725   -8.6932   -7.5280 C   0  0  0  0  0  0  0  0  0  0  0  0
   13.5435   -8.7296   -8.0479 C   0  0  0  0  0  0  0  0  0  0  0  0
   14.3229   -7.5976   -8.1926 C   0  0  0  0  0  0  0  0  0  0  0  0
   15.6880   -7.6270   -8.7495 C   0  0  0  0  0  0  0  0  0  0  0  0
   15.6988   -7.3887  -10.2442 C   0  0  2  0  0  0  0  0  0  0  0  0
   15.2284   -8.5168  -10.9874 N   0  0  0  0  0  0  0  0  0  0  0  0
   17.0979   -7.0818  -10.6514 C   0  0  0  0  0  0  0  0  0  0  0  0
   17.7490   -6.1565  -10.0912 O   0  0  0  0  0  0  0  0  0  0  0  0
   13.7684   -6.4015   -7.7880 C   0  0  0  0  0  0  0  0  0  0  0  0
   12.5011   -6.3221   -7.2632 C   0  0  0  0  0  0  0  0  0  0  0  0
   17.7508   -7.8080  -11.6742 N   0  0  0  0  0  0  0  0  0  0  0  0
   19.0366   -7.4073  -12.1838 C   0  0  0  0  0  0  0  0  0  0  0  0
   18.8754   -6.4609  -13.3172 C   0  0  0  0  0  0  0  0  0  0  0  0
   17.7326   -6.1181  -13.7139 O   0  0  0  0  0  0  0  0  0  0  0  0
   19.9887   -5.9370  -13.9600 O   0  0  0  0  0  0  0  0  0  0  0  0
  2  1  1  1
  2  4  1  0
  3  2  1  0
  4 13  1  0
  4  5  2  0
  7  6  1  0
  8  7  2  0
  9  8  1  0
 10 16  1  0
 10  9  2  0
 11 10  1  0
 12 11  1  1
 13 12  1  0
 14 12  1  0
 14 18  1  0
 15 14  2  0
 16 17  2  0
 17  7  1  0
 19 18  1  0
 19 20  1  0
 20 21  2  0
 20 22  1  0
M  END
$$$$
