AYG.pdb
     RDKit          3D

 22 22  0  0  1  0  0  0  0  0999 V2000
   20.6796  -20.5024  -12.6826 C   0  0  0  0  0  0  0  0  0  0  0  0
   22.0613  -20.8466  -13.2023 C   0  0  2  0  0  0  0  0  0  0  0  0
   22.2078  -22.2930  -13.3076 N   0  0  0  0  0  0  0  0  0  0  0  0
   23.0907  -20.3075  -12.2750 C   0  0  0  0  0  0  0  0  0  0  0  0
   23.1251  -19.0890  -12.0225 O   0  0  0  0  0  0  0  0  0  0  0  0
   28.8930  -18.9817   -6.0542 O   0  0  0  0  0  0  0  0  0  0  0  0
   27.9701  -19.5704   -6.9030 C   0  0  0  0  0  0  0  0  0  0  0  0
   26.6328  -19.2596   -6.8483 C   0  0  0  0  0  0  0  0  0  0  0  0
   25.7618  -19.8744   -7.7146 C   0  0  0  0  0  0  0  0  0  0  0  0
   26.1730  -20.8035   -8.6514 C   0  0  0  0  0  0  0  0  0  0  0  0
   25.2454  -21.4683   -9.5853 C   0  0  0  0  0  0  0  0  0  0  0  0
   25.0845  -20.6943  -10.8761 C   0  0  2  0  0  0  0  0  0  0  0  0
   24.0202  -21.1936  -11.6912 N   0  0  0  0  0  0  0  0  0  0  0  0
   26.3648  -20.7863  -11.6308 C   0  0  0  0  0  0  0  0  0  0  0  0
   27.4202  -20.2550  -11.1861 O   0  0  0  0  0  0  0  0  0  0  0  0
   27.5193  -21.0998   -8.6882 C   0  0  0  0  0  0  0  0  0  0  0  0
   28.4230  -20.5075   -7.8396 C   0  0  0  0  0  0  0  0  0  0  0  0
   26.4518  -21.4671  -12.8672 N   0  0  0  0  0  0  0  0  0  0  0  0
   27.6797  -21.5186  -13.6177 C   0  0  0  0  0  0  0  0  0  0  0  0
   27.5225  -20.8236  -14.9210 C   0  0  0  0  0  0  0  0  0  0  0  0
   26.4415  -20.2575  -15.2240 O   0  0  0  0  0  0  0  0  0  0  0  0
   28.5711  -20.7875  -15.8299 O   0  0  0  0  0  0  0  0  0  0  0  0
  2  1  1  1
  2  4  1  0
  3  2  1  0
  4 13  1  0
  4  5  2  0
  7  6  1  0
  8  7  2  0
  9  8  1  0
 10 16  1  0
 10  9  2  0
 11 10  1  0
 12 11  1  1
 13 12  1  0
 14 12  1  0
 14 18  1  0
 15 14  2  0
 16 17  2  0
 17  7  1  0
 19 18  1  0
 19 20  1  0
 20 21  2  0
 20 22  1  0
M  END
$$$$
