AYG.pdb
     RDKit          3D

 22 22  0  0  1  0  0  0  0  0999 V2000
   22.1920   -9.0291  -19.7524 C   0  0  0  0  0  0  0  0  0  0  0  0
   22.3363   -7.7770  -18.9102 C   0  0  2  0  0  0  0  0  0  0  0  0
   23.7445   -7.5225  -18.6335 N   0  0  0  0  0  0  0  0  0  0  0  0
   21.6001   -7.9501  -17.6303 C   0  0  0  0  0  0  0  0  0  0  0  0
   20.3726   -8.1570  -17.6406 O   0  0  0  0  0  0  0  0  0  0  0  0
   22.2300  -14.0540  -17.2674 O   0  0  0  0  0  0  0  0  0  0  0  0
   22.2687  -12.8690  -16.5512 C   0  0  0  0  0  0  0  0  0  0  0  0
   23.4497  -12.3360  -16.0939 C   0  0  0  0  0  0  0  0  0  0  0  0
   23.4291  -11.1574  -15.3884 C   0  0  0  0  0  0  0  0  0  0  0  0
   22.2603  -10.4732  -15.1133 C   0  0  0  0  0  0  0  0  0  0  0  0
   22.2284   -9.2077  -14.3570 C   0  0  0  0  0  0  0  0  0  0  0  0
   21.6375   -8.0742  -15.1677 C   0  0  2  0  0  0  0  0  0  0  0  0
   22.3109   -7.8763  -16.4141 N   0  0  0  0  0  0  0  0  0  0  0  0
   21.7323   -6.8295  -14.3559 C   0  0  0  0  0  0  0  0  0  0  0  0
   21.2544   -6.7777  -13.1884 O   0  0  0  0  0  0  0  0  0  0  0  0
   21.0873  -11.0266  -15.5820 C   0  0  0  0  0  0  0  0  0  0  0  0
   21.0648  -12.2031  -16.2912 C   0  0  0  0  0  0  0  0  0  0  0  0
   22.3563   -5.6625  -14.8543 N   0  0  0  0  0  0  0  0  0  0  0  0
   22.3968   -4.4417  -14.0917 C   0  0  0  0  0  0  0  0  0  0  0  0
   21.2697   -3.5524  -14.4727 C   0  0  0  0  0  0  0  0  0  0  0  0
   20.3734   -3.9484  -15.2606 O   0  0  0  0  0  0  0  0  0  0  0  0
   21.1869   -2.2639  -13.9628 O   0  0  0  0  0  0  0  0  0  0  0  0
  2  1  1  6
  2  4  1  0
  3  2  1  0
  4 13  1  0
  4  5  2  0
  7  6  1  0
  8  7  2  0
  9  8  1  0
 10 16  1  0
 10  9  2  0
 11 10  1  0
 12 11  1  1
 13 12  1  0
 14 12  1  0
 14 18  1  0
 15 14  2  0
 16 17  2  0
 17  7  1  0
 19 18  1  0
 19 20  1  0
 20 21  2  0
 20 22  1  0
M  END
$$$$
