KCD.pdb
     RDKit          3D

 24 23  0  0  1  0  0  0  0  0999 V2000
    8.0070  -12.3706   18.5543 N   0  0  0  0  0  0  0  0  0  0  0  0
    7.5082  -13.3036   19.5121 C   0  0  1  0  0  0  0  0  0  0  0  0
    7.0567  -14.5540   18.8487 C   0  0  0  0  0  0  0  0  0  0  0  0
    8.1703  -15.3091   18.2249 C   0  0  0  0  0  0  0  0  0  0  0  0
    7.8261  -16.5894   17.5421 C   0  0  0  0  0  0  0  0  0  0  0  0
    8.0109  -17.8211   18.3970 C   0  0  0  0  0  0  0  0  0  0  0  0
    7.6979  -18.9754   17.5711 N   0  0  0  0  0  0  0  0  0  0  0  0
    8.4517  -13.5469   20.6324 C   0  0  0  0  0  0  0  0  0  0  0  0
    9.3977  -12.7438   20.8301 O   0  0  0  0  0  0  0  0  0  0  0  0
    8.3154  -14.6673   21.4917 N   0  0  0  0  0  0  0  0  0  0  0  0
    8.2717  -14.4939   22.9403 C   0  0  1  0  0  0  0  0  0  0  0  0
    7.1796  -13.5587   23.3665 C   0  0  0  0  0  0  0  0  0  0  0  0
    7.2759  -13.4109   25.1761 S   0  0  0  0  0  0  0  0  0  0  0  0
    8.1858  -15.8116   23.6267 C   0  0  0  0  0  0  0  0  0  0  0  0
    7.4276  -16.7069   23.1786 O   0  0  0  0  0  0  0  0  0  0  0  0
    8.9378  -16.1141   24.7915 N   0  0  0  0  0  0  0  0  0  0  0  0
    9.9442  -17.1867   24.8351 C   0  0  1  0  0  0  0  0  0  0  0  0
   11.0531  -16.7027   23.9295 C   0  0  0  0  0  0  0  0  0  0  0  0
   11.3965  -17.6384   22.8486 C   0  0  0  0  0  0  0  0  0  0  0  0
   12.2747  -17.3212   22.0040 O   0  0  0  0  0  0  0  0  0  0  0  0
   10.4200  -17.3715   26.2167 C   0  0  0  0  0  0  0  0  0  0  0  0
   10.7565  -18.5911   26.7555 O   0  0  0  0  0  0  0  0  0  0  0  0
   10.7863  -18.8605   22.7208 O   0  0  0  0  0  0  0  0  0  0  0  0
   10.5388  -16.3637   26.9871 O   0  0  0  0  0  0  0  0  0  0  0  0
  2  8  1  0
  2  1  1  6
  3  2  1  0
  4  3  1  0
  5  6  1  0
  5  4  1  0
  7  6  1  0
  8  9  2  0
 10  8  1  0
 10 11  1  0
 11 12  1  6
 12 13  1  0
 14 15  2  0
 14 11  1  0
 16 14  1  0
 17 16  1  0
 17 18  1  6
 19 18  1  0
 19 20  2  0
 21 22  1  0
 21 17  1  0
 23 19  1  0
 24 21  2  0
M  END
$$$$
