KCD.pdb
     RDKit          3D

 24 23  0  0  1  0  0  0  0  0999 V2000
    7.4959  -16.1043   20.6941 N   0  0  0  0  0  0  0  0  0  0  0  0
    8.5786  -15.1798   20.7939 C   0  0  1  0  0  0  0  0  0  0  0  0
    8.4478  -14.0993   19.7825 C   0  0  0  0  0  0  0  0  0  0  0  0
    8.4176  -14.6133   18.3917 C   0  0  0  0  0  0  0  0  0  0  0  0
    8.2649  -13.6104   17.2985 C   0  0  0  0  0  0  0  0  0  0  0  0
    8.0906  -14.2094   15.9228 C   0  0  0  0  0  0  0  0  0  0  0  0
    7.8227  -13.1166   15.0027 N   0  0  0  0  0  0  0  0  0  0  0  0
    8.7787  -14.6658   22.1723 C   0  0  0  0  0  0  0  0  0  0  0  0
    9.7106  -13.8543   22.4008 O   0  0  0  0  0  0  0  0  0  0  0  0
    7.9429  -15.0668   23.2461 N   0  0  0  0  0  0  0  0  0  0  0  0
    8.1358  -14.5186   24.5849 C   0  0  1  0  0  0  0  0  0  0  0  0
    6.8381  -14.1443   25.2366 C   0  0  0  0  0  0  0  0  0  0  0  0
    5.9636  -15.6921   25.6183 S   0  0  0  0  0  0  0  0  0  0  0  0
    8.9412  -15.4471   25.4239 C   0  0  0  0  0  0  0  0  0  0  0  0
    9.3219  -15.0933   26.5672 O   0  0  0  0  0  0  0  0  0  0  0  0
    9.3090  -16.7455   24.9849 N   0  0  0  0  0  0  0  0  0  0  0  0
   10.1964  -17.6278   25.7590 C   0  0  1  0  0  0  0  0  0  0  0  0
    9.5113  -18.9746   25.7294 C   0  0  0  0  0  0  0  0  0  0  0  0
    9.0104  -19.4218   27.0374 C   0  0  0  0  0  0  0  0  0  0  0  0
    9.1798  -18.6959   28.0520 O   0  0  0  0  0  0  0  0  0  0  0  0
   11.5241  -17.6855   25.1239 C   0  0  0  0  0  0  0  0  0  0  0  0
   12.6897  -17.9462   25.8052 O   0  0  0  0  0  0  0  0  0  0  0  0
    8.3588  -20.6184   27.1984 O   0  0  0  0  0  0  0  0  0  0  0  0
   11.6370  -17.4869   23.8705 O   0  0  0  0  0  0  0  0  0  0  0  0
  2  8  1  0
  2  1  1  1
  3  2  1  0
  4  3  1  0
  5  6  1  0
  5  4  1  0
  7  6  1  0
  8  9  2  0
 10  8  1  0
 10 11  1  0
 11 12  1  1
 12 13  1  0
 14 15  2  0
 14 11  1  0
 16 14  1  0
 17 16  1  0
 17 18  1  6
 19 18  1  0
 19 20  2  0
 21 22  1  0
 21 17  1  0
 23 19  1  0
 24 21  2  0
M  END
$$$$
