KCD.pdb
     RDKit          3D

 24 23  0  0  1  0  0  0  0  0999 V2000
    7.3238  -15.6829   19.1532 N   0  0  0  0  0  0  0  0  0  0  0  0
    8.0889  -14.5029   19.3965 C   0  0  1  0  0  0  0  0  0  0  0  0
    7.4065  -13.3051   18.8421 C   0  0  0  0  0  0  0  0  0  0  0  0
    7.9447  -12.8953   17.5223 C   0  0  0  0  0  0  0  0  0  0  0  0
    7.7810  -13.8551   16.3928 C   0  0  0  0  0  0  0  0  0  0  0  0
    8.4072  -13.4028   15.0946 C   0  0  0  0  0  0  0  0  0  0  0  0
    8.2150  -14.4675   14.1240 N   0  0  0  0  0  0  0  0  0  0  0  0
    8.4764  -14.3449   20.8210 C   0  0  0  0  0  0  0  0  0  0  0  0
    9.2591  -13.4186   21.1502 O   0  0  0  0  0  0  0  0  0  0  0  0
    7.9854  -15.2151   21.8280 N   0  0  0  0  0  0  0  0  0  0  0  0
    8.4627  -15.1073   23.2031 C   0  0  1  0  0  0  0  0  0  0  0  0
    7.3684  -14.7252   24.1545 C   0  0  0  0  0  0  0  0  0  0  0  0
    8.0897  -14.7103   25.8235 S   0  0  0  0  0  0  0  0  0  0  0  0
    9.1612  -16.3542   23.6180 C   0  0  0  0  0  0  0  0  0  0  0  0
    8.5388  -17.4446   23.6481 O   0  0  0  0  0  0  0  0  0  0  0  0
   10.5305  -16.3724   23.9902 N   0  0  0  0  0  0  0  0  0  0  0  0
   11.2067  -17.5819   24.4851 C   0  0  1  0  0  0  0  0  0  0  0  0
   12.6571  -17.3859   24.1083 C   0  0  0  0  0  0  0  0  0  0  0  0
   12.8832  -17.2035   22.6670 C   0  0  0  0  0  0  0  0  0  0  0  0
   12.5165  -18.0973   21.8597 O   0  0  0  0  0  0  0  0  0  0  0  0
   11.0395  -17.6879   25.9446 C   0  0  0  0  0  0  0  0  0  0  0  0
   11.3935  -18.7952   26.6789 O   0  0  0  0  0  0  0  0  0  0  0  0
   13.4898  -16.0821   22.1602 O   0  0  0  0  0  0  0  0  0  0  0  0
   10.5403  -16.7149   26.5983 O   0  0  0  0  0  0  0  0  0  0  0  0
  2  8  1  0
  2  1  1  1
  3  2  1  0
  4  3  1  0
  5  6  1  0
  5  4  1  0
  7  6  1  0
  8  9  2  0
 10  8  1  0
 10 11  1  0
 11 12  1  1
 12 13  1  0
 14 15  2  0
 14 11  1  0
 16 14  1  0
 17 16  1  0
 17 18  1  1
 19 18  1  0
 19 20  2  0
 21 22  1  0
 21 17  1  0
 23 19  1  0
 24 21  2  0
M  END
$$$$
