KCD.pdb
     RDKit          3D

 24 23  0  0  1  0  0  0  0  0999 V2000
    9.4196  -18.1705   19.6578 N   0  0  0  0  0  0  0  0  0  0  0  0
    9.0681  -19.3560   20.3704 C   0  0  1  0  0  0  0  0  0  0  0  0
    8.8316  -20.4861   19.4352 C   0  0  0  0  0  0  0  0  0  0  0  0
    9.3286  -20.2129   18.0649 C   0  0  0  0  0  0  0  0  0  0  0  0
    9.1528  -21.2909   17.0496 C   0  0  0  0  0  0  0  0  0  0  0  0
    9.6730  -20.9432   15.6746 C   0  0  0  0  0  0  0  0  0  0  0  0
    9.5666  -22.1379   14.8537 N   0  0  0  0  0  0  0  0  0  0  0  0
   10.0267  -19.6884   21.4544 C   0  0  0  0  0  0  0  0  0  0  0  0
    9.9845  -20.8239   21.9910 O   0  0  0  0  0  0  0  0  0  0  0  0
   10.9954  -18.7550   21.9049 N   0  0  0  0  0  0  0  0  0  0  0  0
   10.8877  -18.1503   23.2289 C   0  0  1  0  0  0  0  0  0  0  0  0
    9.6038  -17.3957   23.4047 C   0  0  0  0  0  0  0  0  0  0  0  0
    9.5220  -16.8741   25.1446 S   0  0  0  0  0  0  0  0  0  0  0  0
   11.0926  -19.1706   24.2927 C   0  0  0  0  0  0  0  0  0  0  0  0
   10.1647  -19.9618   24.5937 O   0  0  0  0  0  0  0  0  0  0  0  0
   12.3155  -19.2973   25.0014 N   0  0  0  0  0  0  0  0  0  0  0  0
   12.5703  -20.3788   25.9660 C   0  0  1  0  0  0  0  0  0  0  0  0
   14.0768  -20.4600   26.0548 C   0  0  0  0  0  0  0  0  0  0  0  0
   14.7297  -20.8810   24.8064 C   0  0  0  0  0  0  0  0  0  0  0  0
   15.8991  -20.4907   24.5513 O   0  0  0  0  0  0  0  0  0  0  0  0
   11.9720  -20.0398   27.2685 C   0  0  0  0  0  0  0  0  0  0  0  0
   11.8172  -20.9376   28.2985 O   0  0  0  0  0  0  0  0  0  0  0  0
   14.1038  -21.6920   23.8939 O   0  0  0  0  0  0  0  0  0  0  0  0
   11.5624  -18.8538   27.4892 O   0  0  0  0  0  0  0  0  0  0  0  0
  2  8  1  0
  2  1  1  6
  3  2  1  0
  4  3  1  0
  5  6  1  0
  5  4  1  0
  7  6  1  0
  8  9  2  0
 10  8  1  0
 10 11  1  0
 11 12  1  1
 12 13  1  0
 14 15  2  0
 14 11  1  0
 16 14  1  0
 17 16  1  0
 17 18  1  1
 19 18  1  0
 19 20  2  0
 21 22  1  0
 21 17  1  0
 23 19  1  0
 24 21  2  0
M  END
$$$$
