KCD.pdb
     RDKit          3D

 24 23  0  0  1  0  0  0  0  0999 V2000
    6.7253  -16.3787   19.5175 N   0  0  0  0  0  0  0  0  0  0  0  0
    7.6931  -15.4110   19.1132 C   0  0  1  0  0  0  0  0  0  0  0  0
    7.0637  -14.3408   18.2970 C   0  0  0  0  0  0  0  0  0  0  0  0
    7.2084  -14.5689   16.8387 C   0  0  0  0  0  0  0  0  0  0  0  0
    8.0651  -13.6112   16.0818 C   0  0  0  0  0  0  0  0  0  0  0  0
    8.0765  -13.8317   14.5874 C   0  0  0  0  0  0  0  0  0  0  0  0
    8.8315  -12.7418   13.9920 N   0  0  0  0  0  0  0  0  0  0  0  0
    8.4956  -14.8834   20.2456 C   0  0  0  0  0  0  0  0  0  0  0  0
    9.0013  -13.7359   20.1639 O   0  0  0  0  0  0  0  0  0  0  0  0
    8.7095  -15.6422   21.4249 N   0  0  0  0  0  0  0  0  0  0  0  0
    9.4314  -15.0709   22.5575 C   0  0  1  0  0  0  0  0  0  0  0  0
    8.5368  -14.2656   23.4519 C   0  0  0  0  0  0  0  0  0  0  0  0
    7.2530  -15.3899   24.0794 S   0  0  0  0  0  0  0  0  0  0  0  0
   10.1681  -16.1288   23.3010 C   0  0  0  0  0  0  0  0  0  0  0  0
    9.5958  -17.2077   23.5935 O   0  0  0  0  0  0  0  0  0  0  0  0
   11.5196  -15.9749   23.7055 N   0  0  0  0  0  0  0  0  0  0  0  0
   12.3018  -17.0667   24.3066 C   0  0  1  0  0  0  0  0  0  0  0  0
   13.7268  -16.5636   24.2932 C   0  0  0  0  0  0  0  0  0  0  0  0
   14.2189  -16.1905   22.9589 C   0  0  0  0  0  0  0  0  0  0  0  0
   13.8181  -16.8228   21.9466 O   0  0  0  0  0  0  0  0  0  0  0  0
   11.8338  -17.3213   25.6797 C   0  0  0  0  0  0  0  0  0  0  0  0
   12.2494  -18.3839   26.4472 O   0  0  0  0  0  0  0  0  0  0  0  0
   15.1133  -15.1673   22.7713 O   0  0  0  0  0  0  0  0  0  0  0  0
   10.9939  -16.5306   26.2207 O   0  0  0  0  0  0  0  0  0  0  0  0
  2  8  1  0
  2  1  1  1
  3  2  1  0
  4  3  1  0
  5  6  1  0
  5  4  1  0
  7  6  1  0
  8  9  2  0
 10  8  1  0
 10 11  1  0
 11 12  1  1
 12 13  1  0
 14 15  2  0
 14 11  1  0
 16 14  1  0
 17 16  1  0
 17 18  1  1
 19 18  1  0
 19 20  2  0
 21 22  1  0
 21 17  1  0
 23 19  1  0
 24 21  2  0
M  END
$$$$
