KCD.pdb
     RDKit          3D

 24 23  0  0  1  0  0  0  0  0999 V2000
    7.6058  -14.7001   18.8001 N   0  0  0  0  0  0  0  0  0  0  0  0
    7.5073  -15.6356   19.8734 C   0  0  1  0  0  0  0  0  0  0  0  0
    7.6731  -17.0274   19.3802 C   0  0  0  0  0  0  0  0  0  0  0  0
    8.5793  -17.1191   18.2098 C   0  0  0  0  0  0  0  0  0  0  0  0
    8.2645  -18.1557   17.1849 C   0  0  0  0  0  0  0  0  0  0  0  0
    9.2563  -18.2295   16.0478 C   0  0  0  0  0  0  0  0  0  0  0  0
    8.7760  -19.2360   15.1156 N   0  0  0  0  0  0  0  0  0  0  0  0
    8.4035  -15.3108   21.0117 C   0  0  0  0  0  0  0  0  0  0  0  0
    9.6355  -15.1689   20.8082 O   0  0  0  0  0  0  0  0  0  0  0  0
    7.9062  -15.1548   22.3310 N   0  0  0  0  0  0  0  0  0  0  0  0
    8.8018  -14.7997   23.4274 C   0  0  1  0  0  0  0  0  0  0  0  0
    8.0772  -14.1308   24.5572 C   0  0  0  0  0  0  0  0  0  0  0  0
    6.6737  -15.1982   25.0010 S   0  0  0  0  0  0  0  0  0  0  0  0
    9.5784  -15.9861   23.8791 C   0  0  0  0  0  0  0  0  0  0  0  0
    9.1224  -17.1426   23.7005 O   0  0  0  0  0  0  0  0  0  0  0  0
   10.8407  -15.8723   24.5173 N   0  0  0  0  0  0  0  0  0  0  0  0
   11.5896  -17.0360   25.0177 C   0  0  1  0  0  0  0  0  0  0  0  0
   13.0405  -16.6263   24.9129 C   0  0  0  0  0  0  0  0  0  0  0  0
   13.5772  -16.6638   23.5445 C   0  0  0  0  0  0  0  0  0  0  0  0
   12.8330  -17.0150   22.5917 O   0  0  0  0  0  0  0  0  0  0  0  0
   11.2086  -17.3148   26.4128 C   0  0  0  0  0  0  0  0  0  0  0  0
   11.5411  -18.4687   27.0828 O   0  0  0  0  0  0  0  0  0  0  0  0
   14.8773  -16.3291   23.2618 O   0  0  0  0  0  0  0  0  0  0  0  0
   10.5304  -16.4586   27.0686 O   0  0  0  0  0  0  0  0  0  0  0  0
  2  8  1  0
  2  1  1  6
  3  2  1  0
  4  3  1  0
  5  6  1  0
  5  4  1  0
  7  6  1  0
  8  9  2  0
 10  8  1  0
 10 11  1  0
 11 12  1  1
 12 13  1  0
 14 15  2  0
 14 11  1  0
 16 14  1  0
 17 16  1  0
 17 18  1  1
 19 18  1  0
 19 20  2  0
 21 22  1  0
 21 17  1  0
 23 19  1  0
 24 21  2  0
M  END
$$$$
