KCD.pdb
     RDKit          3D

 24 23  0  0  1  0  0  0  0  0999 V2000
    6.8454  -17.1631   18.6865 N   0  0  0  0  0  0  0  0  0  0  0  0
    8.2600  -17.0466   18.8348 C   0  0  1  0  0  0  0  0  0  0  0  0
    8.9137  -16.8180   17.5202 C   0  0  0  0  0  0  0  0  0  0  0  0
    8.2403  -17.5349   16.4102 C   0  0  0  0  0  0  0  0  0  0  0  0
    8.7287  -17.2613   15.0279 C   0  0  0  0  0  0  0  0  0  0  0  0
    7.9667  -17.9851   13.9428 C   0  0  0  0  0  0  0  0  0  0  0  0
    8.4701  -17.5089   12.6652 N   0  0  0  0  0  0  0  0  0  0  0  0
    8.6566  -16.0516   19.8629 C   0  0  0  0  0  0  0  0  0  0  0  0
    8.9952  -14.8951   19.5066 O   0  0  0  0  0  0  0  0  0  0  0  0
    8.6644  -16.3707   21.2451 N   0  0  0  0  0  0  0  0  0  0  0  0
    9.4389  -15.5717   22.1896 C   0  0  1  0  0  0  0  0  0  0  0  0
    8.5823  -14.9851   23.2717 C   0  0  0  0  0  0  0  0  0  0  0  0
    7.4372  -16.2888   23.8152 S   0  0  0  0  0  0  0  0  0  0  0  0
   10.5780  -16.3583   22.7359 C   0  0  0  0  0  0  0  0  0  0  0  0
   10.5001  -17.6095   22.8122 O   0  0  0  0  0  0  0  0  0  0  0  0
   11.7782  -15.7492   23.1855 N   0  0  0  0  0  0  0  0  0  0  0  0
   12.9021  -16.5174   23.7441 C   0  0  1  0  0  0  0  0  0  0  0  0
   14.1081  -15.6311   23.5342 C   0  0  0  0  0  0  0  0  0  0  0  0
   15.2873  -16.3365   23.0110 C   0  0  0  0  0  0  0  0  0  0  0  0
   15.2490  -17.5851   22.8542 O   0  0  0  0  0  0  0  0  0  0  0  0
   12.6686  -16.7785   25.1747 C   0  0  0  0  0  0  0  0  0  0  0  0
   11.7110  -16.1377   25.9251 O   0  0  0  0  0  0  0  0  0  0  0  0
   16.4458  -15.6779   22.6851 O   0  0  0  0  0  0  0  0  0  0  0  0
   13.3775  -17.6429   25.7859 O   0  0  0  0  0  0  0  0  0  0  0  0
  2  8  1  0
  2  1  1  6
  3  2  1  0
  4  3  1  0
  5  6  1  0
  5  4  1  0
  7  6  1  0
  8  9  2  0
 10  8  1  0
 10 11  1  0
 11 12  1  1
 12 13  1  0
 14 15  2  0
 14 11  1  0
 16 14  1  0
 17 16  1  0
 17 18  1  1
 19 18  1  0
 19 20  2  0
 21 22  1  0
 21 17  1  0
 23 19  1  0
 24 21  2  0
M  END
$$$$
