WQQ.pdb
     RDKit          3D

 33 34  0  0  1  0  0  0  0  0999 V2000
    6.5212  -17.2544   23.5571 N   0  0  0  0  0  0  0  0  0  0  0  0
    7.7821  -16.5770   23.2587 C   0  0  1  0  0  0  0  0  0  0  0  0
    8.2396  -15.9511   24.5428 C   0  0  0  0  0  0  0  0  0  0  0  0
    7.2470  -15.0667   25.1818 C   0  0  0  0  0  0  0  0  0  0  0  0
    6.1247  -15.4890   25.9011 C   0  0  0  0  0  0  0  0  0  0  0  0
    5.4214  -14.4166   26.3394 N   0  0  0  0  0  0  0  0  0  0  0  0
    6.0616  -13.3011   25.9211 C   0  0  0  0  0  0  0  0  0  0  0  0
    5.8327  -11.9766   26.0546 C   0  0  0  0  0  0  0  0  0  0  0  0
    6.6344  -11.0065   25.5377 C   0  0  0  0  0  0  0  0  0  0  0  0
    7.7727  -11.3889   24.8166 C   0  0  0  0  0  0  0  0  0  0  0  0
    8.0227  -12.7359   24.6684 C   0  0  0  0  0  0  0  0  0  0  0  0
    7.2021  -13.6982   25.1982 C   0  0  0  0  0  0  0  0  0  0  0  0
    8.7846  -17.5730   22.7374 C   0  0  0  0  0  0  0  0  0  0  0  0
    8.3749  -18.6276   22.1935 O   0  0  0  0  0  0  0  0  0  0  0  0
   10.0494  -17.9251   18.3334 N   0  0  0  0  0  0  0  0  0  0  0  0
   11.3655  -17.4576   18.4552 C   0  0  0  0  0  0  0  0  0  0  0  0
   12.1575  -17.7006   17.4655 O   0  0  0  0  0  0  0  0  0  0  0  0
   11.9167  -16.7096   19.6320 C   0  0  0  0  0  0  0  0  0  0  0  0
   10.8056  -16.5097   20.6235 C   0  0  0  0  0  0  0  0  0  0  0  0
   11.1739  -17.3145   21.8791 C   0  0  2  0  0  0  0  0  0  0  0  0
   10.1609  -17.2905   22.8774 N   0  0  0  0  0  0  0  0  0  0  0  0
   12.5365  -17.0311   22.3223 C   0  0  0  0  0  0  0  0  0  0  0  0
   13.5097  -17.0704   21.5712 O   0  0  0  0  0  0  0  0  0  0  0  0
   12.3407  -20.4336   27.5599 N   0  0  0  0  0  0  0  0  0  0  0  0
   13.3934  -19.5082   27.6985 C   0  0  0  0  0  0  0  0  0  0  0  0
   13.8249  -19.2502   28.8609 O   0  0  0  0  0  0  0  0  0  0  0  0
   14.0321  -18.8239   26.5584 C   0  0  0  0  0  0  0  0  0  0  0  0
   13.1810  -18.0311   25.6724 C   0  0  0  0  0  0  0  0  0  0  0  0
   13.8084  -17.4260   24.4678 C   0  0  2  0  0  0  0  0  0  0  0  0
   12.8194  -16.6760   23.6993 N   0  0  0  0  0  0  0  0  0  0  0  0
   14.6814  -18.2849   23.6981 C   0  0  0  0  0  0  0  0  0  0  0  0
   15.9001  -18.1361   23.7061 O   0  0  0  0  0  0  0  0  0  0  0  0
   14.0941  -19.3034   22.9471 O   0  0  0  0  0  0  0  0  0  0  0  0
  2  1  1  1
  2  3  1  0
  3  4  1  0
  4  5  2  0
  5  6  1  0
  7  6  1  0
  8  7  2  0
  9  8  1  0
 10 11  1  0
 10  9  2  0
 11 12  2  0
 12  4  1  0
 12  7  1  0
 13 14  2  0
 13  2  1  0
 15 16  1  0
 16 17  2  0
 18 19  1  0
 18 16  1  0
 20 19  1  6
 20 21  1  0
 21 13  1  0
 22 30  1  0
 22 20  1  0
 23 22  2  0
 24 25  1  0
 25 26  2  0
 27 28  1  0
 27 25  1  0
 29 28  1  1
 29 30  1  0
 29 31  1  0
 31 33  1  0
 32 31  2  0
M  END
$$$$
