WQQ.pdb
     RDKit          3D

 33 34  0  0  1  0  0  0  0  0999 V2000
    6.6643  -18.1461   25.2283 N   0  0  0  0  0  0  0  0  0  0  0  0
    6.9352  -16.8283   24.6555 C   0  0  1  0  0  0  0  0  0  0  0  0
    7.6106  -16.0308   25.7315 C   0  0  0  0  0  0  0  0  0  0  0  0
    6.8256  -14.8861   26.2307 C   0  0  0  0  0  0  0  0  0  0  0  0
    5.5546  -14.9614   26.8088 C   0  0  0  0  0  0  0  0  0  0  0  0
    5.1204  -13.7218   27.1430 N   0  0  0  0  0  0  0  0  0  0  0  0
    6.0824  -12.8371   26.7949 C   0  0  0  0  0  0  0  0  0  0  0  0
    6.2053  -11.4948   26.8831 C   0  0  0  0  0  0  0  0  0  0  0  0
    7.2940  -10.7976   26.4592 C   0  0  0  0  0  0  0  0  0  0  0  0
    8.3633  -11.5014   25.8908 C   0  0  0  0  0  0  0  0  0  0  0  0
    8.2562  -12.8716   25.7910 C   0  0  0  0  0  0  0  0  0  0  0  0
    7.1501  -13.5558   26.2253 C   0  0  0  0  0  0  0  0  0  0  0  0
    7.8100  -16.9722   23.4378 C   0  0  0  0  0  0  0  0  0  0  0  0
    8.5365  -17.9894   23.3218 O   0  0  0  0  0  0  0  0  0  0  0  0
    7.4837  -12.8494   18.3532 N   0  0  0  0  0  0  0  0  0  0  0  0
    8.5178  -13.7711   18.1377 C   0  0  0  0  0  0  0  0  0  0  0  0
    9.0593  -13.7665   16.9662 O   0  0  0  0  0  0  0  0  0  0  0  0
    9.0342  -14.7501   19.1492 C   0  0  0  0  0  0  0  0  0  0  0  0
    8.0895  -14.7601   20.3175 C   0  0  0  0  0  0  0  0  0  0  0  0
    8.5993  -15.8269   21.2984 C   0  0  2  0  0  0  0  0  0  0  0  0
    7.7879  -15.9542   22.4596 N   0  0  0  0  0  0  0  0  0  0  0  0
   10.0397  -15.7175   21.5151 C   0  0  0  0  0  0  0  0  0  0  0  0
   10.6825  -14.7001   21.2612 O   0  0  0  0  0  0  0  0  0  0  0  0
   12.8102  -20.8038   20.2040 N   0  0  0  0  0  0  0  0  0  0  0  0
   13.4560  -19.7992   19.4574 C   0  0  0  0  0  0  0  0  0  0  0  0
   14.4672  -20.1149   18.7635 O   0  0  0  0  0  0  0  0  0  0  0  0
   13.0135  -18.3922   19.4308 C   0  0  0  0  0  0  0  0  0  0  0  0
   11.8477  -18.0265   20.2339 C   0  0  0  0  0  0  0  0  0  0  0  0
   12.0763  -17.2093   21.4550 C   0  0  2  0  0  0  0  0  0  0  0  0
   10.8033  -16.8243   22.0573 N   0  0  0  0  0  0  0  0  0  0  0  0
   13.0637  -16.1576   21.3485 C   0  0  0  0  0  0  0  0  0  0  0  0
   14.0666  -16.1433   22.0565 O   0  0  0  0  0  0  0  0  0  0  0  0
   12.8467  -15.1558   20.4022 O   0  0  0  0  0  0  0  0  0  0  0  0
  2  1  1  1
  2  3  1  0
  3  4  1  0
  4  5  2  0
  5  6  1  0
  7  6  1  0
  8  7  2  0
  9  8  1  0
 10 11  1  0
 10  9  2  0
 11 12  2  0
 12  4  1  0
 12  7  1  0
 13 14  2  0
 13  2  1  0
 15 16  1  0
 16 17  2  0
 18 19  1  0
 18 16  1  0
 20 19  1  1
 20 21  1  0
 21 13  1  0
 22 30  1  0
 22 20  1  0
 23 22  2  0
 24 25  1  0
 25 26  2  0
 27 28  1  0
 27 25  1  0
 29 28  1  6
 29 30  1  0
 29 31  1  0
 31 33  1  0
 32 31  2  0
M  END
$$$$
