WQQ.pdb
     RDKit          3D

 33 34  0  0  1  0  0  0  0  0999 V2000
    6.2692  -18.2522   24.4905 N   0  0  0  0  0  0  0  0  0  0  0  0
    6.6516  -16.8968   24.0975 C   0  0  1  0  0  0  0  0  0  0  0  0
    7.3598  -16.2989   25.2769 C   0  0  0  0  0  0  0  0  0  0  0  0
    6.6233  -15.2111   25.9477 C   0  0  0  0  0  0  0  0  0  0  0  0
    5.4004  -15.3457   26.6124 C   0  0  0  0  0  0  0  0  0  0  0  0
    5.0014  -14.1465   27.1018 N   0  0  0  0  0  0  0  0  0  0  0  0
    5.9393  -13.2300   26.7703 C   0  0  0  0  0  0  0  0  0  0  0  0
    6.0774  -11.9032   26.9827 C   0  0  0  0  0  0  0  0  0  0  0  0
    7.1345  -11.1655   26.5474 C   0  0  0  0  0  0  0  0  0  0  0  0
    8.1520  -11.8074   25.8300 C   0  0  0  0  0  0  0  0  0  0  0  0
    8.0285  -13.1608   25.6021 C   0  0  0  0  0  0  0  0  0  0  0  0
    6.9550  -13.8865   26.0503 C   0  0  0  0  0  0  0  0  0  0  0  0
    7.5411  -16.9501   22.8831 C   0  0  0  0  0  0  0  0  0  0  0  0
    8.2593  -17.9621   22.6936 O   0  0  0  0  0  0  0  0  0  0  0  0
    8.8480  -12.4247   17.1578 N   0  0  0  0  0  0  0  0  0  0  0  0
    8.2636  -13.5449   17.7654 C   0  0  0  0  0  0  0  0  0  0  0  0
    7.0825  -13.8704   17.3594 O   0  0  0  0  0  0  0  0  0  0  0  0
    8.8958  -14.3809   18.8376 C   0  0  0  0  0  0  0  0  0  0  0  0
    7.9468  -14.4491   20.0004 C   0  0  0  0  0  0  0  0  0  0  0  0
    8.4073  -15.6151   20.8884 C   0  0  2  0  0  0  0  0  0  0  0  0
    7.5417  -15.8557   21.9911 N   0  0  0  0  0  0  0  0  0  0  0  0
    9.8360  -15.5390   21.1821 C   0  0  0  0  0  0  0  0  0  0  0  0
   10.6409  -14.9536   20.4594 O   0  0  0  0  0  0  0  0  0  0  0  0
   12.4744  -16.2126   26.9941 N   0  0  0  0  0  0  0  0  0  0  0  0
   11.2960  -15.7010   26.4168 C   0  0  0  0  0  0  0  0  0  0  0  0
   10.4240  -15.1838   27.1757 O   0  0  0  0  0  0  0  0  0  0  0  0
   11.0214  -15.7257   24.9677 C   0  0  0  0  0  0  0  0  0  0  0  0
   12.1132  -16.1019   24.0709 C   0  0  0  0  0  0  0  0  0  0  0  0
   11.8317  -16.1322   22.6112 C   0  0  2  0  0  0  0  0  0  0  0  0
   10.3922  -16.1584   22.3692 N   0  0  0  0  0  0  0  0  0  0  0  0
   12.6172  -17.0579   21.8246 C   0  0  0  0  0  0  0  0  0  0  0  0
   12.0884  -17.8813   21.0833 O   0  0  0  0  0  0  0  0  0  0  0  0
   14.0065  -16.9807   21.9259 O   0  0  0  0  0  0  0  0  0  0  0  0
  2  1  1  1
  2  3  1  0
  3  4  1  0
  4  5  2  0
  5  6  1  0
  7  6  1  0
  8  7  2  0
  9  8  1  0
 10 11  1  0
 10  9  2  0
 11 12  2  0
 12  4  1  0
 12  7  1  0
 13 14  2  0
 13  2  1  0
 15 16  1  0
 16 17  2  0
 18 19  1  0
 18 16  1  0
 20 19  1  1
 20 21  1  0
 21 13  1  0
 22 30  1  0
 22 20  1  0
 23 22  2  0
 24 25  1  0
 25 26  2  0
 27 28  1  0
 27 25  1  0
 29 28  1  1
 29 30  1  0
 29 31  1  0
 31 33  1  0
 32 31  2  0
M  END
$$$$
