WQQ.pdb
     RDKit          3D

 33 34  0  0  1  0  0  0  0  0999 V2000
    6.5440  -17.8049   24.6698 N   0  0  0  0  0  0  0  0  0  0  0  0
    6.9725  -16.6469   23.8865 C   0  0  1  0  0  0  0  0  0  0  0  0
    7.7878  -15.7907   24.8096 C   0  0  0  0  0  0  0  0  0  0  0  0
    6.9954  -14.9669   25.7419 C   0  0  0  0  0  0  0  0  0  0  0  0
    5.9399  -15.4249   26.5367 C   0  0  0  0  0  0  0  0  0  0  0  0
    5.4264  -14.4029   27.2637 N   0  0  0  0  0  0  0  0  0  0  0  0
    6.1252  -13.2854   26.9602 C   0  0  0  0  0  0  0  0  0  0  0  0
    6.0659  -11.9977   27.3638 C   0  0  0  0  0  0  0  0  0  0  0  0
    6.8942  -11.0167   26.9136 C   0  0  0  0  0  0  0  0  0  0  0  0
    7.8751  -11.3462   25.9696 C   0  0  0  0  0  0  0  0  0  0  0  0
    7.9507  -12.6548   25.5444 C   0  0  0  0  0  0  0  0  0  0  0  0
    7.1064  -13.6290   26.0115 C   0  0  0  0  0  0  0  0  0  0  0  0
    7.7762  -17.1050   22.6978 C   0  0  0  0  0  0  0  0  0  0  0  0
    8.3933  -18.1965   22.7592 O   0  0  0  0  0  0  0  0  0  0  0  0
    9.1053  -14.0243   17.1732 N   0  0  0  0  0  0  0  0  0  0  0  0
    8.5043  -13.4697   18.3119 C   0  0  0  0  0  0  0  0  0  0  0  0
    8.3543  -12.1878   18.3181 O   0  0  0  0  0  0  0  0  0  0  0  0
    8.0311  -14.2407   19.5077 C   0  0  0  0  0  0  0  0  0  0  0  0
    8.0358  -15.7015   19.1563 C   0  0  0  0  0  0  0  0  0  0  0  0
    8.5986  -16.4541   20.3715 C   0  0  2  0  0  0  0  0  0  0  0  0
    7.8130  -16.2896   21.5458 N   0  0  0  0  0  0  0  0  0  0  0  0
   10.0381  -16.2518   20.5133 C   0  0  0  0  0  0  0  0  0  0  0  0
   10.7653  -15.9171   19.5795 O   0  0  0  0  0  0  0  0  0  0  0  0
   13.2168  -16.5802   26.1916 N   0  0  0  0  0  0  0  0  0  0  0  0
   11.9156  -16.2387   25.7743 C   0  0  0  0  0  0  0  0  0  0  0  0
   11.0401  -15.9958   26.6563 O   0  0  0  0  0  0  0  0  0  0  0  0
   11.5141  -16.1388   24.3584 C   0  0  0  0  0  0  0  0  0  0  0  0
   12.5533  -16.2867   23.3405 C   0  0  0  0  0  0  0  0  0  0  0  0
   12.1393  -16.2266   21.9137 C   0  0  2  0  0  0  0  0  0  0  0  0
   10.6994  -16.4337   21.7907 N   0  0  0  0  0  0  0  0  0  0  0  0
   12.9610  -16.9588   20.9750 C   0  0  0  0  0  0  0  0  0  0  0  0
   12.4846  -17.8146   20.2348 O   0  0  0  0  0  0  0  0  0  0  0  0
   14.3218  -16.6547   20.9275 O   0  0  0  0  0  0  0  0  0  0  0  0
  2  1  1  1
  2  3  1  0
  3  4  1  0
  4  5  2  0
  5  6  1  0
  7  6  1  0
  8  7  2  0
  9  8  1  0
 10 11  1  0
 10  9  2  0
 11 12  2  0
 12  4  1  0
 12  7  1  0
 13 14  2  0
 13  2  1  0
 15 16  1  0
 16 17  2  0
 18 19  1  0
 18 16  1  0
 20 19  1  6
 20 21  1  0
 21 13  1  0
 22 30  1  0
 22 20  1  0
 23 22  2  0
 24 25  1  0
 25 26  2  0
 27 28  1  0
 27 25  1  0
 29 28  1  1
 29 30  1  0
 29 31  1  0
 31 33  1  0
 32 31  2  0
M  END
$$$$
