WQQ.pdb
     RDKit          3D

 33 34  0  0  1  0  0  0  0  0999 V2000
    8.1327  -16.5502   24.4211 N   0  0  0  0  0  0  0  0  0  0  0  0
    9.4628  -15.9561   24.5472 C   0  0  1  0  0  0  0  0  0  0  0  0
    9.2683  -14.6189   25.1984 C   0  0  0  0  0  0  0  0  0  0  0  0
    7.8663  -14.2908   25.5183 C   0  0  0  0  0  0  0  0  0  0  0  0
    6.8310  -15.2164   25.6821 C   0  0  0  0  0  0  0  0  0  0  0  0
    5.6700  -14.5734   25.9568 N   0  0  0  0  0  0  0  0  0  0  0  0
    5.9255  -13.2453   25.9760 C   0  0  0  0  0  0  0  0  0  0  0  0
    5.1739  -12.1437   26.1908 C   0  0  0  0  0  0  0  0  0  0  0  0
    5.6563  -10.8720   26.1627 C   0  0  0  0  0  0  0  0  0  0  0  0
    7.0167  -10.6750   25.8930 C   0  0  0  0  0  0  0  0  0  0  0  0
    7.7998  -11.7867   25.6699 C   0  0  0  0  0  0  0  0  0  0  0  0
    7.2939  -13.0607   25.7036 C   0  0  0  0  0  0  0  0  0  0  0  0
   10.3456  -16.8541   25.3737 C   0  0  0  0  0  0  0  0  0  0  0  0
   11.5036  -16.4707   25.6704 O   0  0  0  0  0  0  0  0  0  0  0  0
    8.8724  -22.7071   28.1417 N   0  0  0  0  0  0  0  0  0  0  0  0
    9.4343  -22.6898   26.8574 C   0  0  0  0  0  0  0  0  0  0  0  0
    9.5113  -23.8241   26.2465 O   0  0  0  0  0  0  0  0  0  0  0  0
    9.9480  -21.4717   26.1498 C   0  0  0  0  0  0  0  0  0  0  0  0
    9.5763  -20.2645   26.9634 C   0  0  0  0  0  0  0  0  0  0  0  0
   10.5090  -19.1243   26.5275 C   0  0  2  0  0  0  0  0  0  0  0  0
    9.8430  -18.1059   25.7911 N   0  0  0  0  0  0  0  0  0  0  0  0
   11.7558  -19.6327   25.9612 C   0  0  0  0  0  0  0  0  0  0  0  0
   12.4670  -20.4573   26.5330 O   0  0  0  0  0  0  0  0  0  0  0  0
   12.2927  -18.1534   19.7044 N   0  0  0  0  0  0  0  0  0  0  0  0
   13.3709  -18.0731   20.6072 C   0  0  0  0  0  0  0  0  0  0  0  0
   14.5257  -17.8233   20.1517 O   0  0  0  0  0  0  0  0  0  0  0  0
   13.2290  -18.2562   22.0640 C   0  0  0  0  0  0  0  0  0  0  0  0
   13.4373  -19.5972   22.6084 C   0  0  0  0  0  0  0  0  0  0  0  0
   13.4443  -19.7513   24.0873 C   0  0  2  0  0  0  0  0  0  0  0  0
   12.2284  -19.1865   24.6652 N   0  0  0  0  0  0  0  0  0  0  0  0
   14.6772  -19.4105   24.7627 C   0  0  0  0  0  0  0  0  0  0  0  0
   14.7043  -18.5907   25.6762 O   0  0  0  0  0  0  0  0  0  0  0  0
   15.8441  -20.0537   24.3492 O   0  0  0  0  0  0  0  0  0  0  0  0
  2  1  1  1
  2  3  1  0
  3  4  1  0
  4  5  2  0
  5  6  1  0
  7  6  1  0
  8  7  2  0
  9  8  1  0
 10 11  1  0
 10  9  2  0
 11 12  2  0
 12  4  1  0
 12  7  1  0
 13 14  2  0
 13  2  1  0
 15 16  1  0
 16 17  2  0
 18 19  1  0
 18 16  1  0
 20 19  1  6
 20 21  1  0
 21 13  1  0
 22 30  1  0
 22 20  1  0
 23 22  2  0
 24 25  1  0
 25 26  2  0
 27 28  1  0
 27 25  1  0
 29 28  1  6
 29 30  1  0
 29 31  1  0
 31 33  1  0
 32 31  2  0
M  END
$$$$
