WQQ.pdb
     RDKit          3D

 33 34  0  0  1  0  0  0  0  0999 V2000
    8.6317  -17.5256   23.2772 N   0  0  0  0  0  0  0  0  0  0  0  0
    8.0555  -16.9456   24.4894 C   0  0  1  0  0  0  0  0  0  0  0  0
    6.7513  -16.3262   24.0828 C   0  0  0  0  0  0  0  0  0  0  0  0
    6.8288  -14.8887   23.7612 C   0  0  0  0  0  0  0  0  0  0  0  0
    7.0883  -14.3507   22.4969 C   0  0  0  0  0  0  0  0  0  0  0  0
    7.1008  -12.9970   22.5601 N   0  0  0  0  0  0  0  0  0  0  0  0
    6.8545  -12.6388   23.8409 C   0  0  0  0  0  0  0  0  0  0  0  0
    6.7492  -11.4566   24.4856 C   0  0  0  0  0  0  0  0  0  0  0  0
    6.4865  -11.3316   25.8147 C   0  0  0  0  0  0  0  0  0  0  0  0
    6.3137  -12.4934   26.5777 C   0  0  0  0  0  0  0  0  0  0  0  0
    6.4186  -13.7094   25.9381 C   0  0  0  0  0  0  0  0  0  0  0  0
    6.6833  -13.8137   24.5968 C   0  0  0  0  0  0  0  0  0  0  0  0
    7.8612  -18.0209   25.5261 C   0  0  0  0  0  0  0  0  0  0  0  0
    6.6957  -18.3537   25.8529 O   0  0  0  0  0  0  0  0  0  0  0  0
    6.8058  -20.3169   23.0209 N   0  0  0  0  0  0  0  0  0  0  0  0
    6.8439  -21.1282   24.1637 C   0  0  0  0  0  0  0  0  0  0  0  0
    5.7060  -21.4479   24.6819 O   0  0  0  0  0  0  0  0  0  0  0  0
    8.0884  -21.6439   24.8223 C   0  0  0  0  0  0  0  0  0  0  0  0
    9.1707  -20.6160   24.6506 C   0  0  0  0  0  0  0  0  0  0  0  0
    9.4125  -19.9835   26.0296 C   0  0  2  0  0  0  0  0  0  0  0  0
    9.0000  -18.6243   26.1028 N   0  0  0  0  0  0  0  0  0  0  0  0
   10.7465  -20.2912   26.5388 C   0  0  0  0  0  0  0  0  0  0  0  0
   11.0979  -21.4248   26.8618 O   0  0  0  0  0  0  0  0  0  0  0  0
    9.7837  -14.6896   28.0402 N   0  0  0  0  0  0  0  0  0  0  0  0
   10.4919  -15.1746   29.1569 C   0  0  0  0  0  0  0  0  0  0  0  0
   10.4731  -14.4982   30.2273 O   0  0  0  0  0  0  0  0  0  0  0  0
   11.2524  -16.4386   29.1533 C   0  0  0  0  0  0  0  0  0  0  0  0
   11.2386  -17.2418   27.9316 C   0  0  0  0  0  0  0  0  0  0  0  0
   11.9148  -18.5656   27.9650 C   0  0  2  0  0  0  0  0  0  0  0  0
   11.7499  -19.2554   26.6890 N   0  0  0  0  0  0  0  0  0  0  0  0
   11.6937  -19.3702   29.1465 C   0  0  0  0  0  0  0  0  0  0  0  0
   10.5896  -19.8392   29.4076 O   0  0  0  0  0  0  0  0  0  0  0  0
   12.7839  -19.6087   29.9838 O   0  0  0  0  0  0  0  0  0  0  0  0
  2  1  1  6
  2  3  1  0
  3  4  1  0
  4  5  2  0
  5  6  1  0
  7  6  1  0
  8  7  2  0
  9  8  1  0
 10 11  1  0
 10  9  2  0
 11 12  2  0
 12  4  1  0
 12  7  1  0
 13 14  2  0
 13  2  1  0
 15 16  1  0
 16 17  2  0
 18 19  1  0
 18 16  1  0
 20 19  1  6
 20 21  1  0
 21 13  1  0
 22 30  1  0
 22 20  1  0
 23 22  2  0
 24 25  1  0
 25 26  2  0
 27 28  1  0
 27 25  1  0
 29 28  1  6
 29 30  1  0
 29 31  1  0
 31 33  1  0
 32 31  2  0
M  END
$$$$
