WQQ.pdb
     RDKit          3D

 33 34  0  0  1  0  0  0  0  0999 V2000
    6.1000  -17.0363   24.8363 N   0  0  0  0  0  0  0  0  0  0  0  0
    6.9383  -16.1892   23.9892 C   0  0  1  0  0  0  0  0  0  0  0  0
    7.7396  -15.3250   24.9171 C   0  0  0  0  0  0  0  0  0  0  0  0
    6.9346  -14.4368   25.7765 C   0  0  0  0  0  0  0  0  0  0  0  0
    5.7971  -14.8138   26.4971 C   0  0  0  0  0  0  0  0  0  0  0  0
    5.2971  -13.7487   27.1696 N   0  0  0  0  0  0  0  0  0  0  0  0
    6.0852  -12.6823   26.9033 C   0  0  0  0  0  0  0  0  0  0  0  0
    6.0777  -11.3862   27.2834 C   0  0  0  0  0  0  0  0  0  0  0  0
    6.9969  -10.4668   26.8822 C   0  0  0  0  0  0  0  0  0  0  0  0
    8.0216  -10.8736   26.0182 C   0  0  0  0  0  0  0  0  0  0  0  0
    8.0455  -12.1921   25.6182 C   0  0  0  0  0  0  0  0  0  0  0  0
    7.1097  -13.1035   26.0349 C   0  0  0  0  0  0  0  0  0  0  0  0
    7.8239  -17.0492   23.1262 C   0  0  0  0  0  0  0  0  0  0  0  0
    8.6123  -17.8590   23.6727 O   0  0  0  0  0  0  0  0  0  0  0  0
    7.0887  -13.6027   17.9774 N   0  0  0  0  0  0  0  0  0  0  0  0
    8.4657  -13.8079   18.1424 C   0  0  0  0  0  0  0  0  0  0  0  0
    9.2194  -13.4918   17.1436 O   0  0  0  0  0  0  0  0  0  0  0  0
    9.1207  -14.3613   19.3725 C   0  0  0  0  0  0  0  0  0  0  0  0
    8.0537  -14.9652   20.2411 C   0  0  0  0  0  0  0  0  0  0  0  0
    8.6396  -16.2511   20.8438 C   0  0  2  0  0  0  0  0  0  0  0  0
    7.7419  -16.9178   21.7228 N   0  0  0  0  0  0  0  0  0  0  0  0
   10.0020  -16.0481   21.3299 C   0  0  0  0  0  0  0  0  0  0  0  0
   10.3430  -15.0636   21.9835 O   0  0  0  0  0  0  0  0  0  0  0  0
   14.7772  -20.5578   23.9706 N   0  0  0  0  0  0  0  0  0  0  0  0
   13.9409  -19.4557   24.2348 C   0  0  0  0  0  0  0  0  0  0  0  0
   13.2893  -19.4355   25.3204 O   0  0  0  0  0  0  0  0  0  0  0  0
   13.7862  -18.3117   23.3164 C   0  0  0  0  0  0  0  0  0  0  0  0
   12.5074  -18.1582   22.6243 C   0  0  0  0  0  0  0  0  0  0  0  0
   12.3176  -16.9496   21.7793 C   0  0  2  0  0  0  0  0  0  0  0  0
   11.0455  -17.0196   21.0664 N   0  0  0  0  0  0  0  0  0  0  0  0
   13.4563  -16.5316   20.9912 C   0  0  0  0  0  0  0  0  0  0  0  0
   13.4619  -16.6292   19.7674 O   0  0  0  0  0  0  0  0  0  0  0  0
   14.5547  -15.9998   21.6674 O   0  0  0  0  0  0  0  0  0  0  0  0
  2  1  1  1
  2  3  1  0
  3  4  1  0
  4  5  2  0
  5  6  1  0
  7  6  1  0
  8  7  2  0
  9  8  1  0
 10 11  1  0
 10  9  2  0
 11 12  2  0
 12  4  1  0
 12  7  1  0
 13 14  2  0
 13  2  1  0
 15 16  1  0
 16 17  2  0
 18 19  1  0
 18 16  1  0
 20 19  1  1
 20 21  1  0
 21 13  1  0
 22 30  1  0
 22 20  1  0
 23 22  2  0
 24 25  1  0
 25 26  2  0
 27 28  1  0
 27 25  1  0
 29 28  1  6
 29 30  1  0
 29 31  1  0
 31 33  1  0
 32 31  2  0
M  END
$$$$
