YCR.pdb
     RDKit          3D

 30 30  0  0  1  0  0  0  0  0999 V2000
   28.9054  -30.4631  -18.1847 O   0  0  0  0  0  0  0  0  0  0  0  0
   28.2795  -29.3330  -17.7059 C   0  0  0  0  0  0  0  0  0  0  0  0
   27.0029  -29.0182  -18.1660 C   0  0  0  0  0  0  0  0  0  0  0  0
   26.3735  -27.9068  -17.7027 C   0  0  0  0  0  0  0  0  0  0  0  0
   26.9357  -27.0492  -16.7812 C   0  0  0  0  0  0  0  0  0  0  0  0
   26.2694  -25.8525  -16.2822 C   0  0  0  0  0  0  0  0  0  0  0  0
   26.1717  -24.7067  -17.2401 C   0  0  2  0  0  0  0  0  0  0  0  0
   27.4812  -24.0318  -17.1973 N   0  0  0  0  0  0  0  0  0  0  0  0
   25.1794  -23.6700  -16.8105 C   0  0  0  0  0  0  0  0  0  0  0  0
   25.5801  -22.7845  -15.9846 O   0  0  0  0  0  0  0  0  0  0  0  0
   28.1940  -27.3591  -16.3272 C   0  0  0  0  0  0  0  0  0  0  0  0
   28.8646  -28.4871  -16.7802 C   0  0  0  0  0  0  0  0  0  0  0  0
   23.8543  -23.6224  -17.2610 N   0  0  0  0  0  0  0  0  0  0  0  0
   22.9429  -22.5604  -16.7811 C   0  0  1  0  0  0  0  0  0  0  0  0
   22.7245  -21.6332  -17.9641 C   0  0  0  0  0  0  0  0  0  0  0  0
   22.4229  -22.5664  -19.4629 S   0  0  0  0  0  0  0  0  0  0  0  0
   21.7087  -23.1671  -16.2747 C   0  0  0  0  0  0  0  0  0  0  0  0
   21.2995  -24.2408  -16.8366 O   0  0  0  0  0  0  0  0  0  0  0  0
   17.6839  -25.5668   -9.1386 N   0  0  0  0  0  0  0  0  0  0  0  0
   16.7132  -25.2247  -10.1349 C   0  0  0  0  0  0  0  0  0  0  0  0
   15.5831  -25.8315  -10.1525 N   0  0  0  0  0  0  0  0  0  0  0  0
   16.9665  -24.2306  -11.1092 N   0  0  0  0  0  0  0  0  0  0  0  0
   18.3066  -24.1171  -11.7447 C   0  0  0  0  0  0  0  0  0  0  0  0
   18.2142  -22.9675  -12.6639 C   0  0  0  0  0  0  0  0  0  0  0  0
   19.2699  -22.5888  -13.5804 C   0  0  0  0  0  0  0  0  0  0  0  0
   19.6339  -23.3145  -14.8093 C   0  0  2  0  0  0  0  0  0  0  0  0
   20.9358  -22.6698  -15.2217 N   0  0  0  0  0  0  0  0  0  0  0  0
   18.7561  -23.0326  -15.9448 C   0  0  0  0  0  0  0  0  0  0  0  0
   18.8311  -22.0069  -16.6298 O   0  0  0  0  0  0  0  0  0  0  0  0
   17.7643  -23.9430  -16.3138 O   0  0  0  0  0  0  0  0  0  0  0  0
  2 12  2  0
  2  1  1  0
  3  2  1  0
  4  5  1  0
  4  3  2  0
  5 11  2  0
  6  5  1  0
  7  8  1  1
  7  6  1  0
  9  7  1  0
 10  9  2  0
 11 12  1  0
 13  9  1  0
 14 17  1  0
 14 13  1  0
 14 15  1  6
 16 15  1  0
 17 18  2  0
 20 22  1  0
 20 19  1  0
 21 20  2  0
 23 24  1  0
 23 22  1  0
 26 25  1  1
 25 24  1  0
 27 26  1  0
 27 17  1  0
 28 30  1  0
 28 26  1  0
 29 28  2  0
M  END
$$$$
