YCR.pdb
     RDKit          3D

 30 30  0  0  1  0  0  0  0  0999 V2000
   17.7628  -26.4258   -7.2330 O   0  0  0  0  0  0  0  0  0  0  0  0
   17.2418  -26.3883   -5.9582 C   0  0  0  0  0  0  0  0  0  0  0  0
   18.0277  -25.8968   -4.9184 C   0  0  0  0  0  0  0  0  0  0  0  0
   17.5271  -25.8540   -3.6560 C   0  0  0  0  0  0  0  0  0  0  0  0
   16.2558  -26.2783   -3.3329 C   0  0  0  0  0  0  0  0  0  0  0  0
   15.7125  -26.2400   -1.9807 C   0  0  0  0  0  0  0  0  0  0  0  0
   16.5164  -26.9383   -0.9291 C   0  0  2  0  0  0  0  0  0  0  0  0
   16.3014  -28.3799   -1.1474 N   0  0  0  0  0  0  0  0  0  0  0  0
   16.0196  -26.6711    0.4587 C   0  0  0  0  0  0  0  0  0  0  0  0
   15.0732  -27.4080    0.8923 O   0  0  0  0  0  0  0  0  0  0  0  0
   15.4805  -26.7628   -4.3574 C   0  0  0  0  0  0  0  0  0  0  0  0
   15.9617  -26.8201   -5.6584 C   0  0  0  0  0  0  0  0  0  0  0  0
   16.5316  -25.6696    1.2927 N   0  0  0  0  0  0  0  0  0  0  0  0
   15.9876  -25.4866    2.6563 C   0  0  1  0  0  0  0  0  0  0  0  0
   17.1682  -25.6399    3.5997 C   0  0  0  0  0  0  0  0  0  0  0  0
   17.9130  -27.2606    3.4363 S   0  0  0  0  0  0  0  0  0  0  0  0
   15.3278  -24.1812    2.7486 C   0  0  0  0  0  0  0  0  0  0  0  0
   15.4872  -23.3641    1.7776 O   0  0  0  0  0  0  0  0  0  0  0  0
    9.5991  -21.1246   -1.4280 N   0  0  0  0  0  0  0  0  0  0  0  0
   11.0105  -20.9752   -1.2351 C   0  0  0  0  0  0  0  0  0  0  0  0
   11.7700  -20.7700   -2.2485 N   0  0  0  0  0  0  0  0  0  0  0  0
   11.5972  -21.0495    0.0502 N   0  0  0  0  0  0  0  0  0  0  0  0
   10.9427  -21.8252    1.1377 C   0  0  0  0  0  0  0  0  0  0  0  0
   11.8113  -21.6640    2.3187 C   0  0  0  0  0  0  0  0  0  0  0  0
   12.9230  -22.5421    2.6202 C   0  0  0  0  0  0  0  0  0  0  0  0
   13.8103  -22.4243    3.7899 C   0  0  2  0  0  0  0  0  0  0  0  0
   14.5324  -23.7505    3.8141 N   0  0  0  0  0  0  0  0  0  0  0  0
   13.1032  -22.4143    5.0703 C   0  0  0  0  0  0  0  0  0  0  0  0
   12.8027  -21.3814    5.6782 O   0  0  0  0  0  0  0  0  0  0  0  0
   12.7254  -23.6130    5.6777 O   0  0  0  0  0  0  0  0  0  0  0  0
  2 12  2  0
  2  1  1  0
  3  2  1  0
  4  5  1  0
  4  3  2  0
  5 11  2  0
  6  5  1  0
  7  8  1  6
  7  6  1  0
  9  7  1  0
 10  9  2  0
 11 12  1  0
 13  9  1  0
 14 17  1  0
 14 13  1  0
 14 15  1  1
 16 15  1  0
 17 18  2  0
 20 22  1  0
 20 19  1  0
 21 20  2  0
 23 24  1  0
 23 22  1  0
 26 25  1  6
 25 24  1  0
 27 26  1  0
 27 17  1  0
 28 30  1  0
 28 26  1  0
 29 28  2  0
M  END
$$$$
