YCR.pdb
     RDKit          3D

 30 30  0  0  1  0  0  0  0  0999 V2000
   18.0848  -12.7167  -14.5497 O   0  0  0  0  0  0  0  0  0  0  0  0
   17.8376  -14.0487  -14.2996 C   0  0  0  0  0  0  0  0  0  0  0  0
   16.5846  -14.5751  -14.6050 C   0  0  0  0  0  0  0  0  0  0  0  0
   16.3265  -15.8870  -14.3635 C   0  0  0  0  0  0  0  0  0  0  0  0
   17.2529  -16.7516  -13.8206 C   0  0  0  0  0  0  0  0  0  0  0  0
   16.9830  -18.1592  -13.5542 C   0  0  0  0  0  0  0  0  0  0  0  0
   17.7263  -19.1431  -14.4023 C   0  0  2  0  0  0  0  0  0  0  0  0
   17.2107  -18.9663  -15.7716 N   0  0  0  0  0  0  0  0  0  0  0  0
   17.4225  -20.5663  -14.0470 C   0  0  0  0  0  0  0  0  0  0  0  0
   16.4656  -21.1329  -14.6716 O   0  0  0  0  0  0  0  0  0  0  0  0
   18.4884  -16.2334  -13.5194 C   0  0  0  0  0  0  0  0  0  0  0  0
   18.7845  -14.8974  -13.7536 C   0  0  0  0  0  0  0  0  0  0  0  0
   18.1233  -21.2969  -13.0795 N   0  0  0  0  0  0  0  0  0  0  0  0
   17.8143  -22.7267  -12.8584 C   0  0  1  0  0  0  0  0  0  0  0  0
   18.1837  -23.4371  -14.1491 C   0  0  0  0  0  0  0  0  0  0  0  0
   19.9056  -23.1652  -14.5603 S   0  0  0  0  0  0  0  0  0  0  0  0
   18.5528  -23.2116  -11.6891 C   0  0  0  0  0  0  0  0  0  0  0  0
   19.7052  -22.7055  -11.4614 O   0  0  0  0  0  0  0  0  0  0  0  0
   14.0597  -24.4724   -4.9166 N   0  0  0  0  0  0  0  0  0  0  0  0
   14.2141  -23.7713   -6.1561 C   0  0  0  0  0  0  0  0  0  0  0  0
   13.1904  -23.2324   -6.7106 N   0  0  0  0  0  0  0  0  0  0  0  0
   15.4720  -23.6560   -6.7934 N   0  0  0  0  0  0  0  0  0  0  0  0
   16.6810  -24.2904   -6.2031 C   0  0  0  0  0  0  0  0  0  0  0  0
   17.7615  -24.0748   -7.1834 C   0  0  0  0  0  0  0  0  0  0  0  0
   17.7480  -24.6251   -8.5231 C   0  0  0  0  0  0  0  0  0  0  0  0
   18.8336  -24.4948   -9.5099 C   0  0  2  0  0  0  0  0  0  0  0  0
   18.1015  -24.1857  -10.7941 N   0  0  0  0  0  0  0  0  0  0  0  0
   19.5102  -25.7551   -9.8151 C   0  0  0  0  0  0  0  0  0  0  0  0
   19.2622  -26.4410  -10.8126 O   0  0  0  0  0  0  0  0  0  0  0  0
   20.4983  -26.2506   -8.9627 O   0  0  0  0  0  0  0  0  0  0  0  0
  2 12  2  0
  2  1  1  0
  3  2  1  0
  4  5  1  0
  4  3  2  0
  5 11  2  0
  6  5  1  0
  7  8  1  6
  7  6  1  0
  9  7  1  0
 10  9  2  0
 11 12  1  0
 13  9  1  0
 14 17  1  0
 14 13  1  0
 14 15  1  6
 16 15  1  0
 17 18  2  0
 20 22  1  0
 20 19  1  0
 21 20  2  0
 23 24  1  0
 23 22  1  0
 26 25  1  1
 25 24  1  0
 27 26  1  0
 27 17  1  0
 28 30  1  0
 28 26  1  0
 29 28  2  0
M  END
$$$$
