YCR.pdb
     RDKit          3D

 30 30  0  0  1  0  0  0  0  0999 V2000
   28.1323  -14.2792  -17.6408 O   0  0  0  0  0  0  0  0  0  0  0  0
   27.6706  -15.4094  -17.0023 C   0  0  0  0  0  0  0  0  0  0  0  0
   27.8302  -15.5224  -15.6232 C   0  0  0  0  0  0  0  0  0  0  0  0
   27.3799  -16.6314  -14.9802 C   0  0  0  0  0  0  0  0  0  0  0  0
   26.7585  -17.6789  -15.6261 C   0  0  0  0  0  0  0  0  0  0  0  0
   26.2764  -18.8741  -14.9448 C   0  0  0  0  0  0  0  0  0  0  0  0
   27.3269  -19.7730  -14.3718 C   0  0  2  0  0  0  0  0  0  0  0  0
   27.9261  -20.4768  -15.5197 N   0  0  0  0  0  0  0  0  0  0  0  0
   26.7599  -20.8513  -13.5001 C   0  0  0  0  0  0  0  0  0  0  0  0
   26.1920  -21.8343  -14.0815 O   0  0  0  0  0  0  0  0  0  0  0  0
   26.6007  -17.5680  -16.9857 C   0  0  0  0  0  0  0  0  0  0  0  0
   27.0494  -16.4483  -17.6729 C   0  0  0  0  0  0  0  0  0  0  0  0
   26.8194  -20.8374  -12.1011 N   0  0  0  0  0  0  0  0  0  0  0  0
   25.7143  -21.4130  -11.3035 C   0  0  1  0  0  0  0  0  0  0  0  0
   26.0871  -21.1837   -9.8490 C   0  0  0  0  0  0  0  0  0  0  0  0
   24.7234  -21.5990   -8.7646 S   0  0  0  0  0  0  0  0  0  0  0  0
   24.4501  -20.7817  -11.6923 C   0  0  0  0  0  0  0  0  0  0  0  0
   24.4378  -19.5101  -11.8301 O   0  0  0  0  0  0  0  0  0  0  0  0
   18.9765  -22.8193  -18.2015 N   0  0  0  0  0  0  0  0  0  0  0  0
   18.4060  -21.7260  -17.4728 C   0  0  0  0  0  0  0  0  0  0  0  0
   17.3257  -21.1783  -17.8956 N   0  0  0  0  0  0  0  0  0  0  0  0
   19.0042  -21.2269  -16.2919 N   0  0  0  0  0  0  0  0  0  0  0  0
   20.2781  -21.8046  -15.7857 C   0  0  0  0  0  0  0  0  0  0  0  0
   20.5359  -21.1314  -14.4991 C   0  0  0  0  0  0  0  0  0  0  0  0
   21.7206  -21.3624  -13.6984 C   0  0  0  0  0  0  0  0  0  0  0  0
   22.0053  -20.7365  -12.3958 C   0  0  2  0  0  0  0  0  0  0  0  0
   23.2486  -21.4554  -11.9286 N   0  0  0  0  0  0  0  0  0  0  0  0
   21.0294  -21.0631  -11.3565 C   0  0  0  0  0  0  0  0  0  0  0  0
   21.0944  -22.0750  -10.6502 O   0  0  0  0  0  0  0  0  0  0  0  0
   19.9481  -20.2150  -11.1115 O   0  0  0  0  0  0  0  0  0  0  0  0
  2 12  2  0
  2  1  1  0
  3  2  1  0
  4  5  1  0
  4  3  2  0
  5 11  2  0
  6  5  1  0
  7  8  1  6
  7  6  1  0
  9  7  1  0
 10  9  2  0
 11 12  1  0
 13  9  1  0
 14 17  1  0
 14 13  1  0
 14 15  1  1
 16 15  1  0
 17 18  2  0
 20 22  1  0
 20 19  1  0
 21 20  2  0
 23 24  1  0
 23 22  1  0
 26 25  1  6
 25 24  1  0
 27 26  1  0
 27 17  1  0
 28 30  1  0
 28 26  1  0
 29 28  2  0
M  END
$$$$
