YCR.pdb
     RDKit          3D

 30 30  0  0  1  0  0  0  0  0999 V2000
   29.1311  -19.7869   -3.3307 O   0  0  0  0  0  0  0  0  0  0  0  0
   28.6140  -19.7086   -4.6052 C   0  0  0  0  0  0  0  0  0  0  0  0
   27.4874  -20.4618   -4.9277 C   0  0  0  0  0  0  0  0  0  0  0  0
   26.9666  -20.3946   -6.1808 C   0  0  0  0  0  0  0  0  0  0  0  0
   27.4988  -19.6061   -7.1786 C   0  0  0  0  0  0  0  0  0  0  0  0
   26.9491  -19.5314   -8.5267 C   0  0  0  0  0  0  0  0  0  0  0  0
   26.9900  -20.7971   -9.3244 C   0  0  2  0  0  0  0  0  0  0  0  0
   28.4165  -21.0724   -9.5719 N   0  0  0  0  0  0  0  0  0  0  0  0
   26.3749  -20.6511  -10.6825 C   0  0  0  0  0  0  0  0  0  0  0  0
   26.5560  -19.5442  -11.2898 O   0  0  0  0  0  0  0  0  0  0  0  0
   28.6092  -18.8632   -6.8613 C   0  0  0  0  0  0  0  0  0  0  0  0
   29.1661  -18.9090   -5.5905 C   0  0  0  0  0  0  0  0  0  0  0  0
   25.6227  -21.6509  -11.3113 N   0  0  0  0  0  0  0  0  0  0  0  0
   25.0390  -21.4121  -12.6496 C   0  0  1  0  0  0  0  0  0  0  0  0
   25.6492  -22.4610  -13.5632 C   0  0  0  0  0  0  0  0  0  0  0  0
   27.4220  -22.2429  -13.6952 S   0  0  0  0  0  0  0  0  0  0  0  0
   23.5776  -21.4848  -12.5659 C   0  0  0  0  0  0  0  0  0  0  0  0
   23.0616  -21.8105  -11.4418 O   0  0  0  0  0  0  0  0  0  0  0  0
   18.8670  -15.3192  -15.2523 N   0  0  0  0  0  0  0  0  0  0  0  0
   18.3074  -16.5214  -14.7109 C   0  0  0  0  0  0  0  0  0  0  0  0
   17.0457  -16.5884  -14.4884 N   0  0  0  0  0  0  0  0  0  0  0  0
   19.1114  -17.6460  -14.4099 N   0  0  0  0  0  0  0  0  0  0  0  0
   20.5939  -17.5631  -14.5007 C   0  0  0  0  0  0  0  0  0  0  0  0
   21.0699  -18.9589  -14.5099 C   0  0  0  0  0  0  0  0  0  0  0  0
   20.7583  -19.9175  -13.4698 C   0  0  0  0  0  0  0  0  0  0  0  0
   21.1959  -21.3237  -13.4466 C   0  0  2  0  0  0  0  0  0  0  0  0
   22.6933  -21.2251  -13.6167 N   0  0  0  0  0  0  0  0  0  0  0  0
   20.7838  -22.0911  -14.6217 C   0  0  0  0  0  0  0  0  0  0  0  0
   19.6237  -22.4666  -14.8215 O   0  0  0  0  0  0  0  0  0  0  0  0
   21.7168  -22.4415  -15.5990 O   0  0  0  0  0  0  0  0  0  0  0  0
  2 12  2  0
  2  1  1  0
  3  2  1  0
  4  5  1  0
  4  3  2  0
  5 11  2  0
  6  5  1  0
  7  8  1  6
  7  6  1  0
  9  7  1  0
 10  9  2  0
 11 12  1  0
 13  9  1  0
 14 17  1  0
 14 13  1  0
 14 15  1  6
 16 15  1  0
 17 18  2  0
 20 22  1  0
 20 19  1  0
 21 20  2  0
 23 24  1  0
 23 22  1  0
 26 25  1  6
 25 24  1  0
 27 26  1  0
 27 17  1  0
 28 30  1  0
 28 26  1  0
 29 28  2  0
M  END
$$$$
