YCR.pdb
     RDKit          3D

 30 30  0  0  1  0  0  0  0  0999 V2000
   28.9570  -31.2160  -19.4315 O   0  0  0  0  0  0  0  0  0  0  0  0
   28.7712  -29.9713  -18.8709 C   0  0  0  0  0  0  0  0  0  0  0  0
   28.6266  -29.8642  -17.4896 C   0  0  0  0  0  0  0  0  0  0  0  0
   28.4425  -28.6431  -16.9229 C   0  0  0  0  0  0  0  0  0  0  0  0
   28.3887  -27.4733  -17.6502 C   0  0  0  0  0  0  0  0  0  0  0  0
   28.1872  -26.1598  -17.0509 C   0  0  0  0  0  0  0  0  0  0  0  0
   29.3149  -25.1877  -17.2029 C   0  0  2  0  0  0  0  0  0  0  0  0
   30.3507  -25.6182  -16.2469 N   0  0  0  0  0  0  0  0  0  0  0  0
   28.9467  -23.7969  -16.7858 C   0  0  0  0  0  0  0  0  0  0  0  0
   28.9174  -23.5507  -15.5347 O   0  0  0  0  0  0  0  0  0  0  0  0
   28.5314  -27.5781  -19.0119 C   0  0  0  0  0  0  0  0  0  0  0  0
   28.7209  -28.8105  -19.6224 C   0  0  0  0  0  0  0  0  0  0  0  0
   28.6374  -22.7678  -17.6836 N   0  0  0  0  0  0  0  0  0  0  0  0
   28.2852  -21.4219  -17.1803 C   0  0  1  0  0  0  0  0  0  0  0  0
   28.9899  -20.4369  -18.0969 C   0  0  0  0  0  0  0  0  0  0  0  0
   28.5149  -18.7528  -17.7145 S   0  0  0  0  0  0  0  0  0  0  0  0
   26.8275  -21.2711  -17.1658 C   0  0  0  0  0  0  0  0  0  0  0  0
   26.1729  -21.7208  -18.1684 O   0  0  0  0  0  0  0  0  0  0  0  0
   20.7020  -20.8209  -10.5665 N   0  0  0  0  0  0  0  0  0  0  0  0
   20.0942  -20.8635  -11.8628 C   0  0  0  0  0  0  0  0  0  0  0  0
   18.8406  -21.1157  -11.9664 N   0  0  0  0  0  0  0  0  0  0  0  0
   20.8416  -20.6355  -13.0422 N   0  0  0  0  0  0  0  0  0  0  0  0
   22.3274  -20.7029  -13.0221 C   0  0  0  0  0  0  0  0  0  0  0  0
   22.7528  -20.5107  -14.4211 C   0  0  0  0  0  0  0  0  0  0  0  0
   24.1286  -20.6173  -14.8610 C   0  0  0  0  0  0  0  0  0  0  0  0
   24.5943  -20.4659  -16.2501 C   0  0  2  0  0  0  0  0  0  0  0  0
   26.0860  -20.6750  -16.1419 N   0  0  0  0  0  0  0  0  0  0  0  0
   24.4925  -19.0998  -16.7626 C   0  0  0  0  0  0  0  0  0  0  0  0
   25.3616  -18.2381  -16.5918 O   0  0  0  0  0  0  0  0  0  0  0  0
   23.3709  -18.7007  -17.4915 O   0  0  0  0  0  0  0  0  0  0  0  0
  2 12  2  0
  2  1  1  0
  3  2  1  0
  4  5  1  0
  4  3  2  0
  5 11  2  0
  6  5  1  0
  7  8  1  1
  7  6  1  0
  9  7  1  0
 10  9  2  0
 11 12  1  0
 13  9  1  0
 14 17  1  0
 14 13  1  0
 14 15  1  6
 16 15  1  0
 17 18  2  0
 20 22  1  0
 20 19  1  0
 21 20  2  0
 23 24  1  0
 23 22  1  0
 26 25  1  1
 25 24  1  0
 27 26  1  0
 27 17  1  0
 28 30  1  0
 28 26  1  0
 29 28  2  0
M  END
$$$$
