YCR.pdb
     RDKit          3D

 30 30  0  0  1  0  0  0  0  0999 V2000
808773.2500755242.18751563106.2500 O   0  0  0  0  0  0  0  0  0  0  0  0
808773.0625755242.75001563104.7500 C   0  0  0  0  0  0  0  0  0  0  0  0
808772.6250755243.75001563104.6250 C   0  0  0  0  0  0  0  0  0  0  0  0
808773.1250755244.06251563104.0000 C   0  0  0  0  0  0  0  0  0  0  0  0
808773.0625755243.56251563102.5000 C   0  0  0  0  0  0  0  0  0  0  0  0
808772.6250755244.06251563100.8750 C   0  0  0  0  0  0  0  0  0  0  0  0
808773.3125755243.18751563099.7500 C   0  0  2  0  0  0  0  0  0  0  0  0
808773.5000755243.87501563098.3750 N   0  0  0  0  0  0  0  0  0  0  0  0
808773.0625755241.81251563099.8750 C   0  0  0  0  0  0  0  0  0  0  0  0
808772.6875755241.50001563098.5000 O   0  0  0  0  0  0  0  0  0  0  0  0
808772.8125755242.25001563102.2500 C   0  0  0  0  0  0  0  0  0  0  0  0
808773.2500755241.81251563104.2500 C   0  0  0  0  0  0  0  0  0  0  0  0
808773.0625755240.93751563100.3750 N   0  0  0  0  0  0  0  0  0  0  0  0
808774.3750755239.75001563100.2500 C   0  0  1  0  0  0  0  0  0  0  0  0
808774.3125755239.50001563098.8750 C   0  0  0  0  0  0  0  0  0  0  0  0
808775.6875755240.18751563097.7500 S   0  0  0  0  0  0  0  0  0  0  0  0
808775.3750755240.25001563100.5000 C   0  0  0  0  0  0  0  0  0  0  0  0
808775.1250755241.31251563101.3750 O   0  0  0  0  0  0  0  0  0  0  0  0
808781.9375755244.00001563103.8750 N   0  0  0  0  0  0  0  0  0  0  0  0
808780.6875755243.62501563104.0000 C   0  0  0  0  0  0  0  0  0  0  0  0
808781.2500755242.68751563105.1250 N   0  0  0  0  0  0  0  0  0  0  0  0
808779.5625755243.50001563103.7500 N   0  0  0  0  0  0  0  0  0  0  0  0
808778.1875755242.81251563104.1250 C   0  0  0  0  0  0  0  0  0  0  0  0
808778.8125755241.81251563103.6250 C   0  0  0  0  0  0  0  0  0  0  0  0
808778.0000755241.06251563102.5000 C   0  0  0  0  0  0  0  0  0  0  0  0
808777.7500755241.25001563101.0000 C   0  0  2  0  0  0  0  0  0  0  0  0
808776.6250755240.00001563100.5000 N   0  0  0  0  0  0  0  0  0  0  0  0
808779.0625755240.68751563100.3750 C   0  0  0  0  0  0  0  0  0  0  0  0
808780.1250755240.56251563100.5000 O   0  0  0  0  0  0  0  0  0  0  0  0
808778.5000755240.37501563099.1250 O   0  0  0  0  0  0  0  0  0  0  0  0
  2 12  2  0
  2  1  1  0
  3  2  1  0
  4  5  1  0
  4  3  2  0
  5 11  2  0
  6  5  1  0
  7  8  1  6
  7  6  1  0
  9  7  1  0
 10  9  2  0
 11 12  1  0
 13  9  1  0
 14 17  1  0
 14 13  1  0
 14 15  1  6
 16 15  1  0
 17 18  2  0
 20 22  1  0
 20 19  1  0
 21 20  2  0
 23 24  1  0
 23 22  1  0
 26 25  1  1
 25 24  1  0
 27 26  1  0
 27 17  1  0
 28 30  1  0
 28 26  1  0
 29 28  2  0
M  END
$$$$
