YCR.pdb
     RDKit          3D

 30 30  0  0  1  0  0  0  0  0999 V2000
   22.7461  -15.1712  -20.7111 O   0  0  0  0  0  0  0  0  0  0  0  0
   22.4203  -14.1860  -19.8048 C   0  0  0  0  0  0  0  0  0  0  0  0
   21.8466  -14.5466  -18.5878 C   0  0  0  0  0  0  0  0  0  0  0  0
   21.5200  -13.5857  -17.6845 C   0  0  0  0  0  0  0  0  0  0  0  0
   21.7271  -12.2406  -17.9045 C   0  0  0  0  0  0  0  0  0  0  0  0
   21.3757  -11.2029  -16.9429 C   0  0  0  0  0  0  0  0  0  0  0  0
   22.4957  -10.3192  -16.4906 C   0  0  2  0  0  0  0  0  0  0  0  0
   23.3553  -11.1606  -15.6391 N   0  0  0  0  0  0  0  0  0  0  0  0
   22.0361   -9.2017  -15.6052 C   0  0  0  0  0  0  0  0  0  0  0  0
   21.6000   -9.5147  -14.4482 O   0  0  0  0  0  0  0  0  0  0  0  0
   22.2927  -11.8844  -19.1040 C   0  0  0  0  0  0  0  0  0  0  0  0
   22.6381  -12.8414  -20.0486 C   0  0  0  0  0  0  0  0  0  0  0  0
   22.0596   -7.8513  -15.9751 N   0  0  0  0  0  0  0  0  0  0  0  0
   21.4790   -6.8248  -15.0818 C   0  0  1  0  0  0  0  0  0  0  0  0
   22.4981   -5.7001  -15.0222 C   0  0  0  0  0  0  0  0  0  0  0  0
   21.9020   -4.3479  -14.0102 S   0  0  0  0  0  0  0  0  0  0  0  0
   20.1733   -6.4073  -15.6000 C   0  0  0  0  0  0  0  0  0  0  0  0
   20.0304   -6.3413  -16.8693 O   0  0  0  0  0  0  0  0  0  0  0  0
   13.3199  -10.4465  -14.7411 N   0  0  0  0  0  0  0  0  0  0  0  0
   14.4429  -10.2415  -15.6062 C   0  0  0  0  0  0  0  0  0  0  0  0
   14.9128  -11.2280  -16.2784 N   0  0  0  0  0  0  0  0  0  0  0  0
   15.0557   -8.9735  -15.7413 N   0  0  0  0  0  0  0  0  0  0  0  0
   14.4953   -7.7837  -15.0463 C   0  0  0  0  0  0  0  0  0  0  0  0
   15.4005   -6.6674  -15.3774 C   0  0  0  0  0  0  0  0  0  0  0  0
   16.8275   -6.6942  -15.1309 C   0  0  0  0  0  0  0  0  0  0  0  0
   17.7661   -5.6001  -15.4330 C   0  0  2  0  0  0  0  0  0  0  0  0
   19.0623   -6.0742  -14.8200 N   0  0  0  0  0  0  0  0  0  0  0  0
   17.4908   -4.3649  -14.6995 C   0  0  0  0  0  0  0  0  0  0  0  0
   18.2697   -3.8681  -13.8789 O   0  0  0  0  0  0  0  0  0  0  0  0
   16.2959   -3.6731  -14.9047 O   0  0  0  0  0  0  0  0  0  0  0  0
  2 12  2  0
  2  1  1  0
  3  2  1  0
  4  5  1  0
  4  3  2  0
  5 11  2  0
  6  5  1  0
  7  8  1  1
  7  6  1  0
  9  7  1  0
 10  9  2  0
 11 12  1  0
 13  9  1  0
 14 17  1  0
 14 13  1  0
 14 15  1  6
 16 15  1  0
 17 18  2  0
 20 22  1  0
 20 19  1  0
 21 20  2  0
 23 24  1  0
 23 22  1  0
 26 25  1  1
 25 24  1  0
 27 26  1  0
 27 17  1  0
 28 30  1  0
 28 26  1  0
 29 28  2  0
M  END
$$$$
