DCI.pdb
     RDKit          3D

 23 22  0  0  1  0  0  0  0  0999 V2000
    8.3790  -19.5546   20.4946 N   0  0  0  0  0  0  0  0  0  0  0  0
    7.6801  -18.5721   21.2977 C   0  0  1  0  0  0  0  0  0  0  0  0
    7.7525  -18.8847   22.7767 C   0  0  0  0  0  0  0  0  0  0  0  0
    7.1172  -20.1822   23.0721 C   0  0  0  0  0  0  0  0  0  0  0  0
    5.8627  -20.2777   23.1663 O   0  0  0  0  0  0  0  0  0  0  0  0
    8.2978  -17.2315   21.1074 C   0  0  0  0  0  0  0  0  0  0  0  0
    9.5196  -17.1398   20.9437 O   0  0  0  0  0  0  0  0  0  0  0  0
    7.8809  -21.3176   23.2515 O   0  0  0  0  0  0  0  0  0  0  0  0
    7.5303  -16.0428   21.1066 N   0  0  0  0  0  0  0  0  0  0  0  0
    8.0867  -14.7243   20.9807 C   0  0  1  0  0  0  0  0  0  0  0  0
    7.1024  -13.7235   20.4235 C   0  0  0  0  0  0  0  0  0  0  0  0
    7.8636  -12.0783   20.3480 S   0  0  0  0  0  0  0  0  0  0  0  0
    8.6086  -14.3099   22.3041 C   0  0  0  0  0  0  0  0  0  0  0  0
    9.4067  -13.3494   22.3567 O   0  0  0  0  0  0  0  0  0  0  0  0
    7.0268  -11.5996   27.0242 C   0  0  0  0  0  0  0  0  0  0  0  0
    7.9031  -12.7520   26.6393 C   0  0  0  0  0  0  0  0  0  0  0  0
    7.5500  -13.3486   25.2913 C   0  0  2  0  0  0  0  0  0  0  0  0
    6.2152  -14.0404   25.5065 C   0  0  0  0  0  0  0  0  0  0  0  0
    8.5192  -14.3918   24.8467 C   0  0  2  0  0  0  0  0  0  0  0  0
    8.2701  -14.9235   23.5263 N   0  0  0  0  0  0  0  0  0  0  0  0
    8.5498  -15.4714   25.8566 C   0  0  0  0  0  0  0  0  0  0  0  0
    9.1184  -15.2618   27.0816 O   0  0  0  0  0  0  0  0  0  0  0  0
    8.0495  -16.5754   25.5730 O   0  0  0  0  0  0  0  0  0  0  0  0
  2  1  1  6
  3  4  1  0
  3  2  1  0
  4  8  1  0
  5  4  2  0
  6  2  1  0
  6  9  1  0
  7  6  2  0
 10 11  1  1
 10  9  1  0
 10 13  1  0
 12 11  1  0
 13 20  1  0
 14 13  2  0
 16 15  1  0
 17 18  1  1
 17 16  1  0
 19 17  1  0
 19 20  1  6
 21 22  1  0
 21 19  1  0
 23 21  2  0
M  END
$$$$
