DCI.pdb
     RDKit          3D

 23 22  0  0  1  0  0  0  0  0999 V2000
   10.8538  -18.9116   21.5975 N   0  0  0  0  0  0  0  0  0  0  0  0
   10.9942  -17.4849   21.3896 C   0  0  1  0  0  0  0  0  0  0  0  0
   10.9091  -17.1080   19.9263 C   0  0  0  0  0  0  0  0  0  0  0  0
   12.0574  -17.6490   19.1760 C   0  0  0  0  0  0  0  0  0  0  0  0
   13.1494  -17.8932   19.7587 O   0  0  0  0  0  0  0  0  0  0  0  0
    9.8966  -16.7617   22.0878 C   0  0  0  0  0  0  0  0  0  0  0  0
    9.7877  -15.5380   21.9509 O   0  0  0  0  0  0  0  0  0  0  0  0
   11.9614  -17.8992   17.8221 O   0  0  0  0  0  0  0  0  0  0  0  0
    8.9611  -17.4298   22.9128 N   0  0  0  0  0  0  0  0  0  0  0  0
    7.8557  -16.7839   23.5645 C   0  0  1  0  0  0  0  0  0  0  0  0
    6.9843  -17.7480   24.3341 C   0  0  0  0  0  0  0  0  0  0  0  0
    5.8817  -16.8357   25.4492 S   0  0  0  0  0  0  0  0  0  0  0  0
    8.3894  -15.7071   24.4312 C   0  0  0  0  0  0  0  0  0  0  0  0
    8.4188  -14.5404   23.9838 O   0  0  0  0  0  0  0  0  0  0  0  0
    6.6479  -12.0975   26.3556 C   0  0  0  0  0  0  0  0  0  0  0  0
    7.7610  -13.0155   25.9525 C   0  0  0  0  0  0  0  0  0  0  0  0
    8.2268  -13.9209   27.0755 C   0  0  2  0  0  0  0  0  0  0  0  0
    8.8316  -12.9855   28.1078 C   0  0  0  0  0  0  0  0  0  0  0  0
    9.3028  -14.8636   26.6525 C   0  0  2  0  0  0  0  0  0  0  0  0
    8.8737  -15.8989   25.7403 N   0  0  0  0  0  0  0  0  0  0  0  0
    9.9252  -15.4453   27.8609 C   0  0  0  0  0  0  0  0  0  0  0  0
   10.7473  -14.6918   28.6511 O   0  0  0  0  0  0  0  0  0  0  0  0
    9.6889  -16.6334   28.1472 O   0  0  0  0  0  0  0  0  0  0  0  0
  2  1  1  6
  3  4  1  0
  3  2  1  0
  4  8  1  0
  5  4  2  0
  6  2  1  0
  6  9  1  0
  7  6  2  0
 10 11  1  1
 10  9  1  0
 10 13  1  0
 12 11  1  0
 13 20  1  0
 14 13  2  0
 16 15  1  0
 17 18  1  1
 17 16  1  0
 19 17  1  0
 19 20  1  6
 21 22  1  0
 21 19  1  0
 23 21  2  0
M  END
$$$$
