DCI.pdb
     RDKit          3D

 23 22  0  0  1  0  0  0  0  0999 V2000
   11.4716  -18.5150   19.6053 N   0  0  0  0  0  0  0  0  0  0  0  0
   11.7211  -17.6613   20.7487 C   0  0  1  0  0  0  0  0  0  0  0  0
   12.7095  -16.5588   20.4358 C   0  0  0  0  0  0  0  0  0  0  0  0
   14.0484  -16.8884   20.9583 C   0  0  0  0  0  0  0  0  0  0  0  0
   14.6205  -17.9637   20.6298 O   0  0  0  0  0  0  0  0  0  0  0  0
   10.4561  -17.0017   21.1728 C   0  0  0  0  0  0  0  0  0  0  0  0
    9.6059  -16.7088   20.3247 O   0  0  0  0  0  0  0  0  0  0  0  0
   14.7026  -16.0283   21.8167 O   0  0  0  0  0  0  0  0  0  0  0  0
   10.1861  -16.6931   22.5271 N   0  0  0  0  0  0  0  0  0  0  0  0
    8.8838  -16.3584   23.0331 C   0  0  1  0  0  0  0  0  0  0  0  0
    7.8839  -17.4775   22.8639 C   0  0  0  0  0  0  0  0  0  0  0  0
    8.2018  -18.7850   24.0810 S   0  0  0  0  0  0  0  0  0  0  0  0
    9.0247  -15.9513   24.4509 C   0  0  0  0  0  0  0  0  0  0  0  0
    9.9907  -16.3973   25.1067 O   0  0  0  0  0  0  0  0  0  0  0  0
    5.8069  -11.5954   25.9020 C   0  0  0  0  0  0  0  0  0  0  0  0
    6.9913  -12.4596   25.5945 C   0  0  0  0  0  0  0  0  0  0  0  0
    7.3784  -13.3745   26.7394 C   0  0  2  0  0  0  0  0  0  0  0  0
    8.0040  -12.4597   27.7778 C   0  0  0  0  0  0  0  0  0  0  0  0
    8.4141  -14.3773   26.3560 C   0  0  2  0  0  0  0  0  0  0  0  0
    8.1410  -15.0874   25.1274 N   0  0  0  0  0  0  0  0  0  0  0  0
    8.6032  -15.3172   27.4816 C   0  0  0  0  0  0  0  0  0  0  0  0
    9.5765  -15.0970   28.4155 O   0  0  0  0  0  0  0  0  0  0  0  0
    7.8617  -16.3135   27.5649 O   0  0  0  0  0  0  0  0  0  0  0  0
  2  1  1  6
  3  4  1  0
  3  2  1  0
  4  8  1  0
  5  4  2  0
  6  2  1  0
  6  9  1  0
  7  6  2  0
 10 11  1  1
 10  9  1  0
 10 13  1  0
 12 11  1  0
 13 20  1  0
 14 13  2  0
 16 15  1  0
 17 18  1  1
 17 16  1  0
 19 17  1  0
 19 20  1  6
 21 22  1  0
 21 19  1  0
 23 21  2  0
M  END
$$$$
