DCI.pdb
     RDKit          3D

 23 22  0  0  1  0  0  0  0  0999 V2000
    8.4632  -17.6387   18.5846 N   0  0  0  0  0  0  0  0  0  0  0  0
    9.1930  -17.6885   19.8349 C   0  0  1  0  0  0  0  0  0  0  0  0
   10.3989  -16.7740   19.8313 C   0  0  0  0  0  0  0  0  0  0  0  0
   11.5559  -17.4312   19.1959 C   0  0  0  0  0  0  0  0  0  0  0  0
   11.4713  -18.6179   18.7760 O   0  0  0  0  0  0  0  0  0  0  0  0
    8.3150  -17.2433   20.9512 C   0  0  0  0  0  0  0  0  0  0  0  0
    7.5399  -16.2961   20.7780 O   0  0  0  0  0  0  0  0  0  0  0  0
   12.7540  -16.7625   19.0476 O   0  0  0  0  0  0  0  0  0  0  0  0
    8.3338  -17.8709   22.2192 N   0  0  0  0  0  0  0  0  0  0  0  0
    7.4916  -17.4905   23.3192 C   0  0  1  0  0  0  0  0  0  0  0  0
    6.9217  -18.6776   24.0588 C   0  0  0  0  0  0  0  0  0  0  0  0
    6.0438  -18.1210   25.5458 S   0  0  0  0  0  0  0  0  0  0  0  0
    8.2671  -16.6004   24.2146 C   0  0  0  0  0  0  0  0  0  0  0  0
    9.5002  -16.7797   24.3123 O   0  0  0  0  0  0  0  0  0  0  0  0
    5.7764  -11.9567   26.2190 C   0  0  0  0  0  0  0  0  0  0  0  0
    6.8904  -12.7434   25.5992 C   0  0  0  0  0  0  0  0  0  0  0  0
    7.5838  -13.6717   26.5766 C   0  0  2  0  0  0  0  0  0  0  0  0
    8.5198  -12.7769   27.3702 C   0  0  0  0  0  0  0  0  0  0  0  0
    8.4267  -14.7007   25.9013 C   0  0  2  0  0  0  0  0  0  0  0  0
    7.7143  -15.5518   24.9760 N   0  0  0  0  0  0  0  0  0  0  0  0
    9.1167  -15.5011   26.9354 C   0  0  0  0  0  0  0  0  0  0  0  0
    8.6074  -16.7035   27.3388 O   0  0  0  0  0  0  0  0  0  0  0  0
   10.1694  -15.0619   27.4336 O   0  0  0  0  0  0  0  0  0  0  0  0
  2  1  1  6
  3  4  1  0
  3  2  1  0
  4  8  1  0
  5  4  2  0
  6  2  1  0
  6  9  1  0
  7  6  2  0
 10 11  1  1
 10  9  1  0
 10 13  1  0
 12 11  1  0
 13 20  1  0
 14 13  2  0
 16 15  1  0
 17 18  1  1
 17 16  1  0
 19 17  1  0
 19 20  1  1
 21 22  1  0
 21 19  1  0
 23 21  2  0
M  END
$$$$
