DCI.pdb
     RDKit          3D

 23 22  0  0  1  0  0  0  0  0999 V2000
    9.1577  -15.2573   19.4215 N   0  0  0  0  0  0  0  0  0  0  0  0
    9.2165  -16.2478   20.4769 C   0  0  1  0  0  0  0  0  0  0  0  0
   10.5083  -17.0357   20.4519 C   0  0  0  0  0  0  0  0  0  0  0  0
   10.4395  -18.1281   19.4638 C   0  0  0  0  0  0  0  0  0  0  0  0
    9.3830  -18.8032   19.3235 O   0  0  0  0  0  0  0  0  0  0  0  0
    9.1432  -15.5778   21.8039 C   0  0  0  0  0  0  0  0  0  0  0  0
    9.8148  -14.5612   22.0126 O   0  0  0  0  0  0  0  0  0  0  0  0
   11.5282  -18.4341   18.6728 O   0  0  0  0  0  0  0  0  0  0  0  0
    8.3238  -16.0661   22.8489 N   0  0  0  0  0  0  0  0  0  0  0  0
    8.1339  -15.3949   24.1049 C   0  0  1  0  0  0  0  0  0  0  0  0
    6.7167  -15.4987   24.6165 C   0  0  0  0  0  0  0  0  0  0  0  0
    6.3956  -14.1876   25.8288 S   0  0  0  0  0  0  0  0  0  0  0  0
    9.1142  -15.9354   25.0757 C   0  0  0  0  0  0  0  0  0  0  0  0
    9.7436  -16.9721   24.7737 O   0  0  0  0  0  0  0  0  0  0  0  0
   10.0067  -12.7786   29.4648 C   0  0  0  0  0  0  0  0  0  0  0  0
   10.5985  -13.6410   28.3923 C   0  0  0  0  0  0  0  0  0  0  0  0
   10.3417  -15.1199   28.6035 C   0  0  2  0  0  0  0  0  0  0  0  0
   11.5420  -15.6178   29.3894 C   0  0  0  0  0  0  0  0  0  0  0  0
   10.3021  -15.8901   27.3265 C   0  0  2  0  0  0  0  0  0  0  0  0
    9.3963  -15.3629   26.3317 N   0  0  0  0  0  0  0  0  0  0  0  0
    9.9893  -17.3020   27.6342 C   0  0  0  0  0  0  0  0  0  0  0  0
   10.9866  -18.1834   27.9452 O   0  0  0  0  0  0  0  0  0  0  0  0
    8.8024  -17.6758   27.6050 O   0  0  0  0  0  0  0  0  0  0  0  0
  2  1  1  6
  3  4  1  0
  3  2  1  0
  4  8  1  0
  5  4  2  0
  6  2  1  0
  6  9  1  0
  7  6  2  0
 10 11  1  1
 10  9  1  0
 10 13  1  0
 12 11  1  0
 13 20  1  0
 14 13  2  0
 16 15  1  0
 17 18  1  1
 17 16  1  0
 19 17  1  0
 19 20  1  6
 21 22  1  0
 21 19  1  0
 23 21  2  0
M  END
$$$$
