DCI.pdb
     RDKit          3D

 23 22  0  0  1  0  0  0  0  0999 V2000
    6.9584  -17.1053   19.4583 N   0  0  0  0  0  0  0  0  0  0  0  0
    6.1163  -17.2368   20.6296 C   0  0  1  0  0  0  0  0  0  0  0  0
    5.2849  -18.5009   20.5987 C   0  0  0  0  0  0  0  0  0  0  0  0
    5.4303  -19.1949   19.3058 C   0  0  0  0  0  0  0  0  0  0  0  0
    6.5242  -19.7353   18.9850 O   0  0  0  0  0  0  0  0  0  0  0  0
    6.9598  -17.3028   21.8541 C   0  0  0  0  0  0  0  0  0  0  0  0
    6.4244  -17.4635   22.9565 O   0  0  0  0  0  0  0  0  0  0  0  0
    4.3737  -19.2676   18.4209 O   0  0  0  0  0  0  0  0  0  0  0  0
    8.3692  -17.1871   21.8038 N   0  0  0  0  0  0  0  0  0  0  0  0
    9.2214  -17.2106   22.9601 C   0  0  1  0  0  0  0  0  0  0  0  0
   10.6501  -17.5706   22.6279 C   0  0  0  0  0  0  0  0  0  0  0  0
   11.6806  -17.4647   24.1174 S   0  0  0  0  0  0  0  0  0  0  0  0
    9.1247  -15.8966   23.6379 C   0  0  0  0  0  0  0  0  0  0  0  0
    9.3777  -14.8652   22.9789 O   0  0  0  0  0  0  0  0  0  0  0  0
    6.1558  -11.6637   26.2267 C   0  0  0  0  0  0  0  0  0  0  0  0
    7.4751  -12.3709   26.2859 C   0  0  0  0  0  0  0  0  0  0  0  0
    7.5178  -13.6301   25.4431 C   0  0  2  0  0  0  0  0  0  0  0  0
    6.3143  -14.4416   25.8897 C   0  0  0  0  0  0  0  0  0  0  0  0
    8.7292  -14.4611   25.7025 C   0  0  2  0  0  0  0  0  0  0  0  0
    8.7641  -15.7166   24.9879 N   0  0  0  0  0  0  0  0  0  0  0  0
    8.8529  -14.6763   27.1601 C   0  0  0  0  0  0  0  0  0  0  0  0
    9.2151  -13.6497   27.9864 O   0  0  0  0  0  0  0  0  0  0  0  0
    8.6223  -15.8085   27.6232 O   0  0  0  0  0  0  0  0  0  0  0  0
  2  1  1  6
  3  4  1  0
  3  2  1  0
  4  8  1  0
  5  4  2  0
  6  2  1  0
  6  9  1  0
  7  6  2  0
 10 11  1  6
 10  9  1  0
 10 13  1  0
 12 11  1  0
 13 20  1  0
 14 13  2  0
 16 15  1  0
 17 18  1  1
 17 16  1  0
 19 17  1  0
 19 20  1  6
 21 22  1  0
 21 19  1  0
 23 21  2  0
M  END
$$$$
