DCI.pdb
     RDKit          3D

 23 22  0  0  1  0  0  0  0  0999 V2000
    6.6570  -15.4821   21.0636 N   0  0  0  0  0  0  0  0  0  0  0  0
    8.0094  -15.8640   21.4153 C   0  0  1  0  0  0  0  0  0  0  0  0
    9.0061  -15.5021   20.3355 C   0  0  0  0  0  0  0  0  0  0  0  0
    8.8742  -16.4018   19.1747 C   0  0  0  0  0  0  0  0  0  0  0  0
    7.8797  -17.1703   19.0660 O   0  0  0  0  0  0  0  0  0  0  0  0
    8.4312  -15.1502   22.6513 C   0  0  0  0  0  0  0  0  0  0  0  0
    9.6350  -15.0071   22.8931 O   0  0  0  0  0  0  0  0  0  0  0  0
    9.8350  -16.4216   18.1842 O   0  0  0  0  0  0  0  0  0  0  0  0
    7.4953  -14.6224   23.5718 N   0  0  0  0  0  0  0  0  0  0  0  0
    7.8540  -13.9385   24.7832 C   0  0  1  0  0  0  0  0  0  0  0  0
    6.7121  -13.1399   25.3657 C   0  0  0  0  0  0  0  0  0  0  0  0
    7.1839  -12.4694   26.9841 S   0  0  0  0  0  0  0  0  0  0  0  0
    8.3788  -14.9365   25.7446 C   0  0  0  0  0  0  0  0  0  0  0  0
    7.6828  -15.9428   25.9997 O   0  0  0  0  0  0  0  0  0  0  0  0
   12.8236  -17.4953   25.1910 C   0  0  0  0  0  0  0  0  0  0  0  0
   11.4676  -17.0415   25.6375 C   0  0  0  0  0  0  0  0  0  0  0  0
   11.4805  -16.3574   26.9902 C   0  0  2  0  0  0  0  0  0  0  0  0
   11.7793  -17.4643   27.9862 C   0  0  0  0  0  0  0  0  0  0  0  0
   10.1564  -15.7787   27.3603 C   0  0  2  0  0  0  0  0  0  0  0  0
    9.6202  -14.8379   26.4034 N   0  0  0  0  0  0  0  0  0  0  0  0
   10.2649  -15.1673   28.7022 C   0  0  0  0  0  0  0  0  0  0  0  0
   10.1619  -15.9365   29.8272 O   0  0  0  0  0  0  0  0  0  0  0  0
   10.4511  -13.9398   28.7912 O   0  0  0  0  0  0  0  0  0  0  0  0
  2  1  1  6
  3  4  1  0
  3  2  1  0
  4  8  1  0
  5  4  2  0
  6  2  1  0
  6  9  1  0
  7  6  2  0
 10 11  1  1
 10  9  1  0
 10 13  1  0
 12 11  1  0
 13 20  1  0
 14 13  2  0
 16 15  1  0
 17 18  1  1
 17 16  1  0
 19 17  1  0
 19 20  1  6
 21 22  1  0
 21 19  1  0
 23 21  2  0
M  END
$$$$
