DCI.pdb
     RDKit          3D

 23 22  0  0  1  0  0  0  0  0999 V2000
   10.1967  -18.7422   19.3649 N   0  0  0  0  0  0  0  0  0  0  0  0
   10.6567  -18.0723   20.5642 C   0  0  1  0  0  0  0  0  0  0  0  0
   11.6487  -16.9704   20.2603 C   0  0  0  0  0  0  0  0  0  0  0  0
   13.0321  -17.4779   20.3149 C   0  0  0  0  0  0  0  0  0  0  0  0
   13.2672  -18.6700   20.6546 O   0  0  0  0  0  0  0  0  0  0  0  0
    9.5054  -17.4384   21.2626 C   0  0  0  0  0  0  0  0  0  0  0  0
    8.5568  -16.9999   20.6023 O   0  0  0  0  0  0  0  0  0  0  0  0
   14.0971  -16.6602   19.9960 O   0  0  0  0  0  0  0  0  0  0  0  0
    9.4545  -17.3168   22.6714 N   0  0  0  0  0  0  0  0  0  0  0  0
    8.3221  -16.8108   23.3962 C   0  0  1  0  0  0  0  0  0  0  0  0
    7.4134  -17.9057   23.9026 C   0  0  0  0  0  0  0  0  0  0  0  0
    8.3338  -19.0202   24.9992 S   0  0  0  0  0  0  0  0  0  0  0  0
    8.8183  -15.9503   24.4957 C   0  0  0  0  0  0  0  0  0  0  0  0
   10.0413  -15.9577   24.7537 O   0  0  0  0  0  0  0  0  0  0  0  0
    5.4955  -11.8522   26.2455 C   0  0  0  0  0  0  0  0  0  0  0  0
    6.8007  -12.4628   25.8360 C   0  0  0  0  0  0  0  0  0  0  0  0
    7.4121  -13.3434   26.9077 C   0  0  2  0  0  0  0  0  0  0  0  0
    8.1136  -12.3824   27.8515 C   0  0  0  0  0  0  0  0  0  0  0  0
    8.4507  -14.2713   26.3733 C   0  0  2  0  0  0  0  0  0  0  0  0
    8.0067  -15.1116   25.2848 N   0  0  0  0  0  0  0  0  0  0  0  0
    8.9796  -15.0839   27.4896 C   0  0  0  0  0  0  0  0  0  0  0  0
    8.6053  -16.3901   27.6373 O   0  0  0  0  0  0  0  0  0  0  0  0
    9.7715  -14.5590   28.2938 O   0  0  0  0  0  0  0  0  0  0  0  0
  2  1  1  6
  3  4  1  0
  3  2  1  0
  4  8  1  0
  5  4  2  0
  6  2  1  0
  6  9  1  0
  7  6  2  0
 10 11  1  1
 10  9  1  0
 10 13  1  0
 12 11  1  0
 13 20  1  0
 14 13  2  0
 16 15  1  0
 17 18  1  1
 17 16  1  0
 19 17  1  0
 19 20  1  6
 21 22  1  0
 21 19  1  0
 23 21  2  0
M  END
$$$$
