DCI.pdb
     RDKit          3D

 23 22  0  0  1  0  0  0  0  0999 V2000
    8.2262  -16.5475   20.5645 N   0  0  0  0  0  0  0  0  0  0  0  0
    9.4641  -16.7298   21.2944 C   0  0  1  0  0  0  0  0  0  0  0  0
   10.6801  -16.4382   20.4420 C   0  0  0  0  0  0  0  0  0  0  0  0
   10.7606  -17.3714   19.3031 C   0  0  0  0  0  0  0  0  0  0  0  0
   10.1247  -17.1427   18.2377 O   0  0  0  0  0  0  0  0  0  0  0  0
    9.5116  -15.7947   22.4513 C   0  0  0  0  0  0  0  0  0  0  0  0
   10.5832  -15.2636   22.7636 O   0  0  0  0  0  0  0  0  0  0  0  0
   11.5324  -18.5130   19.3790 O   0  0  0  0  0  0  0  0  0  0  0  0
    8.3623  -15.4864   23.2170 N   0  0  0  0  0  0  0  0  0  0  0  0
    8.3618  -14.6024   24.3494 C   0  0  1  0  0  0  0  0  0  0  0  0
    6.9939  -14.0380   24.6517 C   0  0  0  0  0  0  0  0  0  0  0  0
    7.0607  -13.0126   26.1469 S   0  0  0  0  0  0  0  0  0  0  0  0
    8.9296  -15.3292   25.5091 C   0  0  0  0  0  0  0  0  0  0  0  0
    8.5344  -16.4932   25.7355 O   0  0  0  0  0  0  0  0  0  0  0  0
   14.1594  -15.1487   26.2848 C   0  0  0  0  0  0  0  0  0  0  0  0
   12.7368  -15.6181   26.2912 C   0  0  0  0  0  0  0  0  0  0  0  0
   12.0057  -15.2957   27.5794 C   0  0  2  0  0  0  0  0  0  0  0  0
   12.5332  -16.2981   28.5909 C   0  0  0  0  0  0  0  0  0  0  0  0
   10.5323  -15.5067   27.4787 C   0  0  2  0  0  0  0  0  0  0  0  0
    9.8949  -14.8024   26.3897 N   0  0  0  0  0  0  0  0  0  0  0  0
    9.9134  -15.1531   28.7741 C   0  0  0  0  0  0  0  0  0  0  0  0
    9.9121  -16.0442   29.8104 O   0  0  0  0  0  0  0  0  0  0  0  0
    9.3927  -14.0303   28.9059 O   0  0  0  0  0  0  0  0  0  0  0  0
  2  1  1  6
  3  4  1  0
  3  2  1  0
  4  8  1  0
  5  4  2  0
  6  2  1  0
  6  9  1  0
  7  6  2  0
 10 11  1  1
 10  9  1  0
 10 13  1  0
 12 11  1  0
 13 20  1  0
 14 13  2  0
 16 15  1  0
 17 18  1  1
 17 16  1  0
 19 17  1  0
 19 20  1  6
 21 22  1  0
 21 19  1  0
 23 21  2  0
M  END
$$$$
