DGI.pdb
     RDKit          3D

 21 20  0  0  1  0  0  0  0  0999 V2000
   13.3892  -12.5526  -16.6849 N   0  0  0  0  0  0  0  0  0  0  0  0
   14.3827  -12.1048  -15.7610 C   0  0  1  0  0  0  0  0  0  0  0  0
   14.6564  -13.1609  -14.7330 C   0  0  0  0  0  0  0  0  0  0  0  0
   13.3883  -13.5496  -14.0750 C   0  0  0  0  0  0  0  0  0  0  0  0
   12.6030  -12.7496  -13.5231 O   0  0  0  0  0  0  0  0  0  0  0  0
   15.6384  -11.6724  -16.4313 C   0  0  0  0  0  0  0  0  0  0  0  0
   15.7636  -11.8898  -17.6530 O   0  0  0  0  0  0  0  0  0  0  0  0
   13.0489  -14.9074  -14.0729 O   0  0  0  0  0  0  0  0  0  0  0  0
   16.6550  -11.0292  -15.6740 N   0  0  0  0  0  0  0  0  0  0  0  0
   17.8563  -10.5220  -16.3005 C   0  0  0  0  0  0  0  0  0  0  0  0
   18.6846   -9.7523  -15.3494 C   0  0  0  0  0  0  0  0  0  0  0  0
   18.3020   -9.5050  -14.1587 O   0  0  0  0  0  0  0  0  0  0  0  0
   22.9838  -10.0616  -12.6920 C   0  0  0  0  0  0  0  0  0  0  0  0
   23.2628   -9.3662  -13.9992 C   0  0  0  0  0  0  0  0  0  0  0  0
   22.2112   -9.7358  -15.0167 C   0  0  2  0  0  0  0  0  0  0  0  0
   22.7325   -9.5599  -16.4068 C   0  0  0  0  0  0  0  0  0  0  0  0
   20.9495   -8.9287  -14.7541 C   0  0  2  0  0  0  0  0  0  0  0  0
   19.9397   -9.2622  -15.7368 N   0  0  0  0  0  0  0  0  0  0  0  0
   21.3171   -7.4995  -14.9054 C   0  0  0  0  0  0  0  0  0  0  0  0
   21.2732   -6.9397  -16.0192 O   0  0  0  0  0  0  0  0  0  0  0  0
   21.7165   -6.7645  -13.8033 O   0  0  0  0  0  0  0  0  0  0  0  0
  2  1  1  6
  2  3  1  0
  3  4  1  0
  4  5  2  0
  4  8  1  0
  6  7  2  0
  6  2  1  0
  9  6  1  0
 10  9  1  0
 11 10  1  0
 11 18  1  0
 12 11  2  0
 13 14  1  0
 15 16  1  6
 15 14  1  0
 17 18  1  6
 17 15  1  0
 19 17  1  0
 20 19  2  0
 21 19  1  0
M  END
$$$$
