DGI.pdb
     RDKit          3D

 21 20  0  0  1  0  0  0  0  0999 V2000
   22.6907  -19.7115  -11.5236 N   0  0  0  0  0  0  0  0  0  0  0  0
   23.4837  -20.7120  -12.1647 C   0  0  1  0  0  0  0  0  0  0  0  0
   23.9927  -20.2121  -13.4831 C   0  0  0  0  0  0  0  0  0  0  0  0
   22.9187  -20.3129  -14.4972 C   0  0  0  0  0  0  0  0  0  0  0  0
   22.0162  -19.4640  -14.6592 O   0  0  0  0  0  0  0  0  0  0  0  0
   24.6000  -21.1968  -11.3092 C   0  0  0  0  0  0  0  0  0  0  0  0
   25.4999  -21.8788  -11.8387 O   0  0  0  0  0  0  0  0  0  0  0  0
   22.9172  -21.4378  -15.3301 O   0  0  0  0  0  0  0  0  0  0  0  0
   24.6161  -20.8758   -9.9244 N   0  0  0  0  0  0  0  0  0  0  0  0
   25.6738  -21.3412   -9.0539 C   0  0  0  0  0  0  0  0  0  0  0  0
   26.3345  -20.2217   -8.3514 C   0  0  0  0  0  0  0  0  0  0  0  0
   26.1684  -19.0065   -8.6995 O   0  0  0  0  0  0  0  0  0  0  0  0
   26.9700  -20.3065   -2.9835 C   0  0  0  0  0  0  0  0  0  0  0  0
   26.7565  -19.9265   -4.4259 C   0  0  0  0  0  0  0  0  0  0  0  0
   28.0866  -19.7627   -5.1200 C   0  0  2  0  0  0  0  0  0  0  0  0
   28.9449  -18.7753   -4.3964 C   0  0  0  0  0  0  0  0  0  0  0  0
   27.8535  -19.3860   -6.5747 C   0  0  2  0  0  0  0  0  0  0  0  0
   27.1796  -20.4688   -7.2604 N   0  0  0  0  0  0  0  0  0  0  0  0
   29.1911  -19.1867   -7.1842 C   0  0  0  0  0  0  0  0  0  0  0  0
   29.8202  -20.1434   -7.6791 O   0  0  0  0  0  0  0  0  0  0  0  0
   29.7615  -17.9264   -7.2112 O   0  0  0  0  0  0  0  0  0  0  0  0
  2  1  1  1
  2  3  1  0
  3  4  1  0
  4  5  2  0
  4  8  1  0
  6  7  2  0
  6  2  1  0
  9  6  1  0
 10  9  1  0
 11 10  1  0
 11 18  1  0
 12 11  2  0
 13 14  1  0
 15 16  1  1
 15 14  1  0
 17 18  1  6
 17 15  1  0
 19 17  1  0
 20 19  2  0
 21 19  1  0
M  END
$$$$
