DGI.pdb
     RDKit          3D

 21 20  0  0  1  0  0  0  0  0999 V2000
   17.0442  -10.4997  -11.5110 N   0  0  0  0  0  0  0  0  0  0  0  0
   15.7447   -9.9585  -11.7548 C   0  0  1  0  0  0  0  0  0  0  0  0
   14.6982  -11.0216  -11.6072 C   0  0  0  0  0  0  0  0  0  0  0  0
   14.7856  -11.9620  -12.7474 C   0  0  0  0  0  0  0  0  0  0  0  0
   14.1597  -13.0407  -12.8249 O   0  0  0  0  0  0  0  0  0  0  0  0
   15.4397   -8.7843  -10.8939 C   0  0  0  0  0  0  0  0  0  0  0  0
   14.3650   -8.1785  -11.0762 O   0  0  0  0  0  0  0  0  0  0  0  0
   15.6281  -11.6157  -13.8100 O   0  0  0  0  0  0  0  0  0  0  0  0
   16.3684   -8.3839   -9.8949 N   0  0  0  0  0  0  0  0  0  0  0  0
   16.0594   -7.3261   -8.9575 C   0  0  0  0  0  0  0  0  0  0  0  0
   16.0020   -6.0076   -9.6220 C   0  0  0  0  0  0  0  0  0  0  0  0
   16.7516   -5.7096  -10.6093 O   0  0  0  0  0  0  0  0  0  0  0  0
   11.5791   -3.7733  -11.1651 C   0  0  0  0  0  0  0  0  0  0  0  0
   13.0358   -4.1280  -11.0144 C   0  0  0  0  0  0  0  0  0  0  0  0
   13.6831   -3.2311   -9.9875 C   0  0  2  0  0  0  0  0  0  0  0  0
   13.6029   -1.7986  -10.4081 C   0  0  0  0  0  0  0  0  0  0  0  0
   15.1104   -3.6939   -9.7415 C   0  0  2  0  0  0  0  0  0  0  0  0
   15.1040   -5.0273   -9.1770 N   0  0  0  0  0  0  0  0  0  0  0  0
   15.7003   -2.7552   -8.7560 C   0  0  0  0  0  0  0  0  0  0  0  0
   15.4789   -2.8832   -7.5351 O   0  0  0  0  0  0  0  0  0  0  0  0
   16.5100   -1.7177   -9.1831 O   0  0  0  0  0  0  0  0  0  0  0  0
  2  1  1  1
  2  3  1  0
  3  4  1  0
  4  5  2  0
  4  8  1  0
  6  7  2  0
  6  2  1  0
  9  6  1  0
 10  9  1  0
 11 10  1  0
 11 18  1  0
 12 11  2  0
 13 14  1  0
 15 16  1  6
 15 14  1  0
 17 18  1  1
 17 15  1  0
 19 17  1  0
 20 19  2  0
 21 19  1  0
M  END
$$$$
