DGI.pdb
     RDKit          3D

 21 20  0  0  1  0  0  0  0  0999 V2000
   17.9226  -14.4164  -17.6708 N   0  0  0  0  0  0  0  0  0  0  0  0
   19.2337  -14.6883  -18.1689 C   0  0  1  0  0  0  0  0  0  0  0  0
   19.1574  -15.3434  -19.5151 C   0  0  0  0  0  0  0  0  0  0  0  0
   18.7245  -16.7502  -19.3556 C   0  0  0  0  0  0  0  0  0  0  0  0
   17.8350  -17.2991  -20.0404 O   0  0  0  0  0  0  0  0  0  0  0  0
   20.0956  -13.4766  -18.2116 C   0  0  0  0  0  0  0  0  0  0  0  0
   21.2990  -13.6150  -18.5084 O   0  0  0  0  0  0  0  0  0  0  0  0
   19.3572  -17.5152  -18.3690 O   0  0  0  0  0  0  0  0  0  0  0  0
   19.5355  -12.2037  -17.9168 N   0  0  0  0  0  0  0  0  0  0  0  0
   20.3409  -11.0021  -17.9351 C   0  0  0  0  0  0  0  0  0  0  0  0
   20.7748  -10.6152  -16.5767 C   0  0  0  0  0  0  0  0  0  0  0  0
   20.2292  -11.0898  -15.5267 O   0  0  0  0  0  0  0  0  0  0  0  0
   25.6830  -11.2790  -15.7540 C   0  0  0  0  0  0  0  0  0  0  0  0
   24.1944  -11.0631  -15.6649 C   0  0  0  0  0  0  0  0  0  0  0  0
   23.9030   -9.6744  -15.1508 C   0  0  2  0  0  0  0  0  0  0  0  0
   24.5706   -9.4453  -13.8328 C   0  0  0  0  0  0  0  0  0  0  0  0
   22.3982   -9.4631  -15.0936 C   0  0  2  0  0  0  0  0  0  0  0  0
   21.8194   -9.6971  -16.4001 N   0  0  0  0  0  0  0  0  0  0  0  0
   22.1798   -8.0454  -14.7155 C   0  0  0  0  0  0  0  0  0  0  0  0
   22.2445   -7.1365  -15.5673 O   0  0  0  0  0  0  0  0  0  0  0  0
   21.8992   -7.7119  -13.4023 O   0  0  0  0  0  0  0  0  0  0  0  0
  2  1  1  6
  2  3  1  0
  3  4  1  0
  4  5  2  0
  4  8  1  0
  6  7  2  0
  6  2  1  0
  9  6  1  0
 10  9  1  0
 11 10  1  0
 11 18  1  0
 12 11  2  0
 13 14  1  0
 15 16  1  1
 15 14  1  0
 17 18  1  6
 17 15  1  0
 19 17  1  0
 20 19  2  0
 21 19  1  0
M  END
$$$$
