DGI.pdb
     RDKit          3D

 21 20  0  0  1  0  0  0  0  0999 V2000
   19.2567  -10.5015  -15.2382 N   0  0  0  0  0  0  0  0  0  0  0  0
   18.0236  -10.6335  -14.5288 C   0  0  1  0  0  0  0  0  0  0  0  0
   17.4396  -11.9975  -14.7425 C   0  0  0  0  0  0  0  0  0  0  0  0
   16.2772  -11.8994  -15.6543 C   0  0  0  0  0  0  0  0  0  0  0  0
   15.9297  -10.8565  -16.2484 O   0  0  0  0  0  0  0  0  0  0  0  0
   18.1589  -10.3305  -13.0787 C   0  0  0  0  0  0  0  0  0  0  0  0
   18.9133  -11.0472  -12.3910 O   0  0  0  0  0  0  0  0  0  0  0  0
   15.5176  -13.0563  -15.8628 O   0  0  0  0  0  0  0  0  0  0  0  0
   17.4345   -9.2446  -12.5159 N   0  0  0  0  0  0  0  0  0  0  0  0
   17.4758   -8.9641  -11.0973 C   0  0  0  0  0  0  0  0  0  0  0  0
   16.6597   -7.7822  -10.7506 C   0  0  0  0  0  0  0  0  0  0  0  0
   16.5554   -6.7756  -11.5261 O   0  0  0  0  0  0  0  0  0  0  0  0
   12.4466   -8.4954   -7.3305 C   0  0  0  0  0  0  0  0  0  0  0  0
   13.3112   -8.0476   -8.4805 C   0  0  0  0  0  0  0  0  0  0  0  0
   14.2264   -6.9328   -8.0361 C   0  0  2  0  0  0  0  0  0  0  0  0
   13.4369   -5.7603   -7.5490 C   0  0  0  0  0  0  0  0  0  0  0  0
   15.1733   -6.5750   -9.1708 C   0  0  2  0  0  0  0  0  0  0  0  0
   15.9628   -7.7328   -9.5351 N   0  0  0  0  0  0  0  0  0  0  0  0
   16.0768   -5.5171   -8.6559 C   0  0  0  0  0  0  0  0  0  0  0  0
   15.7743   -4.3109   -8.7538 O   0  0  0  0  0  0  0  0  0  0  0  0
   17.2758   -5.8587   -8.0560 O   0  0  0  0  0  0  0  0  0  0  0  0
  2  1  1  6
  2  3  1  0
  3  4  1  0
  4  5  2  0
  4  8  1  0
  6  7  2  0
  6  2  1  0
  9  6  1  0
 10  9  1  0
 11 10  1  0
 11 18  1  0
 12 11  2  0
 13 14  1  0
 15 16  1  6
 15 14  1  0
 17 18  1  1
 17 15  1  0
 19 17  1  0
 20 19  2  0
 21 19  1  0
M  END
$$$$
