DGI.pdb
     RDKit          3D

 21 20  0  0  1  0  0  0  0  0999 V2000
   20.4308   -7.2905  -17.0577 N   0  0  0  0  0  0  0  0  0  0  0  0
   20.5257   -6.9364  -15.6769 C   0  0  1  0  0  0  0  0  0  0  0  0
   19.2802   -7.3385  -14.9460 C   0  0  0  0  0  0  0  0  0  0  0  0
   18.1210   -6.6083  -15.5073 C   0  0  0  0  0  0  0  0  0  0  0  0
   17.2849   -7.1040  -16.2925 O   0  0  0  0  0  0  0  0  0  0  0  0
   21.7364   -7.4992  -15.0207 C   0  0  0  0  0  0  0  0  0  0  0  0
   21.8793   -7.3283  -13.7935 O   0  0  0  0  0  0  0  0  0  0  0  0
   17.9531   -5.2708  -15.1304 O   0  0  0  0  0  0  0  0  0  0  0  0
   22.6916   -8.2102  -15.7971 N   0  0  0  0  0  0  0  0  0  0  0  0
   23.9043   -8.7341  -15.2073 C   0  0  0  0  0  0  0  0  0  0  0  0
   24.6665   -9.5583  -16.1680 C   0  0  0  0  0  0  0  0  0  0  0  0
   24.2748   -9.7433  -17.3671 O   0  0  0  0  0  0  0  0  0  0  0  0
   29.3273  -10.9403  -18.1224 C   0  0  0  0  0  0  0  0  0  0  0  0
   28.8563  -11.9774  -17.1361 C   0  0  0  0  0  0  0  0  0  0  0  0
   27.9759  -11.3358  -16.0915 C   0  0  2  0  0  0  0  0  0  0  0  0
   27.8189  -12.2329  -14.9059 C   0  0  0  0  0  0  0  0  0  0  0  0
   26.6457  -10.9515  -16.7198 C   0  0  2  0  0  0  0  0  0  0  0  0
   25.8657  -10.1726  -15.7808 N   0  0  0  0  0  0  0  0  0  0  0  0
   25.9286  -12.2172  -17.0102 C   0  0  0  0  0  0  0  0  0  0  0  0
   26.1972  -12.8887  -18.0265 O   0  0  0  0  0  0  0  0  0  0  0  0
   24.9450  -12.6716  -16.1497 O   0  0  0  0  0  0  0  0  0  0  0  0
  2  1  1  6
  2  3  1  0
  3  4  1  0
  4  5  2  0
  4  8  1  0
  6  7  2  0
  6  2  1  0
  9  6  1  0
 10  9  1  0
 11 10  1  0
 11 18  1  0
 12 11  2  0
 13 14  1  0
 15 16  1  1
 15 14  1  0
 17 18  1  1
 17 15  1  0
 19 17  1  0
 20 19  2  0
 21 19  1  0
M  END
$$$$
