FRD.pdb
     RDKit          3D

 31 31  0  0  1  0  0  0  0  0999 V2000
   18.3354  -24.1121   -9.6531 N   0  0  0  0  0  0  0  0  0  0  0  0
   18.6457  -24.1526  -11.0624 C   0  0  1  0  0  0  0  0  0  0  0  0
   17.5791  -24.9695  -11.7466 C   0  0  0  0  0  0  0  0  0  0  0  0
   17.6857  -26.3723  -11.2492 C   0  0  0  0  0  0  0  0  0  0  0  0
   16.6759  -26.9295  -10.4623 C   0  0  0  0  0  0  0  0  0  0  0  0
   16.7297  -28.2182   -9.9804 C   0  0  0  0  0  0  0  0  0  0  0  0
   17.8032  -29.0072  -10.2685 C   0  0  0  0  0  0  0  0  0  0  0  0
   18.8220  -28.4920  -11.0440 C   0  0  0  0  0  0  0  0  0  0  0  0
   18.7554  -27.1982  -11.5205 C   0  0  0  0  0  0  0  0  0  0  0  0
   18.7773  -22.7943  -11.6478 C   0  0  0  0  0  0  0  0  0  0  0  0
   17.8853  -21.9257  -11.4974 O   0  0  0  0  0  0  0  0  0  0  0  0
   25.8005  -23.1751  -13.0434 N   0  0  0  0  0  0  0  0  0  0  0  0
   25.2457  -23.1684  -14.3496 C   0  0  0  0  0  0  0  0  0  0  0  0
   25.5388  -24.1007  -15.1697 N   0  0  0  0  0  0  0  0  0  0  0  0
   24.3553  -22.1220  -14.7585 N   0  0  0  0  0  0  0  0  0  0  0  0
   23.8335  -21.1572  -13.8048 C   0  0  0  0  0  0  0  0  0  0  0  0
   22.5014  -21.6771  -13.2366 C   0  0  0  0  0  0  0  0  0  0  0  0
   21.3559  -20.8480  -13.7155 C   0  0  0  0  0  0  0  0  0  0  0  0
   20.0061  -21.2264  -13.2261 C   0  0  2  0  0  0  0  0  0  0  0  0
   19.9092  -22.3866  -12.4104 N   0  0  0  0  0  0  0  0  0  0  0  0
   18.9263  -21.0264  -14.2185 C   0  0  0  0  0  0  0  0  0  0  0  0
   18.2190  -22.0623  -14.4625 O   0  0  0  0  0  0  0  0  0  0  0  0
   25.1895  -24.1253  -16.1546 N   0  0  0  0  0  0  0  0  0  0  0  0
   18.5948  -19.8590  -14.9127 C   0  0  1  0  0  0  0  0  0  0  0  0
   17.2592  -19.6845  -15.4668 C   0  0  0  0  0  0  0  0  0  0  0  0
   16.1566  -19.8110  -14.4670 C   0  0  0  0  0  0  0  0  0  0  0  0
   14.7985  -19.5905  -15.0165 O   0  0  0  0  0  0  0  0  0  0  0  0
   14.3989  -19.9195  -16.1440 C   0  0  0  0  0  0  0  0  0  0  0  0
   17.1400  -18.3884  -16.1445 O   0  0  0  0  0  0  0  0  0  0  0  0
   18.1192  -17.5758  -16.2196 O   0  0  0  0  0  0  0  0  0  0  0  0
   13.8500  -18.9481  -14.2015 O   0  0  0  0  0  0  0  0  0  0  0  0
  2  1  1  1
  2  3  1  0
  2 10  1  0
  3  4  1  0
  4  9  2  0
  4  5  1  0
  5  6  2  0
  6  7  1  0
  8  7  2  0
  9  8  1  0
 10 11  2  0
 10 20  1  0
 13 15  1  0
 13 12  1  0
 14 13  2  0
 16 15  1  0
 17 16  1  0
 18 17  1  0
 19 18  1  6
 20 19  1  0
 21 19  1  0
 21 23  1  0
 22 21  2  0
 24 23  1  0
 24 28  1  0
 24 25  1  6
 25 26  1  0
 26 30  1  0
 26 27  2  0
 28 31  1  0
 29 28  2  0
M  END
$$$$
