FRD.pdb
     RDKit          3D

 31 31  0  0  1  0  0  0  0  0999 V2000
   25.7790  -33.4999  -15.0245 N   0  0  0  0  0  0  0  0  0  0  0  0
   26.2475  -32.7962  -16.1948 C   0  0  1  0  0  0  0  0  0  0  0  0
   25.5410  -33.3746  -17.3947 C   0  0  0  0  0  0  0  0  0  0  0  0
   26.0311  -34.7708  -17.5870 C   0  0  0  0  0  0  0  0  0  0  0  0
   25.1684  -35.8578  -17.4340 C   0  0  0  0  0  0  0  0  0  0  0  0
   25.5742  -37.1629  -17.6009 C   0  0  0  0  0  0  0  0  0  0  0  0
   26.8686  -37.4352  -17.9301 C   0  0  0  0  0  0  0  0  0  0  0  0
   27.7519  -36.3869  -18.0903 C   0  0  0  0  0  0  0  0  0  0  0  0
   27.3317  -35.0831  -17.9198 C   0  0  0  0  0  0  0  0  0  0  0  0
   26.0559  -31.3281  -16.0817 C   0  0  0  0  0  0  0  0  0  0  0  0
   25.0069  -30.8385  -15.5995 O   0  0  0  0  0  0  0  0  0  0  0  0
   29.0400  -24.5854  -19.4888 N   0  0  0  0  0  0  0  0  0  0  0  0
   28.8864  -23.8741  -18.2703 C   0  0  0  0  0  0  0  0  0  0  0  0
   28.5820  -22.6354  -18.2912 N   0  0  0  0  0  0  0  0  0  0  0  0
   29.0693  -24.5354  -17.0117 N   0  0  0  0  0  0  0  0  0  0  0  0
   29.2932  -25.9696  -16.9363 C   0  0  0  0  0  0  0  0  0  0  0  0
   27.9353  -26.6925  -16.9011 C   0  0  0  0  0  0  0  0  0  0  0  0
   28.1136  -28.1534  -16.6501 C   0  0  0  0  0  0  0  0  0  0  0  0
   26.8785  -28.9735  -16.5698 C   0  0  2  0  0  0  0  0  0  0  0  0
   27.0353  -30.3849  -16.5060 N   0  0  0  0  0  0  0  0  0  0  0  0
   25.7651  -28.4712  -17.4057 C   0  0  0  0  0  0  0  0  0  0  0  0
   25.9535  -28.5614  -18.6664 O   0  0  0  0  0  0  0  0  0  0  0  0
   28.5655  -22.0371  -17.4343 N   0  0  0  0  0  0  0  0  0  0  0  0
   24.5521  -27.9154  -16.9879 C   0  0  1  0  0  0  0  0  0  0  0  0
   23.5838  -27.4384  -17.9656 C   0  0  0  0  0  0  0  0  0  0  0  0
   22.6088  -28.4738  -18.4222 C   0  0  0  0  0  0  0  0  0  0  0  0
   21.6243  -27.9952  -19.4205 O   0  0  0  0  0  0  0  0  0  0  0  0
   21.5253  -26.8394  -19.8604 C   0  0  0  0  0  0  0  0  0  0  0  0
   22.8422  -26.2836  -17.4459 O   0  0  0  0  0  0  0  0  0  0  0  0
   22.7332  -26.0613  -16.1955 O   0  0  0  0  0  0  0  0  0  0  0  0
   20.7003  -28.9207  -19.9366 O   0  0  0  0  0  0  0  0  0  0  0  0
  2  1  1  1
  2  3  1  0
  2 10  1  0
  3  4  1  0
  4  9  2  0
  4  5  1  0
  5  6  2  0
  6  7  1  0
  8  7  2  0
  9  8  1  0
 10 11  2  0
 10 20  1  0
 13 15  1  0
 13 12  1  0
 14 13  2  0
 16 15  1  0
 17 16  1  0
 18 17  1  0
 19 18  1  6
 20 19  1  0
 21 19  1  0
 21 23  1  0
 22 21  2  0
 24 23  1  0
 24 28  1  0
 24 25  1  1
 25 26  1  0
 26 30  1  0
 26 27  2  0
 28 31  1  0
 29 28  2  0
M  END
$$$$
