FRD.pdb
     RDKit          3D

 31 31  0  0  1  0  0  0  0  0999 V2000
   26.6929  -17.6144  -19.6722 N   0  0  0  0  0  0  0  0  0  0  0  0
   26.1047  -17.0460  -18.4827 C   0  0  1  0  0  0  0  0  0  0  0  0
   24.9734  -16.1464  -18.9120 C   0  0  0  0  0  0  0  0  0  0  0  0
   25.5589  -15.0037  -19.6724 C   0  0  0  0  0  0  0  0  0  0  0  0
   26.2586  -13.9912  -19.0133 C   0  0  0  0  0  0  0  0  0  0  0  0
   26.8161  -12.9180  -19.6714 C   0  0  0  0  0  0  0  0  0  0  0  0
   26.6953  -12.8135  -21.0251 C   0  0  0  0  0  0  0  0  0  0  0  0
   26.0105  -13.7951  -21.7124 C   0  0  0  0  0  0  0  0  0  0  0  0
   25.4564  -14.8658  -21.0400 C   0  0  0  0  0  0  0  0  0  0  0  0
   25.6624  -18.0880  -17.5218 C   0  0  0  0  0  0  0  0  0  0  0  0
   25.0985  -19.1396  -17.9076 O   0  0  0  0  0  0  0  0  0  0  0  0
   27.3519  -20.6255   -8.9269 N   0  0  0  0  0  0  0  0  0  0  0  0
   25.9522  -20.7053   -9.1472 C   0  0  0  0  0  0  0  0  0  0  0  0
   25.1675  -20.9461   -8.1705 N   0  0  0  0  0  0  0  0  0  0  0  0
   25.4085  -20.5166  -10.4601 N   0  0  0  0  0  0  0  0  0  0  0  0
   26.0912  -19.7020  -11.4515 C   0  0  0  0  0  0  0  0  0  0  0  0
   25.2219  -19.6119  -12.7179 C   0  0  0  0  0  0  0  0  0  0  0  0
   25.9291  -18.8647  -13.7999 C   0  0  0  0  0  0  0  0  0  0  0  0
   25.2402  -18.7773  -15.1123 C   0  0  2  0  0  0  0  0  0  0  0  0
   25.8443  -17.9697  -16.1140 N   0  0  0  0  0  0  0  0  0  0  0  0
   23.7645  -18.7143  -15.0163 C   0  0  0  0  0  0  0  0  0  0  0  0
   23.2792  -17.5354  -14.9302 O   0  0  0  0  0  0  0  0  0  0  0  0
   24.1292  -21.0074   -8.2741 N   0  0  0  0  0  0  0  0  0  0  0  0
   22.8523  -19.7738  -15.0053 C   0  0  1  0  0  0  0  0  0  0  0  0
   21.4215  -19.5144  -14.9233 C   0  0  0  0  0  0  0  0  0  0  0  0
   20.8142  -19.0073  -16.1903 C   0  0  0  0  0  0  0  0  0  0  0  0
   19.3469  -18.8105  -16.1346 O   0  0  0  0  0  0  0  0  0  0  0  0
   18.7114  -18.2719  -15.2151 C   0  0  0  0  0  0  0  0  0  0  0  0
   20.6962  -20.7165  -14.4964 O   0  0  0  0  0  0  0  0  0  0  0  0
   21.2769  -21.8445  -14.3731 O   0  0  0  0  0  0  0  0  0  0  0  0
   18.5750  -19.2693  -17.2164 O   0  0  0  0  0  0  0  0  0  0  0  0
  2  1  1  6
  2  3  1  0
  2 10  1  0
  3  4  1  0
  4  9  2  0
  4  5  1  0
  5  6  2  0
  6  7  1  0
  8  7  2  0
  9  8  1  0
 10 11  2  0
 10 20  1  0
 13 15  1  0
 13 12  1  0
 14 13  2  0
 16 15  1  0
 17 16  1  0
 18 17  1  0
 19 18  1  1
 20 19  1  0
 21 19  1  0
 21 23  1  0
 22 21  2  0
 24 23  1  0
 24 28  1  0
 24 25  1  6
 25 26  1  0
 26 30  1  0
 26 27  2  0
 28 31  1  0
 29 28  2  0
M  END
$$$$
