FRD.pdb
     RDKit          3D

 31 31  0  0  1  0  0  0  0  0999 V2000
   28.0748  -21.6675  -10.7193 N   0  0  0  0  0  0  0  0  0  0  0  0
   26.8558  -20.9590  -10.4091 C   0  0  1  0  0  0  0  0  0  0  0  0
   27.2303  -19.6938   -9.6796 C   0  0  0  0  0  0  0  0  0  0  0  0
   27.7037  -20.0731   -8.3162 C   0  0  0  0  0  0  0  0  0  0  0  0
   29.0634  -20.2569   -8.0580 C   0  0  0  0  0  0  0  0  0  0  0  0
   29.5475  -20.6069   -6.8175 C   0  0  0  0  0  0  0  0  0  0  0  0
   28.6849  -20.7883   -5.7778 C   0  0  0  0  0  0  0  0  0  0  0  0
   27.3328  -20.6155   -5.9936 C   0  0  0  0  0  0  0  0  0  0  0  0
   26.8608  -20.2646   -7.2425 C   0  0  0  0  0  0  0  0  0  0  0  0
   26.0387  -20.6906  -11.6195 C   0  0  0  0  0  0  0  0  0  0  0  0
   26.5364  -20.1663  -12.6443 O   0  0  0  0  0  0  0  0  0  0  0  0
   26.8425  -25.3719  -15.3170 N   0  0  0  0  0  0  0  0  0  0  0  0
   25.4640  -25.0798  -15.4854 C   0  0  0  0  0  0  0  0  0  0  0  0
   24.6050  -26.0222  -15.4468 N   0  0  0  0  0  0  0  0  0  0  0  0
   25.0246  -23.7319  -15.6981 N   0  0  0  0  0  0  0  0  0  0  0  0
   25.9257  -22.6055  -15.5187 C   0  0  0  0  0  0  0  0  0  0  0  0
   25.6461  -21.9459  -14.1570 C   0  0  0  0  0  0  0  0  0  0  0  0
   24.3008  -21.2988  -14.1424 C   0  0  0  0  0  0  0  0  0  0  0  0
   23.8069  -20.8129  -12.8292 C   0  0  2  0  0  0  0  0  0  0  0  0
   24.6519  -21.0049  -11.7023 N   0  0  0  0  0  0  0  0  0  0  0  0
   22.3589  -21.0289  -12.6115 C   0  0  0  0  0  0  0  0  0  0  0  0
   22.0416  -22.2021  -12.2167 O   0  0  0  0  0  0  0  0  0  0  0  0
   23.5869  -25.8747  -15.6323 N   0  0  0  0  0  0  0  0  0  0  0  0
   21.3124  -20.1183  -12.7865 C   0  0  2  0  0  0  0  0  0  0  0  0
   19.9289  -20.5730  -12.7717 C   0  0  0  0  0  0  0  0  0  0  0  0
   18.9895  -19.7123  -13.5514 C   0  0  0  0  0  0  0  0  0  0  0  0
   18.9968  -18.2828  -13.1623 O   0  0  0  0  0  0  0  0  0  0  0  0
   19.5164  -17.8003  -12.1443 C   0  0  0  0  0  0  0  0  0  0  0  0
   19.8271  -21.9527  -13.2615 O   0  0  0  0  0  0  0  0  0  0  0  0
   20.4983  -22.3615  -14.2651 O   0  0  0  0  0  0  0  0  0  0  0  0
   18.3598  -17.3614  -14.0119 O   0  0  0  0  0  0  0  0  0  0  0  0
  2  1  1  6
  2  3  1  0
  2 10  1  0
  3  4  1  0
  4  9  2  0
  4  5  1  0
  5  6  2  0
  6  7  1  0
  8  7  2  0
  9  8  1  0
 10 11  2  0
 10 20  1  0
 13 15  1  0
 13 12  1  0
 14 13  2  0
 16 15  1  0
 17 16  1  0
 18 17  1  0
 19 18  1  6
 20 19  1  0
 21 19  1  0
 21 23  1  0
 22 21  2  0
 24 23  1  0
 24 28  1  0
 24 25  1  6
 25 26  1  0
 26 30  1  0
 26 27  2  0
 28 31  1  0
 29 28  2  0
M  END
$$$$
