FRD.pdb
     RDKit          3D

 31 31  0  0  1  0  0  0  0  0999 V2000
   28.0909  -21.5587  -17.2126 N   0  0  0  0  0  0  0  0  0  0  0  0
   27.7079  -20.5693  -16.2336 C   0  0  1  0  0  0  0  0  0  0  0  0
   27.1014  -19.4019  -16.9703 C   0  0  0  0  0  0  0  0  0  0  0  0
   28.2049  -18.6694  -17.6575 C   0  0  0  0  0  0  0  0  0  0  0  0
   28.9918  -17.7488  -16.9629 C   0  0  0  0  0  0  0  0  0  0  0  0
   30.0203  -17.0493  -17.5536 C   0  0  0  0  0  0  0  0  0  0  0  0
   30.3051  -17.2440  -18.8722 C   0  0  0  0  0  0  0  0  0  0  0  0
   29.5493  -18.1464  -19.5928 C   0  0  0  0  0  0  0  0  0  0  0  0
   28.5210  -18.8410  -18.9882 C   0  0  0  0  0  0  0  0  0  0  0  0
   26.7924  -21.1228  -15.2040 C   0  0  0  0  0  0  0  0  0  0  0  0
   26.0863  -22.1344  -15.4293 O   0  0  0  0  0  0  0  0  0  0  0  0
   22.4202  -20.2102   -9.1324 N   0  0  0  0  0  0  0  0  0  0  0  0
   23.0131  -21.0892   -8.1892 C   0  0  0  0  0  0  0  0  0  0  0  0
   22.2800  -21.7077   -7.3481 N   0  0  0  0  0  0  0  0  0  0  0  0
   24.4322  -21.2912   -8.1720 N   0  0  0  0  0  0  0  0  0  0  0  0
   25.3038  -20.6155   -9.1189 C   0  0  0  0  0  0  0  0  0  0  0  0
   24.8826  -20.9902  -10.5507 C   0  0  0  0  0  0  0  0  0  0  0  0
   25.8801  -20.4995  -11.5472 C   0  0  0  0  0  0  0  0  0  0  0  0
   25.6144  -20.8199  -12.9724 C   0  0  2  0  0  0  0  0  0  0  0  0
   26.6528  -20.5533  -13.9059 N   0  0  0  0  0  0  0  0  0  0  0  0
   24.2360  -20.5101  -13.4138 C   0  0  0  0  0  0  0  0  0  0  0  0
   24.0313  -19.2882  -13.7266 O   0  0  0  0  0  0  0  0  0  0  0  0
   22.6563  -22.4069   -6.6683 N   0  0  0  0  0  0  0  0  0  0  0  0
   23.1470  -21.3801  -13.5246 C   0  0  1  0  0  0  0  0  0  0  0  0
   21.9192  -20.9455  -14.1763 C   0  0  0  0  0  0  0  0  0  0  0  0
   22.0853  -20.5644  -15.6111 C   0  0  0  0  0  0  0  0  0  0  0  0
   21.8900  -19.1230  -15.8923 O   0  0  0  0  0  0  0  0  0  0  0  0
   22.5951  -18.4149  -16.6275 C   0  0  0  0  0  0  0  0  0  0  0  0
   20.8808  -21.9776  -14.0758 O   0  0  0  0  0  0  0  0  0  0  0  0
   19.7010  -21.7905  -14.5203 O   0  0  0  0  0  0  0  0  0  0  0  0
   20.8069  -18.4690  -15.2792 O   0  0  0  0  0  0  0  0  0  0  0  0
  2  1  1  6
  2  3  1  0
  2 10  1  0
  3  4  1  0
  4  9  2  0
  4  5  1  0
  5  6  2  0
  6  7  1  0
  8  7  2  0
  9  8  1  0
 10 11  2  0
 10 20  1  0
 13 15  1  0
 13 12  1  0
 14 13  2  0
 16 15  1  0
 17 16  1  0
 18 17  1  0
 19 18  1  1
 20 19  1  0
 21 19  1  0
 21 23  1  0
 22 21  2  0
 24 23  1  0
 24 28  1  0
 24 25  1  6
 25 26  1  0
 26 30  1  0
 26 27  2  0
 28 31  1  0
 29 28  2  0
M  END
$$$$
