LWH.pdb
     RDKit          3D

 33 35  0  0  1  0  0  0  0  0999 V2000
    7.7898  -12.0284   19.4114 C   0  0  0  0  0  0  0  0  0  0  0  0
    7.6897  -13.5132   19.6730 C   0  0  1  0  0  0  0  0  0  0  0  0
    7.7373  -14.2337   18.3580 C   0  0  0  0  0  0  0  0  0  0  0  0
    8.6480  -14.0087   20.6923 C   0  0  0  0  0  0  0  0  0  0  0  0
    8.5147  -15.4750   21.0453 C   0  0  2  0  0  0  0  0  0  0  0  0
    7.1389  -15.8615   21.0294 N   0  0  0  0  0  0  0  0  0  0  0  0
    9.1775  -15.6299   22.3684 C   0  0  0  0  0  0  0  0  0  0  0  0
   10.3292  -15.0869   22.4516 O   0  0  0  0  0  0  0  0  0  0  0  0
    8.6692  -16.2917   23.4861 N   0  0  0  0  0  0  0  0  0  0  0  0
    9.4189  -16.3573   24.7200 C   0  0  1  0  0  0  0  0  0  0  0  0
    8.4881  -16.4735   25.9173 C   0  0  0  0  0  0  0  0  0  0  0  0
    7.4222  -15.4408   25.8920 C   0  0  0  0  0  0  0  0  0  0  0  0
    6.0863  -15.6143   25.5910 C   0  0  0  0  0  0  0  0  0  0  0  0
    5.4256  -14.4458   25.6723 N   0  0  0  0  0  0  0  0  0  0  0  0
    6.3083  -13.4876   26.0261 C   0  0  0  0  0  0  0  0  0  0  0  0
    6.1335  -12.1368   26.2376 C   0  0  0  0  0  0  0  0  0  0  0  0
    7.2317  -11.3834   26.5958 C   0  0  0  0  0  0  0  0  0  0  0  0
    8.4713  -11.9829   26.7356 C   0  0  0  0  0  0  0  0  0  0  0  0
    8.6487  -13.3269   26.5260 C   0  0  0  0  0  0  0  0  0  0  0  0
    7.5611  -14.0818   26.1695 C   0  0  0  0  0  0  0  0  0  0  0  0
   10.3986  -17.4653   24.7463 C   0  0  0  0  0  0  0  0  0  0  0  0
   10.2210  -18.4060   23.9315 O   0  0  0  0  0  0  0  0  0  0  0  0
   11.5033  -17.5327   25.6123 N   0  0  0  0  0  0  0  0  0  0  0  0
   12.4789  -18.6295   25.6165 C   0  0  1  0  0  0  0  0  0  0  0  0
   13.7653  -18.0054   25.0987 C   0  0  0  0  0  0  0  0  0  0  0  0
   13.7510  -17.7524   23.6444 C   0  0  0  0  0  0  0  0  0  0  0  0
   12.7152  -18.0660   22.7594 C   0  0  0  0  0  0  0  0  0  0  0  0
   13.0742  -17.6944   21.5182 N   0  0  0  0  0  0  0  0  0  0  0  0
   14.3086  -17.1515   21.5775 C   0  0  0  0  0  0  0  0  0  0  0  0
   14.6936  -17.1975   22.8633 N   0  0  0  0  0  0  0  0  0  0  0  0
   12.6967  -19.1635   26.9556 C   0  0  0  0  0  0  0  0  0  0  0  0
   13.5317  -20.0813   27.1405 O   0  0  0  0  0  0  0  0  0  0  0  0
   12.0127  -18.7028   28.0816 O   0  0  0  0  0  0  0  0  0  0  0  0
  2  1  1  6
  2  3  1  0
  4  2  1  0
  5  4  1  0
  5  6  1  1
  7  5  1  0
  7  8  2  0
  9  7  1  0
 10  9  1  0
 10 11  1  1
 11 12  1  0
 12 13  2  0
 12 20  1  0
 13 14  1  0
 14 15  1  0
 15 16  2  0
 16 17  1  0
 18 17  2  0
 19 18  1  0
 20 19  2  0
 20 15  1  0
 21 10  1  0
 22 21  2  0
 23 21  1  0
 24 25  1  1
 24 23  1  0
 25 26  1  0
 26 27  2  0
 28 27  1  0
 29 28  1  0
 30 29  2  0
 30 26  1  0
 31 24  1  0
 32 31  2  0
 33 31  1  0
M  END
$$$$
