LWH.pdb
     RDKit          3D

 33 35  0  0  1  0  0  0  0  0999 V2000
    8.0577  -20.9546   17.9015 C   0  0  0  0  0  0  0  0  0  0  0  0
    8.4219  -20.8142   19.3612 C   0  0  1  0  0  0  0  0  0  0  0  0
    9.2556  -21.9956   19.7607 C   0  0  0  0  0  0  0  0  0  0  0  0
    9.0015  -19.4933   19.7105 C   0  0  0  0  0  0  0  0  0  0  0  0
    9.2617  -19.2719   21.1856 C   0  0  2  0  0  0  0  0  0  0  0  0
    8.1787  -19.7919   21.9594 N   0  0  0  0  0  0  0  0  0  0  0  0
    9.4743  -17.8073   21.3390 C   0  0  0  0  0  0  0  0  0  0  0  0
   10.4870  -17.3496   20.7117 O   0  0  0  0  0  0  0  0  0  0  0  0
    8.6922  -16.9218   22.0804 N   0  0  0  0  0  0  0  0  0  0  0  0
    9.0183  -15.5155   22.1495 C   0  0  1  0  0  0  0  0  0  0  0  0
    7.7619  -14.6718   22.3008 C   0  0  0  0  0  0  0  0  0  0  0  0
    7.2009  -14.7554   23.6726 C   0  0  0  0  0  0  0  0  0  0  0  0
    6.7119  -15.8736   24.3173 C   0  0  0  0  0  0  0  0  0  0  0  0
    6.2871  -15.5606   25.5543 N   0  0  0  0  0  0  0  0  0  0  0  0
    6.4871  -14.2394   25.7457 C   0  0  0  0  0  0  0  0  0  0  0  0
    6.2215  -13.4374   26.8349 C   0  0  0  0  0  0  0  0  0  0  0  0
    6.5331  -12.0965   26.7513 C   0  0  0  0  0  0  0  0  0  0  0  0
    7.0978  -11.5840   25.5963 C   0  0  0  0  0  0  0  0  0  0  0  0
    7.3635  -12.3793   24.5106 C   0  0  0  0  0  0  0  0  0  0  0  0
    7.0561  -13.7133   24.5870 C   0  0  0  0  0  0  0  0  0  0  0  0
    9.9652  -15.1916   23.2390 C   0  0  0  0  0  0  0  0  0  0  0  0
   10.1993  -13.9748   23.4511 O   0  0  0  0  0  0  0  0  0  0  0  0
   10.6112  -16.1452   24.0440 N   0  0  0  0  0  0  0  0  0  0  0  0
   11.0770  -15.8865   25.4118 C   0  0  1  0  0  0  0  0  0  0  0  0
    9.8202  -15.5221   26.1863 C   0  0  0  0  0  0  0  0  0  0  0  0
   10.0844  -15.1394   27.5874 C   0  0  0  0  0  0  0  0  0  0  0  0
   11.3190  -14.7628   28.1242 C   0  0  0  0  0  0  0  0  0  0  0  0
   11.1636  -14.4993   29.4334 N   0  0  0  0  0  0  0  0  0  0  0  0
    9.8673  -14.6949   29.7551 C   0  0  0  0  0  0  0  0  0  0  0  0
    9.2400  -15.0785   28.6313 N   0  0  0  0  0  0  0  0  0  0  0  0
   11.6988  -17.0618   26.0100 C   0  0  0  0  0  0  0  0  0  0  0  0
   12.1756  -17.0021   27.1688 O   0  0  0  0  0  0  0  0  0  0  0  0
   11.8001  -18.2893   25.3534 O   0  0  0  0  0  0  0  0  0  0  0  0
  2  1  1  6
  2  3  1  0
  4  2  1  0
  5  4  1  0
  5  6  1  1
  7  5  1  0
  7  8  2  0
  9  7  1  0
 10  9  1  0
 10 11  1  1
 11 12  1  0
 12 13  2  0
 12 20  1  0
 13 14  1  0
 14 15  1  0
 15 16  2  0
 16 17  1  0
 18 17  2  0
 19 18  1  0
 20 19  2  0
 20 15  1  0
 21 10  1  0
 22 21  2  0
 23 21  1  0
 24 25  1  1
 24 23  1  0
 25 26  1  0
 26 27  2  0
 28 27  1  0
 29 28  1  0
 30 29  2  0
 30 26  1  0
 31 24  1  0
 32 31  2  0
 33 31  1  0
M  END
$$$$
