LWH.pdb
     RDKit          3D

 33 35  0  0  1  0  0  0  0  0999 V2000
    7.9922  -12.1584   18.4714 C   0  0  0  0  0  0  0  0  0  0  0  0
    8.0890  -13.6437   18.7312 C   0  0  1  0  0  0  0  0  0  0  0  0
    7.6647  -14.3737   17.4912 C   0  0  0  0  0  0  0  0  0  0  0  0
    9.3952  -14.0708   19.2919 C   0  0  0  0  0  0  0  0  0  0  0  0
    9.4467  -15.4980   19.7946 C   0  0  2  0  0  0  0  0  0  0  0  0
    8.4190  -16.2747   19.1759 N   0  0  0  0  0  0  0  0  0  0  0  0
    9.3343  -15.4049   21.2754 C   0  0  0  0  0  0  0  0  0  0  0  0
   10.2404  -14.7002   21.8328 O   0  0  0  0  0  0  0  0  0  0  0  0
    8.3608  -15.9978   22.0792 N   0  0  0  0  0  0  0  0  0  0  0  0
    8.3637  -15.8154   23.5129 C   0  0  1  0  0  0  0  0  0  0  0  0
    6.9448  -15.7284   24.0538 C   0  0  0  0  0  0  0  0  0  0  0  0
    6.9170  -15.2592   25.4618 C   0  0  0  0  0  0  0  0  0  0  0  0
    6.7382  -16.0183   26.6006 C   0  0  0  0  0  0  0  0  0  0  0  0
    6.7727  -15.2425   27.6986 N   0  0  0  0  0  0  0  0  0  0  0  0
    6.9735  -13.9667   27.3056 C   0  0  0  0  0  0  0  0  0  0  0  0
    7.0835  -12.8055   28.0402 C   0  0  0  0  0  0  0  0  0  0  0  0
    7.2889  -11.6210   27.3643 C   0  0  0  0  0  0  0  0  0  0  0  0
    7.3803  -11.6146   25.9833 C   0  0  0  0  0  0  0  0  0  0  0  0
    7.2714  -12.7684   25.2492 C   0  0  0  0  0  0  0  0  0  0  0  0
    7.0670  -13.9495   25.9149 C   0  0  0  0  0  0  0  0  0  0  0  0
    9.1025  -16.8763   24.2320 C   0  0  0  0  0  0  0  0  0  0  0  0
    8.8456  -18.0662   23.9181 O   0  0  0  0  0  0  0  0  0  0  0  0
   10.0630  -16.6425   25.2307 N   0  0  0  0  0  0  0  0  0  0  0  0
   10.8375  -17.7008   25.8903 C   0  0  1  0  0  0  0  0  0  0  0  0
   12.2870  -17.2612   25.7551 C   0  0  0  0  0  0  0  0  0  0  0  0
   12.8635  -17.5408   24.4251 C   0  0  0  0  0  0  0  0  0  0  0  0
   12.2088  -18.1487   23.3499 C   0  0  0  0  0  0  0  0  0  0  0  0
   13.0623  -18.2415   22.3152 N   0  0  0  0  0  0  0  0  0  0  0  0
   14.2455  -17.7122   22.6918 C   0  0  0  0  0  0  0  0  0  0  0  0
   14.1016  -17.2987   23.9614 N   0  0  0  0  0  0  0  0  0  0  0  0
   10.4941  -17.8325   27.3011 C   0  0  0  0  0  0  0  0  0  0  0  0
    9.7257  -17.0022   27.8433 O   0  0  0  0  0  0  0  0  0  0  0  0
   10.9821  -18.8575   28.1130 O   0  0  0  0  0  0  0  0  0  0  0  0
  2  1  1  6
  2  3  1  0
  4  2  1  0
  5  4  1  0
  5  6  1  6
  7  5  1  0
  7  8  2  0
  9  7  1  0
 10  9  1  0
 10 11  1  1
 11 12  1  0
 12 13  2  0
 12 20  1  0
 13 14  1  0
 14 15  1  0
 15 16  2  0
 16 17  1  0
 18 17  2  0
 19 18  1  0
 20 19  2  0
 20 15  1  0
 21 10  1  0
 22 21  2  0
 23 21  1  0
 24 25  1  1
 24 23  1  0
 25 26  1  0
 26 27  2  0
 28 27  1  0
 29 28  1  0
 30 29  2  0
 30 26  1  0
 31 24  1  0
 32 31  2  0
 33 31  1  0
M  END
$$$$
