LWH.pdb
     RDKit          3D

 33 35  0  0  1  0  0  0  0  0999 V2000
    7.9834  -12.4757   19.0970 C   0  0  0  0  0  0  0  0  0  0  0  0
    7.8913  -13.9178   19.5386 C   0  0  1  0  0  0  0  0  0  0  0  0
    7.6782  -14.7754   18.3263 C   0  0  0  0  0  0  0  0  0  0  0  0
    9.0053  -14.3475   20.4203 C   0  0  0  0  0  0  0  0  0  0  0  0
    8.7844  -15.6563   21.1486 C   0  0  2  0  0  0  0  0  0  0  0  0
    7.3889  -15.8623   21.3775 N   0  0  0  0  0  0  0  0  0  0  0  0
    9.6003  -15.5663   22.3896 C   0  0  0  0  0  0  0  0  0  0  0  0
   10.8139  -15.9371   22.2546 O   0  0  0  0  0  0  0  0  0  0  0  0
    9.1718  -15.1275   23.6423 N   0  0  0  0  0  0  0  0  0  0  0  0
    9.3562  -15.9417   24.8220 C   0  0  1  0  0  0  0  0  0  0  0  0
    8.0335  -16.5273   25.2918 C   0  0  0  0  0  0  0  0  0  0  0  0
    7.0255  -15.4716   25.5619 C   0  0  0  0  0  0  0  0  0  0  0  0
    5.7113  -15.4327   25.1418 C   0  0  0  0  0  0  0  0  0  0  0  0
    5.1049  -14.3160   25.5823 N   0  0  0  0  0  0  0  0  0  0  0  0
    6.0027  -13.6038   26.2957 C   0  0  0  0  0  0  0  0  0  0  0  0
    5.8786  -12.3965   26.9494 C   0  0  0  0  0  0  0  0  0  0  0  0
    6.9804  -11.8937   27.6091 C   0  0  0  0  0  0  0  0  0  0  0  0
    8.1735  -12.5952   27.6059 C   0  0  0  0  0  0  0  0  0  0  0  0
    8.3004  -13.7969   26.9565 C   0  0  0  0  0  0  0  0  0  0  0  0
    7.2089  -14.3025   26.2986 C   0  0  0  0  0  0  0  0  0  0  0  0
   10.3380  -17.0312   24.6283 C   0  0  0  0  0  0  0  0  0  0  0  0
   10.7615  -17.2191   23.4597 O   0  0  0  0  0  0  0  0  0  0  0  0
   10.8233  -17.8593   25.6548 N   0  0  0  0  0  0  0  0  0  0  0  0
   12.1074  -18.5684   25.6010 C   0  0  1  0  0  0  0  0  0  0  0  0
   13.1387  -17.4823   25.3380 C   0  0  0  0  0  0  0  0  0  0  0  0
   13.5856  -17.4252   23.9322 C   0  0  0  0  0  0  0  0  0  0  0  0
   13.0652  -18.1663   22.8671 C   0  0  0  0  0  0  0  0  0  0  0  0
   13.7364  -17.8496   21.7460 N   0  0  0  0  0  0  0  0  0  0  0  0
   14.6722  -16.9279   22.0571 C   0  0  0  0  0  0  0  0  0  0  0  0
   14.5622  -16.6895   23.3742 N   0  0  0  0  0  0  0  0  0  0  0  0
   12.4138  -19.2424   26.8570 C   0  0  0  0  0  0  0  0  0  0  0  0
   11.8762  -18.8617   27.9246 O   0  0  0  0  0  0  0  0  0  0  0  0
   13.2962  -20.3198   26.9496 O   0  0  0  0  0  0  0  0  0  0  0  0
  2  1  1  6
  2  3  1  0
  4  2  1  0
  5  4  1  0
  5  6  1  1
  7  5  1  0
  7  8  2  0
  9  7  1  0
 10  9  1  0
 10 11  1  6
 11 12  1  0
 12 13  2  0
 12 20  1  0
 13 14  1  0
 14 15  1  0
 15 16  2  0
 16 17  1  0
 18 17  2  0
 19 18  1  0
 20 19  2  0
 20 15  1  0
 21 10  1  0
 22 21  2  0
 23 21  1  0
 24 25  1  1
 24 23  1  0
 25 26  1  0
 26 27  2  0
 28 27  1  0
 29 28  1  0
 30 29  2  0
 30 26  1  0
 31 24  1  0
 32 31  2  0
 33 31  1  0
M  END
$$$$
