LWH.pdb
     RDKit          3D

 33 35  0  0  1  0  0  0  0  0999 V2000
   10.9998  -20.6094   19.3750 C   0  0  0  0  0  0  0  0  0  0  0  0
   11.0473  -19.1215   19.1162 C   0  0  1  0  0  0  0  0  0  0  0  0
   10.0484  -18.7910   18.0469 C   0  0  0  0  0  0  0  0  0  0  0  0
   10.9441  -18.2953   20.3449 C   0  0  0  0  0  0  0  0  0  0  0  0
   10.8156  -16.8048   20.1120 C   0  0  2  0  0  0  0  0  0  0  0  0
   12.0521  -16.2738   19.6310 N   0  0  0  0  0  0  0  0  0  0  0  0
   10.3697  -16.2337   21.4116 C   0  0  0  0  0  0  0  0  0  0  0  0
   11.2764  -15.6068   22.0545 O   0  0  0  0  0  0  0  0  0  0  0  0
    9.0940  -16.3190   21.9689 N   0  0  0  0  0  0  0  0  0  0  0  0
    8.7743  -15.6481   23.2085 C   0  0  1  0  0  0  0  0  0  0  0  0
    7.2690  -15.5348   23.3939 C   0  0  0  0  0  0  0  0  0  0  0  0
    6.9172  -14.8894   24.6835 C   0  0  0  0  0  0  0  0  0  0  0  0
    6.3072  -15.4685   25.7780 C   0  0  0  0  0  0  0  0  0  0  0  0
    6.1500  -14.5688   26.7652 N   0  0  0  0  0  0  0  0  0  0  0  0
    6.6502  -13.3886   26.3418 C   0  0  0  0  0  0  0  0  0  0  0  0
    6.7274  -12.1656   26.9730 C   0  0  0  0  0  0  0  0  0  0  0  0
    7.2979  -11.1120   26.2899 C   0  0  0  0  0  0  0  0  0  0  0  0
    7.7764  -11.2938   25.0040 C   0  0  0  0  0  0  0  0  0  0  0  0
    7.7012  -12.5096   24.3730 C   0  0  0  0  0  0  0  0  0  0  0  0
    7.1351  -13.5613   25.0464 C   0  0  0  0  0  0  0  0  0  0  0  0
    9.3704  -16.3025   24.3938 C   0  0  0  0  0  0  0  0  0  0  0  0
    9.1489  -15.7727   25.5121 O   0  0  0  0  0  0  0  0  0  0  0  0
   10.1578  -17.4656   24.3511 N   0  0  0  0  0  0  0  0  0  0  0  0
   10.7269  -18.1171   25.5370 C   0  0  1  0  0  0  0  0  0  0  0  0
   12.2162  -18.2171   25.2465 C   0  0  0  0  0  0  0  0  0  0  0  0
   12.5286  -19.0328   24.0564 C   0  0  0  0  0  0  0  0  0  0  0  0
   11.8647  -20.1943   23.6510 C   0  0  0  0  0  0  0  0  0  0  0  0
   12.4429  -20.6587   22.5296 N   0  0  0  0  0  0  0  0  0  0  0  0
   13.4581  -19.8318   22.2014 C   0  0  0  0  0  0  0  0  0  0  0  0
   13.4897  -18.8642   23.1321 N   0  0  0  0  0  0  0  0  0  0  0  0
   10.5145  -17.3329   26.7476 C   0  0  0  0  0  0  0  0  0  0  0  0
   10.1799  -16.1265   26.6670 O   0  0  0  0  0  0  0  0  0  0  0  0
   10.6646  -17.8568   28.0325 O   0  0  0  0  0  0  0  0  0  0  0  0
  2  1  1  1
  2  3  1  0
  4  2  1  0
  5  4  1  0
  5  6  1  1
  7  5  1  0
  7  8  2  0
  9  7  1  0
 10  9  1  0
 10 11  1  1
 11 12  1  0
 12 13  2  0
 12 20  1  0
 13 14  1  0
 14 15  1  0
 15 16  2  0
 16 17  1  0
 18 17  2  0
 19 18  1  0
 20 19  2  0
 20 15  1  0
 21 10  1  0
 22 21  2  0
 23 21  1  0
 24 25  1  6
 24 23  1  0
 25 26  1  0
 26 27  2  0
 28 27  1  0
 29 28  1  0
 30 29  2  0
 30 26  1  0
 31 24  1  0
 32 31  2  0
 33 31  1  0
M  END
$$$$
