LWH.pdb
     RDKit          3D

 33 35  0  0  1  0  0  0  0  0999 V2000
    7.0884  -12.4899   20.0562 C   0  0  0  0  0  0  0  0  0  0  0  0
    7.5813  -13.6308   19.1969 C   0  0  1  0  0  0  0  0  0  0  0  0
    8.2089  -13.0598   17.9598 C   0  0  0  0  0  0  0  0  0  0  0  0
    8.4207  -14.6129   19.9275 C   0  0  0  0  0  0  0  0  0  0  0  0
    7.6748  -15.5052   20.8970 C   0  0  2  0  0  0  0  0  0  0  0  0
    6.3050  -15.1061   20.9785 N   0  0  0  0  0  0  0  0  0  0  0  0
    8.4171  -15.4076   22.1828 C   0  0  0  0  0  0  0  0  0  0  0  0
    9.0167  -14.2961   22.3662 O   0  0  0  0  0  0  0  0  0  0  0  0
    8.5116  -16.3879   23.1704 N   0  0  0  0  0  0  0  0  0  0  0  0
    9.3851  -16.2186   24.3094 C   0  0  1  0  0  0  0  0  0  0  0  0
    8.6301  -16.4358   25.6118 C   0  0  0  0  0  0  0  0  0  0  0  0
    7.5715  -15.4152   25.8147 C   0  0  0  0  0  0  0  0  0  0  0  0
    6.2134  -15.5566   25.6125 C   0  0  0  0  0  0  0  0  0  0  0  0
    5.5686  -14.4126   25.9025 N   0  0  0  0  0  0  0  0  0  0  0  0
    6.4840  -13.5029   26.2985 C   0  0  0  0  0  0  0  0  0  0  0  0
    6.3355  -12.1920   26.6980 C   0  0  0  0  0  0  0  0  0  0  0  0
    7.4650  -11.4846   27.0529 C   0  0  0  0  0  0  0  0  0  0  0  0
    8.7089  -12.0893   27.0040 C   0  0  0  0  0  0  0  0  0  0  0  0
    8.8602  -13.3937   26.6070 C   0  0  0  0  0  0  0  0  0  0  0  0
    7.7414  -14.1028   26.2528 C   0  0  0  0  0  0  0  0  0  0  0  0
   10.5687  -17.1051   24.2707 C   0  0  0  0  0  0  0  0  0  0  0  0
   10.3557  -18.3413   24.1881 O   0  0  0  0  0  0  0  0  0  0  0  0
   11.9007  -16.6596   24.3181 N   0  0  0  0  0  0  0  0  0  0  0  0
   13.0673  -17.5489   24.2658 C   0  0  1  0  0  0  0  0  0  0  0  0
   14.2183  -16.6527   23.8363 C   0  0  0  0  0  0  0  0  0  0  0  0
   14.0080  -16.0173   22.5205 C   0  0  0  0  0  0  0  0  0  0  0  0
   12.9964  -16.3231   21.6054 C   0  0  0  0  0  0  0  0  0  0  0  0
   13.1394  -15.5429   20.5199 N   0  0  0  0  0  0  0  0  0  0  0  0
   14.2116  -14.7449   20.7085 C   0  0  0  0  0  0  0  0  0  0  0  0
   14.7160  -15.0480   21.9156 N   0  0  0  0  0  0  0  0  0  0  0  0
   13.3640  -18.1402   25.5651 C   0  0  0  0  0  0  0  0  0  0  0  0
   14.3238  -18.9381   25.6906 O   0  0  0  0  0  0  0  0  0  0  0  0
   12.6234  -17.8653   26.7157 O   0  0  0  0  0  0  0  0  0  0  0  0
  2  1  1  1
  2  3  1  0
  4  2  1  0
  5  4  1  0
  5  6  1  1
  7  5  1  0
  7  8  2  0
  9  7  1  0
 10  9  1  0
 10 11  1  1
 11 12  1  0
 12 13  2  0
 12 20  1  0
 13 14  1  0
 14 15  1  0
 15 16  2  0
 16 17  1  0
 18 17  2  0
 19 18  1  0
 20 19  2  0
 20 15  1  0
 21 10  1  0
 22 21  2  0
 23 21  1  0
 24 25  1  1
 24 23  1  0
 25 26  1  0
 26 27  2  0
 28 27  1  0
 29 28  1  0
 30 29  2  0
 30 26  1  0
 31 24  1  0
 32 31  2  0
 33 31  1  0
M  END
$$$$
