LWH.pdb
     RDKit          3D

 33 35  0  0  1  0  0  0  0  0999 V2000
    8.6152  -20.4148   17.4382 C   0  0  0  0  0  0  0  0  0  0  0  0
    8.4490  -18.9175   17.3208 C   0  0  1  0  0  0  0  0  0  0  0  0
    7.1278  -18.6337   16.6693 C   0  0  0  0  0  0  0  0  0  0  0  0
    8.6905  -18.1858   18.5893 C   0  0  0  0  0  0  0  0  0  0  0  0
    8.2991  -16.7233   18.5758 C   0  0  2  0  0  0  0  0  0  0  0  0
    9.0924  -16.0107   17.6243 N   0  0  0  0  0  0  0  0  0  0  0  0
    8.4588  -16.2534   19.9785 C   0  0  0  0  0  0  0  0  0  0  0  0
    9.6613  -15.9937   20.3173 O   0  0  0  0  0  0  0  0  0  0  0  0
    7.4466  -16.0770   20.9217 N   0  0  0  0  0  0  0  0  0  0  0  0
    7.7517  -15.6948   22.2817 C   0  0  1  0  0  0  0  0  0  0  0  0
    6.4790  -15.5057   23.0929 C   0  0  0  0  0  0  0  0  0  0  0  0
    6.7675  -15.0647   24.4806 C   0  0  0  0  0  0  0  0  0  0  0  0
    6.8948  -15.8524   25.6069 C   0  0  0  0  0  0  0  0  0  0  0  0
    7.1579  -15.0964   26.6876 N   0  0  0  0  0  0  0  0  0  0  0  0
    7.2083  -13.8057   26.2956 C   0  0  0  0  0  0  0  0  0  0  0  0
    7.4430  -12.6546   27.0167 C   0  0  0  0  0  0  0  0  0  0  0  0
    7.4345  -11.4495   26.3461 C   0  0  0  0  0  0  0  0  0  0  0  0
    7.1950  -11.4131   24.9834 C   0  0  0  0  0  0  0  0  0  0  0  0
    6.9612  -12.5567   24.2627 C   0  0  0  0  0  0  0  0  0  0  0  0
    6.9682  -13.7582   24.9233 C   0  0  0  0  0  0  0  0  0  0  0  0
    8.6383  -16.6579   22.9709 C   0  0  0  0  0  0  0  0  0  0  0  0
    8.3860  -17.8797   22.8170 O   0  0  0  0  0  0  0  0  0  0  0  0
    9.7329  -16.2991   23.7759 N   0  0  0  0  0  0  0  0  0  0  0  0
   10.6628  -17.2633   24.3762 C   0  0  1  0  0  0  0  0  0  0  0  0
   12.0439  -16.7742   23.9692 C   0  0  0  0  0  0  0  0  0  0  0  0
   13.1424  -17.5890   24.5247 C   0  0  0  0  0  0  0  0  0  0  0  0
   13.3294  -17.9201   25.8699 C   0  0  0  0  0  0  0  0  0  0  0  0
   14.4438  -18.6634   25.9857 N   0  0  0  0  0  0  0  0  0  0  0  0
   14.9791  -18.8205   24.7565 C   0  0  0  0  0  0  0  0  0  0  0  0
   14.1808  -18.1670   23.8968 N   0  0  0  0  0  0  0  0  0  0  0  0
   10.5604  -17.2903   25.8303 C   0  0  0  0  0  0  0  0  0  0  0  0
   10.8884  -18.3205   26.4667 O   0  0  0  0  0  0  0  0  0  0  0  0
   10.1058  -16.2069   26.5837 O   0  0  0  0  0  0  0  0  0  0  0  0
  2  1  1  1
  2  3  1  0
  4  2  1  0
  5  4  1  0
  5  6  1  6
  7  5  1  0
  7  8  2  0
  9  7  1  0
 10  9  1  0
 10 11  1  1
 11 12  1  0
 12 13  2  0
 12 20  1  0
 13 14  1  0
 14 15  1  0
 15 16  2  0
 16 17  1  0
 18 17  2  0
 19 18  1  0
 20 19  2  0
 20 15  1  0
 21 10  1  0
 22 21  2  0
 23 21  1  0
 24 25  1  1
 24 23  1  0
 25 26  1  0
 26 27  2  0
 28 27  1  0
 29 28  1  0
 30 29  2  0
 30 26  1  0
 31 24  1  0
 32 31  2  0
 33 31  1  0
M  END
$$$$
