LWH.pdb
     RDKit          3D

 33 35  0  0  1  0  0  0  0  0999 V2000
    7.2207  -12.4029   19.1604 C   0  0  0  0  0  0  0  0  0  0  0  0
    7.4974  -13.8609   19.4447 C   0  0  1  0  0  0  0  0  0  0  0  0
    8.1540  -14.4659   18.2392 C   0  0  0  0  0  0  0  0  0  0  0  0
    8.2056  -14.0980   20.7273 C   0  0  0  0  0  0  0  0  0  0  0  0
    8.4792  -15.5507   21.0550 C   0  0  2  0  0  0  0  0  0  0  0  0
    7.2768  -16.3148   20.9434 N   0  0  0  0  0  0  0  0  0  0  0  0
    9.0770  -15.5478   22.4175 C   0  0  0  0  0  0  0  0  0  0  0  0
   10.0252  -14.7092   22.5790 O   0  0  0  0  0  0  0  0  0  0  0  0
    8.7056  -16.3511   23.4955 N   0  0  0  0  0  0  0  0  0  0  0  0
    9.4294  -16.3047   24.7456 C   0  0  1  0  0  0  0  0  0  0  0  0
    8.4830  -16.4420   25.9284 C   0  0  0  0  0  0  0  0  0  0  0  0
    7.4516  -15.3745   25.9388 C   0  0  0  0  0  0  0  0  0  0  0  0
    6.1014  -15.5035   25.6831 C   0  0  0  0  0  0  0  0  0  0  0  0
    5.4829  -14.3138   25.7863 N   0  0  0  0  0  0  0  0  0  0  0  0
    6.4082  -13.3856   26.1098 C   0  0  0  0  0  0  0  0  0  0  0  0
    6.2855  -12.0299   26.3267 C   0  0  0  0  0  0  0  0  0  0  0  0
    7.4195  -11.3136   26.6474 C   0  0  0  0  0  0  0  0  0  0  0  0
    8.6426  -11.9539   26.7455 C   0  0  0  0  0  0  0  0  0  0  0  0
    8.7682  -13.3029   26.5304 C   0  0  0  0  0  0  0  0  0  0  0  0
    7.6447  -14.0211   26.2110 C   0  0  0  0  0  0  0  0  0  0  0  0
   10.4911  -17.3305   24.8406 C   0  0  0  0  0  0  0  0  0  0  0  0
   10.1504  -18.5260   24.6540 O   0  0  0  0  0  0  0  0  0  0  0  0
   11.8408  -17.0576   25.1211 N   0  0  0  0  0  0  0  0  0  0  0  0
   12.9029  -18.0709   25.1146 C   0  0  1  0  0  0  0  0  0  0  0  0
   14.1700  -17.3013   24.7764 C   0  0  0  0  0  0  0  0  0  0  0  0
   14.0774  -16.5446   23.5122 C   0  0  0  0  0  0  0  0  0  0  0  0
   13.3643  -16.9230   22.3709 C   0  0  0  0  0  0  0  0  0  0  0  0
   13.5290  -15.9847   21.4222 N   0  0  0  0  0  0  0  0  0  0  0  0
   14.3260  -15.0147   21.9180 C   0  0  0  0  0  0  0  0  0  0  0  0
   14.6420  -15.3729   23.1731 N   0  0  0  0  0  0  0  0  0  0  0  0
   13.0523  -18.7159   26.4136 C   0  0  0  0  0  0  0  0  0  0  0  0
   13.9692  -19.5512   26.6012 O   0  0  0  0  0  0  0  0  0  0  0  0
   12.2123  -18.4540   27.4970 O   0  0  0  0  0  0  0  0  0  0  0  0
  2  1  1  6
  2  3  1  0
  4  2  1  0
  5  4  1  0
  5  6  1  1
  7  5  1  0
  7  8  2  0
  9  7  1  0
 10  9  1  0
 10 11  1  1
 11 12  1  0
 12 13  2  0
 12 20  1  0
 13 14  1  0
 14 15  1  0
 15 16  2  0
 16 17  1  0
 18 17  2  0
 19 18  1  0
 20 19  2  0
 20 15  1  0
 21 10  1  0
 22 21  2  0
 23 21  1  0
 24 25  1  1
 24 23  1  0
 25 26  1  0
 26 27  2  0
 28 27  1  0
 29 28  1  0
 30 29  2  0
 30 26  1  0
 31 24  1  0
 32 31  2  0
 33 31  1  0
M  END
$$$$
