LWH.pdb
     RDKit          3D

 33 35  0  0  1  0  0  0  0  0999 V2000
    6.6724  -20.7883   18.9402 C   0  0  0  0  0  0  0  0  0  0  0  0
    7.1813  -19.4357   18.4990 C   0  0  1  0  0  0  0  0  0  0  0  0
    6.0388  -18.6670   17.9038 C   0  0  0  0  0  0  0  0  0  0  0  0
    7.9442  -18.7111   19.5458 C   0  0  0  0  0  0  0  0  0  0  0  0
    8.2025  -17.2469   19.2598 C   0  0  2  0  0  0  0  0  0  0  0  0
    9.1587  -17.1128   18.2063 N   0  0  0  0  0  0  0  0  0  0  0  0
    8.6340  -16.6562   20.5555 C   0  0  0  0  0  0  0  0  0  0  0  0
    9.8369  -16.9246   20.8864 O   0  0  0  0  0  0  0  0  0  0  0  0
    7.8680  -15.8628   21.4093 N   0  0  0  0  0  0  0  0  0  0  0  0
    8.4252  -15.3260   22.6301 C   0  0  1  0  0  0  0  0  0  0  0  0
    7.5019  -14.2805   23.2366 C   0  0  0  0  0  0  0  0  0  0  0  0
    8.0177  -13.7712   24.5319 C   0  0  0  0  0  0  0  0  0  0  0  0
    9.3322  -13.6989   24.9468 C   0  0  0  0  0  0  0  0  0  0  0  0
    9.4114  -13.1795   26.1848 N   0  0  0  0  0  0  0  0  0  0  0  0
    8.1589  -12.9020   26.6051 C   0  0  0  0  0  0  0  0  0  0  0  0
    7.7060  -12.3641   27.7907 C   0  0  0  0  0  0  0  0  0  0  0  0
    6.3477  -12.1893   27.9529 C   0  0  0  0  0  0  0  0  0  0  0  0
    5.4740  -12.5497   26.9417 C   0  0  0  0  0  0  0  0  0  0  0  0
    5.9213  -13.0851   25.7606 C   0  0  0  0  0  0  0  0  0  0  0  0
    7.2707  -13.2616   25.5928 C   0  0  0  0  0  0  0  0  0  0  0  0
    8.7242  -16.3660   23.6387 C   0  0  0  0  0  0  0  0  0  0  0  0
    7.7875  -17.1421   23.9558 O   0  0  0  0  0  0  0  0  0  0  0  0
    9.9739  -16.5413   24.2571 N   0  0  0  0  0  0  0  0  0  0  0  0
   10.2817  -17.6276   25.1952 C   0  0  1  0  0  0  0  0  0  0  0  0
   11.7016  -18.0475   24.8488 C   0  0  0  0  0  0  0  0  0  0  0  0
   11.7897  -18.8617   23.6206 C   0  0  0  0  0  0  0  0  0  0  0  0
   10.7493  -19.5851   23.0301 C   0  0  0  0  0  0  0  0  0  0  0  0
   11.2174  -20.2072   21.9340 N   0  0  0  0  0  0  0  0  0  0  0  0
   12.5266  -19.9062   21.8013 C   0  0  0  0  0  0  0  0  0  0  0  0
   12.8468  -19.0979   22.8248 N   0  0  0  0  0  0  0  0  0  0  0  0
   10.2256  -17.1848   26.5832 C   0  0  0  0  0  0  0  0  0  0  0  0
   10.1185  -15.9641   26.8520 O   0  0  0  0  0  0  0  0  0  0  0  0
   10.2855  -18.0619   27.6672 O   0  0  0  0  0  0  0  0  0  0  0  0
  2  1  1  1
  2  3  1  0
  4  2  1  0
  5  4  1  0
  5  6  1  6
  7  5  1  0
  7  8  2  0
  9  7  1  0
 10  9  1  0
 10 11  1  1
 11 12  1  0
 12 13  2  0
 12 20  1  0
 13 14  1  0
 14 15  1  0
 15 16  2  0
 16 17  1  0
 18 17  2  0
 19 18  1  0
 20 19  2  0
 20 15  1  0
 21 10  1  0
 22 21  2  0
 23 21  1  0
 24 25  1  6
 24 23  1  0
 25 26  1  0
 26 27  2  0
 28 27  1  0
 29 28  1  0
 30 29  2  0
 30 26  1  0
 31 24  1  0
 32 31  2  0
 33 31  1  0
M  END
$$$$
