LMN.pdb
     RDKit          3D

 25 24  0  0  1  0  0  0  0  0999 V2000
   20.5906  -19.6016  -16.1182 C   0  0  0  0  0  0  0  0  0  0  0  0
   22.0594  -19.9362  -15.9164 C   0  0  2  0  0  0  0  0  0  0  0  0
   22.5827  -20.7186  -17.1255 C   0  0  0  0  0  0  0  0  0  0  0  0
   22.2004  -20.8197  -14.7063 C   0  0  0  0  0  0  0  0  0  0  0  0
   21.6792  -20.1319  -13.4602 C   0  0  2  0  0  0  0  0  0  0  0  0
   22.3168  -18.8308  -13.3881 N   0  0  0  0  0  0  0  0  0  0  0  0
   21.9180  -20.9318  -12.2340 C   0  0  0  0  0  0  0  0  0  0  0  0
   21.6659  -22.1555  -12.2444 O   0  0  0  0  0  0  0  0  0  0  0  0
   26.4959  -20.1128   -7.6670 C   0  0  0  0  0  0  0  0  0  0  0  0
   25.1079  -20.5963   -6.6123 S   0  0  0  0  0  0  0  0  0  0  0  0
   23.7380  -21.2722   -7.5912 C   0  0  0  0  0  0  0  0  0  0  0  0
   23.6189  -20.5134   -8.8895 C   0  0  0  0  0  0  0  0  0  0  0  0
   22.6172  -21.1069   -9.8255 C   0  0  2  0  0  0  0  0  0  0  0  0
   22.4292  -20.3453  -11.0339 N   0  0  0  0  0  0  0  0  0  0  0  0
   21.2728  -21.2736   -9.1676 C   0  0  0  0  0  0  0  0  0  0  0  0
   20.4545  -20.3264   -9.1371 O   0  0  0  0  0  0  0  0  0  0  0  0
   16.3252  -22.9087   -8.7472 N   0  0  0  0  0  0  0  0  0  0  0  0
   17.4082  -23.8077   -8.5711 C   0  0  0  0  0  0  0  0  0  0  0  0
   17.1989  -24.8654   -7.9340 O   0  0  0  0  0  0  0  0  0  0  0  0
   18.7282  -23.4811   -9.1319 C   0  0  0  0  0  0  0  0  0  0  0  0
   19.6184  -22.9028   -8.1034 C   0  0  2  0  0  0  0  0  0  0  0  0
   20.9013  -22.5042   -8.5682 N   0  0  0  0  0  0  0  0  0  0  0  0
   19.5804  -23.6881   -6.8598 C   0  0  0  0  0  0  0  0  0  0  0  0
   18.4680  -23.7191   -6.0253 O   0  0  0  0  0  0  0  0  0  0  0  0
   20.5692  -24.3617   -6.5110 O   0  0  0  0  0  0  0  0  0  0  0  0
  2  1  1  6
  2  3  1  0
  4  2  1  0
  4  5  1  0
  5  7  1  0
  5  6  1  1
  7  8  2  0
 10 11  1  0
 10  9  1  0
 11 12  1  0
 13 12  1  1
 14 13  1  0
 14  7  1  0
 15 16  2  0
 15 13  1  0
 17 18  1  0
 18 20  1  0
 18 19  2  0
 21 20  1  6
 21 23  1  0
 21 22  1  0
 22 15  1  0
 23 24  1  0
 25 23  2  0
M  END
$$$$
