LMN.pdb
     RDKit          3D

 25 24  0  0  1  0  0  0  0  0999 V2000
   13.2856  -11.7361  -15.6570 C   0  0  0  0  0  0  0  0  0  0  0  0
   14.2947  -10.6149  -15.8437 C   0  0  2  0  0  0  0  0  0  0  0  0
   14.8750  -10.6717  -17.2607 C   0  0  0  0  0  0  0  0  0  0  0  0
   15.4316  -10.8111  -14.8775 C   0  0  0  0  0  0  0  0  0  0  0  0
   16.5676   -9.8491  -15.1629 C   0  0  2  0  0  0  0  0  0  0  0  0
   17.5569  -10.5701  -15.9412 N   0  0  0  0  0  0  0  0  0  0  0  0
   17.1490   -9.2806  -13.9224 C   0  0  0  0  0  0  0  0  0  0  0  0
   16.9146   -9.8358  -12.8278 O   0  0  0  0  0  0  0  0  0  0  0  0
   22.6618   -5.9376  -13.6297 C   0  0  0  0  0  0  0  0  0  0  0  0
   21.9492   -5.3786  -12.0635 S   0  0  0  0  0  0  0  0  0  0  0  0
   20.4087   -6.2595  -11.6865 C   0  0  0  0  0  0  0  0  0  0  0  0
   19.8175   -6.8157  -12.9580 C   0  0  0  0  0  0  0  0  0  0  0  0
   18.5372   -7.5527  -12.7358 C   0  0  2  0  0  0  0  0  0  0  0  0
   17.9728   -8.1116  -13.9378 N   0  0  0  0  0  0  0  0  0  0  0  0
   17.4939   -6.6739  -12.0977 C   0  0  0  0  0  0  0  0  0  0  0  0
   16.8558   -5.8407  -12.7806 O   0  0  0  0  0  0  0  0  0  0  0  0
   14.5934   -4.4265   -8.5221 N   0  0  0  0  0  0  0  0  0  0  0  0
   14.8239   -5.7394   -8.0370 C   0  0  0  0  0  0  0  0  0  0  0  0
   14.1961   -6.1106   -7.0190 O   0  0  0  0  0  0  0  0  0  0  0  0
   15.7785   -6.6179   -8.7302 C   0  0  0  0  0  0  0  0  0  0  0  0
   16.3231   -5.9673   -9.9405 C   0  0  2  0  0  0  0  0  0  0  0  0
   17.2090   -6.7682  -10.7115 N   0  0  0  0  0  0  0  0  0  0  0  0
   16.7532   -4.5886   -9.6595 C   0  0  0  0  0  0  0  0  0  0  0  0
   15.8806   -3.5063   -9.7037 O   0  0  0  0  0  0  0  0  0  0  0  0
   17.9408   -4.3474   -9.3690 O   0  0  0  0  0  0  0  0  0  0  0  0
  2  1  1  6
  2  3  1  0
  4  2  1  0
  4  5  1  0
  5  7  1  0
  5  6  1  1
  7  8  2  0
 10 11  1  0
 10  9  1  0
 11 12  1  0
 13 12  1  6
 14 13  1  0
 14  7  1  0
 15 16  2  0
 15 13  1  0
 17 18  1  0
 18 20  1  0
 18 19  2  0
 21 20  1  1
 21 23  1  0
 21 22  1  0
 22 15  1  0
 23 24  1  0
 25 23  2  0
M  END
$$$$
