LMN.pdb
     RDKit          3D

 25 24  0  0  1  0  0  0  0  0999 V2000
   18.1775  -13.0845  -18.5753 C   0  0  0  0  0  0  0  0  0  0  0  0
   19.3540  -13.8307  -17.9676 C   0  0  2  0  0  0  0  0  0  0  0  0
   18.8548  -15.0935  -17.2578 C   0  0  0  0  0  0  0  0  0  0  0  0
   20.0096  -12.9557  -16.9335 C   0  0  0  0  0  0  0  0  0  0  0  0
   20.5312  -11.6730  -17.5499 C   0  0  2  0  0  0  0  0  0  0  0  0
   21.5102  -12.0450  -18.5537 N   0  0  0  0  0  0  0  0  0  0  0  0
   21.1028  -10.7531  -16.5363 C   0  0  0  0  0  0  0  0  0  0  0  0
   20.4562  -10.5150  -15.4940 O   0  0  0  0  0  0  0  0  0  0  0  0
   27.5786  -12.2637  -15.1838 C   0  0  0  0  0  0  0  0  0  0  0  0
   26.8420  -10.6661  -15.6058 S   0  0  0  0  0  0  0  0  0  0  0  0
   25.0345  -10.7118  -15.4573 C   0  0  0  0  0  0  0  0  0  0  0  0
   24.4701   -9.3340  -15.6995 C   0  0  0  0  0  0  0  0  0  0  0  0
   22.9766   -9.3032  -15.6951 C   0  0  2  0  0  0  0  0  0  0  0  0
   22.3759  -10.1261  -16.7139 N   0  0  0  0  0  0  0  0  0  0  0  0
   22.4493   -7.9021  -15.8592 C   0  0  0  0  0  0  0  0  0  0  0  0
   22.5604   -7.3014  -16.9521 O   0  0  0  0  0  0  0  0  0  0  0  0
   19.3629   -6.5206  -16.4880 N   0  0  0  0  0  0  0  0  0  0  0  0
   18.9644   -6.1322  -15.1833 C   0  0  0  0  0  0  0  0  0  0  0  0
   17.7428   -6.1549  -14.9086 O   0  0  0  0  0  0  0  0  0  0  0  0
   19.9788   -5.7193  -14.2014 C   0  0  0  0  0  0  0  0  0  0  0  0
   21.3449   -5.8897  -14.7393 C   0  0  2  0  0  0  0  0  0  0  0  0
   21.8155   -7.2303  -14.7828 N   0  0  0  0  0  0  0  0  0  0  0  0
   22.2662   -4.8831  -14.1890 C   0  0  0  0  0  0  0  0  0  0  0  0
   22.0774   -3.5164  -14.3658 O   0  0  0  0  0  0  0  0  0  0  0  0
   23.2663   -5.2370  -13.5351 O   0  0  0  0  0  0  0  0  0  0  0  0
  2  1  1  1
  2  3  1  0
  4  2  1  0
  4  5  1  0
  5  7  1  0
  5  6  1  6
  7  8  2  0
 10 11  1  0
 10  9  1  0
 11 12  1  0
 13 12  1  6
 14 13  1  0
 14  7  1  0
 15 16  2  0
 15 13  1  0
 17 18  1  0
 18 20  1  0
 18 19  2  0
 21 20  1  1
 21 23  1  0
 21 22  1  0
 22 15  1  0
 23 24  1  0
 25 23  2  0
M  END
$$$$
