LMN.pdb
     RDKit          3D

 25 24  0  0  1  0  0  0  0  0999 V2000
   28.2657  -20.4080  -18.2078 C   0  0  0  0  0  0  0  0  0  0  0  0
   29.0754  -21.1222  -17.1380 C   0  0  2  0  0  0  0  0  0  0  0  0
   29.8368  -22.2960  -17.7628 C   0  0  0  0  0  0  0  0  0  0  0  0
   28.1366  -21.6859  -16.1057 C   0  0  0  0  0  0  0  0  0  0  0  0
   27.3595  -20.5856  -15.4107 C   0  0  2  0  0  0  0  0  0  0  0  0
   28.3235  -19.6091  -14.9400 N   0  0  0  0  0  0  0  0  0  0  0  0
   26.5153  -21.1038  -14.3065 C   0  0  0  0  0  0  0  0  0  0  0  0
   25.7671  -22.0821  -14.5171 O   0  0  0  0  0  0  0  0  0  0  0  0
   26.5557  -19.1505   -7.6079 C   0  0  0  0  0  0  0  0  0  0  0  0
   26.1700  -20.9010   -7.8527 S   0  0  0  0  0  0  0  0  0  0  0  0
   25.3596  -21.1821   -9.4513 C   0  0  0  0  0  0  0  0  0  0  0  0
   26.2798  -20.7578  -10.5687 C   0  0  0  0  0  0  0  0  0  0  0  0
   25.7116  -21.0160  -11.9260 C   0  0  2  0  0  0  0  0  0  0  0  0
   26.5292  -20.5171  -13.0022 N   0  0  0  0  0  0  0  0  0  0  0  0
   24.3356  -20.4222  -12.0743 C   0  0  0  0  0  0  0  0  0  0  0  0
   24.1846  -19.1878  -12.2199 O   0  0  0  0  0  0  0  0  0  0  0  0
   19.8320  -20.7426  -15.2282 N   0  0  0  0  0  0  0  0  0  0  0  0
   20.0205  -21.4633  -14.0211 C   0  0  0  0  0  0  0  0  0  0  0  0
   19.0077  -21.7578  -13.3458 O   0  0  0  0  0  0  0  0  0  0  0  0
   21.3780  -21.8411  -13.5993 C   0  0  0  0  0  0  0  0  0  0  0  0
   21.8783  -20.9423  -12.5379 C   0  0  2  0  0  0  0  0  0  0  0  0
   23.1799  -21.2442  -12.0529 N   0  0  0  0  0  0  0  0  0  0  0  0
   20.8415  -20.6775  -11.5282 C   0  0  0  0  0  0  0  0  0  0  0  0
   19.9073  -19.6556  -11.6617 O   0  0  0  0  0  0  0  0  0  0  0  0
   20.7720  -21.3778  -10.4997 O   0  0  0  0  0  0  0  0  0  0  0  0
  2  1  1  6
  2  3  1  0
  4  2  1  0
  4  5  1  0
  5  7  1  0
  5  6  1  1
  7  8  2  0
 10 11  1  0
 10  9  1  0
 11 12  1  0
 13 12  1  1
 14 13  1  0
 14  7  1  0
 15 16  2  0
 15 13  1  0
 17 18  1  0
 18 20  1  0
 18 19  2  0
 21 20  1  1
 21 23  1  0
 21 22  1  0
 22 15  1  0
 23 24  1  0
 25 23  2  0
M  END
$$$$
