LMN.pdb
     RDKit          3D

 25 24  0  0  1  0  0  0  0  0999 V2000
   27.9367  -19.2786  -18.1698 C   0  0  0  0  0  0  0  0  0  0  0  0
   28.8027  -20.0269  -17.1697 C   0  0  2  0  0  0  0  0  0  0  0  0
   29.6691  -21.0559  -17.9035 C   0  0  0  0  0  0  0  0  0  0  0  0
   27.9140  -20.7776  -16.2150 C   0  0  0  0  0  0  0  0  0  0  0  0
   26.9480  -19.8435  -15.5138 C   0  0  2  0  0  0  0  0  0  0  0  0
   27.7406  -18.8991  -14.7494 N   0  0  0  0  0  0  0  0  0  0  0  0
   25.9813  -20.5728  -14.6572 C   0  0  0  0  0  0  0  0  0  0  0  0
   25.4098  -21.5881  -15.1088 O   0  0  0  0  0  0  0  0  0  0  0  0
   25.2141  -20.4263   -7.9969 C   0  0  0  0  0  0  0  0  0  0  0  0
   26.7623  -20.7165   -8.8867 S   0  0  0  0  0  0  0  0  0  0  0  0
   26.4569  -21.1367  -10.6250 C   0  0  0  0  0  0  0  0  0  0  0  0
   25.0624  -20.7119  -11.0127 C   0  0  0  0  0  0  0  0  0  0  0  0
   24.7812  -20.8831  -12.4699 C   0  0  2  0  0  0  0  0  0  0  0  0
   25.6797  -20.1497  -13.3246 N   0  0  0  0  0  0  0  0  0  0  0  0
   23.3737  -20.4743  -12.8158 C   0  0  0  0  0  0  0  0  0  0  0  0
   23.0500  -19.2653  -12.8519 O   0  0  0  0  0  0  0  0  0  0  0  0
   21.3970  -21.1118  -16.3124 N   0  0  0  0  0  0  0  0  0  0  0  0
   21.1076  -22.3123  -15.6145 C   0  0  0  0  0  0  0  0  0  0  0  0
   21.4586  -23.3961  -16.1347 O   0  0  0  0  0  0  0  0  0  0  0  0
   20.4142  -22.2557  -14.3185 C   0  0  0  0  0  0  0  0  0  0  0  0
   21.0152  -21.2352  -13.4341 C   0  0  2  0  0  0  0  0  0  0  0  0
   22.3827  -21.4459  -13.1085 N   0  0  0  0  0  0  0  0  0  0  0  0
   20.1154  -20.8949  -12.3208 C   0  0  0  0  0  0  0  0  0  0  0  0
   20.3088  -21.3690  -11.0275 O   0  0  0  0  0  0  0  0  0  0  0  0
   19.1303  -20.1560  -12.5119 O   0  0  0  0  0  0  0  0  0  0  0  0
  2  1  1  6
  2  3  1  0
  4  2  1  0
  4  5  1  0
  5  7  1  0
  5  6  1  1
  7  8  2  0
 10 11  1  0
 10  9  1  0
 11 12  1  0
 13 12  1  1
 14 13  1  0
 14  7  1  0
 15 16  2  0
 15 13  1  0
 17 18  1  0
 18 20  1  0
 18 19  2  0
 21 20  1  1
 21 23  1  0
 21 22  1  0
 22 15  1  0
 23 24  1  0
 25 23  2  0
M  END
$$$$
