LMN.pdb
     RDKit          3D

 25 24  0  0  1  0  0  0  0  0999 V2000
   31.8879  -31.8013  -23.6777 C   0  0  0  0  0  0  0  0  0  0  0  0
   33.1730  -32.1541  -22.9469 C   0  0  2  0  0  0  0  0  0  0  0  0
   33.5919  -33.5854  -23.2985 C   0  0  0  0  0  0  0  0  0  0  0  0
   32.9244  -32.1035  -21.4635 C   0  0  0  0  0  0  0  0  0  0  0  0
   32.5389  -30.7069  -21.0183 C   0  0  2  0  0  0  0  0  0  0  0  0
   33.7022  -29.8600  -21.2024 N   0  0  0  0  0  0  0  0  0  0  0  0
   32.0509  -30.6770  -19.6179 C   0  0  0  0  0  0  0  0  0  0  0  0
   32.8787  -30.6174  -18.6838 O   0  0  0  0  0  0  0  0  0  0  0  0
   28.1744  -26.3167  -17.0049 C   0  0  0  0  0  0  0  0  0  0  0  0
   29.3376  -27.0867  -15.8529 S   0  0  0  0  0  0  0  0  0  0  0  0
   29.5201  -28.8608  -16.1851 C   0  0  0  0  0  0  0  0  0  0  0  0
   30.0434  -29.0641  -17.5852 C   0  0  0  0  0  0  0  0  0  0  0  0
   30.1678  -30.5046  -17.9612 C   0  0  2  0  0  0  0  0  0  0  0  0
   30.6570  -30.7151  -19.2999 N   0  0  0  0  0  0  0  0  0  0  0  0
   28.8542  -31.2289  -17.8274 C   0  0  0  0  0  0  0  0  0  0  0  0
   27.9174  -31.0065  -18.6278 O   0  0  0  0  0  0  0  0  0  0  0  0
   26.4344  -36.0303  -14.6897 N   0  0  0  0  0  0  0  0  0  0  0  0
   26.5012  -34.9382  -15.5924 C   0  0  0  0  0  0  0  0  0  0  0  0
   25.5994  -34.8298  -16.4546 O   0  0  0  0  0  0  0  0  0  0  0  0
   27.6093  -33.9758  -15.4950 C   0  0  0  0  0  0  0  0  0  0  0  0
   27.4515  -32.8772  -16.4712 C   0  0  2  0  0  0  0  0  0  0  0  0
   28.6464  -32.1785  -16.7945 N   0  0  0  0  0  0  0  0  0  0  0  0
   26.2678  -32.0577  -16.1680 C   0  0  0  0  0  0  0  0  0  0  0  0
   26.2582  -31.0956  -15.1635 O   0  0  0  0  0  0  0  0  0  0  0  0
   25.2153  -32.2086  -16.8180 O   0  0  0  0  0  0  0  0  0  0  0  0
  2  1  1  6
  2  3  1  0
  4  2  1  0
  4  5  1  0
  5  7  1  0
  5  6  1  1
  7  8  2  0
 10 11  1  0
 10  9  1  0
 11 12  1  0
 13 12  1  6
 14 13  1  0
 14  7  1  0
 15 16  2  0
 15 13  1  0
 17 18  1  0
 18 20  1  0
 18 19  2  0
 21 20  1  1
 21 23  1  0
 21 22  1  0
 22 15  1  0
 23 24  1  0
 25 23  2  0
M  END
$$$$
