LMN.pdb
     RDKit          3D

 25 24  0  0  1  0  0  0  0  0999 V2000
   27.8300  -15.5413  -15.3827 C   0  0  0  0  0  0  0  0  0  0  0  0
   27.7828  -16.7122  -16.3508 C   0  0  2  0  0  0  0  0  0  0  0  0
   26.9564  -16.3312  -17.5836 C   0  0  0  0  0  0  0  0  0  0  0  0
   27.0970  -17.8739  -15.6838 C   0  0  0  0  0  0  0  0  0  0  0  0
   28.0480  -19.0389  -15.4953 C   0  0  2  0  0  0  0  0  0  0  0  0
   28.2414  -19.6514  -16.7961 N   0  0  0  0  0  0  0  0  0  0  0  0
   27.5516  -20.0147  -14.4945 C   0  0  0  0  0  0  0  0  0  0  0  0
   26.8056  -20.9454  -14.8668 O   0  0  0  0  0  0  0  0  0  0  0  0
   32.1905  -22.2176   -9.8357 C   0  0  0  0  0  0  0  0  0  0  0  0
   30.5509  -21.4903   -9.5995 S   0  0  0  0  0  0  0  0  0  0  0  0
   29.5839  -21.5276  -11.1340 C   0  0  0  0  0  0  0  0  0  0  0  0
   28.2209  -20.9291  -10.8900 C   0  0  0  0  0  0  0  0  0  0  0  0
   27.3877  -20.8447  -12.1271 C   0  0  2  0  0  0  0  0  0  0  0  0
   27.8999  -19.9246  -13.1103 N   0  0  0  0  0  0  0  0  0  0  0  0
   25.9687  -20.4486  -11.8150 C   0  0  0  0  0  0  0  0  0  0  0  0
   25.6959  -19.2816  -11.4524 O   0  0  0  0  0  0  0  0  0  0  0  0
   22.9976  -22.4393  -15.0000 N   0  0  0  0  0  0  0  0  0  0  0  0
   22.7223  -21.4959  -13.9771 C   0  0  0  0  0  0  0  0  0  0  0  0
   22.5761  -20.2962  -14.3053 O   0  0  0  0  0  0  0  0  0  0  0  0
   22.6168  -21.9425  -12.5796 C   0  0  0  0  0  0  0  0  0  0  0  0
   23.5214  -21.1710  -11.7015 C   0  0  2  0  0  0  0  0  0  0  0  0
   24.9090  -21.3850  -11.9241 N   0  0  0  0  0  0  0  0  0  0  0  0
   23.0639  -21.2005  -10.3034 C   0  0  0  0  0  0  0  0  0  0  0  0
   21.7543  -20.9098   -9.9358 O   0  0  0  0  0  0  0  0  0  0  0  0
   23.8578  -21.4921   -9.3881 O   0  0  0  0  0  0  0  0  0  0  0  0
  2  1  1  1
  2  3  1  0
  4  2  1  0
  4  5  1  0
  5  7  1  0
  5  6  1  6
  7  8  2  0
 10 11  1  0
 10  9  1  0
 11 12  1  0
 13 12  1  1
 14 13  1  0
 14  7  1  0
 15 16  2  0
 15 13  1  0
 17 18  1  0
 18 20  1  0
 18 19  2  0
 21 20  1  6
 21 23  1  0
 21 22  1  0
 22 15  1  0
 23 24  1  0
 25 23  2  0
M  END
$$$$
