LMN.pdb
     RDKit          3D

 25 24  0  0  1  0  0  0  0  0999 V2000
   19.9670  -14.5592  -20.2942 C   0  0  0  0  0  0  0  0  0  0  0  0
   19.1915  -14.9454  -19.0453 C   0  0  2  0  0  0  0  0  0  0  0  0
   17.6896  -14.7727  -19.2947 C   0  0  0  0  0  0  0  0  0  0  0  0
   19.5763  -14.0203  -17.9224 C   0  0  0  0  0  0  0  0  0  0  0  0
   21.0670  -14.0732  -17.6532 C   0  0  2  0  0  0  0  0  0  0  0  0
   21.3714  -15.4095  -17.1779 N   0  0  0  0  0  0  0  0  0  0  0  0
   21.5024  -13.0326  -16.6899 C   0  0  0  0  0  0  0  0  0  0  0  0
   20.9133  -12.9312  -15.5927 O   0  0  0  0  0  0  0  0  0  0  0  0
   27.3319   -9.9482  -15.7839 C   0  0  0  0  0  0  0  0  0  0  0  0
   26.9648  -11.6619  -15.3352 S   0  0  0  0  0  0  0  0  0  0  0  0
   25.1763  -11.9546  -15.2511 C   0  0  0  0  0  0  0  0  0  0  0  0
   24.4482  -10.8698  -16.0053 C   0  0  0  0  0  0  0  0  0  0  0  0
   22.9720  -11.0896  -16.0687 C   0  0  2  0  0  0  0  0  0  0  0  0
   22.5794  -12.1365  -16.9774 N   0  0  0  0  0  0  0  0  0  0  0  0
   22.2398   -9.8339  -16.4627 C   0  0  0  0  0  0  0  0  0  0  0  0
   22.2981   -9.4018  -17.6364 O   0  0  0  0  0  0  0  0  0  0  0  0
   19.3096   -5.6951  -16.3756 N   0  0  0  0  0  0  0  0  0  0  0  0
   18.5722   -6.7929  -15.8625 C   0  0  0  0  0  0  0  0  0  0  0  0
   17.3322   -6.6657  -15.7420 O   0  0  0  0  0  0  0  0  0  0  0  0
   19.2705   -8.0331  -15.4911 C   0  0  0  0  0  0  0  0  0  0  0  0
   20.7264   -7.9161  -15.7176 C   0  0  2  0  0  0  0  0  0  0  0  0
   21.4683   -9.1119  -15.5166 N   0  0  0  0  0  0  0  0  0  0  0  0
   21.2666   -6.6921  -15.1053 C   0  0  0  0  0  0  0  0  0  0  0  0
   21.7257   -5.6161  -15.8577 O   0  0  0  0  0  0  0  0  0  0  0  0
   21.3307   -6.5849  -13.8654 O   0  0  0  0  0  0  0  0  0  0  0  0
  2  1  1  6
  2  3  1  0
  4  2  1  0
  4  5  1  0
  5  7  1  0
  5  6  1  1
  7  8  2  0
 10 11  1  0
 10  9  1  0
 11 12  1  0
 13 12  1  6
 14 13  1  0
 14  7  1  0
 15 16  2  0
 15 13  1  0
 17 18  1  0
 18 20  1  0
 18 19  2  0
 21 20  1  1
 21 23  1  0
 21 22  1  0
 22 15  1  0
 23 24  1  0
 25 23  2  0
M  END
$$$$
