LMN.pdb
     RDKit          3D

 25 24  0  0  1  0  0  0  0  0999 V2000
   18.7602  -13.6015    3.2587 C   0  0  0  0  0  0  0  0  0  0  0  0
   18.3903  -12.8465    4.5249 C   0  0  2  0  0  0  0  0  0  0  0  0
   19.4147  -11.7367    4.7834 C   0  0  0  0  0  0  0  0  0  0  0  0
   18.4395  -13.7932    5.6937 C   0  0  0  0  0  0  0  0  0  0  0  0
   17.6181  -15.0388    5.4267 C   0  0  2  0  0  0  0  0  0  0  0  0
   16.2235  -14.6809    5.6041 N   0  0  0  0  0  0  0  0  0  0  0  0
   18.0124  -16.1710    6.3001 C   0  0  0  0  0  0  0  0  0  0  0  0
   17.6131  -16.1971    7.4838 O   0  0  0  0  0  0  0  0  0  0  0  0
   16.9985  -22.5740    4.1753 C   0  0  0  0  0  0  0  0  0  0  0  0
   18.5333  -21.7745    4.7027 S   0  0  0  0  0  0  0  0  0  0  0  0
   18.2002  -20.2570    5.6394 C   0  0  0  0  0  0  0  0  0  0  0  0
   19.5030  -19.5982    6.0191 C   0  0  0  0  0  0  0  0  0  0  0  0
   19.3175  -18.2821    6.7011 C   0  0  2  0  0  0  0  0  0  0  0  0
   18.8392  -17.2391    5.8298 N   0  0  0  0  0  0  0  0  0  0  0  0
   20.5938  -17.8036    7.3414 C   0  0  0  0  0  0  0  0  0  0  0  0
   21.4037  -17.0953    6.7009 O   0  0  0  0  0  0  0  0  0  0  0  0
   23.5966  -14.3395   10.3219 N   0  0  0  0  0  0  0  0  0  0  0  0
   23.3145  -15.7224   10.1798 C   0  0  0  0  0  0  0  0  0  0  0  0
   24.0929  -16.5415   10.7197 O   0  0  0  0  0  0  0  0  0  0  0  0
   22.1343  -16.1531    9.4148 C   0  0  0  0  0  0  0  0  0  0  0  0
   21.9459  -17.6166    9.5003 C   0  0  2  0  0  0  0  0  0  0  0  0
   20.9090  -18.1422    8.6822 N   0  0  0  0  0  0  0  0  0  0  0  0
   21.9864  -18.0808   10.8959 C   0  0  0  0  0  0  0  0  0  0  0  0
   20.9328  -18.7682   11.4892 O   0  0  0  0  0  0  0  0  0  0  0  0
   22.9901  -17.8634   11.6019 O   0  0  0  0  0  0  0  0  0  0  0  0
  2  1  1  6
  2  3  1  0
  4  2  1  0
  4  5  1  0
  5  7  1  0
  5  6  1  1
  7  8  2  0
 10 11  1  0
 10  9  1  0
 11 12  1  0
 13 12  1  6
 14 13  1  0
 14  7  1  0
 15 16  2  0
 15 13  1  0
 17 18  1  0
 18 20  1  0
 18 19  2  0
 21 20  1  1
 21 23  1  0
 21 22  1  0
 22 15  1  0
 23 24  1  0
 25 23  2  0
M  END
$$$$
