RCS.pdb
     RDKit          3D

 24 23  0  0  1  0  0  0  0  0999 V2000
    7.9636  -14.2924   18.1980 N   0  0  0  0  0  0  0  0  0  0  0  0
    7.9588  -13.2110   19.1235 C   0  0  0  0  0  0  0  0  0  0  0  0
    8.8507  -12.2611   19.1119 N   0  0  0  0  0  0  0  0  0  0  0  0
    6.9487  -13.1163   20.1344 N   0  0  0  0  0  0  0  0  0  0  0  0
    6.8207  -14.1486   21.1484 C   0  0  0  0  0  0  0  0  0  0  0  0
    7.9337  -15.1388   21.0113 C   0  0  0  0  0  0  0  0  0  0  0  0
    8.5498  -15.5957   22.2889 C   0  0  0  0  0  0  0  0  0  0  0  0
    9.9687  -15.1900   22.4991 C   0  0  2  0  0  0  0  0  0  0  0  0
   10.9063  -15.6745   21.5393 N   0  0  0  0  0  0  0  0  0  0  0  0
   10.3911  -15.6699   23.8542 C   0  0  0  0  0  0  0  0  0  0  0  0
   11.1279  -16.6599   23.9883 O   0  0  0  0  0  0  0  0  0  0  0  0
    8.7138  -11.4859   19.7897 N   0  0  0  0  0  0  0  0  0  0  0  0
    9.9053  -14.9358   24.9785 C   0  0  1  0  0  0  0  0  0  0  0  0
   10.5380  -15.2301   26.2837 C   0  0  0  0  0  0  0  0  0  0  0  0
   10.0258  -14.1249   27.1941 S   0  0  0  0  0  0  0  0  0  0  0  0
    8.2231  -14.0828   27.2452 C   0  0  0  0  0  0  0  0  0  0  0  0
   10.0607  -16.5371   26.7601 O   0  0  0  0  0  0  0  0  0  0  0  0
    8.9412  -17.0230   26.4334 O   0  0  0  0  0  0  0  0  0  0  0  0
   10.8759  -19.9741   26.1951 C   0  0  0  0  0  0  0  0  0  0  0  0
   11.2997  -19.6646   27.4657 C   0  0  2  0  0  0  0  0  0  0  0  0
   10.3831  -18.6198   28.0932 N   0  0  0  0  0  0  0  0  0  0  0  0
   10.8569  -17.3244   27.6249 C   0  0  0  0  0  0  0  0  0  0  0  0
   10.5266  -18.6495   29.5660 O   0  0  0  0  0  0  0  0  0  0  0  0
   11.0105  -17.6570   30.2067 O   0  0  0  0  0  0  0  0  0  0  0  0
  1  2  1  0
  2  3  2  0
  4  5  1  0
  4  2  1  0
  6  7  1  0
  6  5  1  0
  7  8  1  0
  8 10  1  0
  8  9  1  6
 10 11  2  0
 10 12  1  0
 12 13  1  0
 13 16  1  0
 13 14  1  1
 14 15  1  0
 16 17  2  0
 18 19  1  0
 20 19  1  6
 21 20  1  0
 21 16  1  0
 22 24  1  0
 22 20  1  0
 23 22  2  0
M  END
$$$$
