RCS.pdb
     RDKit          3D

 24 23  0  0  1  0  0  0  0  0999 V2000
    7.6564  -14.4709   14.2396 N   0  0  0  0  0  0  0  0  0  0  0  0
    7.9695  -15.8578   14.3077 C   0  0  0  0  0  0  0  0  0  0  0  0
    8.7073  -16.4647   13.4215 N   0  0  0  0  0  0  0  0  0  0  0  0
    7.4752  -16.6687   15.3797 N   0  0  0  0  0  0  0  0  0  0  0  0
    8.1427  -16.6727   16.6701 C   0  0  0  0  0  0  0  0  0  0  0  0
    7.8799  -15.3846   17.3840 C   0  0  0  0  0  0  0  0  0  0  0  0
    8.5565  -15.2299   18.7027 C   0  0  0  0  0  0  0  0  0  0  0  0
    8.2197  -13.9884   19.4559 C   0  0  2  0  0  0  0  0  0  0  0  0
    8.7129  -12.7690   18.9039 N   0  0  0  0  0  0  0  0  0  0  0  0
    8.7611  -14.1294   20.8458 C   0  0  0  0  0  0  0  0  0  0  0  0
    9.9597  -13.9253   21.0961 O   0  0  0  0  0  0  0  0  0  0  0  0
    9.0238  -17.4253   13.6586 N   0  0  0  0  0  0  0  0  0  0  0  0
    7.8342  -14.5095   21.8634 C   0  0  1  0  0  0  0  0  0  0  0  0
    8.3902  -14.7208   23.2186 C   0  0  0  0  0  0  0  0  0  0  0  0
    7.1942  -14.5250   24.1374 S   0  0  0  0  0  0  0  0  0  0  0  0
    6.9124  -12.7816   24.5053 C   0  0  0  0  0  0  0  0  0  0  0  0
    8.8831  -16.1027   23.3207 O   0  0  0  0  0  0  0  0  0  0  0  0
    8.6175  -16.9942   22.4660 O   0  0  0  0  0  0  0  0  0  0  0  0
   12.4299  -18.4451   23.0719 C   0  0  0  0  0  0  0  0  0  0  0  0
   11.5271  -17.4138   23.1774 C   0  0  1  0  0  0  0  0  0  0  0  0
   10.5399  -17.6836   24.3080 N   0  0  0  0  0  0  0  0  0  0  0  0
    9.6971  -16.4997   24.4077 C   0  0  0  0  0  0  0  0  0  0  0  0
   11.2717  -17.8280   25.5863 O   0  0  0  0  0  0  0  0  0  0  0  0
   11.1920  -16.9415   26.5014 O   0  0  0  0  0  0  0  0  0  0  0  0
  1  2  1  0
  2  3  2  0
  4  5  1  0
  4  2  1  0
  6  7  1  0
  6  5  1  0
  7  8  1  0
  8 10  1  0
  8  9  1  6
 10 11  2  0
 10 12  1  0
 12 13  1  0
 13 16  1  0
 13 14  1  6
 14 15  1  0
 16 17  2  0
 18 19  1  0
 20 19  1  6
 21 20  1  0
 21 16  1  0
 22 24  1  0
 22 20  1  0
 23 22  2  0
M  END
$$$$
