RCS.pdb
     RDKit          3D

 24 23  0  0  1  0  0  0  0  0999 V2000
    7.8206  -16.4960   14.1388 N   0  0  0  0  0  0  0  0  0  0  0  0
    8.2011  -16.4984   15.5104 C   0  0  0  0  0  0  0  0  0  0  0  0
    7.8164  -17.4144   16.3536 N   0  0  0  0  0  0  0  0  0  0  0  0
    9.0446  -15.4684   16.0385 N   0  0  0  0  0  0  0  0  0  0  0  0
    9.4786  -15.5086   17.4243 C   0  0  0  0  0  0  0  0  0  0  0  0
    8.5190  -14.7454   18.2814 C   0  0  0  0  0  0  0  0  0  0  0  0
    8.7668  -14.8203   19.7490 C   0  0  0  0  0  0  0  0  0  0  0  0
    7.8139  -14.0540   20.6014 C   0  0  2  0  0  0  0  0  0  0  0  0
    7.5392  -12.7173   20.1862 N   0  0  0  0  0  0  0  0  0  0  0  0
    8.3694  -14.0106   21.9923 C   0  0  0  0  0  0  0  0  0  0  0  0
    9.5048  -13.5639   22.2208 O   0  0  0  0  0  0  0  0  0  0  0  0
    8.1531  -17.3175   17.3316 N   0  0  0  0  0  0  0  0  0  0  0  0
    7.5320  -14.5073   23.0369 C   0  0  1  0  0  0  0  0  0  0  0  0
    8.1356  -14.5884   24.3858 C   0  0  0  0  0  0  0  0  0  0  0  0
    6.9804  -14.2675   25.3214 S   0  0  0  0  0  0  0  0  0  0  0  0
    6.4658  -12.5442   25.1814 C   0  0  0  0  0  0  0  0  0  0  0  0
    8.6034  -15.9636   24.6160 O   0  0  0  0  0  0  0  0  0  0  0  0
    7.9728  -16.9824   24.2155 O   0  0  0  0  0  0  0  0  0  0  0  0
   12.4302  -18.6839   25.1072 C   0  0  0  0  0  0  0  0  0  0  0  0
   11.8041  -17.4701   24.9502 C   0  0  1  0  0  0  0  0  0  0  0  0
   10.3514  -17.5572   25.4059 N   0  0  0  0  0  0  0  0  0  0  0  0
    9.8107  -16.2078   25.3122 C   0  0  0  0  0  0  0  0  0  0  0  0
   10.2974  -17.9694   26.8264 O   0  0  0  0  0  0  0  0  0  0  0  0
    9.9261  -17.1586   27.7400 O   0  0  0  0  0  0  0  0  0  0  0  0
  1  2  1  0
  2  3  2  0
  4  5  1  0
  4  2  1  0
  6  7  1  0
  6  5  1  0
  7  8  1  0
  8 10  1  0
  8  9  1  6
 10 11  2  0
 10 12  1  0
 12 13  1  0
 13 16  1  0
 13 14  1  6
 14 15  1  0
 16 17  2  0
 18 19  1  0
 20 19  1  6
 21 20  1  0
 21 16  1  0
 22 24  1  0
 22 20  1  0
 23 22  2  0
M  END
$$$$
