RCS.pdb
     RDKit          3D

 24 23  0  0  1  0  0  0  0  0999 V2000
   10.2001  -13.1926   18.5491 N   0  0  0  0  0  0  0  0  0  0  0  0
    8.9374  -12.7458   18.0674 C   0  0  0  0  0  0  0  0  0  0  0  0
    8.3503  -11.6679   18.5049 N   0  0  0  0  0  0  0  0  0  0  0  0
    8.2381  -13.4791   17.0554 N   0  0  0  0  0  0  0  0  0  0  0  0
    8.7039  -14.7910   16.6401 C   0  0  0  0  0  0  0  0  0  0  0  0
    8.5047  -15.7768   17.7476 C   0  0  0  0  0  0  0  0  0  0  0  0
    9.7009  -16.0426   18.5957 C   0  0  0  0  0  0  0  0  0  0  0  0
    9.5426  -17.1243   19.6090 C   0  0  2  0  0  0  0  0  0  0  0  0
    8.2663  -17.7601   19.6507 N   0  0  0  0  0  0  0  0  0  0  0  0
    9.8210  -16.5376   20.9592 C   0  0  0  0  0  0  0  0  0  0  0  0
   10.9347  -16.0679   21.2424 O   0  0  0  0  0  0  0  0  0  0  0  0
    7.4050  -11.4658   18.1244 N   0  0  0  0  0  0  0  0  0  0  0  0
    8.7468  -16.5464   21.9001 C   0  0  1  0  0  0  0  0  0  0  0  0
    9.0278  -15.9598   23.2295 C   0  0  0  0  0  0  0  0  0  0  0  0
    7.7176  -15.2918   23.6169 S   0  0  0  0  0  0  0  0  0  0  0  0
    7.7063  -14.7985   25.3521 C   0  0  0  0  0  0  0  0  0  0  0  0
    9.3381  -17.0450   24.1725 O   0  0  0  0  0  0  0  0  0  0  0  0
    8.5383  -17.9902   24.4232 O   0  0  0  0  0  0  0  0  0  0  0  0
   13.1692  -17.6735   25.0067 C   0  0  0  0  0  0  0  0  0  0  0  0
   12.2863  -18.7200   25.1297 C   0  0  1  0  0  0  0  0  0  0  0  0
   10.9471  -18.2267   25.6671 N   0  0  0  0  0  0  0  0  0  0  0  0
   10.5777  -17.0760   24.8539 C   0  0  0  0  0  0  0  0  0  0  0  0
   11.1096  -17.7620   27.0628 O   0  0  0  0  0  0  0  0  0  0  0  0
   10.9440  -16.5361   27.3786 O   0  0  0  0  0  0  0  0  0  0  0  0
  1  2  1  0
  2  3  2  0
  4  5  1  0
  4  2  1  0
  6  7  1  0
  6  5  1  0
  7  8  1  0
  8 10  1  0
  8  9  1  1
 10 11  2  0
 10 12  1  0
 12 13  1  0
 13 16  1  0
 13 14  1  1
 14 15  1  0
 16 17  2  0
 18 19  1  0
 20 19  1  6
 21 20  1  0
 21 16  1  0
 22 24  1  0
 22 20  1  0
 23 22  2  0
M  END
$$$$
