RCS.pdb
     RDKit          3D

 24 23  0  0  1  0  0  0  0  0999 V2000
   11.1218  -22.2046   15.6386 N   0  0  0  0  0  0  0  0  0  0  0  0
   11.5499  -22.2972   16.9929 C   0  0  0  0  0  0  0  0  0  0  0  0
   12.0840  -23.3732   17.4979 N   0  0  0  0  0  0  0  0  0  0  0  0
   11.4092  -21.1845   17.8836 N   0  0  0  0  0  0  0  0  0  0  0  0
   10.1156  -20.8593   18.4592 C   0  0  0  0  0  0  0  0  0  0  0  0
    9.6433  -19.5388   17.9384 C   0  0  0  0  0  0  0  0  0  0  0  0
   10.2293  -18.3391   18.6002 C   0  0  0  0  0  0  0  0  0  0  0  0
    9.3333  -17.6327   19.5595 C   0  0  2  0  0  0  0  0  0  0  0  0
    8.2563  -16.8961   18.9829 N   0  0  0  0  0  0  0  0  0  0  0  0
   10.1716  -16.6882   20.3657 C   0  0  0  0  0  0  0  0  0  0  0  0
   10.6163  -15.6385   19.8744 O   0  0  0  0  0  0  0  0  0  0  0  0
   12.3205  -23.3448   18.5091 N   0  0  0  0  0  0  0  0  0  0  0  0
   10.4333  -17.0544   21.7210 C   0  0  2  0  0  0  0  0  0  0  0  0
   11.3354  -16.1632   22.4841 C   0  0  0  0  0  0  0  0  0  0  0  0
   10.4736  -15.6740   23.6376 S   0  0  0  0  0  0  0  0  0  0  0  0
    9.7764  -17.0455   24.5796 C   0  0  0  0  0  0  0  0  0  0  0  0
   12.4633  -16.9548   22.9983 O   0  0  0  0  0  0  0  0  0  0  0  0
   12.3543  -18.1640   23.3475 O   0  0  0  0  0  0  0  0  0  0  0  0
   16.2061  -15.4438   22.6037 C   0  0  0  0  0  0  0  0  0  0  0  0
   16.0457  -16.8088   22.6313 C   0  0  1  0  0  0  0  0  0  0  0  0
   14.8852  -17.1905   23.5441 N   0  0  0  0  0  0  0  0  0  0  0  0
   13.7498  -16.3799   23.1247 C   0  0  0  0  0  0  0  0  0  0  0  0
   15.2092  -16.8279   24.9420 O   0  0  0  0  0  0  0  0  0  0  0  0
   16.2255  -17.3199   25.5376 O   0  0  0  0  0  0  0  0  0  0  0  0
  1  2  1  0
  2  3  2  0
  4  5  1  0
  4  2  1  0
  6  7  1  0
  6  5  1  0
  7  8  1  0
  8 10  1  0
  8  9  1  6
 10 11  2  0
 10 12  1  0
 12 13  1  0
 13 16  1  0
 13 14  1  6
 14 15  1  0
 16 17  2  0
 18 19  1  0
 20 19  1  6
 21 20  1  0
 21 16  1  0
 22 24  1  0
 22 20  1  0
 23 22  2  0
M  END
$$$$
