RCS.pdb
     RDKit          3D

 24 23  0  0  1  0  0  0  0  0999 V2000
    8.7523  -15.7105   15.2802 N   0  0  0  0  0  0  0  0  0  0  0  0
    8.0772  -14.6434   14.6232 C   0  0  0  0  0  0  0  0  0  0  0  0
    8.0988  -14.4768   13.3310 N   0  0  0  0  0  0  0  0  0  0  0  0
    7.3258  -13.6808   15.3714 N   0  0  0  0  0  0  0  0  0  0  0  0
    7.0017  -13.9209   16.7671 C   0  0  0  0  0  0  0  0  0  0  0  0
    8.2495  -14.2205   17.5359 C   0  0  0  0  0  0  0  0  0  0  0  0
    8.3824  -13.5211   18.8451 C   0  0  0  0  0  0  0  0  0  0  0  0
    7.7552  -14.2105   20.0084 C   0  0  2  0  0  0  0  0  0  0  0  0
    6.4566  -13.7525   20.3810 N   0  0  0  0  0  0  0  0  0  0  0  0
    8.6668  -14.0517   21.1868 C   0  0  0  0  0  0  0  0  0  0  0  0
    8.7588  -12.9715   21.7915 O   0  0  0  0  0  0  0  0  0  0  0  0
    7.5506  -13.6781   12.9556 N   0  0  0  0  0  0  0  0  0  0  0  0
    9.4220  -15.1991   21.5771 C   0  0  1  0  0  0  0  0  0  0  0  0
   10.2991  -15.0425   22.7588 C   0  0  0  0  0  0  0  0  0  0  0  0
    9.3302  -14.7609   23.8967 S   0  0  0  0  0  0  0  0  0  0  0  0
    8.0596  -16.0352   24.0234 C   0  0  0  0  0  0  0  0  0  0  0  0
   11.0042  -16.3105   22.9996 O   0  0  0  0  0  0  0  0  0  0  0  0
   10.4844  -17.4408   22.7800 O   0  0  0  0  0  0  0  0  0  0  0  0
   14.9701  -16.1589   23.8365 C   0  0  0  0  0  0  0  0  0  0  0  0
   14.4906  -17.2856   23.2115 C   0  0  1  0  0  0  0  0  0  0  0  0
   13.0573  -17.5683   23.6490 N   0  0  0  0  0  0  0  0  0  0  0  0
   12.3281  -16.3163   23.4986 C   0  0  0  0  0  0  0  0  0  0  0  0
   13.0360  -17.9359   25.0825 O   0  0  0  0  0  0  0  0  0  0  0  0
   12.4281  -17.2162   25.9441 O   0  0  0  0  0  0  0  0  0  0  0  0
  1  2  1  0
  2  3  2  0
  4  5  1  0
  4  2  1  0
  6  7  1  0
  6  5  1  0
  7  8  1  0
  8 10  1  0
  8  9  1  1
 10 11  2  0
 10 12  1  0
 12 13  1  0
 13 16  1  0
 13 14  1  1
 14 15  1  0
 16 17  2  0
 18 19  1  0
 20 19  1  6
 21 20  1  0
 21 16  1  0
 22 24  1  0
 22 20  1  0
 23 22  2  0
M  END
$$$$
