HRM.pdb
     RDKit          3D

 30 30  0  0  1  0  0  0  0  0999 V2000
   26.4853  -20.3801  -16.4942 N   0  0  0  0  0  0  0  0  0  0  0  0
   26.8518  -21.0282  -15.2484 C   0  0  1  0  0  0  0  0  0  0  0  0
   28.3610  -21.0771  -15.1773 C   0  0  0  0  0  0  0  0  0  0  0  0
   28.8606  -21.9275  -16.2827 C   0  0  0  0  0  0  0  0  0  0  0  0
   29.4680  -21.5490  -17.4661 C   0  0  0  0  0  0  0  0  0  0  0  0
   29.7706  -22.6320  -18.2022 N   0  0  0  0  0  0  0  0  0  0  0  0
   29.3665  -23.7020  -17.5092 C   0  0  0  0  0  0  0  0  0  0  0  0
   28.8191  -23.2903  -16.3560 N   0  0  0  0  0  0  0  0  0  0  0  0
   26.2566  -20.3065  -14.1115 C   0  0  0  0  0  0  0  0  0  0  0  0
   26.3619  -19.0650  -14.0500 O   0  0  0  0  0  0  0  0  0  0  0  0
   19.8030  -22.7566  -14.5821 N   0  0  0  0  0  0  0  0  0  0  0  0
   19.9248  -22.4356  -13.2161 C   0  0  0  0  0  0  0  0  0  0  0  0
   19.0895  -22.8525  -12.3031 N   0  0  0  0  0  0  0  0  0  0  0  0
   20.9927  -21.6131  -12.7194 N   0  0  0  0  0  0  0  0  0  0  0  0
   21.5498  -20.5898  -13.5805 C   0  0  0  0  0  0  0  0  0  0  0  0
   22.5933  -19.7771  -12.8483 C   0  0  0  0  0  0  0  0  0  0  0  0
   23.4340  -20.6552  -11.9616 C   0  0  0  0  0  0  0  0  0  0  0  0
   24.8994  -20.3160  -12.0174 C   0  0  2  0  0  0  0  0  0  0  0  0
   25.5774  -21.0304  -13.1107 N   0  0  0  0  0  0  0  0  0  0  0  0
   25.4801  -20.8025  -10.7145 C   0  0  0  0  0  0  0  0  0  0  0  0
   25.7416  -22.0445  -10.6791 O   0  0  0  0  0  0  0  0  0  0  0  0
   19.2649  -22.5304  -11.3354 C   0  0  0  0  0  0  0  0  0  0  0  0
   29.2815  -19.2060   -3.9651 S   0  0  0  0  0  0  0  0  0  0  0  0
   28.6721  -18.7414   -5.5644 C   0  0  0  0  0  0  0  0  0  0  0  0
   27.6457  -19.9623   -6.3493 C   0  0  0  0  0  0  0  0  0  0  0  0
   27.2039  -19.6311   -7.7344 C   0  0  1  0  0  0  0  0  0  0  0  0
   26.2568  -20.5767   -8.3900 N   0  0  0  0  0  0  0  0  0  0  0  0
   25.7157  -19.9649   -9.6281 C   0  0  0  0  0  0  0  0  0  0  0  0
   25.1046  -20.9160   -7.5075 O   0  0  0  0  0  0  0  0  0  0  0  0
   23.9956  -20.3399   -7.7451 O   0  0  0  0  0  0  0  0  0  0  0  0
  2  1  1  6
  2  3  1  0
  2  9  1  0
  4  8  1  0
  4  3  1  0
  5  4  2  0
  6  5  1  0
  6  7  1  0
  7  8  2  0
  9 10  2  0
 12 14  1  0
 12 11  1  0
 13 12  2  0
 15 14  1  0
 15 16  1  0
 17 16  1  0
 18 17  1  1
 19 18  1  0
 19  9  1  0
 20 18  1  0
 20 21  2  0
 22 23  1  0
 23 24  1  0
 24 25  1  0
 26 25  1  6
 26 27  1  0
 26 28  1  0
 27 20  1  0
 28 29  2  0
 28 30  1  0
M  END
$$$$
