HRM.pdb
     RDKit          3D

 30 30  0  0  1  0  0  0  0  0999 V2000
   19.0537  -20.6569  -15.8024 N   0  0  0  0  0  0  0  0  0  0  0  0
   19.5519  -19.9885  -14.6143 C   0  0  1  0  0  0  0  0  0  0  0  0
   18.3601  -19.5043  -13.8202 C   0  0  0  0  0  0  0  0  0  0  0  0
   17.7005  -18.4123  -14.5731 C   0  0  0  0  0  0  0  0  0  0  0  0
   16.4566  -18.3994  -15.1775 C   0  0  0  0  0  0  0  0  0  0  0  0
   16.2336  -17.2090  -15.7602 N   0  0  0  0  0  0  0  0  0  0  0  0
   17.3163  -16.4559  -15.5393 C   0  0  0  0  0  0  0  0  0  0  0  0
   18.2025  -17.1684  -14.8280 N   0  0  0  0  0  0  0  0  0  0  0  0
   20.4090  -20.9046  -13.8435 C   0  0  0  0  0  0  0  0  0  0  0  0
   19.8914  -21.8623  -13.2343 O   0  0  0  0  0  0  0  0  0  0  0  0
   26.4101  -20.7897  -16.8217 N   0  0  0  0  0  0  0  0  0  0  0  0
   26.9092  -22.0145  -16.3374 C   0  0  0  0  0  0  0  0  0  0  0  0
   28.1724  -22.2243  -16.0811 N   0  0  0  0  0  0  0  0  0  0  0  0
   26.0527  -23.1401  -16.0865 N   0  0  0  0  0  0  0  0  0  0  0  0
   24.6171  -22.9614  -16.1649 C   0  0  0  0  0  0  0  0  0  0  0  0
   24.1409  -21.9581  -15.1392 C   0  0  0  0  0  0  0  0  0  0  0  0
   23.2892  -22.6228  -14.0918 C   0  0  0  0  0  0  0  0  0  0  0  0
   22.6800  -21.6456  -13.1225 C   0  0  2  0  0  0  0  0  0  0  0  0
   21.8007  -20.6842  -13.8064 N   0  0  0  0  0  0  0  0  0  0  0  0
   23.8374  -20.8796  -12.5349 C   0  0  0  0  0  0  0  0  0  0  0  0
   24.2267  -19.8892  -13.2275 O   0  0  0  0  0  0  0  0  0  0  0  0
   28.4278  -23.1771  -15.7684 C   0  0  0  0  0  0  0  0  0  0  0  0
   27.3691  -18.5560   -6.2320 S   0  0  0  0  0  0  0  0  0  0  0  0
   27.2085  -20.1006   -7.0885 C   0  0  0  0  0  0  0  0  0  0  0  0
   27.0484  -19.9558   -8.8531 C   0  0  0  0  0  0  0  0  0  0  0  0
   25.8177  -20.5639   -9.4353 C   0  0  1  0  0  0  0  0  0  0  0  0
   25.6349  -20.4486  -10.9098 N   0  0  0  0  0  0  0  0  0  0  0  0
   24.4403  -21.2219  -11.3279 C   0  0  0  0  0  0  0  0  0  0  0  0
   26.8076  -20.9785  -11.6619 O   0  0  0  0  0  0  0  0  0  0  0  0
   26.7095  -22.1490  -12.1505 O   0  0  0  0  0  0  0  0  0  0  0  0
  2  1  1  6
  2  3  1  0
  2  9  1  0
  4  8  1  0
  4  3  1  0
  5  4  2  0
  6  5  1  0
  6  7  1  0
  7  8  2  0
  9 10  2  0
 12 14  1  0
 12 11  1  0
 13 12  2  0
 15 14  1  0
 15 16  1  0
 17 16  1  0
 18 17  1  6
 19 18  1  0
 19  9  1  0
 20 18  1  0
 20 21  2  0
 22 23  1  0
 23 24  1  0
 24 25  1  0
 26 25  1  1
 26 27  1  0
 26 28  1  0
 27 20  1  0
 28 29  2  0
 28 30  1  0
M  END
$$$$
