HRM.pdb
     RDKit          3D

 30 30  0  0  1  0  0  0  0  0999 V2000
   26.9822  -23.6593  -17.7592 N   0  0  0  0  0  0  0  0  0  0  0  0
   26.4718  -23.6997  -16.4011 C   0  0  1  0  0  0  0  0  0  0  0  0
   26.6295  -25.1129  -15.8880 C   0  0  0  0  0  0  0  0  0  0  0  0
   25.5610  -25.9532  -16.4767 C   0  0  0  0  0  0  0  0  0  0  0  0
   24.3611  -26.3536  -15.9177 C   0  0  0  0  0  0  0  0  0  0  0  0
   23.6727  -27.1139  -16.7863 N   0  0  0  0  0  0  0  0  0  0  0  0
   24.4127  -27.2084  -17.8962 C   0  0  0  0  0  0  0  0  0  0  0  0
   25.5477  -26.5155  -17.7208 N   0  0  0  0  0  0  0  0  0  0  0  0
   27.1805  -22.7144  -15.5676 C   0  0  0  0  0  0  0  0  0  0  0  0
   28.4278  -22.6932  -15.5694 O   0  0  0  0  0  0  0  0  0  0  0  0
   23.1889  -16.7154  -15.2532 N   0  0  0  0  0  0  0  0  0  0  0  0
   24.4531  -16.2059  -14.8983 C   0  0  0  0  0  0  0  0  0  0  0  0
   24.6183  -15.0983  -14.2267 N   0  0  0  0  0  0  0  0  0  0  0  0
   25.6721  -16.8770  -15.2549 N   0  0  0  0  0  0  0  0  0  0  0  0
   25.6037  -18.0663  -16.0795 C   0  0  0  0  0  0  0  0  0  0  0  0
   25.5865  -19.3145  -15.2268 C   0  0  0  0  0  0  0  0  0  0  0  0
   26.8354  -19.4137  -14.3934 C   0  0  0  0  0  0  0  0  0  0  0  0
   27.1328  -20.8194  -13.9448 C   0  0  2  0  0  0  0  0  0  0  0  0
   26.4377  -21.8109  -14.7809 N   0  0  0  0  0  0  0  0  0  0  0  0
   26.5833  -20.9252  -12.5454 C   0  0  0  0  0  0  0  0  0  0  0  0
   25.3808  -21.3267  -12.4746 O   0  0  0  0  0  0  0  0  0  0  0  0
   25.5947  -14.7873  -14.0823 C   0  0  0  0  0  0  0  0  0  0  0  0
   27.1355  -18.7203   -4.9411 S   0  0  0  0  0  0  0  0  0  0  0  0
   27.8552  -18.8797   -6.5541 C   0  0  0  0  0  0  0  0  0  0  0  0
   26.8301  -19.7132   -7.7435 C   0  0  0  0  0  0  0  0  0  0  0  0
   27.4571  -19.9460   -9.0762 C   0  0  1  0  0  0  0  0  0  0  0  0
   26.6354  -20.6513  -10.1000 N   0  0  0  0  0  0  0  0  0  0  0  0
   27.3267  -20.6101  -11.4116 C   0  0  0  0  0  0  0  0  0  0  0  0
   25.2947  -20.0230  -10.2709 O   0  0  0  0  0  0  0  0  0  0  0  0
   25.2288  -18.9670  -10.9773 O   0  0  0  0  0  0  0  0  0  0  0  0
  2  1  1  6
  2  3  1  0
  2  9  1  0
  4  8  1  0
  4  3  1  0
  5  4  2  0
  6  5  1  0
  6  7  1  0
  7  8  2  0
  9 10  2  0
 12 14  1  0
 12 11  1  0
 13 12  2  0
 15 14  1  0
 15 16  1  0
 17 16  1  0
 18 17  1  6
 19 18  1  0
 19  9  1  0
 20 18  1  0
 20 21  2  0
 22 23  1  0
 23 24  1  0
 24 25  1  0
 26 25  1  1
 26 27  1  0
 26 28  1  0
 27 20  1  0
 28 29  2  0
 28 30  1  0
M  END
$$$$
