HRM.pdb
     RDKit          3D

 30 30  0  0  1  0  0  0  0  0999 V2000
   28.0564  -18.2134  -19.1485 N   0  0  0  0  0  0  0  0  0  0  0  0
   28.0301  -16.7704  -18.9956 C   0  0  1  0  0  0  0  0  0  0  0  0
   28.7268  -16.1642  -20.1924 C   0  0  0  0  0  0  0  0  0  0  0  0
   30.1530  -16.5637  -20.1636 C   0  0  0  0  0  0  0  0  0  0  0  0
   30.8202  -17.4681  -20.9695 C   0  0  0  0  0  0  0  0  0  0  0  0
   32.1142  -17.5433  -20.6141 N   0  0  0  0  0  0  0  0  0  0  0  0
   32.2890  -16.7001  -19.5909 C   0  0  0  0  0  0  0  0  0  0  0  0
   31.1184  -16.1073  -19.3128 N   0  0  0  0  0  0  0  0  0  0  0  0
   26.6405  -16.3043  -18.8558 C   0  0  0  0  0  0  0  0  0  0  0  0
   25.7819  -16.6795  -19.6795 O   0  0  0  0  0  0  0  0  0  0  0  0
   19.8800  -19.1616  -15.9607 N   0  0  0  0  0  0  0  0  0  0  0  0
   19.4877  -17.8117  -16.0462 C   0  0  0  0  0  0  0  0  0  0  0  0
   18.2593  -17.4077  -15.8637 N   0  0  0  0  0  0  0  0  0  0  0  0
   20.4238  -16.7640  -16.3455 N   0  0  0  0  0  0  0  0  0  0  0  0
   21.8211  -17.1014  -16.5267 C   0  0  0  0  0  0  0  0  0  0  0  0
   22.6358  -15.8707  -16.8538 C   0  0  0  0  0  0  0  0  0  0  0  0
   24.0730  -16.2313  -17.1159 C   0  0  0  0  0  0  0  0  0  0  0  0
   24.8991  -15.0592  -17.5736 C   0  0  2  0  0  0  0  0  0  0  0  0
   26.3030  -15.4416  -17.7935 N   0  0  0  0  0  0  0  0  0  0  0  0
   24.8605  -14.0663  -16.4404 C   0  0  0  0  0  0  0  0  0  0  0  0
   25.6734  -14.3057  -15.4950 O   0  0  0  0  0  0  0  0  0  0  0  0
   18.0759  -16.4017  -16.0223 C   0  0  0  0  0  0  0  0  0  0  0  0
   28.4473   -7.9395  -15.7380 S   0  0  0  0  0  0  0  0  0  0  0  0
   27.7307   -9.3641  -16.5140 C   0  0  0  0  0  0  0  0  0  0  0  0
   26.2437   -9.9585  -15.7422 C   0  0  0  0  0  0  0  0  0  0  0  0
   25.7054  -11.2361  -16.2912 C   0  0  1  0  0  0  0  0  0  0  0  0
   24.4489  -11.7603  -15.6849 N   0  0  0  0  0  0  0  0  0  0  0  0
   24.0045  -12.9688  -16.4210 C   0  0  0  0  0  0  0  0  0  0  0  0
   23.3436  -10.7618  -15.7376 O   0  0  0  0  0  0  0  0  0  0  0  0
   22.5346  -10.8350  -16.7167 O   0  0  0  0  0  0  0  0  0  0  0  0
  2  1  1  6
  2  3  1  0
  2  9  1  0
  4  8  1  0
  4  3  1  0
  5  4  2  0
  6  5  1  0
  6  7  1  0
  7  8  2  0
  9 10  2  0
 12 14  1  0
 12 11  1  0
 13 12  2  0
 15 14  1  0
 15 16  1  0
 17 16  1  0
 18 17  1  1
 19 18  1  0
 19  9  1  0
 20 18  1  0
 20 21  2  0
 22 23  1  0
 23 24  1  0
 24 25  1  0
 26 25  1  1
 26 27  1  0
 26 28  1  0
 27 20  1  0
 28 29  2  0
 28 30  1  0
M  END
$$$$
