HRM.pdb
     RDKit          3D

 30 30  0  0  1  0  0  0  0  0999 V2000
   24.1734  -25.2732  -17.3664 N   0  0  0  0  0  0  0  0  0  0  0  0
   24.1564  -24.9218  -15.9583 C   0  0  1  0  0  0  0  0  0  0  0  0
   25.2957  -23.9606  -15.7063 C   0  0  0  0  0  0  0  0  0  0  0  0
   26.5658  -24.6198  -16.0892 C   0  0  0  0  0  0  0  0  0  0  0  0
   27.5669  -24.1612  -16.9260 C   0  0  0  0  0  0  0  0  0  0  0  0
   28.5559  -25.0673  -17.0103 N   0  0  0  0  0  0  0  0  0  0  0  0
   28.2053  -26.1025  -16.2396 C   0  0  0  0  0  0  0  0  0  0  0  0
   27.0130  -25.8440  -15.6824 N   0  0  0  0  0  0  0  0  0  0  0  0
   22.8475  -24.3523  -15.5974 C   0  0  0  0  0  0  0  0  0  0  0  0
   22.3695  -23.4283  -16.2860 O   0  0  0  0  0  0  0  0  0  0  0  0
   21.0081  -29.5604  -12.7256 N   0  0  0  0  0  0  0  0  0  0  0  0
   20.7254  -28.7331  -11.6213 C   0  0  0  0  0  0  0  0  0  0  0  0
   21.3073  -28.8624  -10.4594 N   0  0  0  0  0  0  0  0  0  0  0  0
   19.7611  -27.6707  -11.6928 N   0  0  0  0  0  0  0  0  0  0  0  0
   19.0030  -27.4915  -12.9143 C   0  0  0  0  0  0  0  0  0  0  0  0
   19.7357  -26.5843  -13.8765 C   0  0  0  0  0  0  0  0  0  0  0  0
   20.0807  -25.2736  -13.2229 C   0  0  0  0  0  0  0  0  0  0  0  0
   20.8232  -24.3376  -14.1384 C   0  0  2  0  0  0  0  0  0  0  0  0
   22.1557  -24.8605  -14.4794 N   0  0  0  0  0  0  0  0  0  0  0  0
   21.0109  -23.0643  -13.3542 C   0  0  0  0  0  0  0  0  0  0  0  0
   22.1937  -22.8648  -12.9381 O   0  0  0  0  0  0  0  0  0  0  0  0
   20.9897  -28.2227   -9.7105 C   0  0  0  0  0  0  0  0  0  0  0  0
   23.6295  -19.2805  -16.5067 S   0  0  0  0  0  0  0  0  0  0  0  0
   21.9805  -18.6499  -16.3387 C   0  0  0  0  0  0  0  0  0  0  0  0
   21.2208  -18.9726  -14.7642 C   0  0  0  0  0  0  0  0  0  0  0  0
   20.9158  -20.4048  -14.4833 C   0  0  1  0  0  0  0  0  0  0  0  0
   20.2831  -20.7202  -13.1713 N   0  0  0  0  0  0  0  0  0  0  0  0
   19.9755  -22.1694  -13.0996 C   0  0  0  0  0  0  0  0  0  0  0  0
   19.0092  -19.9730  -12.9707 O   0  0  0  0  0  0  0  0  0  0  0  0
   17.9506  -20.4775  -13.4639 O   0  0  0  0  0  0  0  0  0  0  0  0
  2  1  1  6
  2  3  1  0
  2  9  1  0
  4  8  1  0
  4  3  1  0
  5  4  2  0
  6  5  1  0
  6  7  1  0
  7  8  2  0
  9 10  2  0
 12 14  1  0
 12 11  1  0
 13 12  2  0
 15 14  1  0
 15 16  1  0
 17 16  1  0
 18 17  1  1
 19 18  1  0
 19  9  1  0
 20 18  1  0
 20 21  2  0
 22 23  1  0
 23 24  1  0
 24 25  1  0
 26 25  1  1
 26 27  1  0
 26 28  1  0
 27 20  1  0
 28 29  2  0
 28 30  1  0
M  END
$$$$
