HRM.pdb
     RDKit          3D

 30 30  0  0  1  0  0  0  0  0999 V2000
   26.7835  -18.1382  -17.3417 N   0  0  0  0  0  0  0  0  0  0  0  0
   27.2479  -18.0254  -15.9713 C   0  0  1  0  0  0  0  0  0  0  0  0
   27.4075  -16.5558  -15.6550 C   0  0  0  0  0  0  0  0  0  0  0  0
   28.4701  -15.9966  -16.5225 C   0  0  0  0  0  0  0  0  0  0  0  0
   29.2268  -16.6306  -17.4910 C   0  0  0  0  0  0  0  0  0  0  0  0
   30.0875  -15.7641  -18.0519 N   0  0  0  0  0  0  0  0  0  0  0  0
   29.8953  -14.5814  -17.4580 C   0  0  0  0  0  0  0  0  0  0  0  0
   28.9271  -14.7100  -16.5388 N   0  0  0  0  0  0  0  0  0  0  0  0
   26.3048  -18.6988  -15.0632 C   0  0  0  0  0  0  0  0  0  0  0  0
   25.1840  -18.1915  -14.8563 O   0  0  0  0  0  0  0  0  0  0  0  0
   23.8979  -26.8115  -14.8360 N   0  0  0  0  0  0  0  0  0  0  0  0
   24.1144  -25.6690  -15.6306 C   0  0  0  0  0  0  0  0  0  0  0  0
   24.1018  -25.6893  -16.9363 N   0  0  0  0  0  0  0  0  0  0  0  0
   24.3695  -24.3779  -15.0547 N   0  0  0  0  0  0  0  0  0  0  0  0
   24.4954  -24.2632  -13.6159 C   0  0  0  0  0  0  0  0  0  0  0  0
   24.5621  -22.8132  -13.1935 C   0  0  0  0  0  0  0  0  0  0  0  0
   25.5763  -22.0609  -14.0118 C   0  0  0  0  0  0  0  0  0  0  0  0
   25.7272  -20.6251  -13.5858 C   0  0  2  0  0  0  0  0  0  0  0  0
   26.6839  -19.9060  -14.4419 N   0  0  0  0  0  0  0  0  0  0  0  0
   26.2964  -20.6717  -12.1910 C   0  0  0  0  0  0  0  0  0  0  0  0
   27.4383  -21.2194  -12.1002 O   0  0  0  0  0  0  0  0  0  0  0  0
   24.2493  -24.7829  -17.4134 C   0  0  0  0  0  0  0  0  0  0  0  0
   28.5480  -19.5963   -5.0278 S   0  0  0  0  0  0  0  0  0  0  0  0
   28.0388  -19.0358   -6.6315 C   0  0  0  0  0  0  0  0  0  0  0  0
   27.0706  -20.2080   -7.5529 C   0  0  0  0  0  0  0  0  0  0  0  0
   26.7865  -19.8310   -8.9672 C   0  0  1  0  0  0  0  0  0  0  0  0
   25.9297  -20.7585   -9.7588 N   0  0  0  0  0  0  0  0  0  0  0  0
   25.6312  -20.1577  -11.0816 C   0  0  0  0  0  0  0  0  0  0  0  0
   24.6319  -21.0369   -9.0808 O   0  0  0  0  0  0  0  0  0  0  0  0
   24.6768  -21.5726   -7.9278 O   0  0  0  0  0  0  0  0  0  0  0  0
  2  1  1  6
  2  3  1  0
  2  9  1  0
  4  8  1  0
  4  3  1  0
  5  4  2  0
  6  5  1  0
  6  7  1  0
  7  8  2  0
  9 10  2  0
 12 14  1  0
 12 11  1  0
 13 12  2  0
 15 14  1  0
 15 16  1  0
 17 16  1  0
 18 17  1  6
 19 18  1  0
 19  9  1  0
 20 18  1  0
 20 21  2  0
 22 23  1  0
 23 24  1  0
 24 25  1  0
 26 25  1  6
 26 27  1  0
 26 28  1  0
 27 20  1  0
 28 29  2  0
 28 30  1  0
M  END
$$$$
