HRM.pdb
     RDKit          3D

 30 30  0  0  1  0  0  0  0  0999 V2000
   33.5938   -8.1527  -16.5037 N   0  0  0  0  0  0  0  0  0  0  0  0
   33.2861   -9.3980  -17.1827 C   0  0  1  0  0  0  0  0  0  0  0  0
   34.0003  -10.5129  -16.4531 C   0  0  0  0  0  0  0  0  0  0  0  0
   35.4532  -10.3987  -16.7182 C   0  0  0  0  0  0  0  0  0  0  0  0
   36.4989  -10.3178  -15.8168 C   0  0  0  0  0  0  0  0  0  0  0  0
   37.6705  -10.2245  -16.4687 N   0  0  0  0  0  0  0  0  0  0  0  0
   37.3934  -10.2443  -17.7769 C   0  0  0  0  0  0  0  0  0  0  0  0
   36.0659  -10.3486  -17.9374 N   0  0  0  0  0  0  0  0  0  0  0  0
   31.8282   -9.5982  -17.2307 C   0  0  0  0  0  0  0  0  0  0  0  0
   31.1285   -9.2474  -16.2593 O   0  0  0  0  0  0  0  0  0  0  0  0
   25.9553   -6.4096  -21.9230 N   0  0  0  0  0  0  0  0  0  0  0  0
   26.1592   -6.3177  -20.5324 C   0  0  0  0  0  0  0  0  0  0  0  0
   25.8954   -5.2442  -19.8372 N   0  0  0  0  0  0  0  0  0  0  0  0
   26.6806   -7.4144  -19.7650 N   0  0  0  0  0  0  0  0  0  0  0  0
   27.0280   -8.6453  -20.4456 C   0  0  0  0  0  0  0  0  0  0  0  0
   27.6440   -9.6378  -19.4859 C   0  0  0  0  0  0  0  0  0  0  0  0
   29.1333   -9.4436  -19.3939 C   0  0  0  0  0  0  0  0  0  0  0  0
   29.7920  -10.3961  -18.4324 C   0  0  2  0  0  0  0  0  0  0  0  0
   31.2469  -10.1834  -18.3737 N   0  0  0  0  0  0  0  0  0  0  0  0
   29.5465  -11.7740  -18.9915 C   0  0  0  0  0  0  0  0  0  0  0  0
   30.4994  -12.2439  -19.6867 O   0  0  0  0  0  0  0  0  0  0  0  0
   26.0558   -5.3042  -18.8166 C   0  0  0  0  0  0  0  0  0  0  0  0
   32.3282  -16.4337  -18.3802 S   0  0  0  0  0  0  0  0  0  0  0  0
   30.7077  -17.0548  -18.0154 C   0  0  0  0  0  0  0  0  0  0  0  0
   29.3804  -16.1622  -18.7913 C   0  0  0  0  0  0  0  0  0  0  0  0
   29.3499  -14.6968  -18.5178 C   0  0  1  0  0  0  0  0  0  0  0  0
   28.3186  -13.8933  -19.2331 N   0  0  0  0  0  0  0  0  0  0  0  0
   28.3709  -12.4854  -18.7695 C   0  0  0  0  0  0  0  0  0  0  0  0
   26.9405  -14.4043  -18.9854 O   0  0  0  0  0  0  0  0  0  0  0  0
   26.1930  -13.7223  -18.2144 O   0  0  0  0  0  0  0  0  0  0  0  0
  2  1  1  1
  2  3  1  0
  2  9  1  0
  4  8  1  0
  4  3  1  0
  5  4  2  0
  6  5  1  0
  6  7  1  0
  7  8  2  0
  9 10  2  0
 12 14  1  0
 12 11  1  0
 13 12  2  0
 15 14  1  0
 15 16  1  0
 17 16  1  0
 18 17  1  6
 19 18  1  0
 19  9  1  0
 20 18  1  0
 20 21  2  0
 22 23  1  0
 23 24  1  0
 24 25  1  0
 26 25  1  6
 26 27  1  0
 26 28  1  0
 27 20  1  0
 28 29  2  0
 28 30  1  0
M  END
$$$$
