RKS.pdb
     RDKit          3D

 27 26  0  0  1  0  0  0  0  0999 V2000
    8.3446  -14.1318   14.5107 N   0  0  0  0  0  0  0  0  0  0  0  0
    7.2349  -13.3144   14.7786 C   0  0  0  0  0  0  0  0  0  0  0  0
    6.4403  -12.9484   13.8308 N   0  0  0  0  0  0  0  0  0  0  0  0
    6.9692  -12.8770   16.0987 N   0  0  0  0  0  0  0  0  0  0  0  0
    7.9658  -13.1018   17.1604 C   0  0  0  0  0  0  0  0  0  0  0  0
    7.7709  -14.5211   17.6015 C   0  0  0  0  0  0  0  0  0  0  0  0
    8.9094  -15.0320   18.3828 C   0  0  0  0  0  0  0  0  0  0  0  0
   10.1042  -15.4569   17.5865 C   0  0  2  0  0  0  0  0  0  0  0  0
    9.9728  -16.6773   16.8613 N   0  0  0  0  0  0  0  0  0  0  0  0
   11.2172  -15.6516   18.5843 C   0  0  0  0  0  0  0  0  0  0  0  0
   11.3098  -16.7172   19.2045 O   0  0  0  0  0  0  0  0  0  0  0  0
    5.6446  -12.2971   13.9584 N   0  0  0  0  0  0  0  0  0  0  0  0
   12.1423  -14.5931   18.7877 C   0  0  2  0  0  0  0  0  0  0  0  0
   13.3013  -14.8422   19.6149 C   0  0  0  0  0  0  0  0  0  0  0  0
   14.2872  -13.7153   19.4221 C   0  0  0  0  0  0  0  0  0  0  0  0
   15.5521  -13.9993   20.1560 C   0  0  0  0  0  0  0  0  0  0  0  0
   16.5696  -14.7952   19.3791 C   0  0  0  0  0  0  0  0  0  0  0  0
   17.7589  -15.0630   20.2476 N   0  0  0  0  0  0  0  0  0  0  0  0
   18.6587  -15.9158   19.4798 C   0  0  0  0  0  0  0  0  0  0  0  0
   12.8689  -15.0258   21.0005 O   0  0  0  0  0  0  0  0  0  0  0  0
   11.8030  -14.4735   21.3746 O   0  0  0  0  0  0  0  0  0  0  0  0
   11.0938  -17.3548   24.0860 C   0  0  0  0  0  0  0  0  0  0  0  0
   11.6528  -16.8255   22.9238 C   0  0  1  0  0  0  0  0  0  0  0  0
   12.9443  -16.0844   23.2189 N   0  0  0  0  0  0  0  0  0  0  0  0
   13.5787  -15.7931   21.9591 C   0  0  0  0  0  0  0  0  0  0  0  0
   13.8245  -16.8633   24.1164 O   0  0  0  0  0  0  0  0  0  0  0  0
   14.8091  -17.4921   23.6809 O   0  0  0  0  0  0  0  0  0  0  0  0
  2  1  1  0
  3  2  2  0
  4  2  1  0
  5  6  1  0
  5  4  1  0
  7  6  1  0
  8  7  1  0
  8  9  1  1
 10  8  1  0
 11 10  2  0
 12 10  1  0
 13 12  1  0
 13 14  1  6
 14 15  1  0
 15 16  1  0
 16 17  1  0
 17 18  1  0
 19 13  1  0
 20 19  2  0
 22 21  1  0
 23 22  1  6
 23 24  1  0
 24 19  1  0
 25 23  1  0
 25 27  1  0
 26 25  2  0
M  END
$$$$
