RKS.pdb
     RDKit          3D

 27 26  0  0  1  0  0  0  0  0999 V2000
    8.0639  -12.1916   13.5054 N   0  0  0  0  0  0  0  0  0  0  0  0
    8.1133  -13.5879   13.6443 C   0  0  0  0  0  0  0  0  0  0  0  0
    8.2475  -14.3497   12.6120 N   0  0  0  0  0  0  0  0  0  0  0  0
    8.0161  -14.1846   14.9245 N   0  0  0  0  0  0  0  0  0  0  0  0
    7.8955  -13.3351   16.1224 C   0  0  0  0  0  0  0  0  0  0  0  0
    8.8088  -13.9456   17.1422 C   0  0  0  0  0  0  0  0  0  0  0  0
    8.4847  -15.3546   17.4203 C   0  0  0  0  0  0  0  0  0  0  0  0
    8.0704  -15.6598   18.8265 C   0  0  2  0  0  0  0  0  0  0  0  0
    7.5755  -14.5602   19.5872 N   0  0  0  0  0  0  0  0  0  0  0  0
    9.3106  -16.1585   19.5232 C   0  0  0  0  0  0  0  0  0  0  0  0
   10.3384  -15.4713   19.5194 O   0  0  0  0  0  0  0  0  0  0  0  0
    8.2618  -15.3849   12.6517 N   0  0  0  0  0  0  0  0  0  0  0  0
    9.2651  -17.4200   20.1747 C   0  0  2  0  0  0  0  0  0  0  0  0
   10.4103  -17.8332   20.9539 C   0  0  0  0  0  0  0  0  0  0  0  0
    9.9711  -18.8864   21.9424 C   0  0  0  0  0  0  0  0  0  0  0  0
   11.1282  -19.3483   22.7591 C   0  0  0  0  0  0  0  0  0  0  0  0
   10.8327  -20.5072   23.6767 C   0  0  0  0  0  0  0  0  0  0  0  0
   12.0287  -20.7787   24.5348 N   0  0  0  0  0  0  0  0  0  0  0  0
   11.6852  -21.9065   25.3928 C   0  0  0  0  0  0  0  0  0  0  0  0
   11.4720  -18.2715   20.0476 O   0  0  0  0  0  0  0  0  0  0  0  0
   11.1696  -19.0307   19.0920 O   0  0  0  0  0  0  0  0  0  0  0  0
   15.6815  -17.6905   17.9310 C   0  0  0  0  0  0  0  0  0  0  0  0
   14.7243  -17.2749   18.8554 C   0  0  2  0  0  0  0  0  0  0  0  0
   13.7866  -18.4088   19.2286 N   0  0  0  0  0  0  0  0  0  0  0  0
   12.8328  -17.8931   20.1764 C   0  0  0  0  0  0  0  0  0  0  0  0
   14.5269  -19.5720   19.7632 O   0  0  0  0  0  0  0  0  0  0  0  0
   14.3164  -20.0080   20.9122 O   0  0  0  0  0  0  0  0  0  0  0  0
  2  1  1  0
  3  2  2  0
  4  2  1  0
  5  6  1  0
  5  4  1  0
  7  6  1  0
  8  7  1  0
  8  9  1  1
 10  8  1  0
 11 10  2  0
 12 10  1  0
 13 12  1  0
 13 14  1  6
 14 15  1  0
 15 16  1  0
 16 17  1  0
 17 18  1  0
 19 13  1  0
 20 19  2  0
 22 21  1  0
 23 22  1  6
 23 24  1  0
 24 19  1  0
 25 23  1  0
 25 27  1  0
 26 25  2  0
M  END
$$$$
