RKS.pdb
     RDKit          3D

 27 26  0  0  1  0  0  0  0  0999 V2000
    9.2577  -13.4522   20.5902 N   0  0  0  0  0  0  0  0  0  0  0  0
    8.3339  -13.2610   19.5503 C   0  0  0  0  0  0  0  0  0  0  0  0
    8.6795  -12.6599   18.4626 N   0  0  0  0  0  0  0  0  0  0  0  0
    7.0031  -13.7266   19.6793 N   0  0  0  0  0  0  0  0  0  0  0  0
    6.6405  -14.6093   20.8020 C   0  0  0  0  0  0  0  0  0  0  0  0
    6.5723  -15.9900   20.2225 C   0  0  0  0  0  0  0  0  0  0  0  0
    6.8819  -17.0349   21.2126 C   0  0  0  0  0  0  0  0  0  0  0  0
    5.7028  -17.6306   21.9177 C   0  0  2  0  0  0  0  0  0  0  0  0
    4.4460  -17.0006   21.6801 N   0  0  0  0  0  0  0  0  0  0  0  0
    5.9932  -17.4991   23.3909 C   0  0  0  0  0  0  0  0  0  0  0  0
    5.4360  -16.6159   24.0528 O   0  0  0  0  0  0  0  0  0  0  0  0
    8.0319  -12.4580   17.6793 N   0  0  0  0  0  0  0  0  0  0  0  0
    6.9100  -18.4053   23.9878 C   0  0  2  0  0  0  0  0  0  0  0  0
    7.1223  -18.3282   25.4155 C   0  0  0  0  0  0  0  0  0  0  0  0
    7.3765  -19.7190   25.9449 C   0  0  0  0  0  0  0  0  0  0  0  0
    7.7106  -19.6705   27.3958 C   0  0  0  0  0  0  0  0  0  0  0  0
    8.1182  -20.9919   27.9959 C   0  0  0  0  0  0  0  0  0  0  0  0
    8.3074  -20.8297   29.4719 N   0  0  0  0  0  0  0  0  0  0  0  0
    8.6291  -22.1489   30.0035 C   0  0  0  0  0  0  0  0  0  0  0  0
    8.2026  -17.3797   25.6874 O   0  0  0  0  0  0  0  0  0  0  0  0
    9.1991  -17.3694   24.9207 O   0  0  0  0  0  0  0  0  0  0  0  0
    8.2455  -13.7819   28.0344 C   0  0  0  0  0  0  0  0  0  0  0  0
    8.9129  -14.1848   26.8787 C   0  0  1  0  0  0  0  0  0  0  0  0
    9.3597  -15.6324   26.9740 N   0  0  0  0  0  0  0  0  0  0  0  0
    8.2005  -16.4620   26.7687 C   0  0  0  0  0  0  0  0  0  0  0  0
   10.0209  -15.9126   28.2667 O   0  0  0  0  0  0  0  0  0  0  0  0
    9.5782  -16.7725   29.0537 O   0  0  0  0  0  0  0  0  0  0  0  0
  2  1  1  0
  3  2  2  0
  4  2  1  0
  5  6  1  0
  5  4  1  0
  7  6  1  0
  8  7  1  0
  8  9  1  1
 10  8  1  0
 11 10  2  0
 12 10  1  0
 13 12  1  0
 13 14  1  6
 14 15  1  0
 15 16  1  0
 16 17  1  0
 17 18  1  0
 19 13  1  0
 20 19  2  0
 22 21  1  0
 23 22  1  6
 23 24  1  0
 24 19  1  0
 25 23  1  0
 25 27  1  0
 26 25  2  0
M  END
$$$$
