RKS.pdb
     RDKit          3D

 27 26  0  0  1  0  0  0  0  0999 V2000
    7.7396  -11.6161   19.8484 N   0  0  0  0  0  0  0  0  0  0  0  0
    8.2531  -12.7084   19.1310 C   0  0  0  0  0  0  0  0  0  0  0  0
    8.0065  -12.8463   17.8724 N   0  0  0  0  0  0  0  0  0  0  0  0
    9.0529  -13.6798   19.7800 N   0  0  0  0  0  0  0  0  0  0  0  0
    8.6205  -15.0882   19.8047 C   0  0  0  0  0  0  0  0  0  0  0  0
    7.4847  -15.1433   20.7813 C   0  0  0  0  0  0  0  0  0  0  0  0
    7.6312  -16.2351   21.7582 C   0  0  0  0  0  0  0  0  0  0  0  0
    6.4906  -17.2031   21.8253 C   0  0  2  0  0  0  0  0  0  0  0  0
    5.1999  -16.6727   21.5330 N   0  0  0  0  0  0  0  0  0  0  0  0
    6.4542  -17.6999   23.2480 C   0  0  0  0  0  0  0  0  0  0  0  0
    5.8166  -17.0747   24.1032 O   0  0  0  0  0  0  0  0  0  0  0  0
    8.3167  -13.6557   17.3047 N   0  0  0  0  0  0  0  0  0  0  0  0
    7.1610  -18.8885   23.5726 C   0  0  2  0  0  0  0  0  0  0  0  0
    7.0875  -19.3838   24.9286 C   0  0  0  0  0  0  0  0  0  0  0  0
    6.8242  -20.8698   24.8896 C   0  0  0  0  0  0  0  0  0  0  0  0
    6.8436  -21.4380   26.2666 C   0  0  0  0  0  0  0  0  0  0  0  0
    6.5509  -22.9146   26.3461 C   0  0  0  0  0  0  0  0  0  0  0  0
    6.5163  -23.3374   27.7816 N   0  0  0  0  0  0  0  0  0  0  0  0
    6.1564  -24.7504   27.7967 C   0  0  0  0  0  0  0  0  0  0  0  0
    8.3113  -19.0132   25.6397 O   0  0  0  0  0  0  0  0  0  0  0  0
    9.4112  -19.1284   25.0413 O   0  0  0  0  0  0  0  0  0  0  0  0
    8.3001  -17.0942   29.2249 C   0  0  0  0  0  0  0  0  0  0  0  0
    9.4620  -17.0312   28.4572 C   0  0  1  0  0  0  0  0  0  0  0  0
    9.6162  -18.2637   27.5846 N   0  0  0  0  0  0  0  0  0  0  0  0
    8.3398  -18.5277   26.9720 C   0  0  0  0  0  0  0  0  0  0  0  0
   10.1087  -19.4213   28.3619 O   0  0  0  0  0  0  0  0  0  0  0  0
    9.4489  -20.4754   28.4524 O   0  0  0  0  0  0  0  0  0  0  0  0
  2  1  1  0
  3  2  2  0
  4  2  1  0
  5  6  1  0
  5  4  1  0
  7  6  1  0
  8  7  1  0
  8  9  1  1
 10  8  1  0
 11 10  2  0
 12 10  1  0
 13 12  1  0
 13 14  1  6
 14 15  1  0
 15 16  1  0
 16 17  1  0
 17 18  1  0
 19 13  1  0
 20 19  2  0
 22 21  1  0
 23 22  1  6
 23 24  1  0
 24 19  1  0
 25 23  1  0
 25 27  1  0
 26 25  2  0
M  END
$$$$
