RKS.pdb
     RDKit          3D

 27 26  0  0  1  0  0  0  0  0999 V2000
    9.7340  -15.8304   12.9196 N   0  0  0  0  0  0  0  0  0  0  0  0
    8.5441  -15.6162   13.6336 C   0  0  0  0  0  0  0  0  0  0  0  0
    7.6760  -14.7534   13.2262 N   0  0  0  0  0  0  0  0  0  0  0  0
    8.2770  -16.3465   14.8167 N   0  0  0  0  0  0  0  0  0  0  0  0
    9.2139  -16.2724   15.9515 C   0  0  0  0  0  0  0  0  0  0  0  0
    9.2043  -14.8385   16.3884 C   0  0  0  0  0  0  0  0  0  0  0  0
   10.0070  -14.6115   17.6015 C   0  0  0  0  0  0  0  0  0  0  0  0
    9.2853  -13.9713   18.7468 C   0  0  2  0  0  0  0  0  0  0  0  0
    8.9721  -12.5885   18.5963 N   0  0  0  0  0  0  0  0  0  0  0  0
   10.2066  -14.0907   19.9338 C   0  0  0  0  0  0  0  0  0  0  0  0
   11.0900  -13.2451   20.1161 O   0  0  0  0  0  0  0  0  0  0  0  0
    6.7989  -14.5292   13.7302 N   0  0  0  0  0  0  0  0  0  0  0  0
   10.0329  -15.1844   20.8234 C   0  0  2  0  0  0  0  0  0  0  0  0
   10.9817  -15.3518   21.9010 C   0  0  0  0  0  0  0  0  0  0  0  0
   10.3764  -16.2591   22.9449 C   0  0  0  0  0  0  0  0  0  0  0  0
   11.3816  -16.5888   23.9937 C   0  0  0  0  0  0  0  0  0  0  0  0
   10.8798  -17.4954   25.0885 C   0  0  0  0  0  0  0  0  0  0  0  0
   12.0194  -17.8712   25.9833 N   0  0  0  0  0  0  0  0  0  0  0  0
   11.4772  -18.7551   27.0085 C   0  0  0  0  0  0  0  0  0  0  0  0
   12.2482  -15.8362   21.3516 O   0  0  0  0  0  0  0  0  0  0  0  0
   12.2671  -16.9602   20.7883 O   0  0  0  0  0  0  0  0  0  0  0  0
   15.3247  -13.7664   19.6185 C   0  0  0  0  0  0  0  0  0  0  0  0
   14.8978  -15.0881   19.4994 C   0  0  1  0  0  0  0  0  0  0  0  0
   14.6547  -15.7157   20.8600 N   0  0  0  0  0  0  0  0  0  0  0  0
   13.4680  -15.1152   21.4125 C   0  0  0  0  0  0  0  0  0  0  0  0
   15.8246  -15.5535   21.7498 O   0  0  0  0  0  0  0  0  0  0  0  0
   15.7281  -14.9935   22.8596 O   0  0  0  0  0  0  0  0  0  0  0  0
  2  1  1  0
  3  2  2  0
  4  2  1  0
  5  6  1  0
  5  4  1  0
  7  6  1  0
  8  7  1  0
  8  9  1  6
 10  8  1  0
 11 10  2  0
 12 10  1  0
 13 12  1  0
 13 14  1  1
 14 15  1  0
 15 16  1  0
 16 17  1  0
 17 18  1  0
 19 13  1  0
 20 19  2  0
 22 21  1  0
 23 22  1  6
 23 24  1  0
 24 19  1  0
 25 23  1  0
 25 27  1  0
 26 25  2  0
M  END
$$$$
