RKS.pdb
     RDKit          3D

 27 26  0  0  1  0  0  0  0  0999 V2000
    7.5338  -14.6615   17.1810 N   0  0  0  0  0  0  0  0  0  0  0  0
    8.1579  -13.4099   17.3047 C   0  0  0  0  0  0  0  0  0  0  0  0
    8.7170  -12.8476   16.2873 N   0  0  0  0  0  0  0  0  0  0  0  0
    8.1838  -12.7423   18.5530 N   0  0  0  0  0  0  0  0  0  0  0  0
    7.9287  -13.4959   19.7931 C   0  0  0  0  0  0  0  0  0  0  0  0
    7.7941  -14.9285   19.3730 C   0  0  0  0  0  0  0  0  0  0  0  0
    7.6328  -15.8408   20.5173 C   0  0  0  0  0  0  0  0  0  0  0  0
    7.4629  -17.2884   20.1742 C   0  0  2  0  0  0  0  0  0  0  0  0
    6.1845  -17.8536   20.4553 N   0  0  0  0  0  0  0  0  0  0  0  0
    8.4708  -18.0324   21.0126 C   0  0  0  0  0  0  0  0  0  0  0  0
    8.3208  -18.1042   22.2377 O   0  0  0  0  0  0  0  0  0  0  0  0
    9.2301  -11.9485   16.3295 N   0  0  0  0  0  0  0  0  0  0  0  0
    9.5795  -18.6399   20.3649 C   0  0  2  0  0  0  0  0  0  0  0  0
   10.4072  -19.5483   21.1258 C   0  0  0  0  0  0  0  0  0  0  0  0
   10.8393  -20.6812   20.2263 C   0  0  0  0  0  0  0  0  0  0  0  0
   11.6297  -21.6833   20.9948 C   0  0  0  0  0  0  0  0  0  0  0  0
   12.2451  -22.7780   20.1610 C   0  0  0  0  0  0  0  0  0  0  0  0
   13.0109  -23.7080   21.0496 N   0  0  0  0  0  0  0  0  0  0  0  0
   13.6103  -24.7187   20.1861 C   0  0  0  0  0  0  0  0  0  0  0  0
   11.5166  -18.8012   21.7188 O   0  0  0  0  0  0  0  0  0  0  0  0
   11.8337  -17.6949   21.2122 O   0  0  0  0  0  0  0  0  0  0  0  0
   14.7431  -18.1346   25.2499 C   0  0  0  0  0  0  0  0  0  0  0  0
   13.6375  -18.8178   24.7459 C   0  0  1  0  0  0  0  0  0  0  0  0
   13.3619  -18.4361   23.3028 N   0  0  0  0  0  0  0  0  0  0  0  0
   12.2653  -19.2459   22.8383 C   0  0  0  0  0  0  0  0  0  0  0  0
   14.5660  -18.5958   22.4593 O   0  0  0  0  0  0  0  0  0  0  0  0
   14.6793  -19.5422   21.6555 O   0  0  0  0  0  0  0  0  0  0  0  0
  2  1  1  0
  3  2  2  0
  4  2  1  0
  5  6  1  0
  5  4  1  0
  7  6  1  0
  8  7  1  0
  8  9  1  1
 10  8  1  0
 11 10  2  0
 12 10  1  0
 13 12  1  0
 13 14  1  6
 14 15  1  0
 15 16  1  0
 16 17  1  0
 17 18  1  0
 19 13  1  0
 20 19  2  0
 22 21  1  0
 23 22  1  1
 23 24  1  0
 24 19  1  0
 25 23  1  0
 25 27  1  0
 26 25  2  0
M  END
$$$$
