RKS.pdb
     RDKit          3D

 27 26  0  0  1  0  0  0  0  0999 V2000
    7.9767  -12.2234   18.1933 N   0  0  0  0  0  0  0  0  0  0  0  0
    8.3893  -13.2942   17.3843 C   0  0  0  0  0  0  0  0  0  0  0  0
    8.0838  -13.3311   16.1316 N   0  0  0  0  0  0  0  0  0  0  0  0
    9.1503  -14.3548   17.9325 N   0  0  0  0  0  0  0  0  0  0  0  0
    8.8810  -14.8174   19.3053 C   0  0  0  0  0  0  0  0  0  0  0  0
    8.9986  -16.3109   19.2570 C   0  0  0  0  0  0  0  0  0  0  0  0
    9.8462  -16.8467   20.3352 C   0  0  0  0  0  0  0  0  0  0  0  0
    9.1257  -17.5837   21.4214 C   0  0  2  0  0  0  0  0  0  0  0  0
    7.7183  -17.7342   21.2503 N   0  0  0  0  0  0  0  0  0  0  0  0
    9.3359  -16.7770   22.6773 C   0  0  0  0  0  0  0  0  0  0  0  0
   10.4805  -16.4637   23.0244 O   0  0  0  0  0  0  0  0  0  0  0  0
    8.3711  -14.0884   15.4855 N   0  0  0  0  0  0  0  0  0  0  0  0
    8.1995  -16.3922   23.4377 C   0  0  1  0  0  0  0  0  0  0  0  0
    8.4070  -15.6178   24.6405 C   0  0  0  0  0  0  0  0  0  0  0  0
    7.2704  -14.6353   24.7881 C   0  0  0  0  0  0  0  0  0  0  0  0
    7.4214  -13.8499   26.0449 C   0  0  0  0  0  0  0  0  0  0  0  0
    6.4135  -12.7435   26.2247 C   0  0  0  0  0  0  0  0  0  0  0  0
    6.6617  -12.0528   27.5293 N   0  0  0  0  0  0  0  0  0  0  0  0
    5.6419  -11.0188   27.6601 C   0  0  0  0  0  0  0  0  0  0  0  0
    8.5589  -16.5290   25.7751 O   0  0  0  0  0  0  0  0  0  0  0  0
    7.5379  -17.1186   26.2121 O   0  0  0  0  0  0  0  0  0  0  0  0
   11.6650  -18.8166   26.5514 C   0  0  0  0  0  0  0  0  0  0  0  0
   10.4033  -18.9966   27.1163 C   0  0  1  0  0  0  0  0  0  0  0  0
    9.8024  -17.6752   27.5605 N   0  0  0  0  0  0  0  0  0  0  0  0
    9.7934  -16.7943   26.4211 C   0  0  0  0  0  0  0  0  0  0  0  0
   10.5438  -17.0980   28.7024 O   0  0  0  0  0  0  0  0  0  0  0  0
   11.0442  -15.9573   28.6464 O   0  0  0  0  0  0  0  0  0  0  0  0
  2  1  1  0
  3  2  2  0
  4  2  1  0
  5  6  1  0
  5  4  1  0
  7  6  1  0
  8  7  1  0
  8  9  1  6
 10  8  1  0
 11 10  2  0
 12 10  1  0
 13 12  1  0
 13 14  1  1
 14 15  1  0
 15 16  1  0
 16 17  1  0
 17 18  1  0
 19 13  1  0
 20 19  2  0
 22 21  1  0
 23 22  1  6
 23 24  1  0
 24 19  1  0
 25 23  1  0
 25 27  1  0
 26 25  2  0
M  END
$$$$
