RKS.pdb
     RDKit          3D

 27 26  0  0  1  0  0  0  0  0999 V2000
    8.0447  -12.9345   17.5849 N   0  0  0  0  0  0  0  0  0  0  0  0
    9.2245  -13.1763   18.3067 C   0  0  0  0  0  0  0  0  0  0  0  0
    9.9018  -12.2010   18.8104 N   0  0  0  0  0  0  0  0  0  0  0  0
    9.6915  -14.4997   18.4939 N   0  0  0  0  0  0  0  0  0  0  0  0
    8.8543  -15.6386   18.0781 C   0  0  0  0  0  0  0  0  0  0  0  0
    8.3408  -16.2457   19.3488 C   0  0  0  0  0  0  0  0  0  0  0  0
    9.3386  -17.1037   20.0093 C   0  0  0  0  0  0  0  0  0  0  0  0
    8.8844  -17.7770   21.2673 C   0  0  2  0  0  0  0  0  0  0  0  0
    7.5102  -18.1540   21.3158 N   0  0  0  0  0  0  0  0  0  0  0  0
    9.1098  -16.7790   22.3742 C   0  0  0  0  0  0  0  0  0  0  0  0
   10.2472  -16.3455   22.5913 O   0  0  0  0  0  0  0  0  0  0  0  0
   10.8008  -12.3161   19.3125 N   0  0  0  0  0  0  0  0  0  0  0  0
    7.9957  -16.3567   23.1477 C   0  0  1  0  0  0  0  0  0  0  0  0
    8.2262  -15.4428   24.2436 C   0  0  0  0  0  0  0  0  0  0  0  0
    6.9382  -14.7178   24.5509 C   0  0  0  0  0  0  0  0  0  0  0  0
    7.1408  -13.7445   25.6604 C   0  0  0  0  0  0  0  0  0  0  0  0
    5.9209  -12.9377   26.0252 C   0  0  0  0  0  0  0  0  0  0  0  0
    6.2855  -11.9321   27.0724 N   0  0  0  0  0  0  0  0  0  0  0  0
    5.0616  -11.2173   27.4152 C   0  0  0  0  0  0  0  0  0  0  0  0
    8.7777  -16.1855   25.3771 O   0  0  0  0  0  0  0  0  0  0  0  0
    8.2876  -17.3100   25.6533 O   0  0  0  0  0  0  0  0  0  0  0  0
   12.2846  -17.9367   27.7051 C   0  0  0  0  0  0  0  0  0  0  0  0
   11.6855  -17.1306   26.7383 C   0  0  1  0  0  0  0  0  0  0  0  0
   10.3548  -16.5830   27.2216 N   0  0  0  0  0  0  0  0  0  0  0  0
    9.8391  -15.7170   26.1930 C   0  0  0  0  0  0  0  0  0  0  0  0
   10.4936  -15.8842   28.5175 O   0  0  0  0  0  0  0  0  0  0  0  0
   10.1768  -14.6856   28.6501 O   0  0  0  0  0  0  0  0  0  0  0  0
  2  1  1  0
  3  2  2  0
  4  2  1  0
  5  6  1  0
  5  4  1  0
  7  6  1  0
  8  7  1  0
  8  9  1  6
 10  8  1  0
 11 10  2  0
 12 10  1  0
 13 12  1  0
 13 14  1  1
 14 15  1  0
 15 16  1  0
 16 17  1  0
 17 18  1  0
 19 13  1  0
 20 19  2  0
 22 21  1  0
 23 22  1  6
 23 24  1  0
 24 19  1  0
 25 23  1  0
 25 27  1  0
 26 25  2  0
M  END
$$$$
