VFQ.pdb
     RDKit          3D

 28 28  0  0  1  0  0  0  0  0999 V2000
    7.6538  -18.3601   18.1613 C   0  0  0  0  0  0  0  0  0  0  0  0
    8.0338  -17.7010   19.4374 C   0  0  2  0  0  0  0  0  0  0  0  0
    7.6080  -18.5814   20.5920 C   0  0  0  0  0  0  0  0  0  0  0  0
    7.6148  -16.2803   19.6041 C   0  0  2  0  0  0  0  0  0  0  0  0
    8.1612  -15.5203   18.4624 N   0  0  0  0  0  0  0  0  0  0  0  0
    8.0531  -15.6446   20.8723 C   0  0  0  0  0  0  0  0  0  0  0  0
    9.2814  -15.3134   21.0418 O   0  0  0  0  0  0  0  0  0  0  0  0
    7.1951  -15.3597   21.9535 N   0  0  0  0  0  0  0  0  0  0  0  0
    7.6241  -14.7378   23.1934 C   0  0  1  0  0  0  0  0  0  0  0  0
    6.4661  -14.1253   23.9282 C   0  0  0  0  0  0  0  0  0  0  0  0
    6.8008  -13.5611   25.2317 C   0  0  0  0  0  0  0  0  0  0  0  0
    7.0442  -14.2737   26.3784 C   0  0  0  0  0  0  0  0  0  0  0  0
    7.3578  -13.6550   27.5925 C   0  0  0  0  0  0  0  0  0  0  0  0
    7.4297  -12.2803   27.6602 C   0  0  0  0  0  0  0  0  0  0  0  0
    7.1888  -11.5310   26.5180 C   0  0  0  0  0  0  0  0  0  0  0  0
    6.8824  -12.1762   25.3385 C   0  0  0  0  0  0  0  0  0  0  0  0
    8.4849  -15.6114   23.9846 C   0  0  0  0  0  0  0  0  0  0  0  0
    8.0356  -16.7667   24.2980 O   0  0  0  0  0  0  0  0  0  0  0  0
   14.5362  -15.8242   23.1675 N   0  0  0  0  0  0  0  0  0  0  0  0
   14.4278  -16.8053   24.1704 C   0  0  0  0  0  0  0  0  0  0  0  0
   15.4273  -17.4790   24.4873 O   0  0  0  0  0  0  0  0  0  0  0  0
   13.1157  -17.0242   24.8398 C   0  0  0  0  0  0  0  0  0  0  0  0
   12.0743  -16.0714   24.3169 C   0  0  0  0  0  0  0  0  0  0  0  0
   10.7264  -16.3107   24.9327 C   0  0  2  0  0  0  0  0  0  0  0  0
    9.7670  -15.3001   24.4341 N   0  0  0  0  0  0  0  0  0  0  0  0
   10.7239  -16.3201   26.4035 C   0  0  0  0  0  0  0  0  0  0  0  0
   10.6540  -15.1592   27.1811 O   0  0  0  0  0  0  0  0  0  0  0  0
   10.7861  -17.3938   27.0370 O   0  0  0  0  0  0  0  0  0  0  0  0
  2  1  1  6
  3  2  1  0
  4  2  1  0
  4  5  1  6
  6  4  1  0
  7  6  2  0
  8  6  1  0
  9  8  1  0
  9 10  1  1
 10 11  1  0
 11 16  2  0
 12 11  1  0
 12 13  2  0
 13 14  1  0
 14 15  2  0
 16 15  1  0
 17 18  2  0
 17  9  1  0
 20 22  1  0
 20 19  1  0
 21 20  2  0
 24 23  1  1
 23 22  1  0
 24 25  1  0
 25 17  1  0
 26 24  1  0
 27 26  1  0
 28 26  2  0
M  END
$$$$
