VFQ.pdb
     RDKit          3D

 28 28  0  0  1  0  0  0  0  0999 V2000
    8.9424  -18.7820   18.5426 C   0  0  0  0  0  0  0  0  0  0  0  0
    9.0769  -18.0887   19.8497 C   0  0  2  0  0  0  0  0  0  0  0  0
    7.9681  -18.5521   20.7691 C   0  0  0  0  0  0  0  0  0  0  0  0
    9.2142  -16.6051   19.8059 C   0  0  2  0  0  0  0  0  0  0  0  0
   10.4342  -16.2955   19.0344 N   0  0  0  0  0  0  0  0  0  0  0  0
    9.2921  -15.9458   21.1340 C   0  0  0  0  0  0  0  0  0  0  0  0
   10.3374  -16.0823   21.8662 O   0  0  0  0  0  0  0  0  0  0  0  0
    8.2701  -15.1451   21.6822 N   0  0  0  0  0  0  0  0  0  0  0  0
    8.2729  -14.6368   23.0422 C   0  0  1  0  0  0  0  0  0  0  0  0
    7.2013  -13.6036   23.2430 C   0  0  0  0  0  0  0  0  0  0  0  0
    7.0536  -13.1375   24.6179 C   0  0  0  0  0  0  0  0  0  0  0  0
    6.1243  -13.5832   25.5232 C   0  0  0  0  0  0  0  0  0  0  0  0
    6.0471  -13.0818   26.8262 C   0  0  0  0  0  0  0  0  0  0  0  0
    6.9280  -12.1038   27.2350 C   0  0  0  0  0  0  0  0  0  0  0  0
    7.8799  -11.6318   26.3433 C   0  0  0  0  0  0  0  0  0  0  0  0
    7.9256  -12.1502   25.0663 C   0  0  0  0  0  0  0  0  0  0  0  0
    8.3153  -15.7057   24.0350 C   0  0  0  0  0  0  0  0  0  0  0  0
    7.4215  -16.6176   23.9680 O   0  0  0  0  0  0  0  0  0  0  0  0
   10.4314  -20.5166   23.9443 N   0  0  0  0  0  0  0  0  0  0  0  0
   11.1993  -19.3683   23.6765 C   0  0  0  0  0  0  0  0  0  0  0  0
   12.1647  -19.4390   22.8914 O   0  0  0  0  0  0  0  0  0  0  0  0
   10.8454  -18.0819   24.3379 C   0  0  0  0  0  0  0  0  0  0  0  0
    9.6155  -18.2317   25.1926 C   0  0  0  0  0  0  0  0  0  0  0  0
    9.3147  -16.9876   25.9767 C   0  0  2  0  0  0  0  0  0  0  0  0
    9.2514  -15.8270   25.0604 N   0  0  0  0  0  0  0  0  0  0  0  0
   10.2629  -16.7129   27.0671 C   0  0  0  0  0  0  0  0  0  0  0  0
   10.9483  -15.5011   27.2048 O   0  0  0  0  0  0  0  0  0  0  0  0
   10.5028  -17.5734   27.9389 O   0  0  0  0  0  0  0  0  0  0  0  0
  2  1  1  6
  3  2  1  0
  4  2  1  0
  4  5  1  6
  6  4  1  0
  7  6  2  0
  8  6  1  0
  9  8  1  0
  9 10  1  1
 10 11  1  0
 11 16  2  0
 12 11  1  0
 12 13  2  0
 13 14  1  0
 14 15  2  0
 16 15  1  0
 17 18  2  0
 17  9  1  0
 20 22  1  0
 20 19  1  0
 21 20  2  0
 24 23  1  6
 23 22  1  0
 24 25  1  0
 25 17  1  0
 26 24  1  0
 27 26  1  0
 28 26  2  0
M  END
$$$$
