VFQ.pdb
     RDKit          3D

 28 28  0  0  1  0  0  0  0  0999 V2000
    9.6055  -19.0396   19.4638 C   0  0  0  0  0  0  0  0  0  0  0  0
    8.8338  -18.0894   20.3058 C   0  0  2  0  0  0  0  0  0  0  0  0
    7.3556  -18.3171   20.0763 C   0  0  0  0  0  0  0  0  0  0  0  0
    9.2218  -16.6531   20.2161 C   0  0  2  0  0  0  0  0  0  0  0  0
   10.5208  -16.5878   19.5176 N   0  0  0  0  0  0  0  0  0  0  0  0
    9.3297  -15.9528   21.5209 C   0  0  0  0  0  0  0  0  0  0  0  0
   10.4230  -15.9949   22.1918 O   0  0  0  0  0  0  0  0  0  0  0  0
    8.2866  -15.2106   22.1104 N   0  0  0  0  0  0  0  0  0  0  0  0
    8.3419  -14.6451   23.4465 C   0  0  1  0  0  0  0  0  0  0  0  0
    7.2557  -13.6293   23.6566 C   0  0  0  0  0  0  0  0  0  0  0  0
    7.1631  -13.1080   25.0164 C   0  0  0  0  0  0  0  0  0  0  0  0
    8.0293  -12.2167   25.5972 C   0  0  0  0  0  0  0  0  0  0  0  0
    7.8711  -11.7662   26.9114 C   0  0  0  0  0  0  0  0  0  0  0  0
    6.8127  -12.2225   27.6672 C   0  0  0  0  0  0  0  0  0  0  0  0
    5.9189  -13.1244   27.1089 C   0  0  0  0  0  0  0  0  0  0  0  0
    6.1072  -13.5461   25.8096 C   0  0  0  0  0  0  0  0  0  0  0  0
    8.4584  -15.6698   24.4793 C   0  0  0  0  0  0  0  0  0  0  0  0
    7.6050  -16.6219   24.4737 O   0  0  0  0  0  0  0  0  0  0  0  0
   10.5005  -20.3389   24.2731 N   0  0  0  0  0  0  0  0  0  0  0  0
   11.4990  -19.3491   24.3290 C   0  0  0  0  0  0  0  0  0  0  0  0
   12.5957  -19.5446   23.7701 O   0  0  0  0  0  0  0  0  0  0  0  0
   11.2290  -18.0789   25.0579 C   0  0  0  0  0  0  0  0  0  0  0  0
    9.8624  -18.0953   25.6885 C   0  0  0  0  0  0  0  0  0  0  0  0
    9.5684  -16.8285   26.4382 C   0  0  2  0  0  0  0  0  0  0  0  0
    9.4258  -15.7080   25.4819 N   0  0  0  0  0  0  0  0  0  0  0  0
   10.5639  -16.4859   27.4654 C   0  0  0  0  0  0  0  0  0  0  0  0
   10.8810  -17.3234   28.5403 O   0  0  0  0  0  0  0  0  0  0  0  0
   11.1842  -15.4038   27.4201 O   0  0  0  0  0  0  0  0  0  0  0  0
  2  1  1  6
  3  2  1  0
  4  2  1  0
  4  5  1  1
  6  4  1  0
  7  6  2  0
  8  6  1  0
  9  8  1  0
  9 10  1  1
 10 11  1  0
 11 16  2  0
 12 11  1  0
 12 13  2  0
 13 14  1  0
 14 15  2  0
 16 15  1  0
 17 18  2  0
 17  9  1  0
 20 22  1  0
 20 19  1  0
 21 20  2  0
 24 23  1  6
 23 22  1  0
 24 25  1  0
 25 17  1  0
 26 24  1  0
 27 26  1  0
 28 26  2  0
M  END
$$$$
