VFQ.pdb
     RDKit          3D

 28 28  0  0  1  0  0  0  0  0999 V2000
    8.7819  -18.8405   20.3904 C   0  0  0  0  0  0  0  0  0  0  0  0
    8.0268  -17.8037   19.6405 C   0  0  2  0  0  0  0  0  0  0  0  0
    7.7221  -18.3240   18.2527 C   0  0  0  0  0  0  0  0  0  0  0  0
    8.6083  -16.4313   19.6324 C   0  0  2  0  0  0  0  0  0  0  0  0
    9.8918  -16.4982   18.9059 N   0  0  0  0  0  0  0  0  0  0  0  0
    8.8344  -15.8409   20.9759 C   0  0  0  0  0  0  0  0  0  0  0  0
    9.9548  -16.0095   21.5789 O   0  0  0  0  0  0  0  0  0  0  0  0
    7.8803  -15.0750   21.6754 N   0  0  0  0  0  0  0  0  0  0  0  0
    8.0460  -14.6167   23.0431 C   0  0  1  0  0  0  0  0  0  0  0  0
    7.0641  -13.5312   23.3798 C   0  0  0  0  0  0  0  0  0  0  0  0
    7.0860  -13.0999   24.7736 C   0  0  0  0  0  0  0  0  0  0  0  0
    6.3323  -13.6277   25.7911 C   0  0  0  0  0  0  0  0  0  0  0  0
    6.4109  -13.1548   27.1047 C   0  0  0  0  0  0  0  0  0  0  0  0
    7.2709  -12.1215   27.4084 C   0  0  0  0  0  0  0  0  0  0  0  0
    8.0468  -11.5661   26.4018 C   0  0  0  0  0  0  0  0  0  0  0  0
    7.9423  -12.0587   25.1181 C   0  0  0  0  0  0  0  0  0  0  0  0
    8.1191  -15.7212   23.9944 C   0  0  0  0  0  0  0  0  0  0  0  0
    7.3922  -16.7492   23.7716 O   0  0  0  0  0  0  0  0  0  0  0  0
   12.2511  -18.2288   22.4147 N   0  0  0  0  0  0  0  0  0  0  0  0
   12.3745  -18.9019   23.6442 C   0  0  0  0  0  0  0  0  0  0  0  0
   13.2138  -19.8150   23.7679 O   0  0  0  0  0  0  0  0  0  0  0  0
   11.4972  -18.5115   24.7824 C   0  0  0  0  0  0  0  0  0  0  0  0
   10.5841  -17.3778   24.3995 C   0  0  0  0  0  0  0  0  0  0  0  0
    9.7092  -16.9444   25.5396 C   0  0  2  0  0  0  0  0  0  0  0  0
    8.9183  -15.7605   25.1355 N   0  0  0  0  0  0  0  0  0  0  0  0
   10.4342  -16.6597   26.7872 C   0  0  0  0  0  0  0  0  0  0  0  0
   10.8843  -17.6555   27.6609 O   0  0  0  0  0  0  0  0  0  0  0  0
   10.6848  -15.4855   27.1285 O   0  0  0  0  0  0  0  0  0  0  0  0
  2  1  1  6
  3  2  1  0
  4  2  1  0
  4  5  1  1
  6  4  1  0
  7  6  2  0
  8  6  1  0
  9  8  1  0
  9 10  1  1
 10 11  1  0
 11 16  2  0
 12 11  1  0
 12 13  2  0
 13 14  1  0
 14 15  2  0
 16 15  1  0
 17 18  2  0
 17  9  1  0
 20 22  1  0
 20 19  1  0
 21 20  2  0
 24 23  1  6
 23 22  1  0
 24 25  1  0
 25 17  1  0
 26 24  1  0
 27 26  1  0
 28 26  2  0
M  END
$$$$
