VFQ.pdb
     RDKit          3D

 28 28  0  0  1  0  0  0  0  0999 V2000
   10.0904  -18.8140   20.6791 C   0  0  0  0  0  0  0  0  0  0  0  0
    8.7540  -18.3380   20.2377 C   0  0  2  0  0  0  0  0  0  0  0  0
    8.2880  -19.1875   19.0755 C   0  0  0  0  0  0  0  0  0  0  0  0
    8.6192  -16.8760   19.9802 C   0  0  2  0  0  0  0  0  0  0  0  0
    9.5993  -16.5177   18.9359 N   0  0  0  0  0  0  0  0  0  0  0  0
    8.8288  -16.0108   21.1685 C   0  0  0  0  0  0  0  0  0  0  0  0
    9.9882  -15.5198   21.4175 O   0  0  0  0  0  0  0  0  0  0  0  0
    7.8162  -15.6661   22.0861 N   0  0  0  0  0  0  0  0  0  0  0  0
    8.0438  -14.9167   23.3086 C   0  0  1  0  0  0  0  0  0  0  0  0
    6.8220  -14.1414   23.7113 C   0  0  0  0  0  0  0  0  0  0  0  0
    6.9098  -13.5010   25.0195 C   0  0  0  0  0  0  0  0  0  0  0  0
    6.2677  -13.9106   26.1605 C   0  0  0  0  0  0  0  0  0  0  0  0
    6.4034  -13.2382   27.3790 C   0  0  0  0  0  0  0  0  0  0  0  0
    7.2070  -12.1212   27.4570 C   0  0  0  0  0  0  0  0  0  0  0  0
    7.8701  -11.6814   26.3208 C   0  0  0  0  0  0  0  0  0  0  0  0
    7.7120  -12.3702   25.1368 C   0  0  0  0  0  0  0  0  0  0  0  0
    8.6490  -15.7328   24.3564 C   0  0  0  0  0  0  0  0  0  0  0  0
    7.9883  -16.7405   24.7839 O   0  0  0  0  0  0  0  0  0  0  0  0
   13.3482  -16.5038   22.1252 N   0  0  0  0  0  0  0  0  0  0  0  0
   13.3629  -16.5917   23.5295 C   0  0  0  0  0  0  0  0  0  0  0  0
   14.3335  -16.1397   24.1674 O   0  0  0  0  0  0  0  0  0  0  0  0
   12.2144  -17.2259   24.2341 C   0  0  0  0  0  0  0  0  0  0  0  0
   11.9852  -16.5902   25.5791 C   0  0  0  0  0  0  0  0  0  0  0  0
   10.5253  -16.4495   25.8985 C   0  0  2  0  0  0  0  0  0  0  0  0
    9.8958  -15.5141   24.9397 N   0  0  0  0  0  0  0  0  0  0  0  0
   10.2440  -16.0182   27.2763 C   0  0  0  0  0  0  0  0  0  0  0  0
    9.7726  -14.7421   27.6028 O   0  0  0  0  0  0  0  0  0  0  0  0
   10.4194  -16.7938   28.2384 O   0  0  0  0  0  0  0  0  0  0  0  0
  2  1  1  6
  3  2  1  0
  4  2  1  0
  4  5  1  6
  6  4  1  0
  7  6  2  0
  8  6  1  0
  9  8  1  0
  9 10  1  1
 10 11  1  0
 11 16  2  0
 12 11  1  0
 12 13  2  0
 13 14  1  0
 14 15  2  0
 16 15  1  0
 17 18  2  0
 17  9  1  0
 20 22  1  0
 20 19  1  0
 21 20  2  0
 24 23  1  6
 23 22  1  0
 24 25  1  0
 25 17  1  0
 26 24  1  0
 27 26  1  0
 28 26  2  0
M  END
$$$$
