VFQ.pdb
     RDKit          3D

 28 28  0  0  1  0  0  0  0  0999 V2000
    8.1459  -20.3913   23.0617 C   0  0  0  0  0  0  0  0  0  0  0  0
    7.1215  -19.7902   22.1691 C   0  0  2  0  0  0  0  0  0  0  0  0
    6.6357  -20.8438   21.1978 C   0  0  0  0  0  0  0  0  0  0  0  0
    7.4887  -18.5090   21.5016 C   0  0  2  0  0  0  0  0  0  0  0  0
    8.5833  -18.8005   20.5547 N   0  0  0  0  0  0  0  0  0  0  0  0
    7.9118  -17.4240   22.4226 C   0  0  0  0  0  0  0  0  0  0  0  0
    9.1403  -17.3165   22.7783 O   0  0  0  0  0  0  0  0  0  0  0  0
    7.0392  -16.4574   22.9618 N   0  0  0  0  0  0  0  0  0  0  0  0
    7.4069  -15.5192   24.0071 C   0  0  1  0  0  0  0  0  0  0  0  0
    6.4529  -14.3604   24.0634 C   0  0  0  0  0  0  0  0  0  0  0  0
    6.6594  -13.4547   25.1886 C   0  0  0  0  0  0  0  0  0  0  0  0
    5.9259  -13.4313   26.3477 C   0  0  0  0  0  0  0  0  0  0  0  0
    6.1875  -12.5269   27.3817 C   0  0  0  0  0  0  0  0  0  0  0  0
    7.2153  -11.6181   27.2506 C   0  0  0  0  0  0  0  0  0  0  0  0
    7.9758  -11.6161   26.0905 C   0  0  0  0  0  0  0  0  0  0  0  0
    7.6883  -12.5229   25.0923 C   0  0  0  0  0  0  0  0  0  0  0  0
    7.6736  -16.1817   25.2800 C   0  0  0  0  0  0  0  0  0  0  0  0
    6.7147  -16.8237   25.8305 O   0  0  0  0  0  0  0  0  0  0  0  0
    7.1315  -20.5599   26.8984 N   0  0  0  0  0  0  0  0  0  0  0  0
    8.2333  -20.5941   27.7730 C   0  0  0  0  0  0  0  0  0  0  0  0
    8.3251  -21.5067   28.6168 O   0  0  0  0  0  0  0  0  0  0  0  0
    9.2762  -19.5355   27.6764 C   0  0  0  0  0  0  0  0  0  0  0  0
    8.9275  -18.5256   26.6161 C   0  0  0  0  0  0  0  0  0  0  0  0
    9.2169  -17.1196   27.0549 C   0  0  2  0  0  0  0  0  0  0  0  0
    8.8912  -16.1808   25.9582 N   0  0  0  0  0  0  0  0  0  0  0  0
   10.5979  -16.8977   27.5099 C   0  0  0  0  0  0  0  0  0  0  0  0
   11.0751  -17.3174   28.7563 O   0  0  0  0  0  0  0  0  0  0  0  0
   11.4246  -16.3090   26.7833 O   0  0  0  0  0  0  0  0  0  0  0  0
  2  1  1  6
  3  2  1  0
  4  2  1  0
  4  5  1  6
  6  4  1  0
  7  6  2  0
  8  6  1  0
  9  8  1  0
  9 10  1  1
 10 11  1  0
 11 16  2  0
 12 11  1  0
 12 13  2  0
 13 14  1  0
 14 15  2  0
 16 15  1  0
 17 18  2  0
 17  9  1  0
 20 22  1  0
 20 19  1  0
 21 20  2  0
 24 23  1  6
 23 22  1  0
 24 25  1  0
 25 17  1  0
 26 24  1  0
 27 26  1  0
 28 26  2  0
M  END
$$$$
