VFQ.pdb
     RDKit          3D

 28 28  0  0  1  0  0  0  0  0999 V2000
   10.6002  -18.9454   21.4225 C   0  0  0  0  0  0  0  0  0  0  0  0
    9.2910  -18.5949   20.8137 C   0  0  2  0  0  0  0  0  0  0  0  0
    9.0168  -19.5356   19.6607 C   0  0  0  0  0  0  0  0  0  0  0  0
    9.0840  -17.1625   20.4575 C   0  0  2  0  0  0  0  0  0  0  0  0
   10.0610  -16.8221   19.4043 N   0  0  0  0  0  0  0  0  0  0  0  0
    9.2286  -16.2108   21.5880 C   0  0  0  0  0  0  0  0  0  0  0  0
   10.3831  -15.7461   21.9018 O   0  0  0  0  0  0  0  0  0  0  0  0
    8.1566  -15.7525   22.3798 N   0  0  0  0  0  0  0  0  0  0  0  0
    8.3101  -14.9070   23.5501 C   0  0  1  0  0  0  0  0  0  0  0  0
    7.0486  -14.1474   23.8463 C   0  0  0  0  0  0  0  0  0  0  0  0
    7.0839  -13.3623   25.0758 C   0  0  0  0  0  0  0  0  0  0  0  0
    7.8707  -12.2622   25.3056 C   0  0  0  0  0  0  0  0  0  0  0  0
    7.8469  -11.5639   26.5168 C   0  0  0  0  0  0  0  0  0  0  0  0
    7.0091  -11.9802   27.5290 C   0  0  0  0  0  0  0  0  0  0  0  0
    6.2007  -13.0893   27.3279 C   0  0  0  0  0  0  0  0  0  0  0  0
    6.2515  -13.7527   26.1201 C   0  0  0  0  0  0  0  0  0  0  0  0
    8.8982  -15.6215   24.6787 C   0  0  0  0  0  0  0  0  0  0  0  0
    8.3146  -16.6858   25.0803 O   0  0  0  0  0  0  0  0  0  0  0  0
   14.7756  -15.6506   25.1605 N   0  0  0  0  0  0  0  0  0  0  0  0
   14.0352  -16.6581   24.5150 C   0  0  0  0  0  0  0  0  0  0  0  0
   14.6008  -17.4198   23.7068 O   0  0  0  0  0  0  0  0  0  0  0  0
   12.5820  -16.7990   24.8085 C   0  0  0  0  0  0  0  0  0  0  0  0
   12.2168  -16.0973   26.0891 C   0  0  0  0  0  0  0  0  0  0  0  0
   10.7380  -16.1193   26.3459 C   0  0  2  0  0  0  0  0  0  0  0  0
   10.0515  -15.2477   25.3663 N   0  0  0  0  0  0  0  0  0  0  0  0
   10.3534  -15.7355   27.7127 C   0  0  0  0  0  0  0  0  0  0  0  0
   10.4294  -16.6040   28.8069 O   0  0  0  0  0  0  0  0  0  0  0  0
    9.9309  -14.5874   27.9605 O   0  0  0  0  0  0  0  0  0  0  0  0
  2  1  1  6
  3  2  1  0
  4  2  1  0
  4  5  1  6
  6  4  1  0
  7  6  2  0
  8  6  1  0
  9  8  1  0
  9 10  1  1
 10 11  1  0
 11 16  2  0
 12 11  1  0
 12 13  2  0
 13 14  1  0
 14 15  2  0
 16 15  1  0
 17 18  2  0
 17  9  1  0
 20 22  1  0
 20 19  1  0
 21 20  2  0
 24 23  1  1
 23 22  1  0
 24 25  1  0
 25 17  1  0
 26 24  1  0
 27 26  1  0
 28 26  2  0
M  END
$$$$
