CVA.pdb
     RDKit          3D

 19 18  0  0  1  0  0  0  0  0999 V2000
    5.1574  -12.6203   26.4632 N   0  0  0  0  0  0  0  0  0  0  0  0
    6.5508  -12.6656   26.0385 C   0  0  1  0  0  0  0  0  0  0  0  0
    7.4132  -12.5612   27.2794 C   0  0  0  0  0  0  0  0  0  0  0  0
    9.1359  -12.7967   26.8015 S   0  0  0  0  0  0  0  0  0  0  0  0
    6.8262  -13.9484   25.3269 C   0  0  0  0  0  0  0  0  0  0  0  0
    6.3545  -15.0186   25.7839 O   0  0  0  0  0  0  0  0  0  0  0  0
    9.0024  -14.1823   21.5661 C   0  0  0  0  0  0  0  0  0  0  0  0
    7.9072  -15.1187   22.0065 C   0  0  2  0  0  0  0  0  0  0  0  0
    6.5512  -14.6403   21.5334 C   0  0  0  0  0  0  0  0  0  0  0  0
    7.9201  -15.2360   23.5127 C   0  0  2  0  0  0  0  0  0  0  0  0
    7.6077  -13.9869   24.1473 N   0  0  0  0  0  0  0  0  0  0  0  0
    9.2085  -15.7965   24.0041 C   0  0  0  0  0  0  0  0  0  0  0  0
   10.1995  -15.0238   24.0466 O   0  0  0  0  0  0  0  0  0  0  0  0
   10.4515  -18.9812   25.5250 C   0  0  0  0  0  0  0  0  0  0  0  0
   10.6269  -17.6258   24.8376 C   0  0  2  0  0  0  0  0  0  0  0  0
    9.3516  -17.1334   24.4138 N   0  0  0  0  0  0  0  0  0  0  0  0
   11.5506  -17.8587   23.6954 C   0  0  0  0  0  0  0  0  0  0  0  0
   12.8830  -18.0877   23.9778 O   0  0  0  0  0  0  0  0  0  0  0  0
   11.1641  -17.8542   22.4979 O   0  0  0  0  0  0  0  0  0  0  0  0
  2  1  1  1
  3  2  1  0
  4  3  1  0
  5  2  1  0
  6  5  2  0
  8  7  1  1
  8 10  1  0
  9  8  1  0
 10 11  1  1
 11  5  1  0
 12 10  1  0
 12 16  1  0
 13 12  2  0
 15 16  1  0
 15 14  1  6
 17 15  1  0
 17 18  1  0
 19 17  2  0
M  END
$$$$
