CVA.pdb
     RDKit          3D

 19 18  0  0  1  0  0  0  0  0999 V2000
    6.2309  -15.4550   20.1708 N   0  0  0  0  0  0  0  0  0  0  0  0
    7.5068  -15.3369   20.8653 C   0  0  1  0  0  0  0  0  0  0  0  0
    8.1229  -14.0100   20.4724 C   0  0  0  0  0  0  0  0  0  0  0  0
    9.7280  -13.8619   21.2805 S   0  0  0  0  0  0  0  0  0  0  0  0
    7.2912  -15.3872   22.3413 C   0  0  0  0  0  0  0  0  0  0  0  0
    6.3545  -14.7226   22.8490 O   0  0  0  0  0  0  0  0  0  0  0  0
    6.2570  -18.1778   24.0982 C   0  0  0  0  0  0  0  0  0  0  0  0
    7.4515  -17.7542   24.9130 C   0  0  2  0  0  0  0  0  0  0  0  0
    7.1804  -17.8870   26.3964 C   0  0  0  0  0  0  0  0  0  0  0  0
    7.8101  -16.3257   24.5764 C   0  0  2  0  0  0  0  0  0  0  0  0
    8.1190  -16.1677   23.1835 N   0  0  0  0  0  0  0  0  0  0  0  0
    8.9085  -15.8211   25.4450 C   0  0  0  0  0  0  0  0  0  0  0  0
   10.0668  -16.2612   25.2313 O   0  0  0  0  0  0  0  0  0  0  0  0
    9.3948  -13.1801   28.0426 C   0  0  0  0  0  0  0  0  0  0  0  0
    9.7943  -14.4468   27.2833 C   0  0  2  0  0  0  0  0  0  0  0  0
    8.6986  -14.8882   26.4752 N   0  0  0  0  0  0  0  0  0  0  0  0
   10.1721  -15.4463   28.3178 C   0  0  0  0  0  0  0  0  0  0  0  0
   11.3510  -15.2473   29.0090 O   0  0  0  0  0  0  0  0  0  0  0  0
    9.4635  -16.4526   28.5803 O   0  0  0  0  0  0  0  0  0  0  0  0
  2  1  1  6
  3  2  1  0
  4  3  1  0
  5  2  1  0
  6  5  2  0
  8  7  1  6
  8 10  1  0
  9  8  1  0
 10 11  1  6
 11  5  1  0
 12 10  1  0
 12 16  1  0
 13 12  2  0
 15 16  1  0
 15 14  1  1
 17 15  1  0
 17 18  1  0
 19 17  2  0
M  END
$$$$
