CVA.pdb
     RDKit          3D

 19 18  0  0  1  0  0  0  0  0999 V2000
    9.2845  -17.6845   16.2947 N   0  0  0  0  0  0  0  0  0  0  0  0
    8.2221  -17.3741   17.2430 C   0  0  1  0  0  0  0  0  0  0  0  0
    7.6433  -18.6863   17.7305 C   0  0  0  0  0  0  0  0  0  0  0  0
    6.4401  -19.2669   16.5194 S   0  0  0  0  0  0  0  0  0  0  0  0
    8.7739  -16.5968   18.3914 C   0  0  0  0  0  0  0  0  0  0  0  0
    9.9728  -16.7619   18.7263 O   0  0  0  0  0  0  0  0  0  0  0  0
    7.4682  -12.8468   19.3217 C   0  0  0  0  0  0  0  0  0  0  0  0
    7.6573  -13.7196   20.5351 C   0  0  2  0  0  0  0  0  0  0  0  0
    8.2671  -12.9424   21.6821 C   0  0  0  0  0  0  0  0  0  0  0  0
    8.5372  -14.8948   20.1783 C   0  0  2  0  0  0  0  0  0  0  0  0
    7.9764  -15.6765   19.1130 N   0  0  0  0  0  0  0  0  0  0  0  0
    8.8417  -15.7292   21.3726 C   0  0  0  0  0  0  0  0  0  0  0  0
    7.9168  -16.4472   21.8308 O   0  0  0  0  0  0  0  0  0  0  0  0
   11.7277  -17.2349   22.9871 C   0  0  0  0  0  0  0  0  0  0  0  0
   10.3458  -16.5918   23.1182 C   0  0  2  0  0  0  0  0  0  0  0  0
   10.1030  -15.7412   21.9930 N   0  0  0  0  0  0  0  0  0  0  0  0
   10.3602  -15.8404   24.4016 C   0  0  0  0  0  0  0  0  0  0  0  0
   10.4721  -16.5637   25.5729 O   0  0  0  0  0  0  0  0  0  0  0  0
   10.2750  -14.5861   24.4550 O   0  0  0  0  0  0  0  0  0  0  0  0
  2  1  1  6
  3  2  1  0
  4  3  1  0
  5  2  1  0
  6  5  2  0
  8  7  1  6
  8 10  1  0
  9  8  1  0
 10 11  1  6
 11  5  1  0
 12 10  1  0
 12 16  1  0
 13 12  2  0
 15 16  1  0
 15 14  1  6
 17 15  1  0
 17 18  1  0
 19 17  2  0
M  END
$$$$
