CVA.pdb
     RDKit          3D

 19 18  0  0  1  0  0  0  0  0999 V2000
   10.4370  -17.3762   19.1087 N   0  0  0  0  0  0  0  0  0  0  0  0
   10.3672  -16.6784   20.3863 C   0  0  1  0  0  0  0  0  0  0  0  0
    8.9730  -16.8786   20.9439 C   0  0  0  0  0  0  0  0  0  0  0  0
    8.7346  -18.6352   21.2733 S   0  0  0  0  0  0  0  0  0  0  0  0
   11.3828  -17.2346   21.3280 C   0  0  0  0  0  0  0  0  0  0  0  0
   12.0364  -18.2540   20.9956 O   0  0  0  0  0  0  0  0  0  0  0  0
   14.3258  -15.5581   22.5100 C   0  0  0  0  0  0  0  0  0  0  0  0
   13.6747  -16.0486   23.7770 C   0  0  2  0  0  0  0  0  0  0  0  0
   14.7024  -16.5777   24.7545 C   0  0  0  0  0  0  0  0  0  0  0  0
   12.6719  -17.1282   23.4428 C   0  0  2  0  0  0  0  0  0  0  0  0
   11.6270  -16.6392   22.5887 N   0  0  0  0  0  0  0  0  0  0  0  0
   12.1258  -17.7635   24.6731 C   0  0  0  0  0  0  0  0  0  0  0  0
   11.4632  -17.0371   25.4569 O   0  0  0  0  0  0  0  0  0  0  0  0
   11.7256  -21.2009   26.0664 C   0  0  0  0  0  0  0  0  0  0  0  0
   11.7679  -19.6758   26.1792 C   0  0  2  0  0  0  0  0  0  0  0  0
   12.3218  -19.1207   24.9819 N   0  0  0  0  0  0  0  0  0  0  0  0
   12.5952  -19.3733   27.3775 C   0  0  0  0  0  0  0  0  0  0  0  0
   11.9658  -19.3419   28.6065 O   0  0  0  0  0  0  0  0  0  0  0  0
   13.8314  -19.1483   27.3099 O   0  0  0  0  0  0  0  0  0  0  0  0
  2  1  1  6
  3  2  1  0
  4  3  1  0
  5  2  1  0
  6  5  2  0
  8  7  1  6
  8 10  1  0
  9  8  1  0
 10 11  1  1
 11  5  1  0
 12 10  1  0
 12 16  1  0
 13 12  2  0
 15 16  1  0
 15 14  1  6
 17 15  1  0
 17 18  1  0
 19 17  2  0
M  END
$$$$
