CVA.pdb
     RDKit          3D

 19 18  0  0  1  0  0  0  0  0999 V2000
    7.1857  -16.3824   21.4296 N   0  0  0  0  0  0  0  0  0  0  0  0
    6.6253  -16.4689   22.7722 C   0  0  1  0  0  0  0  0  0  0  0  0
    6.6148  -17.9297   23.1728 C   0  0  0  0  0  0  0  0  0  0  0  0
    4.9587  -18.5874   22.8973 S   0  0  0  0  0  0  0  0  0  0  0  0
    7.4599  -15.6799   23.7255 C   0  0  0  0  0  0  0  0  0  0  0  0
    8.7055  -15.6465   23.5701 O   0  0  0  0  0  0  0  0  0  0  0  0
    6.2180  -12.2543   25.5004 C   0  0  0  0  0  0  0  0  0  0  0  0
    6.8894  -13.1891   26.4728 C   0  0  2  0  0  0  0  0  0  0  0  0
    7.7821  -12.4342   27.4344 C   0  0  0  0  0  0  0  0  0  0  0  0
    7.6964  -14.2141   25.7107 C   0  0  2  0  0  0  0  0  0  0  0  0
    6.8795  -14.9675   24.8021 N   0  0  0  0  0  0  0  0  0  0  0  0
    8.4582  -15.1012   26.6317 C   0  0  0  0  0  0  0  0  0  0  0  0
    7.8030  -15.9267   27.3175 O   0  0  0  0  0  0  0  0  0  0  0  0
   12.0090  -16.0876   27.1430 C   0  0  0  0  0  0  0  0  0  0  0  0
   10.5445  -16.0002   27.5765 C   0  0  2  0  0  0  0  0  0  0  0  0
    9.8571  -15.0483   26.7579 N   0  0  0  0  0  0  0  0  0  0  0  0
   10.5612  -15.6047   29.0101 C   0  0  0  0  0  0  0  0  0  0  0  0
   11.0990  -16.4939   29.9198 O   0  0  0  0  0  0  0  0  0  0  0  0
   10.1083  -14.5030   29.4158 O   0  0  0  0  0  0  0  0  0  0  0  0
  2  1  1  6
  3  2  1  0
  4  3  1  0
  5  2  1  0
  6  5  2  0
  8  7  1  6
  8 10  1  0
  9  8  1  0
 10 11  1  1
 11  5  1  0
 12 10  1  0
 12 16  1  0
 13 12  2  0
 15 16  1  0
 15 14  1  6
 17 15  1  0
 17 18  1  0
 19 17  2  0
M  END
$$$$
