CVA.pdb
     RDKit          3D

 19 18  0  0  1  0  0  0  0  0999 V2000
    6.8446  -16.8135   21.6111 N   0  0  0  0  0  0  0  0  0  0  0  0
    6.5076  -16.9090   23.0259 C   0  0  1  0  0  0  0  0  0  0  0  0
    6.7709  -18.3344   23.4660 C   0  0  0  0  0  0  0  0  0  0  0  0
    6.3459  -18.4826   25.2120 S   0  0  0  0  0  0  0  0  0  0  0  0
    7.3490  -15.9627   23.8160 C   0  0  0  0  0  0  0  0  0  0  0  0
    8.5562  -15.8080   23.5067 O   0  0  0  0  0  0  0  0  0  0  0  0
    6.1792  -12.4414   25.5006 C   0  0  0  0  0  0  0  0  0  0  0  0
    6.8633  -13.3652   26.4747 C   0  0  2  0  0  0  0  0  0  0  0  0
    7.7681  -12.5994   27.4162 C   0  0  0  0  0  0  0  0  0  0  0  0
    7.6607  -14.3987   25.7140 C   0  0  2  0  0  0  0  0  0  0  0  0
    6.8175  -15.2347   24.9073 N   0  0  0  0  0  0  0  0  0  0  0  0
    8.5219  -15.2007   26.6253 C   0  0  0  0  0  0  0  0  0  0  0  0
    7.9532  -16.0224   27.3884 O   0  0  0  0  0  0  0  0  0  0  0  0
   12.1695  -15.8604   27.0897 C   0  0  0  0  0  0  0  0  0  0  0  0
   10.7013  -15.9145   27.5161 C   0  0  2  0  0  0  0  0  0  0  0  0
    9.9212  -15.0730   26.6607 N   0  0  0  0  0  0  0  0  0  0  0  0
   10.6665  -15.4666   28.9339 C   0  0  0  0  0  0  0  0  0  0  0  0
   11.1972  -16.3088   29.8912 O   0  0  0  0  0  0  0  0  0  0  0  0
   10.1766  -14.3619   29.2850 O   0  0  0  0  0  0  0  0  0  0  0  0
  2  1  1  6
  3  2  1  0
  4  3  1  0
  5  2  1  0
  6  5  2  0
  8  7  1  6
  8 10  1  0
  9  8  1  0
 10 11  1  1
 11  5  1  0
 12 10  1  0
 12 16  1  0
 13 12  2  0
 15 16  1  0
 15 14  1  6
 17 15  1  0
 17 18  1  0
 19 17  2  0
M  END
$$$$
