PTL.pdb
     RDKit          3D

 23 23  0  0  1  0  0  0  0  0999 V2000
    9.1451  -14.5528   18.6882 N   0  0  0  0  0  0  0  0  0  0  0  0
    8.2253  -13.9541   17.7584 C   0  0  0  0  0  0  0  0  0  0  0  0
    7.1550  -13.4020   18.7072 C   0  0  0  0  0  0  0  0  0  0  0  0
    8.0569  -12.7387   19.7562 C   0  0  0  0  0  0  0  0  0  0  0  0
    9.1410  -13.7814   19.8916 C   0  0  1  0  0  0  0  0  0  0  0  0
    8.8290  -14.5945   21.0940 C   0  0  0  0  0  0  0  0  0  0  0  0
    7.8635  -14.2282   21.8009 O   0  0  0  0  0  0  0  0  0  0  0  0
    8.5891  -18.5791   21.2528 C   0  0  0  0  0  0  0  0  0  0  0  0
    9.3991  -18.0280   22.3807 C   0  0  1  0  0  0  0  0  0  0  0  0
   10.7490  -18.2039   22.0663 O   0  0  0  0  0  0  0  0  0  0  0  0
    9.2028  -16.5497   22.5995 C   0  0  2  0  0  0  0  0  0  0  0  0
    9.5441  -15.7383   21.4818 N   0  0  0  0  0  0  0  0  0  0  0  0
    9.9777  -16.1857   23.8141 C   0  0  0  0  0  0  0  0  0  0  0  0
   11.1335  -15.7343   23.6158 O   0  0  0  0  0  0  0  0  0  0  0  0
    9.0815  -13.6392   29.2205 C   0  0  0  0  0  0  0  0  0  0  0  0
    9.9881  -14.4508   28.3800 C   0  0  2  0  0  0  0  0  0  0  0  0
   11.2450  -13.6234   28.0533 C   0  0  0  0  0  0  0  0  0  0  0  0
    9.5020  -15.0172   27.1150 C   0  0  0  0  0  0  0  0  0  0  0  0
   10.3047  -15.9603   26.3224 C   0  0  2  0  0  0  0  0  0  0  0  0
    9.4859  -16.3219   25.1211 N   0  0  0  0  0  0  0  0  0  0  0  0
   10.8045  -17.1864   26.9388 C   0  0  0  0  0  0  0  0  0  0  0  0
   10.0306  -18.3575   27.0401 O   0  0  0  0  0  0  0  0  0  0  0  0
   11.9482  -17.2641   27.4100 O   0  0  0  0  0  0  0  0  0  0  0  0
  1  2  1  0
  2  3  1  0
  4  3  1  0
  5  1  1  0
  5  4  1  0
  5  6  1  1
  7  6  2  0
  9  8  1  6
  9 11  1  0
 10  9  1  0
 11 13  1  0
 11 12  1  6
 12  6  1  0
 13 20  1  0
 14 13  2  0
 16 15  1  6
 16 17  1  0
 18 16  1  0
 19 18  1  1
 19 21  1  0
 20 19  1  0
 21 23  2  0
 21 22  1  0
M  END
$$$$
