PTL.pdb
     RDKit          3D

 23 23  0  0  1  0  0  0  0  0999 V2000
    9.6573  -14.4371   18.3629 N   0  0  0  0  0  0  0  0  0  0  0  0
    9.1026  -14.2228   17.0531 C   0  0  0  0  0  0  0  0  0  0  0  0
    7.6275  -13.9733   17.3883 C   0  0  0  0  0  0  0  0  0  0  0  0
    7.7903  -12.9904   18.5550 C   0  0  0  0  0  0  0  0  0  0  0  0
    8.9411  -13.6268   19.2976 C   0  0  1  0  0  0  0  0  0  0  0  0
    8.3671  -14.4137   20.4182 C   0  0  0  0  0  0  0  0  0  0  0  0
    7.4542  -13.8798   21.0871 O   0  0  0  0  0  0  0  0  0  0  0  0
    8.2989  -18.5558   23.2184 C   0  0  0  0  0  0  0  0  0  0  0  0
    8.8805  -17.7986   22.0694 C   0  0  1  0  0  0  0  0  0  0  0  0
    8.5467  -18.4771   20.8945 O   0  0  0  0  0  0  0  0  0  0  0  0
    8.3301  -16.4029   21.9251 C   0  0  2  0  0  0  0  0  0  0  0  0
    8.7821  -15.7079   20.7689 N   0  0  0  0  0  0  0  0  0  0  0  0
    8.6579  -15.6770   23.1796 C   0  0  0  0  0  0  0  0  0  0  0  0
    9.8451  -15.2813   23.2934 O   0  0  0  0  0  0  0  0  0  0  0  0
    5.6716  -12.1522   27.2346 C   0  0  0  0  0  0  0  0  0  0  0  0
    6.9287  -12.8210   26.8349 C   0  0  2  0  0  0  0  0  0  0  0  0
    7.9911  -11.7500   26.5265 C   0  0  0  0  0  0  0  0  0  0  0  0
    6.9289  -13.7670   25.7113 C   0  0  0  0  0  0  0  0  0  0  0  0
    8.0797  -14.6357   25.4225 C   0  0  2  0  0  0  0  0  0  0  0  0
    7.7280  -15.4272   24.2002 N   0  0  0  0  0  0  0  0  0  0  0  0
    8.5772  -15.5483   26.4484 C   0  0  0  0  0  0  0  0  0  0  0  0
    8.0161  -16.8193   26.6733 O   0  0  0  0  0  0  0  0  0  0  0  0
    9.5300  -15.2517   27.1835 O   0  0  0  0  0  0  0  0  0  0  0  0
  1  2  1  0
  2  3  1  0
  4  3  1  0
  5  1  1  0
  5  4  1  0
  5  6  1  1
  7  6  2  0
  9  8  1  1
  9 11  1  0
 10  9  1  0
 11 13  1  0
 11 12  1  6
 12  6  1  0
 13 20  1  0
 14 13  2  0
 16 15  1  6
 16 17  1  0
 18 16  1  0
 19 18  1  1
 19 21  1  0
 20 19  1  0
 21 23  2  0
 21 22  1  0
M  END
$$$$
