PTL.pdb
     RDKit          3D

 23 23  0  0  1  0  0  0  0  0999 V2000
   10.5348  -18.3364   19.8212 N   0  0  0  0  0  0  0  0  0  0  0  0
   10.7339  -18.5022   18.4063 C   0  0  0  0  0  0  0  0  0  0  0  0
   10.9048  -17.0473   17.9540 C   0  0  0  0  0  0  0  0  0  0  0  0
   11.8829  -16.5558   19.0289 C   0  0  0  0  0  0  0  0  0  0  0  0
   11.2983  -17.2098   20.2583 C   0  0  1  0  0  0  0  0  0  0  0  0
   10.4721  -16.1912   20.9542 C   0  0  0  0  0  0  0  0  0  0  0  0
   11.0157  -15.0969   21.2241 O   0  0  0  0  0  0  0  0  0  0  0  0
    6.8600  -14.6951   20.0565 C   0  0  0  0  0  0  0  0  0  0  0  0
    6.9314  -15.2743   21.4318 C   0  0  1  0  0  0  0  0  0  0  0  0
    6.4220  -16.5742   21.3776 O   0  0  0  0  0  0  0  0  0  0  0  0
    8.3359  -15.3902   21.9662 C   0  0  2  0  0  0  0  0  0  0  0  0
    9.1311  -16.3795   21.3236 N   0  0  0  0  0  0  0  0  0  0  0  0
    8.2238  -15.6244   23.4294 C   0  0  0  0  0  0  0  0  0  0  0  0
    8.7598  -16.6754   23.8620 O   0  0  0  0  0  0  0  0  0  0  0  0
    8.3268  -12.1661   27.1307 C   0  0  0  0  0  0  0  0  0  0  0  0
    7.1412  -12.5509   26.3348 C   0  0  2  0  0  0  0  0  0  0  0  0
    5.9548  -11.6551   26.7360 C   0  0  0  0  0  0  0  0  0  0  0  0
    6.6627  -13.9394   26.3593 C   0  0  0  0  0  0  0  0  0  0  0  0
    7.4382  -15.0427   25.7732 C   0  0  2  0  0  0  0  0  0  0  0  0
    7.5681  -14.7505   24.3097 N   0  0  0  0  0  0  0  0  0  0  0  0
    6.9830  -16.4204   25.9405 C   0  0  0  0  0  0  0  0  0  0  0  0
    7.3946  -17.2330   27.0133 O   0  0  0  0  0  0  0  0  0  0  0  0
    6.2014  -16.9542   25.1403 O   0  0  0  0  0  0  0  0  0  0  0  0
  1  2  1  0
  2  3  1  0
  4  3  1  0
  5  1  1  0
  5  4  1  0
  5  6  1  6
  7  6  2  0
  9  8  1  6
  9 11  1  0
 10  9  1  0
 11 13  1  0
 11 12  1  6
 12  6  1  0
 13 20  1  0
 14 13  2  0
 16 15  1  1
 16 17  1  0
 18 16  1  0
 19 18  1  6
 19 21  1  0
 20 19  1  0
 21 23  2  0
 21 22  1  0
M  END
$$$$
