PTL.pdb
     RDKit          3D

 23 23  0  0  1  0  0  0  0  0999 V2000
    9.2661  -14.5978   18.5196 N   0  0  0  0  0  0  0  0  0  0  0  0
    8.7035  -14.1332   17.2800 C   0  0  0  0  0  0  0  0  0  0  0  0
    7.4541  -13.3950   17.7746 C   0  0  0  0  0  0  0  0  0  0  0  0
    8.0674  -12.5955   18.9315 C   0  0  0  0  0  0  0  0  0  0  0  0
    8.9791  -13.6360   19.5373 C   0  0  1  0  0  0  0  0  0  0  0  0
    8.2703  -14.2254   20.7012 C   0  0  0  0  0  0  0  0  0  0  0  0
    7.4087  -13.5171   21.2685 O   0  0  0  0  0  0  0  0  0  0  0  0
    7.0589  -18.1840   21.1868 C   0  0  0  0  0  0  0  0  0  0  0  0
    7.7954  -17.5824   22.3389 C   0  0  1  0  0  0  0  0  0  0  0  0
    9.1255  -18.0040   22.2660 O   0  0  0  0  0  0  0  0  0  0  0  0
    7.8254  -16.0756   22.3161 C   0  0  2  0  0  0  0  0  0  0  0  0
    8.5057  -15.5167   21.1986 N   0  0  0  0  0  0  0  0  0  0  0  0
    8.4132  -15.6353   23.6080 C   0  0  0  0  0  0  0  0  0  0  0  0
    9.6603  -15.4819   23.6223 O   0  0  0  0  0  0  0  0  0  0  0  0
    7.9224  -11.6982   26.0942 C   0  0  0  0  0  0  0  0  0  0  0  0
    6.9329  -12.7942   26.1775 C   0  0  2  0  0  0  0  0  0  0  0  0
    5.7114  -12.3081   26.9790 C   0  0  0  0  0  0  0  0  0  0  0  0
    7.3268  -14.0947   26.7351 C   0  0  0  0  0  0  0  0  0  0  0  0
    8.2896  -14.9755   26.0572 C   0  0  2  0  0  0  0  0  0  0  0  0
    7.6573  -15.3942   24.7652 N   0  0  0  0  0  0  0  0  0  0  0  0
    8.7955  -16.1626   26.7412 C   0  0  0  0  0  0  0  0  0  0  0  0
    9.8376  -16.1104   27.6857 O   0  0  0  0  0  0  0  0  0  0  0  0
    8.3305  -17.2911   26.5264 O   0  0  0  0  0  0  0  0  0  0  0  0
  1  2  1  0
  2  3  1  0
  4  3  1  0
  5  1  1  0
  5  4  1  0
  5  6  1  1
  7  6  2  0
  9  8  1  6
  9 11  1  0
 10  9  1  0
 11 13  1  0
 11 12  1  6
 12  6  1  0
 13 20  1  0
 14 13  2  0
 16 15  1  1
 16 17  1  0
 18 16  1  0
 19 18  1  1
 19 21  1  0
 20 19  1  0
 21 23  2  0
 21 22  1  0
M  END
$$$$
