PTL.pdb
     RDKit          3D

 23 23  0  0  1  0  0  0  0  0999 V2000
   10.7972  -18.7926   20.1669 N   0  0  0  0  0  0  0  0  0  0  0  0
   10.8841  -19.2679   18.8121 C   0  0  0  0  0  0  0  0  0  0  0  0
   10.8592  -17.9501   18.0289 C   0  0  0  0  0  0  0  0  0  0  0  0
   11.8729  -17.1424   18.8496 C   0  0  0  0  0  0  0  0  0  0  0  0
   11.4738  -17.5364   20.2519 C   0  0  1  0  0  0  0  0  0  0  0  0
   10.6109  -16.4544   20.7897 C   0  0  0  0  0  0  0  0  0  0  0  0
   11.1057  -15.3073   20.8627 O   0  0  0  0  0  0  0  0  0  0  0  0
    6.6675  -15.8119   19.8422 C   0  0  0  0  0  0  0  0  0  0  0  0
    6.9693  -15.8052   21.3053 C   0  0  1  0  0  0  0  0  0  0  0  0
    6.6456  -17.0645   21.8166 O   0  0  0  0  0  0  0  0  0  0  0  0
    8.4259  -15.5801   21.6206 C   0  0  2  0  0  0  0  0  0  0  0  0
    9.2865  -16.6385   21.2165 N   0  0  0  0  0  0  0  0  0  0  0  0
    8.5159  -15.3101   23.0791 C   0  0  0  0  0  0  0  0  0  0  0  0
    9.0280  -16.2205   23.7777 O   0  0  0  0  0  0  0  0  0  0  0  0
    6.2278  -12.8756   27.7054 C   0  0  0  0  0  0  0  0  0  0  0  0
    7.1489  -12.1643   26.7929 C   0  0  2  0  0  0  0  0  0  0  0  0
    6.6990  -10.6969   26.6688 C   0  0  0  0  0  0  0  0  0  0  0  0
    7.3626  -12.6682   25.4299 C   0  0  0  0  0  0  0  0  0  0  0  0
    8.0462  -13.9433   25.1673 C   0  0  2  0  0  0  0  0  0  0  0  0
    8.0683  -14.1240   23.6804 N   0  0  0  0  0  0  0  0  0  0  0  0
    7.5545  -15.1724   25.7844 C   0  0  0  0  0  0  0  0  0  0  0  0
    6.3921  -15.8327   25.3443 O   0  0  0  0  0  0  0  0  0  0  0  0
    8.1393  -15.7068   26.7376 O   0  0  0  0  0  0  0  0  0  0  0  0
  1  2  1  0
  2  3  1  0
  4  3  1  0
  5  1  1  0
  5  4  1  0
  5  6  1  6
  7  6  2  0
  9  8  1  6
  9 11  1  0
 10  9  1  0
 11 13  1  0
 11 12  1  1
 12  6  1  0
 13 20  1  0
 14 13  2  0
 16 15  1  6
 16 17  1  0
 18 16  1  0
 19 18  1  6
 19 21  1  0
 20 19  1  0
 21 23  2  0
 21 22  1  0
M  END
$$$$
