PTL.pdb
     RDKit          3D

 23 23  0  0  1  0  0  0  0  0999 V2000
    9.4621  -18.1917   19.0610 N   0  0  0  0  0  0  0  0  0  0  0  0
    8.9661  -18.1362   17.7119 C   0  0  0  0  0  0  0  0  0  0  0  0
    8.9615  -16.6247   17.4550 C   0  0  0  0  0  0  0  0  0  0  0  0
   10.3484  -16.2651   18.0035 C   0  0  0  0  0  0  0  0  0  0  0  0
   10.3849  -17.1166   19.2503 C   0  0  1  0  0  0  0  0  0  0  0  0
   10.0232  -16.2442   20.3959 C   0  0  0  0  0  0  0  0  0  0  0  0
   10.6477  -15.1666   20.5174 O   0  0  0  0  0  0  0  0  0  0  0  0
    6.3585  -15.0640   21.4866 C   0  0  0  0  0  0  0  0  0  0  0  0
    7.1376  -15.6384   22.6246 C   0  0  1  0  0  0  0  0  0  0  0  0
    6.7360  -16.9659   22.7937 O   0  0  0  0  0  0  0  0  0  0  0  0
    8.6249  -15.6718   22.3824 C   0  0  2  0  0  0  0  0  0  0  0  0
    9.0326  -16.5519   21.3416 N   0  0  0  0  0  0  0  0  0  0  0  0
    9.2670  -16.0036   23.6808 C   0  0  0  0  0  0  0  0  0  0  0  0
    9.8662  -17.1068   23.7335 O   0  0  0  0  0  0  0  0  0  0  0  0
    9.3991  -13.8000   29.4775 C   0  0  0  0  0  0  0  0  0  0  0  0
   10.1847  -14.4425   28.4018 C   0  0  2  0  0  0  0  0  0  0  0  0
   11.6035  -13.8443   28.3904 C   0  0  0  0  0  0  0  0  0  0  0  0
    9.6917  -14.4135   27.0185 C   0  0  0  0  0  0  0  0  0  0  0  0
    9.7951  -15.5793   26.1283 C   0  0  2  0  0  0  0  0  0  0  0  0
    9.2304  -15.1640   24.8044 N   0  0  0  0  0  0  0  0  0  0  0  0
    9.1910  -16.8497   26.5211 C   0  0  0  0  0  0  0  0  0  0  0  0
    9.9298  -17.8951   27.1061 O   0  0  0  0  0  0  0  0  0  0  0  0
    7.9837  -17.0790   26.3603 O   0  0  0  0  0  0  0  0  0  0  0  0
  1  2  1  0
  2  3  1  0
  4  3  1  0
  5  1  1  0
  5  4  1  0
  5  6  1  1
  7  6  2  0
  9  8  1  6
  9 11  1  0
 10  9  1  0
 11 13  1  0
 11 12  1  6
 12  6  1  0
 13 20  1  0
 14 13  2  0
 16 15  1  1
 16 17  1  0
 18 16  1  0
 19 18  1  1
 19 21  1  0
 20 19  1  0
 21 23  2  0
 21 22  1  0
M  END
$$$$
