PTL.pdb
     RDKit          3D

 23 23  0  0  1  0  0  0  0  0999 V2000
    8.6016  -14.7786   17.9530 N   0  0  0  0  0  0  0  0  0  0  0  0
    8.0997  -13.7839   17.0431 C   0  0  0  0  0  0  0  0  0  0  0  0
    7.4675  -12.7798   18.0140 C   0  0  0  0  0  0  0  0  0  0  0  0
    8.5939  -12.6784   19.0506 C   0  0  0  0  0  0  0  0  0  0  0  0
    9.0032  -14.1280   19.1607 C   0  0  1  0  0  0  0  0  0  0  0  0
    8.3375  -14.6884   20.3637 C   0  0  0  0  0  0  0  0  0  0  0  0
    7.1115  -14.4746   20.4943 O   0  0  0  0  0  0  0  0  0  0  0  0
    7.9596  -18.2805   21.3067 C   0  0  0  0  0  0  0  0  0  0  0  0
    8.5137  -17.5662   22.4962 C   0  0  1  0  0  0  0  0  0  0  0  0
    9.8916  -17.7947   22.5312 O   0  0  0  0  0  0  0  0  0  0  0  0
    8.3321  -16.0710   22.4416 C   0  0  2  0  0  0  0  0  0  0  0  0
    8.9938  -15.4365   21.3536 N   0  0  0  0  0  0  0  0  0  0  0  0
    8.7719  -15.5338   23.7555 C   0  0  0  0  0  0  0  0  0  0  0  0
    9.9611  -15.1325   23.8168 O   0  0  0  0  0  0  0  0  0  0  0  0
    7.6361  -11.6701   25.9900 C   0  0  0  0  0  0  0  0  0  0  0  0
    6.7561  -12.8558   26.0739 C   0  0  2  0  0  0  0  0  0  0  0  0
    5.4540  -12.4644   26.7967 C   0  0  0  0  0  0  0  0  0  0  0  0
    7.2472  -14.0884   26.7040 C   0  0  0  0  0  0  0  0  0  0  0  0
    8.3945  -14.8356   26.1678 C   0  0  2  0  0  0  0  0  0  0  0  0
    7.9415  -15.4610   24.8842 N   0  0  0  0  0  0  0  0  0  0  0  0
    9.0441  -15.8560   26.9862 C   0  0  0  0  0  0  0  0  0  0  0  0
    9.9641  -15.5431   28.0042 O   0  0  0  0  0  0  0  0  0  0  0  0
    8.8183  -17.0644   26.8285 O   0  0  0  0  0  0  0  0  0  0  0  0
  1  2  1  0
  2  3  1  0
  4  3  1  0
  5  1  1  0
  5  4  1  0
  5  6  1  1
  7  6  2  0
  9  8  1  6
  9 11  1  0
 10  9  1  0
 11 13  1  0
 11 12  1  6
 12  6  1  0
 13 20  1  0
 14 13  2  0
 16 15  1  1
 16 17  1  0
 18 16  1  0
 19 18  1  1
 19 21  1  0
 20 19  1  0
 21 23  2  0
 21 22  1  0
M  END
$$$$
