PTL.pdb
     RDKit          3D

 23 23  0  0  1  0  0  0  0  0999 V2000
    9.1739  -14.5819   18.7099 N   0  0  0  0  0  0  0  0  0  0  0  0
    8.5406  -14.2460   17.4629 C   0  0  0  0  0  0  0  0  0  0  0  0
    7.2548  -13.5687   17.9514 C   0  0  0  0  0  0  0  0  0  0  0  0
    7.8411  -12.6489   19.0301 C   0  0  0  0  0  0  0  0  0  0  0  0
    8.8465  -13.5758   19.6710 C   0  0  1  0  0  0  0  0  0  0  0  0
    8.2197  -14.1340   20.8959 C   0  0  0  0  0  0  0  0  0  0  0  0
    7.7415  -13.3211   21.7183 O   0  0  0  0  0  0  0  0  0  0  0  0
    8.5957  -18.2753   22.4183 C   0  0  0  0  0  0  0  0  0  0  0  0
    7.3018  -17.5374   22.3027 C   0  0  1  0  0  0  0  0  0  0  0  0
    6.5205  -17.8633   23.4143 O   0  0  0  0  0  0  0  0  0  0  0  0
    7.4578  -16.0384   22.3177 C   0  0  2  0  0  0  0  0  0  0  0  0
    8.1317  -15.5049   21.1840 N   0  0  0  0  0  0  0  0  0  0  0  0
    8.1384  -15.6872   23.5912 C   0  0  0  0  0  0  0  0  0  0  0  0
    9.3946  -15.7044   23.5678 O   0  0  0  0  0  0  0  0  0  0  0  0
    8.0429  -11.6856   25.7091 C   0  0  0  0  0  0  0  0  0  0  0  0
    6.9887  -12.6711   26.0326 C   0  0  2  0  0  0  0  0  0  0  0  0
    5.9203  -11.9936   26.9104 C   0  0  0  0  0  0  0  0  0  0  0  0
    7.3463  -13.9371   26.6859 C   0  0  0  0  0  0  0  0  0  0  0  0
    8.1788  -14.9507   26.0212 C   0  0  2  0  0  0  0  0  0  0  0  0
    7.4572  -15.3507   24.7708 N   0  0  0  0  0  0  0  0  0  0  0  0
    8.5724  -16.1567   26.7449 C   0  0  0  0  0  0  0  0  0  0  0  0
    9.5887  -16.1623   27.7186 O   0  0  0  0  0  0  0  0  0  0  0  0
    8.0278  -17.2510   26.5405 O   0  0  0  0  0  0  0  0  0  0  0  0
  1  2  1  0
  2  3  1  0
  4  3  1  0
  5  1  1  0
  5  4  1  0
  5  6  1  1
  7  6  2  0
  9  8  1  1
  9 11  1  0
 10  9  1  0
 11 13  1  0
 11 12  1  6
 12  6  1  0
 13 20  1  0
 14 13  2  0
 16 15  1  1
 16 17  1  0
 18 16  1  0
 19 18  1  1
 19 21  1  0
 20 19  1  0
 21 23  2  0
 21 22  1  0
M  END
$$$$
