PTL.pdb
     RDKit          3D

 23 23  0  0  1  0  0  0  0  0999 V2000
    9.0474  -14.5974   18.4722 N   0  0  0  0  0  0  0  0  0  0  0  0
    8.4154  -13.9587   17.3489 C   0  0  0  0  0  0  0  0  0  0  0  0
    7.3006  -13.1663   18.0415 C   0  0  0  0  0  0  0  0  0  0  0  0
    8.1010  -12.5488   19.1955 C   0  0  0  0  0  0  0  0  0  0  0  0
    8.9590  -13.7239   19.6002 C   0  0  1  0  0  0  0  0  0  0  0  0
    8.3123  -14.3643   20.7732 C   0  0  0  0  0  0  0  0  0  0  0  0
    7.3850  -13.7367   21.3320 O   0  0  0  0  0  0  0  0  0  0  0  0
    7.6149  -18.4302   21.2132 C   0  0  0  0  0  0  0  0  0  0  0  0
    8.1664  -17.7469   22.4219 C   0  0  1  0  0  0  0  0  0  0  0  0
    9.5375  -18.0103   22.4763 O   0  0  0  0  0  0  0  0  0  0  0  0
    8.0230  -16.2469   22.3860 C   0  0  2  0  0  0  0  0  0  0  0  0
    8.6742  -15.6189   21.2880 N   0  0  0  0  0  0  0  0  0  0  0  0
    8.5087  -15.7347   23.6936 C   0  0  0  0  0  0  0  0  0  0  0  0
    9.7236  -15.4179   23.7446 O   0  0  0  0  0  0  0  0  0  0  0  0
    7.9838  -11.8900   26.2190 C   0  0  0  0  0  0  0  0  0  0  0  0
    6.9276  -12.9251   26.2138 C   0  0  2  0  0  0  0  0  0  0  0  0
    5.6974  -12.3909   26.9703 C   0  0  0  0  0  0  0  0  0  0  0  0
    7.2135  -14.2648   26.7436 C   0  0  0  0  0  0  0  0  0  0  0  0
    8.2344  -15.1388   26.1469 C   0  0  2  0  0  0  0  0  0  0  0  0
    7.6936  -15.5973   24.8273 N   0  0  0  0  0  0  0  0  0  0  0  0
    8.7196  -16.3005   26.8872 C   0  0  0  0  0  0  0  0  0  0  0  0
    9.6855  -16.2045   27.9063 O   0  0  0  0  0  0  0  0  0  0  0  0
    8.3032  -17.4450   26.6574 O   0  0  0  0  0  0  0  0  0  0  0  0
  1  2  1  0
  2  3  1  0
  4  3  1  0
  5  1  1  0
  5  4  1  0
  5  6  1  1
  7  6  2  0
  9  8  1  6
  9 11  1  0
 10  9  1  0
 11 13  1  0
 11 12  1  6
 12  6  1  0
 13 20  1  0
 14 13  2  0
 16 15  1  1
 16 17  1  0
 18 16  1  0
 19 18  1  1
 19 21  1  0
 20 19  1  0
 21 23  2  0
 21 22  1  0
M  END
$$$$
