PTL.pdb
     RDKit          3D

 23 23  0  0  1  0  0  0  0  0999 V2000
    9.3074  -14.6099   18.7009 N   0  0  0  0  0  0  0  0  0  0  0  0
    8.6516  -14.2820   17.4634 C   0  0  0  0  0  0  0  0  0  0  0  0
    7.3576  -13.6350   17.9709 C   0  0  0  0  0  0  0  0  0  0  0  0
    7.9372  -12.7078   19.0471 C   0  0  0  0  0  0  0  0  0  0  0  0
    8.9701  -13.6158   19.6710 C   0  0  1  0  0  0  0  0  0  0  0  0
    8.3708  -14.1932   20.9005 C   0  0  0  0  0  0  0  0  0  0  0  0
    7.7474  -13.4147   21.6563 O   0  0  0  0  0  0  0  0  0  0  0  0
    7.1978  -18.2664   21.2339 C   0  0  0  0  0  0  0  0  0  0  0  0
    7.8228  -17.6219   22.4281 C   0  0  1  0  0  0  0  0  0  0  0  0
    9.1700  -17.9911   22.4598 O   0  0  0  0  0  0  0  0  0  0  0  0
    7.7959  -16.1156   22.3849 C   0  0  2  0  0  0  0  0  0  0  0  0
    8.4599  -15.5464   21.2627 N   0  0  0  0  0  0  0  0  0  0  0  0
    8.3606  -15.6359   23.6730 C   0  0  0  0  0  0  0  0  0  0  0  0
    9.5978  -15.4166   23.6850 O   0  0  0  0  0  0  0  0  0  0  0  0
    8.0255  -11.6441   25.8998 C   0  0  0  0  0  0  0  0  0  0  0  0
    6.9612  -12.6651   26.0102 C   0  0  2  0  0  0  0  0  0  0  0  0
    5.7459  -12.0481   26.7267 C   0  0  0  0  0  0  0  0  0  0  0  0
    7.2440  -13.9489   26.6654 C   0  0  0  0  0  0  0  0  0  0  0  0
    8.1957  -14.9190   26.1037 C   0  0  2  0  0  0  0  0  0  0  0  0
    7.5938  -15.4272   24.8295 N   0  0  0  0  0  0  0  0  0  0  0  0
    8.6315  -16.0584   26.9068 C   0  0  0  0  0  0  0  0  0  0  0  0
    8.2916  -17.3870   26.5903 O   0  0  0  0  0  0  0  0  0  0  0  0
    9.3316  -15.9170   27.9196 O   0  0  0  0  0  0  0  0  0  0  0  0
  1  2  1  0
  2  3  1  0
  4  3  1  0
  5  1  1  0
  5  4  1  0
  5  6  1  1
  7  6  2  0
  9  8  1  6
  9 11  1  0
 10  9  1  0
 11 13  1  0
 11 12  1  6
 12  6  1  0
 13 20  1  0
 14 13  2  0
 16 15  1  1
 16 17  1  0
 18 16  1  0
 19 18  1  1
 19 21  1  0
 20 19  1  0
 21 23  2  0
 21 22  1  0
M  END
$$$$
