CCV.pdb
     RDKit          3D

 20 19  0  0  1  0  0  0  0  0999 V2000
   17.6807  -15.3826  -18.4790 N   0  0  0  0  0  0  0  0  0  0  0  0
   18.3577  -14.8135  -17.3519 C   0  0  1  0  0  0  0  0  0  0  0  0
   19.5513  -15.6505  -16.9530 C   0  0  0  0  0  0  0  0  0  0  0  0
   18.9322  -16.9716  -15.8649 S   0  0  0  0  0  0  0  0  0  0  0  0
   18.7100  -13.4153  -17.6519 C   0  0  0  0  0  0  0  0  0  0  0  0
   19.1001  -13.0741  -18.7832 O   0  0  0  0  0  0  0  0  0  0  0  0
   18.5994  -12.4532  -16.6303 N   0  0  0  0  0  0  0  0  0  0  0  0
   18.8388  -11.0554  -16.9808 C   0  0  1  0  0  0  0  0  0  0  0  0
   17.4722  -10.4584  -17.2170 C   0  0  0  0  0  0  0  0  0  0  0  0
   16.3215  -10.6728  -15.8672 S   0  0  0  0  0  0  0  0  0  0  0  0
   19.5792  -10.4020  -15.8710 C   0  0  0  0  0  0  0  0  0  0  0  0
   19.3303  -10.7437  -14.6657 O   0  0  0  0  0  0  0  0  0  0  0  0
   23.3064  -10.2970  -15.1965 C   0  0  0  0  0  0  0  0  0  0  0  0
   22.7862   -8.8813  -15.1933 C   0  0  1  0  0  0  0  0  0  0  0  0
   23.1468   -8.1820  -16.4634 C   0  0  0  0  0  0  0  0  0  0  0  0
   21.2939   -8.8847  -14.9284 C   0  0  2  0  0  0  0  0  0  0  0  0
   20.5609   -9.4088  -16.0514 N   0  0  0  0  0  0  0  0  0  0  0  0
   20.8903   -7.4542  -14.7200 C   0  0  0  0  0  0  0  0  0  0  0  0
   20.2460   -6.8340  -15.6040 O   0  0  0  0  0  0  0  0  0  0  0  0
   21.1992   -6.7516  -13.5644 O   0  0  0  0  0  0  0  0  0  0  0  0
  2  1  1  6
  2  5  1  0
  3  2  1  0
  4  3  1  0
  5  6  2  0
  7  5  1  0
  7  8  1  0
  8  9  1  1
 10  9  1  0
 11  8  1  0
 11 12  2  0
 14 13  1  6
 14 15  1  0
 14 16  1  0
 16 18  1  0
 16 17  1  6
 17 11  1  0
 18 20  1  0
 19 18  2  0
M  END
$$$$
