CCV.pdb
     RDKit          3D

 20 19  0  0  1  0  0  0  0  0999 V2000
   20.5999  -12.4866  -18.2298 N   0  0  0  0  0  0  0  0  0  0  0  0
   21.1063  -11.2484  -18.7428 C   0  0  1  0  0  0  0  0  0  0  0  0
   20.8564  -11.1309  -20.2289 C   0  0  0  0  0  0  0  0  0  0  0  0
   21.9977  -12.2861  -21.0510 S   0  0  0  0  0  0  0  0  0  0  0  0
   20.5317  -10.1322  -17.9730 C   0  0  0  0  0  0  0  0  0  0  0  0
   19.3534  -10.1594  -17.5739 O   0  0  0  0  0  0  0  0  0  0  0  0
   21.3411   -9.0162  -17.6883 N   0  0  0  0  0  0  0  0  0  0  0  0
   20.7780   -7.9612  -16.8495 C   0  0  1  0  0  0  0  0  0  0  0  0
   21.5494   -8.0208  -15.5529 C   0  0  0  0  0  0  0  0  0  0  0  0
   21.3322   -6.6012  -14.4901 S   0  0  0  0  0  0  0  0  0  0  0  0
   20.9176   -6.6611  -17.5545 C   0  0  0  0  0  0  0  0  0  0  0  0
   22.0658   -6.3016  -17.9833 O   0  0  0  0  0  0  0  0  0  0  0  0
   19.8286   -5.2674  -20.7721 C   0  0  0  0  0  0  0  0  0  0  0  0
   19.2633   -4.3669  -19.7023 C   0  0  1  0  0  0  0  0  0  0  0  0
   17.8115   -4.6470  -19.4875 C   0  0  0  0  0  0  0  0  0  0  0  0
   20.0813   -4.5027  -18.4336 C   0  0  2  0  0  0  0  0  0  0  0  0
   19.8524   -5.7716  -17.7928 N   0  0  0  0  0  0  0  0  0  0  0  0
   19.6264   -3.4114  -17.5090 C   0  0  0  0  0  0  0  0  0  0  0  0
   18.7675   -3.6406  -16.6196 O   0  0  0  0  0  0  0  0  0  0  0  0
   20.1182   -2.1164  -17.5829 O   0  0  0  0  0  0  0  0  0  0  0  0
  2  1  1  1
  2  5  1  0
  3  2  1  0
  4  3  1  0
  5  6  2  0
  7  5  1  0
  7  8  1  0
  8  9  1  1
 10  9  1  0
 11  8  1  0
 11 12  2  0
 14 13  1  6
 14 15  1  0
 14 16  1  0
 16 18  1  0
 16 17  1  1
 17 11  1  0
 18 20  1  0
 19 18  2  0
M  END
$$$$
