CCV.pdb
     RDKit          3D

 20 19  0  0  1  0  0  0  0  0999 V2000
   20.8786  -15.0574  -17.7944 N   0  0  0  0  0  0  0  0  0  0  0  0
   20.8609  -13.7186  -18.3043 C   0  0  1  0  0  0  0  0  0  0  0  0
   19.6900  -13.5053  -19.2359 C   0  0  0  0  0  0  0  0  0  0  0  0
   20.1030  -14.3320  -20.8039 S   0  0  0  0  0  0  0  0  0  0  0  0
   20.8806  -12.7695  -17.1784 C   0  0  0  0  0  0  0  0  0  0  0  0
   20.2662  -13.0048  -16.1222 O   0  0  0  0  0  0  0  0  0  0  0  0
   21.6128  -11.5746  -17.3105 N   0  0  0  0  0  0  0  0  0  0  0  0
   21.5750  -10.6250  -16.2011 C   0  0  1  0  0  0  0  0  0  0  0  0
   22.9683  -10.6276  -15.6194 C   0  0  0  0  0  0  0  0  0  0  0  0
   23.2758   -9.3442  -14.4151 S   0  0  0  0  0  0  0  0  0  0  0  0
   21.1597   -9.2965  -16.7199 C   0  0  0  0  0  0  0  0  0  0  0  0
   21.6256   -8.8869  -17.8365 O   0  0  0  0  0  0  0  0  0  0  0  0
   17.6498   -7.3485  -15.7742 C   0  0  0  0  0  0  0  0  0  0  0  0
   18.5104   -6.9959  -16.9615 C   0  0  1  0  0  0  0  0  0  0  0  0
   18.1645   -5.6386  -17.4815 C   0  0  0  0  0  0  0  0  0  0  0  0
   19.9740   -7.1266  -16.5901 C   0  0  2  0  0  0  0  0  0  0  0  0
   20.2675   -8.4317  -16.0574 N   0  0  0  0  0  0  0  0  0  0  0  0
   20.2408   -6.1043  -15.5241 C   0  0  0  0  0  0  0  0  0  0  0  0
   20.2257   -6.4259  -14.3085 O   0  0  0  0  0  0  0  0  0  0  0  0
   20.5131   -4.7755  -15.8148 O   0  0  0  0  0  0  0  0  0  0  0  0
  2  1  1  1
  2  5  1  0
  3  2  1  0
  4  3  1  0
  5  6  2  0
  7  5  1  0
  7  8  1  0
  8  9  1  6
 10  9  1  0
 11  8  1  0
 11 12  2  0
 14 13  1  1
 14 15  1  0
 14 16  1  0
 16 18  1  0
 16 17  1  1
 17 11  1  0
 18 20  1  0
 19 18  2  0
M  END
$$$$
