CCV.pdb
     RDKit          3D

 20 19  0  0  1  0  0  0  0  0999 V2000
   14.7775  -10.3271  -12.9026 N   0  0  0  0  0  0  0  0  0  0  0  0
   16.1726  -10.1004  -13.1369 C   0  0  1  0  0  0  0  0  0  0  0  0
   16.5365  -10.3809  -14.5768 C   0  0  0  0  0  0  0  0  0  0  0  0
   16.5106  -12.1886  -14.7874 S   0  0  0  0  0  0  0  0  0  0  0  0
   16.5211   -8.7343  -12.7112 C   0  0  0  0  0  0  0  0  0  0  0  0
   15.8551   -7.7507  -13.0817 O   0  0  0  0  0  0  0  0  0  0  0  0
   17.6326   -8.5490  -11.8675 N   0  0  0  0  0  0  0  0  0  0  0  0
   18.0617   -7.1794  -11.5954 C   0  0  1  0  0  0  0  0  0  0  0  0
   17.9738   -7.0186  -10.0967 C   0  0  0  0  0  0  0  0  0  0  0  0
   18.8663   -5.6153   -9.4438 S   0  0  0  0  0  0  0  0  0  0  0  0
   19.4372   -6.9930  -12.1245 C   0  0  0  0  0  0  0  0  0  0  0  0
   20.3443   -7.8402  -11.8226 O   0  0  0  0  0  0  0  0  0  0  0  0
   21.1724   -7.4890  -15.1048 C   0  0  0  0  0  0  0  0  0  0  0  0
   21.4052   -6.0267  -14.8179 C   0  0  1  0  0  0  0  0  0  0  0  0
   20.5385   -5.1726  -15.6849 C   0  0  0  0  0  0  0  0  0  0  0  0
   21.2049   -5.7565  -13.3401 C   0  0  2  0  0  0  0  0  0  0  0  0
   19.8276   -5.9256  -12.9558 N   0  0  0  0  0  0  0  0  0  0  0  0
   21.5937   -4.3256  -13.1072 C   0  0  0  0  0  0  0  0  0  0  0  0
   22.8034   -3.9825  -13.1000 O   0  0  0  0  0  0  0  0  0  0  0  0
   20.6593   -3.3232  -12.8916 O   0  0  0  0  0  0  0  0  0  0  0  0
  2  1  1  6
  2  5  1  0
  3  2  1  0
  4  3  1  0
  5  6  2  0
  7  5  1  0
  7  8  1  0
  8  9  1  1
 10  9  1  0
 11  8  1  0
 11 12  2  0
 14 13  1  1
 14 15  1  0
 14 16  1  0
 16 18  1  0
 16 17  1  6
 17 11  1  0
 18 20  1  0
 19 18  2  0
M  END
$$$$
