CCV.pdb
     RDKit          3D

 20 19  0  0  1  0  0  0  0  0999 V2000
   20.0906  -13.8437  -16.4462 N   0  0  0  0  0  0  0  0  0  0  0  0
   19.8675  -12.6212  -17.1593 C   0  0  1  0  0  0  0  0  0  0  0  0
   18.6026  -12.6938  -17.9836 C   0  0  0  0  0  0  0  0  0  0  0  0
   18.9443  -13.8083  -19.3814 S   0  0  0  0  0  0  0  0  0  0  0  0
   19.8707  -11.4966  -16.2085 C   0  0  0  0  0  0  0  0  0  0  0  0
   19.3600  -11.6020  -15.0787 O   0  0  0  0  0  0  0  0  0  0  0  0
   20.4667  -10.2817  -16.5962 N   0  0  0  0  0  0  0  0  0  0  0  0
   20.3655   -9.1490  -15.6793 C   0  0  1  0  0  0  0  0  0  0  0  0
   21.7887   -8.7683  -15.3487 C   0  0  0  0  0  0  0  0  0  0  0  0
   21.9611   -7.2283  -14.4594 S   0  0  0  0  0  0  0  0  0  0  0  0
   19.6074   -8.0585  -16.3449 C   0  0  0  0  0  0  0  0  0  0  0  0
   19.8049   -7.8254  -17.5852 O   0  0  0  0  0  0  0  0  0  0  0  0
   15.8534   -6.8200  -15.5350 C   0  0  0  0  0  0  0  0  0  0  0  0
   16.6309   -6.3942  -16.7552 C   0  0  1  0  0  0  0  0  0  0  0  0
   15.9741   -5.2291  -17.4213 C   0  0  0  0  0  0  0  0  0  0  0  0
   18.0713   -6.1168  -16.3737 C   0  0  2  0  0  0  0  0  0  0  0  0
   18.6623   -7.2411  -15.6958 N   0  0  0  0  0  0  0  0  0  0  0  0
   18.0500   -4.9482  -15.4321 C   0  0  0  0  0  0  0  0  0  0  0  0
   17.9297   -3.7749  -15.8681 O   0  0  0  0  0  0  0  0  0  0  0  0
   18.1597   -5.0948  -14.0570 O   0  0  0  0  0  0  0  0  0  0  0  0
  2  1  1  1
  2  5  1  0
  3  2  1  0
  4  3  1  0
  5  6  2  0
  7  5  1  0
  7  8  1  0
  8  9  1  6
 10  9  1  0
 11  8  1  0
 11 12  2  0
 14 13  1  1
 14 15  1  0
 14 16  1  0
 16 18  1  0
 16 17  1  1
 17 11  1  0
 18 20  1  0
 19 18  2  0
M  END
$$$$
