CCV.pdb
     RDKit          3D

 20 19  0  0  1  0  0  0  0  0999 V2000
   17.1221  -12.3646  -15.5720 N   0  0  0  0  0  0  0  0  0  0  0  0
   17.2483  -11.0099  -16.0207 C   0  0  1  0  0  0  0  0  0  0  0  0
   16.1911  -10.1280  -15.3968 C   0  0  0  0  0  0  0  0  0  0  0  0
   14.6255  -10.4930  -16.2502 S   0  0  0  0  0  0  0  0  0  0  0  0
   18.6186  -10.5374  -15.7602 C   0  0  0  0  0  0  0  0  0  0  0  0
   19.1723  -10.7298  -14.6626 O   0  0  0  0  0  0  0  0  0  0  0  0
   19.3069   -9.8552  -16.7811 N   0  0  0  0  0  0  0  0  0  0  0  0
   20.6591   -9.3827  -16.4943 C   0  0  1  0  0  0  0  0  0  0  0  0
   21.4449   -9.6121  -17.7630 C   0  0  0  0  0  0  0  0  0  0  0  0
   23.0998   -8.9389  -17.7471 S   0  0  0  0  0  0  0  0  0  0  0  0
   20.5940   -7.9529  -16.0965 C   0  0  0  0  0  0  0  0  0  0  0  0
   19.7055   -7.1979  -16.6179 O   0  0  0  0  0  0  0  0  0  0  0  0
   21.4729   -4.2566  -13.0296 C   0  0  0  0  0  0  0  0  0  0  0  0
   21.6165   -5.7238  -13.3482 C   0  0  1  0  0  0  0  0  0  0  0  0
   20.7619   -6.5485  -12.4415 C   0  0  0  0  0  0  0  0  0  0  0  0
   21.3160   -5.9613  -14.8146 C   0  0  2  0  0  0  0  0  0  0  0  0
   21.4597   -7.3509  -15.1633 N   0  0  0  0  0  0  0  0  0  0  0  0
   22.3221   -5.1663  -15.5947 C   0  0  0  0  0  0  0  0  0  0  0  0
   23.4254   -5.6729  -15.9225 O   0  0  0  0  0  0  0  0  0  0  0  0
   22.0953   -3.8559  -15.9891 O   0  0  0  0  0  0  0  0  0  0  0  0
  2  1  1  1
  2  5  1  0
  3  2  1  0
  4  3  1  0
  5  6  2  0
  7  5  1  0
  7  8  1  0
  8  9  1  6
 10  9  1  0
 11  8  1  0
 11 12  2  0
 14 13  1  1
 14 15  1  0
 14 16  1  0
 16 18  1  0
 16 17  1  1
 17 11  1  0
 18 20  1  0
 19 18  2  0
M  END
$$$$
