CCV.pdb
     RDKit          3D

 20 19  0  0  1  0  0  0  0  0999 V2000
   24.3778  -21.5703  -13.3176 N   0  0  0  0  0  0  0  0  0  0  0  0
   24.7872  -20.6142  -12.3323 C   0  0  1  0  0  0  0  0  0  0  0  0
   23.5929  -19.9370  -11.7001 C   0  0  0  0  0  0  0  0  0  0  0  0
   22.4731  -21.2561  -11.1357 S   0  0  0  0  0  0  0  0  0  0  0  0
   25.6615  -21.2746  -11.3483 C   0  0  0  0  0  0  0  0  0  0  0  0
   25.6501  -22.5098  -11.1977 O   0  0  0  0  0  0  0  0  0  0  0  0
   26.5240  -20.4826  -10.5671 N   0  0  0  0  0  0  0  0  0  0  0  0
   27.3971  -21.1618   -9.6130 C   0  0  1  0  0  0  0  0  0  0  0  0
   28.7746  -21.1270  -10.2302 C   0  0  0  0  0  0  0  0  0  0  0  0
   29.1689  -19.6106  -11.0888 S   0  0  0  0  0  0  0  0  0  0  0  0
   27.3226  -20.4569   -8.3076 C   0  0  0  0  0  0  0  0  0  0  0  0
   26.7235  -19.3310   -8.2373 O   0  0  0  0  0  0  0  0  0  0  0  0
   29.9350  -21.0737   -5.0261 C   0  0  0  0  0  0  0  0  0  0  0  0
   28.4639  -20.9059   -4.7394 C   0  0  1  0  0  0  0  0  0  0  0  0
   28.2550  -20.2200   -3.4285 C   0  0  0  0  0  0  0  0  0  0  0  0
   27.7964  -20.1837   -5.8926 C   0  0  2  0  0  0  0  0  0  0  0  0
   27.8761  -20.9487   -7.1098 N   0  0  0  0  0  0  0  0  0  0  0  0
   28.5452  -18.8975   -6.0866 C   0  0  0  0  0  0  0  0  0  0  0  0
   29.5185  -18.8351   -6.8803 O   0  0  0  0  0  0  0  0  0  0  0  0
   28.2118  -17.7304   -5.4148 O   0  0  0  0  0  0  0  0  0  0  0  0
  2  1  1  6
  2  5  1  0
  3  2  1  0
  4  3  1  0
  5  6  2  0
  7  5  1  0
  7  8  1  0
  8  9  1  6
 10  9  1  0
 11  8  1  0
 11 12  2  0
 14 13  1  6
 14 15  1  0
 14 16  1  0
 16 18  1  0
 16 17  1  6
 17 11  1  0
 18 20  1  0
 19 18  2  0
M  END
$$$$
