VKR.pdb
     RDKit          3D

 28 27  0  0  1  0  0  0  0  0999 V2000
   27.1400  -31.5477  -18.0193 C   0  0  0  0  0  0  0  0  0  0  0  0
   27.4979  -32.2321  -16.7187 C   0  0  1  0  0  0  0  0  0  0  0  0
   27.6748  -33.6955  -16.9876 C   0  0  0  0  0  0  0  0  0  0  0  0
   28.7542  -31.6011  -16.1595 C   0  0  2  0  0  0  0  0  0  0  0  0
   29.1305  -32.1992  -14.8918 N   0  0  0  0  0  0  0  0  0  0  0  0
   28.5472  -30.1395  -15.9981 C   0  0  0  0  0  0  0  0  0  0  0  0
   28.0999  -29.7083  -14.8862 O   0  0  0  0  0  0  0  0  0  0  0  0
   28.8283  -29.2016  -17.0325 N   0  0  0  0  0  0  0  0  0  0  0  0
   28.7905  -27.7461  -16.7674 C   0  0  1  0  0  0  0  0  0  0  0  0
   30.0163  -27.2011  -17.4449 C   0  0  0  0  0  0  0  0  0  0  0  0
   30.2249  -25.7378  -17.3337 C   0  0  0  0  0  0  0  0  0  0  0  0
   31.5828  -25.3105  -17.8948 C   0  0  0  0  0  0  0  0  0  0  0  0
   31.7715  -23.8094  -17.7134 C   0  0  0  0  0  0  0  0  0  0  0  0
   33.0645  -23.4512  -18.2524 N   0  0  0  0  0  0  0  0  0  0  0  0
   27.5168  -27.2275  -17.2650 C   0  0  0  0  0  0  0  0  0  0  0  0
   27.1341  -27.5917  -18.4222 O   0  0  0  0  0  0  0  0  0  0  0  0
   20.4862  -23.5939  -13.0878 N   0  0  0  0  0  0  0  0  0  0  0  0
   20.2558  -24.8784  -13.6813 C   0  0  0  0  0  0  0  0  0  0  0  0
   19.1689  -25.5186  -13.4239 N   0  0  0  0  0  0  0  0  0  0  0  0
   21.2110  -25.4602  -14.5537 N   0  0  0  0  0  0  0  0  0  0  0  0
   22.5249  -24.8489  -14.7732 C   0  0  0  0  0  0  0  0  0  0  0  0
   23.1975  -25.6419  -15.8803 C   0  0  0  0  0  0  0  0  0  0  0  0
   24.5942  -25.1337  -16.0830 C   0  0  0  0  0  0  0  0  0  0  0  0
   25.3742  -25.8670  -17.1475 C   0  0  2  0  0  0  0  0  0  0  0  0
   26.6469  -26.3551  -16.5934 N   0  0  0  0  0  0  0  0  0  0  0  0
   25.7132  -24.9188  -18.2208 C   0  0  0  0  0  0  0  0  0  0  0  0
   26.7618  -24.2416  -18.1301 O   0  0  0  0  0  0  0  0  0  0  0  0
   24.9283  -24.7303  -19.3413 O   0  0  0  0  0  0  0  0  0  0  0  0
  2  1  1  6
  3  2  1  0
  4  2  1  0
  4  5  1  1
  6  7  2  0
  6  4  1  0
  8  6  1  0
  9  8  1  0
  9 10  1  6
 11 10  1  0
 12 11  1  0
 13 14  1  0
 13 12  1  0
 15 16  2  0
 15  9  1  0
 18 17  1  0
 19 18  2  0
 20 18  1  0
 21 22  1  0
 21 20  1  0
 22 23  1  0
 24 23  1  1
 24 25  1  0
 25 15  1  0
 26 24  1  0
 27 26  2  0
 28 26  1  0
M  END
$$$$
