VKR.pdb
     RDKit          3D

 28 27  0  0  1  0  0  0  0  0999 V2000
   15.6681   -8.7176  -18.2869 C   0  0  0  0  0  0  0  0  0  0  0  0
   14.8489   -8.6658  -17.0164 C   0  0  1  0  0  0  0  0  0  0  0  0
   14.0665   -9.9388  -16.9060 C   0  0  0  0  0  0  0  0  0  0  0  0
   15.7779   -8.4659  -15.8390 C   0  0  2  0  0  0  0  0  0  0  0  0
   16.7116   -9.5690  -15.7052 N   0  0  0  0  0  0  0  0  0  0  0  0
   14.9797   -8.3132  -14.5961 C   0  0  0  0  0  0  0  0  0  0  0  0
   14.1655   -7.3373  -14.5129 O   0  0  0  0  0  0  0  0  0  0  0  0
   15.0861   -9.2112  -13.4956 N   0  0  0  0  0  0  0  0  0  0  0  0
   14.2773   -9.0111  -12.2726 C   0  0  1  0  0  0  0  0  0  0  0  0
   14.0880  -10.3911  -11.7082 C   0  0  0  0  0  0  0  0  0  0  0  0
   12.7479  -10.6865  -11.1476 C   0  0  0  0  0  0  0  0  0  0  0  0
   12.6119  -12.1543  -10.7369 C   0  0  0  0  0  0  0  0  0  0  0  0
   11.2951  -12.3685  -10.0008 C   0  0  0  0  0  0  0  0  0  0  0  0
   11.1285  -13.7882   -9.7830 N   0  0  0  0  0  0  0  0  0  0  0  0
   14.9896   -8.0723  -11.4065 C   0  0  0  0  0  0  0  0  0  0  0  0
   16.2602   -8.0519  -11.4641 O   0  0  0  0  0  0  0  0  0  0  0  0
   11.9886   -2.0390   -5.7009 N   0  0  0  0  0  0  0  0  0  0  0  0
   11.9523   -2.4888   -7.0617 C   0  0  0  0  0  0  0  0  0  0  0  0
   10.9356   -2.2131   -7.8018 N   0  0  0  0  0  0  0  0  0  0  0  0
   13.0247   -3.2373   -7.6109 N   0  0  0  0  0  0  0  0  0  0  0  0
   13.9217   -4.0299   -6.7651 C   0  0  0  0  0  0  0  0  0  0  0  0
   14.9506   -4.6601   -7.6878 C   0  0  0  0  0  0  0  0  0  0  0  0
   14.2575   -5.5475   -8.6790 C   0  0  0  0  0  0  0  0  0  0  0  0
   15.1892   -6.2928   -9.6040 C   0  0  2  0  0  0  0  0  0  0  0  0
   14.4166   -7.1679  -10.4996 N   0  0  0  0  0  0  0  0  0  0  0  0
   16.0547   -7.1676   -8.7967 C   0  0  0  0  0  0  0  0  0  0  0  0
   16.9023   -6.6532   -8.0329 O   0  0  0  0  0  0  0  0  0  0  0  0
   15.9841   -8.5463   -8.8334 O   0  0  0  0  0  0  0  0  0  0  0  0
  2  1  1  6
  3  2  1  0
  4  2  1  0
  4  5  1  1
  6  7  2  0
  6  4  1  0
  8  6  1  0
  9  8  1  0
  9 10  1  1
 11 10  1  0
 12 11  1  0
 13 14  1  0
 13 12  1  0
 15 16  2  0
 15  9  1  0
 18 17  1  0
 19 18  2  0
 20 18  1  0
 21 22  1  0
 21 20  1  0
 22 23  1  0
 24 23  1  1
 24 25  1  0
 25 15  1  0
 26 24  1  0
 27 26  2  0
 28 26  1  0
M  END
$$$$
