VKR.pdb
     RDKit          3D

 28 27  0  0  1  0  0  0  0  0999 V2000
   21.9322  -17.1461  -16.7273 C   0  0  0  0  0  0  0  0  0  0  0  0
   20.9189  -16.0329  -16.8762 C   0  0  1  0  0  0  0  0  0  0  0  0
   21.2112  -15.2944  -18.1468 C   0  0  0  0  0  0  0  0  0  0  0  0
   19.5282  -16.6288  -16.8724 C   0  0  2  0  0  0  0  0  0  0  0  0
   19.3401  -17.5468  -17.9807 N   0  0  0  0  0  0  0  0  0  0  0  0
   18.5203  -15.5397  -16.9290 C   0  0  0  0  0  0  0  0  0  0  0  0
   18.1526  -15.1109  -18.0706 O   0  0  0  0  0  0  0  0  0  0  0  0
   17.9482  -14.9564  -15.7623 N   0  0  0  0  0  0  0  0  0  0  0  0
   16.9075  -13.9099  -15.8699 C   0  0  1  0  0  0  0  0  0  0  0  0
   15.7763  -14.4046  -15.0129 C   0  0  0  0  0  0  0  0  0  0  0  0
   14.5625  -13.5543  -14.9832 C   0  0  0  0  0  0  0  0  0  0  0  0
   13.5263  -14.0733  -13.9839 C   0  0  0  0  0  0  0  0  0  0  0  0
   12.2563  -13.2358  -14.0696 C   0  0  0  0  0  0  0  0  0  0  0  0
   12.5614  -11.9073  -13.5871 N   0  0  0  0  0  0  0  0  0  0  0  0
   17.4985  -12.6383  -15.4545 C   0  0  0  0  0  0  0  0  0  0  0  0
   18.1252  -12.6034  -14.3481 O   0  0  0  0  0  0  0  0  0  0  0  0
   17.8196   -5.8760  -20.3483 N   0  0  0  0  0  0  0  0  0  0  0  0
   16.9632   -6.7729  -19.6290 C   0  0  0  0  0  0  0  0  0  0  0  0
   15.7599   -6.9778  -20.0382 N   0  0  0  0  0  0  0  0  0  0  0  0
   17.4218   -7.4435  -18.4662 N   0  0  0  0  0  0  0  0  0  0  0  0
   18.2143   -6.7548  -17.4435 C   0  0  0  0  0  0  0  0  0  0  0  0
   18.5514   -7.7874  -16.3818 C   0  0  0  0  0  0  0  0  0  0  0  0
   17.9364   -9.1048  -16.7513 C   0  0  0  0  0  0  0  0  0  0  0  0
   18.1348  -10.1933  -15.7242 C   0  0  2  0  0  0  0  0  0  0  0  0
   17.4538  -11.4240  -16.1561 N   0  0  0  0  0  0  0  0  0  0  0  0
   17.4988   -9.7747  -14.4647 C   0  0  0  0  0  0  0  0  0  0  0  0
   16.2717   -9.9639  -14.3067 O   0  0  0  0  0  0  0  0  0  0  0  0
   18.1892   -9.1756  -13.4296 O   0  0  0  0  0  0  0  0  0  0  0  0
  2  1  1  6
  3  2  1  0
  4  2  1  0
  4  5  1  6
  6  7  2  0
  6  4  1  0
  8  6  1  0
  9  8  1  0
  9 10  1  1
 11 10  1  0
 12 11  1  0
 13 14  1  0
 13 12  1  0
 15 16  2  0
 15  9  1  0
 18 17  1  0
 19 18  2  0
 20 18  1  0
 21 22  1  0
 21 20  1  0
 22 23  1  0
 24 23  1  6
 24 25  1  0
 25 15  1  0
 26 24  1  0
 27 26  2  0
 28 26  1  0
M  END
$$$$
