VKR.pdb
     RDKit          3D

 28 27  0  0  1  0  0  0  0  0999 V2000
   18.8986  -29.5166   -3.0431 C   0  0  0  0  0  0  0  0  0  0  0  0
   17.8865  -28.8746   -2.1205 C   0  0  1  0  0  0  0  0  0  0  0  0
   18.0400  -29.4773   -0.7574 C   0  0  0  0  0  0  0  0  0  0  0  0
   18.1103  -27.3782   -2.1086 C   0  0  2  0  0  0  0  0  0  0  0  0
   19.4600  -27.0459   -1.6912 N   0  0  0  0  0  0  0  0  0  0  0  0
   17.1197  -26.7343   -1.2090 C   0  0  0  0  0  0  0  0  0  0  0  0
   15.8805  -26.8930   -1.4569 O   0  0  0  0  0  0  0  0  0  0  0  0
   17.4969  -25.9490   -0.0822 N   0  0  0  0  0  0  0  0  0  0  0  0
   16.4726  -25.3569    0.8068 C   0  0  1  0  0  0  0  0  0  0  0  0
   17.1584  -25.2076    2.1357 C   0  0  0  0  0  0  0  0  0  0  0  0
   17.1431  -26.4019    3.0136 C   0  0  0  0  0  0  0  0  0  0  0  0
   17.7322  -26.1033    4.3939 C   0  0  0  0  0  0  0  0  0  0  0  0
   17.6643  -27.3489    5.2689 C   0  0  0  0  0  0  0  0  0  0  0  0
   18.1889  -27.0103    6.5731 N   0  0  0  0  0  0  0  0  0  0  0  0
   16.0089  -24.1109    0.1975 C   0  0  0  0  0  0  0  0  0  0  0  0
   16.7850  -23.5194   -0.6185 O   0  0  0  0  0  0  0  0  0  0  0  0
   13.4173  -23.4321   -6.8895 N   0  0  0  0  0  0  0  0  0  0  0  0
   14.4907  -23.4665   -5.9398 C   0  0  0  0  0  0  0  0  0  0  0  0
   15.5971  -24.0508   -6.2428 N   0  0  0  0  0  0  0  0  0  0  0  0
   14.3542  -22.8634   -4.6632 N   0  0  0  0  0  0  0  0  0  0  0  0
   13.0382  -22.5853   -4.0808 C   0  0  0  0  0  0  0  0  0  0  0  0
   13.2854  -21.9405   -2.7280 C   0  0  0  0  0  0  0  0  0  0  0  0
   13.9752  -22.9197   -1.8250 C   0  0  0  0  0  0  0  0  0  0  0  0
   14.2363  -22.4025   -0.4308 C   0  0  2  0  0  0  0  0  0  0  0  0
   14.7743  -23.4803    0.4140 N   0  0  0  0  0  0  0  0  0  0  0  0
   12.9557  -21.9921    0.1672 C   0  0  0  0  0  0  0  0  0  0  0  0
   12.4029  -22.7416    1.0033 O   0  0  0  0  0  0  0  0  0  0  0  0
   12.3182  -20.8076   -0.1457 O   0  0  0  0  0  0  0  0  0  0  0  0
  2  1  1  6
  3  2  1  0
  4  2  1  0
  4  5  1  1
  6  7  2  0
  6  4  1  0
  8  6  1  0
  9  8  1  0
  9 10  1  1
 11 10  1  0
 12 11  1  0
 13 14  1  0
 13 12  1  0
 15 16  2  0
 15  9  1  0
 18 17  1  0
 19 18  2  0
 20 18  1  0
 21 22  1  0
 21 20  1  0
 22 23  1  0
 24 23  1  6
 24 25  1  0
 25 15  1  0
 26 24  1  0
 27 26  2  0
 28 26  1  0
M  END
$$$$
