VKR.pdb
     RDKit          3D

 28 27  0  0  1  0  0  0  0  0999 V2000
   19.0354  -19.2812  -16.7441 C   0  0  0  0  0  0  0  0  0  0  0  0
   20.5149  -19.2122  -17.0511 C   0  0  1  0  0  0  0  0  0  0  0  0
   20.7161  -18.2711  -18.1995 C   0  0  0  0  0  0  0  0  0  0  0  0
   21.2549  -18.7616  -15.8107 C   0  0  2  0  0  0  0  0  0  0  0  0
   20.7616  -17.4833  -15.3323 N   0  0  0  0  0  0  0  0  0  0  0  0
   22.7086  -18.6761  -16.1024 C   0  0  0  0  0  0  0  0  0  0  0  0
   23.3211  -19.7361  -16.4537 O   0  0  0  0  0  0  0  0  0  0  0  0
   23.4445  -17.4603  -16.0067 N   0  0  0  0  0  0  0  0  0  0  0  0
   24.9051  -17.4373  -16.2434 C   0  0  1  0  0  0  0  0  0  0  0  0
   25.1915  -16.0471  -16.7375 C   0  0  0  0  0  0  0  0  0  0  0  0
   24.8333  -15.7717  -18.1492 C   0  0  0  0  0  0  0  0  0  0  0  0
   25.0491  -14.3020  -18.5165 C   0  0  0  0  0  0  0  0  0  0  0  0
   24.7373  -14.0834  -19.9919 C   0  0  0  0  0  0  0  0  0  0  0  0
   23.3694  -13.6271  -20.0987 N   0  0  0  0  0  0  0  0  0  0  0  0
   25.5725  -17.8090  -14.9964 C   0  0  0  0  0  0  0  0  0  0  0  0
   24.9994  -17.5123  -13.9001 O   0  0  0  0  0  0  0  0  0  0  0  0
   23.3894  -21.0872   -9.7797 N   0  0  0  0  0  0  0  0  0  0  0  0
   24.7509  -21.0682   -9.3311 C   0  0  0  0  0  0  0  0  0  0  0  0
   25.0432  -20.5495   -8.1896 N   0  0  0  0  0  0  0  0  0  0  0  0
   25.7889  -21.6149  -10.1284 N   0  0  0  0  0  0  0  0  0  0  0  0
   25.6893  -21.6680  -11.5898 C   0  0  0  0  0  0  0  0  0  0  0  0
   25.6316  -20.2306  -12.0773 C   0  0  0  0  0  0  0  0  0  0  0  0
   25.6664  -20.2086  -13.5768 C   0  0  0  0  0  0  0  0  0  0  0  0
   26.9812  -19.7517  -14.1615 C   0  0  2  0  0  0  0  0  0  0  0  0
   26.8013  -18.4742  -14.8689 N   0  0  0  0  0  0  0  0  0  0  0  0
   27.4183  -20.7358  -15.1647 C   0  0  0  0  0  0  0  0  0  0  0  0
   26.7891  -20.8315  -16.2423 O   0  0  0  0  0  0  0  0  0  0  0  0
   28.5012  -21.5734  -14.9830 O   0  0  0  0  0  0  0  0  0  0  0  0
  2  1  1  1
  3  2  1  0
  4  2  1  0
  4  5  1  6
  6  7  2  0
  6  4  1  0
  8  6  1  0
  9  8  1  0
  9 10  1  1
 11 10  1  0
 12 11  1  0
 13 14  1  0
 13 12  1  0
 15 16  2  0
 15  9  1  0
 18 17  1  0
 19 18  2  0
 20 18  1  0
 21 22  1  0
 21 20  1  0
 22 23  1  0
 24 23  1  6
 24 25  1  0
 25 15  1  0
 26 24  1  0
 27 26  2  0
 28 26  1  0
M  END
$$$$
