VKR.pdb
     RDKit          3D

 28 27  0  0  1  0  0  0  0  0999 V2000
   28.5657  -16.8727  -17.8652 C   0  0  0  0  0  0  0  0  0  0  0  0
   27.7586  -17.7792  -18.7679 C   0  0  1  0  0  0  0  0  0  0  0  0
   28.5987  -18.1315  -19.9576 C   0  0  0  0  0  0  0  0  0  0  0  0
   27.3378  -19.0046  -17.9865 C   0  0  2  0  0  0  0  0  0  0  0  0
   26.7655  -20.0178  -18.8540 N   0  0  0  0  0  0  0  0  0  0  0  0
   26.3621  -18.6145  -16.9371 C   0  0  0  0  0  0  0  0  0  0  0  0
   26.7288  -17.7814  -16.0461 O   0  0  0  0  0  0  0  0  0  0  0  0
   25.0359  -19.1313  -16.8861 N   0  0  0  0  0  0  0  0  0  0  0  0
   24.0692  -18.6415  -15.8783 C   0  0  1  0  0  0  0  0  0  0  0  0
   22.7529  -18.5922  -16.6019 C   0  0  0  0  0  0  0  0  0  0  0  0
   22.4633  -17.3405  -17.3412 C   0  0  0  0  0  0  0  0  0  0  0  0
   21.1357  -17.4187  -18.0981 C   0  0  0  0  0  0  0  0  0  0  0  0
   20.8628  -16.0981  -18.8074 C   0  0  0  0  0  0  0  0  0  0  0  0
   19.6391  -16.2398  -19.5645 N   0  0  0  0  0  0  0  0  0  0  0  0
   24.1182  -19.5425  -14.7275 C   0  0  0  0  0  0  0  0  0  0  0  0
   23.9815  -20.7895  -14.9382 O   0  0  0  0  0  0  0  0  0  0  0  0
   27.7229  -19.4310   -6.4967 N   0  0  0  0  0  0  0  0  0  0  0  0
   26.8379  -20.5570   -6.5627 C   0  0  0  0  0  0  0  0  0  0  0  0
   26.7480  -21.3620   -5.5621 N   0  0  0  0  0  0  0  0  0  0  0  0
   26.0538  -20.8011   -7.7192 N   0  0  0  0  0  0  0  0  0  0  0  0
   26.0799  -19.8953   -8.8713 C   0  0  0  0  0  0  0  0  0  0  0  0
   25.1342  -20.4774   -9.9075 C   0  0  0  0  0  0  0  0  0  0  0  0
   25.1890  -19.6491  -11.1570 C   0  0  0  0  0  0  0  0  0  0  0  0
   24.2744  -20.1257  -12.2595 C   0  0  2  0  0  0  0  0  0  0  0  0
   24.3062  -19.1790  -13.3853 N   0  0  0  0  0  0  0  0  0  0  0  0
   22.8926  -20.1384  -11.7531 C   0  0  0  0  0  0  0  0  0  0  0  0
   22.1761  -19.1235  -11.9050 O   0  0  0  0  0  0  0  0  0  0  0  0
   22.3311  -21.2238  -11.1098 O   0  0  0  0  0  0  0  0  0  0  0  0
  2  1  1  1
  3  2  1  0
  4  2  1  0
  4  5  1  6
  6  7  2  0
  6  4  1  0
  8  6  1  0
  9  8  1  0
  9 10  1  6
 11 10  1  0
 12 11  1  0
 13 14  1  0
 13 12  1  0
 15 16  2  0
 15  9  1  0
 18 17  1  0
 19 18  2  0
 20 18  1  0
 21 22  1  0
 21 20  1  0
 22 23  1  0
 24 23  1  1
 24 25  1  0
 25 15  1  0
 26 24  1  0
 27 26  2  0
 28 26  1  0
M  END
$$$$
