VKR.pdb
     RDKit          3D

 28 27  0  0  1  0  0  0  0  0999 V2000
   26.9823  -17.9766  -14.9577 C   0  0  0  0  0  0  0  0  0  0  0  0
   26.9741  -19.0145  -16.0580 C   0  0  1  0  0  0  0  0  0  0  0  0
   27.1428  -18.3129  -17.3711 C   0  0  0  0  0  0  0  0  0  0  0  0
   28.0810  -20.0135  -15.8011 C   0  0  2  0  0  0  0  0  0  0  0  0
   28.1316  -21.0289  -16.8369 N   0  0  0  0  0  0  0  0  0  0  0  0
   27.8832  -20.6439  -14.4712 C   0  0  0  0  0  0  0  0  0  0  0  0
   26.9895  -21.5436  -14.3521 O   0  0  0  0  0  0  0  0  0  0  0  0
   28.6503  -20.2857  -13.3258 N   0  0  0  0  0  0  0  0  0  0  0  0
   28.4332  -20.9599  -12.0264 C   0  0  1  0  0  0  0  0  0  0  0  0
   29.7771  -20.9382  -11.3540 C   0  0  0  0  0  0  0  0  0  0  0  0
   30.7119  -22.0244  -11.7329 C   0  0  0  0  0  0  0  0  0  0  0  0
   32.0257  -21.9450  -10.9524 C   0  0  0  0  0  0  0  0  0  0  0  0
   32.9799  -23.0334  -11.4284 C   0  0  0  0  0  0  0  0  0  0  0  0
   34.2104  -22.9106  -10.6790 N   0  0  0  0  0  0  0  0  0  0  0  0
   27.3675  -20.2502  -11.3198 C   0  0  0  0  0  0  0  0  0  0  0  0
   27.2265  -19.0062  -11.5447 O   0  0  0  0  0  0  0  0  0  0  0  0
   22.6077  -20.0223  -15.6745 N   0  0  0  0  0  0  0  0  0  0  0  0
   22.2921  -21.2280  -14.9660 C   0  0  0  0  0  0  0  0  0  0  0  0
   21.9053  -22.2708  -15.6144 N   0  0  0  0  0  0  0  0  0  0  0  0
   22.3996  -21.2927  -13.5531 N   0  0  0  0  0  0  0  0  0  0  0  0
   22.8903  -20.1575  -12.7664 C   0  0  0  0  0  0  0  0  0  0  0  0
   23.7874  -20.7306  -11.6830 C   0  0  0  0  0  0  0  0  0  0  0  0
   24.3796  -19.6112  -10.8791 C   0  0  0  0  0  0  0  0  0  0  0  0
   25.3386  -20.0587   -9.8024 C   0  0  2  0  0  0  0  0  0  0  0  0
   26.4594  -20.7997  -10.4020 N   0  0  0  0  0  0  0  0  0  0  0  0
   24.6395  -20.9951   -8.9078 C   0  0  0  0  0  0  0  0  0  0  0  0
   23.6806  -20.5815   -8.2179 O   0  0  0  0  0  0  0  0  0  0  0  0
   24.9856  -22.3263   -8.7840 O   0  0  0  0  0  0  0  0  0  0  0  0
  2  1  1  1
  3  2  1  0
  4  2  1  0
  4  5  1  6
  6  7  2  0
  6  4  1  0
  8  6  1  0
  9  8  1  0
  9 10  1  1
 11 10  1  0
 12 11  1  0
 13 14  1  0
 13 12  1  0
 15 16  2  0
 15  9  1  0
 18 17  1  0
 19 18  2  0
 20 18  1  0
 21 22  1  0
 21 20  1  0
 22 23  1  0
 24 23  1  6
 24 25  1  0
 25 15  1  0
 26 24  1  0
 27 26  2  0
 28 26  1  0
M  END
$$$$
