SNN.pdb
     RDKit          3D

 23 22  0  0  1  0  0  0  0  0999 V2000
   10.4408  -15.2396   19.8041 O   0  0  0  0  0  0  0  0  0  0  0  0
   11.1815  -15.6738   20.9229 C   0  0  0  0  0  0  0  0  0  0  0  0
   10.2113  -16.3676   21.8264 C   0  0  2  0  0  0  0  0  0  0  0  0
    8.8456  -15.9662   21.6615 N   0  0  0  0  0  0  0  0  0  0  0  0
   10.6170  -16.2451   23.2770 C   0  0  0  0  0  0  0  0  0  0  0  0
   11.7484  -16.6088   23.6725 O   0  0  0  0  0  0  0  0  0  0  0  0
   10.3130  -13.4075   28.3760 N   0  0  0  0  0  0  0  0  0  0  0  0
    9.5406  -14.4874   27.8137 C   0  0  0  0  0  0  0  0  0  0  0  0
    9.1657  -15.3872   28.5939 O   0  0  0  0  0  0  0  0  0  0  0  0
    9.1944  -14.5422   26.3806 C   0  0  0  0  0  0  0  0  0  0  0  0
    9.9199  -15.6209   25.6119 C   0  0  2  0  0  0  0  0  0  0  0  0
    9.7113  -15.7080   24.2219 N   0  0  0  0  0  0  0  0  0  0  0  0
   10.0240  -16.9010   26.3440 C   0  0  0  0  0  0  0  0  0  0  0  0
    9.1958  -17.8389   26.0723 O   0  0  0  0  0  0  0  0  0  0  0  0
   13.9416  -20.8100   27.7746 N   0  0  0  0  0  0  0  0  0  0  0  0
   12.6471  -20.5128   27.2420 C   0  0  0  0  0  0  0  0  0  0  0  0
   11.8569  -21.4927   27.2009 O   0  0  0  0  0  0  0  0  0  0  0  0
   12.2775  -19.1604   26.7833 C   0  0  0  0  0  0  0  0  0  0  0  0
   11.2400  -18.5825   27.7191 C   0  0  2  0  0  0  0  0  0  0  0  0
   10.9722  -17.1779   27.3313 N   0  0  0  0  0  0  0  0  0  0  0  0
   11.7190  -18.4796   29.1167 C   0  0  0  0  0  0  0  0  0  0  0  0
   11.3813  -19.4607   30.0787 O   0  0  0  0  0  0  0  0  0  0  0  0
   12.4277  -17.5574   29.5300 O   0  0  0  0  0  0  0  0  0  0  0  0
  2  1  1  0
  3  4  1  1
  3  2  1  0
  5  3  1  0
  6  5  2  0
  7  8  1  0
  8  9  2  0
 10  8  1  0
 11 10  1  1
 11 12  1  0
 11 13  1  0
 12  5  1  0
 13 20  1  0
 14 13  2  0
 16 15  1  0
 17 16  2  0
 18 16  1  0
 19 18  1  6
 20 19  1  0
 21 19  1  0
 21 22  1  0
 23 21  2  0
M  END
$$$$
