SNN.pdb
     RDKit          3D

 23 22  0  0  1  0  0  0  0  0999 V2000
    8.3129  -19.8066   18.7460 O   0  0  0  0  0  0  0  0  0  0  0  0
    8.9863  -19.0848   19.7530 C   0  0  0  0  0  0  0  0  0  0  0  0
    9.5817  -17.8857   19.0847 C   0  0  2  0  0  0  0  0  0  0  0  0
   10.8136  -18.1329   18.3957 N   0  0  0  0  0  0  0  0  0  0  0  0
    9.7489  -16.7361   20.0514 C   0  0  0  0  0  0  0  0  0  0  0  0
   10.8211  -16.5550   20.6729 O   0  0  0  0  0  0  0  0  0  0  0  0
    7.6550  -11.7881   19.5393 N   0  0  0  0  0  0  0  0  0  0  0  0
    7.5506  -13.2009   19.8075 C   0  0  0  0  0  0  0  0  0  0  0  0
    7.3959  -13.9579   18.8266 O   0  0  0  0  0  0  0  0  0  0  0  0
    7.6253  -13.7483   21.1754 C   0  0  0  0  0  0  0  0  0  0  0  0
    8.5827  -14.9068   21.3245 C   0  0  2  0  0  0  0  0  0  0  0  0
    8.6808  -15.8342   20.2693 N   0  0  0  0  0  0  0  0  0  0  0  0
    8.6338  -15.4597   22.6945 C   0  0  0  0  0  0  0  0  0  0  0  0
    7.7578  -16.3248   23.0463 O   0  0  0  0  0  0  0  0  0  0  0  0
    7.5135  -18.2897   26.6001 N   0  0  0  0  0  0  0  0  0  0  0  0
    8.1940  -17.0323   26.5400 C   0  0  0  0  0  0  0  0  0  0  0  0
    8.8072  -16.7146   27.5932 O   0  0  0  0  0  0  0  0  0  0  0  0
    8.1744  -16.1849   25.3327 C   0  0  0  0  0  0  0  0  0  0  0  0
    9.5916  -15.8064   24.9660 C   0  0  2  0  0  0  0  0  0  0  0  0
    9.5797  -15.1074   23.6598 N   0  0  0  0  0  0  0  0  0  0  0  0
   10.4593  -16.9833   24.7308 C   0  0  0  0  0  0  0  0  0  0  0  0
   11.7147  -17.1050   25.3720 O   0  0  0  0  0  0  0  0  0  0  0  0
   10.1573  -17.9159   23.9808 O   0  0  0  0  0  0  0  0  0  0  0  0
  2  1  1  0
  3  4  1  1
  3  2  1  0
  5  3  1  0
  6  5  2  0
  7  8  1  0
  8  9  2  0
 10  8  1  0
 11 10  1  6
 11 12  1  0
 11 13  1  0
 12  5  1  0
 13 20  1  0
 14 13  2  0
 16 15  1  0
 17 16  2  0
 18 16  1  0
 19 18  1  6
 20 19  1  0
 21 19  1  0
 21 22  1  0
 23 21  2  0
M  END
$$$$
