SNN.pdb
     RDKit          3D

 23 22  0  0  1  0  0  0  0  0999 V2000
   12.6716  -22.1342   21.9886 O   0  0  0  0  0  0  0  0  0  0  0  0
   13.0662  -21.1096   22.8735 C   0  0  0  0  0  0  0  0  0  0  0  0
   13.1533  -21.7354   24.2299 C   0  0  2  0  0  0  0  0  0  0  0  0
   12.7941  -23.1219   24.2749 N   0  0  0  0  0  0  0  0  0  0  0  0
   12.3564  -20.9590   25.2527 C   0  0  0  0  0  0  0  0  0  0  0  0
   12.6100  -19.7588   25.5054 O   0  0  0  0  0  0  0  0  0  0  0  0
    8.7734  -19.6036   25.0982 N   0  0  0  0  0  0  0  0  0  0  0  0
    8.2105  -20.6247   25.9462 C   0  0  0  0  0  0  0  0  0  0  0  0
    7.0009  -20.8926   25.7908 O   0  0  0  0  0  0  0  0  0  0  0  0
    9.0145  -21.3370   26.9577 C   0  0  0  0  0  0  0  0  0  0  0  0
   10.4843  -20.9906   26.9325 C   0  0  2  0  0  0  0  0  0  0  0  0
   11.2957  -21.5864   25.9477 N   0  0  0  0  0  0  0  0  0  0  0  0
   11.0807  -20.8437   28.2771 C   0  0  0  0  0  0  0  0  0  0  0  0
   10.3736  -20.3362   29.2162 O   0  0  0  0  0  0  0  0  0  0  0  0
   10.8119  -20.5028   31.7844 N   0  0  0  0  0  0  0  0  0  0  0  0
   11.0155  -21.9103   31.6251 C   0  0  0  0  0  0  0  0  0  0  0  0
   10.2840  -22.6337   32.3516 O   0  0  0  0  0  0  0  0  0  0  0  0
   12.0051  -22.4591   30.6789 C   0  0  0  0  0  0  0  0  0  0  0  0
   12.7704  -21.3214   30.0417 C   0  0  2  0  0  0  0  0  0  0  0  0
   12.3824  -21.2202   28.6155 N   0  0  0  0  0  0  0  0  0  0  0  0
   14.2306  -21.5642   29.9959 C   0  0  0  0  0  0  0  0  0  0  0  0
   15.0630  -21.2196   31.0869 O   0  0  0  0  0  0  0  0  0  0  0  0
   14.8090  -22.0710   29.0304 O   0  0  0  0  0  0  0  0  0  0  0  0
  2  1  1  0
  3  4  1  6
  3  2  1  0
  5  3  1  0
  6  5  2  0
  7  8  1  0
  8  9  2  0
 10  8  1  0
 11 10  1  1
 11 12  1  0
 11 13  1  0
 12  5  1  0
 13 20  1  0
 14 13  2  0
 16 15  1  0
 17 16  2  0
 18 16  1  0
 19 18  1  6
 20 19  1  0
 21 19  1  0
 21 22  1  0
 23 21  2  0
M  END
$$$$
