SNN.pdb
     RDKit          3D

 23 22  0  0  1  0  0  0  0  0999 V2000
    9.2478  -22.8709   18.9693 O   0  0  0  0  0  0  0  0  0  0  0  0
    9.7885  -21.7353   18.3314 C   0  0  0  0  0  0  0  0  0  0  0  0
    8.7786  -20.6427   18.4899 C   0  0  2  0  0  0  0  0  0  0  0  0
    9.0772  -19.4407   17.7693 N   0  0  0  0  0  0  0  0  0  0  0  0
    8.5258  -20.3262   19.9459 C   0  0  0  0  0  0  0  0  0  0  0  0
    9.1675  -19.4305   20.5414 O   0  0  0  0  0  0  0  0  0  0  0  0
    5.5458  -21.6044   24.8900 N   0  0  0  0  0  0  0  0  0  0  0  0
    5.5901  -20.5714   23.8851 C   0  0  0  0  0  0  0  0  0  0  0  0
    5.4486  -19.3927   24.2719 O   0  0  0  0  0  0  0  0  0  0  0  0
    5.7972  -20.8742   22.4561 C   0  0  0  0  0  0  0  0  0  0  0  0
    7.2473  -20.8994   22.0350 C   0  0  2  0  0  0  0  0  0  0  0  0
    7.5445  -21.0472   20.6664 N   0  0  0  0  0  0  0  0  0  0  0  0
    8.1259  -21.6189   22.9814 C   0  0  0  0  0  0  0  0  0  0  0  0
    8.2289  -22.8916   22.8857 O   0  0  0  0  0  0  0  0  0  0  0  0
   12.7221  -21.6639   26.7992 N   0  0  0  0  0  0  0  0  0  0  0  0
   11.9227  -22.2403   25.7618 C   0  0  0  0  0  0  0  0  0  0  0  0
   11.9613  -23.4980   25.7045 O   0  0  0  0  0  0  0  0  0  0  0  0
   11.1182  -21.4165   24.8398 C   0  0  0  0  0  0  0  0  0  0  0  0
    9.6710  -21.8469   24.9199 C   0  0  2  0  0  0  0  0  0  0  0  0
    8.8692  -21.0114   23.9958 N   0  0  0  0  0  0  0  0  0  0  0  0
    9.0663  -21.5888   26.2470 C   0  0  0  0  0  0  0  0  0  0  0  0
    9.1920  -22.5239   27.3013 O   0  0  0  0  0  0  0  0  0  0  0  0
    8.4285  -20.5680   26.5203 O   0  0  0  0  0  0  0  0  0  0  0  0
  2  1  1  0
  3  4  1  6
  3  2  1  0
  5  3  1  0
  6  5  2  0
  7  8  1  0
  8  9  2  0
 10  8  1  0
 11 10  1  6
 11 12  1  0
 11 13  1  0
 12  5  1  0
 13 20  1  0
 14 13  2  0
 16 15  1  0
 17 16  2  0
 18 16  1  0
 19 18  1  1
 20 19  1  0
 21 19  1  0
 21 22  1  0
 23 21  2  0
M  END
$$$$
