SNN.pdb
     RDKit          3D

 23 22  0  0  1  0  0  0  0  0999 V2000
    9.5806  -15.1662   18.4234 O   0  0  0  0  0  0  0  0  0  0  0  0
    8.1878  -15.3122   18.2575 C   0  0  0  0  0  0  0  0  0  0  0  0
    7.5718  -14.0308   18.7239 C   0  0  2  0  0  0  0  0  0  0  0  0
    7.6906  -12.9385   17.8040 N   0  0  0  0  0  0  0  0  0  0  0  0
    8.0945  -13.6248   20.0825 C   0  0  0  0  0  0  0  0  0  0  0  0
    8.1508  -12.4225   20.4289 O   0  0  0  0  0  0  0  0  0  0  0  0
    7.5850  -12.8680   25.3099 N   0  0  0  0  0  0  0  0  0  0  0  0
    7.1897  -13.9878   24.4921 C   0  0  0  0  0  0  0  0  0  0  0  0
    6.8153  -15.0219   25.0832 O   0  0  0  0  0  0  0  0  0  0  0  0
    7.2156  -13.9318   23.0181 C   0  0  0  0  0  0  0  0  0  0  0  0
    8.4550  -14.5341   22.3999 C   0  0  2  0  0  0  0  0  0  0  0  0
    8.5324  -14.6125   20.9960 N   0  0  0  0  0  0  0  0  0  0  0  0
    8.9928  -15.6857   23.1548 C   0  0  0  0  0  0  0  0  0  0  0  0
    8.3521  -16.7941   23.1332 O   0  0  0  0  0  0  0  0  0  0  0  0
   12.0675  -17.5253   21.9610 N   0  0  0  0  0  0  0  0  0  0  0  0
   12.7373  -16.8119   23.0051 C   0  0  0  0  0  0  0  0  0  0  0  0
   13.7619  -16.1786   22.6368 O   0  0  0  0  0  0  0  0  0  0  0  0
   12.2547  -16.8223   24.3989 C   0  0  0  0  0  0  0  0  0  0  0  0
   10.7469  -16.9347   24.4039 C   0  0  2  0  0  0  0  0  0  0  0  0
   10.1686  -15.6640   23.9082 N   0  0  0  0  0  0  0  0  0  0  0  0
   10.1844  -17.0727   25.7669 C   0  0  0  0  0  0  0  0  0  0  0  0
   10.1425  -18.3292   26.4160 O   0  0  0  0  0  0  0  0  0  0  0  0
    9.7260  -16.1281   26.4158 O   0  0  0  0  0  0  0  0  0  0  0  0
  2  1  1  0
  3  4  1  6
  3  2  1  0
  5  3  1  0
  6  5  2  0
  7  8  1  0
  8  9  2  0
 10  8  1  0
 11 10  1  6
 11 12  1  0
 11 13  1  0
 12  5  1  0
 13 20  1  0
 14 13  2  0
 16 15  1  0
 17 16  2  0
 18 16  1  0
 19 18  1  1
 20 19  1  0
 21 19  1  0
 21 22  1  0
 23 21  2  0
M  END
$$$$
