SNN.pdb
     RDKit          3D

 23 22  0  0  1  0  0  0  0  0999 V2000
    9.6944  -15.3833   16.4006 O   0  0  0  0  0  0  0  0  0  0  0  0
    8.2936  -15.3225   16.5518 C   0  0  0  0  0  0  0  0  0  0  0  0
    8.0109  -14.0994   17.3661 C   0  0  2  0  0  0  0  0  0  0  0  0
    8.1939  -12.8601   16.6704 N   0  0  0  0  0  0  0  0  0  0  0  0
    8.8017  -14.0939   18.6539 C   0  0  0  0  0  0  0  0  0  0  0  0
    9.7116  -13.2579   18.8589 O   0  0  0  0  0  0  0  0  0  0  0  0
    6.5178  -14.0342   21.1672 N   0  0  0  0  0  0  0  0  0  0  0  0
    6.9794  -14.9744   22.1579 C   0  0  0  0  0  0  0  0  0  0  0  0
    6.1861  -15.2725   23.0749 O   0  0  0  0  0  0  0  0  0  0  0  0
    8.3269  -15.5729   22.1052 C   0  0  0  0  0  0  0  0  0  0  0  0
    9.1502  -15.1342   20.9174 C   0  0  2  0  0  0  0  0  0  0  0  0
    8.5194  -15.0462   19.6615 N   0  0  0  0  0  0  0  0  0  0  0  0
   10.5302  -15.6641   20.9259 C   0  0  0  0  0  0  0  0  0  0  0  0
   11.2304  -15.5515   21.9920 O   0  0  0  0  0  0  0  0  0  0  0  0
   15.0988  -14.9412   18.4319 N   0  0  0  0  0  0  0  0  0  0  0  0
   14.3588  -14.4090   19.5351 C   0  0  0  0  0  0  0  0  0  0  0  0
   15.0466  -13.7578   20.3653 O   0  0  0  0  0  0  0  0  0  0  0  0
   12.9045  -14.6108   19.6765 C   0  0  0  0  0  0  0  0  0  0  0  0
   12.5968  -16.0894   19.6047 C   0  0  2  0  0  0  0  0  0  0  0  0
   11.1484  -16.2910   19.8417 N   0  0  0  0  0  0  0  0  0  0  0  0
   13.2449  -16.8655   20.6869 C   0  0  0  0  0  0  0  0  0  0  0  0
   14.4752  -17.5307   20.4726 O   0  0  0  0  0  0  0  0  0  0  0  0
   12.7719  -16.9831   21.8208 O   0  0  0  0  0  0  0  0  0  0  0  0
  2  1  1  0
  3  4  1  6
  3  2  1  0
  5  3  1  0
  6  5  2  0
  7  8  1  0
  8  9  2  0
 10  8  1  0
 11 10  1  1
 11 12  1  0
 11 13  1  0
 12  5  1  0
 13 20  1  0
 14 13  2  0
 16 15  1  0
 17 16  2  0
 18 16  1  0
 19 18  1  1
 20 19  1  0
 21 19  1  0
 21 22  1  0
 23 21  2  0
M  END
$$$$
