SNN.pdb
     RDKit          3D

 23 22  0  0  1  0  0  0  0  0999 V2000
    8.5519  -17.2916   16.9457 O   0  0  0  0  0  0  0  0  0  0  0  0
    8.0849  -17.3302   18.2757 C   0  0  0  0  0  0  0  0  0  0  0  0
    9.0720  -16.5557   19.0911 C   0  0  2  0  0  0  0  0  0  0  0  0
   10.3433  -17.1948   19.2597 N   0  0  0  0  0  0  0  0  0  0  0  0
    8.5015  -16.1709   20.4366 C   0  0  0  0  0  0  0  0  0  0  0  0
    7.5238  -15.3942   20.5344 O   0  0  0  0  0  0  0  0  0  0  0  0
    7.4688  -17.2865   25.4950 N   0  0  0  0  0  0  0  0  0  0  0  0
    6.5503  -17.0823   24.4025 C   0  0  0  0  0  0  0  0  0  0  0  0
    5.3334  -17.2185   24.6471 O   0  0  0  0  0  0  0  0  0  0  0  0
    7.0093  -16.7231   23.0472 C   0  0  0  0  0  0  0  0  0  0  0  0
    8.5100  -16.6214   22.9113 C   0  0  2  0  0  0  0  0  0  0  0  0
    9.0716  -16.6922   21.6219 N   0  0  0  0  0  0  0  0  0  0  0  0
    9.2498  -17.3088   23.9909 C   0  0  0  0  0  0  0  0  0  0  0  0
    9.2435  -18.5886   24.0284 O   0  0  0  0  0  0  0  0  0  0  0  0
   13.1454  -16.3719   22.5898 N   0  0  0  0  0  0  0  0  0  0  0  0
   13.3257  -16.4291   24.0083 C   0  0  0  0  0  0  0  0  0  0  0  0
   14.4251  -16.9183   24.3801 O   0  0  0  0  0  0  0  0  0  0  0  0
   12.2988  -15.9469   24.9511 C   0  0  0  0  0  0  0  0  0  0  0  0
   11.3608  -17.0830   25.2908 C   0  0  2  0  0  0  0  0  0  0  0  0
    9.9708  -16.6627   24.9975 N   0  0  0  0  0  0  0  0  0  0  0  0
   11.3384  -17.3982   26.7377 C   0  0  0  0  0  0  0  0  0  0  0  0
   12.3724  -18.1562   27.3362 O   0  0  0  0  0  0  0  0  0  0  0  0
   10.4422  -17.0315   27.5031 O   0  0  0  0  0  0  0  0  0  0  0  0
  2  1  1  0
  3  4  1  1
  3  2  1  0
  5  3  1  0
  6  5  2  0
  7  8  1  0
  8  9  2  0
 10  8  1  0
 11 10  1  6
 11 12  1  0
 11 13  1  0
 12  5  1  0
 13 20  1  0
 14 13  2  0
 16 15  1  0
 17 16  2  0
 18 16  1  0
 19 18  1  1
 20 19  1  0
 21 19  1  0
 21 22  1  0
 23 21  2  0
M  END
$$$$
