SNN.pdb
     RDKit          3D

 23 22  0  0  1  0  0  0  0  0999 V2000
    8.3243  -12.6537   18.2943 O   0  0  0  0  0  0  0  0  0  0  0  0
    7.4116  -12.9888   19.3158 C   0  0  0  0  0  0  0  0  0  0  0  0
    8.2336  -13.3481   20.5134 C   0  0  2  0  0  0  0  0  0  0  0  0
    9.4408  -14.0622   20.2199 N   0  0  0  0  0  0  0  0  0  0  0  0
    7.4204  -14.1024   21.5399 C   0  0  0  0  0  0  0  0  0  0  0  0
    6.3375  -13.6499   21.9771 O   0  0  0  0  0  0  0  0  0  0  0  0
    5.8240  -17.6314   24.9947 N   0  0  0  0  0  0  0  0  0  0  0  0
    6.3354  -18.3130   23.8317 C   0  0  0  0  0  0  0  0  0  0  0  0
    6.1191  -19.5399   23.7483 O   0  0  0  0  0  0  0  0  0  0  0  0
    7.0814  -17.6072   22.7725 C   0  0  0  0  0  0  0  0  0  0  0  0
    7.2557  -16.1279   23.0222 C   0  0  2  0  0  0  0  0  0  0  0  0
    7.8775  -15.3497   22.0268 N   0  0  0  0  0  0  0  0  0  0  0  0
    7.5962  -15.8005   24.4230 C   0  0  0  0  0  0  0  0  0  0  0  0
    6.9548  -16.3795   25.3679 O   0  0  0  0  0  0  0  0  0  0  0  0
    6.2448  -12.4938   25.4169 N   0  0  0  0  0  0  0  0  0  0  0  0
    6.9340  -12.9059   26.6014 C   0  0  0  0  0  0  0  0  0  0  0  0
    7.1559  -11.9831   27.4295 O   0  0  0  0  0  0  0  0  0  0  0  0
    7.3445  -14.3049   26.8254 C   0  0  0  0  0  0  0  0  0  0  0  0
    8.7209  -14.5209   26.2382 C   0  0  2  0  0  0  0  0  0  0  0  0
    8.5818  -14.8897   24.8101 N   0  0  0  0  0  0  0  0  0  0  0  0
    9.4270  -15.6772   26.8362 C   0  0  0  0  0  0  0  0  0  0  0  0
    9.9112  -16.7342   26.0297 O   0  0  0  0  0  0  0  0  0  0  0  0
    9.6383  -15.7974   28.0463 O   0  0  0  0  0  0  0  0  0  0  0  0
  2  1  1  0
  3  4  1  6
  3  2  1  0
  5  3  1  0
  6  5  2  0
  7  8  1  0
  8  9  2  0
 10  8  1  0
 11 10  1  6
 11 12  1  0
 11 13  1  0
 12  5  1  0
 13 20  1  0
 14 13  2  0
 16 15  1  0
 17 16  2  0
 18 16  1  0
 19 18  1  1
 20 19  1  0
 21 19  1  0
 21 22  1  0
 23 21  2  0
M  END
$$$$
