RAD.pdb
     RDKit          3D

 25 24  0  0  1  0  0  0  0  0999 V2000
   21.0633  -14.6762  -21.1634 N   0  0  0  0  0  0  0  0  0  0  0  0
   19.6839  -14.3906  -21.4073 C   0  0  0  0  0  0  0  0  0  0  0  0
   19.0880  -14.8669  -22.4577 N   0  0  0  0  0  0  0  0  0  0  0  0
   18.9195  -13.5857  -20.5220 N   0  0  0  0  0  0  0  0  0  0  0  0
   19.4722  -13.2068  -19.2393 C   0  0  0  0  0  0  0  0  0  0  0  0
   18.4752  -12.3115  -18.5271 C   0  0  0  0  0  0  0  0  0  0  0  0
   19.0487  -11.8462  -17.2032 C   0  0  0  0  0  0  0  0  0  0  0  0
   20.1822  -12.7526  -16.7668 C   0  0  2  0  0  0  0  0  0  0  0  0
   19.5853  -14.0041  -16.3562 N   0  0  0  0  0  0  0  0  0  0  0  0
   20.8522  -12.0534  -15.6470 C   0  0  0  0  0  0  0  0  0  0  0  0
   20.1925  -11.9064  -14.5815 O   0  0  0  0  0  0  0  0  0  0  0  0
   18.1012  -14.5942  -22.6713 C   0  0  0  0  0  0  0  0  0  0  0  0
   24.2481  -10.7873  -14.7829 C   0  0  1  0  0  0  0  0  0  0  0  0
   22.7237  -10.7140  -14.6268 N   0  0  0  0  0  0  0  0  0  0  0  0
   22.1689  -11.5397  -15.6779 C   0  0  0  0  0  0  0  0  0  0  0  0
   22.2584   -9.2999  -14.7475 O   0  0  0  0  0  0  0  0  0  0  0  0
   22.5386   -8.4356  -13.8788 N   0  0  0  0  0  0  0  0  0  0  0  0
   21.4752   -8.8579  -15.8505 C   0  0  1  0  0  0  0  0  0  0  0  0
   21.0714   -7.4567  -15.9494 C   0  0  0  0  0  0  0  0  0  0  0  0
   20.8611   -7.1978  -17.4216 C   0  0  0  0  0  0  0  0  0  0  0  0
   20.4425   -5.8090  -17.6590 O   0  0  0  0  0  0  0  0  0  0  0  0
   20.3873   -4.9618  -16.7371 C   0  0  0  0  0  0  0  0  0  0  0  0
   19.8773   -7.2382  -15.1300 O   0  0  0  0  0  0  0  0  0  0  0  0
   18.9467   -8.0796  -15.0881 O   0  0  0  0  0  0  0  0  0  0  0  0
   20.0939   -5.4192  -18.9558 O   0  0  0  0  0  0  0  0  0  0  0  0
  2  3  2  0
  2  1  1  0
  4  2  1  0
  5  4  1  0
  6  5  1  0
  7  8  1  0
  7  6  1  0
  8 10  1  0
  8  9  1  1
 10 14  1  0
 11 10  2  0
 13 14  1  0
 13 15  1  0
 13 12  1  1
 15 16  2  0
 17 15  1  0
 17 18  1  0
 18 22  1  0
 18 19  1  1
 20 24  1  0
 20 19  1  0
 21 20  2  0
 22 23  2  0
 22 25  1  0
M  END
$$$$
