RAD.pdb
     RDKit          3D

 25 24  0  0  1  0  0  0  0  0999 V2000
   26.1326  -25.9873  -15.8157 N   0  0  0  0  0  0  0  0  0  0  0  0
   25.3180  -25.5940  -16.9227 C   0  0  0  0  0  0  0  0  0  0  0  0
   24.8752  -26.4794  -17.7625 N   0  0  0  0  0  0  0  0  0  0  0  0
   24.9640  -24.2371  -17.1454 N   0  0  0  0  0  0  0  0  0  0  0  0
   25.0423  -23.2876  -16.0561 C   0  0  0  0  0  0  0  0  0  0  0  0
   23.7911  -23.4189  -15.2076 C   0  0  0  0  0  0  0  0  0  0  0  0
   23.8180  -22.4031  -14.0826 C   0  0  0  0  0  0  0  0  0  0  0  0
   22.9973  -21.1827  -14.4484 C   0  0  2  0  0  0  0  0  0  0  0  0
   23.9313  -20.1067  -14.6954 N   0  0  0  0  0  0  0  0  0  0  0  0
   22.1255  -20.9158  -13.2820 C   0  0  0  0  0  0  0  0  0  0  0  0
   22.6752  -20.4523  -12.2452 O   0  0  0  0  0  0  0  0  0  0  0  0
   24.3116  -26.1820  -18.5917 C   0  0  0  0  0  0  0  0  0  0  0  0
   18.7754  -20.0129  -12.4636 C   0  0  1  0  0  0  0  0  0  0  0  0
   19.9298  -20.9352  -12.0509 N   0  0  0  0  0  0  0  0  0  0  0  0
   20.7301  -21.1386  -13.2393 C   0  0  0  0  0  0  0  0  0  0  0  0
   19.3972  -22.2294  -11.5293 O   0  0  0  0  0  0  0  0  0  0  0  0
   19.0473  -23.1587  -12.3001 N   0  0  0  0  0  0  0  0  0  0  0  0
   19.2586  -22.4777  -10.1349 C   0  0  1  0  0  0  0  0  0  0  0  0
   18.7489  -23.7646   -9.6656 C   0  0  0  0  0  0  0  0  0  0  0  0
   19.0404  -23.8011   -8.1848 C   0  0  0  0  0  0  0  0  0  0  0  0
   18.6174  -25.0791   -7.5947 O   0  0  0  0  0  0  0  0  0  0  0  0
   18.1787  -26.0234   -8.2921 C   0  0  0  0  0  0  0  0  0  0  0  0
   17.3258  -23.8707   -9.9949 O   0  0  0  0  0  0  0  0  0  0  0  0
   16.5233  -22.9377   -9.7479 O   0  0  0  0  0  0  0  0  0  0  0  0
   18.7068  -25.2477   -6.2096 O   0  0  0  0  0  0  0  0  0  0  0  0
  2  3  2  0
  2  1  1  0
  4  2  1  0
  5  4  1  0
  6  5  1  0
  7  8  1  0
  7  6  1  0
  8 10  1  0
  8  9  1  1
 10 14  1  0
 11 10  2  0
 13 14  1  0
 13 15  1  0
 13 12  1  1
 15 16  2  0
 17 15  1  0
 17 18  1  0
 18 22  1  0
 18 19  1  1
 20 24  1  0
 20 19  1  0
 21 20  2  0
 22 23  2  0
 22 25  1  0
M  END
$$$$
