RAD.pdb
     RDKit          3D

 25 24  0  0  1  0  0  0  0  0999 V2000
   24.2359  -19.8953  -10.3339 N   0  0  0  0  0  0  0  0  0  0  0  0
   25.2237  -20.4118   -9.4388 C   0  0  0  0  0  0  0  0  0  0  0  0
   24.9351  -20.6261   -8.1914 N   0  0  0  0  0  0  0  0  0  0  0  0
   26.5429  -20.7083   -9.8721 N   0  0  0  0  0  0  0  0  0  0  0  0
   26.9956  -20.2395  -11.1642 C   0  0  0  0  0  0  0  0  0  0  0  0
   25.9912  -20.6723  -12.2161 C   0  0  0  0  0  0  0  0  0  0  0  0
   26.3671  -20.0889  -13.5639 C   0  0  0  0  0  0  0  0  0  0  0  0
   26.3486  -21.1636  -14.6324 C   0  0  2  0  0  0  0  0  0  0  0  0
   27.4869  -20.9223  -15.4909 N   0  0  0  0  0  0  0  0  0  0  0  0
   25.0609  -21.0042  -15.3453 C   0  0  0  0  0  0  0  0  0  0  0  0
   24.9280  -19.9833  -16.0748 O   0  0  0  0  0  0  0  0  0  0  0  0
   25.6699  -20.9751   -7.5341 C   0  0  0  0  0  0  0  0  0  0  0  0
   22.0311  -23.0631  -16.0323 C   0  0  1  0  0  0  0  0  0  0  0  0
   22.7229  -21.6950  -15.9727 N   0  0  0  0  0  0  0  0  0  0  0  0
   23.9725  -21.9035  -15.2732 C   0  0  0  0  0  0  0  0  0  0  0  0
   21.8597  -20.7093  -15.2558 O   0  0  0  0  0  0  0  0  0  0  0  0
   21.8511  -20.6277  -14.0015 N   0  0  0  0  0  0  0  0  0  0  0  0
   21.0035  -19.8124  -15.9543 C   0  0  1  0  0  0  0  0  0  0  0  0
   20.1333  -18.9014  -15.2133 C   0  0  0  0  0  0  0  0  0  0  0  0
   20.1818  -17.5929  -15.9645 C   0  0  0  0  0  0  0  0  0  0  0  0
   19.2648  -16.6092  -15.3713 O   0  0  0  0  0  0  0  0  0  0  0  0
   18.6440  -16.8333  -14.3059 C   0  0  0  0  0  0  0  0  0  0  0  0
   18.7928  -19.4834  -15.1175 O   0  0  0  0  0  0  0  0  0  0  0  0
   18.2191  -19.6324  -14.0111 O   0  0  0  0  0  0  0  0  0  0  0  0
   19.0780  -15.3827  -16.0163 O   0  0  0  0  0  0  0  0  0  0  0  0
  2  3  2  0
  2  1  1  0
  4  2  1  0
  5  4  1  0
  6  5  1  0
  7  8  1  0
  7  6  1  0
  8 10  1  0
  8  9  1  6
 10 14  1  0
 11 10  2  0
 13 14  1  0
 13 15  1  0
 13 12  1  6
 15 16  2  0
 17 15  1  0
 17 18  1  0
 18 22  1  0
 18 19  1  1
 20 24  1  0
 20 19  1  0
 21 20  2  0
 22 23  2  0
 22 25  1  0
M  END
$$$$
