RAD.pdb
     RDKit          3D

 25 24  0  0  1  0  0  0  0  0999 V2000
   28.7629  -22.6686  -16.3978 N   0  0  0  0  0  0  0  0  0  0  0  0
   28.6004  -22.3406  -17.7797 C   0  0  0  0  0  0  0  0  0  0  0  0
   28.9739  -23.1733  -18.7030 N   0  0  0  0  0  0  0  0  0  0  0  0
   28.0307  -21.1076  -18.1933 N   0  0  0  0  0  0  0  0  0  0  0  0
   27.4252  -20.2328  -17.2123 C   0  0  0  0  0  0  0  0  0  0  0  0
   26.0595  -20.7847  -16.8477 C   0  0  0  0  0  0  0  0  0  0  0  0
   25.3399  -19.8212  -15.9246 C   0  0  0  0  0  0  0  0  0  0  0  0
   26.3315  -19.0871  -15.0445 C   0  0  2  0  0  0  0  0  0  0  0  0
   26.4376  -19.8385  -13.8135 N   0  0  0  0  0  0  0  0  0  0  0  0
   25.7636  -17.7363  -14.8332 C   0  0  0  0  0  0  0  0  0  0  0  0
   24.7474  -17.6476  -14.0906 O   0  0  0  0  0  0  0  0  0  0  0  0
   28.9217  -22.8990  -19.7109 C   0  0  0  0  0  0  0  0  0  0  0  0
   26.6922  -14.2033  -15.5976 C   0  0  1  0  0  0  0  0  0  0  0  0
   25.6380  -15.2520  -15.2200 N   0  0  0  0  0  0  0  0  0  0  0  0
   26.2693  -16.5423  -15.3962 C   0  0  0  0  0  0  0  0  0  0  0  0
   24.4349  -15.1146  -16.0942 O   0  0  0  0  0  0  0  0  0  0  0  0
   23.7516  -14.0598  -16.1171 N   0  0  0  0  0  0  0  0  0  0  0  0
   24.0001  -16.1689  -16.9456 C   0  0  2  0  0  0  0  0  0  0  0  0
   22.8343  -15.9831  -17.8073 C   0  0  0  0  0  0  0  0  0  0  0  0
   21.6721  -16.5815  -17.0523 C   0  0  0  0  0  0  0  0  0  0  0  0
   21.8581  -18.0261  -16.8551 O   0  0  0  0  0  0  0  0  0  0  0  0
   22.7447  -18.6734  -17.4596 C   0  0  0  0  0  0  0  0  0  0  0  0
   22.6779  -14.5586  -18.1094 O   0  0  0  0  0  0  0  0  0  0  0  0
   21.7216  -14.1357  -18.8038 O   0  0  0  0  0  0  0  0  0  0  0  0
   21.0185  -18.7014  -15.9640 O   0  0  0  0  0  0  0  0  0  0  0  0
  2  3  2  0
  2  1  1  0
  4  2  1  0
  5  4  1  0
  6  5  1  0
  7  8  1  0
  7  6  1  0
  8 10  1  0
  8  9  1  1
 10 14  1  0
 11 10  2  0
 13 14  1  0
 13 15  1  0
 13 12  1  1
 15 16  2  0
 17 15  1  0
 17 18  1  0
 18 22  1  0
 18 19  1  1
 20 24  1  0
 20 19  1  0
 21 20  2  0
 22 23  2  0
 22 25  1  0
M  END
$$$$
