RAD.pdb
     RDKit          3D

 25 24  0  0  1  0  0  0  0  0999 V2000
   19.8227  -21.6209   -8.6066 N   0  0  0  0  0  0  0  0  0  0  0  0
   20.7576  -22.1136   -7.6438 C   0  0  0  0  0  0  0  0  0  0  0  0
   20.5796  -23.2718   -7.0851 N   0  0  0  0  0  0  0  0  0  0  0  0
   21.9041  -21.3666   -7.2649 N   0  0  0  0  0  0  0  0  0  0  0  0
   22.5545  -20.5107   -8.2338 C   0  0  0  0  0  0  0  0  0  0  0  0
   22.2557  -21.0385   -9.6248 C   0  0  0  0  0  0  0  0  0  0  0  0
   23.0001  -20.2203  -10.6614 C   0  0  0  0  0  0  0  0  0  0  0  0
   24.0351  -21.0724  -11.3683 C   0  0  2  0  0  0  0  0  0  0  0  0
   25.2359  -21.0287  -10.5638 N   0  0  0  0  0  0  0  0  0  0  0  0
   24.2263  -20.4559  -12.7007 C   0  0  0  0  0  0  0  0  0  0  0  0
   24.8589  -19.3651  -12.7460 O   0  0  0  0  0  0  0  0  0  0  0  0
   21.2598  -23.6217   -6.3718 C   0  0  0  0  0  0  0  0  0  0  0  0
   23.8372  -21.4444  -16.2626 C   0  0  1  0  0  0  0  0  0  0  0  0
   23.9528  -20.3433  -15.2006 N   0  0  0  0  0  0  0  0  0  0  0  0
   23.7575  -20.9921  -13.9218 C   0  0  0  0  0  0  0  0  0  0  0  0
   22.9221  -19.2881  -15.4347 O   0  0  0  0  0  0  0  0  0  0  0  0
   21.7626  -19.3794  -14.9578 N   0  0  0  0  0  0  0  0  0  0  0  0
   23.1984  -18.1260  -16.2084 C   0  0  1  0  0  0  0  0  0  0  0  0
   22.1533  -17.1299  -16.4359 C   0  0  0  0  0  0  0  0  0  0  0  0
   22.8772  -15.8207  -16.6372 C   0  0  0  0  0  0  0  0  0  0  0  0
   21.9335  -14.7382  -16.9502 O   0  0  0  0  0  0  0  0  0  0  0  0
   20.6919  -14.8983  -16.8939 C   0  0  0  0  0  0  0  0  0  0  0  0
   21.3348  -17.5396  -17.5792 O   0  0  0  0  0  0  0  0  0  0  0  0
   20.0929  -17.3588  -17.5961 O   0  0  0  0  0  0  0  0  0  0  0  0
   22.4367  -13.4881  -17.3232 O   0  0  0  0  0  0  0  0  0  0  0  0
  2  3  2  0
  2  1  1  0
  4  2  1  0
  5  4  1  0
  6  5  1  0
  7  8  1  0
  7  6  1  0
  8 10  1  0
  8  9  1  1
 10 14  1  0
 11 10  2  0
 13 14  1  0
 13 15  1  0
 13 12  1  1
 15 16  2  0
 17 15  1  0
 17 18  1  0
 18 22  1  0
 18 19  1  6
 20 24  1  0
 20 19  1  0
 21 20  2  0
 22 23  2  0
 22 25  1  0
M  END
$$$$
