LDP.pdb
     RDKit          3D

 24 24  0  0  1  0  0  0  0  0999 V2000
    9.6882  -13.2384   18.9129 C   0  0  0  0  0  0  0  0  0  0  0  0
    8.2221  -13.5811   18.7466 C   0  0  2  0  0  0  0  0  0  0  0  0
    7.5459  -12.4138   18.0943 C   0  0  0  0  0  0  0  0  0  0  0  0
    7.6619  -13.8799   20.1149 C   0  0  0  0  0  0  0  0  0  0  0  0
    8.4003  -14.9874   20.8264 C   0  0  2  0  0  0  0  0  0  0  0  0
    8.1334  -16.2189   20.0957 N   0  0  0  0  0  0  0  0  0  0  0  0
    7.7776  -15.1290   22.1711 C   0  0  0  0  0  0  0  0  0  0  0  0
    6.7937  -14.4252   22.5361 O   0  0  0  0  0  0  0  0  0  0  0  0
    8.2522  -16.0713   23.1374 N   0  0  0  0  0  0  0  0  0  0  0  0
    7.7279  -16.1037   24.5114 C   0  0  1  0  0  0  0  0  0  0  0  0
    7.6437  -17.5582   24.8682 C   0  0  0  0  0  0  0  0  0  0  0  0
    6.5004  -18.1312   24.0869 C   0  0  0  0  0  0  0  0  0  0  0  0
    6.7322  -18.9998   23.2042 O   0  0  0  0  0  0  0  0  0  0  0  0
    8.4739  -15.2614   25.4245 C   0  0  0  0  0  0  0  0  0  0  0  0
    9.7362  -15.2253   25.1925 O   0  0  0  0  0  0  0  0  0  0  0  0
    5.1916  -17.7590   24.2791 O   0  0  0  0  0  0  0  0  0  0  0  0
    7.9794  -14.5017   26.5050 N   0  0  0  0  0  0  0  0  0  0  0  0
    6.6692  -14.2678   27.0516 C   0  0  0  0  0  0  0  0  0  0  0  0
    6.6386  -12.7539   27.0896 C   0  0  0  0  0  0  0  0  0  0  0  0
    7.9733  -12.4823   27.7656 C   0  0  0  0  0  0  0  0  0  0  0  0
    8.7956  -13.7039   27.4046 C   0  0  1  0  0  0  0  0  0  0  0  0
    9.1894  -14.4657   28.6149 C   0  0  0  0  0  0  0  0  0  0  0  0
    8.6523  -15.7377   28.7603 O   0  0  0  0  0  0  0  0  0  0  0  0
    9.9551  -14.0528   29.4965 O   0  0  0  0  0  0  0  0  0  0  0  0
  2  1  1  1
  2  3  1  0
  4  2  1  0
  4  5  1  0
  5  6  1  6
  5  7  1  0
  7  8  2  0
  9  7  1  0
  9 10  1  0
 10 11  1  1
 12 11  1  0
 13 12  2  0
 14 10  1  0
 14 15  2  0
 16 12  1  0
 17 14  1  0
 18 17  1  0
 19 18  1  0
 20 19  1  0
 21 20  1  0
 21 17  1  0
 21 22  1  1
 23 22  1  0
 24 22  2  0
M  END
$$$$
