LDP.pdb
     RDKit          3D

 24 24  0  0  1  0  0  0  0  0999 V2000
    9.5778  -13.0087   19.4762 C   0  0  0  0  0  0  0  0  0  0  0  0
    8.1774  -13.2109   18.9353 C   0  0  2  0  0  0  0  0  0  0  0  0
    7.6160  -11.8647   18.5919 C   0  0  0  0  0  0  0  0  0  0  0  0
    7.3719  -13.9166   19.9976 C   0  0  0  0  0  0  0  0  0  0  0  0
    7.9309  -15.2709   20.3604 C   0  0  2  0  0  0  0  0  0  0  0  0
    7.3334  -16.2389   19.4506 N   0  0  0  0  0  0  0  0  0  0  0  0
    7.4390  -15.5900   21.7287 C   0  0  0  0  0  0  0  0  0  0  0  0
    6.2117  -15.7490   21.9841 O   0  0  0  0  0  0  0  0  0  0  0  0
    8.3236  -15.7379   22.8433 N   0  0  0  0  0  0  0  0  0  0  0  0
    7.8213  -15.9656   24.2071 C   0  0  1  0  0  0  0  0  0  0  0  0
    7.7386  -17.4561   24.3541 C   0  0  0  0  0  0  0  0  0  0  0  0
    7.3674  -17.7317   25.7796 C   0  0  0  0  0  0  0  0  0  0  0  0
    6.2067  -17.4483   26.1791 O   0  0  0  0  0  0  0  0  0  0  0  0
    8.5843  -15.2626   25.2187 C   0  0  0  0  0  0  0  0  0  0  0  0
    9.8568  -15.3737   25.0876 O   0  0  0  0  0  0  0  0  0  0  0  0
    8.2329  -18.2843   26.6929 O   0  0  0  0  0  0  0  0  0  0  0  0
    8.0963  -14.4947   26.2962 N   0  0  0  0  0  0  0  0  0  0  0  0
    6.7824  -14.1774   26.7893 C   0  0  0  0  0  0  0  0  0  0  0  0
    6.8608  -12.6668   26.8677 C   0  0  0  0  0  0  0  0  0  0  0  0
    8.1785  -12.5116   27.6106 C   0  0  0  0  0  0  0  0  0  0  0  0
    8.9253  -13.7818   27.2535 C   0  0  1  0  0  0  0  0  0  0  0  0
    9.2049  -14.5998   28.4589 C   0  0  0  0  0  0  0  0  0  0  0  0
   10.1364  -14.0979   29.3578 O   0  0  0  0  0  0  0  0  0  0  0  0
    8.6729  -15.6877   28.7185 O   0  0  0  0  0  0  0  0  0  0  0  0
  2  1  1  1
  2  3  1  0
  4  2  1  0
  4  5  1  0
  5  6  1  6
  5  7  1  0
  7  8  2  0
  9  7  1  0
  9 10  1  0
 10 11  1  1
 12 11  1  0
 13 12  2  0
 14 10  1  0
 14 15  2  0
 16 12  1  0
 17 14  1  0
 18 17  1  0
 19 18  1  0
 20 19  1  0
 21 20  1  0
 21 17  1  0
 21 22  1  1
 23 22  1  0
 24 22  2  0
M  END
$$$$
