LDP.pdb
     RDKit          3D

 24 24  0  0  1  0  0  0  0  0999 V2000
    5.4030  -12.3138   25.2560 C   0  0  0  0  0  0  0  0  0  0  0  0
    6.9160  -12.3757   25.2939 C   0  0  2  0  0  0  0  0  0  0  0  0
    7.4272  -11.0001   25.5969 C   0  0  0  0  0  0  0  0  0  0  0  0
    7.3889  -12.8833   23.9544 C   0  0  0  0  0  0  0  0  0  0  0  0
    6.8952  -14.2752   23.6426 C   0  0  2  0  0  0  0  0  0  0  0  0
    5.4440  -14.2530   23.7664 N   0  0  0  0  0  0  0  0  0  0  0  0
    7.4153  -15.1691   24.7133 C   0  0  0  0  0  0  0  0  0  0  0  0
    6.8941  -15.2178   25.8634 O   0  0  0  0  0  0  0  0  0  0  0  0
    8.5387  -16.0314   24.5099 N   0  0  0  0  0  0  0  0  0  0  0  0
    9.0260  -16.9322   25.5658 C   0  0  1  0  0  0  0  0  0  0  0  0
    9.1767  -18.2705   24.9052 C   0  0  0  0  0  0  0  0  0  0  0  0
    7.8044  -18.8657   24.8125 C   0  0  0  0  0  0  0  0  0  0  0  0
    7.3625  -19.2211   23.6876 O   0  0  0  0  0  0  0  0  0  0  0  0
   10.1943  -16.4216   26.2543 C   0  0  0  0  0  0  0  0  0  0  0  0
   11.1841  -16.1548   25.4810 O   0  0  0  0  0  0  0  0  0  0  0  0
    6.9851  -19.0498   25.9004 O   0  0  0  0  0  0  0  0  0  0  0  0
   10.3563  -16.1932   27.6365 N   0  0  0  0  0  0  0  0  0  0  0  0
    9.4581  -16.1527   28.7597 C   0  0  0  0  0  0  0  0  0  0  0  0
    9.8182  -14.8135   29.3689 C   0  0  0  0  0  0  0  0  0  0  0  0
   11.3324  -14.9452   29.4133 C   0  0  0  0  0  0  0  0  0  0  0  0
   11.6246  -15.9241   28.2930 C   0  0  1  0  0  0  0  0  0  0  0  0
   12.2524  -17.1643   28.8108 C   0  0  0  0  0  0  0  0  0  0  0  0
   13.5006  -17.0370   29.4054 O   0  0  0  0  0  0  0  0  0  0  0  0
   11.7486  -18.2942   28.7514 O   0  0  0  0  0  0  0  0  0  0  0  0
  2  1  1  6
  2  3  1  0
  4  2  1  0
  4  5  1  0
  5  6  1  1
  5  7  1  0
  7  8  2  0
  9  7  1  0
  9 10  1  0
 10 11  1  6
 12 11  1  0
 13 12  2  0
 14 10  1  0
 14 15  2  0
 16 12  1  0
 17 14  1  0
 18 17  1  0
 19 18  1  0
 20 19  1  0
 21 20  1  0
 21 17  1  0
 21 22  1  1
 23 22  1  0
 24 22  2  0
M  END
$$$$
