LDP.pdb
     RDKit          3D

 24 24  0  0  1  0  0  0  0  0999 V2000
    9.7381  -13.1198   19.5629 C   0  0  0  0  0  0  0  0  0  0  0  0
    8.4368  -13.3813   18.8330 C   0  0  2  0  0  0  0  0  0  0  0  0
    7.8567  -12.0584   18.4345 C   0  0  0  0  0  0  0  0  0  0  0  0
    7.5330  -14.1486   19.7656 C   0  0  0  0  0  0  0  0  0  0  0  0
    8.1476  -15.4368   20.2566 C   0  0  2  0  0  0  0  0  0  0  0  0
    7.6841  -16.4973   19.3720 N   0  0  0  0  0  0  0  0  0  0  0  0
    7.5739  -15.7045   21.6039 C   0  0  0  0  0  0  0  0  0  0  0  0
    6.3642  -16.0300   21.7692 O   0  0  0  0  0  0  0  0  0  0  0  0
    8.3548  -15.6109   22.7990 N   0  0  0  0  0  0  0  0  0  0  0  0
    7.7758  -15.8714   24.1260 C   0  0  1  0  0  0  0  0  0  0  0  0
    7.6729  -17.3645   24.2263 C   0  0  0  0  0  0  0  0  0  0  0  0
    7.0955  -17.6701   25.5750 C   0  0  0  0  0  0  0  0  0  0  0  0
    7.8664  -18.0080   26.5123 O   0  0  0  0  0  0  0  0  0  0  0  0
    8.4872  -15.2040   25.1976 C   0  0  0  0  0  0  0  0  0  0  0  0
    9.7628  -15.3411   25.1456 O   0  0  0  0  0  0  0  0  0  0  0  0
    5.7517  -17.6028   25.8550 O   0  0  0  0  0  0  0  0  0  0  0  0
    7.9476  -14.4448   26.2565 N   0  0  0  0  0  0  0  0  0  0  0  0
    6.6127  -14.1761   26.7210 C   0  0  0  0  0  0  0  0  0  0  0  0
    6.6280  -12.6627   26.7829 C   0  0  0  0  0  0  0  0  0  0  0  0
    7.9236  -12.4456   27.5487 C   0  0  0  0  0  0  0  0  0  0  0  0
    8.7283  -13.6880   27.2208 C   0  0  1  0  0  0  0  0  0  0  0  0
    9.0176  -14.4805   28.4408 C   0  0  0  0  0  0  0  0  0  0  0  0
    9.9140  -13.9333   29.3489 O   0  0  0  0  0  0  0  0  0  0  0  0
    8.5224  -15.5845   28.7051 O   0  0  0  0  0  0  0  0  0  0  0  0
  2  1  1  1
  2  3  1  0
  4  2  1  0
  4  5  1  0
  5  6  1  6
  5  7  1  0
  7  8  2  0
  9  7  1  0
  9 10  1  0
 10 11  1  1
 12 11  1  0
 13 12  2  0
 14 10  1  0
 14 15  2  0
 16 12  1  0
 17 14  1  0
 18 17  1  0
 19 18  1  0
 20 19  1  0
 21 20  1  0
 21 17  1  0
 21 22  1  1
 23 22  1  0
 24 22  2  0
M  END
$$$$
