LDP.pdb
     RDKit          3D

 24 24  0  0  1  0  0  0  0  0999 V2000
    7.6421  -12.1043   19.2854 C   0  0  0  0  0  0  0  0  0  0  0  0
    8.2734  -13.2109   20.1048 C   0  0  2  0  0  0  0  0  0  0  0  0
    9.7592  -13.0195   20.0727 C   0  0  0  0  0  0  0  0  0  0  0  0
    7.8495  -14.5275   19.5028 C   0  0  0  0  0  0  0  0  0  0  0  0
    8.3243  -15.7200   20.2969 C   0  0  2  0  0  0  0  0  0  0  0  0
    7.8264  -16.9107   19.6213 N   0  0  0  0  0  0  0  0  0  0  0  0
    7.6520  -15.6525   21.6234 C   0  0  0  0  0  0  0  0  0  0  0  0
    6.3989  -15.5391   21.7394 O   0  0  0  0  0  0  0  0  0  0  0  0
    8.3808  -15.7118   22.8531 N   0  0  0  0  0  0  0  0  0  0  0  0
    7.7005  -15.7425   24.1570 C   0  0  1  0  0  0  0  0  0  0  0  0
    7.5580  -17.1971   24.4944 C   0  0  0  0  0  0  0  0  0  0  0  0
    6.4265  -17.7258   23.6662 C   0  0  0  0  0  0  0  0  0  0  0  0
    6.6724  -18.5388   22.7357 O   0  0  0  0  0  0  0  0  0  0  0  0
    8.3459  -14.9129   25.1546 C   0  0  0  0  0  0  0  0  0  0  0  0
    9.6088  -14.7645   24.9763 O   0  0  0  0  0  0  0  0  0  0  0  0
    5.1139  -17.3704   23.8645 O   0  0  0  0  0  0  0  0  0  0  0  0
    7.7561  -14.2717   26.2636 N   0  0  0  0  0  0  0  0  0  0  0  0
    6.4114  -14.1658   26.7641 C   0  0  0  0  0  0  0  0  0  0  0  0
    6.2760  -12.6644   26.9118 C   0  0  0  0  0  0  0  0  0  0  0  0
    7.5597  -12.3593   27.6676 C   0  0  0  0  0  0  0  0  0  0  0  0
    8.4777  -13.4938   27.2566 C   0  0  1  0  0  0  0  0  0  0  0  0
    8.8717  -14.3187   28.4247 C   0  0  0  0  0  0  0  0  0  0  0  0
    9.7432  -13.7409   29.3380 O   0  0  0  0  0  0  0  0  0  0  0  0
    8.4834  -15.4746   28.6418 O   0  0  0  0  0  0  0  0  0  0  0  0
  2  1  1  6
  2  3  1  0
  4  2  1  0
  4  5  1  0
  5  6  1  6
  5  7  1  0
  7  8  2  0
  9  7  1  0
  9 10  1  0
 10 11  1  1
 12 11  1  0
 13 12  2  0
 14 10  1  0
 14 15  2  0
 16 12  1  0
 17 14  1  0
 18 17  1  0
 19 18  1  0
 20 19  1  0
 21 20  1  0
 21 17  1  0
 21 22  1  1
 23 22  1  0
 24 22  2  0
M  END
$$$$
