LDP.pdb
     RDKit          3D

 24 24  0  0  1  0  0  0  0  0999 V2000
    9.5971  -13.5105   18.8330 C   0  0  0  0  0  0  0  0  0  0  0  0
    8.0898  -13.3635   18.8619 C   0  0  2  0  0  0  0  0  0  0  0  0
    7.7575  -11.9426   18.5214 C   0  0  0  0  0  0  0  0  0  0  0  0
    7.6167  -13.7507   20.2410 C   0  0  0  0  0  0  0  0  0  0  0  0
    7.9503  -15.1780   20.6007 C   0  0  2  0  0  0  0  0  0  0  0  0
    7.1990  -16.0354   19.6938 N   0  0  0  0  0  0  0  0  0  0  0  0
    7.4201  -15.4145   21.9714 C   0  0  0  0  0  0  0  0  0  0  0  0
    6.2133  -15.1948   22.2749 O   0  0  0  0  0  0  0  0  0  0  0  0
    8.2420  -15.9062   23.0342 N   0  0  0  0  0  0  0  0  0  0  0  0
    7.7634  -15.9581   24.4242 C   0  0  1  0  0  0  0  0  0  0  0  0
    7.7512  -17.4143   24.7839 C   0  0  0  0  0  0  0  0  0  0  0  0
    6.6013  -18.0333   24.0488 C   0  0  0  0  0  0  0  0  0  0  0  0
    6.8308  -18.9085   23.1721 O   0  0  0  0  0  0  0  0  0  0  0  0
    8.5023  -15.0840   25.3129 C   0  0  0  0  0  0  0  0  0  0  0  0
    9.7597  -15.0205   25.0604 O   0  0  0  0  0  0  0  0  0  0  0  0
    5.2886  -17.6971   24.2777 O   0  0  0  0  0  0  0  0  0  0  0  0
    8.0060  -14.3204   26.3897 N   0  0  0  0  0  0  0  0  0  0  0  0
    6.6954  -14.0878   26.9358 C   0  0  0  0  0  0  0  0  0  0  0  0
    6.6601  -12.5738   26.9661 C   0  0  0  0  0  0  0  0  0  0  0  0
    7.9942  -12.2948   27.6402 C   0  0  0  0  0  0  0  0  0  0  0  0
    8.8201  -13.5156   27.2849 C   0  0  1  0  0  0  0  0  0  0  0  0
    9.2168  -14.2701   28.4989 C   0  0  0  0  0  0  0  0  0  0  0  0
    8.6923  -15.5472   28.6455 O   0  0  0  0  0  0  0  0  0  0  0  0
    9.9744  -13.8470   29.3826 O   0  0  0  0  0  0  0  0  0  0  0  0
  2  1  1  1
  2  3  1  0
  4  2  1  0
  4  5  1  0
  5  6  1  6
  5  7  1  0
  7  8  2  0
  9  7  1  0
  9 10  1  0
 10 11  1  1
 12 11  1  0
 13 12  2  0
 14 10  1  0
 14 15  2  0
 16 12  1  0
 17 14  1  0
 18 17  1  0
 19 18  1  0
 20 19  1  0
 21 20  1  0
 21 17  1  0
 21 22  1  1
 23 22  1  0
 24 22  2  0
M  END
$$$$
