LDP.pdb
     RDKit          3D

 24 24  0  0  1  0  0  0  0  0999 V2000
    9.6755  -13.4319   18.8297 C   0  0  0  0  0  0  0  0  0  0  0  0
    8.1685  -13.4006   18.6808 C   0  0  2  0  0  0  0  0  0  0  0  0
    7.7650  -11.9936   18.3598 C   0  0  0  0  0  0  0  0  0  0  0  0
    7.5684  -13.8903   19.9753 C   0  0  0  0  0  0  0  0  0  0  0  0
    7.9408  -15.3174   20.2961 C   0  0  2  0  0  0  0  0  0  0  0  0
    7.1954  -16.1710   19.3809 N   0  0  0  0  0  0  0  0  0  0  0  0
    7.4381  -15.5981   21.6688 C   0  0  0  0  0  0  0  0  0  0  0  0
    6.2096  -15.7585   21.9174 O   0  0  0  0  0  0  0  0  0  0  0  0
    8.3129  -15.7048   22.7959 N   0  0  0  0  0  0  0  0  0  0  0  0
    7.8026  -15.9550   24.1527 C   0  0  1  0  0  0  0  0  0  0  0  0
    7.7648  -17.4481   24.2916 C   0  0  0  0  0  0  0  0  0  0  0  0
    7.4145  -17.7424   25.7187 C   0  0  0  0  0  0  0  0  0  0  0  0
    6.2474  -17.5025   26.1280 O   0  0  0  0  0  0  0  0  0  0  0  0
    8.5319  -15.2338   25.1762 C   0  0  0  0  0  0  0  0  0  0  0  0
    9.8084  -15.2877   25.0474 O   0  0  0  0  0  0  0  0  0  0  0  0
    8.3060  -18.2672   26.6233 O   0  0  0  0  0  0  0  0  0  0  0  0
    8.0085  -14.5030   26.2629 N   0  0  0  0  0  0  0  0  0  0  0  0
    6.6826  -14.2695   26.7703 C   0  0  0  0  0  0  0  0  0  0  0  0
    6.6691  -12.7573   26.8569 C   0  0  0  0  0  0  0  0  0  0  0  0
    7.9820  -12.5256   27.5882 C   0  0  0  0  0  0  0  0  0  0  0  0
    8.8017  -13.7457   27.2165 C   0  0  1  0  0  0  0  0  0  0  0  0
    9.1427  -14.5515   28.4143 C   0  0  0  0  0  0  0  0  0  0  0  0
   10.0457  -13.9956   29.3105 O   0  0  0  0  0  0  0  0  0  0  0  0
    8.6848  -15.6735   28.6699 O   0  0  0  0  0  0  0  0  0  0  0  0
  2  1  1  1
  2  3  1  0
  4  2  1  0
  4  5  1  0
  5  6  1  6
  5  7  1  0
  7  8  2  0
  9  7  1  0
  9 10  1  0
 10 11  1  1
 12 11  1  0
 13 12  2  0
 14 10  1  0
 14 15  2  0
 16 12  1  0
 17 14  1  0
 18 17  1  0
 19 18  1  0
 20 19  1  0
 21 20  1  0
 21 17  1  0
 21 22  1  1
 23 22  1  0
 24 22  2  0
M  END
$$$$
