SGA.pdb
     RDKit          3D

 16 15  0  0  1  0  0  0  0  0999 V2000
    7.8488  -15.5608   13.1473 O   0  0  0  0  0  0  0  0  0  0  0  0
    7.7323  -15.6886   14.5307 C   0  0  0  0  0  0  0  0  0  0  0  0
    7.5720  -17.1306   14.9145 C   0  0  2  0  0  0  0  0  0  0  0  0
    6.3704  -17.7180   14.3552 N   0  0  0  0  0  0  0  0  0  0  0  0
    7.6048  -17.3930   16.3456 C   0  0  0  0  0  0  0  0  0  0  0  0
    6.5225  -17.7906   16.8979 O   0  0  0  0  0  0  0  0  0  0  0  0
    8.7324  -17.2486   17.1932 N   0  0  0  0  0  0  0  0  0  0  0  0
    8.7022  -17.5272   18.6125 C   0  0  0  0  0  0  0  0  0  0  0  0
    8.9591  -16.2488   19.3501 C   0  0  0  0  0  0  0  0  0  0  0  0
   10.0512  -16.0434   19.9577 O   0  0  0  0  0  0  0  0  0  0  0  0
    7.0120  -13.1065   19.9321 C   0  0  0  0  0  0  0  0  0  0  0  0
    8.2113  -14.0189   20.1881 C   0  0  2  0  0  0  0  0  0  0  0  0
    7.9994  -15.2086   19.4061 N   0  0  0  0  0  0  0  0  0  0  0  0
    8.2587  -14.3223   21.6493 C   0  0  0  0  0  0  0  0  0  0  0  0
    8.6779  -13.4636   22.4651 O   0  0  0  0  0  0  0  0  0  0  0  0
    7.8388  -15.5528   22.0985 O   0  0  0  0  0  0  0  0  0  0  0  0
  2  1  1  0
  3  2  1  0
  3  4  1  1
  5  3  1  0
  6  5  2  0
  7  5  1  0
  8  7  1  0
  9 13  1  0
  9  8  1  0
 10  9  2  0
 12 11  1  1
 12 13  1  0
 12 14  1  0
 14 16  1  0
 15 14  2  0
M  END
$$$$
