SGA.pdb
     RDKit          3D

 16 15  0  0  1  0  0  0  0  0999 V2000
    4.3247  -20.1398   21.4845 O   0  0  0  0  0  0  0  0  0  0  0  0
    4.3683  -18.9273   20.7978 C   0  0  0  0  0  0  0  0  0  0  0  0
    5.5757  -18.1346   21.2054 C   0  0  2  0  0  0  0  0  0  0  0  0
    6.8033  -18.8937   21.0689 N   0  0  0  0  0  0  0  0  0  0  0  0
    5.5159  -17.5688   22.5450 C   0  0  0  0  0  0  0  0  0  0  0  0
    4.5737  -16.7417   22.7951 O   0  0  0  0  0  0  0  0  0  0  0  0
    6.4109  -17.8498   23.6083 N   0  0  0  0  0  0  0  0  0  0  0  0
    6.2599  -17.3063   24.9406 C   0  0  0  0  0  0  0  0  0  0  0  0
    7.2461  -16.1914   25.1102 C   0  0  0  0  0  0  0  0  0  0  0  0
    8.3408  -16.1737   24.4733 O   0  0  0  0  0  0  0  0  0  0  0  0
    7.2072  -12.8580   26.7500 C   0  0  0  0  0  0  0  0  0  0  0  0
    7.9691  -14.0497   26.1705 C   0  0  2  0  0  0  0  0  0  0  0  0
    7.0074  -15.1048   25.9868 N   0  0  0  0  0  0  0  0  0  0  0  0
    9.0319  -14.4378   27.1447 C   0  0  0  0  0  0  0  0  0  0  0  0
   10.0110  -13.6792   27.3553 O   0  0  0  0  0  0  0  0  0  0  0  0
    8.9320  -15.6360   27.8131 O   0  0  0  0  0  0  0  0  0  0  0  0
  2  1  1  0
  3  2  1  0
  3  4  1  1
  5  3  1  0
  6  5  2  0
  7  5  1  0
  8  7  1  0
  9 13  1  0
  9  8  1  0
 10  9  2  0
 12 11  1  1
 12 13  1  0
 12 14  1  0
 14 16  1  0
 15 14  2  0
M  END
$$$$
