SGA.pdb
     RDKit          3D

 16 15  0  0  1  0  0  0  0  0999 V2000
   10.4114  -15.8611   14.2458 O   0  0  0  0  0  0  0  0  0  0  0  0
    9.9513  -15.0828   15.3070 C   0  0  0  0  0  0  0  0  0  0  0  0
    8.4511  -15.0435   15.3192 C   0  0  2  0  0  0  0  0  0  0  0  0
    7.9173  -14.1232   14.3343 N   0  0  0  0  0  0  0  0  0  0  0  0
    7.8545  -14.7492   16.6136 C   0  0  0  0  0  0  0  0  0  0  0  0
    7.5385  -13.5342   16.8556 O   0  0  0  0  0  0  0  0  0  0  0  0
    7.5878  -15.6896   17.6409 N   0  0  0  0  0  0  0  0  0  0  0  0
    6.8922  -15.3558   18.8647 C   0  0  0  0  0  0  0  0  0  0  0  0
    7.9118  -15.0574   19.9209 C   0  0  0  0  0  0  0  0  0  0  0  0
    9.1490  -15.2335   19.7149 O   0  0  0  0  0  0  0  0  0  0  0  0
    7.7887  -13.5824   23.3537 C   0  0  0  0  0  0  0  0  0  0  0  0
    8.5290  -14.2767   22.2108 C   0  0  2  0  0  0  0  0  0  0  0  0
    7.5476  -14.5653   21.1982 N   0  0  0  0  0  0  0  0  0  0  0  0
    9.1465  -15.5247   22.7498 C   0  0  0  0  0  0  0  0  0  0  0  0
   10.1866  -15.4690   23.4522 O   0  0  0  0  0  0  0  0  0  0  0  0
    8.5670  -16.7409   22.4713 O   0  0  0  0  0  0  0  0  0  0  0  0
  2  1  1  0
  3  2  1  0
  3  4  1  6
  5  3  1  0
  6  5  2  0
  7  5  1  0
  8  7  1  0
  9 13  1  0
  9  8  1  0
 10  9  2  0
 12 11  1  1
 12 13  1  0
 12 14  1  0
 14 16  1  0
 15 14  2  0
M  END
$$$$
