SGA.pdb
     RDKit          3D

 16 15  0  0  1  0  0  0  0  0999 V2000
    8.8737  -18.9353   21.5964 O   0  0  0  0  0  0  0  0  0  0  0  0
    8.9613  -17.5659   21.3497 C   0  0  0  0  0  0  0  0  0  0  0  0
    8.1543  -16.7974   22.3548 C   0  0  2  0  0  0  0  0  0  0  0  0
    6.7429  -17.1230   22.2914 N   0  0  0  0  0  0  0  0  0  0  0  0
    8.3094  -15.3516   22.2917 C   0  0  0  0  0  0  0  0  0  0  0  0
    9.4968  -14.8819   22.3541 O   0  0  0  0  0  0  0  0  0  0  0  0
    7.2601  -14.4062   22.1664 N   0  0  0  0  0  0  0  0  0  0  0  0
    7.4823  -12.9818   22.0444 C   0  0  0  0  0  0  0  0  0  0  0  0
    7.5214  -12.3906   23.4204 C   0  0  0  0  0  0  0  0  0  0  0  0
    7.8021  -11.1700   23.6085 O   0  0  0  0  0  0  0  0  0  0  0  0
    5.9527  -12.5799   26.4884 C   0  0  0  0  0  0  0  0  0  0  0  0
    7.3641  -12.6129   25.9023 C   0  0  2  0  0  0  0  0  0  0  0  0
    7.2480  -13.1616   24.5767 N   0  0  0  0  0  0  0  0  0  0  0  0
    8.2105  -13.4730   26.7815 C   0  0  0  0  0  0  0  0  0  0  0  0
    8.5775  -14.6113   26.3966 O   0  0  0  0  0  0  0  0  0  0  0  0
    8.5875  -13.0096   28.0206 O   0  0  0  0  0  0  0  0  0  0  0  0
  2  1  1  0
  3  2  1  0
  3  4  1  6
  5  3  1  0
  6  5  2  0
  7  5  1  0
  8  7  1  0
  9 13  1  0
  9  8  1  0
 10  9  2  0
 12 11  1  1
 12 13  1  0
 12 14  1  0
 14 16  1  0
 15 14  2  0
M  END
$$$$
