SGA.pdb
     RDKit          3D

 16 15  0  0  1  0  0  0  0  0999 V2000
   10.4584  -17.9390   19.0015 O   0  0  0  0  0  0  0  0  0  0  0  0
    9.7363  -17.2596   19.9817 C   0  0  0  0  0  0  0  0  0  0  0  0
   10.4623  -17.3021   21.2945 C   0  0  2  0  0  0  0  0  0  0  0  0
   10.5671  -18.6486   21.8214 N   0  0  0  0  0  0  0  0  0  0  0  0
    9.9183  -16.4315   22.3261 C   0  0  0  0  0  0  0  0  0  0  0  0
    9.9542  -15.1712   22.1144 O   0  0  0  0  0  0  0  0  0  0  0  0
    9.3474  -16.8514   23.5543 N   0  0  0  0  0  0  0  0  0  0  0  0
    8.6678  -15.9549   24.4639 C   0  0  0  0  0  0  0  0  0  0  0  0
    9.6129  -15.5996   25.5707 C   0  0  0  0  0  0  0  0  0  0  0  0
   10.8407  -15.9055   25.5161 O   0  0  0  0  0  0  0  0  0  0  0  0
    9.4247  -13.2422   28.4155 C   0  0  0  0  0  0  0  0  0  0  0  0
   10.1182  -14.4033   27.7031 C   0  0  2  0  0  0  0  0  0  0  0  0
    9.1851  -14.9068   26.7297 N   0  0  0  0  0  0  0  0  0  0  0  0
   10.4580  -15.4371   28.7254 C   0  0  0  0  0  0  0  0  0  0  0  0
    9.7954  -16.5020   28.7993 O   0  0  0  0  0  0  0  0  0  0  0  0
   11.5051  -15.2153   29.5895 O   0  0  0  0  0  0  0  0  0  0  0  0
  2  1  1  0
  3  2  1  0
  3  4  1  1
  5  3  1  0
  6  5  2  0
  7  5  1  0
  8  7  1  0
  9 13  1  0
  9  8  1  0
 10  9  2  0
 12 11  1  1
 12 13  1  0
 12 14  1  0
 14 16  1  0
 15 14  2  0
M  END
$$$$
