SGA.pdb
     RDKit          3D

 16 15  0  0  1  0  0  0  0  0999 V2000
    5.7416  -20.2985   23.3300 O   0  0  0  0  0  0  0  0  0  0  0  0
    6.8820  -19.5451   23.0553 C   0  0  0  0  0  0  0  0  0  0  0  0
    7.2665  -18.7184   24.2473 C   0  0  2  0  0  0  0  0  0  0  0  0
    6.1483  -17.9614   24.7751 N   0  0  0  0  0  0  0  0  0  0  0  0
    8.3891  -17.8170   24.0340 C   0  0  0  0  0  0  0  0  0  0  0  0
    9.5325  -18.3417   23.8062 O   0  0  0  0  0  0  0  0  0  0  0  0
    8.3352  -16.4003   24.0549 N   0  0  0  0  0  0  0  0  0  0  0  0
    9.4706  -15.5559   23.7531 C   0  0  0  0  0  0  0  0  0  0  0  0
   10.0965  -15.1271   25.0449 C   0  0  0  0  0  0  0  0  0  0  0  0
   11.3108  -14.7723   25.1061 O   0  0  0  0  0  0  0  0  0  0  0  0
    8.9503  -13.7955   28.2093 C   0  0  0  0  0  0  0  0  0  0  0  0
    9.9707  -14.6848   27.4990 C   0  0  2  0  0  0  0  0  0  0  0  0
    9.3671  -15.0963   26.2587 N   0  0  0  0  0  0  0  0  0  0  0  0
   10.2619  -15.8523   28.3828 C   0  0  0  0  0  0  0  0  0  0  0  0
   10.8166  -15.6848   29.4976 O   0  0  0  0  0  0  0  0  0  0  0  0
    9.9178  -17.1177   27.9673 O   0  0  0  0  0  0  0  0  0  0  0  0
  2  1  1  0
  3  2  1  0
  3  4  1  6
  5  3  1  0
  6  5  2  0
  7  5  1  0
  8  7  1  0
  9 13  1  0
  9  8  1  0
 10  9  2  0
 12 11  1  1
 12 13  1  0
 12 14  1  0
 14 16  1  0
 15 14  2  0
M  END
$$$$
