SGA.pdb
     RDKit          3D

 16 15  0  0  1  0  0  0  0  0999 V2000
    6.4829  -14.7687   18.2736 O   0  0  0  0  0  0  0  0  0  0  0  0
    6.3704  -13.6008   19.0266 C   0  0  0  0  0  0  0  0  0  0  0  0
    7.7261  -13.0172   19.2984 C   0  0  2  0  0  0  0  0  0  0  0  0
    8.4361  -12.6849   18.0789 N   0  0  0  0  0  0  0  0  0  0  0  0
    8.5886  -13.8326   20.1406 C   0  0  0  0  0  0  0  0  0  0  0  0
    9.6943  -14.2341   19.6398 O   0  0  0  0  0  0  0  0  0  0  0  0
    8.3173  -14.2276   21.4751 N   0  0  0  0  0  0  0  0  0  0  0  0
    9.2249  -15.0273   22.2687 C   0  0  0  0  0  0  0  0  0  0  0  0
    8.6277  -15.2073   23.6309 C   0  0  0  0  0  0  0  0  0  0  0  0
    7.5906  -14.5739   23.9877 O   0  0  0  0  0  0  0  0  0  0  0  0
    7.2167  -16.8706   25.6690 C   0  0  0  0  0  0  0  0  0  0  0  0
    8.6058  -16.2718   25.8892 C   0  0  2  0  0  0  0  0  0  0  0  0
    9.1886  -16.0904   24.5857 N   0  0  0  0  0  0  0  0  0  0  0  0
    9.3970  -17.2298   26.7171 C   0  0  0  0  0  0  0  0  0  0  0  0
    9.0668  -17.4685   27.9056 O   0  0  0  0  0  0  0  0  0  0  0  0
   10.4942  -17.8520   26.1682 O   0  0  0  0  0  0  0  0  0  0  0  0
  2  1  1  0
  3  2  1  0
  3  4  1  6
  5  3  1  0
  6  5  2  0
  7  5  1  0
  8  7  1  0
  9 13  1  0
  9  8  1  0
 10  9  2  0
 12 11  1  6
 12 13  1  0
 12 14  1  0
 14 16  1  0
 15 14  2  0
M  END
$$$$
