SGA.pdb
     RDKit          3D

 16 15  0  0  1  0  0  0  0  0999 V2000
    6.9603  -15.3148   17.9321 O   0  0  0  0  0  0  0  0  0  0  0  0
    6.9896  -14.0319   18.4769 C   0  0  0  0  0  0  0  0  0  0  0  0
    8.0856  -13.2194   17.8516 C   0  0  2  0  0  0  0  0  0  0  0  0
    7.8680  -13.0007   16.4350 N   0  0  0  0  0  0  0  0  0  0  0  0
    9.4286  -13.7445   18.0482 C   0  0  0  0  0  0  0  0  0  0  0  0
   10.1801  -13.8443   17.0187 O   0  0  0  0  0  0  0  0  0  0  0  0
    9.9880  -14.1595   19.2833 N   0  0  0  0  0  0  0  0  0  0  0  0
   11.4082  -14.3377   19.4941 C   0  0  0  0  0  0  0  0  0  0  0  0
   11.6255  -14.7552   20.9164 C   0  0  0  0  0  0  0  0  0  0  0  0
   12.7833  -15.0119   21.3612 O   0  0  0  0  0  0  0  0  0  0  0  0
    9.4398  -15.1506   23.9210 C   0  0  0  0  0  0  0  0  0  0  0  0
   10.7501  -15.3827   23.1689 C   0  0  2  0  0  0  0  0  0  0  0  0
   10.5535  -14.8839   21.8331 N   0  0  0  0  0  0  0  0  0  0  0  0
   11.0326  -16.8488   23.1725 C   0  0  0  0  0  0  0  0  0  0  0  0
   10.8773  -17.5301   22.1283 O   0  0  0  0  0  0  0  0  0  0  0  0
   11.4656  -17.4514   24.3308 O   0  0  0  0  0  0  0  0  0  0  0  0
  2  1  1  0
  3  2  1  0
  3  4  1  6
  5  3  1  0
  6  5  2  0
  7  5  1  0
  8  7  1  0
  9 13  1  0
  9  8  1  0
 10  9  2  0
 12 11  1  1
 12 13  1  0
 12 14  1  0
 14 16  1  0
 15 14  2  0
M  END
$$$$
