NPW.pdb
     RDKit          3D

 30 32  0  0  1  0  0  0  0  0999 V2000
    6.1205  -20.2451   19.0790 N   0  0  0  0  0  0  0  0  0  0  0  0
    7.5496  -20.1460   18.9645 C   0  0  0  0  0  0  0  0  0  0  0  0
    8.0862  -20.9316   18.1631 O   0  0  0  0  0  0  0  0  0  0  0  0
    8.3364  -19.1849   19.7353 C   0  0  0  0  0  0  0  0  0  0  0  0
    8.5270  -17.8775   19.0584 C   0  0  2  0  0  0  0  0  0  0  0  0
    9.3416  -18.0301   17.8397 N   0  0  0  0  0  0  0  0  0  0  0  0
    9.2128  -16.8534   19.9430 C   0  0  0  0  0  0  0  0  0  0  0  0
   10.3306  -17.1550   20.3776 O   0  0  0  0  0  0  0  0  0  0  0  0
    8.6183  -15.6078   20.2650 N   0  0  0  0  0  0  0  0  0  0  0  0
    7.6650  -14.9717   19.3240 C   0  0  0  0  0  0  0  0  0  0  0  0
    6.8029  -14.0613   20.2053 C   0  0  0  0  0  0  0  0  0  0  0  0
    7.2118  -14.4724   21.6348 C   0  0  0  0  0  0  0  0  0  0  0  0
    8.7003  -14.6871   21.3418 C   0  0  1  0  0  0  0  0  0  0  0  0
    9.4942  -14.9599   22.5060 C   0  0  0  0  0  0  0  0  0  0  0  0
   10.4260  -14.2365   22.8975 O   0  0  0  0  0  0  0  0  0  0  0  0
    9.2716  -16.1273   23.3440 N   0  0  0  0  0  0  0  0  0  0  0  0
   10.0131  -16.3551   24.5367 C   0  0  1  0  0  0  0  0  0  0  0  0
    9.8092  -15.2470   25.5325 C   0  0  0  0  0  0  0  0  0  0  0  0
    8.3998  -14.8906   25.7479 C   0  0  0  0  0  0  0  0  0  0  0  0
    7.3402  -15.7988   25.5938 C   0  0  0  0  0  0  0  0  0  0  0  0
    6.2180  -15.1361   25.8930 N   0  0  0  0  0  0  0  0  0  0  0  0
    6.5143  -13.8535   26.2275 C   0  0  0  0  0  0  0  0  0  0  0  0
    5.7278  -12.7898   26.5999 C   0  0  0  0  0  0  0  0  0  0  0  0
    6.2479  -11.5504   26.8929 C   0  0  0  0  0  0  0  0  0  0  0  0
    7.6270  -11.3872   26.8024 C   0  0  0  0  0  0  0  0  0  0  0  0
    8.4447  -12.4317   26.4315 C   0  0  0  0  0  0  0  0  0  0  0  0
    7.8961  -13.6682   26.1432 C   0  0  0  0  0  0  0  0  0  0  0  0
    9.7265  -17.6615   25.1660 C   0  0  0  0  0  0  0  0  0  0  0  0
   10.4931  -18.1118   26.2166 O   0  0  0  0  0  0  0  0  0  0  0  0
    8.7879  -18.3641   24.7437 O   0  0  0  0  0  0  0  0  0  0  0  0
  2  1  1  0
  3  2  2  0
  4  2  1  0
  4  5  1  0
  5  6  1  6
  7  5  1  0
  7  8  2  0
  9  7  1  0
 10  9  1  0
 11 12  1  0
 11 10  1  0
 12 13  1  0
 13  9  1  0
 13 14  1  1
 14 15  2  0
 16 14  1  0
 16 17  1  0
 17 28  1  0
 17 18  1  1
 19 18  1  0
 20 19  2  0
 21 22  1  0
 21 20  1  0
 22 27  2  0
 23 22  1  0
 23 24  2  0
 24 25  1  0
 25 26  2  0
 27 19  1  0
 27 26  1  0
 28 29  1  0
 30 28  2  0
M  END
$$$$
