NPW.pdb
     RDKit          3D

 30 32  0  0  1  0  0  0  0  0999 V2000
   13.3907  -17.8613   18.8510 N   0  0  0  0  0  0  0  0  0  0  0  0
   12.9003  -16.7227   18.1241 C   0  0  0  0  0  0  0  0  0  0  0  0
   13.6219  -15.7098   18.1497 O   0  0  0  0  0  0  0  0  0  0  0  0
   11.6338  -16.7404   17.3942 C   0  0  0  0  0  0  0  0  0  0  0  0
   10.5002  -17.3129   18.1631 C   0  0  2  0  0  0  0  0  0  0  0  0
    9.2399  -17.1948   17.4083 N   0  0  0  0  0  0  0  0  0  0  0  0
   10.2974  -16.6321   19.5036 C   0  0  0  0  0  0  0  0  0  0  0  0
   11.3009  -16.4923   20.2126 O   0  0  0  0  0  0  0  0  0  0  0  0
    9.0292  -16.1717   19.9378 N   0  0  0  0  0  0  0  0  0  0  0  0
    8.0956  -15.5404   18.9741 C   0  0  0  0  0  0  0  0  0  0  0  0
    6.7073  -15.7509   19.5881 C   0  0  0  0  0  0  0  0  0  0  0  0
    6.9859  -16.7229   20.7531 C   0  0  0  0  0  0  0  0  0  0  0  0
    8.3311  -16.1210   21.1723 C   0  0  1  0  0  0  0  0  0  0  0  0
    8.8799  -16.6886   22.3709 C   0  0  0  0  0  0  0  0  0  0  0  0
    9.6103  -17.6940   22.3931 O   0  0  0  0  0  0  0  0  0  0  0  0
    8.6248  -16.1247   23.6868 N   0  0  0  0  0  0  0  0  0  0  0  0
    9.2136  -16.6599   24.8663 C   0  0  1  0  0  0  0  0  0  0  0  0
    9.1659  -15.6750   26.0017 C   0  0  0  0  0  0  0  0  0  0  0  0
    7.8873  -14.9597   26.1174 C   0  0  0  0  0  0  0  0  0  0  0  0
    6.6592  -15.6024   26.3418 C   0  0  0  0  0  0  0  0  0  0  0  0
    5.7300  -14.6435   26.4137 N   0  0  0  0  0  0  0  0  0  0  0  0
    6.3084  -13.4263   26.2448 C   0  0  0  0  0  0  0  0  0  0  0  0
    5.7932  -12.1523   26.2269 C   0  0  0  0  0  0  0  0  0  0  0  0
    6.5765  -11.0390   26.0279 C   0  0  0  0  0  0  0  0  0  0  0  0
    7.9418  -11.2312   25.8387 C   0  0  0  0  0  0  0  0  0  0  0  0
    8.4912  -12.4942   25.8501 C   0  0  0  0  0  0  0  0  0  0  0  0
    7.6814  -13.5968   26.0533 C   0  0  0  0  0  0  0  0  0  0  0  0
    8.6212  -17.9472   25.2865 C   0  0  0  0  0  0  0  0  0  0  0  0
    9.2750  -18.7528   26.1907 O   0  0  0  0  0  0  0  0  0  0  0  0
    7.5247  -18.3106   24.8191 O   0  0  0  0  0  0  0  0  0  0  0  0
  2  1  1  0
  3  2  2  0
  4  2  1  0
  4  5  1  0
  5  6  1  6
  7  5  1  0
  7  8  2  0
  9  7  1  0
 10  9  1  0
 11 12  1  0
 11 10  1  0
 12 13  1  0
 13  9  1  0
 13 14  1  1
 14 15  2  0
 16 14  1  0
 16 17  1  0
 17 28  1  0
 17 18  1  1
 19 18  1  0
 20 19  2  0
 21 22  1  0
 21 20  1  0
 22 27  2  0
 23 22  1  0
 23 24  2  0
 24 25  1  0
 25 26  2  0
 27 19  1  0
 27 26  1  0
 28 29  1  0
 30 28  2  0
M  END
$$$$
