NPW.pdb
     RDKit          3D

 30 32  0  0  1  0  0  0  0  0999 V2000
    6.3870  -20.4946   19.6412 N   0  0  0  0  0  0  0  0  0  0  0  0
    7.6706  -20.1501   19.0944 C   0  0  0  0  0  0  0  0  0  0  0  0
    7.9311  -20.6289   17.9763 O   0  0  0  0  0  0  0  0  0  0  0  0
    8.6209  -19.2901   19.7976 C   0  0  0  0  0  0  0  0  0  0  0  0
    8.9239  -18.0195   19.0923 C   0  0  2  0  0  0  0  0  0  0  0  0
    9.9747  -18.2185   18.0783 N   0  0  0  0  0  0  0  0  0  0  0  0
    9.3946  -16.9250   20.0316 C   0  0  0  0  0  0  0  0  0  0  0  0
   10.5699  -16.9869   20.4112 O   0  0  0  0  0  0  0  0  0  0  0  0
    8.5447  -15.8758   20.4623 N   0  0  0  0  0  0  0  0  0  0  0  0
    7.4742  -15.3700   19.5695 C   0  0  0  0  0  0  0  0  0  0  0  0
    6.4370  -14.7599   20.5186 C   0  0  0  0  0  0  0  0  0  0  0  0
    6.9283  -15.2136   21.9087 C   0  0  0  0  0  0  0  0  0  0  0  0
    8.4273  -15.0713   21.6254 C   0  0  1  0  0  0  0  0  0  0  0  0
    9.2638  -15.2809   22.7727 C   0  0  0  0  0  0  0  0  0  0  0  0
   10.2553  -14.5834   23.0473 O   0  0  0  0  0  0  0  0  0  0  0  0
    9.0180  -16.3466   23.7310 N   0  0  0  0  0  0  0  0  0  0  0  0
    9.7650  -16.4679   24.9358 C   0  0  1  0  0  0  0  0  0  0  0  0
    9.5765  -15.2693   25.8242 C   0  0  0  0  0  0  0  0  0  0  0  0
    8.1740  -14.8604   25.9845 C   0  0  0  0  0  0  0  0  0  0  0  0
    7.0880  -15.7278   25.7852 C   0  0  0  0  0  0  0  0  0  0  0  0
    5.9805  -15.0238   26.0416 N   0  0  0  0  0  0  0  0  0  0  0  0
    6.3112  -13.7539   26.3920 C   0  0  0  0  0  0  0  0  0  0  0  0
    5.5510  -12.6620   26.7364 C   0  0  0  0  0  0  0  0  0  0  0  0
    6.1052  -11.4436   27.0541 C   0  0  0  0  0  0  0  0  0  0  0  0
    7.4920  -11.3324   27.0192 C   0  0  0  0  0  0  0  0  0  0  0  0
    8.2840  -12.4064   26.6776 C   0  0  0  0  0  0  0  0  0  0  0  0
    7.7013  -13.6207   26.3635 C   0  0  0  0  0  0  0  0  0  0  0  0
    9.4715  -17.7068   25.6867 C   0  0  0  0  0  0  0  0  0  0  0  0
    8.5057  -18.5797   25.2402 O   0  0  0  0  0  0  0  0  0  0  0  0
   10.0979  -17.9648   26.7325 O   0  0  0  0  0  0  0  0  0  0  0  0
  2  1  1  0
  3  2  2  0
  4  2  1  0
  4  5  1  0
  5  6  1  6
  7  5  1  0
  7  8  2  0
  9  7  1  0
 10  9  1  0
 11 12  1  0
 11 10  1  0
 12 13  1  0
 13  9  1  0
 13 14  1  1
 14 15  2  0
 16 14  1  0
 16 17  1  0
 17 28  1  0
 17 18  1  1
 19 18  1  0
 20 19  2  0
 21 22  1  0
 21 20  1  0
 22 27  2  0
 23 22  1  0
 23 24  2  0
 24 25  1  0
 25 26  2  0
 27 19  1  0
 27 26  1  0
 28 29  1  0
 30 28  2  0
M  END
$$$$
