NPW.pdb
     RDKit          3D

 30 32  0  0  1  0  0  0  0  0999 V2000
   13.3226  -18.8854   16.7475 N   0  0  0  0  0  0  0  0  0  0  0  0
   12.0312  -18.7769   17.3687 C   0  0  0  0  0  0  0  0  0  0  0  0
   11.1020  -19.3760   16.7986 O   0  0  0  0  0  0  0  0  0  0  0  0
   11.8095  -18.0139   18.5958 C   0  0  0  0  0  0  0  0  0  0  0  0
   10.9353  -16.8269   18.4207 C   0  0  2  0  0  0  0  0  0  0  0  0
   11.5535  -15.8486   17.5082 N   0  0  0  0  0  0  0  0  0  0  0  0
   10.6448  -16.1144   19.7282 C   0  0  0  0  0  0  0  0  0  0  0  0
   11.6200  -15.8257   20.4317 O   0  0  0  0  0  0  0  0  0  0  0  0
    9.3285  -15.7869   20.1389 N   0  0  0  0  0  0  0  0  0  0  0  0
    8.3461  -15.2747   19.1532 C   0  0  0  0  0  0  0  0  0  0  0  0
    6.9799  -15.6242   19.7533 C   0  0  0  0  0  0  0  0  0  0  0  0
    7.3449  -16.5426   20.9378 C   0  0  0  0  0  0  0  0  0  0  0  0
    8.6115  -15.7928   21.3635 C   0  0  1  0  0  0  0  0  0  0  0  0
    9.2012  -16.2794   22.5782 C   0  0  0  0  0  0  0  0  0  0  0  0
    9.8012  -17.3637   22.6743 O   0  0  0  0  0  0  0  0  0  0  0  0
    9.1474  -15.5312   23.8239 N   0  0  0  0  0  0  0  0  0  0  0  0
    9.7676  -15.9999   25.0155 C   0  0  1  0  0  0  0  0  0  0  0  0
    9.6455  -14.9988   26.1309 C   0  0  0  0  0  0  0  0  0  0  0  0
    8.2809  -14.4908   26.3297 C   0  0  0  0  0  0  0  0  0  0  0  0
    7.1472  -15.3177   26.3771 C   0  0  0  0  0  0  0  0  0  0  0  0
    6.0966  -14.5192   26.5936 N   0  0  0  0  0  0  0  0  0  0  0  0
    6.5087  -13.2282   26.6844 C   0  0  0  0  0  0  0  0  0  0  0  0
    5.8274  -12.0524   26.8898 C   0  0  0  0  0  0  0  0  0  0  0  0
    6.4569  -10.8302   26.9394 C   0  0  0  0  0  0  0  0  0  0  0  0
    7.8382  -10.8042   26.7723 C   0  0  0  0  0  0  0  0  0  0  0  0
    8.5521  -11.9636   26.5639 C   0  0  0  0  0  0  0  0  0  0  0  0
    7.8948  -13.1796   26.5194 C   0  0  0  0  0  0  0  0  0  0  0  0
    9.2659  -17.3175   25.4596 C   0  0  0  0  0  0  0  0  0  0  0  0
    8.1600  -17.8790   24.8630 O   0  0  0  0  0  0  0  0  0  0  0  0
    9.8431  -17.9256   26.3815 O   0  0  0  0  0  0  0  0  0  0  0  0
  2  1  1  0
  3  2  2  0
  4  2  1  0
  4  5  1  0
  5  6  1  6
  7  5  1  0
  7  8  2  0
  9  7  1  0
 10  9  1  0
 11 12  1  0
 11 10  1  0
 12 13  1  0
 13  9  1  0
 13 14  1  1
 14 15  2  0
 16 14  1  0
 16 17  1  0
 17 28  1  0
 17 18  1  1
 19 18  1  0
 20 19  2  0
 21 22  1  0
 21 20  1  0
 22 27  2  0
 23 22  1  0
 23 24  2  0
 24 25  1  0
 25 26  2  0
 27 19  1  0
 27 26  1  0
 28 29  1  0
 30 28  2  0
M  END
$$$$
