NPW.pdb
     RDKit          3D

 30 32  0  0  1  0  0  0  0  0999 V2000
   12.8893  -18.4039   17.0850 N   0  0  0  0  0  0  0  0  0  0  0  0
   11.5692  -18.5496   17.6339 C   0  0  0  0  0  0  0  0  0  0  0  0
   11.1455  -19.7154   17.7279 O   0  0  0  0  0  0  0  0  0  0  0  0
   10.7634  -17.4069   18.0606 C   0  0  0  0  0  0  0  0  0  0  0  0
    9.9239  -17.6712   19.2560 C   0  0  2  0  0  0  0  0  0  0  0  0
    8.5031  -17.7941   18.8842 N   0  0  0  0  0  0  0  0  0  0  0  0
   10.0311  -16.5771   20.3016 C   0  0  0  0  0  0  0  0  0  0  0  0
   11.1443  -16.4038   20.8116 O   0  0  0  0  0  0  0  0  0  0  0  0
    8.9224  -15.7826   20.6865 N   0  0  0  0  0  0  0  0  0  0  0  0
    8.1145  -15.0827   19.6586 C   0  0  0  0  0  0  0  0  0  0  0  0
    6.7441  -14.8836   20.3151 C   0  0  0  0  0  0  0  0  0  0  0  0
    6.8464  -15.7337   21.5983 C   0  0  0  0  0  0  0  0  0  0  0  0
    8.3110  -15.4110   21.9120 C   0  0  1  0  0  0  0  0  0  0  0  0
    8.7698  -15.9296   23.1692 C   0  0  0  0  0  0  0  0  0  0  0  0
    8.1958  -16.8339   23.7997 O   0  0  0  0  0  0  0  0  0  0  0  0
    9.9689  -15.4330   23.8251 N   0  0  0  0  0  0  0  0  0  0  0  0
   10.3298  -15.8295   25.1430 C   0  0  1  0  0  0  0  0  0  0  0  0
    9.8557  -14.8355   26.1669 C   0  0  0  0  0  0  0  0  0  0  0  0
    8.4000  -14.6341   26.1732 C   0  0  0  0  0  0  0  0  0  0  0  0
    7.4747  -15.6728   25.9829 C   0  0  0  0  0  0  0  0  0  0  0  0
    6.2577  -15.1267   26.0762 N   0  0  0  0  0  0  0  0  0  0  0  0
    6.3666  -13.7941   26.3148 C   0  0  0  0  0  0  0  0  0  0  0  0
    5.4272  -12.8048   26.4812 C   0  0  0  0  0  0  0  0  0  0  0  0
    5.7667  -11.4915   26.7103 C   0  0  0  0  0  0  0  0  0  0  0  0
    7.1198  -11.1721   26.7720 C   0  0  0  0  0  0  0  0  0  0  0  0
    8.0876  -12.1386   26.6088 C   0  0  0  0  0  0  0  0  0  0  0  0
    7.7191  -13.4519   26.3807 C   0  0  0  0  0  0  0  0  0  0  0  0
    9.8608  -17.1857   25.4975 C   0  0  0  0  0  0  0  0  0  0  0  0
    9.3330  -18.0144   24.5337 O   0  0  0  0  0  0  0  0  0  0  0  0
    9.9391  -17.5839   26.6756 O   0  0  0  0  0  0  0  0  0  0  0  0
  2  1  1  0
  3  2  2  0
  4  2  1  0
  4  5  1  0
  5  6  1  6
  7  5  1  0
  7  8  2  0
  9  7  1  0
 10  9  1  0
 11 12  1  0
 11 10  1  0
 12 13  1  0
 13  9  1  0
 13 14  1  1
 14 15  2  0
 16 14  1  0
 16 17  1  0
 17 28  1  0
 17 18  1  1
 19 18  1  0
 20 19  2  0
 21 22  1  0
 21 20  1  0
 22 27  2  0
 23 22  1  0
 23 24  2  0
 24 25  1  0
 25 26  2  0
 27 19  1  0
 27 26  1  0
 28 29  1  0
 30 28  2  0
M  END
$$$$
