NPW.pdb
     RDKit          3D

 30 32  0  0  1  0  0  0  0  0999 V2000
   11.8607  -20.2042   19.3141 N   0  0  0  0  0  0  0  0  0  0  0  0
   11.7761  -18.9056   18.7044 C   0  0  0  0  0  0  0  0  0  0  0  0
   12.7735  -18.1749   18.8416 O   0  0  0  0  0  0  0  0  0  0  0  0
   10.5972  -18.4584   17.9645 C   0  0  0  0  0  0  0  0  0  0  0  0
    9.3791  -18.3094   18.7999 C   0  0  2  0  0  0  0  0  0  0  0  0
    8.2642  -17.7566   18.0103 N   0  0  0  0  0  0  0  0  0  0  0  0
    9.5936  -17.3960   19.9921 C   0  0  0  0  0  0  0  0  0  0  0  0
   10.5451  -17.6662   20.7343 O   0  0  0  0  0  0  0  0  0  0  0  0
    8.7564  -16.2836   20.2575 N   0  0  0  0  0  0  0  0  0  0  0  0
    7.7063  -15.8928   19.2860 C   0  0  0  0  0  0  0  0  0  0  0  0
    6.6676  -15.1390   20.1236 C   0  0  0  0  0  0  0  0  0  0  0  0
    7.1330  -15.3991   21.5712 C   0  0  0  0  0  0  0  0  0  0  0  0
    8.6378  -15.3211   21.2935 C   0  0  1  0  0  0  0  0  0  0  0  0
    9.4557  -15.3792   22.4715 C   0  0  0  0  0  0  0  0  0  0  0  0
   10.4334  -14.6396   22.6765 O   0  0  0  0  0  0  0  0  0  0  0  0
    9.2055  -16.3253   23.5470 N   0  0  0  0  0  0  0  0  0  0  0  0
    9.9532  -16.3102   24.7574 C   0  0  1  0  0  0  0  0  0  0  0  0
    9.7914  -15.0063   25.4888 C   0  0  0  0  0  0  0  0  0  0  0  0
    8.3933  -14.6463   25.7639 C   0  0  0  0  0  0  0  0  0  0  0  0
    7.3283  -15.5569   25.6741 C   0  0  0  0  0  0  0  0  0  0  0  0
    6.2208  -14.8893   26.0145 N   0  0  0  0  0  0  0  0  0  0  0  0
    6.5315  -13.6014   26.3140 C   0  0  0  0  0  0  0  0  0  0  0  0
    5.7625  -12.5318   26.7055 C   0  0  0  0  0  0  0  0  0  0  0  0
    6.2949  -11.2879   26.9539 C   0  0  0  0  0  0  0  0  0  0  0  0
    7.6682  -11.1263   26.7965 C   0  0  0  0  0  0  0  0  0  0  0  0
    8.4684  -12.1768   26.4048 C   0  0  0  0  0  0  0  0  0  0  0  0
    7.9078  -13.4177   26.1624 C   0  0  0  0  0  0  0  0  0  0  0  0
    9.6369  -17.4392   25.6574 C   0  0  0  0  0  0  0  0  0  0  0  0
   10.3817  -17.6531   26.7948 O   0  0  0  0  0  0  0  0  0  0  0  0
    8.6929  -18.2063   25.3867 O   0  0  0  0  0  0  0  0  0  0  0  0
  2  1  1  0
  3  2  2  0
  4  2  1  0
  4  5  1  0
  5  6  1  6
  7  5  1  0
  7  8  2  0
  9  7  1  0
 10  9  1  0
 11 12  1  0
 11 10  1  0
 12 13  1  0
 13  9  1  0
 13 14  1  1
 14 15  2  0
 16 14  1  0
 16 17  1  0
 17 28  1  0
 17 18  1  1
 19 18  1  0
 20 19  2  0
 21 22  1  0
 21 20  1  0
 22 27  2  0
 23 22  1  0
 23 24  2  0
 24 25  1  0
 25 26  2  0
 27 19  1  0
 27 26  1  0
 28 29  1  0
 30 28  2  0
M  END
$$$$
