NPW.pdb
     RDKit          3D

 30 32  0  0  1  0  0  0  0  0999 V2000
   11.3292  -17.7834   15.1770 N   0  0  0  0  0  0  0  0  0  0  0  0
   11.2027  -18.2569   16.5279 C   0  0  0  0  0  0  0  0  0  0  0  0
   11.2081  -19.4923   16.6734 O   0  0  0  0  0  0  0  0  0  0  0  0
   11.0761  -17.3535   17.6702 C   0  0  0  0  0  0  0  0  0  0  0  0
    9.8578  -17.5789   18.4879 C   0  0  2  0  0  0  0  0  0  0  0  0
    8.6474  -17.1741   17.7508 N   0  0  0  0  0  0  0  0  0  0  0  0
    9.8776  -16.8088   19.7948 C   0  0  0  0  0  0  0  0  0  0  0  0
   10.8170  -17.0445   20.5638 O   0  0  0  0  0  0  0  0  0  0  0  0
    8.8791  -15.8619   20.1342 N   0  0  0  0  0  0  0  0  0  0  0  0
    7.8528  -15.4717   19.1374 C   0  0  0  0  0  0  0  0  0  0  0  0
    6.6661  -14.9851   19.9763 C   0  0  0  0  0  0  0  0  0  0  0  0
    7.0646  -15.3902   21.4105 C   0  0  0  0  0  0  0  0  0  0  0  0
    8.5595  -15.0822   21.2759 C   0  0  1  0  0  0  0  0  0  0  0  0
    9.2966  -15.2053   22.5013 C   0  0  0  0  0  0  0  0  0  0  0  0
   10.2832  -14.5076   22.7926 O   0  0  0  0  0  0  0  0  0  0  0  0
    8.9452  -16.1743   23.5271 N   0  0  0  0  0  0  0  0  0  0  0  0
    9.7218  -16.3419   24.7074 C   0  0  1  0  0  0  0  0  0  0  0  0
    9.6195  -15.1430   25.6092 C   0  0  0  0  0  0  0  0  0  0  0  0
    8.2482  -14.8349   26.0387 C   0  0  0  0  0  0  0  0  0  0  0  0
    7.2182  -15.7882   26.0797 C   0  0  0  0  0  0  0  0  0  0  0  0
    6.1301  -15.1604   26.5379 N   0  0  0  0  0  0  0  0  0  0  0  0
    6.4198  -13.8571   26.7880 C   0  0  0  0  0  0  0  0  0  0  0  0
    5.6570  -12.8135   27.2546 C   0  0  0  0  0  0  0  0  0  0  0  0
    6.1627  -11.5460   27.4288 C   0  0  0  0  0  0  0  0  0  0  0  0
    7.5014  -11.3323   27.1142 C   0  0  0  0  0  0  0  0  0  0  0  0
    8.2943  -12.3556   26.6436 C   0  0  0  0  0  0  0  0  0  0  0  0
    7.7612  -13.6210   26.4785 C   0  0  0  0  0  0  0  0  0  0  0  0
    9.3909  -17.5712   25.4586 C   0  0  0  0  0  0  0  0  0  0  0  0
   10.1377  -17.9405   26.5540 O   0  0  0  0  0  0  0  0  0  0  0  0
    8.4325  -18.2820   25.0993 O   0  0  0  0  0  0  0  0  0  0  0  0
  2  1  1  0
  3  2  2  0
  4  2  1  0
  4  5  1  0
  5  6  1  6
  7  5  1  0
  7  8  2  0
  9  7  1  0
 10  9  1  0
 11 12  1  0
 11 10  1  0
 12 13  1  0
 13  9  1  0
 13 14  1  1
 14 15  2  0
 16 14  1  0
 16 17  1  0
 17 28  1  0
 17 18  1  1
 19 18  1  0
 20 19  2  0
 21 22  1  0
 21 20  1  0
 22 27  2  0
 23 22  1  0
 23 24  2  0
 24 25  1  0
 25 26  2  0
 27 19  1  0
 27 26  1  0
 28 29  1  0
 30 28  2  0
M  END
$$$$
