NPW.pdb
     RDKit          3D

 30 32  0  0  1  0  0  0  0  0999 V2000
   10.2961  -20.4344   17.2511 N   0  0  0  0  0  0  0  0  0  0  0  0
   10.9898  -19.1833   17.1141 C   0  0  0  0  0  0  0  0  0  0  0  0
   11.8969  -19.1554   16.2634 O   0  0  0  0  0  0  0  0  0  0  0  0
   10.6593  -18.0077   17.9178 C   0  0  0  0  0  0  0  0  0  0  0  0
    9.6084  -18.2482   18.9383 C   0  0  2  0  0  0  0  0  0  0  0  0
    8.2637  -18.0964   18.3544 N   0  0  0  0  0  0  0  0  0  0  0  0
    9.7065  -17.2975   20.1166 C   0  0  0  0  0  0  0  0  0  0  0  0
   10.6841  -17.4355   20.8612 O   0  0  0  0  0  0  0  0  0  0  0  0
    8.7367  -16.2947   20.3667 N   0  0  0  0  0  0  0  0  0  0  0  0
    7.6591  -16.0379   19.3808 C   0  0  0  0  0  0  0  0  0  0  0  0
    6.5258  -15.4138   20.2023 C   0  0  0  0  0  0  0  0  0  0  0  0
    7.0012  -15.6108   21.6566 C   0  0  0  0  0  0  0  0  0  0  0  0
    8.4887  -15.3507   21.3968 C   0  0  1  0  0  0  0  0  0  0  0  0
    9.2927  -15.3050   22.5848 C   0  0  0  0  0  0  0  0  0  0  0  0
   10.1799  -14.4595   22.7922 O   0  0  0  0  0  0  0  0  0  0  0  0
    9.1347  -16.2612   23.6689 N   0  0  0  0  0  0  0  0  0  0  0  0
    9.9565  -16.2314   24.8300 C   0  0  1  0  0  0  0  0  0  0  0  0
    9.7613  -14.9612   25.6108 C   0  0  0  0  0  0  0  0  0  0  0  0
    8.3521  -14.6103   25.8364 C   0  0  0  0  0  0  0  0  0  0  0  0
    7.3013  -15.5377   25.7524 C   0  0  0  0  0  0  0  0  0  0  0  0
    6.1770  -14.8731   26.0394 N   0  0  0  0  0  0  0  0  0  0  0  0
    6.4637  -13.5712   26.2997 C   0  0  0  0  0  0  0  0  0  0  0  0
    5.6713  -12.4986   26.6318 C   0  0  0  0  0  0  0  0  0  0  0  0
    6.1814  -11.2394   26.8483 C   0  0  0  0  0  0  0  0  0  0  0  0
    7.5562  -11.0652   26.7207 C   0  0  0  0  0  0  0  0  0  0  0  0
    8.3795  -12.1184   26.3884 C   0  0  0  0  0  0  0  0  0  0  0  0
    7.8411  -13.3746   26.1771 C   0  0  0  0  0  0  0  0  0  0  0  0
    9.7698  -17.4027   25.7120 C   0  0  0  0  0  0  0  0  0  0  0  0
    8.8601  -18.3825   25.3857 O   0  0  0  0  0  0  0  0  0  0  0  0
   10.4360  -17.5060   26.7600 O   0  0  0  0  0  0  0  0  0  0  0  0
  2  1  1  0
  3  2  2  0
  4  2  1  0
  4  5  1  0
  5  6  1  6
  7  5  1  0
  7  8  2  0
  9  7  1  0
 10  9  1  0
 11 12  1  0
 11 10  1  0
 12 13  1  0
 13  9  1  0
 13 14  1  1
 14 15  2  0
 16 14  1  0
 16 17  1  0
 17 28  1  0
 17 18  1  1
 19 18  1  0
 20 19  2  0
 21 22  1  0
 21 20  1  0
 22 27  2  0
 23 22  1  0
 23 24  2  0
 24 25  1  0
 25 26  2  0
 27 19  1  0
 27 26  1  0
 28 29  1  0
 30 28  2  0
M  END
$$$$
