NPW.pdb
     RDKit          3D

 30 32  0  0  1  0  0  0  0  0999 V2000
    6.7052  -20.8349   18.6693 N   0  0  0  0  0  0  0  0  0  0  0  0
    7.0312  -20.9947   20.0597 C   0  0  0  0  0  0  0  0  0  0  0  0
    6.8308  -22.1252   20.5384 O   0  0  0  0  0  0  0  0  0  0  0  0
    7.5672  -19.9046   20.8731 C   0  0  0  0  0  0  0  0  0  0  0  0
    7.5923  -18.5905   20.1830 C   0  0  2  0  0  0  0  0  0  0  0  0
    8.1347  -18.7229   18.8190 N   0  0  0  0  0  0  0  0  0  0  0  0
    8.4338  -17.5606   20.9130 C   0  0  0  0  0  0  0  0  0  0  0  0
    9.4434  -17.9783   21.4922 O   0  0  0  0  0  0  0  0  0  0  0  0
    8.0962  -16.1843   20.9398 N   0  0  0  0  0  0  0  0  0  0  0  0
    7.2069  -15.6149   19.8987 C   0  0  0  0  0  0  0  0  0  0  0  0
    6.5870  -14.3771   20.5563 C   0  0  0  0  0  0  0  0  0  0  0  0
    7.0173  -14.5145   22.0313 C   0  0  0  0  0  0  0  0  0  0  0  0
    8.4185  -15.0714   21.7591 C   0  0  1  0  0  0  0  0  0  0  0  0
    9.2324  -15.2120   22.9329 C   0  0  0  0  0  0  0  0  0  0  0  0
   10.1435  -14.4266   23.2457 O   0  0  0  0  0  0  0  0  0  0  0  0
    9.0568  -16.3053   23.8755 N   0  0  0  0  0  0  0  0  0  0  0  0
    9.9023  -16.4714   25.0076 C   0  0  1  0  0  0  0  0  0  0  0  0
    9.7494  -15.3355   25.9811 C   0  0  0  0  0  0  0  0  0  0  0  0
    8.3618  -14.8853   26.1591 C   0  0  0  0  0  0  0  0  0  0  0  0
    7.2533  -15.7425   26.0707 C   0  0  0  0  0  0  0  0  0  0  0  0
    6.1695  -14.9967   26.3098 N   0  0  0  0  0  0  0  0  0  0  0  0
    6.5366  -13.7102   26.5440 C   0  0  0  0  0  0  0  0  0  0  0  0
    5.8102  -12.5783   26.8266 C   0  0  0  0  0  0  0  0  0  0  0  0
    6.3984  -11.3505   27.0242 C   0  0  0  0  0  0  0  0  0  0  0  0
    7.7846  -11.2719   26.9295 C   0  0  0  0  0  0  0  0  0  0  0  0
    8.5431  -12.3865   26.6470 C   0  0  0  0  0  0  0  0  0  0  0  0
    7.9267  -13.6093   26.4537 C   0  0  0  0  0  0  0  0  0  0  0  0
    9.7090  -17.7626   25.7006 C   0  0  0  0  0  0  0  0  0  0  0  0
   10.6167  -18.1904   26.6427 O   0  0  0  0  0  0  0  0  0  0  0  0
    8.7212  -18.4728   25.4311 O   0  0  0  0  0  0  0  0  0  0  0  0
  2  1  1  0
  3  2  2  0
  4  2  1  0
  4  5  1  0
  5  6  1  6
  7  5  1  0
  7  8  2  0
  9  7  1  0
 10  9  1  0
 11 12  1  0
 11 10  1  0
 12 13  1  0
 13  9  1  0
 13 14  1  1
 14 15  2  0
 16 14  1  0
 16 17  1  0
 17 28  1  0
 17 18  1  1
 19 18  1  0
 20 19  2  0
 21 22  1  0
 21 20  1  0
 22 27  2  0
 23 22  1  0
 23 24  2  0
 24 25  1  0
 25 26  2  0
 27 19  1  0
 27 26  1  0
 28 29  1  0
 30 28  2  0
M  END
$$$$
