NPW.pdb
     RDKit          3D

 30 32  0  0  1  0  0  0  0  0999 V2000
    9.3146  -13.8590   15.9472 N   0  0  0  0  0  0  0  0  0  0  0  0
   10.2842  -14.2271   16.9420 C   0  0  0  0  0  0  0  0  0  0  0  0
   11.4649  -14.2848   16.5548 O   0  0  0  0  0  0  0  0  0  0  0  0
    9.9194  -14.5174   18.3276 C   0  0  0  0  0  0  0  0  0  0  0  0
    8.4692  -14.3788   18.6133 C   0  0  2  0  0  0  0  0  0  0  0  0
    8.0151  -12.9978   18.3712 N   0  0  0  0  0  0  0  0  0  0  0  0
    8.1172  -14.7326   20.0460 C   0  0  0  0  0  0  0  0  0  0  0  0
    8.2669  -13.8418   20.8906 O   0  0  0  0  0  0  0  0  0  0  0  0
    7.6383  -16.0141   20.4165 N   0  0  0  0  0  0  0  0  0  0  0  0
    6.6049  -16.6895   19.5950 C   0  0  0  0  0  0  0  0  0  0  0  0
    6.7940  -18.1818   19.8882 C   0  0  0  0  0  0  0  0  0  0  0  0
    8.1149  -18.2151   20.6843 C   0  0  0  0  0  0  0  0  0  0  0  0
    7.8801  -16.9252   21.4772 C   0  0  1  0  0  0  0  0  0  0  0  0
    8.8720  -16.6648   22.4813 C   0  0  0  0  0  0  0  0  0  0  0  0
    9.9467  -16.0799   22.2621 O   0  0  0  0  0  0  0  0  0  0  0  0
    8.7013  -17.0693   23.8676 N   0  0  0  0  0  0  0  0  0  0  0  0
    9.6000  -16.6594   24.8916 C   0  0  1  0  0  0  0  0  0  0  0  0
    9.4993  -15.1822   25.1543 C   0  0  0  0  0  0  0  0  0  0  0  0
    8.1770  -14.7494   25.6277 C   0  0  0  0  0  0  0  0  0  0  0  0
    7.0748  -15.6121   25.7384 C   0  0  0  0  0  0  0  0  0  0  0  0
    6.0620  -14.8835   26.2195 N   0  0  0  0  0  0  0  0  0  0  0  0
    6.4678  -13.6026   26.4177 C   0  0  0  0  0  0  0  0  0  0  0  0
    5.8134  -12.4866   26.8815 C   0  0  0  0  0  0  0  0  0  0  0  0
    6.4282  -11.2613   26.9965 C   0  0  0  0  0  0  0  0  0  0  0  0
    7.7656  -11.1685   26.6232 C   0  0  0  0  0  0  0  0  0  0  0  0
    8.4516  -12.2668   26.1535 C   0  0  0  0  0  0  0  0  0  0  0  0
    7.8100  -13.4875   26.0486 C   0  0  0  0  0  0  0  0  0  0  0  0
    9.4351  -17.4113   26.1534 C   0  0  0  0  0  0  0  0  0  0  0  0
    8.4125  -18.3217   26.2933 O   0  0  0  0  0  0  0  0  0  0  0  0
   10.2229  -17.2206   27.0999 O   0  0  0  0  0  0  0  0  0  0  0  0
  2  1  1  0
  3  2  2  0
  4  2  1  0
  4  5  1  0
  5  6  1  1
  7  5  1  0
  7  8  2  0
  9  7  1  0
 10  9  1  0
 11 12  1  0
 11 10  1  0
 12 13  1  0
 13  9  1  0
 13 14  1  6
 14 15  2  0
 16 14  1  0
 16 17  1  0
 17 28  1  0
 17 18  1  1
 19 18  1  0
 20 19  2  0
 21 22  1  0
 21 20  1  0
 22 27  2  0
 23 22  1  0
 23 24  2  0
 24 25  1  0
 25 26  2  0
 27 19  1  0
 27 26  1  0
 28 29  1  0
 30 28  2  0
M  END
$$$$
