NPW.pdb
     RDKit          3D

 30 32  0  0  1  0  0  0  0  0999 V2000
   11.8866  -18.6452   16.4332 N   0  0  0  0  0  0  0  0  0  0  0  0
   11.5083  -18.7673   17.8143 C   0  0  0  0  0  0  0  0  0  0  0  0
   11.5331  -19.9186   18.2847 O   0  0  0  0  0  0  0  0  0  0  0  0
   11.1174  -17.6175   18.6281 C   0  0  0  0  0  0  0  0  0  0  0  0
   10.0231  -17.9011   19.5902 C   0  0  2  0  0  0  0  0  0  0  0  0
    8.7100  -17.8517   18.9228 N   0  0  0  0  0  0  0  0  0  0  0  0
    9.9877  -16.9177   20.7450 C   0  0  0  0  0  0  0  0  0  0  0  0
   10.9248  -16.9729   21.5500 O   0  0  0  0  0  0  0  0  0  0  0  0
    8.9420  -15.9752   20.9086 N   0  0  0  0  0  0  0  0  0  0  0  0
    7.9511  -15.7660   19.8253 C   0  0  0  0  0  0  0  0  0  0  0  0
    6.7099  -15.2189   20.5386 C   0  0  0  0  0  0  0  0  0  0  0  0
    7.0539  -15.4091   22.0303 C   0  0  0  0  0  0  0  0  0  0  0  0
    8.5419  -15.0614   21.9179 C   0  0  1  0  0  0  0  0  0  0  0  0
    9.2240  -14.9870   23.1786 C   0  0  0  0  0  0  0  0  0  0  0  0
    9.7971  -13.9678   23.6002 O   0  0  0  0  0  0  0  0  0  0  0  0
    9.3036  -16.1185   24.0886 N   0  0  0  0  0  0  0  0  0  0  0  0
   10.0776  -16.0769   25.2817 C   0  0  1  0  0  0  0  0  0  0  0  0
    9.2058  -16.1242   26.5060 C   0  0  0  0  0  0  0  0  0  0  0  0
    7.9531  -15.3670   26.3758 C   0  0  0  0  0  0  0  0  0  0  0  0
    6.7179  -15.9617   26.0723 C   0  0  0  0  0  0  0  0  0  0  0  0
    5.8102  -14.9799   26.0600 N   0  0  0  0  0  0  0  0  0  0  0  0
    6.4093  -13.7934   26.3393 C   0  0  0  0  0  0  0  0  0  0  0  0
    5.9222  -12.5120   26.4372 C   0  0  0  0  0  0  0  0  0  0  0  0
    6.7257  -11.4341   26.7289 C   0  0  0  0  0  0  0  0  0  0  0  0
    8.0824  -11.6710   26.9290 C   0  0  0  0  0  0  0  0  0  0  0  0
    8.6041  -12.9425   26.8378 C   0  0  0  0  0  0  0  0  0  0  0  0
    7.7741  -14.0091   26.5442 C   0  0  0  0  0  0  0  0  0  0  0  0
   11.1073  -17.1351   25.3510 C   0  0  0  0  0  0  0  0  0  0  0  0
   12.0438  -17.1308   26.3596 O   0  0  0  0  0  0  0  0  0  0  0  0
   11.1330  -18.0368   24.4914 O   0  0  0  0  0  0  0  0  0  0  0  0
  2  1  1  0
  3  2  2  0
  4  2  1  0
  4  5  1  0
  5  6  1  6
  7  5  1  0
  7  8  2  0
  9  7  1  0
 10  9  1  0
 11 12  1  0
 11 10  1  0
 12 13  1  0
 13  9  1  0
 13 14  1  1
 14 15  2  0
 16 14  1  0
 16 17  1  0
 17 28  1  0
 17 18  1  1
 19 18  1  0
 20 19  2  0
 21 22  1  0
 21 20  1  0
 22 27  2  0
 23 22  1  0
 23 24  2  0
 24 25  1  0
 25 26  2  0
 27 19  1  0
 27 26  1  0
 28 29  1  0
 30 28  2  0
M  END
$$$$
