TNT.pdb
     RDKit          3D

 23 22  0  0  1  0  0  0  0  0999 V2000
    8.5619  -12.5671   20.0771 C   0  0  0  0  0  0  0  0  0  0  0  0
    7.8057  -13.4973   19.1206 C   0  0  1  0  0  0  0  0  0  0  0  0
    8.0706  -12.9722   17.8437 O   0  0  0  0  0  0  0  0  0  0  0  0
    8.4318  -14.8771   19.1791 C   0  0  2  0  0  0  0  0  0  0  0  0
    7.7124  -15.7091   18.2319 N   0  0  0  0  0  0  0  0  0  0  0  0
    8.1520  -15.3964   20.5684 C   0  0  0  0  0  0  0  0  0  0  0  0
    7.0597  -15.9425   20.8532 O   0  0  0  0  0  0  0  0  0  0  0  0
   10.9443  -18.0690   25.1697 N   0  0  0  0  0  0  0  0  0  0  0  0
    9.8052  -17.6234   24.4613 C   0  0  0  0  0  0  0  0  0  0  0  0
    8.6774  -17.8158   24.9768 O   0  0  0  0  0  0  0  0  0  0  0  0
   10.0025  -16.9591   23.1602 C   0  0  0  0  0  0  0  0  0  0  0  0
    8.9553  -15.9089   22.8823 C   0  0  2  0  0  0  0  0  0  0  0  0
    9.1228  -15.2817   21.6010 N   0  0  0  0  0  0  0  0  0  0  0  0
    8.9469  -14.9070   23.9939 C   0  0  0  0  0  0  0  0  0  0  0  0
    9.9502  -14.1552   24.0553 O   0  0  0  0  0  0  0  0  0  0  0  0
    6.5036  -11.7718   26.7022 C   0  0  0  0  0  0  0  0  0  0  0  0
    6.4926  -13.1348   26.0815 C   0  0  1  0  0  0  0  0  0  0  0  0
    5.8566  -13.0311   24.8523 O   0  0  0  0  0  0  0  0  0  0  0  0
    7.8482  -13.7700   25.9545 C   0  0  2  0  0  0  0  0  0  0  0  0
    7.8858  -14.7937   24.9318 N   0  0  0  0  0  0  0  0  0  0  0  0
    8.4050  -14.2407   27.2377 C   0  0  0  0  0  0  0  0  0  0  0  0
    8.5408  -13.3032   28.2563 O   0  0  0  0  0  0  0  0  0  0  0  0
    8.7608  -15.4002   27.4799 O   0  0  0  0  0  0  0  0  0  0  0  0
  2  1  1  1
  2  4  1  0
  3  2  1  0
  4  6  1  0
  4  5  1  6
  6 13  1  0
  6  7  2  0
  8  9  1  0
  9 11  1  0
 10  9  2  0
 12 11  1  1
 12 14  1  0
 13 12  1  0
 14 20  1  0
 14 15  2  0
 17 16  1  6
 17 19  1  0
 17 18  1  0
 19 21  1  0
 19 20  1  6
 21 22  1  0
 23 21  2  0
M  END
$$$$
