TNT.pdb
     RDKit          3D

 23 22  0  0  1  0  0  0  0  0999 V2000
    7.9579  -11.8632   18.3327 C   0  0  0  0  0  0  0  0  0  0  0  0
    8.8361  -12.8995   19.0446 C   0  0  1  0  0  0  0  0  0  0  0  0
    7.9244  -13.6919   19.7639 O   0  0  0  0  0  0  0  0  0  0  0  0
    9.4854  -13.7916   18.0043 C   0  0  2  0  0  0  0  0  0  0  0  0
    8.4175  -14.5242   17.3488 N   0  0  0  0  0  0  0  0  0  0  0  0
   10.3270  -14.7778   18.7770 C   0  0  0  0  0  0  0  0  0  0  0  0
    9.9488  -15.9602   18.9544 O   0  0  0  0  0  0  0  0  0  0  0  0
   14.8485  -13.9090   17.8021 N   0  0  0  0  0  0  0  0  0  0  0  0
   14.3312  -15.0770   18.4074 C   0  0  0  0  0  0  0  0  0  0  0  0
   14.2601  -16.1195   17.7127 O   0  0  0  0  0  0  0  0  0  0  0  0
   13.9048  -15.0078   19.8168 C   0  0  0  0  0  0  0  0  0  0  0  0
   12.4418  -15.3313   19.9950 C   0  0  2  0  0  0  0  0  0  0  0  0
   11.5799  -14.3946   19.3294 N   0  0  0  0  0  0  0  0  0  0  0  0
   12.1282  -15.4340   21.4547 C   0  0  0  0  0  0  0  0  0  0  0  0
   12.9658  -14.9092   22.2285 O   0  0  0  0  0  0  0  0  0  0  0  0
    8.7244  -14.6449   23.3757 C   0  0  0  0  0  0  0  0  0  0  0  0
    9.2456  -16.0100   23.7042 C   0  0  1  0  0  0  0  0  0  0  0  0
    8.4349  -16.9349   23.0610 O   0  0  0  0  0  0  0  0  0  0  0  0
   10.6964  -16.2168   23.3733 C   0  0  2  0  0  0  0  0  0  0  0  0
   10.9661  -16.0779   21.9579 N   0  0  0  0  0  0  0  0  0  0  0  0
   11.2602  -17.4617   23.9306 C   0  0  0  0  0  0  0  0  0  0  0  0
   11.1528  -17.6515   25.3044 O   0  0  0  0  0  0  0  0  0  0  0  0
   11.8204  -18.3485   23.2753 O   0  0  0  0  0  0  0  0  0  0  0  0
  2  1  1  6
  2  4  1  0
  3  2  1  0
  4  6  1  0
  4  5  1  1
  6 13  1  0
  6  7  2  0
  8  9  1  0
  9 11  1  0
 10  9  2  0
 12 11  1  1
 12 14  1  0
 13 12  1  0
 14 20  1  0
 14 15  2  0
 17 16  1  6
 17 19  1  0
 17 18  1  0
 19 21  1  0
 19 20  1  6
 21 22  1  0
 23 21  2  0
M  END
$$$$
