TNT.pdb
     RDKit          3D

 23 22  0  0  1  0  0  0  0  0999 V2000
    8.2139  -18.7158   15.5400 C   0  0  0  0  0  0  0  0  0  0  0  0
    8.8671  -17.9445   16.6934 C   0  0  1  0  0  0  0  0  0  0  0  0
    9.9697  -18.7360   17.0599 O   0  0  0  0  0  0  0  0  0  0  0  0
    9.4111  -16.6327   16.1620 C   0  0  2  0  0  0  0  0  0  0  0  0
   10.5072  -16.9597   15.2685 N   0  0  0  0  0  0  0  0  0  0  0  0
    9.9794  -15.9092   17.3585 C   0  0  0  0  0  0  0  0  0  0  0  0
   11.2170  -15.8201   17.5399 O   0  0  0  0  0  0  0  0  0  0  0  0
    6.7079  -12.6163   18.8319 N   0  0  0  0  0  0  0  0  0  0  0  0
    8.0972  -12.6507   19.0902 C   0  0  0  0  0  0  0  0  0  0  0  0
    8.8300  -11.8307   18.4859 O   0  0  0  0  0  0  0  0  0  0  0  0
    8.6085  -13.6441   20.0518 C   0  0  0  0  0  0  0  0  0  0  0  0
    9.6363  -14.5646   19.4410 C   0  0  2  0  0  0  0  0  0  0  0  0
    9.1251  -15.3037   18.3204 N   0  0  0  0  0  0  0  0  0  0  0  0
   10.1862  -15.4695   20.4985 C   0  0  0  0  0  0  0  0  0  0  0  0
    9.3460  -15.9321   21.3083 O   0  0  0  0  0  0  0  0  0  0  0  0
   11.9045  -18.6881   19.9904 C   0  0  0  0  0  0  0  0  0  0  0  0
   12.7621  -17.9119   20.9418 C   0  0  1  0  0  0  0  0  0  0  0  0
   13.9078  -17.5296   20.2580 O   0  0  0  0  0  0  0  0  0  0  0  0
   12.0761  -16.7367   21.5785 C   0  0  2  0  0  0  0  0  0  0  0  0
   11.5643  -15.7991   20.6016 N   0  0  0  0  0  0  0  0  0  0  0  0
   12.8822  -16.0732   22.6216 C   0  0  0  0  0  0  0  0  0  0  0  0
   13.1563  -16.8009   23.7750 O   0  0  0  0  0  0  0  0  0  0  0  0
   13.3327  -14.9234   22.5533 O   0  0  0  0  0  0  0  0  0  0  0  0
  2  1  1  6
  2  4  1  0
  3  2  1  0
  4  6  1  0
  4  5  1  6
  6 13  1  0
  6  7  2  0
  8  9  1  0
  9 11  1  0
 10  9  2  0
 12 11  1  1
 12 14  1  0
 13 12  1  0
 14 20  1  0
 14 15  2  0
 17 16  1  6
 17 19  1  0
 17 18  1  0
 19 21  1  0
 19 20  1  6
 21 22  1  0
 23 21  2  0
M  END
$$$$
