TNT.pdb
     RDKit          3D

 23 22  0  0  1  0  0  0  0  0999 V2000
    7.4609  -16.9707   17.0602 C   0  0  0  0  0  0  0  0  0  0  0  0
    8.0974  -16.4350   15.7718 C   0  0  1  0  0  0  0  0  0  0  0  0
    7.2323  -16.8671   14.7514 O   0  0  0  0  0  0  0  0  0  0  0  0
    8.0484  -14.9196   15.7923 C   0  0  2  0  0  0  0  0  0  0  0  0
    8.5452  -14.4625   14.5073 N   0  0  0  0  0  0  0  0  0  0  0  0
    9.0303  -14.4915   16.8555 C   0  0  0  0  0  0  0  0  0  0  0  0
   10.2666  -14.5072   16.6465 O   0  0  0  0  0  0  0  0  0  0  0  0
    7.0367  -14.2399   20.2190 N   0  0  0  0  0  0  0  0  0  0  0  0
    7.5811  -12.9936   20.6043 C   0  0  0  0  0  0  0  0  0  0  0  0
    6.9008  -12.2621   21.3636 O   0  0  0  0  0  0  0  0  0  0  0  0
    8.9136  -12.6217   20.0953 C   0  0  0  0  0  0  0  0  0  0  0  0
    9.4923  -13.6658   19.1723 C   0  0  2  0  0  0  0  0  0  0  0  0
    8.5812  -14.0552   18.1322 N   0  0  0  0  0  0  0  0  0  0  0  0
    9.9526  -14.8413   19.9758 C   0  0  0  0  0  0  0  0  0  0  0  0
    9.0955  -15.3444   20.7426 O   0  0  0  0  0  0  0  0  0  0  0  0
   11.1964  -18.2464   19.0539 C   0  0  0  0  0  0  0  0  0  0  0  0
   12.2247  -17.6299   19.9514 C   0  0  1  0  0  0  0  0  0  0  0  0
   13.3224  -17.3011   19.1683 O   0  0  0  0  0  0  0  0  0  0  0  0
   11.7320  -16.4510   20.7418 C   0  0  2  0  0  0  0  0  0  0  0  0
   11.2678  -15.3725   19.8952 N   0  0  0  0  0  0  0  0  0  0  0  0
   12.6846  -15.9856   21.7685 C   0  0  0  0  0  0  0  0  0  0  0  0
   13.0677  -16.8999   22.7443 O   0  0  0  0  0  0  0  0  0  0  0  0
   13.1686  -14.8492   21.8316 O   0  0  0  0  0  0  0  0  0  0  0  0
  2  1  1  1
  2  4  1  0
  3  2  1  0
  4  6  1  0
  4  5  1  6
  6 13  1  0
  6  7  2  0
  8  9  1  0
  9 11  1  0
 10  9  2  0
 12 11  1  1
 12 14  1  0
 13 12  1  0
 14 20  1  0
 14 15  2  0
 17 16  1  6
 17 19  1  0
 17 18  1  0
 19 21  1  0
 19 20  1  6
 21 22  1  0
 23 21  2  0
M  END
$$$$
