TNT.pdb
     RDKit          3D

 23 22  0  0  1  0  0  0  0  0999 V2000
    5.6312  -21.3559   18.9800 C   0  0  0  0  0  0  0  0  0  0  0  0
    4.0996  -21.3744   19.0563 C   0  0  1  0  0  0  0  0  0  0  0  0
    3.6904  -21.6838   17.7473 O   0  0  0  0  0  0  0  0  0  0  0  0
    3.6654  -22.5222   19.9470 C   0  0  2  0  0  0  0  0  0  0  0  0
    2.2212  -22.6193   19.8390 N   0  0  0  0  0  0  0  0  0  0  0  0
    4.0043  -22.0994   21.3557 C   0  0  0  0  0  0  0  0  0  0  0  0
    4.0041  -20.8915   21.6924 O   0  0  0  0  0  0  0  0  0  0  0  0
    1.9389  -22.7480   24.2874 N   0  0  0  0  0  0  0  0  0  0  0  0
    2.7175  -23.7312   24.9395 C   0  0  0  0  0  0  0  0  0  0  0  0
    2.1305  -24.5429   25.6952 O   0  0  0  0  0  0  0  0  0  0  0  0
    4.1715  -23.7500   24.6975 C   0  0  0  0  0  0  0  0  0  0  0  0
    4.6072  -22.6954   23.7102 C   0  0  2  0  0  0  0  0  0  0  0  0
    4.3355  -23.0622   22.3483 N   0  0  0  0  0  0  0  0  0  0  0  0
    6.0550  -22.3818   23.9224 C   0  0  0  0  0  0  0  0  0  0  0  0
    6.8647  -23.2461   23.5064 O   0  0  0  0  0  0  0  0  0  0  0  0
    7.6270  -18.7514   23.1955 C   0  0  0  0  0  0  0  0  0  0  0  0
    8.1133  -19.3371   24.4853 C   0  0  1  0  0  0  0  0  0  0  0  0
    7.4989  -18.6443   25.5190 O   0  0  0  0  0  0  0  0  0  0  0  0
    7.9076  -20.8201   24.6101 C   0  0  2  0  0  0  0  0  0  0  0  0
    6.5098  -21.1916   24.5508 N   0  0  0  0  0  0  0  0  0  0  0  0
    8.5967  -21.4188   25.7697 C   0  0  0  0  0  0  0  0  0  0  0  0
    9.9814  -21.2964   25.8219 O   0  0  0  0  0  0  0  0  0  0  0  0
    8.0430  -22.0205   26.6977 O   0  0  0  0  0  0  0  0  0  0  0  0
  2  1  1  6
  2  4  1  0
  3  2  1  0
  4  6  1  0
  4  5  1  1
  6 13  1  0
  6  7  2  0
  8  9  1  0
  9 11  1  0
 10  9  2  0
 12 11  1  1
 12 14  1  0
 13 12  1  0
 14 20  1  0
 14 15  2  0
 17 16  1  6
 17 19  1  0
 17 18  1  0
 19 21  1  0
 19 20  1  1
 21 22  1  0
 23 21  2  0
M  END
$$$$
