TNT.pdb
     RDKit          3D

 23 22  0  0  1  0  0  0  0  0999 V2000
    7.7226  -11.8513   18.2914 C   0  0  0  0  0  0  0  0  0  0  0  0
    8.7318  -12.8504   18.8705 C   0  0  1  0  0  0  0  0  0  0  0  0
    7.9471  -13.7353   19.6306 O   0  0  0  0  0  0  0  0  0  0  0  0
    9.3398  -13.6497   17.7344 C   0  0  2  0  0  0  0  0  0  0  0  0
    8.2552  -14.3763   17.0999 N   0  0  0  0  0  0  0  0  0  0  0  0
   10.2606  -14.6530   18.3852 C   0  0  0  0  0  0  0  0  0  0  0  0
    9.9332  -15.8575   18.5049 O   0  0  0  0  0  0  0  0  0  0  0  0
   14.6901  -16.4742   17.5069 N   0  0  0  0  0  0  0  0  0  0  0  0
   14.2365  -15.1783   17.8430 C   0  0  0  0  0  0  0  0  0  0  0  0
   14.1647  -14.3227   16.9279 O   0  0  0  0  0  0  0  0  0  0  0  0
   13.8733  -14.9028   19.2449 C   0  0  0  0  0  0  0  0  0  0  0  0
   12.4196  -15.1871   19.5323 C   0  0  2  0  0  0  0  0  0  0  0  0
   11.5330  -14.2611   18.8845 N   0  0  0  0  0  0  0  0  0  0  0  0
   12.2016  -15.2214   21.0125 C   0  0  0  0  0  0  0  0  0  0  0  0
   12.9864  -14.5171   21.6936 O   0  0  0  0  0  0  0  0  0  0  0  0
    8.8254  -14.5760   22.8513 C   0  0  0  0  0  0  0  0  0  0  0  0
    9.4632  -15.8264   23.3737 C   0  0  1  0  0  0  0  0  0  0  0  0
    8.7341  -16.9034   22.8892 O   0  0  0  0  0  0  0  0  0  0  0  0
   10.9258  -15.9566   23.0559 C   0  0  2  0  0  0  0  0  0  0  0  0
   11.1813  -15.9921   21.6315 N   0  0  0  0  0  0  0  0  0  0  0  0
   11.5919  -17.0623   23.7713 C   0  0  0  0  0  0  0  0  0  0  0  0
   11.4986  -17.0719   25.1591 O   0  0  0  0  0  0  0  0  0  0  0  0
   12.2262  -17.9798   23.2369 O   0  0  0  0  0  0  0  0  0  0  0  0
  2  1  1  6
  2  4  1  0
  3  2  1  0
  4  6  1  0
  4  5  1  1
  6 13  1  0
  6  7  2  0
  8  9  1  0
  9 11  1  0
 10  9  2  0
 12 11  1  1
 12 14  1  0
 13 12  1  0
 14 20  1  0
 14 15  2  0
 17 16  1  6
 17 19  1  0
 17 18  1  0
 19 21  1  0
 19 20  1  6
 21 22  1  0
 23 21  2  0
M  END
$$$$
