TNT.pdb
     RDKit          3D

 23 22  0  0  1  0  0  0  0  0999 V2000
    7.9931  -12.2002   18.8387 C   0  0  0  0  0  0  0  0  0  0  0  0
    8.3797  -13.2600   19.8776 C   0  0  1  0  0  0  0  0  0  0  0  0
    7.2018  -13.4682   20.6162 O   0  0  0  0  0  0  0  0  0  0  0  0
    8.6975  -14.5580   19.1611 C   0  0  2  0  0  0  0  0  0  0  0  0
    7.4736  -14.9956   18.5148 N   0  0  0  0  0  0  0  0  0  0  0  0
    9.0386  -15.5520   20.2444 C   0  0  0  0  0  0  0  0  0  0  0  0
    8.1728  -16.3279   20.7143 O   0  0  0  0  0  0  0  0  0  0  0  0
   12.4552  -19.3726   22.3339 N   0  0  0  0  0  0  0  0  0  0  0  0
   12.5978  -18.0015   22.6470 C   0  0  0  0  0  0  0  0  0  0  0  0
   13.0561  -17.6986   23.7752 O   0  0  0  0  0  0  0  0  0  0  0  0
   12.2020  -17.0052   21.6352 C   0  0  0  0  0  0  0  0  0  0  0  0
   10.7392  -16.6449   21.7196 C   0  0  2  0  0  0  0  0  0  0  0  0
   10.3581  -15.6395   20.7672 N   0  0  0  0  0  0  0  0  0  0  0  0
   10.4062  -16.2373   23.1205 C   0  0  0  0  0  0  0  0  0  0  0  0
   10.9469  -15.1776   23.5209 O   0  0  0  0  0  0  0  0  0  0  0  0
    7.3131  -15.0184   24.5845 C   0  0  0  0  0  0  0  0  0  0  0  0
    7.7282  -16.1926   25.4164 C   0  0  1  0  0  0  0  0  0  0  0  0
    6.9048  -17.2578   25.0793 O   0  0  0  0  0  0  0  0  0  0  0  0
    9.1817  -16.5540   25.2986 C   0  0  2  0  0  0  0  0  0  0  0  0
    9.5385  -16.9828   23.9628 N   0  0  0  0  0  0  0  0  0  0  0  0
    9.6428  -17.5014   26.3320 C   0  0  0  0  0  0  0  0  0  0  0  0
    9.4303  -17.1490   27.6607 O   0  0  0  0  0  0  0  0  0  0  0  0
   10.2029  -18.5819   26.1121 O   0  0  0  0  0  0  0  0  0  0  0  0
  2  1  1  6
  2  4  1  0
  3  2  1  0
  4  6  1  0
  4  5  1  1
  6 13  1  0
  6  7  2  0
  8  9  1  0
  9 11  1  0
 10  9  2  0
 12 11  1  1
 12 14  1  0
 13 12  1  0
 14 20  1  0
 14 15  2  0
 17 16  1  6
 17 19  1  0
 17 18  1  0
 19 21  1  0
 19 20  1  6
 21 22  1  0
 23 21  2  0
M  END
$$$$
