KTW.pdb
     RDKit          3D

 31 32  0  0  1  0  0  0  0  0999 V2000
   26.5261  -20.8367  -16.2612 N   0  0  0  0  0  0  0  0  0  0  0  0
   26.9851  -19.6686  -15.5828 C   0  0  1  0  0  0  0  0  0  0  0  0
   27.0336  -18.4752  -16.5015 C   0  0  0  0  0  0  0  0  0  0  0  0
   27.4211  -18.8427  -17.9030 C   0  0  0  0  0  0  0  0  0  0  0  0
   27.5064  -17.6805  -18.8385 C   0  0  0  0  0  0  0  0  0  0  0  0
   27.9471  -18.0433  -20.2339 C   0  0  0  0  0  0  0  0  0  0  0  0
   26.8314  -18.5218  -21.0265 N   0  0  0  0  0  0  0  0  0  0  0  0
   26.1550  -19.4093  -14.3788 C   0  0  0  0  0  0  0  0  0  0  0  0
   25.1128  -18.7027  -14.4307 O   0  0  0  0  0  0  0  0  0  0  0  0
   23.8731  -20.7794  -13.6332 C   0  0  0  0  0  0  0  0  0  0  0  0
   24.5903  -21.1404  -12.3531 C   0  0  1  0  0  0  0  0  0  0  0  0
   25.1472  -22.4035  -12.5372 O   0  0  0  0  0  0  0  0  0  0  0  0
   25.6701  -20.1513  -12.0073 C   0  0  2  0  0  0  0  0  0  0  0  0
   26.5433  -19.9735  -13.1211 N   0  0  0  0  0  0  0  0  0  0  0  0
   26.4067  -20.7191  -10.8190 C   0  0  0  0  0  0  0  0  0  0  0  0
   27.6046  -21.0641  -10.9560 O   0  0  0  0  0  0  0  0  0  0  0  0
   25.7750  -20.8688   -9.5602 N   0  0  0  0  0  0  0  0  0  0  0  0
   26.5113  -21.3367   -8.3952 C   0  0  1  0  0  0  0  0  0  0  0  0
   27.7775  -20.5843   -8.2794 C   0  0  0  0  0  0  0  0  0  0  0  0
   27.9365  -19.7284   -7.1118 C   0  0  0  0  0  0  0  0  0  0  0  0
   27.4467  -18.4207   -6.9691 C   0  0  0  0  0  0  0  0  0  0  0  0
   27.8357  -17.9976   -5.7691 N   0  0  0  0  0  0  0  0  0  0  0  0
   28.5415  -18.9466   -5.1332 C   0  0  0  0  0  0  0  0  0  0  0  0
   29.1325  -18.9726   -3.8812 C   0  0  0  0  0  0  0  0  0  0  0  0
   29.8097  -20.0754   -3.4119 C   0  0  0  0  0  0  0  0  0  0  0  0
   29.8866  -21.1808   -4.2405 C   0  0  0  0  0  0  0  0  0  0  0  0
   29.3086  -21.1760   -5.4849 C   0  0  0  0  0  0  0  0  0  0  0  0
   28.6288  -20.0722   -5.9602 C   0  0  0  0  0  0  0  0  0  0  0  0
   25.6449  -21.4424   -7.2317 C   0  0  0  0  0  0  0  0  0  0  0  0
   25.9924  -22.3783   -6.2298 O   0  0  0  0  0  0  0  0  0  0  0  0
   24.6064  -20.7982   -6.9930 O   0  0  0  0  0  0  0  0  0  0  0  0
  2  1  1  6
  3  2  1  0
  3  4  1  0
  5  4  1  0
  6  5  1  0
  7  6  1  0
  8  9  2  0
  8  2  1  0
 11 10  1  6
 11 13  1  0
 12 11  1  0
 13 14  1  6
 14  8  1  0
 15 13  1  0
 15 17  1  0
 16 15  2  0
 18 17  1  0
 18 29  1  0
 18 19  1  1
 19 20  1  0
 20 28  1  0
 21 20  2  0
 21 22  1  0
 22 23  1  0
 23 24  2  0
 24 25  1  0
 26 25  2  0
 27 26  1  0
 28 27  2  0
 28 23  1  0
 29 30  1  0
 31 29  2  0
M  END
$$$$
