KTW.pdb
     RDKit          3D

 31 32  0  0  1  0  0  0  0  0999 V2000
   23.8842  -18.6427  -16.3302 N   0  0  0  0  0  0  0  0  0  0  0  0
   24.6046  -18.3985  -15.1233 C   0  0  1  0  0  0  0  0  0  0  0  0
   24.4420  -16.9748  -14.6571 C   0  0  0  0  0  0  0  0  0  0  0  0
   24.0380  -16.0486  -15.7655 C   0  0  0  0  0  0  0  0  0  0  0  0
   25.1486  -15.1925  -16.2823 C   0  0  0  0  0  0  0  0  0  0  0  0
   24.7325  -14.2310  -17.3664 C   0  0  0  0  0  0  0  0  0  0  0  0
   24.5628  -12.8911  -16.8396 N   0  0  0  0  0  0  0  0  0  0  0  0
   24.2071  -19.3744  -14.0766 C   0  0  0  0  0  0  0  0  0  0  0  0
   22.9982  -19.5832  -13.7885 O   0  0  0  0  0  0  0  0  0  0  0  0
   24.9108  -22.9172  -14.1683 C   0  0  0  0  0  0  0  0  0  0  0  0
   25.5535  -22.4300  -12.8905 C   0  0  1  0  0  0  0  0  0  0  0  0
   26.9117  -22.2658  -13.1512 O   0  0  0  0  0  0  0  0  0  0  0  0
   24.9633  -21.1298  -12.4163 C   0  0  2  0  0  0  0  0  0  0  0  0
   25.2193  -20.1012  -13.3708 N   0  0  0  0  0  0  0  0  0  0  0  0
   25.6152  -20.8215  -11.0908 C   0  0  0  0  0  0  0  0  0  0  0  0
   26.6998  -20.1918  -11.0800 O   0  0  0  0  0  0  0  0  0  0  0  0
   25.0295  -21.2271   -9.8667 N   0  0  0  0  0  0  0  0  0  0  0  0
   25.7070  -21.0139   -8.5964 C   0  0  1  0  0  0  0  0  0  0  0  0
   26.1382  -19.6041   -8.5000 C   0  0  0  0  0  0  0  0  0  0  0  0
   27.3839  -19.3378   -7.7940 C   0  0  0  0  0  0  0  0  0  0  0  0
   28.5737  -18.8576   -8.3634 C   0  0  0  0  0  0  0  0  0  0  0  0
   29.4644  -18.7837   -7.3778 N   0  0  0  0  0  0  0  0  0  0  0  0
   28.9250  -19.1840   -6.2151 C   0  0  0  0  0  0  0  0  0  0  0  0
   29.4496  -19.2691   -4.9364 C   0  0  0  0  0  0  0  0  0  0  0  0
   28.7027  -19.7013   -3.8637 C   0  0  0  0  0  0  0  0  0  0  0  0
   27.3865  -20.0560   -4.1006 C   0  0  0  0  0  0  0  0  0  0  0  0
   26.8470  -19.9798   -5.3600 C   0  0  0  0  0  0  0  0  0  0  0  0
   27.5922  -19.5474   -6.4389 C   0  0  0  0  0  0  0  0  0  0  0  0
   24.9587  -21.5993   -7.4952 C   0  0  0  0  0  0  0  0  0  0  0  0
   25.4819  -21.4567   -6.1889 O   0  0  0  0  0  0  0  0  0  0  0  0
   23.8855  -22.2282   -7.5513 O   0  0  0  0  0  0  0  0  0  0  0  0
  2  1  1  6
  3  2  1  0
  3  4  1  0
  5  4  1  0
  6  5  1  0
  7  6  1  0
  8  9  2  0
  8  2  1  0
 11 10  1  6
 11 13  1  0
 12 11  1  0
 13 14  1  6
 14  8  1  0
 15 13  1  0
 15 17  1  0
 16 15  2  0
 18 17  1  0
 18 29  1  0
 18 19  1  1
 19 20  1  0
 20 28  1  0
 21 20  2  0
 21 22  1  0
 22 23  1  0
 23 24  2  0
 24 25  1  0
 26 25  2  0
 27 26  1  0
 28 27  2  0
 28 23  1  0
 29 30  1  0
 31 29  2  0
M  END
$$$$
