KTW.pdb
     RDKit          3D

 31 32  0  0  1  0  0  0  0  0999 V2000
   12.8916  -21.9555   -0.9017 N   0  0  0  0  0  0  0  0  0  0  0  0
   13.4636  -22.2459    0.3725 C   0  0  1  0  0  0  0  0  0  0  0  0
   14.8112  -22.9067    0.2394 C   0  0  0  0  0  0  0  0  0  0  0  0
   14.7719  -24.1234   -0.6368 C   0  0  0  0  0  0  0  0  0  0  0  0
   15.1675  -23.8684   -2.0551 C   0  0  0  0  0  0  0  0  0  0  0  0
   15.2479  -25.1107   -2.9056 C   0  0  0  0  0  0  0  0  0  0  0  0
   15.7013  -24.7975   -4.2466 N   0  0  0  0  0  0  0  0  0  0  0  0
   13.5276  -21.0165    1.2036 C   0  0  0  0  0  0  0  0  0  0  0  0
   13.2097  -19.8871    0.7436 O   0  0  0  0  0  0  0  0  0  0  0  0
   11.4388  -20.7314    4.0919 C   0  0  0  0  0  0  0  0  0  0  0  0
   12.8444  -20.5448    4.6142 C   0  0  1  0  0  0  0  0  0  0  0  0
   13.2615  -21.7746    5.1176 O   0  0  0  0  0  0  0  0  0  0  0  0
   13.7935  -20.0831    3.5419 C   0  0  2  0  0  0  0  0  0  0  0  0
   13.9619  -21.1089    2.5651 N   0  0  0  0  0  0  0  0  0  0  0  0
   15.0971  -19.7645    4.2318 C   0  0  0  0  0  0  0  0  0  0  0  0
   16.1048  -20.4671    3.9793 O   0  0  0  0  0  0  0  0  0  0  0  0
   15.2037  -18.6940    5.1530 N   0  0  0  0  0  0  0  0  0  0  0  0
   16.4542  -18.4095    5.8410 C   0  0  1  0  0  0  0  0  0  0  0  0
   17.5185  -18.1664    4.8455 C   0  0  0  0  0  0  0  0  0  0  0  0
   17.6729  -16.8026    4.3585 C   0  0  0  0  0  0  0  0  0  0  0  0
   16.9066  -15.6920    4.7454 C   0  0  0  0  0  0  0  0  0  0  0  0
   17.3582  -14.6553    4.0444 N   0  0  0  0  0  0  0  0  0  0  0  0
   18.3628  -15.0271    3.2346 C   0  0  0  0  0  0  0  0  0  0  0  0
   19.1411  -14.3094    2.3420 C   0  0  0  0  0  0  0  0  0  0  0  0
   20.1473  -14.8966    1.6084 C   0  0  0  0  0  0  0  0  0  0  0  0
   20.3660  -16.2508    1.7895 C   0  0  0  0  0  0  0  0  0  0  0  0
   19.6060  -16.9806    2.6685 C   0  0  0  0  0  0  0  0  0  0  0  0
   18.5955  -16.3964    3.4059 C   0  0  0  0  0  0  0  0  0  0  0  0
   16.2586  -17.4466    6.9134 C   0  0  0  0  0  0  0  0  0  0  0  0
   14.9667  -16.8963    7.0822 O   0  0  0  0  0  0  0  0  0  0  0  0
   17.1033  -17.0301    7.7280 O   0  0  0  0  0  0  0  0  0  0  0  0
  2  1  1  6
  3  2  1  0
  3  4  1  0
  5  4  1  0
  6  5  1  0
  7  6  1  0
  8  9  2  0
  8  2  1  0
 11 10  1  6
 11 13  1  0
 12 11  1  0
 13 14  1  6
 14  8  1  0
 15 13  1  0
 15 17  1  0
 16 15  2  0
 18 17  1  0
 18 29  1  0
 18 19  1  6
 19 20  1  0
 20 28  1  0
 21 20  2  0
 21 22  1  0
 22 23  1  0
 23 24  2  0
 24 25  1  0
 26 25  2  0
 27 26  1  0
 28 27  2  0
 28 23  1  0
 29 30  1  0
 31 29  2  0
M  END
$$$$
