KTW.pdb
     RDKit          3D

 31 32  0  0  1  0  0  0  0  0999 V2000
   23.8993  -18.7031  -16.9757 N   0  0  0  0  0  0  0  0  0  0  0  0
   23.9826  -18.1559  -15.6609 C   0  0  1  0  0  0  0  0  0  0  0  0
   23.0450  -16.9897  -15.4835 C   0  0  0  0  0  0  0  0  0  0  0  0
   23.3943  -15.8303  -16.3687 C   0  0  0  0  0  0  0  0  0  0  0  0
   22.4442  -15.6188  -17.5026 C   0  0  0  0  0  0  0  0  0  0  0  0
   22.8290  -14.4920  -18.4273 C   0  0  0  0  0  0  0  0  0  0  0  0
   21.9188  -14.4053  -19.5525 N   0  0  0  0  0  0  0  0  0  0  0  0
   23.7516  -19.2138  -14.6442 C   0  0  0  0  0  0  0  0  0  0  0  0
   22.8300  -20.0642  -14.7689 O   0  0  0  0  0  0  0  0  0  0  0  0
   24.6396  -21.8662  -14.7509 C   0  0  0  0  0  0  0  0  0  0  0  0
   25.4544  -21.5166  -13.5272 C   0  0  1  0  0  0  0  0  0  0  0  0
   26.6986  -21.0789  -13.9743 O   0  0  0  0  0  0  0  0  0  0  0  0
   24.8033  -20.4438  -12.6972 C   0  0  2  0  0  0  0  0  0  0  0  0
   24.5942  -19.2751  -13.4879 N   0  0  0  0  0  0  0  0  0  0  0  0
   25.7383  -20.1661  -11.5459 C   0  0  0  0  0  0  0  0  0  0  0  0
   25.9994  -18.9757  -11.2498 O   0  0  0  0  0  0  0  0  0  0  0  0
   26.3229  -21.2174  -10.7982 N   0  0  0  0  0  0  0  0  0  0  0  0
   27.0474  -20.9556   -9.5634 C   0  0  1  0  0  0  0  0  0  0  0  0
   26.1814  -20.1979   -8.6368 C   0  0  0  0  0  0  0  0  0  0  0  0
   26.8405  -19.3136   -7.6856 C   0  0  0  0  0  0  0  0  0  0  0  0
   27.1213  -17.9516   -7.8765 C   0  0  0  0  0  0  0  0  0  0  0  0
   27.7500  -17.5355   -6.7802 N   0  0  0  0  0  0  0  0  0  0  0  0
   27.8906  -18.5395   -5.8996 C   0  0  0  0  0  0  0  0  0  0  0  0
   28.4580  -18.5859   -4.6373 C   0  0  0  0  0  0  0  0  0  0  0  0
   28.4829  -19.7390   -3.8856 C   0  0  0  0  0  0  0  0  0  0  0  0
   27.9144  -20.8745   -4.4349 C   0  0  0  0  0  0  0  0  0  0  0  0
   27.3473  -20.8506   -5.6842 C   0  0  0  0  0  0  0  0  0  0  0  0
   27.3204  -19.6967   -6.4420 C   0  0  0  0  0  0  0  0  0  0  0  0
   27.7181  -22.1530   -9.0818 C   0  0  0  0  0  0  0  0  0  0  0  0
   27.2508  -23.4054   -9.5440 O   0  0  0  0  0  0  0  0  0  0  0  0
   28.6787  -22.2241   -8.2928 O   0  0  0  0  0  0  0  0  0  0  0  0
  2  1  1  6
  3  2  1  0
  3  4  1  0
  5  4  1  0
  6  5  1  0
  7  6  1  0
  8  9  2  0
  8  2  1  0
 11 10  1  6
 11 13  1  0
 12 11  1  0
 13 14  1  6
 14  8  1  0
 15 13  1  0
 15 17  1  0
 16 15  2  0
 18 17  1  0
 18 29  1  0
 18 19  1  1
 19 20  1  0
 20 28  1  0
 21 20  2  0
 21 22  1  0
 22 23  1  0
 23 24  2  0
 24 25  1  0
 26 25  2  0
 27 26  1  0
 28 27  2  0
 28 23  1  0
 29 30  1  0
 31 29  2  0
M  END
$$$$
