KTW.pdb
     RDKit          3D

 31 32  0  0  1  0  0  0  0  0999 V2000
   20.8882  -20.3012  -12.6526 N   0  0  0  0  0  0  0  0  0  0  0  0
   20.9797  -21.5760  -13.2866 C   0  0  1  0  0  0  0  0  0  0  0  0
   20.4170  -21.5436  -14.6840 C   0  0  0  0  0  0  0  0  0  0  0  0
   19.7881  -20.2243  -15.0211 C   0  0  0  0  0  0  0  0  0  0  0  0
   20.7351  -19.2273  -15.6063 C   0  0  0  0  0  0  0  0  0  0  0  0
   21.1394  -19.5221  -17.0284 C   0  0  0  0  0  0  0  0  0  0  0  0
   22.0012  -18.4809  -17.5532 N   0  0  0  0  0  0  0  0  0  0  0  0
   22.3816  -22.0662  -13.2635 C   0  0  0  0  0  0  0  0  0  0  0  0
   22.7367  -23.0918  -13.9040 O   0  0  0  0  0  0  0  0  0  0  0  0
   25.1196  -22.1833  -14.7663 C   0  0  0  0  0  0  0  0  0  0  0  0
   25.5222  -21.3943  -13.5421 C   0  0  1  0  0  0  0  0  0  0  0  0
   25.3240  -20.0480  -13.8384 O   0  0  0  0  0  0  0  0  0  0  0  0
   24.7166  -21.7746  -12.3295 C   0  0  2  0  0  0  0  0  0  0  0  0
   23.3618  -21.3600  -12.4945 N   0  0  0  0  0  0  0  0  0  0  0  0
   25.3613  -21.0840  -11.1530 C   0  0  0  0  0  0  0  0  0  0  0  0
   24.6622  -20.3314  -10.4334 O   0  0  0  0  0  0  0  0  0  0  0  0
   26.7321  -21.2683  -10.8478 N   0  0  0  0  0  0  0  0  0  0  0  0
   27.3601  -20.5702   -9.7359 C   0  0  1  0  0  0  0  0  0  0  0  0
   26.6072  -20.8453   -8.4948 C   0  0  0  0  0  0  0  0  0  0  0  0
   26.9867  -20.0919   -7.3075 C   0  0  0  0  0  0  0  0  0  0  0  0
   26.3824  -18.9122   -6.8456 C   0  0  0  0  0  0  0  0  0  0  0  0
   27.0496  -18.5449   -5.7546 N   0  0  0  0  0  0  0  0  0  0  0  0
   28.0406  -19.4104   -5.4864 C   0  0  0  0  0  0  0  0  0  0  0  0
   28.9777  -19.4520   -4.4677 C   0  0  0  0  0  0  0  0  0  0  0  0
   29.9136  -20.4571   -4.3718 C   0  0  0  0  0  0  0  0  0  0  0  0
   29.8938  -21.4457   -5.3396 C   0  0  0  0  0  0  0  0  0  0  0  0
   28.9743  -21.4232   -6.3578 C   0  0  0  0  0  0  0  0  0  0  0  0
   28.0341  -20.4171   -6.4585 C   0  0  0  0  0  0  0  0  0  0  0  0
   28.8023  -20.7588   -9.7422 C   0  0  0  0  0  0  0  0  0  0  0  0
   29.6084  -19.7208   -9.2194 O   0  0  0  0  0  0  0  0  0  0  0  0
   29.4410  -21.7430  -10.1590 O   0  0  0  0  0  0  0  0  0  0  0  0
  2  1  1  6
  3  2  1  0
  3  4  1  0
  5  4  1  0
  6  5  1  0
  7  6  1  0
  8  9  2  0
  8  2  1  0
 11 10  1  6
 11 13  1  0
 12 11  1  0
 13 14  1  6
 14  8  1  0
 15 13  1  0
 15 17  1  0
 16 15  2  0
 18 17  1  0
 18 29  1  0
 18 19  1  1
 19 20  1  0
 20 28  1  0
 21 20  2  0
 21 22  1  0
 22 23  1  0
 23 24  2  0
 24 25  1  0
 26 25  2  0
 27 26  1  0
 28 27  2  0
 28 23  1  0
 29 30  1  0
 31 29  2  0
M  END
$$$$
