KTW.pdb
     RDKit          3D

 31 32  0  0  1  0  0  0  0  0999 V2000
   29.8095  -17.9795  -17.7454 N   0  0  0  0  0  0  0  0  0  0  0  0
   28.4941  -17.4492  -17.5903 C   0  0  1  0  0  0  0  0  0  0  0  0
   28.1647  -16.4540  -18.6726 C   0  0  0  0  0  0  0  0  0  0  0  0
   29.3900  -15.8869  -19.3257 C   0  0  0  0  0  0  0  0  0  0  0  0
   29.1242  -15.1825  -20.6167 C   0  0  0  0  0  0  0  0  0  0  0  0
   28.2219  -13.9815  -20.4893 C   0  0  0  0  0  0  0  0  0  0  0  0
   28.1315  -13.2604  -21.7438 N   0  0  0  0  0  0  0  0  0  0  0  0
   27.4973  -18.5484  -17.5243 C   0  0  0  0  0  0  0  0  0  0  0  0
   26.9438  -19.0055  -18.5601 O   0  0  0  0  0  0  0  0  0  0  0  0
   27.5810  -21.1988  -18.0915 C   0  0  0  0  0  0  0  0  0  0  0  0
   27.1381  -21.4727  -16.6730 C   0  0  1  0  0  0  0  0  0  0  0  0
   28.2852  -21.7393  -15.9295 O   0  0  0  0  0  0  0  0  0  0  0  0
   26.3991  -20.3078  -16.0724 C   0  0  2  0  0  0  0  0  0  0  0  0
   27.1501  -19.1086  -16.2529 N   0  0  0  0  0  0  0  0  0  0  0  0
   26.2169  -20.6248  -14.6084 C   0  0  0  0  0  0  0  0  0  0  0  0
   26.9796  -20.0858  -13.7714 O   0  0  0  0  0  0  0  0  0  0  0  0
   25.2074  -21.5136  -14.1646 N   0  0  0  0  0  0  0  0  0  0  0  0
   25.0227  -21.8031  -12.7503 C   0  0  1  0  0  0  0  0  0  0  0  0
   24.9553  -20.5357  -11.9940 C   0  0  0  0  0  0  0  0  0  0  0  0
   25.3005  -20.5873  -10.5801 C   0  0  0  0  0  0  0  0  0  0  0  0
   24.6051  -21.2871   -9.5815 C   0  0  0  0  0  0  0  0  0  0  0  0
   25.2381  -21.0453   -8.4364 N   0  0  0  0  0  0  0  0  0  0  0  0
   26.2926  -20.2378   -8.6344 C   0  0  0  0  0  0  0  0  0  0  0  0
   27.2402  -19.7286   -7.7626 C   0  0  0  0  0  0  0  0  0  0  0  0
   28.2660  -18.9145   -8.1871 C   0  0  0  0  0  0  0  0  0  0  0  0
   28.3275  -18.6115   -9.5358 C   0  0  0  0  0  0  0  0  0  0  0  0
   27.3984  -19.1050  -10.4167 C   0  0  0  0  0  0  0  0  0  0  0  0
   26.3676  -19.9214   -9.9956 C   0  0  0  0  0  0  0  0  0  0  0  0
   23.9842  -22.8011  -12.5478 C   0  0  0  0  0  0  0  0  0  0  0  0
   24.1503  -23.7247  -11.4896 O   0  0  0  0  0  0  0  0  0  0  0  0
   22.9360  -22.9547  -13.2021 O   0  0  0  0  0  0  0  0  0  0  0  0
  2  1  1  6
  3  2  1  0
  3  4  1  0
  5  4  1  0
  6  5  1  0
  7  6  1  0
  8  9  2  0
  8  2  1  0
 11 10  1  6
 11 13  1  0
 12 11  1  0
 13 14  1  1
 14  8  1  0
 15 13  1  0
 15 17  1  0
 16 15  2  0
 18 17  1  0
 18 29  1  0
 18 19  1  1
 19 20  1  0
 20 28  1  0
 21 20  2  0
 21 22  1  0
 22 23  1  0
 23 24  2  0
 24 25  1  0
 26 25  2  0
 27 26  1  0
 28 27  2  0
 28 23  1  0
 29 30  1  0
 31 29  2  0
M  END
$$$$
