CLQ.pdb
     RDKit          3D

 24 23  0  0  1  0  0  0  0  0999 V2000
    7.2881  -17.5794   20.6260 N   0  0  0  0  0  0  0  0  0  0  0  0
    7.1621  -17.6487   22.0631 C   0  0  1  0  0  0  0  0  0  0  0  0
    7.9329  -18.8285   22.6220 C   0  0  0  0  0  0  0  0  0  0  0  0
    7.1787  -20.3673   22.0561 S   0  0  0  0  0  0  0  0  0  0  0  0
    7.5890  -16.3873   22.7209 C   0  0  0  0  0  0  0  0  0  0  0  0
    8.4232  -15.6790   22.0947 O   0  0  0  0  0  0  0  0  0  0  0  0
    6.2502  -12.3925   27.3279 C   0  0  0  0  0  0  0  0  0  0  0  0
    7.2394  -12.8974   26.2599 C   0  0  2  0  0  0  0  0  0  0  0  0
    7.5206  -11.7830   25.3054 C   0  0  0  0  0  0  0  0  0  0  0  0
    6.7020  -14.1316   25.5996 C   0  0  0  0  0  0  0  0  0  0  0  0
    7.5824  -14.7801   24.5969 C   0  0  2  0  0  0  0  0  0  0  0  0
    7.1103  -15.9666   23.9808 N   0  0  0  0  0  0  0  0  0  0  0  0
    8.9245  -14.9704   25.2415 C   0  0  0  0  0  0  0  0  0  0  0  0
    9.1586  -14.2786   26.2600 O   0  0  0  0  0  0  0  0  0  0  0  0
    8.7424  -19.0275   28.4118 N   0  0  0  0  0  0  0  0  0  0  0  0
   10.1489  -18.9456   28.5458 C   0  0  0  0  0  0  0  0  0  0  0  0
   10.7350  -19.5214   29.4841 O   0  0  0  0  0  0  0  0  0  0  0  0
   10.9055  -18.1556   27.5387 C   0  0  0  0  0  0  0  0  0  0  0  0
    9.9209  -17.3783   26.6907 C   0  0  0  0  0  0  0  0  0  0  0  0
   10.7232  -16.5865   25.6784 C   0  0  2  0  0  0  0  0  0  0  0  0
    9.8988  -15.8694   24.7586 N   0  0  0  0  0  0  0  0  0  0  0  0
   11.6687  -17.4350   24.9375 C   0  0  0  0  0  0  0  0  0  0  0  0
   11.4654  -17.8254   23.7581 O   0  0  0  0  0  0  0  0  0  0  0  0
   12.8451  -17.8372   25.5423 O   0  0  0  0  0  0  0  0  0  0  0  0
  2  1  1  6
  3  2  1  0
  4  3  1  0
  5  6  2  0
  5  2  1  0
  8 10  1  0
  8  7  1  1
  9  8  1  0
 11 10  1  1
 11 12  1  0
 12  5  1  0
 13 11  1  0
 14 13  2  0
 16 15  1  0
 17 16  2  0
 18 16  1  0
 19 18  1  0
 20 19  1  1
 20 21  1  0
 21 13  1  0
 22 24  1  0
 22 20  1  0
 23 22  2  0
M  END
$$$$
