CLQ.pdb
     RDKit          3D

 24 23  0  0  1  0  0  0  0  0999 V2000
    6.1733  -17.1791   20.7922 N   0  0  0  0  0  0  0  0  0  0  0  0
    6.2029  -17.3021   22.2308 C   0  0  1  0  0  0  0  0  0  0  0  0
    6.9399  -18.5570   22.6558 C   0  0  0  0  0  0  0  0  0  0  0  0
    6.9862  -18.6510   24.4575 S   0  0  0  0  0  0  0  0  0  0  0  0
    6.7943  -16.1043   22.8801 C   0  0  0  0  0  0  0  0  0  0  0  0
    7.8023  -15.5976   22.3172 O   0  0  0  0  0  0  0  0  0  0  0  0
    8.0958  -12.1576   25.5607 C   0  0  0  0  0  0  0  0  0  0  0  0
    6.7123  -12.3915   26.1973 C   0  0  2  0  0  0  0  0  0  0  0  0
    6.8479  -12.2953   27.6820 C   0  0  0  0  0  0  0  0  0  0  0  0
    6.1423  -13.6974   25.7304 C   0  0  0  0  0  0  0  0  0  0  0  0
    6.9026  -14.4090   24.6736 C   0  0  2  0  0  0  0  0  0  0  0  0
    6.2852  -15.5313   24.0658 N   0  0  0  0  0  0  0  0  0  0  0  0
    8.2503  -14.7421   25.2441 C   0  0  0  0  0  0  0  0  0  0  0  0
    8.8189  -13.8378   25.8998 O   0  0  0  0  0  0  0  0  0  0  0  0
   10.5104  -18.0032   29.3284 N   0  0  0  0  0  0  0  0  0  0  0  0
    9.4551  -18.3613   28.4560 C   0  0  0  0  0  0  0  0  0  0  0  0
    9.0423  -19.5370   28.4029 O   0  0  0  0  0  0  0  0  0  0  0  0
    8.8544  -17.2986   27.6071 C   0  0  0  0  0  0  0  0  0  0  0  0
    9.9240  -16.2798   27.2739 C   0  0  0  0  0  0  0  0  0  0  0  0
   10.0942  -16.2794   25.7685 C   0  0  2  0  0  0  0  0  0  0  0  0
    8.8788  -15.9939   25.0747 N   0  0  0  0  0  0  0  0  0  0  0  0
   10.6591  -17.5448   25.2761 C   0  0  0  0  0  0  0  0  0  0  0  0
   10.0441  -18.3153   24.4932 O   0  0  0  0  0  0  0  0  0  0  0  0
   11.9249  -17.9303   25.6772 O   0  0  0  0  0  0  0  0  0  0  0  0
  2  1  1  6
  3  2  1  0
  4  3  1  0
  5  6  2  0
  5  2  1  0
  8 10  1  0
  8  7  1  6
  9  8  1  0
 11 10  1  1
 11 12  1  0
 12  5  1  0
 13 11  1  0
 14 13  2  0
 16 15  1  0
 17 16  2  0
 18 16  1  0
 19 18  1  0
 20 19  1  1
 20 21  1  0
 21 13  1  0
 22 24  1  0
 22 20  1  0
 23 22  2  0
M  END
$$$$
