CLQ.pdb
     RDKit          3D

 24 23  0  0  1  0  0  0  0  0999 V2000
    8.0786  -16.2415   19.9765 N   0  0  0  0  0  0  0  0  0  0  0  0
    7.4674  -16.5815   21.2400 C   0  0  1  0  0  0  0  0  0  0  0  0
    7.7425  -18.0265   21.6076 C   0  0  0  0  0  0  0  0  0  0  0  0
    7.0747  -19.1136   20.3312 S   0  0  0  0  0  0  0  0  0  0  0  0
    7.9028  -15.6732   22.3315 C   0  0  0  0  0  0  0  0  0  0  0  0
    9.0424  -15.1482   22.2075 O   0  0  0  0  0  0  0  0  0  0  0  0
    5.7156  -12.3531   27.1363 C   0  0  0  0  0  0  0  0  0  0  0  0
    6.9122  -12.7965   26.2729 C   0  0  2  0  0  0  0  0  0  0  0  0
    7.5987  -11.5780   25.7473 C   0  0  0  0  0  0  0  0  0  0  0  0
    6.4545  -13.7373   25.1989 C   0  0  0  0  0  0  0  0  0  0  0  0
    7.5185  -14.4306   24.4317 C   0  0  2  0  0  0  0  0  0  0  0  0
    7.1126  -15.3859   23.4658 N   0  0  0  0  0  0  0  0  0  0  0  0
    8.4819  -15.0055   25.4287 C   0  0  0  0  0  0  0  0  0  0  0  0
    8.0098  -15.3163   26.5474 O   0  0  0  0  0  0  0  0  0  0  0  0
    9.0341  -20.0157   24.2824 N   0  0  0  0  0  0  0  0  0  0  0  0
   10.0121  -20.0830   25.3031 C   0  0  0  0  0  0  0  0  0  0  0  0
   10.3944  -21.1832   25.7489 O   0  0  0  0  0  0  0  0  0  0  0  0
   10.5691  -18.8079   25.8272 C   0  0  0  0  0  0  0  0  0  0  0  0
    9.8705  -17.6533   25.1403 C   0  0  0  0  0  0  0  0  0  0  0  0
   10.5110  -16.3751   25.6417 C   0  0  2  0  0  0  0  0  0  0  0  0
    9.8533  -15.2018   25.1613 N   0  0  0  0  0  0  0  0  0  0  0  0
   11.9429  -16.3090   25.3131 C   0  0  0  0  0  0  0  0  0  0  0  0
   12.8128  -17.0227   25.8777 O   0  0  0  0  0  0  0  0  0  0  0  0
   12.3814  -15.4290   24.3411 O   0  0  0  0  0  0  0  0  0  0  0  0
  2  1  1  6
  3  2  1  0
  4  3  1  0
  5  6  2  0
  5  2  1  0
  8 10  1  0
  8  7  1  6
  9  8  1  0
 11 10  1  1
 11 12  1  0
 12  5  1  0
 13 11  1  0
 14 13  2  0
 16 15  1  0
 17 16  2  0
 18 16  1  0
 19 18  1  0
 20 19  1  6
 20 21  1  0
 21 13  1  0
 22 24  1  0
 22 20  1  0
 23 22  2  0
M  END
$$$$
