CLQ.pdb
     RDKit          3D

 24 23  0  0  1  0  0  0  0  0999 V2000
    7.7527  -14.5745   19.9797 N   0  0  0  0  0  0  0  0  0  0  0  0
    7.1676  -15.2945   21.0864 C   0  0  1  0  0  0  0  0  0  0  0  0
    7.1571  -16.7872   20.8214 C   0  0  0  0  0  0  0  0  0  0  0  0
    5.7662  -17.2020   19.7488 S   0  0  0  0  0  0  0  0  0  0  0  0
    7.8539  -14.9970   22.3695 C   0  0  0  0  0  0  0  0  0  0  0  0
    9.1145  -15.0192   22.3533 O   0  0  0  0  0  0  0  0  0  0  0  0
    7.9521  -11.4587   25.5382 C   0  0  0  0  0  0  0  0  0  0  0  0
    6.7176  -12.3792   25.5915 C   0  0  2  0  0  0  0  0  0  0  0  0
    5.7550  -11.8287   26.5928 C   0  0  0  0  0  0  0  0  0  0  0  0
    7.1368  -13.7905   25.8755 C   0  0  0  0  0  0  0  0  0  0  0  0
    7.8597  -14.4955   24.7884 C   0  0  2  0  0  0  0  0  0  0  0  0
    7.1683  -14.7000   23.5676 N   0  0  0  0  0  0  0  0  0  0  0  0
    8.3864  -15.7776   25.3642 C   0  0  0  0  0  0  0  0  0  0  0  0
    7.5955  -16.7497   25.3806 O   0  0  0  0  0  0  0  0  0  0  0  0
   12.8833  -18.5158   23.2754 N   0  0  0  0  0  0  0  0  0  0  0  0
   12.7464  -19.3703   24.3951 C   0  0  0  0  0  0  0  0  0  0  0  0
   13.2767  -20.4991   24.4050 O   0  0  0  0  0  0  0  0  0  0  0  0
   11.9543  -18.8851   25.5562 C   0  0  0  0  0  0  0  0  0  0  0  0
   11.5083  -17.4645   25.2811 C   0  0  0  0  0  0  0  0  0  0  0  0
   10.2388  -17.2282   26.0734 C   0  0  2  0  0  0  0  0  0  0  0  0
    9.6954  -15.9230   25.8706 N   0  0  0  0  0  0  0  0  0  0  0  0
   10.4332  -17.4648   27.5118 C   0  0  0  0  0  0  0  0  0  0  0  0
   10.2755  -16.5712   28.3844 O   0  0  0  0  0  0  0  0  0  0  0  0
   10.8074  -18.7203   27.9536 O   0  0  0  0  0  0  0  0  0  0  0  0
  2  1  1  6
  3  2  1  0
  4  3  1  0
  5  6  2  0
  5  2  1  0
  8 10  1  0
  8  7  1  1
  9  8  1  0
 11 10  1  1
 11 12  1  0
 12  5  1  0
 13 11  1  0
 14 13  2  0
 16 15  1  0
 17 16  2  0
 18 16  1  0
 19 18  1  0
 20 19  1  6
 20 21  1  0
 21 13  1  0
 22 24  1  0
 22 20  1  0
 23 22  2  0
M  END
$$$$
