CLQ.pdb
     RDKit          3D

 24 23  0  0  1  0  0  0  0  0999 V2000
    6.4652  -15.8509   21.1361 N   0  0  0  0  0  0  0  0  0  0  0  0
    7.9064  -15.8087   21.2181 C   0  0  1  0  0  0  0  0  0  0  0  0
    8.4844  -14.8662   20.1807 C   0  0  0  0  0  0  0  0  0  0  0  0
    7.9029  -13.1873   20.4972 S   0  0  0  0  0  0  0  0  0  0  0  0
    8.3763  -15.4399   22.5780 C   0  0  0  0  0  0  0  0  0  0  0  0
    9.6242  -15.3667   22.7429 O   0  0  0  0  0  0  0  0  0  0  0  0
    8.0195  -11.8465   25.5273 C   0  0  0  0  0  0  0  0  0  0  0  0
    6.7466  -12.7143   25.5043 C   0  0  2  0  0  0  0  0  0  0  0  0
    5.7284  -12.0915   26.4030 C   0  0  0  0  0  0  0  0  0  0  0  0
    7.0797  -14.1307   25.8661 C   0  0  0  0  0  0  0  0  0  0  0  0
    7.9959  -14.8486   24.9461 C   0  0  2  0  0  0  0  0  0  0  0  0
    7.5048  -15.1768   23.6572 N   0  0  0  0  0  0  0  0  0  0  0  0
    8.5099  -16.0520   25.6812 C   0  0  0  0  0  0  0  0  0  0  0  0
    7.7138  -17.0117   25.8084 O   0  0  0  0  0  0  0  0  0  0  0  0
   13.6092  -20.1493   24.8637 N   0  0  0  0  0  0  0  0  0  0  0  0
   12.2792  -20.0974   25.3447 C   0  0  0  0  0  0  0  0  0  0  0  0
   11.3880  -20.8050   24.8344 O   0  0  0  0  0  0  0  0  0  0  0  0
   11.9758  -19.1774   26.4728 C   0  0  0  0  0  0  0  0  0  0  0  0
   11.5533  -17.8377   25.9076 C   0  0  0  0  0  0  0  0  0  0  0  0
   10.3155  -17.3989   26.6631 C   0  0  2  0  0  0  0  0  0  0  0  0
    9.8126  -16.1390   26.2160 N   0  0  0  0  0  0  0  0  0  0  0  0
   10.5418  -17.3538   28.1155 C   0  0  0  0  0  0  0  0  0  0  0  0
   10.9140  -18.3523   28.7859 O   0  0  0  0  0  0  0  0  0  0  0  0
   10.3435  -16.1702   28.8019 O   0  0  0  0  0  0  0  0  0  0  0  0
  2  1  1  1
  3  2  1  0
  4  3  1  0
  5  6  2  0
  5  2  1  0
  8 10  1  0
  8  7  1  1
  9  8  1  0
 11 10  1  1
 11 12  1  0
 12  5  1  0
 13 11  1  0
 14 13  2  0
 16 15  1  0
 17 16  2  0
 18 16  1  0
 19 18  1  0
 20 19  1  6
 20 21  1  0
 21 13  1  0
 22 24  1  0
 22 20  1  0
 23 22  2  0
M  END
$$$$
