CLQ.pdb
     RDKit          3D

 24 23  0  0  1  0  0  0  0  0999 V2000
    7.4297  -17.8201   20.8791 N   0  0  0  0  0  0  0  0  0  0  0  0
    6.5241  -17.4278   21.9335 C   0  0  1  0  0  0  0  0  0  0  0  0
    5.8420  -18.6362   22.5443 C   0  0  0  0  0  0  0  0  0  0  0  0
    7.0762  -19.7007   23.3195 S   0  0  0  0  0  0  0  0  0  0  0  0
    7.2048  -16.6267   22.9828 C   0  0  0  0  0  0  0  0  0  0  0  0
    8.4551  -16.7615   23.0729 O   0  0  0  0  0  0  0  0  0  0  0  0
    6.3484  -12.1316   27.2596 C   0  0  0  0  0  0  0  0  0  0  0  0
    7.2816  -13.0941   26.5001 C   0  0  2  0  0  0  0  0  0  0  0  0
    8.3878  -12.2999   25.8854 C   0  0  0  0  0  0  0  0  0  0  0  0
    6.4975  -13.8988   25.5073 C   0  0  0  0  0  0  0  0  0  0  0  0
    7.2062  -15.0387   24.8751 C   0  0  2  0  0  0  0  0  0  0  0  0
    6.5245  -15.7487   23.8545 N   0  0  0  0  0  0  0  0  0  0  0  0
    7.6711  -15.9407   25.9808 C   0  0  0  0  0  0  0  0  0  0  0  0
    6.8154  -16.7175   26.4658 O   0  0  0  0  0  0  0  0  0  0  0  0
   11.4160  -19.7928   24.4959 N   0  0  0  0  0  0  0  0  0  0  0  0
   11.4906  -20.1006   25.8753 C   0  0  0  0  0  0  0  0  0  0  0  0
   12.1019  -21.1131   26.2710 O   0  0  0  0  0  0  0  0  0  0  0  0
   10.8213  -19.1846   26.8364 C   0  0  0  0  0  0  0  0  0  0  0  0
   10.2137  -18.0311   26.0663 C   0  0  0  0  0  0  0  0  0  0  0  0
    9.5243  -17.1306   27.0709 C   0  0  2  0  0  0  0  0  0  0  0  0
    8.9919  -15.9457   26.4772 N   0  0  0  0  0  0  0  0  0  0  0  0
   10.4102  -16.7690   28.1877 C   0  0  0  0  0  0  0  0  0  0  0  0
   10.4008  -17.3667   29.2956 O   0  0  0  0  0  0  0  0  0  0  0  0
   11.3058  -15.7262   28.0400 O   0  0  0  0  0  0  0  0  0  0  0  0
  2  1  1  6
  3  2  1  0
  4  3  1  0
  5  6  2  0
  5  2  1  0
  8 10  1  0
  8  7  1  6
  9  8  1  0
 11 10  1  1
 11 12  1  0
 12  5  1  0
 13 11  1  0
 14 13  2  0
 16 15  1  0
 17 16  2  0
 18 16  1  0
 19 18  1  0
 20 19  1  6
 20 21  1  0
 21 13  1  0
 22 24  1  0
 22 20  1  0
 23 22  2  0
M  END
$$$$
