CLQ.pdb
     RDKit          3D

 24 23  0  0  1  0  0  0  0  0999 V2000
    9.2164  -19.1913   16.2132 N   0  0  0  0  0  0  0  0  0  0  0  0
    8.2521  -18.6538   17.1443 C   0  0  1  0  0  0  0  0  0  0  0  0
    7.7243  -19.7343   18.0676 C   0  0  0  0  0  0  0  0  0  0  0  0
    9.1060  -20.6592   18.7693 S   0  0  0  0  0  0  0  0  0  0  0  0
    8.8073  -17.5217   17.9294 C   0  0  0  0  0  0  0  0  0  0  0  0
   10.0533  -17.3430   17.8576 O   0  0  0  0  0  0  0  0  0  0  0  0
    7.2963  -12.3656   21.1171 C   0  0  0  0  0  0  0  0  0  0  0  0
    8.3499  -13.2844   20.4693 C   0  0  2  0  0  0  0  0  0  0  0  0
    9.1281  -12.4890   19.4723 C   0  0  0  0  0  0  0  0  0  0  0  0
    7.6893  -14.4970   19.8850 C   0  0  0  0  0  0  0  0  0  0  0  0
    8.5879  -15.6014   19.4679 C   0  0  2  0  0  0  0  0  0  0  0  0
    8.0161  -16.6666   18.7271 N   0  0  0  0  0  0  0  0  0  0  0  0
    9.2996  -16.0834   20.6982 C   0  0  0  0  0  0  0  0  0  0  0  0
    8.6709  -16.8827   21.4309 O   0  0  0  0  0  0  0  0  0  0  0  0
   14.5264  -15.0041   20.4327 N   0  0  0  0  0  0  0  0  0  0  0  0
   14.1416  -16.2798   19.9560 C   0  0  0  0  0  0  0  0  0  0  0  0
   14.6010  -16.7263   18.8859 O   0  0  0  0  0  0  0  0  0  0  0  0
   13.1766  -17.0702   20.7652 C   0  0  0  0  0  0  0  0  0  0  0  0
   12.7942  -16.2650   21.9892 C   0  0  0  0  0  0  0  0  0  0  0  0
   11.2866  -16.3337   22.1222 C   0  0  2  0  0  0  0  0  0  0  0  0
   10.6066  -15.6829   21.0480 N   0  0  0  0  0  0  0  0  0  0  0  0
   10.8198  -15.7883   23.4058 C   0  0  0  0  0  0  0  0  0  0  0  0
   10.0192  -14.8207   23.4926 O   0  0  0  0  0  0  0  0  0  0  0  0
   11.2665  -16.3469   24.5889 O   0  0  0  0  0  0  0  0  0  0  0  0
  2  1  1  6
  3  2  1  0
  4  3  1  0
  5  6  2  0
  5  2  1  0
  8 10  1  0
  8  7  1  6
  9  8  1  0
 11 10  1  1
 11 12  1  0
 12  5  1  0
 13 11  1  0
 14 13  2  0
 16 15  1  0
 17 16  2  0
 18 16  1  0
 19 18  1  0
 20 19  1  6
 20 21  1  0
 21 13  1  0
 22 24  1  0
 22 20  1  0
 23 22  2  0
M  END
$$$$
