CLQ.pdb
     RDKit          3D

 24 23  0  0  1  0  0  0  0  0999 V2000
    9.1143  -15.2046   19.5776 N   0  0  0  0  0  0  0  0  0  0  0  0
    8.0471  -15.5464   20.4886 C   0  0  1  0  0  0  0  0  0  0  0  0
    7.7352  -17.0290   20.4316 C   0  0  0  0  0  0  0  0  0  0  0  0
    6.2887  -17.3831   21.4510 S   0  0  0  0  0  0  0  0  0  0  0  0
    8.3494  -15.1298   21.8818 C   0  0  0  0  0  0  0  0  0  0  0  0
    9.5317  -15.3108   22.2806 O   0  0  0  0  0  0  0  0  0  0  0  0
    5.8227  -12.5299   26.9636 C   0  0  0  0  0  0  0  0  0  0  0  0
    7.0968  -12.9320   26.1962 C   0  0  2  0  0  0  0  0  0  0  0  0
    8.0953  -11.8272   26.3176 C   0  0  0  0  0  0  0  0  0  0  0  0
    6.7578  -13.2810   24.7780 C   0  0  0  0  0  0  0  0  0  0  0  0
    7.7322  -14.1378   24.0584 C   0  0  2  0  0  0  0  0  0  0  0  0
    7.3921  -14.5573   22.7474 N   0  0  0  0  0  0  0  0  0  0  0  0
    8.0560  -15.2943   24.9585 C   0  0  0  0  0  0  0  0  0  0  0  0
    7.2425  -16.2477   24.9585 O   0  0  0  0  0  0  0  0  0  0  0  0
   11.9260  -19.0217   22.4221 N   0  0  0  0  0  0  0  0  0  0  0  0
   12.1952  -18.3357   23.6302 C   0  0  0  0  0  0  0  0  0  0  0  0
   13.3299  -17.8729   23.8620 O   0  0  0  0  0  0  0  0  0  0  0  0
   11.0895  -18.1828   24.6125 C   0  0  0  0  0  0  0  0  0  0  0  0
   11.0996  -16.7632   25.1392 C   0  0  0  0  0  0  0  0  0  0  0  0
    9.8645  -16.5918   25.9997 C   0  0  2  0  0  0  0  0  0  0  0  0
    9.2042  -15.3451   25.7770 N   0  0  0  0  0  0  0  0  0  0  0  0
   10.1634  -16.7444   27.4316 C   0  0  0  0  0  0  0  0  0  0  0  0
    9.8446  -17.7645   28.0968 O   0  0  0  0  0  0  0  0  0  0  0  0
   10.8254  -15.7335   28.1033 O   0  0  0  0  0  0  0  0  0  0  0  0
  2  1  1  6
  3  2  1  0
  4  3  1  0
  5  6  2  0
  5  2  1  0
  8 10  1  0
  8  7  1  1
  9  8  1  0
 11 10  1  1
 11 12  1  0
 12  5  1  0
 13 11  1  0
 14 13  2  0
 16 15  1  0
 17 16  2  0
 18 16  1  0
 19 18  1  0
 20 19  1  6
 20 21  1  0
 21 13  1  0
 22 24  1  0
 22 20  1  0
 23 22  2  0
M  END
$$$$
