QKH.pdb
     RDKit          3D

 29 29  0  0  1  0  0  0  0  0999 V2000
   -5.4716  -31.5582   19.8614 N   0  0  0  0  0  0  0  0  0  0  0  0
   -4.9518  -30.5084   19.0657 C   0  0  0  0  0  0  0  0  0  0  0  0
   -4.3058  -30.7670   18.0262 O   0  0  0  0  0  0  0  0  0  0  0  0
   -5.1745  -29.1235   19.4664 C   0  0  0  0  0  0  0  0  0  0  0  0
   -6.0005  -28.9929   20.7285 C   0  0  0  0  0  0  0  0  0  0  0  0
   -5.3951  -27.8623   21.5278 C   0  0  2  0  0  0  0  0  0  0  0  0
   -5.3846  -26.6853   20.7188 N   0  0  0  0  0  0  0  0  0  0  0  0
   -4.0504  -28.2088   22.0505 C   0  0  0  0  0  0  0  0  0  0  0  0
   -3.8485  -29.1839   22.8052 O   0  0  0  0  0  0  0  0  0  0  0  0
   -2.9342  -27.4164   21.6930 N   0  0  0  0  0  0  0  0  0  0  0  0
   -1.5787  -27.6706   22.2055 C   0  0  1  0  0  0  0  0  0  0  0  0
   -0.5608  -26.9999   21.3263 C   0  0  0  0  0  0  0  0  0  0  0  0
    0.8246  -27.3976   21.7419 C   0  0  0  0  0  0  0  0  0  0  0  0
    1.8798  -26.8011   20.7976 C   0  0  0  0  0  0  0  0  0  0  0  0
    3.2327  -27.3053   21.1653 C   0  0  0  0  0  0  0  0  0  0  0  0
    4.2643  -26.7639   20.2825 N   0  0  0  0  0  0  0  0  0  0  0  0
   -1.5031  -27.3348   23.6348 C   0  0  0  0  0  0  0  0  0  0  0  0
   -1.8806  -26.2503   24.1307 O   0  0  0  0  0  0  0  0  0  0  0  0
   -0.9634  -28.2804   24.5982 N   0  0  0  0  0  0  0  0  0  0  0  0
   -0.8220  -27.9444   25.9904 C   0  0  1  0  0  0  0  0  0  0  0  0
   -1.8535  -28.5025   26.8978 C   0  0  0  0  0  0  0  0  0  0  0  0
   -3.1586  -27.8576   26.9235 C   0  0  0  0  0  0  0  0  0  0  0  0
   -3.5913  -26.7432   26.2770 C   0  0  0  0  0  0  0  0  0  0  0  0
   -4.9131  -26.5268   26.5755 N   0  0  0  0  0  0  0  0  0  0  0  0
   -5.2407  -27.5227   27.3973 C   0  0  0  0  0  0  0  0  0  0  0  0
   -4.2121  -28.3314   27.6213 N   0  0  0  0  0  0  0  0  0  0  0  0
    0.5692  -28.2104   26.4735 C   0  0  0  0  0  0  0  0  0  0  0  0
    0.9992  -27.9116   27.7553 O   0  0  0  0  0  0  0  0  0  0  0  0
    1.3978  -28.7309   25.6849 O   0  0  0  0  0  0  0  0  0  0  0  0
  2  1  1  0
  2  3  2  0
  4  2  1  0
  5  4  1  0
  5  6  1  0
  6  7  1  6
  8  6  1  0
  8  9  2  0
 10  8  1  0
 11 10  1  0
 11 12  1  6
 13 12  1  0
 13 14  1  0
 15 14  1  0
 16 15  1  0
 17 11  1  0
 18 17  2  0
 19 17  1  0
 20 19  1  0
 20 27  1  0
 20 21  1  1
 22 23  2  0
 22 21  1  0
 24 23  1  0
 25 26  2  0
 25 24  1  0
 26 22  1  0
 27 28  1  0
 29 27  2  0
M  END
$$$$
