QKH.pdb
     RDKit          3D

 29 29  0  0  1  0  0  0  0  0999 V2000
    7.4187  -12.3974   17.8382 N   0  0  0  0  0  0  0  0  0  0  0  0
    8.1365  -13.3638   17.0924 C   0  0  0  0  0  0  0  0  0  0  0  0
    7.7924  -13.6384   15.9216 O   0  0  0  0  0  0  0  0  0  0  0  0
    9.2799  -14.0371   17.6988 C   0  0  0  0  0  0  0  0  0  0  0  0
    9.2312  -14.0499   19.2120 C   0  0  0  0  0  0  0  0  0  0  0  0
    9.6279  -15.4417   19.6467 C   0  0  2  0  0  0  0  0  0  0  0  0
    9.5040  -16.3223   18.5290 N   0  0  0  0  0  0  0  0  0  0  0  0
    8.8497  -15.8994   20.8242 C   0  0  0  0  0  0  0  0  0  0  0  0
    8.2034  -15.1174   21.5535 O   0  0  0  0  0  0  0  0  0  0  0  0
    8.8233  -17.2747   21.1550 N   0  0  0  0  0  0  0  0  0  0  0  0
    8.2064  -17.7865   22.3887 C   0  0  1  0  0  0  0  0  0  0  0  0
    7.9269  -19.2571   22.2539 C   0  0  0  0  0  0  0  0  0  0  0  0
    7.4316  -19.8115   23.5568 C   0  0  0  0  0  0  0  0  0  0  0  0
    7.1806  -21.3241   23.4564 C   0  0  0  0  0  0  0  0  0  0  0  0
    6.7564  -21.8570   24.7814 C   0  0  0  0  0  0  0  0  0  0  0  0
    6.6759  -23.3165   24.7710 N   0  0  0  0  0  0  0  0  0  0  0  0
    9.0074  -17.3969   23.5585 C   0  0  0  0  0  0  0  0  0  0  0  0
   10.2380  -17.5892   23.6727 O   0  0  0  0  0  0  0  0  0  0  0  0
    8.3937  -16.7379   24.6998 N   0  0  0  0  0  0  0  0  0  0  0  0
    9.1538  -16.3900   25.8712 C   0  0  1  0  0  0  0  0  0  0  0  0
    8.5170  -15.4144   26.7885 C   0  0  0  0  0  0  0  0  0  0  0  0
    9.1577  -15.1689   28.0726 C   0  0  0  0  0  0  0  0  0  0  0  0
   10.2686  -15.7354   28.6132 C   0  0  0  0  0  0  0  0  0  0  0  0
   10.5211  -15.1674   29.8366 N   0  0  0  0  0  0  0  0  0  0  0  0
    9.5502  -14.2699   29.9987 C   0  0  0  0  0  0  0  0  0  0  0  0
    8.7231  -14.2502   28.9606 N   0  0  0  0  0  0  0  0  0  0  0  0
    9.6402  -17.6125   26.5844 C   0  0  0  0  0  0  0  0  0  0  0  0
   10.9418  -17.7649   27.0313 O   0  0  0  0  0  0  0  0  0  0  0  0
    8.8357  -18.5549   26.7941 O   0  0  0  0  0  0  0  0  0  0  0  0
  2  1  1  0
  2  3  2  0
  4  2  1  0
  5  4  1  0
  5  6  1  0
  6  7  1  6
  8  6  1  0
  8  9  2  0
 10  8  1  0
 11 10  1  0
 11 12  1  6
 13 12  1  0
 13 14  1  0
 15 14  1  0
 16 15  1  0
 17 11  1  0
 18 17  2  0
 19 17  1  0
 20 19  1  0
 20 27  1  0
 20 21  1  1
 22 23  2  0
 22 21  1  0
 24 23  1  0
 25 26  2  0
 25 24  1  0
 26 22  1  0
 27 28  1  0
 29 27  2  0
M  END
$$$$
