QKH.pdb
     RDKit          3D

 29 29  0  0  1  0  0  0  0  0999 V2000
   16.4854  -11.8682   18.0542 N   0  0  0  0  0  0  0  0  0  0  0  0
   16.7461  -12.8759   17.0940 C   0  0  0  0  0  0  0  0  0  0  0  0
   17.6439  -12.7130   16.2384 O   0  0  0  0  0  0  0  0  0  0  0  0
   15.9604  -14.1050   17.1091 C   0  0  0  0  0  0  0  0  0  0  0  0
   14.8610  -14.0977   18.1501 C   0  0  0  0  0  0  0  0  0  0  0  0
   14.2181  -15.4646   18.1112 C   0  0  2  0  0  0  0  0  0  0  0  0
   13.6107  -15.6476   16.8316 N   0  0  0  0  0  0  0  0  0  0  0  0
   13.2642  -15.6623   19.2304 C   0  0  0  0  0  0  0  0  0  0  0  0
   13.5871  -15.5157   20.4285 O   0  0  0  0  0  0  0  0  0  0  0  0
   11.9270  -16.0328   18.9541 N   0  0  0  0  0  0  0  0  0  0  0  0
   10.9322  -16.2757   20.0105 C   0  0  1  0  0  0  0  0  0  0  0  0
    9.6420  -16.7521   19.4042 C   0  0  0  0  0  0  0  0  0  0  0  0
    8.6423  -17.0497   20.4822 C   0  0  0  0  0  0  0  0  0  0  0  0
    7.2774  -17.4251   19.8847 C   0  0  0  0  0  0  0  0  0  0  0  0
    6.3051  -17.7067   20.9778 C   0  0  0  0  0  0  0  0  0  0  0  0
    4.9614  -17.9413   20.4523 N   0  0  0  0  0  0  0  0  0  0  0  0
   11.4998  -17.1398   21.0559 C   0  0  0  0  0  0  0  0  0  0  0  0
   11.9398  -18.2944   20.8617 O   0  0  0  0  0  0  0  0  0  0  0  0
   11.5881  -16.6871   22.4346 N   0  0  0  0  0  0  0  0  0  0  0  0
   12.0974  -17.5367   23.4785 C   0  0  1  0  0  0  0  0  0  0  0  0
   13.5707  -17.5413   23.6467 C   0  0  0  0  0  0  0  0  0  0  0  0
   14.1313  -18.3567   24.7148 C   0  0  0  0  0  0  0  0  0  0  0  0
   13.8601  -19.6424   25.0617 C   0  0  0  0  0  0  0  0  0  0  0  0
   14.6577  -20.0083   26.1168 N   0  0  0  0  0  0  0  0  0  0  0  0
   15.3908  -18.9267   26.3762 C   0  0  0  0  0  0  0  0  0  0  0  0
   15.0968  -17.9269   25.5541 N   0  0  0  0  0  0  0  0  0  0  0  0
   11.3752  -17.3027   24.7683 C   0  0  0  0  0  0  0  0  0  0  0  0
   11.5980  -18.0518   25.9113 O   0  0  0  0  0  0  0  0  0  0  0  0
   10.5212  -16.3828   24.8291 O   0  0  0  0  0  0  0  0  0  0  0  0
  2  1  1  0
  2  3  2  0
  4  2  1  0
  5  4  1  0
  5  6  1  0
  6  7  1  6
  8  6  1  0
  8  9  2  0
 10  8  1  0
 11 10  1  0
 11 12  1  6
 13 12  1  0
 13 14  1  0
 15 14  1  0
 16 15  1  0
 17 11  1  0
 18 17  2  0
 19 17  1  0
 20 19  1  0
 20 27  1  0
 20 21  1  1
 22 23  2  0
 22 21  1  0
 24 23  1  0
 25 26  2  0
 25 24  1  0
 26 22  1  0
 27 28  1  0
 29 27  2  0
M  END
$$$$
