QKH.pdb
     RDKit          3D

 29 29  0  0  1  0  0  0  0  0999 V2000
   12.3415  -16.7837   15.8245 N   0  0  0  0  0  0  0  0  0  0  0  0
   11.1561  -17.2412   15.1995 C   0  0  0  0  0  0  0  0  0  0  0  0
   10.7142  -16.6585   14.1847 O   0  0  0  0  0  0  0  0  0  0  0  0
   10.4535  -18.3966   15.7470 C   0  0  0  0  0  0  0  0  0  0  0  0
   11.1832  -19.0454   16.9042 C   0  0  0  0  0  0  0  0  0  0  0  0
   10.3462  -20.2268   17.3368 C   0  0  2  0  0  0  0  0  0  0  0  0
    9.3038  -20.4230   16.3803 N   0  0  0  0  0  0  0  0  0  0  0  0
    9.8312  -20.0668   18.7190 C   0  0  0  0  0  0  0  0  0  0  0  0
   10.4231  -19.3913   19.5876 O   0  0  0  0  0  0  0  0  0  0  0  0
    8.6206  -20.6963   19.0929 N   0  0  0  0  0  0  0  0  0  0  0  0
    8.0947  -20.6618   20.4665 C   0  0  1  0  0  0  0  0  0  0  0  0
    6.7346  -21.2997   20.5143 C   0  0  0  0  0  0  0  0  0  0  0  0
    6.1947  -21.2634   21.9133 C   0  0  0  0  0  0  0  0  0  0  0  0
    4.8263  -21.9571   21.9980 C   0  0  0  0  0  0  0  0  0  0  0  0
    4.3051  -21.8829   23.3917 C   0  0  0  0  0  0  0  0  0  0  0  0
    2.9851  -22.5008   23.5037 N   0  0  0  0  0  0  0  0  0  0  0  0
    9.0856  -21.2079   21.4053 C   0  0  0  0  0  0  0  0  0  0  0  0
    9.6258  -22.3306   21.2946 O   0  0  0  0  0  0  0  0  0  0  0  0
    9.5159  -20.4460   22.5664 N   0  0  0  0  0  0  0  0  0  0  0  0
   10.4245  -20.9957   23.5376 C   0  0  1  0  0  0  0  0  0  0  0  0
   11.7943  -20.4277   23.5350 C   0  0  0  0  0  0  0  0  0  0  0  0
   12.6716  -20.7714   22.4252 C   0  0  0  0  0  0  0  0  0  0  0  0
   12.4531  -21.5943   21.3658 C   0  0  0  0  0  0  0  0  0  0  0  0
   13.5554  -21.5884   20.5485 N   0  0  0  0  0  0  0  0  0  0  0  0
   14.4108  -20.7573   21.1418 C   0  0  0  0  0  0  0  0  0  0  0  0
   13.9083  -20.2557   22.2635 N   0  0  0  0  0  0  0  0  0  0  0  0
    9.8138  -21.0101   24.9038 C   0  0  0  0  0  0  0  0  0  0  0  0
    8.5796  -20.4519   25.1910 O   0  0  0  0  0  0  0  0  0  0  0  0
   10.4435  -21.5535   25.8459 O   0  0  0  0  0  0  0  0  0  0  0  0
  2  1  1  0
  2  3  2  0
  4  2  1  0
  5  4  1  0
  5  6  1  0
  6  7  1  6
  8  6  1  0
  8  9  2  0
 10  8  1  0
 11 10  1  0
 11 12  1  6
 13 12  1  0
 13 14  1  0
 15 14  1  0
 16 15  1  0
 17 11  1  0
 18 17  2  0
 19 17  1  0
 20 19  1  0
 20 27  1  0
 20 21  1  1
 22 23  2  0
 22 21  1  0
 24 23  1  0
 25 26  2  0
 25 24  1  0
 26 22  1  0
 27 28  1  0
 29 27  2  0
M  END
$$$$
