QKH.pdb
     RDKit          3D

 29 29  0  0  1  0  0  0  0  0999 V2000
   13.8806  -13.6726   19.5796 N   0  0  0  0  0  0  0  0  0  0  0  0
   13.2892  -14.3924   18.5131 C   0  0  0  0  0  0  0  0  0  0  0  0
   14.0028  -14.8670   17.6019 O   0  0  0  0  0  0  0  0  0  0  0  0
   11.8423  -14.5766   18.4840 C   0  0  0  0  0  0  0  0  0  0  0  0
   11.1507  -14.0661   19.7304 C   0  0  0  0  0  0  0  0  0  0  0  0
    9.6758  -14.3418   19.5515 C   0  0  2  0  0  0  0  0  0  0  0  0
    9.0452  -13.1566   19.0640 N   0  0  0  0  0  0  0  0  0  0  0  0
    9.0504  -14.8513   20.7967 C   0  0  0  0  0  0  0  0  0  0  0  0
    8.5882  -14.0972   21.6793 O   0  0  0  0  0  0  0  0  0  0  0  0
    8.9620  -16.2461   21.0165 N   0  0  0  0  0  0  0  0  0  0  0  0
    8.4100  -16.8256   22.2510 C   0  0  1  0  0  0  0  0  0  0  0  0
    7.4202  -17.9059   21.9159 C   0  0  0  0  0  0  0  0  0  0  0  0
    7.0384  -18.6606   23.1548 C   0  0  0  0  0  0  0  0  0  0  0  0
    6.0276  -19.7734   22.8370 C   0  0  0  0  0  0  0  0  0  0  0  0
    5.6483  -20.4869   24.0886 C   0  0  0  0  0  0  0  0  0  0  0  0
    4.6887  -21.5576   23.8252 N   0  0  0  0  0  0  0  0  0  0  0  0
    9.4969  -17.2198   23.1592 C   0  0  0  0  0  0  0  0  0  0  0  0
    9.6972  -18.3865   23.5631 O   0  0  0  0  0  0  0  0  0  0  0  0
   10.4435  -16.2384   23.6638 N   0  0  0  0  0  0  0  0  0  0  0  0
   10.5161  -15.9068   25.0623 C   0  0  1  0  0  0  0  0  0  0  0  0
    9.4229  -15.0494   25.5806 C   0  0  0  0  0  0  0  0  0  0  0  0
    9.3863  -14.7839   27.0117 C   0  0  0  0  0  0  0  0  0  0  0  0
   10.2910  -15.0936   27.9775 C   0  0  0  0  0  0  0  0  0  0  0  0
    9.8507  -14.6144   29.1856 N   0  0  0  0  0  0  0  0  0  0  0  0
    8.6874  -14.0261   28.9115 C   0  0  0  0  0  0  0  0  0  0  0  0
    8.3868  -14.1127   27.6214 N   0  0  0  0  0  0  0  0  0  0  0  0
   10.7297  -17.1293   25.8987 C   0  0  0  0  0  0  0  0  0  0  0  0
    9.8236  -18.1743   25.9633 O   0  0  0  0  0  0  0  0  0  0  0  0
   11.7808  -17.2234   26.5810 O   0  0  0  0  0  0  0  0  0  0  0  0
  2  1  1  0
  2  3  2  0
  4  2  1  0
  5  4  1  0
  5  6  1  0
  6  7  1  1
  8  6  1  0
  8  9  2  0
 10  8  1  0
 11 10  1  0
 11 12  1  6
 13 12  1  0
 13 14  1  0
 15 14  1  0
 16 15  1  0
 17 11  1  0
 18 17  2  0
 19 17  1  0
 20 19  1  0
 20 27  1  0
 20 21  1  1
 22 23  2  0
 22 21  1  0
 24 23  1  0
 25 26  2  0
 25 24  1  0
 26 22  1  0
 27 28  1  0
 29 27  2  0
M  END
$$$$
