QKH.pdb
     RDKit          3D

 29 29  0  0  1  0  0  0  0  0999 V2000
   14.3476  -16.7457   17.5042 N   0  0  0  0  0  0  0  0  0  0  0  0
   13.8047  -15.9958   16.4326 C   0  0  0  0  0  0  0  0  0  0  0  0
   14.3566  -16.0114   15.3102 O   0  0  0  0  0  0  0  0  0  0  0  0
   12.5977  -15.2049   16.6464 C   0  0  0  0  0  0  0  0  0  0  0  0
   12.1218  -15.2191   18.0837 C   0  0  0  0  0  0  0  0  0  0  0  0
   10.8043  -15.9590   18.0968 C   0  0  2  0  0  0  0  0  0  0  0  0
    9.8274  -15.1647   17.4225 N   0  0  0  0  0  0  0  0  0  0  0  0
   10.3889  -16.3303   19.4719 C   0  0  0  0  0  0  0  0  0  0  0  0
   10.3754  -15.5145   20.4182 O   0  0  0  0  0  0  0  0  0  0  0  0
    9.9869  -17.6584   19.7478 N   0  0  0  0  0  0  0  0  0  0  0  0
    9.6899  -18.1357   21.1075 C   0  0  1  0  0  0  0  0  0  0  0  0
    8.8350  -19.3704   21.0453 C   0  0  0  0  0  0  0  0  0  0  0  0
    8.4136  -19.7783   22.4260 C   0  0  0  0  0  0  0  0  0  0  0  0
    7.4407  -20.9667   22.3807 C   0  0  0  0  0  0  0  0  0  0  0  0
    7.0622  -21.3656   23.7653 C   0  0  0  0  0  0  0  0  0  0  0  0
    6.0730  -22.4419   23.7612 N   0  0  0  0  0  0  0  0  0  0  0  0
   10.9308  -18.2610   21.8859 C   0  0  0  0  0  0  0  0  0  0  0  0
   12.0511  -18.5291   21.3986 O   0  0  0  0  0  0  0  0  0  0  0  0
   10.9320  -18.0733   23.3276 N   0  0  0  0  0  0  0  0  0  0  0  0
   11.8595  -17.1826   23.9736 C   0  0  1  0  0  0  0  0  0  0  0  0
   12.0630  -15.8709   23.3125 C   0  0  0  0  0  0  0  0  0  0  0  0
   13.1797  -15.7409   22.3874 C   0  0  0  0  0  0  0  0  0  0  0  0
   14.1382  -16.6428   22.0482 C   0  0  0  0  0  0  0  0  0  0  0  0
   14.9711  -16.0913   21.1074 N   0  0  0  0  0  0  0  0  0  0  0  0
   14.4876  -14.8666   20.9053 C   0  0  0  0  0  0  0  0  0  0  0  0
   13.4186  -14.6318   21.6564 N   0  0  0  0  0  0  0  0  0  0  0  0
   11.5537  -17.0466   25.4323 C   0  0  0  0  0  0  0  0  0  0  0  0
   10.3175  -16.6535   25.9167 O   0  0  0  0  0  0  0  0  0  0  0  0
   12.4565  -17.2993   26.2692 O   0  0  0  0  0  0  0  0  0  0  0  0
  2  1  1  0
  2  3  2  0
  4  2  1  0
  5  4  1  0
  5  6  1  0
  6  7  1  1
  8  6  1  0
  8  9  2  0
 10  8  1  0
 11 10  1  0
 11 12  1  6
 13 12  1  0
 13 14  1  0
 15 14  1  0
 16 15  1  0
 17 11  1  0
 18 17  2  0
 19 17  1  0
 20 19  1  0
 20 27  1  0
 20 21  1  6
 22 23  2  0
 22 21  1  0
 24 23  1  0
 25 26  2  0
 25 24  1  0
 26 22  1  0
 27 28  1  0
 29 27  2  0
M  END
$$$$
