QKH.pdb
     RDKit          3D

 29 29  0  0  1  0  0  0  0  0999 V2000
    6.9688  -12.7404   16.0176 N   0  0  0  0  0  0  0  0  0  0  0  0
    7.1577  -13.9657   15.3333 C   0  0  0  0  0  0  0  0  0  0  0  0
    6.7013  -14.1188   14.1788 O   0  0  0  0  0  0  0  0  0  0  0  0
    7.8879  -15.0482   15.9838 C   0  0  0  0  0  0  0  0  0  0  0  0
    8.3616  -14.6951   17.3778 C   0  0  0  0  0  0  0  0  0  0  0  0
    9.1640  -15.8752   17.8749 C   0  0  2  0  0  0  0  0  0  0  0  0
    8.3810  -17.0593   17.7170 N   0  0  0  0  0  0  0  0  0  0  0  0
    9.6324  -15.6813   19.2693 C   0  0  0  0  0  0  0  0  0  0  0  0
   10.3972  -14.7513   19.6029 O   0  0  0  0  0  0  0  0  0  0  0  0
    9.2086  -16.5744   20.2814 N   0  0  0  0  0  0  0  0  0  0  0  0
    9.7416  -16.5374   21.6522 C   0  0  1  0  0  0  0  0  0  0  0  0
    8.8897  -17.3799   22.5597 C   0  0  0  0  0  0  0  0  0  0  0  0
    9.4989  -17.4445   23.9290 C   0  0  0  0  0  0  0  0  0  0  0  0
    8.6768  -18.3491   24.8598 C   0  0  0  0  0  0  0  0  0  0  0  0
    9.2241  -18.2843   26.2439 C   0  0  0  0  0  0  0  0  0  0  0  0
    8.5224  -19.2005   27.1410 N   0  0  0  0  0  0  0  0  0  0  0  0
   11.1765  -16.8578   21.6498 C   0  0  0  0  0  0  0  0  0  0  0  0
   11.6607  -17.9463   21.2687 O   0  0  0  0  0  0  0  0  0  0  0  0
   12.1600  -15.8904   22.1086 N   0  0  0  0  0  0  0  0  0  0  0  0
   13.5617  -16.2097   22.1737 C   0  0  1  0  0  0  0  0  0  0  0  0
   14.4816  -15.2018   21.5931 C   0  0  0  0  0  0  0  0  0  0  0  0
   14.3185  -14.8615   20.1869 C   0  0  0  0  0  0  0  0  0  0  0  0
   13.7697  -15.5837   19.1748 C   0  0  0  0  0  0  0  0  0  0  0  0
   13.8009  -14.8456   18.0184 N   0  0  0  0  0  0  0  0  0  0  0  0
   14.3703  -13.6934   18.3690 C   0  0  0  0  0  0  0  0  0  0  0  0
   14.6887  -13.6765   19.6575 N   0  0  0  0  0  0  0  0  0  0  0  0
   13.9607  -16.6186   23.5569 C   0  0  0  0  0  0  0  0  0  0  0  0
   15.2139  -17.1167   23.8709 O   0  0  0  0  0  0  0  0  0  0  0  0
   13.1246  -16.5089   24.4887 O   0  0  0  0  0  0  0  0  0  0  0  0
  2  1  1  0
  2  3  2  0
  4  2  1  0
  5  4  1  0
  5  6  1  0
  6  7  1  1
  8  6  1  0
  8  9  2  0
 10  8  1  0
 11 10  1  0
 11 12  1  1
 13 12  1  0
 13 14  1  0
 15 14  1  0
 16 15  1  0
 17 11  1  0
 18 17  2  0
 19 17  1  0
 20 19  1  0
 20 27  1  0
 20 21  1  1
 22 23  2  0
 22 21  1  0
 24 23  1  0
 25 26  2  0
 25 24  1  0
 26 22  1  0
 27 28  1  0
 29 27  2  0
M  END
$$$$
