QKH.pdb
     RDKit          3D

 29 29  0  0  1  0  0  0  0  0999 V2000
   10.5037  -19.7446   15.4612 N   0  0  0  0  0  0  0  0  0  0  0  0
   11.7702  -19.1417   15.6558 C   0  0  0  0  0  0  0  0  0  0  0  0
   12.7880  -19.8518   15.8124 O   0  0  0  0  0  0  0  0  0  0  0  0
   11.8800  -17.6871   15.6725 C   0  0  0  0  0  0  0  0  0  0  0  0
   10.5828  -16.9868   15.3269 C   0  0  0  0  0  0  0  0  0  0  0  0
   10.8536  -15.5030   15.4181 C   0  0  2  0  0  0  0  0  0  0  0  0
   11.9894  -15.1952   14.6088 N   0  0  0  0  0  0  0  0  0  0  0  0
   11.0134  -15.0524   16.8227 C   0  0  0  0  0  0  0  0  0  0  0  0
   12.1306  -14.8713   17.3522 O   0  0  0  0  0  0  0  0  0  0  0  0
    9.8670  -14.8110   17.6159 N   0  0  0  0  0  0  0  0  0  0  0  0
    9.9431  -14.2932   18.9909 C   0  0  1  0  0  0  0  0  0  0  0  0
    8.5987  -13.7786   19.4233 C   0  0  0  0  0  0  0  0  0  0  0  0
    8.6794  -13.2257   20.8154 C   0  0  0  0  0  0  0  0  0  0  0  0
    7.3044  -12.7406   21.3001 C   0  0  0  0  0  0  0  0  0  0  0  0
    7.4110  -12.2230   22.6931 C   0  0  0  0  0  0  0  0  0  0  0  0
    6.1180  -11.7594   23.1928 N   0  0  0  0  0  0  0  0  0  0  0  0
   10.5561  -15.2922   19.8784 C   0  0  0  0  0  0  0  0  0  0  0  0
   10.4036  -16.5289   19.7684 O   0  0  0  0  0  0  0  0  0  0  0  0
   11.4114  -14.8881   20.9823 N   0  0  0  0  0  0  0  0  0  0  0  0
   12.0172  -15.8524   21.8622 C   0  0  1  0  0  0  0  0  0  0  0  0
   13.4125  -15.5647   22.2738 C   0  0  0  0  0  0  0  0  0  0  0  0
   14.4514  -15.6397   21.2566 C   0  0  0  0  0  0  0  0  0  0  0  0
   14.6072  -16.5228   20.2354 C   0  0  0  0  0  0  0  0  0  0  0  0
   15.7189  -16.1847   19.5053 N   0  0  0  0  0  0  0  0  0  0  0  0
   16.2033  -15.1014   20.1106 C   0  0  0  0  0  0  0  0  0  0  0  0
   15.4657  -14.7548   21.1584 N   0  0  0  0  0  0  0  0  0  0  0  0
   11.1283  -16.1565   23.0271 C   0  0  0  0  0  0  0  0  0  0  0  0
    9.9076  -15.5368   23.2345 O   0  0  0  0  0  0  0  0  0  0  0  0
   11.4979  -17.0160   23.8662 O   0  0  0  0  0  0  0  0  0  0  0  0
  2  1  1  0
  2  3  2  0
  4  2  1  0
  5  4  1  0
  5  6  1  0
  6  7  1  6
  8  6  1  0
  8  9  2  0
 10  8  1  0
 11 10  1  0
 11 12  1  1
 13 12  1  0
 13 14  1  0
 15 14  1  0
 16 15  1  0
 17 11  1  0
 18 17  2  0
 19 17  1  0
 20 19  1  0
 20 27  1  0
 20 21  1  1
 22 23  2  0
 22 21  1  0
 24 23  1  0
 25 26  2  0
 25 24  1  0
 26 22  1  0
 27 28  1  0
 29 27  2  0
M  END
$$$$
