QKH.pdb
     RDKit          3D

 29 29  0  0  1  0  0  0  0  0999 V2000
    7.7122  -20.3860   18.2075 N   0  0  0  0  0  0  0  0  0  0  0  0
    8.9238  -19.7542   18.5793 C   0  0  0  0  0  0  0  0  0  0  0  0
    9.9322  -20.4403   18.8571 O   0  0  0  0  0  0  0  0  0  0  0  0
    8.9881  -18.2979   18.6365 C   0  0  0  0  0  0  0  0  0  0  0  0
    7.6682  -17.6292   18.3153 C   0  0  0  0  0  0  0  0  0  0  0  0
    7.8984  -16.1399   18.4262 C   0  0  2  0  0  0  0  0  0  0  0  0
    8.6535  -15.7086   17.2931 N   0  0  0  0  0  0  0  0  0  0  0  0
    8.5374  -15.7704   19.7133 C   0  0  0  0  0  0  0  0  0  0  0  0
    9.7561  -15.5138   19.8145 O   0  0  0  0  0  0  0  0  0  0  0  0
    7.7542  -15.6991   20.8893 N   0  0  0  0  0  0  0  0  0  0  0  0
    8.2724  -15.1735   22.1620 C   0  0  1  0  0  0  0  0  0  0  0  0
    7.1898  -14.4282   22.8912 C   0  0  0  0  0  0  0  0  0  0  0  0
    7.7152  -13.8917   24.1898 C   0  0  0  0  0  0  0  0  0  0  0  0
    6.6379  -13.0881   24.9344 C   0  0  0  0  0  0  0  0  0  0  0  0
    7.1990  -12.5386   26.2004 C   0  0  0  0  0  0  0  0  0  0  0  0
    6.1831  -11.8240   26.9711 N   0  0  0  0  0  0  0  0  0  0  0  0
    8.9311  -16.2439   22.9249 C   0  0  0  0  0  0  0  0  0  0  0  0
    8.4887  -17.4079   23.0425 O   0  0  0  0  0  0  0  0  0  0  0  0
   10.1872  -16.0056   23.6170 N   0  0  0  0  0  0  0  0  0  0  0  0
   10.8206  -17.0273   24.4080 C   0  0  1  0  0  0  0  0  0  0  0  0
   12.2543  -17.2724   24.1190 C   0  0  0  0  0  0  0  0  0  0  0  0
   12.6004  -17.8379   22.8228 C   0  0  0  0  0  0  0  0  0  0  0  0
   11.7932  -18.2780   21.8219 C   0  0  0  0  0  0  0  0  0  0  0  0
   12.5629  -18.6989   20.7667 N   0  0  0  0  0  0  0  0  0  0  0  0
   13.8185  -18.4986   21.1640 C   0  0  0  0  0  0  0  0  0  0  0  0
   13.8692  -17.9855   22.3872 N   0  0  0  0  0  0  0  0  0  0  0  0
   10.5579  -16.8237   25.8672 C   0  0  0  0  0  0  0  0  0  0  0  0
    9.8513  -15.7440   26.3693 O   0  0  0  0  0  0  0  0  0  0  0  0
   10.9958  -17.6688   26.6878 O   0  0  0  0  0  0  0  0  0  0  0  0
  2  1  1  0
  2  3  2  0
  4  2  1  0
  5  4  1  0
  5  6  1  0
  6  7  1  6
  8  6  1  0
  8  9  2  0
 10  8  1  0
 11 10  1  0
 11 12  1  1
 13 12  1  0
 13 14  1  0
 15 14  1  0
 16 15  1  0
 17 11  1  0
 18 17  2  0
 19 17  1  0
 20 19  1  0
 20 27  1  0
 20 21  1  1
 22 23  2  0
 22 21  1  0
 24 23  1  0
 25 26  2  0
 25 24  1  0
 26 22  1  0
 27 28  1  0
 29 27  2  0
M  END
$$$$
