GHI.pdb
     RDKit          3D

 23 23  0  0  1  0  0  0  0  0999 V2000
   21.3944  -15.6492  -18.7585 N   0  0  0  0  0  0  0  0  0  0  0  0
   21.5347  -14.2465  -18.9801 C   0  0  0  0  0  0  0  0  0  0  0  0
   21.9839  -13.5236  -17.7423 C   0  0  0  0  0  0  0  0  0  0  0  0
   21.6959  -13.9510  -16.5953 O   0  0  0  0  0  0  0  0  0  0  0  0
   22.7522  -12.3281  -17.8153 N   0  0  0  0  0  0  0  0  0  0  0  0
   23.1525  -11.5655  -16.6713 C   0  0  1  0  0  0  0  0  0  0  0  0
   24.6655  -11.5782  -16.4767 C   0  0  0  0  0  0  0  0  0  0  0  0
   25.1809  -12.9367  -16.2741 C   0  0  0  0  0  0  0  0  0  0  0  0
   25.6651  -13.7697  -17.2608 C   0  0  0  0  0  0  0  0  0  0  0  0
   26.0400  -14.9215  -16.6773 N   0  0  0  0  0  0  0  0  0  0  0  0
   25.8135  -14.8498  -15.3704 C   0  0  0  0  0  0  0  0  0  0  0  0
   25.2871  -13.6302  -15.1323 N   0  0  0  0  0  0  0  0  0  0  0  0
   22.6128  -10.1924  -16.6646 C   0  0  0  0  0  0  0  0  0  0  0  0
   22.6952   -9.5327  -17.7331 O   0  0  0  0  0  0  0  0  0  0  0  0
   18.3469   -6.7835  -17.3276 C   0  0  0  0  0  0  0  0  0  0  0  0
   19.6203   -6.8652  -16.4988 C   0  0  0  0  0  0  0  0  0  0  0  0
   20.1860   -8.2449  -16.4497 C   0  0  2  0  0  0  0  0  0  0  0  0
   19.1235   -9.1932  -15.9671 C   0  0  0  0  0  0  0  0  0  0  0  0
   21.4305   -8.2690  -15.6209 C   0  0  2  0  0  0  0  0  0  0  0  0
   22.0154   -9.5860  -15.5357 N   0  0  0  0  0  0  0  0  0  0  0  0
   21.2644   -7.6935  -14.2762 C   0  0  0  0  0  0  0  0  0  0  0  0
   21.1860   -6.3059  -14.0910 O   0  0  0  0  0  0  0  0  0  0  0  0
   21.1859   -8.3998  -13.2451 O   0  0  0  0  0  0  0  0  0  0  0  0
  2  3  1  0
  2  1  1  0
  3  5  1  0
  4  3  2  0
  5  6  1  0
  6 13  1  0
  7  8  1  0
  6  7  1  6
  8 12  1  0
  9 10  1  0
  9  8  2  0
 10 11  1  0
 11 12  2  0
 13 14  2  0
 13 20  1  0
 15 16  1  0
 17 16  1  0
 17 18  1  1
 19 17  1  0
 19 21  1  0
 19 20  1  1
 21 22  1  0
 23 21  2  0
M  END
$$$$
