GHI.pdb
     RDKit          3D

 23 23  0  0  1  0  0  0  0  0999 V2000
   18.7837  -17.2609  -16.1403 N   0  0  0  0  0  0  0  0  0  0  0  0
   20.1373  -17.1854  -16.5856 C   0  0  0  0  0  0  0  0  0  0  0  0
   21.0799  -17.8745  -15.6405 C   0  0  0  0  0  0  0  0  0  0  0  0
   21.4131  -17.3461  -14.5492 O   0  0  0  0  0  0  0  0  0  0  0  0
   21.6337  -19.1507  -15.9394 N   0  0  0  0  0  0  0  0  0  0  0  0
   22.6194  -19.8023  -15.1304 C   0  0  1  0  0  0  0  0  0  0  0  0
   22.2156  -21.2303  -14.7768 C   0  0  0  0  0  0  0  0  0  0  0  0
   20.9292  -21.2782  -14.0732 C   0  0  0  0  0  0  0  0  0  0  0  0
   20.1794  -20.1858  -13.6909 C   0  0  0  0  0  0  0  0  0  0  0  0
   19.0741  -20.6421  -13.0763 N   0  0  0  0  0  0  0  0  0  0  0  0
   19.0956  -21.9700  -13.0554 C   0  0  0  0  0  0  0  0  0  0  0  0
   20.2358  -22.3511  -13.6685 N   0  0  0  0  0  0  0  0  0  0  0  0
   23.9780  -19.7450  -15.7028 C   0  0  0  0  0  0  0  0  0  0  0  0
   24.0790  -19.7619  -16.9571 O   0  0  0  0  0  0  0  0  0  0  0  0
   28.9969  -20.0743  -13.4305 C   0  0  0  0  0  0  0  0  0  0  0  0
   27.6758  -19.3196  -13.4358 C   0  0  0  0  0  0  0  0  0  0  0  0
   27.3854  -18.6794  -14.7518 C   0  0  2  0  0  0  0  0  0  0  0  0
   26.8751  -17.2847  -14.5161 C   0  0  0  0  0  0  0  0  0  0  0  0
   26.4515  -19.5309  -15.5511 C   0  0  2  0  0  0  0  0  0  0  0  0
   25.1576  -19.6731  -14.9267 N   0  0  0  0  0  0  0  0  0  0  0  0
   26.9991  -20.8512  -15.9029 C   0  0  0  0  0  0  0  0  0  0  0  0
   28.0397  -20.9746  -16.8345 O   0  0  0  0  0  0  0  0  0  0  0  0
   26.5724  -21.9148  -15.3981 O   0  0  0  0  0  0  0  0  0  0  0  0
  2  3  1  0
  2  1  1  0
  3  5  1  0
  4  3  2  0
  5  6  1  0
  6 13  1  0
  7  8  1  0
  6  7  1  6
  8 12  1  0
  9 10  1  0
  9  8  2  0
 10 11  1  0
 11 12  2  0
 13 14  2  0
 13 20  1  0
 15 16  1  0
 17 16  1  0
 17 18  1  1
 19 17  1  0
 19 21  1  0
 19 20  1  1
 21 22  1  0
 23 21  2  0
M  END
$$$$
