GHI.pdb
     RDKit          3D

 23 23  0  0  1  0  0  0  0  0999 V2000
   28.7221  -22.7379  -16.8359 N   0  0  0  0  0  0  0  0  0  0  0  0
   27.3834  -22.8472  -16.3539 C   0  0  0  0  0  0  0  0  0  0  0  0
   27.0295  -21.7274  -15.4172 C   0  0  0  0  0  0  0  0  0  0  0  0
   27.9190  -21.0192  -14.8801 O   0  0  0  0  0  0  0  0  0  0  0  0
   25.6767  -21.4217  -15.0991 N   0  0  0  0  0  0  0  0  0  0  0  0
   25.2865  -20.4689  -14.1039 C   0  0  1  0  0  0  0  0  0  0  0  0
   24.1352  -19.5871  -14.5771 C   0  0  0  0  0  0  0  0  0  0  0  0
   24.5251  -18.7348  -15.7058 C   0  0  0  0  0  0  0  0  0  0  0  0
   25.8044  -18.5878  -16.1993 C   0  0  0  0  0  0  0  0  0  0  0  0
   25.7495  -17.7262  -17.2300 N   0  0  0  0  0  0  0  0  0  0  0  0
   24.4953  -17.3259  -17.4059 C   0  0  0  0  0  0  0  0  0  0  0  0
   23.7520  -17.9489  -16.4676 N   0  0  0  0  0  0  0  0  0  0  0  0
   25.0039  -21.0771  -12.7898 C   0  0  0  0  0  0  0  0  0  0  0  0
   24.5001  -22.2302  -12.7817 O   0  0  0  0  0  0  0  0  0  0  0  0
   26.8514  -19.1634   -7.5899 C   0  0  0  0  0  0  0  0  0  0  0  0
   25.8851  -19.4502   -8.7296 C   0  0  0  0  0  0  0  0  0  0  0  0
   26.0210  -20.8372   -9.2625 C   0  0  2  0  0  0  0  0  0  0  0  0
   27.4275  -21.0370   -9.7555 C   0  0  0  0  0  0  0  0  0  0  0  0
   24.9795  -21.1006  -10.3026 C   0  0  2  0  0  0  0  0  0  0  0  0
   25.2657  -20.4410  -11.5545 N   0  0  0  0  0  0  0  0  0  0  0  0
   23.6073  -20.7970   -9.8649 C   0  0  0  0  0  0  0  0  0  0  0  0
   22.8456  -19.8135  -10.5118 O   0  0  0  0  0  0  0  0  0  0  0  0
   23.0573  -21.3903   -8.9090 O   0  0  0  0  0  0  0  0  0  0  0  0
  2  3  1  0
  2  1  1  0
  3  5  1  0
  4  3  2  0
  5  6  1  0
  6 13  1  0
  7  8  1  0
  6  7  1  6
  8 12  1  0
  9 10  1  0
  9  8  2  0
 10 11  1  0
 11 12  2  0
 13 14  2  0
 13 20  1  0
 15 16  1  0
 17 16  1  0
 17 18  1  6
 19 17  1  0
 19 21  1  0
 19 20  1  6
 21 22  1  0
 23 21  2  0
M  END
$$$$
