GHI.pdb
     RDKit          3D

 23 23  0  0  1  0  0  0  0  0999 V2000
   27.2696  -17.2440  -15.3276 N   0  0  0  0  0  0  0  0  0  0  0  0
   27.8227  -17.9462  -14.2153 C   0  0  0  0  0  0  0  0  0  0  0  0
   26.8064  -18.8245  -13.5426 C   0  0  0  0  0  0  0  0  0  0  0  0
   25.6098  -18.4597  -13.4153 O   0  0  0  0  0  0  0  0  0  0  0  0
   27.1541  -20.1025  -13.0225 N   0  0  0  0  0  0  0  0  0  0  0  0
   26.2238  -20.9843  -12.3840 C   0  0  1  0  0  0  0  0  0  0  0  0
   26.0870  -22.3082  -13.1296 C   0  0  0  0  0  0  0  0  0  0  0  0
   25.5706  -22.1206  -14.4898 C   0  0  0  0  0  0  0  0  0  0  0  0
   24.2655  -22.3167  -14.8897 C   0  0  0  0  0  0  0  0  0  0  0  0
   24.1939  -22.0423  -16.2040 N   0  0  0  0  0  0  0  0  0  0  0  0
   25.3935  -21.6831  -16.6471 C   0  0  0  0  0  0  0  0  0  0  0  0
   26.2308  -21.7340  -15.5900 N   0  0  0  0  0  0  0  0  0  0  0  0
   26.5030  -21.1916  -10.9502 C   0  0  0  0  0  0  0  0  0  0  0  0
   27.6824  -21.4884  -10.6269 O   0  0  0  0  0  0  0  0  0  0  0  0
   28.1457  -19.3085   -6.1208 C   0  0  0  0  0  0  0  0  0  0  0  0
   27.3224  -20.4478   -6.7029 C   0  0  0  0  0  0  0  0  0  0  0  0
   26.8786  -20.1793   -8.1018 C   0  0  2  0  0  0  0  0  0  0  0  0
   26.3626  -18.7696   -8.1901 C   0  0  0  0  0  0  0  0  0  0  0  0
   25.8860  -21.2081   -8.5406 C   0  0  2  0  0  0  0  0  0  0  0  0
   25.5279  -21.0760   -9.9328 N   0  0  0  0  0  0  0  0  0  0  0  0
   24.6768  -21.2676   -7.7033 C   0  0  0  0  0  0  0  0  0  0  0  0
   23.4174  -20.9532   -8.2332 O   0  0  0  0  0  0  0  0  0  0  0  0
   24.7082  -21.5961   -6.4953 O   0  0  0  0  0  0  0  0  0  0  0  0
  2  3  1  0
  2  1  1  0
  3  5  1  0
  4  3  2  0
  5  6  1  0
  6 13  1  0
  7  8  1  0
  6  7  1  6
  8 12  1  0
  9 10  1  0
  9  8  2  0
 10 11  1  0
 11 12  2  0
 13 14  2  0
 13 20  1  0
 15 16  1  0
 17 16  1  0
 17 18  1  1
 19 17  1  0
 19 21  1  0
 19 20  1  6
 21 22  1  0
 23 21  2  0
M  END
$$$$
