GHI.pdb
     RDKit          3D

 23 23  0  0  1  0  0  0  0  0999 V2000
   24.4340  -14.0230  -17.0448 N   0  0  0  0  0  0  0  0  0  0  0  0
   23.8782  -14.5635  -15.8468 C   0  0  0  0  0  0  0  0  0  0  0  0
   23.7249  -16.0560  -15.9210 C   0  0  0  0  0  0  0  0  0  0  0  0
   23.1833  -16.6085  -16.9122 O   0  0  0  0  0  0  0  0  0  0  0  0
   24.1847  -16.9049  -14.8758 N   0  0  0  0  0  0  0  0  0  0  0  0
   24.0724  -18.3323  -14.8992 C   0  0  1  0  0  0  0  0  0  0  0  0
   25.3661  -19.0148  -14.4659 C   0  0  0  0  0  0  0  0  0  0  0  0
   26.4874  -18.6757  -15.3490 C   0  0  0  0  0  0  0  0  0  0  0  0
   26.4195  -17.8624  -16.4606 C   0  0  0  0  0  0  0  0  0  0  0  0
   27.6502  -17.7992  -16.9980 N   0  0  0  0  0  0  0  0  0  0  0  0
   28.4871  -18.5351  -16.2753 C   0  0  0  0  0  0  0  0  0  0  0  0
   27.7660  -19.0684  -15.2670 N   0  0  0  0  0  0  0  0  0  0  0  0
   22.9089  -18.8406  -14.1479 C   0  0  0  0  0  0  0  0  0  0  0  0
   22.7864  -18.4718  -12.9510 O   0  0  0  0  0  0  0  0  0  0  0  0
   18.6721  -17.7672  -16.0346 C   0  0  0  0  0  0  0  0  0  0  0  0
   19.4530  -18.1871  -14.7981 C   0  0  0  0  0  0  0  0  0  0  0  0
   19.4923  -19.6679  -14.6191 C   0  0  2  0  0  0  0  0  0  0  0  0
   18.2523  -20.1063  -13.8901 C   0  0  0  0  0  0  0  0  0  0  0  0
   20.7608  -20.0777  -13.9417 C   0  0  2  0  0  0  0  0  0  0  0  0
   21.9363  -19.7093  -14.6944 N   0  0  0  0  0  0  0  0  0  0  0  0
   20.8106  -21.5032  -13.5777 C   0  0  0  0  0  0  0  0  0  0  0  0
   20.1169  -21.9858  -12.4590 O   0  0  0  0  0  0  0  0  0  0  0  0
   21.4634  -22.3451  -14.2360 O   0  0  0  0  0  0  0  0  0  0  0  0
  2  3  1  0
  2  1  1  0
  3  5  1  0
  4  3  2  0
  5  6  1  0
  6 13  1  0
  7  8  1  0
  6  7  1  1
  8 12  1  0
  9 10  1  0
  9  8  2  0
 10 11  1  0
 11 12  2  0
 13 14  2  0
 13 20  1  0
 15 16  1  0
 17 16  1  0
 17 18  1  1
 19 17  1  0
 19 21  1  0
 19 20  1  6
 21 22  1  0
 23 21  2  0
M  END
$$$$
