FWK.pdb
     RDKit          3D

 35 37  0  0  1  0  0  0  0  0999 V2000
    8.2435  -16.5083   20.0519 N   0  0  0  0  0  0  0  0  0  0  0  0
    9.6038  -16.1973   20.3856 C   0  0  1  0  0  0  0  0  0  0  0  0
   10.0106  -14.8339   19.8597 C   0  0  0  0  0  0  0  0  0  0  0  0
    8.8452  -14.1998   19.2039 C   0  0  0  0  0  0  0  0  0  0  0  0
    7.9995  -13.3468   19.8563 C   0  0  0  0  0  0  0  0  0  0  0  0
    6.9260  -12.7739   19.2203 C   0  0  0  0  0  0  0  0  0  0  0  0
    6.6987  -13.0689   17.8895 C   0  0  0  0  0  0  0  0  0  0  0  0
    7.5508  -13.9372   17.2067 C   0  0  0  0  0  0  0  0  0  0  0  0
    8.6201  -14.4934   17.8817 C   0  0  0  0  0  0  0  0  0  0  0  0
    9.8028  -16.1694   21.8695 C   0  0  0  0  0  0  0  0  0  0  0  0
   10.9249  -15.8815   22.3566 O   0  0  0  0  0  0  0  0  0  0  0  0
    8.6931  -16.4760   22.6999 N   0  0  0  0  0  0  0  0  0  0  0  0
    8.7644  -16.2914   24.1386 C   0  0  1  0  0  0  0  0  0  0  0  0
    7.3652  -16.0028   24.6430 C   0  0  0  0  0  0  0  0  0  0  0  0
    7.4598  -15.4589   26.0076 C   0  0  0  0  0  0  0  0  0  0  0  0
    7.4564  -16.1628   27.1797 C   0  0  0  0  0  0  0  0  0  0  0  0
    7.5584  -15.2784   28.1815 N   0  0  0  0  0  0  0  0  0  0  0  0
    7.6286  -14.0157   27.7047 C   0  0  0  0  0  0  0  0  0  0  0  0
    7.7400  -12.7831   28.3143 C   0  0  0  0  0  0  0  0  0  0  0  0
    7.7939  -11.6101   27.5755 C   0  0  0  0  0  0  0  0  0  0  0  0
    7.7304  -11.7435   26.2038 C   0  0  0  0  0  0  0  0  0  0  0  0
    7.6197  -12.9606   25.5822 C   0  0  0  0  0  0  0  0  0  0  0  0
    7.5663  -14.1296   26.3274 C   0  0  0  0  0  0  0  0  0  0  0  0
    9.2468  -17.5485   24.7934 C   0  0  0  0  0  0  0  0  0  0  0  0
    8.5642  -18.5919   24.8131 O   0  0  0  0  0  0  0  0  0  0  0  0
   10.5119  -17.5392   25.4021 N   0  0  0  0  0  0  0  0  0  0  0  0
   11.0830  -18.6840   26.1233 C   0  0  1  0  0  0  0  0  0  0  0  0
   12.5232  -18.7651   25.7029 C   0  0  0  0  0  0  0  0  0  0  0  0
   12.7274  -19.2765   24.3207 C   0  0  0  0  0  0  0  0  0  0  0  0
   14.1813  -19.3807   23.9285 C   0  0  0  0  0  0  0  0  0  0  0  0
   14.2841  -19.9519   22.5200 C   0  0  0  0  0  0  0  0  0  0  0  0
   15.6556  -19.9305   22.0467 N   0  0  0  0  0  0  0  0  0  0  0  0
   10.9048  -18.4267   27.5534 C   0  0  0  0  0  0  0  0  0  0  0  0
   10.8835  -17.1511   28.0956 O   0  0  0  0  0  0  0  0  0  0  0  0
   10.7635  -19.3980   28.3375 O   0  0  0  0  0  0  0  0  0  0  0  0
  2  1  1  1
  2  3  1  0
  3  4  1  0
  4  5  2  0
  5  6  1  0
  7  6  2  0
  8  7  1  0
  9  8  2  0
  9  4  1  0
 10  2  1  0
 11 10  2  0
 12 10  1  0
 13 12  1  0
 13 14  1  1
 14 15  1  0
 15 23  1  0
 15 16  2  0
 16 17  1  0
 18 19  2  0
 18 17  1  0
 20 19  1  0
 21 20  2  0
 22 21  1  0
 22 23  2  0
 23 18  1  0
 24 26  1  0
 24 13  1  0
 25 24  2  0
 27 33  1  0
 27 26  1  0
 27 28  1  1
 28 29  1  0
 29 30  1  0
 31 30  1  0
 32 31  1  0
 33 34  1  0
 35 33  2  0
M  END
$$$$
