FWK.pdb
     RDKit          3D

 35 37  0  0  1  0  0  0  0  0999 V2000
    5.1439  -16.2776   21.7464 N   0  0  0  0  0  0  0  0  0  0  0  0
    6.4740  -16.7752   21.5428 C   0  0  1  0  0  0  0  0  0  0  0  0
    6.9596  -16.5111   20.1302 C   0  0  0  0  0  0  0  0  0  0  0  0
    7.0954  -15.0510   19.9294 C   0  0  0  0  0  0  0  0  0  0  0  0
    7.5722  -14.5022   18.7718 C   0  0  0  0  0  0  0  0  0  0  0  0
    7.6867  -13.1429   18.6155 C   0  0  0  0  0  0  0  0  0  0  0  0
    7.3101  -12.3138   19.6549 C   0  0  0  0  0  0  0  0  0  0  0  0
    6.8211  -12.8553   20.8440 C   0  0  0  0  0  0  0  0  0  0  0  0
    6.7210  -14.2280   20.9625 C   0  0  0  0  0  0  0  0  0  0  0  0
    7.4461  -16.1122   22.4691 C   0  0  0  0  0  0  0  0  0  0  0  0
    7.8025  -14.9229   22.2739 O   0  0  0  0  0  0  0  0  0  0  0  0
    7.9470  -16.8637   23.5641 N   0  0  0  0  0  0  0  0  0  0  0  0
    9.0165  -16.3449   24.3981 C   0  0  1  0  0  0  0  0  0  0  0  0
    8.5286  -16.3356   25.8325 C   0  0  0  0  0  0  0  0  0  0  0  0
    7.4618  -15.3291   25.9600 C   0  0  0  0  0  0  0  0  0  0  0  0
    6.1214  -15.5167   25.7667 C   0  0  0  0  0  0  0  0  0  0  0  0
    5.5144  -14.3417   25.9832 N   0  0  0  0  0  0  0  0  0  0  0  0
    6.4136  -13.3879   26.3126 C   0  0  0  0  0  0  0  0  0  0  0  0
    6.2959  -12.0489   26.6229 C   0  0  0  0  0  0  0  0  0  0  0  0
    7.4051  -11.2752   26.9324 C   0  0  0  0  0  0  0  0  0  0  0  0
    8.6267  -11.9157   26.9128 C   0  0  0  0  0  0  0  0  0  0  0  0
    8.7613  -13.2455   26.6065 C   0  0  0  0  0  0  0  0  0  0  0  0
    7.6475  -14.0131   26.2980 C   0  0  0  0  0  0  0  0  0  0  0  0
   10.2115  -17.2434   24.3172 C   0  0  0  0  0  0  0  0  0  0  0  0
   10.2158  -18.3895   24.8085 O   0  0  0  0  0  0  0  0  0  0  0  0
   11.3594  -16.7678   23.6636 N   0  0  0  0  0  0  0  0  0  0  0  0
   12.5711  -17.5690   23.4478 C   0  0  1  0  0  0  0  0  0  0  0  0
   13.2806  -16.9455   22.2794 C   0  0  0  0  0  0  0  0  0  0  0  0
   12.8432  -17.4612   20.9542 C   0  0  0  0  0  0  0  0  0  0  0  0
   13.5858  -16.8422   19.7948 C   0  0  0  0  0  0  0  0  0  0  0  0
   13.0969  -17.4639   18.4929 C   0  0  0  0  0  0  0  0  0  0  0  0
   13.6878  -16.8028   17.3443 N   0  0  0  0  0  0  0  0  0  0  0  0
   13.3436  -17.5281   24.6907 C   0  0  0  0  0  0  0  0  0  0  0  0
   12.9277  -16.8358   25.8174 O   0  0  0  0  0  0  0  0  0  0  0  0
   14.4363  -18.1447   24.7533 O   0  0  0  0  0  0  0  0  0  0  0  0
  2  1  1  6
  2  3  1  0
  3  4  1  0
  4  5  2  0
  5  6  1  0
  7  6  2  0
  8  7  1  0
  9  8  2  0
  9  4  1  0
 10  2  1  0
 11 10  2  0
 12 10  1  0
 13 12  1  0
 13 14  1  1
 14 15  1  0
 15 23  1  0
 15 16  2  0
 16 17  1  0
 18 19  2  0
 18 17  1  0
 20 19  1  0
 21 20  2  0
 22 21  1  0
 22 23  2  0
 23 18  1  0
 24 26  1  0
 24 13  1  0
 25 24  2  0
 27 33  1  0
 27 26  1  0
 27 28  1  6
 28 29  1  0
 29 30  1  0
 31 30  1  0
 32 31  1  0
 33 34  1  0
 35 33  2  0
M  END
$$$$
