FWK.pdb
     RDKit          3D

 35 37  0  0  1  0  0  0  0  0999 V2000
   11.8691  -16.1765   19.4754 N   0  0  0  0  0  0  0  0  0  0  0  0
   10.7099  -15.4512   19.9097 C   0  0  1  0  0  0  0  0  0  0  0  0
    9.4736  -15.8534   19.1283 C   0  0  0  0  0  0  0  0  0  0  0  0
    8.6558  -14.6491   18.8612 C   0  0  0  0  0  0  0  0  0  0  0  0
    7.4760  -14.6908   18.1723 C   0  0  0  0  0  0  0  0  0  0  0  0
    6.7394  -13.5556   17.9403 C   0  0  0  0  0  0  0  0  0  0  0  0
    7.2049  -12.3446   18.4161 C   0  0  0  0  0  0  0  0  0  0  0  0
    8.4069  -12.2820   19.1216 C   0  0  0  0  0  0  0  0  0  0  0  0
    9.1191  -13.4464   19.3344 C   0  0  0  0  0  0  0  0  0  0  0  0
   10.4177  -15.7153   21.3544 C   0  0  0  0  0  0  0  0  0  0  0  0
   11.2506  -16.3243   22.0719 O   0  0  0  0  0  0  0  0  0  0  0  0
    9.1811  -15.2597   21.8817 N   0  0  0  0  0  0  0  0  0  0  0  0
    8.9043  -15.3343   23.3053 C   0  0  1  0  0  0  0  0  0  0  0  0
    7.4531  -14.9557   23.5201 C   0  0  0  0  0  0  0  0  0  0  0  0
    7.2032  -14.8515   24.9671 C   0  0  0  0  0  0  0  0  0  0  0  0
    6.8010  -15.8500   25.8101 C   0  0  0  0  0  0  0  0  0  0  0  0
    6.6928  -15.3224   27.0373 N   0  0  0  0  0  0  0  0  0  0  0  0
    7.0111  -14.0089   27.0272 C   0  0  0  0  0  0  0  0  0  0  0  0
    7.0555  -13.0426   28.0109 C   0  0  0  0  0  0  0  0  0  0  0  0
    7.4249  -11.7355   27.7284 C   0  0  0  0  0  0  0  0  0  0  0  0
    7.7439  -11.4566   26.4155 C   0  0  0  0  0  0  0  0  0  0  0  0
    7.7049  -12.4050   25.4259 C   0  0  0  0  0  0  0  0  0  0  0  0
    7.3346  -13.7102   25.7158 C   0  0  0  0  0  0  0  0  0  0  0  0
    9.0979  -16.7369   23.7923 C   0  0  0  0  0  0  0  0  0  0  0  0
    8.5805  -17.7166   23.2200 O   0  0  0  0  0  0  0  0  0  0  0  0
    9.8909  -16.9425   24.9324 N   0  0  0  0  0  0  0  0  0  0  0  0
   10.2447  -18.2680   25.4567 C   0  0  1  0  0  0  0  0  0  0  0  0
   11.5889  -18.6015   24.8741 C   0  0  0  0  0  0  0  0  0  0  0  0
   12.2028  -19.8392   25.4260 C   0  0  0  0  0  0  0  0  0  0  0  0
   13.5464  -20.1642   24.8195 C   0  0  0  0  0  0  0  0  0  0  0  0
   14.0813  -21.4497   25.4374 C   0  0  0  0  0  0  0  0  0  0  0  0
   15.4333  -21.7226   24.9868 N   0  0  0  0  0  0  0  0  0  0  0  0
   10.2488  -18.1683   26.9173 C   0  0  0  0  0  0  0  0  0  0  0  0
   10.4335  -16.9723   27.5934 O   0  0  0  0  0  0  0  0  0  0  0  0
   10.0780  -19.2073   27.6026 O   0  0  0  0  0  0  0  0  0  0  0  0
  2  1  1  6
  2  3  1  0
  3  4  1  0
  4  5  2  0
  5  6  1  0
  7  6  2  0
  8  7  1  0
  9  8  2  0
  9  4  1  0
 10  2  1  0
 11 10  2  0
 12 10  1  0
 13 12  1  0
 13 14  1  6
 14 15  1  0
 15 23  1  0
 15 16  2  0
 16 17  1  0
 18 19  2  0
 18 17  1  0
 20 19  1  0
 21 20  2  0
 22 21  1  0
 22 23  2  0
 23 18  1  0
 24 26  1  0
 24 13  1  0
 25 24  2  0
 27 33  1  0
 27 26  1  0
 27 28  1  6
 28 29  1  0
 29 30  1  0
 31 30  1  0
 32 31  1  0
 33 34  1  0
 35 33  2  0
M  END
$$$$
