FWK.pdb
     RDKit          3D

 35 37  0  0  1  0  0  0  0  0999 V2000
    9.9322  -17.7742   18.3081 N   0  0  0  0  0  0  0  0  0  0  0  0
    9.0150  -17.9784   19.3923 C   0  0  1  0  0  0  0  0  0  0  0  0
    9.0140  -19.4217   19.8592 C   0  0  0  0  0  0  0  0  0  0  0  0
    8.5916  -20.2930   18.7399 C   0  0  0  0  0  0  0  0  0  0  0  0
    9.4795  -20.9541   17.9380 C   0  0  0  0  0  0  0  0  0  0  0  0
    9.0566  -21.7558   16.9067 C   0  0  0  0  0  0  0  0  0  0  0  0
    7.7010  -21.8951   16.6773 C   0  0  0  0  0  0  0  0  0  0  0  0
    6.7795  -21.2284   17.4851 C   0  0  0  0  0  0  0  0  0  0  0  0
    7.2446  -20.4309   18.5128 C   0  0  0  0  0  0  0  0  0  0  0  0
    9.3820  -17.1375   20.5757 C   0  0  0  0  0  0  0  0  0  0  0  0
   10.5760  -17.0667   20.9613 O   0  0  0  0  0  0  0  0  0  0  0  0
    8.3470  -16.4300   21.2413 N   0  0  0  0  0  0  0  0  0  0  0  0
    8.6421  -15.5588   22.3651 C   0  0  1  0  0  0  0  0  0  0  0  0
    7.4469  -14.6531   22.5812 C   0  0  0  0  0  0  0  0  0  0  0  0
    7.8054  -13.6308   23.5779 C   0  0  0  0  0  0  0  0  0  0  0  0
    8.6872  -12.5977   23.4214 C   0  0  0  0  0  0  0  0  0  0  0  0
    8.7146  -11.9130   24.5732 N   0  0  0  0  0  0  0  0  0  0  0  0
    7.8788  -12.4636   25.4815 C   0  0  0  0  0  0  0  0  0  0  0  0
    7.5560  -12.1395   26.7830 C   0  0  0  0  0  0  0  0  0  0  0  0
    6.6436  -12.8878   27.5125 C   0  0  0  0  0  0  0  0  0  0  0  0
    6.0794  -13.9691   26.8676 C   0  0  0  0  0  0  0  0  0  0  0  0
    6.3892  -14.3049   25.5748 C   0  0  0  0  0  0  0  0  0  0  0  0
    7.3026  -13.5519   24.8513 C   0  0  0  0  0  0  0  0  0  0  0  0
    8.8417  -16.3727   23.6060 C   0  0  0  0  0  0  0  0  0  0  0  0
    8.1011  -17.3326   23.8975 O   0  0  0  0  0  0  0  0  0  0  0  0
    9.9018  -16.0334   24.4616 N   0  0  0  0  0  0  0  0  0  0  0  0
   10.4415  -16.9289   25.4930 C   0  0  1  0  0  0  0  0  0  0  0  0
   11.7209  -17.4846   24.9346 C   0  0  0  0  0  0  0  0  0  0  0  0
   11.6280  -18.9014   24.4903 C   0  0  0  0  0  0  0  0  0  0  0  0
   12.9604  -19.4984   24.1071 C   0  0  0  0  0  0  0  0  0  0  0  0
   12.7436  -20.8985   23.5472 C   0  0  0  0  0  0  0  0  0  0  0  0
   13.9805  -21.4498   23.0261 N   0  0  0  0  0  0  0  0  0  0  0  0
   10.6309  -16.1288   26.7043 C   0  0  0  0  0  0  0  0  0  0  0  0
   10.5765  -16.6652   27.9814 O   0  0  0  0  0  0  0  0  0  0  0  0
   10.8538  -14.8972   26.5962 O   0  0  0  0  0  0  0  0  0  0  0  0
  2  1  1  6
  2  3  1  0
  3  4  1  0
  4  5  2  0
  5  6  1  0
  7  6  2  0
  8  7  1  0
  9  8  2  0
  9  4  1  0
 10  2  1  0
 11 10  2  0
 12 10  1  0
 13 12  1  0
 13 14  1  1
 14 15  1  0
 15 23  1  0
 15 16  2  0
 16 17  1  0
 18 19  2  0
 18 17  1  0
 20 19  1  0
 21 20  2  0
 22 21  1  0
 22 23  2  0
 23 18  1  0
 24 26  1  0
 24 13  1  0
 25 24  2  0
 27 33  1  0
 27 26  1  0
 27 28  1  6
 28 29  1  0
 29 30  1  0
 31 30  1  0
 32 31  1  0
 33 34  1  0
 35 33  2  0
M  END
$$$$
