FWK.pdb
     RDKit          3D

 35 37  0  0  1  0  0  0  0  0999 V2000
    7.6825  -17.2625   21.2895 N   0  0  0  0  0  0  0  0  0  0  0  0
    9.1006  -17.0467   21.3193 C   0  0  1  0  0  0  0  0  0  0  0  0
    9.5016  -15.8499   20.4779 C   0  0  0  0  0  0  0  0  0  0  0  0
    8.5630  -14.7362   20.7407 C   0  0  0  0  0  0  0  0  0  0  0  0
    8.9617  -13.5363   21.2601 C   0  0  0  0  0  0  0  0  0  0  0  0
    8.0666  -12.5216   21.4929 C   0  0  0  0  0  0  0  0  0  0  0  0
    6.7324  -12.7218   21.1939 C   0  0  0  0  0  0  0  0  0  0  0  0
    6.3063  -13.9396   20.6632 C   0  0  0  0  0  0  0  0  0  0  0  0
    7.2376  -14.9360   20.4434 C   0  0  0  0  0  0  0  0  0  0  0  0
    9.5768  -16.7786   22.7135 C   0  0  0  0  0  0  0  0  0  0  0  0
   10.7066  -16.2658   22.9133 O   0  0  0  0  0  0  0  0  0  0  0  0
    8.7186  -17.1196   23.7915 N   0  0  0  0  0  0  0  0  0  0  0  0
    9.1998  -17.1053   25.1615 C   0  0  1  0  0  0  0  0  0  0  0  0
    7.9961  -17.0419   26.0794 C   0  0  0  0  0  0  0  0  0  0  0  0
    7.2405  -15.8145   25.7803 C   0  0  0  0  0  0  0  0  0  0  0  0
    6.1125  -15.7043   25.0157 C   0  0  0  0  0  0  0  0  0  0  0  0
    5.7577  -14.4120   25.0042 N   0  0  0  0  0  0  0  0  0  0  0  0
    6.6170  -13.6695   25.7371 C   0  0  0  0  0  0  0  0  0  0  0  0
    6.6857  -12.3233   26.0304 C   0  0  0  0  0  0  0  0  0  0  0  0
    7.6956  -11.8046   26.8278 C   0  0  0  0  0  0  0  0  0  0  0  0
    8.6232  -12.7052   27.3090 C   0  0  0  0  0  0  0  0  0  0  0  0
    8.5695  -14.0461   27.0271 C   0  0  0  0  0  0  0  0  0  0  0  0
    7.5566  -14.5577   26.2290 C   0  0  0  0  0  0  0  0  0  0  0  0
    9.9456  -18.3699   25.4560 C   0  0  0  0  0  0  0  0  0  0  0  0
    9.4627  -19.4958   25.2236 O   0  0  0  0  0  0  0  0  0  0  0  0
   11.2308  -18.2709   26.0124 N   0  0  0  0  0  0  0  0  0  0  0  0
   12.0682  -19.4285   26.3523 C   0  0  1  0  0  0  0  0  0  0  0  0
   13.0995  -19.5307   25.2644 C   0  0  0  0  0  0  0  0  0  0  0  0
   14.2707  -18.6317   25.4476 C   0  0  0  0  0  0  0  0  0  0  0  0
   15.2423  -18.6697   24.2929 C   0  0  0  0  0  0  0  0  0  0  0  0
   16.3634  -17.6693   24.5439 C   0  0  0  0  0  0  0  0  0  0  0  0
   17.3550  -17.7199   23.4858 N   0  0  0  0  0  0  0  0  0  0  0  0
   12.6385  -19.1757   27.6767 C   0  0  0  0  0  0  0  0  0  0  0  0
   12.4835  -17.9741   28.3503 O   0  0  0  0  0  0  0  0  0  0  0  0
   13.3017  -20.0813   28.2410 O   0  0  0  0  0  0  0  0  0  0  0  0
  2  1  1  1
  2  3  1  0
  3  4  1  0
  4  5  2  0
  5  6  1  0
  7  6  2  0
  8  7  1  0
  9  8  2  0
  9  4  1  0
 10  2  1  0
 11 10  2  0
 12 10  1  0
 13 12  1  0
 13 14  1  1
 14 15  1  0
 15 23  1  0
 15 16  2  0
 16 17  1  0
 18 19  2  0
 18 17  1  0
 20 19  1  0
 21 20  2  0
 22 21  1  0
 22 23  2  0
 23 18  1  0
 24 26  1  0
 24 13  1  0
 25 24  2  0
 27 33  1  0
 27 26  1  0
 27 28  1  6
 28 29  1  0
 29 30  1  0
 31 30  1  0
 32 31  1  0
 33 34  1  0
 35 33  2  0
M  END
$$$$
