FWK.pdb
     RDKit          3D

 35 37  0  0  1  0  0  0  0  0999 V2000
   11.3249  -17.3822   19.5940 N   0  0  0  0  0  0  0  0  0  0  0  0
   10.3485  -16.4229   20.0240 C   0  0  1  0  0  0  0  0  0  0  0  0
    9.2455  -16.2494   18.9973 C   0  0  0  0  0  0  0  0  0  0  0  0
    8.4238  -15.0739   19.3626 C   0  0  0  0  0  0  0  0  0  0  0  0
    8.8721  -13.7883   19.2414 C   0  0  0  0  0  0  0  0  0  0  0  0
    8.0856  -12.7178   19.5888 C   0  0  0  0  0  0  0  0  0  0  0  0
    6.8119  -12.9496   20.0719 C   0  0  0  0  0  0  0  0  0  0  0  0
    6.3366  -14.2547   20.2028 C   0  0  0  0  0  0  0  0  0  0  0  0
    7.1584  -15.3051   19.8425 C   0  0  0  0  0  0  0  0  0  0  0  0
    9.6932  -16.8541   21.2995 C   0  0  0  0  0  0  0  0  0  0  0  0
    9.9558  -17.9750   21.8035 O   0  0  0  0  0  0  0  0  0  0  0  0
    8.7744  -15.9641   21.9146 N   0  0  0  0  0  0  0  0  0  0  0  0
    8.7289  -15.8192   23.3588 C   0  0  1  0  0  0  0  0  0  0  0  0
    7.4054  -15.1781   23.7232 C   0  0  0  0  0  0  0  0  0  0  0  0
    7.3895  -14.9230   25.1729 C   0  0  0  0  0  0  0  0  0  0  0  0
    7.2772  -15.8479   26.1735 C   0  0  0  0  0  0  0  0  0  0  0  0
    7.3038  -15.1865   27.3388 N   0  0  0  0  0  0  0  0  0  0  0  0
    7.4299  -13.8563   27.1355 C   0  0  0  0  0  0  0  0  0  0  0  0
    7.5036  -12.7754   27.9896 C   0  0  0  0  0  0  0  0  0  0  0  0
    7.6349  -11.4798   27.5112 C   0  0  0  0  0  0  0  0  0  0  0  0
    7.6873  -11.3326   26.1405 C   0  0  0  0  0  0  0  0  0  0  0  0
    7.6155  -12.3959   25.2778 C   0  0  0  0  0  0  0  0  0  0  0  0
    7.4843  -13.6889   25.7634 C   0  0  0  0  0  0  0  0  0  0  0  0
    8.7909  -17.1656   24.0112 C   0  0  0  0  0  0  0  0  0  0  0  0
    8.2061  -18.1605   23.5389 O   0  0  0  0  0  0  0  0  0  0  0  0
    9.5357  -17.2989   25.1937 N   0  0  0  0  0  0  0  0  0  0  0  0
   10.4220  -18.4343   25.4806 C   0  0  1  0  0  0  0  0  0  0  0  0
   11.4493  -18.4486   24.3843 C   0  0  0  0  0  0  0  0  0  0  0  0
   12.5596  -19.4149   24.6012 C   0  0  0  0  0  0  0  0  0  0  0  0
   12.4198  -20.6808   23.7910 C   0  0  0  0  0  0  0  0  0  0  0  0
   13.7440  -21.4338   23.7992 C   0  0  0  0  0  0  0  0  0  0  0  0
   14.7371  -20.7527   22.9896 N   0  0  0  0  0  0  0  0  0  0  0  0
   10.9902  -18.2138   26.8116 C   0  0  0  0  0  0  0  0  0  0  0  0
   11.7390  -17.0939   27.1385 O   0  0  0  0  0  0  0  0  0  0  0  0
   10.7982  -19.0714   27.7093 O   0  0  0  0  0  0  0  0  0  0  0  0
  2  1  1  6
  2  3  1  0
  3  4  1  0
  4  5  2  0
  5  6  1  0
  7  6  2  0
  8  7  1  0
  9  8  2  0
  9  4  1  0
 10  2  1  0
 11 10  2  0
 12 10  1  0
 13 12  1  0
 13 14  1  6
 14 15  1  0
 15 23  1  0
 15 16  2  0
 16 17  1  0
 18 19  2  0
 18 17  1  0
 20 19  1  0
 21 20  2  0
 22 21  1  0
 22 23  2  0
 23 18  1  0
 24 26  1  0
 24 13  1  0
 25 24  2  0
 27 33  1  0
 27 26  1  0
 27 28  1  6
 28 29  1  0
 29 30  1  0
 31 30  1  0
 32 31  1  0
 33 34  1  0
 35 33  2  0
M  END
$$$$
