KPN.pdb
     RDKit          3D

 25 25  0  0  1  0  0  0  0  0999 V2000
   24.7838  -20.9745  -10.6453 N   0  0  0  0  0  0  0  0  0  0  0  0
   25.5688  -21.2970  -11.8321 C   0  0  1  0  0  0  0  0  0  0  0  0
   24.8676  -22.3989  -12.6170 C   0  0  0  0  0  0  0  0  0  0  0  0
   23.3934  -22.2670  -12.6317 C   0  0  0  0  0  0  0  0  0  0  0  0
   22.7438  -21.7579  -13.8546 C   0  0  0  0  0  0  0  0  0  0  0  0
   21.2732  -21.5459  -13.8075 C   0  0  0  0  0  0  0  0  0  0  0  0
   20.8829  -20.8618  -15.0487 N   0  0  0  0  0  0  0  0  0  0  0  0
   25.6426  -20.0636  -12.6602 C   0  0  0  0  0  0  0  0  0  0  0  0
   24.6122  -19.3044  -12.6205 O   0  0  0  0  0  0  0  0  0  0  0  0
   26.7549  -19.7046  -13.4577 N   0  0  0  0  0  0  0  0  0  0  0  0
   28.1330  -19.9895  -13.0112 C   0  0  0  0  0  0  0  0  0  0  0  0
   28.8642  -20.3961  -14.2480 C   0  0  0  0  0  0  0  0  0  0  0  0
   28.0701  -19.8090  -15.3627 C   0  0  0  0  0  0  0  0  0  0  0  0
   26.9319  -19.0339  -14.6901 C   0  0  1  0  0  0  0  0  0  0  0  0
   25.8185  -19.0709  -15.6458 C   0  0  0  0  0  0  0  0  0  0  0  0
   25.0854  -20.0214  -15.9344 O   0  0  0  0  0  0  0  0  0  0  0  0
   23.6048  -15.0871  -19.7849 N   0  0  0  0  0  0  0  0  0  0  0  0
   23.3558  -15.9983  -18.7247 C   0  0  0  0  0  0  0  0  0  0  0  0
   22.2482  -16.5811  -18.7003 O   0  0  0  0  0  0  0  0  0  0  0  0
   24.3446  -16.2638  -17.6844 C   0  0  0  0  0  0  0  0  0  0  0  0
   24.5317  -17.7185  -17.3576 C   0  0  2  0  0  0  0  0  0  0  0  0
   25.5446  -17.8405  -16.3364 N   0  0  0  0  0  0  0  0  0  0  0  0
   24.8675  -18.4271  -18.5898 C   0  0  0  0  0  0  0  0  0  0  0  0
   26.0476  -18.4816  -18.9865 O   0  0  0  0  0  0  0  0  0  0  0  0
   23.8843  -19.0441  -19.3291 O   0  0  0  0  0  0  0  0  0  0  0  0
  2  1  1  1
  3  2  1  0
  4  3  1  0
  4  5  1  0
  6  5  1  0
  6  7  1  0
  8  2  1  0
  9  8  2  0
 10  8  1  0
 10 14  1  0
 11 10  1  0
 12 11  1  0
 12 13  1  0
 13 14  1  0
 15 22  1  0
 14 15  1  6
 16 15  2  0
 18 17  1  0
 18 19  2  0
 20 18  1  0
 21 22  1  0
 21 20  1  6
 23 21  1  0
 24 23  2  0
 25 23  1  0
M  END
$$$$
