KPN.pdb
     RDKit          3D

 25 25  0  0  1  0  0  0  0  0999 V2000
   29.0932  -28.0955  -16.0828 N   0  0  0  0  0  0  0  0  0  0  0  0
   29.5509  -27.3080  -17.2225 C   0  0  1  0  0  0  0  0  0  0  0  0
   28.6325  -27.5605  -18.4120 C   0  0  0  0  0  0  0  0  0  0  0  0
   28.8099  -28.8976  -19.0216 C   0  0  0  0  0  0  0  0  0  0  0  0
   28.6751  -30.0880  -18.1605 C   0  0  0  0  0  0  0  0  0  0  0  0
   27.7341  -31.1488  -18.6063 C   0  0  0  0  0  0  0  0  0  0  0  0
   27.8828  -32.2886  -17.6901 N   0  0  0  0  0  0  0  0  0  0  0  0
   29.4744  -25.8759  -16.8279 C   0  0  0  0  0  0  0  0  0  0  0  0
   28.3764  -25.5073  -16.2818 O   0  0  0  0  0  0  0  0  0  0  0  0
   30.5177  -24.9396  -17.0202 N   0  0  0  0  0  0  0  0  0  0  0  0
   31.9123  -25.3850  -17.2110 C   0  0  0  0  0  0  0  0  0  0  0  0
   32.4772  -24.4590  -18.2372 C   0  0  0  0  0  0  0  0  0  0  0  0
   31.6118  -23.2491  -18.1669 C   0  0  0  0  0  0  0  0  0  0  0  0
   30.6087  -23.5285  -17.0424 C   0  0  1  0  0  0  0  0  0  0  0  0
   29.3999  -22.7788  -17.4045 C   0  0  0  0  0  0  0  0  0  0  0  0
   28.4294  -23.1595  -18.0657 O   0  0  0  0  0  0  0  0  0  0  0  0
   26.0167  -18.9735  -18.0358 N   0  0  0  0  0  0  0  0  0  0  0  0
   26.6153  -19.8791  -18.9512 C   0  0  0  0  0  0  0  0  0  0  0  0
   26.1505  -19.9323  -20.1123 O   0  0  0  0  0  0  0  0  0  0  0  0
   27.7382  -20.7316  -18.5736 C   0  0  0  0  0  0  0  0  0  0  0  0
   28.2018  -20.5614  -17.1544 C   0  0  2  0  0  0  0  0  0  0  0  0
   29.3364  -21.4244  -16.9277 N   0  0  0  0  0  0  0  0  0  0  0  0
   27.0769  -20.8431  -16.2664 C   0  0  0  0  0  0  0  0  0  0  0  0
   26.5057  -19.9185  -15.6565 O   0  0  0  0  0  0  0  0  0  0  0  0
   26.6332  -22.1339  -16.0916 O   0  0  0  0  0  0  0  0  0  0  0  0
  2  1  1  1
  3  2  1  0
  4  3  1  0
  4  5  1  0
  6  5  1  0
  6  7  1  0
  8  2  1  0
  9  8  2  0
 10  8  1  0
 10 14  1  0
 11 10  1  0
 12 11  1  0
 12 13  1  0
 13 14  1  0
 15 22  1  0
 14 15  1  6
 16 15  2  0
 18 17  1  0
 18 19  2  0
 20 18  1  0
 21 22  1  0
 21 20  1  6
 23 21  1  0
 24 23  2  0
 25 23  1  0
M  END
$$$$
