KPN.pdb
     RDKit          3D

 25 25  0  0  1  0  0  0  0  0999 V2000
   12.8747  -24.2264    0.6116 N   0  0  0  0  0  0  0  0  0  0  0  0
   14.2046  -23.6456    0.7622 C   0  0  1  0  0  0  0  0  0  0  0  0
   14.6285  -23.0066   -0.5547 C   0  0  0  0  0  0  0  0  0  0  0  0
   14.3543  -23.8536   -1.7372 C   0  0  0  0  0  0  0  0  0  0  0  0
   14.7886  -23.3740   -3.0632 C   0  0  0  0  0  0  0  0  0  0  0  0
   14.5831  -24.2861   -4.2189 C   0  0  0  0  0  0  0  0  0  0  0  0
   15.0678  -23.5950   -5.4222 N   0  0  0  0  0  0  0  0  0  0  0  0
   14.1125  -22.6010    1.8171 C   0  0  0  0  0  0  0  0  0  0  0  0
   13.2711  -21.6611    1.5972 O   0  0  0  0  0  0  0  0  0  0  0  0
   14.8809  -22.5985    3.0052 N   0  0  0  0  0  0  0  0  0  0  0  0
   15.4075  -23.8560    3.5718 C   0  0  0  0  0  0  0  0  0  0  0  0
   16.7669  -23.5103    4.0837 C   0  0  0  0  0  0  0  0  0  0  0  0
   16.7261  -22.0359    4.2892 C   0  0  0  0  0  0  0  0  0  0  0  0
   15.2980  -21.6122    3.9289 C   0  0  1  0  0  0  0  0  0  0  0  0
   15.4134  -20.2333    3.4393 C   0  0  0  0  0  0  0  0  0  0  0  0
   15.9274  -19.8310    2.3914 O   0  0  0  0  0  0  0  0  0  0  0  0
   13.1085  -18.3471    2.0051 N   0  0  0  0  0  0  0  0  0  0  0  0
   12.7780  -17.4143    3.0234 C   0  0  0  0  0  0  0  0  0  0  0  0
   11.6777  -16.8228    2.9422 O   0  0  0  0  0  0  0  0  0  0  0  0
   13.6764  -17.1369    4.1397 C   0  0  0  0  0  0  0  0  0  0  0  0
   15.0187  -17.8051    4.0419 C   0  0  2  0  0  0  0  0  0  0  0  0
   14.8556  -19.2178    4.2898 N   0  0  0  0  0  0  0  0  0  0  0  0
   15.9256  -17.1556    4.9847 C   0  0  0  0  0  0  0  0  0  0  0  0
   16.3358  -17.7664    5.9906 O   0  0  0  0  0  0  0  0  0  0  0  0
   16.3389  -15.8600    4.7744 O   0  0  0  0  0  0  0  0  0  0  0  0
  2  1  1  6
  3  2  1  0
  4  3  1  0
  4  5  1  0
  6  5  1  0
  6  7  1  0
  8  2  1  0
  9  8  2  0
 10  8  1  0
 10 14  1  0
 11 10  1  0
 12 11  1  0
 12 13  1  0
 13 14  1  0
 15 22  1  0
 14 15  1  6
 16 15  2  0
 18 17  1  0
 18 19  2  0
 20 18  1  0
 21 22  1  0
 21 20  1  1
 23 21  1  0
 24 23  2  0
 25 23  1  0
M  END
$$$$
