KPN.pdb
     RDKit          3D

 25 25  0  0  1  0  0  0  0  0999 V2000
   20.7228  -20.8790  -11.5858 N   0  0  0  0  0  0  0  0  0  0  0  0
   21.3766  -21.3623  -12.7973 C   0  0  1  0  0  0  0  0  0  0  0  0
   20.4356  -21.1869  -13.9830 C   0  0  0  0  0  0  0  0  0  0  0  0
   19.3343  -22.1754  -14.0142 C   0  0  0  0  0  0  0  0  0  0  0  0
   18.7010  -22.5649  -12.7397 C   0  0  0  0  0  0  0  0  0  0  0  0
   17.5889  -23.5491  -12.8041 C   0  0  0  0  0  0  0  0  0  0  0  0
   16.5864  -23.0261  -13.7434 N   0  0  0  0  0  0  0  0  0  0  0  0
   22.5955  -20.5344  -13.0005 C   0  0  0  0  0  0  0  0  0  0  0  0
   22.3921  -19.3295  -13.3833 O   0  0  0  0  0  0  0  0  0  0  0  0
   23.9168  -20.9984  -12.7980 N   0  0  0  0  0  0  0  0  0  0  0  0
   24.2984  -21.6809  -11.5457 C   0  0  0  0  0  0  0  0  0  0  0  0
   25.2331  -22.7668  -11.9662 C   0  0  0  0  0  0  0  0  0  0  0  0
   25.7563  -22.3201  -13.2870 C   0  0  0  0  0  0  0  0  0  0  0  0
   25.1229  -20.9466  -13.5345 C   0  0  1  0  0  0  0  0  0  0  0  0
   25.0193  -20.8235  -14.9935 C   0  0  0  0  0  0  0  0  0  0  0  0
   24.2152  -21.3691  -15.7549 O   0  0  0  0  0  0  0  0  0  0  0  0
   23.3332  -17.6945  -18.5338 N   0  0  0  0  0  0  0  0  0  0  0  0
   24.2307  -17.2677  -17.5196 C   0  0  0  0  0  0  0  0  0  0  0  0
   24.6803  -16.1013  -17.5871 O   0  0  0  0  0  0  0  0  0  0  0  0
   24.6314  -18.1431  -16.4225 C   0  0  0  0  0  0  0  0  0  0  0  0
   25.6784  -19.1583  -16.7844 C   0  0  2  0  0  0  0  0  0  0  0  0
   25.9785  -19.9547  -15.6185 N   0  0  0  0  0  0  0  0  0  0  0  0
   26.8413  -18.4508  -17.3139 C   0  0  0  0  0  0  0  0  0  0  0  0
   27.0073  -18.3387  -18.5439 O   0  0  0  0  0  0  0  0  0  0  0  0
   27.7692  -17.8986  -16.4607 O   0  0  0  0  0  0  0  0  0  0  0  0
  2  1  1  1
  3  2  1  0
  4  3  1  0
  4  5  1  0
  6  5  1  0
  6  7  1  0
  8  2  1  0
  9  8  2  0
 10  8  1  0
 10 14  1  0
 11 10  1  0
 12 11  1  0
 12 13  1  0
 13 14  1  0
 15 22  1  0
 14 15  1  6
 16 15  2  0
 18 17  1  0
 18 19  2  0
 20 18  1  0
 21 22  1  0
 21 20  1  1
 23 21  1  0
 24 23  2  0
 25 23  1  0
M  END
$$$$
