KPN.pdb
     RDKit          3D

 25 25  0  0  1  0  0  0  0  0999 V2000
   19.3568  -13.5126  -16.1818 N   0  0  0  0  0  0  0  0  0  0  0  0
   20.0529  -12.3865  -16.7949 C   0  0  1  0  0  0  0  0  0  0  0  0
   19.4762  -12.1312  -18.1821 C   0  0  0  0  0  0  0  0  0  0  0  0
   19.6063  -13.2870  -19.0976 C   0  0  0  0  0  0  0  0  0  0  0  0
   18.4672  -14.2160  -19.2256 C   0  0  0  0  0  0  0  0  0  0  0  0
   18.5455  -15.2474  -20.2931 C   0  0  0  0  0  0  0  0  0  0  0  0
   18.1812  -16.5382  -19.6915 N   0  0  0  0  0  0  0  0  0  0  0  0
   19.8177  -11.1993  -15.9302 C   0  0  0  0  0  0  0  0  0  0  0  0
   18.6453  -10.6884  -15.9938 O   0  0  0  0  0  0  0  0  0  0  0  0
   20.7909  -10.6315  -15.0743 N   0  0  0  0  0  0  0  0  0  0  0  0
   21.8625  -11.4604  -14.4874 C   0  0  0  0  0  0  0  0  0  0  0  0
   23.0790  -10.5949  -14.5127 C   0  0  0  0  0  0  0  0  0  0  0  0
   22.5484   -9.2049  -14.5785 C   0  0  0  0  0  0  0  0  0  0  0  0
   21.0231   -9.3466  -14.5311 C   0  0  1  0  0  0  0  0  0  0  0  0
   20.5022   -8.1938  -15.2755 C   0  0  0  0  0  0  0  0  0  0  0  0
   20.5951   -7.9537  -16.4828 O   0  0  0  0  0  0  0  0  0  0  0  0
   17.8984   -3.5907  -15.7269 N   0  0  0  0  0  0  0  0  0  0  0  0
   17.3507   -4.4082  -14.7032 C   0  0  0  0  0  0  0  0  0  0  0  0
   16.2912   -4.0298  -14.1543 O   0  0  0  0  0  0  0  0  0  0  0  0
   17.9848   -5.6551  -14.2864 C   0  0  0  0  0  0  0  0  0  0  0  0
   19.2124   -6.0237  -15.0707 C   0  0  2  0  0  0  0  0  0  0  0  0
   19.7908   -7.2161  -14.4985 N   0  0  0  0  0  0  0  0  0  0  0  0
   20.1227   -4.8814  -15.0639 C   0  0  0  0  0  0  0  0  0  0  0  0
   19.9471   -3.9283  -15.8474 O   0  0  0  0  0  0  0  0  0  0  0  0
   21.1864   -4.8430  -14.1917 O   0  0  0  0  0  0  0  0  0  0  0  0
  2  1  1  1
  3  2  1  0
  4  3  1  0
  4  5  1  0
  6  5  1  0
  6  7  1  0
  8  2  1  0
  9  8  2  0
 10  8  1  0
 10 14  1  0
 11 10  1  0
 12 11  1  0
 12 13  1  0
 13 14  1  0
 15 22  1  0
 14 15  1  6
 16 15  2  0
 18 17  1  0
 18 19  2  0
 20 18  1  0
 21 22  1  0
 21 20  1  1
 23 21  1  0
 24 23  2  0
 25 23  1  0
M  END
$$$$
