KPN.pdb
     RDKit          3D

 25 25  0  0  1  0  0  0  0  0999 V2000
   27.0710  -20.7007  -16.9470 N   0  0  0  0  0  0  0  0  0  0  0  0
   27.3169  -19.8077  -15.8197 C   0  0  1  0  0  0  0  0  0  0  0  0
   26.3507  -18.6313  -15.8874 C   0  0  0  0  0  0  0  0  0  0  0  0
   25.6986  -18.4780  -17.2073 C   0  0  0  0  0  0  0  0  0  0  0  0
   24.2318  -18.6150  -17.2886 C   0  0  0  0  0  0  0  0  0  0  0  0
   23.4879  -17.5568  -18.0212 C   0  0  0  0  0  0  0  0  0  0  0  0
   22.0662  -17.9303  -18.0187 N   0  0  0  0  0  0  0  0  0  0  0  0
   27.0682  -20.5872  -14.5775 C   0  0  0  0  0  0  0  0  0  0  0  0
   25.8677  -21.0005  -14.4112 O   0  0  0  0  0  0  0  0  0  0  0  0
   28.0578  -20.8816  -13.6100 N   0  0  0  0  0  0  0  0  0  0  0  0
   29.4573  -21.1332  -14.0073 C   0  0  0  0  0  0  0  0  0  0  0  0
   30.2833  -20.4849  -12.9457 C   0  0  0  0  0  0  0  0  0  0  0  0
   29.3767  -20.3960  -11.7676 C   0  0  0  0  0  0  0  0  0  0  0  0
   28.0682  -21.0618  -12.2073 C   0  0  1  0  0  0  0  0  0  0  0  0
   27.0139  -20.3965  -11.4325 C   0  0  0  0  0  0  0  0  0  0  0  0
   26.5653  -19.2545  -11.5688 O   0  0  0  0  0  0  0  0  0  0  0  0
   23.3292  -19.9919   -7.6817 N   0  0  0  0  0  0  0  0  0  0  0  0
   23.4489  -21.3302   -8.1410 C   0  0  0  0  0  0  0  0  0  0  0  0
   22.6111  -22.1669   -7.7345 O   0  0  0  0  0  0  0  0  0  0  0  0
   24.5069  -21.7416   -9.0584 C   0  0  0  0  0  0  0  0  0  0  0  0
   25.4530  -20.6430   -9.4532 C   0  0  2  0  0  0  0  0  0  0  0  0
   26.4261  -21.1752  -10.3771 N   0  0  0  0  0  0  0  0  0  0  0  0
   26.0513  -20.0932   -8.2395 C   0  0  0  0  0  0  0  0  0  0  0  0
   25.4327  -19.2580   -7.5519 O   0  0  0  0  0  0  0  0  0  0  0  0
   27.3066  -20.4905   -7.8395 O   0  0  0  0  0  0  0  0  0  0  0  0
  2  1  1  6
  3  2  1  0
  4  3  1  0
  4  5  1  0
  6  5  1  0
  6  7  1  0
  8  2  1  0
  9  8  2  0
 10  8  1  0
 10 14  1  0
 11 10  1  0
 12 11  1  0
 12 13  1  0
 13 14  1  0
 15 22  1  0
 14 15  1  1
 16 15  2  0
 18 17  1  0
 18 19  2  0
 20 18  1  0
 21 22  1  0
 21 20  1  1
 23 21  1  0
 24 23  2  0
 25 23  1  0
M  END
$$$$
