TWM.pdb
     RDKit          3D

 30 31  0  0  1  0  0  0  0  0999 V2000
    7.2878  -19.3021   18.0216 C   0  0  0  0  0  0  0  0  0  0  0  0
    7.9007  -18.5813   19.2052 C   0  0  1  0  0  0  0  0  0  0  0  0
    8.8174  -19.3940   19.8115 O   0  0  0  0  0  0  0  0  0  0  0  0
    8.4150  -17.2271   18.8327 C   0  0  2  0  0  0  0  0  0  0  0  0
    9.3699  -17.2276   17.7765 N   0  0  0  0  0  0  0  0  0  0  0  0
    8.8839  -16.5009   20.0614 C   0  0  0  0  0  0  0  0  0  0  0  0
   10.1128  -16.3966   20.3389 O   0  0  0  0  0  0  0  0  0  0  0  0
    7.9675  -15.9058   20.9628 N   0  0  0  0  0  0  0  0  0  0  0  0
    8.3946  -15.2458   22.2032 C   0  0  1  0  0  0  0  0  0  0  0  0
    7.3708  -14.2655   22.6538 C   0  0  0  0  0  0  0  0  0  0  0  0
    7.7256  -13.4656   23.8390 C   0  0  0  0  0  0  0  0  0  0  0  0
    8.8242  -12.5706   23.8773 C   0  0  0  0  0  0  0  0  0  0  0  0
    8.8706  -12.0041   25.0843 N   0  0  0  0  0  0  0  0  0  0  0  0
    7.9004  -12.4395   25.8597 C   0  0  0  0  0  0  0  0  0  0  0  0
    7.5687  -12.1329   27.1594 C   0  0  0  0  0  0  0  0  0  0  0  0
    6.4765  -12.7772   27.6887 C   0  0  0  0  0  0  0  0  0  0  0  0
    5.7358  -13.6925   26.9629 C   0  0  0  0  0  0  0  0  0  0  0  0
    6.0767  -13.9878   25.6607 C   0  0  0  0  0  0  0  0  0  0  0  0
    7.1730  -13.3617   25.0835 C   0  0  0  0  0  0  0  0  0  0  0  0
    8.9733  -16.1451   23.1899 C   0  0  0  0  0  0  0  0  0  0  0  0
    8.5708  -17.3000   23.4568 O   0  0  0  0  0  0  0  0  0  0  0  0
   15.7806  -18.1099   23.8729 C   0  0  0  0  0  0  0  0  0  0  0  0
   15.0029  -16.9742   24.9832 S   0  0  0  0  0  0  0  0  0  0  0  0
   13.2852  -17.2401   25.3512 C   0  0  0  0  0  0  0  0  0  0  0  0
   12.3230  -16.3730   24.6746 C   0  0  0  0  0  0  0  0  0  0  0  0
   10.8529  -16.5650   24.8274 C   0  0  2  0  0  0  0  0  0  0  0  0
   10.1275  -15.6877   23.9360 N   0  0  0  0  0  0  0  0  0  0  0  0
   10.3239  -16.5923   26.1678 C   0  0  0  0  0  0  0  0  0  0  0  0
    9.9122  -17.6809   26.6922 O   0  0  0  0  0  0  0  0  0  0  0  0
   10.2171  -15.4602   26.9686 O   0  0  0  0  0  0  0  0  0  0  0  0
  2  1  1  6
  2  3  1  0
  4  2  1  0
  4  5  1  6
  6  7  2  0
  6  4  1  0
  8  6  1  0
  9  8  1  0
 10 11  1  0
  9 10  1  1
 11 19  1  0
 11 12  2  0
 12 13  1  0
 14 13  1  0
 14 15  2  0
 16 15  1  0
 17 16  2  0
 18 19  2  0
 18 17  1  0
 19 14  1  0
 20 21  2  0
 20  9  1  0
 23 22  1  0
 24 23  1  0
 25 24  1  0
 26 25  1  1
 26 27  1  0
 27 20  1  0
 28 26  1  0
 29 28  2  0
 30 28  1  0
M  END
$$$$
