TWM.pdb
     RDKit          3D

 30 31  0  0  1  0  0  0  0  0999 V2000
    8.5100  -15.7435   17.5556 C   0  0  0  0  0  0  0  0  0  0  0  0
    8.5445  -15.4768   19.0468 C   0  0  1  0  0  0  0  0  0  0  0  0
    7.2688  -15.3304   19.5154 O   0  0  0  0  0  0  0  0  0  0  0  0
    9.3675  -16.4886   19.7790 C   0  0  2  0  0  0  0  0  0  0  0  0
    8.9266  -17.8335   19.6234 N   0  0  0  0  0  0  0  0  0  0  0  0
    9.5300  -16.0756   21.2143 C   0  0  0  0  0  0  0  0  0  0  0  0
   10.0863  -14.9850   21.5292 O   0  0  0  0  0  0  0  0  0  0  0  0
    9.0698  -16.8936   22.2752 N   0  0  0  0  0  0  0  0  0  0  0  0
    9.2261  -16.5195   23.6867 C   0  0  1  0  0  0  0  0  0  0  0  0
    8.0159  -16.8959   24.4650 C   0  0  0  0  0  0  0  0  0  0  0  0
    7.1449  -15.7813   24.8768 C   0  0  0  0  0  0  0  0  0  0  0  0
    5.7905  -15.9486   25.2601 C   0  0  0  0  0  0  0  0  0  0  0  0
    5.2862  -14.7544   25.5755 N   0  0  0  0  0  0  0  0  0  0  0  0
    6.1822  -13.8002   25.4379 C   0  0  0  0  0  0  0  0  0  0  0  0
    6.1040  -12.4428   25.6492 C   0  0  0  0  0  0  0  0  0  0  0  0
    7.2415  -11.7113   25.4058 C   0  0  0  0  0  0  0  0  0  0  0  0
    8.4163  -12.2964   24.9691 C   0  0  0  0  0  0  0  0  0  0  0  0
    8.4821  -13.6577   24.7650 C   0  0  0  0  0  0  0  0  0  0  0  0
    7.3576  -14.4377   24.9974 C   0  0  0  0  0  0  0  0  0  0  0  0
   10.5331  -16.8299   24.2460 C   0  0  0  0  0  0  0  0  0  0  0  0
   11.3960  -17.5739   23.7277 O   0  0  0  0  0  0  0  0  0  0  0  0
   10.9040  -12.9532   28.2874 C   0  0  0  0  0  0  0  0  0  0  0  0
   10.7705  -14.3718   29.3349 S   0  0  0  0  0  0  0  0  0  0  0  0
   11.3126  -15.9287   28.6727 C   0  0  0  0  0  0  0  0  0  0  0  0
   12.2015  -15.8799   27.5138 C   0  0  0  0  0  0  0  0  0  0  0  0
   11.9781  -16.7416   26.3183 C   0  0  2  0  0  0  0  0  0  0  0  0
   10.8944  -16.2260   25.5120 N   0  0  0  0  0  0  0  0  0  0  0  0
   11.9130  -18.1656   26.5307 C   0  0  0  0  0  0  0  0  0  0  0  0
   10.7922  -18.7752   26.5744 O   0  0  0  0  0  0  0  0  0  0  0  0
   13.0390  -18.9624   26.7080 O   0  0  0  0  0  0  0  0  0  0  0  0
  2  1  1  6
  2  3  1  0
  4  2  1  0
  4  5  1  1
  6  7  2  0
  6  4  1  0
  8  6  1  0
  9  8  1  0
 10 11  1  0
  9 10  1  1
 11 19  1  0
 11 12  2  0
 12 13  1  0
 14 13  1  0
 14 15  2  0
 16 15  1  0
 17 16  2  0
 18 19  2  0
 18 17  1  0
 19 14  1  0
 20 21  2  0
 20  9  1  0
 23 22  1  0
 24 23  1  0
 25 24  1  0
 26 25  1  1
 26 27  1  0
 27 20  1  0
 28 26  1  0
 29 28  2  0
 30 28  1  0
M  END
$$$$
