TWM.pdb
     RDKit          3D

 30 31  0  0  1  0  0  0  0  0999 V2000
   11.7004  -19.5626   19.2242 C   0  0  0  0  0  0  0  0  0  0  0  0
   11.3367  -18.6329   20.3642 C   0  0  1  0  0  0  0  0  0  0  0  0
   12.2992  -18.6975   21.3326 O   0  0  0  0  0  0  0  0  0  0  0  0
   11.0245  -17.2513   19.8839 C   0  0  2  0  0  0  0  0  0  0  0  0
   12.0251  -16.6751   19.0507 N   0  0  0  0  0  0  0  0  0  0  0  0
   10.6396  -16.3795   21.0452 C   0  0  0  0  0  0  0  0  0  0  0  0
   11.4468  -15.5405   21.5378 O   0  0  0  0  0  0  0  0  0  0  0  0
    9.3565  -16.4642   21.6394 N   0  0  0  0  0  0  0  0  0  0  0  0
    8.9736  -15.6650   22.8105 C   0  0  1  0  0  0  0  0  0  0  0  0
    7.5146  -15.7861   23.0724 C   0  0  0  0  0  0  0  0  0  0  0  0
    7.0229  -15.1171   24.2894 C   0  0  0  0  0  0  0  0  0  0  0  0
    6.3481  -15.7952   25.3353 C   0  0  0  0  0  0  0  0  0  0  0  0
    6.0395  -14.9119   26.2865 N   0  0  0  0  0  0  0  0  0  0  0  0
    6.4476  -13.7009   25.9717 C   0  0  0  0  0  0  0  0  0  0  0  0
    6.3472  -12.5046   26.6441 C   0  0  0  0  0  0  0  0  0  0  0  0
    6.8853  -11.4005   26.0279 C   0  0  0  0  0  0  0  0  0  0  0  0
    7.5014  -11.4717   24.7915 C   0  0  0  0  0  0  0  0  0  0  0  0
    7.5984  -12.6770   24.1305 C   0  0  0  0  0  0  0  0  0  0  0  0
    7.0688  -13.8199   24.7139 C   0  0  0  0  0  0  0  0  0  0  0  0
    9.8903  -15.7757   23.9351 C   0  0  0  0  0  0  0  0  0  0  0  0
   10.7106  -14.9046   24.3027 O   0  0  0  0  0  0  0  0  0  0  0  0
   10.7201  -12.8619   28.7387 C   0  0  0  0  0  0  0  0  0  0  0  0
   10.4693  -14.6123   28.7621 S   0  0  0  0  0  0  0  0  0  0  0  0
   10.0536  -15.3974   27.2235 C   0  0  0  0  0  0  0  0  0  0  0  0
   10.5182  -16.7702   27.0359 C   0  0  0  0  0  0  0  0  0  0  0  0
   10.8905  -17.2943   25.6912 C   0  0  2  0  0  0  0  0  0  0  0  0
    9.8614  -16.9916   24.7218 N   0  0  0  0  0  0  0  0  0  0  0  0
   11.3712  -18.6511   25.6186 C   0  0  0  0  0  0  0  0  0  0  0  0
   12.3725  -19.0339   26.3117 O   0  0  0  0  0  0  0  0  0  0  0  0
   10.7989  -19.6200   24.8014 O   0  0  0  0  0  0  0  0  0  0  0  0
  2  1  1  6
  2  3  1  0
  4  2  1  0
  4  5  1  1
  6  7  2  0
  6  4  1  0
  8  6  1  0
  9  8  1  0
 10 11  1  0
  9 10  1  1
 11 19  1  0
 11 12  2  0
 12 13  1  0
 14 13  1  0
 14 15  2  0
 16 15  1  0
 17 16  2  0
 18 19  2  0
 18 17  1  0
 19 14  1  0
 20 21  2  0
 20  9  1  0
 23 22  1  0
 24 23  1  0
 25 24  1  0
 26 25  1  1
 26 27  1  0
 27 20  1  0
 28 26  1  0
 29 28  2  0
 30 28  1  0
M  END
$$$$
