TWM.pdb
     RDKit          3D

 30 31  0  0  1  0  0  0  0  0999 V2000
   12.2794  -19.4774   18.5657 C   0  0  0  0  0  0  0  0  0  0  0  0
   11.9329  -18.6826   19.8084 C   0  0  1  0  0  0  0  0  0  0  0  0
   13.0691  -18.4413   20.5291 O   0  0  0  0  0  0  0  0  0  0  0  0
   11.1245  -17.4654   19.4890 C   0  0  2  0  0  0  0  0  0  0  0  0
   11.7149  -16.6003   18.5244 N   0  0  0  0  0  0  0  0  0  0  0  0
   10.7300  -16.7645   20.7578 C   0  0  0  0  0  0  0  0  0  0  0  0
   11.4609  -15.8717   21.2744 O   0  0  0  0  0  0  0  0  0  0  0  0
    9.5234  -17.0777   21.4305 N   0  0  0  0  0  0  0  0  0  0  0  0
    9.1079  -16.3996   22.6652 C   0  0  1  0  0  0  0  0  0  0  0  0
    7.6266  -16.2800   22.7236 C   0  0  0  0  0  0  0  0  0  0  0  0
    7.0814  -15.6387   23.9327 C   0  0  0  0  0  0  0  0  0  0  0  0
    6.2989  -16.3243   24.8955 C   0  0  0  0  0  0  0  0  0  0  0  0
    5.9662  -15.4675   25.8626 N   0  0  0  0  0  0  0  0  0  0  0  0
    6.4560  -14.2675   25.6342 C   0  0  0  0  0  0  0  0  0  0  0  0
    6.3665  -13.0975   26.3529 C   0  0  0  0  0  0  0  0  0  0  0  0
    7.0025  -11.9981   25.8285 C   0  0  0  0  0  0  0  0  0  0  0  0
    7.7029  -12.0488   24.6368 C   0  0  0  0  0  0  0  0  0  0  0  0
    7.7877  -13.2280   23.9288 C   0  0  0  0  0  0  0  0  0  0  0  0
    7.1607  -14.3651   24.4194 C   0  0  0  0  0  0  0  0  0  0  0  0
    9.8141  -16.8437   23.8574 C   0  0  0  0  0  0  0  0  0  0  0  0
   10.1658  -18.0186   24.1082 O   0  0  0  0  0  0  0  0  0  0  0  0
    9.7474  -12.5563   29.0149 C   0  0  0  0  0  0  0  0  0  0  0  0
   10.7941  -13.8683   29.5720 S   0  0  0  0  0  0  0  0  0  0  0  0
   10.9448  -15.2935   28.5220 C   0  0  0  0  0  0  0  0  0  0  0  0
   10.5897  -15.1180   27.1154 C   0  0  0  0  0  0  0  0  0  0  0  0
   10.7412  -16.2220   26.1256 C   0  0  2  0  0  0  0  0  0  0  0  0
   10.1613  -15.8515   24.8540 N   0  0  0  0  0  0  0  0  0  0  0  0
   10.3878  -17.5513   26.5561 C   0  0  0  0  0  0  0  0  0  0  0  0
   11.2480  -18.3162   27.1080 O   0  0  0  0  0  0  0  0  0  0  0  0
    9.1156  -18.0906   26.3991 O   0  0  0  0  0  0  0  0  0  0  0  0
  2  1  1  6
  2  3  1  0
  4  2  1  0
  4  5  1  6
  6  7  2  0
  6  4  1  0
  8  6  1  0
  9  8  1  0
 10 11  1  0
  9 10  1  1
 11 19  1  0
 11 12  2  0
 12 13  1  0
 14 13  1  0
 14 15  2  0
 16 15  1  0
 17 16  2  0
 18 19  2  0
 18 17  1  0
 19 14  1  0
 20 21  2  0
 20  9  1  0
 23 22  1  0
 24 23  1  0
 25 24  1  0
 26 25  1  1
 26 27  1  0
 27 20  1  0
 28 26  1  0
 29 28  2  0
 30 28  1  0
M  END
$$$$
