TWM.pdb
     RDKit          3D

 30 31  0  0  1  0  0  0  0  0999 V2000
   10.5045  -21.1052   18.9445 C   0  0  0  0  0  0  0  0  0  0  0  0
   10.5319  -20.0336   20.0155 C   0  0  1  0  0  0  0  0  0  0  0  0
   11.5470  -20.2903   20.8942 O   0  0  0  0  0  0  0  0  0  0  0  0
   10.5434  -18.6567   19.4316 C   0  0  2  0  0  0  0  0  0  0  0  0
   11.5997  -18.4154   18.5077 N   0  0  0  0  0  0  0  0  0  0  0  0
   10.4645  -17.6337   20.5289 C   0  0  0  0  0  0  0  0  0  0  0  0
   11.4685  -16.9405   20.8597 O   0  0  0  0  0  0  0  0  0  0  0  0
    9.2616  -17.4059   21.2416 N   0  0  0  0  0  0  0  0  0  0  0  0
    9.1613  -16.4243   22.3293 C   0  0  1  0  0  0  0  0  0  0  0  0
    7.8570  -15.7117   22.2725 C   0  0  0  0  0  0  0  0  0  0  0  0
    7.7697  -14.4688   23.0587 C   0  0  0  0  0  0  0  0  0  0  0  0
    8.3156  -13.2330   22.6296 C   0  0  0  0  0  0  0  0  0  0  0  0
    8.0659  -12.3106   23.5607 N   0  0  0  0  0  0  0  0  0  0  0  0
    7.4007  -12.8178   24.5768 C   0  0  0  0  0  0  0  0  0  0  0  0
    6.9385  -12.2429   25.7383 C   0  0  0  0  0  0  0  0  0  0  0  0
    6.2690  -13.0648   26.6126 C   0  0  0  0  0  0  0  0  0  0  0  0
    6.0616  -14.4074   26.3523 C   0  0  0  0  0  0  0  0  0  0  0  0
    6.5266  -14.9697   25.1834 C   0  0  0  0  0  0  0  0  0  0  0  0
    7.2092  -14.1784   24.2697 C   0  0  0  0  0  0  0  0  0  0  0  0
    9.6286  -16.9110   23.6185 C   0  0  0  0  0  0  0  0  0  0  0  0
    9.5301  -18.0855   24.0399 O   0  0  0  0  0  0  0  0  0  0  0  0
    9.6132  -12.8704   29.3973 C   0  0  0  0  0  0  0  0  0  0  0  0
   11.1476  -13.6698   29.0311 S   0  0  0  0  0  0  0  0  0  0  0  0
   11.0755  -15.2024   28.1351 C   0  0  0  0  0  0  0  0  0  0  0  0
   10.8440  -15.1151   26.6949 C   0  0  0  0  0  0  0  0  0  0  0  0
   10.6498  -16.3327   25.8575 C   0  0  2  0  0  0  0  0  0  0  0  0
   10.2797  -15.9709   24.5075 N   0  0  0  0  0  0  0  0  0  0  0  0
    9.8497  -17.3965   26.4102 C   0  0  0  0  0  0  0  0  0  0  0  0
   10.2669  -18.0910   27.3968 O   0  0  0  0  0  0  0  0  0  0  0  0
    8.5965  -17.7433   25.9169 O   0  0  0  0  0  0  0  0  0  0  0  0
  2  1  1  6
  2  3  1  0
  4  2  1  0
  4  5  1  1
  6  7  2  0
  6  4  1  0
  8  6  1  0
  9  8  1  0
 10 11  1  0
  9 10  1  1
 11 19  1  0
 11 12  2  0
 12 13  1  0
 14 13  1  0
 14 15  2  0
 16 15  1  0
 17 16  2  0
 18 19  2  0
 18 17  1  0
 19 14  1  0
 20 21  2  0
 20  9  1  0
 23 22  1  0
 24 23  1  0
 25 24  1  0
 26 25  1  1
 26 27  1  0
 27 20  1  0
 28 26  1  0
 29 28  2  0
 30 28  1  0
M  END
$$$$
