TWM.pdb
     RDKit          3D

 30 31  0  0  1  0  0  0  0  0999 V2000
   12.9184  -20.1854   20.4686 C   0  0  0  0  0  0  0  0  0  0  0  0
   12.3944  -19.0757   21.3575 C   0  0  1  0  0  0  0  0  0  0  0  0
   13.4338  -18.5029   22.0356 O   0  0  0  0  0  0  0  0  0  0  0  0
   11.5328  -18.1128   20.6042 C   0  0  2  0  0  0  0  0  0  0  0  0
   12.1457  -17.5506   19.4484 N   0  0  0  0  0  0  0  0  0  0  0  0
   10.9722  -17.0831   21.5435 C   0  0  0  0  0  0  0  0  0  0  0  0
   11.4256  -15.9036   21.5781 O   0  0  0  0  0  0  0  0  0  0  0  0
    9.9139  -17.3925   22.4328 N   0  0  0  0  0  0  0  0  0  0  0  0
    9.4336  -16.4473   23.4490 C   0  0  1  0  0  0  0  0  0  0  0  0
    7.9488  -16.3644   23.4265 C   0  0  0  0  0  0  0  0  0  0  0  0
    7.3626  -15.6584   22.2739 C   0  0  0  0  0  0  0  0  0  0  0  0
    6.3206  -16.1949   21.4766 C   0  0  0  0  0  0  0  0  0  0  0  0
    6.0164  -15.3128   20.5229 N   0  0  0  0  0  0  0  0  0  0  0  0
    6.7619  -14.2316   20.6095 C   0  0  0  0  0  0  0  0  0  0  0  0
    6.7919  -13.0851   19.8494 C   0  0  0  0  0  0  0  0  0  0  0  0
    7.7086  -12.1269   20.2093 C   0  0  0  0  0  0  0  0  0  0  0  0
    8.5669  -12.2918   21.2814 C   0  0  0  0  0  0  0  0  0  0  0  0
    8.5240  -13.4436   22.0367 C   0  0  0  0  0  0  0  0  0  0  0  0
    7.6142  -14.4400   21.7106 C   0  0  0  0  0  0  0  0  0  0  0  0
   10.1009  -16.5642   24.7367 C   0  0  0  0  0  0  0  0  0  0  0  0
   10.3853  -17.6333   25.3224 O   0  0  0  0  0  0  0  0  0  0  0  0
    6.5758  -11.7076   28.3237 C   0  0  0  0  0  0  0  0  0  0  0  0
    8.2906  -12.0474   28.0566 S   0  0  0  0  0  0  0  0  0  0  0  0
    8.7333  -13.7099   27.6131 C   0  0  0  0  0  0  0  0  0  0  0  0
   10.1508  -13.9750   27.3763 C   0  0  0  0  0  0  0  0  0  0  0  0
   10.6257  -15.2880   26.8548 C   0  0  2  0  0  0  0  0  0  0  0  0
   10.4902  -15.3459   25.4165 N   0  0  0  0  0  0  0  0  0  0  0  0
   10.1609  -16.4753   27.5269 C   0  0  0  0  0  0  0  0  0  0  0  0
   10.5867  -16.7840   28.6901 O   0  0  0  0  0  0  0  0  0  0  0  0
    9.2417  -17.3571   26.9686 O   0  0  0  0  0  0  0  0  0  0  0  0
  2  1  1  6
  2  3  1  0
  4  2  1  0
  4  5  1  6
  6  7  2  0
  6  4  1  0
  8  6  1  0
  9  8  1  0
 10 11  1  0
  9 10  1  1
 11 19  1  0
 11 12  2  0
 12 13  1  0
 14 13  1  0
 14 15  2  0
 16 15  1  0
 17 16  2  0
 18 19  2  0
 18 17  1  0
 19 14  1  0
 20 21  2  0
 20  9  1  0
 23 22  1  0
 24 23  1  0
 25 24  1  0
 26 25  1  1
 26 27  1  0
 27 20  1  0
 28 26  1  0
 29 28  2  0
 30 28  1  0
M  END
$$$$
