TWM.pdb
     RDKit          3D

 30 31  0  0  1  0  0  0  0  0999 V2000
   10.7567  -21.2164   19.1031 C   0  0  0  0  0  0  0  0  0  0  0  0
   10.7452  -20.0599   20.0821 C   0  0  1  0  0  0  0  0  0  0  0  0
   11.8908  -20.0795   20.8274 O   0  0  0  0  0  0  0  0  0  0  0  0
   10.4604  -18.7559   19.4071 C   0  0  2  0  0  0  0  0  0  0  0  0
   11.3280  -18.4514   18.3199 N   0  0  0  0  0  0  0  0  0  0  0  0
   10.3749  -17.6577   20.4286 C   0  0  0  0  0  0  0  0  0  0  0  0
   11.3476  -16.8801   20.6460 O   0  0  0  0  0  0  0  0  0  0  0  0
    9.2010  -17.4502   21.1938 N   0  0  0  0  0  0  0  0  0  0  0  0
    9.1230  -16.4493   22.2657 C   0  0  1  0  0  0  0  0  0  0  0  0
    7.8435  -15.6954   22.1857 C   0  0  0  0  0  0  0  0  0  0  0  0
    7.7643  -14.4759   23.0085 C   0  0  0  0  0  0  0  0  0  0  0  0
    8.3024  -13.2271   22.6082 C   0  0  0  0  0  0  0  0  0  0  0  0
    8.0634  -12.3324   23.5687 N   0  0  0  0  0  0  0  0  0  0  0  0
    7.4124  -12.8701   24.5783 C   0  0  0  0  0  0  0  0  0  0  0  0
    6.9644  -12.3299   25.7618 C   0  0  0  0  0  0  0  0  0  0  0  0
    6.3078  -13.1781   26.6207 C   0  0  0  0  0  0  0  0  0  0  0  0
    6.0993  -14.5130   26.3245 C   0  0  0  0  0  0  0  0  0  0  0  0
    6.5500  -15.0404   25.1339 C   0  0  0  0  0  0  0  0  0  0  0  0
    7.2192  -14.2216   24.2346 C   0  0  0  0  0  0  0  0  0  0  0  0
    9.5623  -16.9313   23.5665 C   0  0  0  0  0  0  0  0  0  0  0  0
    9.5911  -18.1271   23.9354 O   0  0  0  0  0  0  0  0  0  0  0  0
   10.2130  -13.3358   30.1414 C   0  0  0  0  0  0  0  0  0  0  0  0
   11.4628  -13.7632   28.9655 S   0  0  0  0  0  0  0  0  0  0  0  0
   11.2476  -15.2766   28.0601 C   0  0  0  0  0  0  0  0  0  0  0  0
   10.8477  -15.1571   26.6596 C   0  0  0  0  0  0  0  0  0  0  0  0
   10.5184  -16.3537   25.8342 C   0  0  2  0  0  0  0  0  0  0  0  0
   10.0224  -15.9577   24.5351 N   0  0  0  0  0  0  0  0  0  0  0  0
    9.7397  -17.3944   26.4570 C   0  0  0  0  0  0  0  0  0  0  0  0
   10.2497  -18.1592   27.3427 O   0  0  0  0  0  0  0  0  0  0  0  0
    8.4082  -17.6430   26.1414 O   0  0  0  0  0  0  0  0  0  0  0  0
  2  1  1  6
  2  3  1  0
  4  2  1  0
  4  5  1  6
  6  7  2  0
  6  4  1  0
  8  6  1  0
  9  8  1  0
 10 11  1  0
  9 10  1  1
 11 19  1  0
 11 12  2  0
 12 13  1  0
 14 13  1  0
 14 15  2  0
 16 15  1  0
 17 16  2  0
 18 19  2  0
 18 17  1  0
 19 14  1  0
 20 21  2  0
 20  9  1  0
 23 22  1  0
 24 23  1  0
 25 24  1  0
 26 25  1  1
 26 27  1  0
 27 20  1  0
 28 26  1  0
 29 28  2  0
 30 28  1  0
M  END
$$$$
