TWM.pdb
     RDKit          3D

 30 31  0  0  1  0  0  0  0  0999 V2000
   11.8338  -19.7595   19.4705 C   0  0  0  0  0  0  0  0  0  0  0  0
   11.5345  -19.0304   20.7647 C   0  0  1  0  0  0  0  0  0  0  0  0
   12.5907  -19.1662   21.6216 O   0  0  0  0  0  0  0  0  0  0  0  0
   11.0999  -17.6192   20.5264 C   0  0  2  0  0  0  0  0  0  0  0  0
   12.0066  -16.8452   19.7477 N   0  0  0  0  0  0  0  0  0  0  0  0
   10.7270  -16.9706   21.8291 C   0  0  0  0  0  0  0  0  0  0  0  0
   11.4729  -16.1086   22.3756 O   0  0  0  0  0  0  0  0  0  0  0  0
    9.5248  -17.3010   22.5015 N   0  0  0  0  0  0  0  0  0  0  0  0
    9.1929  -16.7743   23.8316 C   0  0  1  0  0  0  0  0  0  0  0  0
    7.7623  -16.3722   23.8932 C   0  0  0  0  0  0  0  0  0  0  0  0
    7.5019  -14.9222   23.8828 C   0  0  0  0  0  0  0  0  0  0  0  0
    7.6919  -14.1025   22.7420 C   0  0  0  0  0  0  0  0  0  0  0  0
    7.3668  -12.8481   23.0596 N   0  0  0  0  0  0  0  0  0  0  0  0
    6.9753  -12.7532   24.3126 C   0  0  0  0  0  0  0  0  0  0  0  0
    6.5544  -11.6731   25.0539 C   0  0  0  0  0  0  0  0  0  0  0  0
    6.2111  -11.9154   26.3621 C   0  0  0  0  0  0  0  0  0  0  0  0
    6.2798  -13.1785   26.9218 C   0  0  0  0  0  0  0  0  0  0  0  0
    6.6996  -14.2524   26.1671 C   0  0  0  0  0  0  0  0  0  0  0  0
    7.0572  -14.0558   24.8403 C   0  0  0  0  0  0  0  0  0  0  0  0
    9.7427  -17.5476   24.9348 C   0  0  0  0  0  0  0  0  0  0  0  0
    9.9721  -18.7782   24.9269 O   0  0  0  0  0  0  0  0  0  0  0  0
   11.4501  -13.4555   27.0347 C   0  0  0  0  0  0  0  0  0  0  0  0
   10.6009  -13.8354   28.5387 S   0  0  0  0  0  0  0  0  0  0  0  0
   10.0428  -15.5075   28.7605 C   0  0  0  0  0  0  0  0  0  0  0  0
   10.9732  -16.5696   28.3840 C   0  0  0  0  0  0  0  0  0  0  0  0
   10.6616  -17.5325   27.2898 C   0  0  2  0  0  0  0  0  0  0  0  0
   10.0717  -16.8492   26.1604 N   0  0  0  0  0  0  0  0  0  0  0  0
    9.9766  -18.7478   27.6516 C   0  0  0  0  0  0  0  0  0  0  0  0
    8.7370  -18.9083   27.3920 O   0  0  0  0  0  0  0  0  0  0  0  0
   10.5976  -19.8084   28.3024 O   0  0  0  0  0  0  0  0  0  0  0  0
  2  1  1  6
  2  3  1  0
  4  2  1  0
  4  5  1  1
  6  7  2  0
  6  4  1  0
  8  6  1  0
  9  8  1  0
 10 11  1  0
  9 10  1  1
 11 19  1  0
 11 12  2  0
 12 13  1  0
 14 13  1  0
 14 15  2  0
 16 15  1  0
 17 16  2  0
 18 19  2  0
 18 17  1  0
 19 14  1  0
 20 21  2  0
 20  9  1  0
 23 22  1  0
 24 23  1  0
 25 24  1  0
 26 25  1  1
 26 27  1  0
 27 20  1  0
 28 26  1  0
 29 28  2  0
 30 28  1  0
M  END
$$$$
