TWM.pdb
     RDKit          3D

 30 31  0  0  1  0  0  0  0  0999 V2000
   31.4925   29.0512   21.0510 C   0  0  0  0  0  0  0  0  0  0  0  0
   32.5844   28.0699   20.6759 C   0  0  1  0  0  0  0  0  0  0  0  0
   32.0762   27.1183   19.8365 O   0  0  0  0  0  0  0  0  0  0  0  0
   33.8101   28.7610   20.1688 C   0  0  2  0  0  0  0  0  0  0  0  0
   34.9536   27.9216   20.0457 N   0  0  0  0  0  0  0  0  0  0  0  0
   34.0660   30.0053   20.9707 C   0  0  0  0  0  0  0  0  0  0  0  0
   35.2390   30.4292   21.1767 O   0  0  0  0  0  0  0  0  0  0  0  0
   33.0028   30.7536   21.5330 N   0  0  0  0  0  0  0  0  0  0  0  0
   32.1531   31.6442   20.7319 C   0  0  1  0  0  0  0  0  0  0  0  0
   32.9249   32.2275   19.6022 C   0  0  0  0  0  0  0  0  0  0  0  0
   33.9596   33.2094   19.9707 C   0  0  0  0  0  0  0  0  0  0  0  0
   35.1494   33.4072   19.2261 C   0  0  0  0  0  0  0  0  0  0  0  0
   35.8692   34.3618   19.8184 N   0  0  0  0  0  0  0  0  0  0  0  0
   35.2678   34.8223   20.8947 C   0  0  0  0  0  0  0  0  0  0  0  0
   35.6372   35.7932   21.7970 C   0  0  0  0  0  0  0  0  0  0  0  0
   34.7685   36.0392   22.8328 C   0  0  0  0  0  0  0  0  0  0  0  0
   33.5763   35.3526   22.9756 C   0  0  0  0  0  0  0  0  0  0  0  0
   33.2166   34.3851   22.0626 C   0  0  0  0  0  0  0  0  0  0  0  0
   34.0628   34.1017   20.9994 C   0  0  0  0  0  0  0  0  0  0  0  0
   30.8230   31.1190   20.4634 C   0  0  0  0  0  0  0  0  0  0  0  0
   30.3156   30.9470   19.3321 O   0  0  0  0  0  0  0  0  0  0  0  0
   26.3927   32.7248   24.1909 C   0  0  0  0  0  0  0  0  0  0  0  0
   27.6281   32.0019   25.2295 S   0  0  0  0  0  0  0  0  0  0  0  0
   29.3045   32.0268   24.6417 C   0  0  0  0  0  0  0  0  0  0  0  0
   29.5114   32.4310   23.2527 C   0  0  0  0  0  0  0  0  0  0  0  0
   28.9786   31.6282   22.1156 C   0  0  2  0  0  0  0  0  0  0  0  0
   29.9965   30.7446   21.5925 N   0  0  0  0  0  0  0  0  0  0  0  0
   28.2443   32.3319   21.0942 C   0  0  0  0  0  0  0  0  0  0  0  0
   27.5790   31.7000   20.2067 O   0  0  0  0  0  0  0  0  0  0  0  0
   28.2128   33.7188   20.9964 O   0  0  0  0  0  0  0  0  0  0  0  0
  2  1  1  6
  2  3  1  0
  4  2  1  0
  4  5  1  1
  6  7  2  0
  6  4  1  0
  8  6  1  0
  9  8  1  0
 10 11  1  0
  9 10  1  6
 11 19  1  0
 11 12  2  0
 12 13  1  0
 14 13  1  0
 14 15  2  0
 16 15  1  0
 17 16  2  0
 18 19  2  0
 18 17  1  0
 19 14  1  0
 20 21  2  0
 20  9  1  0
 23 22  1  0
 24 23  1  0
 25 24  1  0
 26 25  1  1
 26 27  1  0
 27 20  1  0
 28 26  1  0
 29 28  2  0
 30 28  1  0
M  END
$$$$
