HQP.pdb
     RDKit          3D

 27 28  0  0  1  0  0  0  0  0999 V2000
    7.2879  -16.5426   20.3889 N   0  0  0  0  0  0  0  0  0  0  0  0
    7.5850  -15.3279   21.0882 C   0  0  1  0  0  0  0  0  0  0  0  0
    6.9152  -14.1208   20.4615 C   0  0  0  0  0  0  0  0  0  0  0  0
    7.5887  -13.8921   19.1519 C   0  0  0  0  0  0  0  0  0  0  0  0
    8.4949  -12.9166   18.8027 C   0  0  0  0  0  0  0  0  0  0  0  0
    8.8407  -13.0879   17.5197 N   0  0  0  0  0  0  0  0  0  0  0  0
    8.1621  -14.1544   17.0702 C   0  0  0  0  0  0  0  0  0  0  0  0
    7.3926  -14.6529   18.0645 N   0  0  0  0  0  0  0  0  0  0  0  0
    7.0956  -15.3937   22.5091 C   0  0  0  0  0  0  0  0  0  0  0  0
    5.8719  -15.5103   22.7651 O   0  0  0  0  0  0  0  0  0  0  0  0
    7.0240  -19.8880   24.5017 N   0  0  0  0  0  0  0  0  0  0  0  0
    6.7943  -19.3587   25.7971 C   0  0  0  0  0  0  0  0  0  0  0  0
    6.4643  -20.1690   26.7015 O   0  0  0  0  0  0  0  0  0  0  0  0
    6.9441  -17.9038   26.0480 C   0  0  0  0  0  0  0  0  0  0  0  0
    7.2535  -17.2200   24.7510 C   0  0  0  0  0  0  0  0  0  0  0  0
    7.5601  -15.7287   24.9740 C   0  0  2  0  0  0  0  0  0  0  0  0
    7.9902  -15.3270   23.5984 N   0  0  0  0  0  0  0  0  0  0  0  0
    8.6667  -15.6500   25.9106 C   0  0  0  0  0  0  0  0  0  0  0  0
    9.5296  -16.6277   25.7618 O   0  0  0  0  0  0  0  0  0  0  0  0
    8.9837  -14.7498   26.9220 N   0  0  0  0  0  0  0  0  0  0  0  0
    8.5762  -13.2853   26.7683 C   0  0  0  0  0  0  0  0  0  0  0  0
    7.8049  -13.1326   28.0544 C   0  0  0  0  0  0  0  0  0  0  0  0
    8.4198  -14.1145   29.0250 C   0  0  0  0  0  0  0  0  0  0  0  0
    9.6001  -14.6627   28.1863 C   0  0  1  0  0  0  0  0  0  0  0  0
   10.2399  -15.7536   28.8432 C   0  0  0  0  0  0  0  0  0  0  0  0
   11.1393  -15.4377   29.8939 O   0  0  0  0  0  0  0  0  0  0  0  0
   10.1095  -16.9428   28.6122 O   0  0  0  0  0  0  0  0  0  0  0  0
  2  3  1  0
  2  1  1  6
  4  3  1  0
  5  4  2  0
  6  7  1  0
  6  5  1  0
  7  8  2  0
  8  4  1  0
  9 10  2  0
  9  2  1  0
 12 11  1  0
 12 14  1  0
 13 12  2  0
 16 15  1  6
 15 14  1  0
 16 17  1  0
 17  9  1  0
 18 16  1  0
 19 18  2  0
 20 21  1  0
 20 18  1  0
 22 21  1  0
 23 22  1  0
 24 23  1  0
 24 20  1  0
 24 25  1  1
 26 25  1  0
 27 25  2  0
M  END
$$$$
