HQP.pdb
     RDKit          3D

 27 28  0  0  1  0  0  0  0  0999 V2000
    7.7424  -16.6274   20.0044 N   0  0  0  0  0  0  0  0  0  0  0  0
    7.6441  -15.3716   20.6871 C   0  0  1  0  0  0  0  0  0  0  0  0
    6.7719  -14.3771   19.9463 C   0  0  0  0  0  0  0  0  0  0  0  0
    7.5300  -13.9692   18.7298 C   0  0  0  0  0  0  0  0  0  0  0  0
    8.3102  -12.8531   18.5292 C   0  0  0  0  0  0  0  0  0  0  0  0
    8.8030  -12.8890   17.2839 N   0  0  0  0  0  0  0  0  0  0  0  0
    8.3395  -14.0103   16.7114 C   0  0  0  0  0  0  0  0  0  0  0  0
    7.5586  -14.6778   17.5911 N   0  0  0  0  0  0  0  0  0  0  0  0
    7.0250  -15.5474   22.0468 C   0  0  0  0  0  0  0  0  0  0  0  0
    5.9222  -16.1323   22.1827 O   0  0  0  0  0  0  0  0  0  0  0  0
    7.9660  -19.5348   24.8625 N   0  0  0  0  0  0  0  0  0  0  0  0
    7.1334  -18.9736   25.8638 C   0  0  0  0  0  0  0  0  0  0  0  0
    6.6492  -19.7593   26.7191 O   0  0  0  0  0  0  0  0  0  0  0  0
    6.8607  -17.5149   25.8787 C   0  0  0  0  0  0  0  0  0  0  0  0
    7.3127  -16.9264   24.5768 C   0  0  0  0  0  0  0  0  0  0  0  0
    7.1315  -15.3984   24.5707 C   0  0  2  0  0  0  0  0  0  0  0  0
    7.6589  -15.0637   23.2110 N   0  0  0  0  0  0  0  0  0  0  0  0
    7.9882  -14.8571   25.6105 C   0  0  0  0  0  0  0  0  0  0  0  0
    9.0195  -15.6259   25.8714 O   0  0  0  0  0  0  0  0  0  0  0  0
    7.9266  -13.6961   26.3734 N   0  0  0  0  0  0  0  0  0  0  0  0
    7.1774  -12.4837   25.8227 C   0  0  0  0  0  0  0  0  0  0  0  0
    6.2320  -12.2634   26.9759 C   0  0  0  0  0  0  0  0  0  0  0  0
    6.9481  -12.7795   28.2028 C   0  0  0  0  0  0  0  0  0  0  0  0
    8.3291  -13.1489   27.6080 C   0  0  1  0  0  0  0  0  0  0  0  0
    9.1383  -13.8317   28.5621 C   0  0  0  0  0  0  0  0  0  0  0  0
    9.0559  -15.2478   28.5838 O   0  0  0  0  0  0  0  0  0  0  0  0
    9.9043  -13.3442   29.3746 O   0  0  0  0  0  0  0  0  0  0  0  0
  2  3  1  0
  2  1  1  6
  4  3  1  0
  5  4  2  0
  6  7  1  0
  6  5  1  0
  7  8  2  0
  8  4  1  0
  9 10  2  0
  9  2  1  0
 12 11  1  0
 12 14  1  0
 13 12  2  0
 16 15  1  6
 15 14  1  0
 16 17  1  0
 17  9  1  0
 18 16  1  0
 19 18  2  0
 20 21  1  0
 20 18  1  0
 22 21  1  0
 23 22  1  0
 24 23  1  0
 24 20  1  0
 24 25  1  1
 26 25  1  0
 27 25  2  0
M  END
$$$$
