HQP.pdb
     RDKit          3D

 27 28  0  0  1  0  0  0  0  0999 V2000
    8.8154  -16.2925   20.2382 N   0  0  0  0  0  0  0  0  0  0  0  0
    8.2359  -14.9982   20.4421 C   0  0  1  0  0  0  0  0  0  0  0  0
    7.2553  -14.6244   19.3480 C   0  0  0  0  0  0  0  0  0  0  0  0
    8.0262  -14.6077   18.0727 C   0  0  0  0  0  0  0  0  0  0  0  0
    8.6091  -15.6572   17.3992 C   0  0  0  0  0  0  0  0  0  0  0  0
    9.2011  -15.1854   16.2939 N   0  0  0  0  0  0  0  0  0  0  0  0
    8.9933  -13.8601   16.2736 C   0  0  0  0  0  0  0  0  0  0  0  0
    8.2739  -13.4984   17.3603 N   0  0  0  0  0  0  0  0  0  0  0  0
    7.4667  -14.9526   21.7341 C   0  0  0  0  0  0  0  0  0  0  0  0
    6.2121  -15.0045   21.7400 O   0  0  0  0  0  0  0  0  0  0  0  0
    6.3259  -19.1029   23.2057 N   0  0  0  0  0  0  0  0  0  0  0  0
    6.3277  -18.8541   24.6018 C   0  0  0  0  0  0  0  0  0  0  0  0
    5.7615  -19.7015   25.3398 O   0  0  0  0  0  0  0  0  0  0  0  0
    6.9786  -17.6355   25.1435 C   0  0  0  0  0  0  0  0  0  0  0  0
    7.6047  -16.8792   24.0113 C   0  0  0  0  0  0  0  0  0  0  0  0
    7.4867  -15.3608   24.2314 C   0  0  2  0  0  0  0  0  0  0  0  0
    8.1249  -14.8503   22.9781 N   0  0  0  0  0  0  0  0  0  0  0  0
    8.2865  -15.0292   25.3968 C   0  0  0  0  0  0  0  0  0  0  0  0
    9.2559  -15.8881   25.6097 O   0  0  0  0  0  0  0  0  0  0  0  0
    8.2235  -13.9903   26.3190 N   0  0  0  0  0  0  0  0  0  0  0  0
    7.7296  -12.6188   25.8612 C   0  0  0  0  0  0  0  0  0  0  0  0
    6.6249  -12.4319   26.8695 C   0  0  0  0  0  0  0  0  0  0  0  0
    7.0457  -13.2116   28.0940 C   0  0  0  0  0  0  0  0  0  0  0  0
    8.4589  -13.6848   27.6744 C   0  0  1  0  0  0  0  0  0  0  0  0
    9.0002  -14.6026   28.6209 C   0  0  0  0  0  0  0  0  0  0  0  0
    9.6410  -14.0526   29.7609 O   0  0  0  0  0  0  0  0  0  0  0  0
    8.9816  -15.8200   28.5733 O   0  0  0  0  0  0  0  0  0  0  0  0
  2  3  1  0
  2  1  1  6
  4  3  1  0
  5  4  2  0
  6  7  1  0
  6  5  1  0
  7  8  2  0
  8  4  1  0
  9 10  2  0
  9  2  1  0
 12 11  1  0
 12 14  1  0
 13 12  2  0
 16 15  1  6
 15 14  1  0
 16 17  1  0
 17  9  1  0
 18 16  1  0
 19 18  2  0
 20 21  1  0
 20 18  1  0
 22 21  1  0
 23 22  1  0
 24 23  1  0
 24 20  1  0
 24 25  1  1
 26 25  1  0
 27 25  2  0
M  END
$$$$
