HQP.pdb
     RDKit          3D

 27 28  0  0  1  0  0  0  0  0999 V2000
    5.9635  -15.3035   20.3705 N   0  0  0  0  0  0  0  0  0  0  0  0
    7.1998  -15.1970   21.0866 C   0  0  1  0  0  0  0  0  0  0  0  0
    7.9302  -13.9018   20.7906 C   0  0  0  0  0  0  0  0  0  0  0  0
    8.3189  -13.9512   19.3528 C   0  0  0  0  0  0  0  0  0  0  0  0
    7.8242  -13.2204   18.2963 C   0  0  0  0  0  0  0  0  0  0  0  0
    8.4636  -13.5902   17.1786 N   0  0  0  0  0  0  0  0  0  0  0  0
    9.3462  -14.5385   17.5277 C   0  0  0  0  0  0  0  0  0  0  0  0
    9.2636  -14.7653   18.8585 N   0  0  0  0  0  0  0  0  0  0  0  0
    6.9628  -15.2197   22.5720 C   0  0  0  0  0  0  0  0  0  0  0  0
    6.0890  -14.4865   23.0970 O   0  0  0  0  0  0  0  0  0  0  0  0
    5.9649  -20.2685   26.0277 N   0  0  0  0  0  0  0  0  0  0  0  0
    6.9363  -19.4543   26.6635 C   0  0  0  0  0  0  0  0  0  0  0  0
    7.8058  -20.0337   27.3645 O   0  0  0  0  0  0  0  0  0  0  0  0
    6.9051  -17.9805   26.4919 C   0  0  0  0  0  0  0  0  0  0  0  0
    7.3017  -17.6502   25.0851 C   0  0  0  0  0  0  0  0  0  0  0  0
    7.4199  -16.1286   24.8890 C   0  0  2  0  0  0  0  0  0  0  0  0
    7.7104  -16.0614   23.4228 N   0  0  0  0  0  0  0  0  0  0  0  0
    8.5597  -15.6793   25.6680 C   0  0  0  0  0  0  0  0  0  0  0  0
    9.5925  -16.4833   25.5688 O   0  0  0  0  0  0  0  0  0  0  0  0
    8.7648  -14.5755   26.4886 N   0  0  0  0  0  0  0  0  0  0  0  0
    8.2022  -13.2196   26.0651 C   0  0  0  0  0  0  0  0  0  0  0  0
    7.4036  -12.9123   27.3060 C   0  0  0  0  0  0  0  0  0  0  0  0
    8.1100  -13.6207   28.4390 C   0  0  0  0  0  0  0  0  0  0  0  0
    9.3529  -14.1850   27.7083 C   0  0  1  0  0  0  0  0  0  0  0  0
   10.0998  -15.0562   28.5535 C   0  0  0  0  0  0  0  0  0  0  0  0
   11.0511  -14.4578   29.4193 O   0  0  0  0  0  0  0  0  0  0  0  0
   10.0227  -16.2699   28.6273 O   0  0  0  0  0  0  0  0  0  0  0  0
  2  3  1  0
  2  1  1  6
  4  3  1  0
  5  4  2  0
  6  7  1  0
  6  5  1  0
  7  8  2  0
  8  4  1  0
  9 10  2  0
  9  2  1  0
 12 11  1  0
 12 14  1  0
 13 12  2  0
 16 15  1  1
 15 14  1  0
 16 17  1  0
 17  9  1  0
 18 16  1  0
 19 18  2  0
 20 21  1  0
 20 18  1  0
 22 21  1  0
 23 22  1  0
 24 23  1  0
 24 20  1  0
 24 25  1  1
 26 25  1  0
 27 25  2  0
M  END
$$$$
