HQP.pdb
     RDKit          3D

 27 28  0  0  1  0  0  0  0  0999 V2000
    7.4618  -16.6508   19.5742 N   0  0  0  0  0  0  0  0  0  0  0  0
    8.2758  -16.3768   20.7209 C   0  0  1  0  0  0  0  0  0  0  0  0
    9.2873  -15.2772   20.4631 C   0  0  0  0  0  0  0  0  0  0  0  0
    8.8179  -14.5414   19.2552 C   0  0  0  0  0  0  0  0  0  0  0  0
    8.4963  -13.2095   19.1230 C   0  0  0  0  0  0  0  0  0  0  0  0
    8.1213  -12.9794   17.8576 N   0  0  0  0  0  0  0  0  0  0  0  0
    8.2060  -14.1487   17.2052 C   0  0  0  0  0  0  0  0  0  0  0  0
    8.6322  -15.1108   18.0549 N   0  0  0  0  0  0  0  0  0  0  0  0
    7.4335  -15.9145   21.8783 C   0  0  0  0  0  0  0  0  0  0  0  0
    6.1797  -15.9511   21.8188 O   0  0  0  0  0  0  0  0  0  0  0  0
    7.6410  -19.7377   25.0525 N   0  0  0  0  0  0  0  0  0  0  0  0
    6.9165  -18.9884   26.0141 C   0  0  0  0  0  0  0  0  0  0  0  0
    6.4368  -19.6163   26.9933 O   0  0  0  0  0  0  0  0  0  0  0  0
    6.7462  -17.5237   25.8473 C   0  0  0  0  0  0  0  0  0  0  0  0
    7.3944  -17.1058   24.5625 C   0  0  0  0  0  0  0  0  0  0  0  0
    7.3305  -15.5788   24.3844 C   0  0  2  0  0  0  0  0  0  0  0  0
    8.0198  -15.4260   23.0652 N   0  0  0  0  0  0  0  0  0  0  0  0
    8.1128  -14.9854   25.4539 C   0  0  0  0  0  0  0  0  0  0  0  0
    9.0440  -15.7903   25.9099 O   0  0  0  0  0  0  0  0  0  0  0  0
    8.0656  -13.7447   26.0801 N   0  0  0  0  0  0  0  0  0  0  0  0
    7.5052  -12.5468   25.3150 C   0  0  0  0  0  0  0  0  0  0  0  0
    6.4497  -12.1244   26.3048 C   0  0  0  0  0  0  0  0  0  0  0  0
    6.9587  -12.5538   27.6616 C   0  0  0  0  0  0  0  0  0  0  0  0
    8.3622  -13.0954   27.2951 C   0  0  1  0  0  0  0  0  0  0  0  0
    8.9813  -13.7280   28.4121 C   0  0  0  0  0  0  0  0  0  0  0  0
    8.8461  -15.1366   28.5138 O   0  0  0  0  0  0  0  0  0  0  0  0
    9.6226  -13.2027   29.3051 O   0  0  0  0  0  0  0  0  0  0  0  0
  2  3  1  0
  2  1  1  6
  4  3  1  0
  5  4  2  0
  6  7  1  0
  6  5  1  0
  7  8  2  0
  8  4  1  0
  9 10  2  0
  9  2  1  0
 12 11  1  0
 12 14  1  0
 13 12  2  0
 16 15  1  1
 15 14  1  0
 16 17  1  0
 17  9  1  0
 18 16  1  0
 19 18  2  0
 20 21  1  0
 20 18  1  0
 22 21  1  0
 23 22  1  0
 24 23  1  0
 24 20  1  0
 24 25  1  1
 26 25  1  0
 27 25  2  0
M  END
$$$$
