HQP.pdb
     RDKit          3D

 27 28  0  0  1  0  0  0  0  0999 V2000
    8.6914  -13.9910   18.3553 N   0  0  0  0  0  0  0  0  0  0  0  0
    9.4129  -14.2294   19.5699 C   0  0  1  0  0  0  0  0  0  0  0  0
   10.5232  -13.2210   19.7909 C   0  0  0  0  0  0  0  0  0  0  0  0
   11.7791  -14.0028   19.9704 C   0  0  0  0  0  0  0  0  0  0  0  0
   11.9700  -15.3640   19.8965 C   0  0  0  0  0  0  0  0  0  0  0  0
   13.2626  -15.6317   20.1250 N   0  0  0  0  0  0  0  0  0  0  0  0
   13.8741  -14.4569   20.3391 C   0  0  0  0  0  0  0  0  0  0  0  0
   12.9716  -13.4538   20.2460 N   0  0  0  0  0  0  0  0  0  0  0  0
    8.5030  -14.1260   20.7633 C   0  0  0  0  0  0  0  0  0  0  0  0
    7.6754  -13.1870   20.8640 O   0  0  0  0  0  0  0  0  0  0  0  0
    5.9053  -18.8624   22.9516 N   0  0  0  0  0  0  0  0  0  0  0  0
    5.4944  -17.9793   21.9210 C   0  0  0  0  0  0  0  0  0  0  0  0
    4.6340  -18.4033   21.1065 O   0  0  0  0  0  0  0  0  0  0  0  0
    6.0721  -16.6155   21.8301 C   0  0  0  0  0  0  0  0  0  0  0  0
    7.0307  -16.4211   22.9655 C   0  0  0  0  0  0  0  0  0  0  0  0
    7.6037  -14.9930   22.9641 C   0  0  2  0  0  0  0  0  0  0  0  0
    8.5474  -15.0758   21.8059 N   0  0  0  0  0  0  0  0  0  0  0  0
    8.3237  -14.8146   24.2122 C   0  0  0  0  0  0  0  0  0  0  0  0
    9.2786  -15.6993   24.3796 O   0  0  0  0  0  0  0  0  0  0  0  0
    8.1973  -13.8987   25.2509 N   0  0  0  0  0  0  0  0  0  0  0  0
    7.6567  -12.5020   24.9488 C   0  0  0  0  0  0  0  0  0  0  0  0
    6.5234  -12.4819   25.9424 C   0  0  0  0  0  0  0  0  0  0  0  0
    6.9495  -13.3878   27.0748 C   0  0  0  0  0  0  0  0  0  0  0  0
    8.3901  -13.7514   26.6391 C   0  0  1  0  0  0  0  0  0  0  0  0
    8.9484  -14.7557   27.4821 C   0  0  0  0  0  0  0  0  0  0  0  0
    8.9473  -16.0864   26.9901 O   0  0  0  0  0  0  0  0  0  0  0  0
    9.4345  -14.6130   28.5902 O   0  0  0  0  0  0  0  0  0  0  0  0
  2  3  1  0
  2  1  1  6
  4  3  1  0
  5  4  2  0
  6  7  1  0
  6  5  1  0
  7  8  2  0
  8  4  1  0
  9 10  2  0
  9  2  1  0
 12 11  1  0
 12 14  1  0
 13 12  2  0
 16 15  1  1
 15 14  1  0
 16 17  1  0
 17  9  1  0
 18 16  1  0
 19 18  2  0
 20 21  1  0
 20 18  1  0
 22 21  1  0
 23 22  1  0
 24 23  1  0
 24 20  1  0
 24 25  1  1
 26 25  1  0
 27 25  2  0
M  END
$$$$
