HQP.pdb
     RDKit          3D

 27 28  0  0  1  0  0  0  0  0999 V2000
    9.0009  -15.6515   20.6788 N   0  0  0  0  0  0  0  0  0  0  0  0
    8.0585  -14.5928   20.8879 C   0  0  1  0  0  0  0  0  0  0  0  0
    6.9237  -14.6214   19.8830 C   0  0  0  0  0  0  0  0  0  0  0  0
    7.5260  -14.3274   18.5519 C   0  0  0  0  0  0  0  0  0  0  0  0
    8.6025  -13.5257   18.2465 C   0  0  0  0  0  0  0  0  0  0  0  0
    8.7968  -13.5502   16.9212 N   0  0  0  0  0  0  0  0  0  0  0  0
    7.8569  -14.3549   16.4023 C   0  0  0  0  0  0  0  0  0  0  0  0
    7.0742  -14.8350   17.3954 N   0  0  0  0  0  0  0  0  0  0  0  0
    7.4233  -14.7009   22.2472 C   0  0  0  0  0  0  0  0  0  0  0  0
    6.6348  -13.8166   22.6630 O   0  0  0  0  0  0  0  0  0  0  0  0
    7.5823  -19.8981   25.5139 N   0  0  0  0  0  0  0  0  0  0  0  0
    6.9539  -19.0619   26.4714 C   0  0  0  0  0  0  0  0  0  0  0  0
    6.6328  -19.5832   27.5707 O   0  0  0  0  0  0  0  0  0  0  0  0
    6.6972  -17.6332   26.1630 C   0  0  0  0  0  0  0  0  0  0  0  0
    7.2288  -17.3321   24.7946 C   0  0  0  0  0  0  0  0  0  0  0  0
    7.1723  -15.8225   24.5018 C   0  0  2  0  0  0  0  0  0  0  0  0
    7.6901  -15.7945   23.0982 N   0  0  0  0  0  0  0  0  0  0  0  0
    8.0964  -15.1703   25.4120 C   0  0  0  0  0  0  0  0  0  0  0  0
    9.1766  -15.8815   25.6364 O   0  0  0  0  0  0  0  0  0  0  0  0
    8.0574  -13.9532   26.0835 N   0  0  0  0  0  0  0  0  0  0  0  0
    7.5095  -12.7232   25.3615 C   0  0  0  0  0  0  0  0  0  0  0  0
    6.4542  -12.3287   26.3630 C   0  0  0  0  0  0  0  0  0  0  0  0
    6.9552  -12.8122   27.7045 C   0  0  0  0  0  0  0  0  0  0  0  0
    8.3553  -13.3517   27.3225 C   0  0  1  0  0  0  0  0  0  0  0  0
    8.9655  -14.0303   28.4172 C   0  0  0  0  0  0  0  0  0  0  0  0
    9.6508  -13.2338   29.3704 O   0  0  0  0  0  0  0  0  0  0  0  0
    8.9727  -15.2280   28.6410 O   0  0  0  0  0  0  0  0  0  0  0  0
  2  3  1  0
  2  1  1  6
  4  3  1  0
  5  4  2  0
  6  7  1  0
  6  5  1  0
  7  8  2  0
  8  4  1  0
  9 10  2  0
  9  2  1  0
 12 11  1  0
 12 14  1  0
 13 12  2  0
 16 15  1  1
 15 14  1  0
 16 17  1  0
 17  9  1  0
 18 16  1  0
 19 18  2  0
 20 21  1  0
 20 18  1  0
 22 21  1  0
 23 22  1  0
 24 23  1  0
 24 20  1  0
 24 25  1  1
 26 25  1  0
 27 25  2  0
M  END
$$$$
