HQP.pdb
     RDKit          3D

 27 28  0  0  1  0  0  0  0  0999 V2000
    8.3730  -16.6936   20.0056 N   0  0  0  0  0  0  0  0  0  0  0  0
    7.9505  -15.4213   20.5110 C   0  0  1  0  0  0  0  0  0  0  0  0
    6.9364  -14.7475   19.6076 C   0  0  0  0  0  0  0  0  0  0  0  0
    7.7006  -14.1700   18.4659 C   0  0  0  0  0  0  0  0  0  0  0  0
    8.8716  -13.4466   18.4851 C   0  0  0  0  0  0  0  0  0  0  0  0
    9.2023  -13.1270   17.2269 N   0  0  0  0  0  0  0  0  0  0  0  0
    8.2537  -13.6416   16.4298 C   0  0  0  0  0  0  0  0  0  0  0  0
    7.3299  -14.2823   17.1816 N   0  0  0  0  0  0  0  0  0  0  0  0
    7.2884  -15.5707   21.8535 C   0  0  0  0  0  0  0  0  0  0  0  0
    6.1611  -16.1135   21.9600 O   0  0  0  0  0  0  0  0  0  0  0  0
    7.8931  -19.4669   24.9694 N   0  0  0  0  0  0  0  0  0  0  0  0
    7.0447  -18.8077   25.8950 C   0  0  0  0  0  0  0  0  0  0  0  0
    6.5702  -19.4965   26.8350 O   0  0  0  0  0  0  0  0  0  0  0  0
    6.7452  -17.3628   25.7373 C   0  0  0  0  0  0  0  0  0  0  0  0
    7.4349  -16.8587   24.5061 C   0  0  0  0  0  0  0  0  0  0  0  0
    7.2792  -15.3337   24.3730 C   0  0  2  0  0  0  0  0  0  0  0  0
    7.9079  -15.1084   23.0341 N   0  0  0  0  0  0  0  0  0  0  0  0
    8.0677  -14.7245   25.4290 C   0  0  0  0  0  0  0  0  0  0  0  0
    9.2051  -15.3454   25.6372 O   0  0  0  0  0  0  0  0  0  0  0  0
    7.8520  -13.6244   26.2517 N   0  0  0  0  0  0  0  0  0  0  0  0
    7.1342  -12.4009   25.6839 C   0  0  0  0  0  0  0  0  0  0  0  0
    6.0307  -12.2961   26.7053 C   0  0  0  0  0  0  0  0  0  0  0  0
    6.5929  -12.8753   27.9832 C   0  0  0  0  0  0  0  0  0  0  0  0
    8.0571  -13.1547   27.5644 C   0  0  1  0  0  0  0  0  0  0  0  0
    8.7561  -13.8773   28.5745 C   0  0  0  0  0  0  0  0  0  0  0  0
    8.7290  -15.2933   28.4920 O   0  0  0  0  0  0  0  0  0  0  0  0
    9.3842  -13.4245   29.5153 O   0  0  0  0  0  0  0  0  0  0  0  0
  2  3  1  0
  2  1  1  6
  4  3  1  0
  5  4  2  0
  6  7  1  0
  6  5  1  0
  7  8  2  0
  8  4  1  0
  9 10  2  0
  9  2  1  0
 12 11  1  0
 12 14  1  0
 13 12  2  0
 16 15  1  1
 15 14  1  0
 16 17  1  0
 17  9  1  0
 18 16  1  0
 19 18  2  0
 20 21  1  0
 20 18  1  0
 22 21  1  0
 23 22  1  0
 24 23  1  0
 24 20  1  0
 24 25  1  1
 26 25  1  0
 27 25  2  0
M  END
$$$$
