HQP.pdb
     RDKit          3D

 27 28  0  0  1  0  0  0  0  0999 V2000
    7.5404  -16.8561   20.1569 N   0  0  0  0  0  0  0  0  0  0  0  0
    7.6291  -15.5864   20.8146 C   0  0  1  0  0  0  0  0  0  0  0  0
    6.8648  -14.5008   20.0827 C   0  0  0  0  0  0  0  0  0  0  0  0
    7.5965  -14.2498   18.8089 C   0  0  0  0  0  0  0  0  0  0  0  0
    8.5605  -13.3060   18.5353 C   0  0  0  0  0  0  0  0  0  0  0  0
    8.9450  -13.4391   17.2589 N   0  0  0  0  0  0  0  0  0  0  0  0
    8.2335  -14.4507   16.7388 C   0  0  0  0  0  0  0  0  0  0  0  0
    7.4048  -14.9527   17.6825 N   0  0  0  0  0  0  0  0  0  0  0  0
    7.0435  -15.6573   22.1984 C   0  0  0  0  0  0  0  0  0  0  0  0
    5.8600  -16.0359   22.3794 O   0  0  0  0  0  0  0  0  0  0  0  0
    7.4530  -19.7403   25.0428 N   0  0  0  0  0  0  0  0  0  0  0  0
    6.7880  -19.0474   26.0862 C   0  0  0  0  0  0  0  0  0  0  0  0
    6.3256  -19.7353   27.0328 O   0  0  0  0  0  0  0  0  0  0  0  0
    6.6570  -17.5700   26.0381 C   0  0  0  0  0  0  0  0  0  0  0  0
    7.2590  -17.0737   24.7586 C   0  0  0  0  0  0  0  0  0  0  0  0
    7.2710  -15.5356   24.7158 C   0  0  2  0  0  0  0  0  0  0  0  0
    7.7998  -15.3025   23.3357 N   0  0  0  0  0  0  0  0  0  0  0  0
    8.2163  -15.0823   25.7203 C   0  0  0  0  0  0  0  0  0  0  0  0
    9.1723  -15.9522   25.9485 O   0  0  0  0  0  0  0  0  0  0  0  0
    8.3020  -13.9191   26.4775 N   0  0  0  0  0  0  0  0  0  0  0  0
    7.8120  -12.6028   25.8760 C   0  0  0  0  0  0  0  0  0  0  0  0
    6.8407  -12.2105   26.9599 C   0  0  0  0  0  0  0  0  0  0  0  0
    7.3708  -12.8272   28.2339 C   0  0  0  0  0  0  0  0  0  0  0  0
    8.7058  -13.4345   27.7376 C   0  0  1  0  0  0  0  0  0  0  0  0
    9.3176  -14.2346   28.7460 C   0  0  0  0  0  0  0  0  0  0  0  0
   10.0818  -13.5588   29.7319 O   0  0  0  0  0  0  0  0  0  0  0  0
    9.2660  -15.4456   28.8697 O   0  0  0  0  0  0  0  0  0  0  0  0
  2  3  1  0
  2  1  1  6
  4  3  1  0
  5  4  2  0
  6  7  1  0
  6  5  1  0
  7  8  2  0
  8  4  1  0
  9 10  2  0
  9  2  1  0
 12 11  1  0
 12 14  1  0
 13 12  2  0
 16 15  1  1
 15 14  1  0
 16 17  1  0
 17  9  1  0
 18 16  1  0
 19 18  2  0
 20 21  1  0
 20 18  1  0
 22 21  1  0
 23 22  1  0
 24 23  1  0
 24 20  1  0
 24 25  1  1
 26 25  1  0
 27 25  2  0
M  END
$$$$
