RWP.pdb
     RDKit          3D

 33 35  0  0  1  0  0  0  0  0999 V2000
   10.4244  -13.2072   18.5161 N   0  0  0  0  0  0  0  0  0  0  0  0
    9.0438  -13.1404   18.2178 C   0  0  0  0  0  0  0  0  0  0  0  0
    8.5183  -11.9823   18.0107 N   0  0  0  0  0  0  0  0  0  0  0  0
    8.2181  -14.3016   18.1389 N   0  0  0  0  0  0  0  0  0  0  0  0
    8.7506  -15.6197   18.4052 C   0  0  0  0  0  0  0  0  0  0  0  0
    9.2492  -15.6247   19.8252 C   0  0  0  0  0  0  0  0  0  0  0  0
    8.4132  -16.4301   20.7623 C   0  0  0  0  0  0  0  0  0  0  0  0
    9.2177  -17.3002   21.7003 C   0  0  2  0  0  0  0  0  0  0  0  0
    8.5423  -18.5458   21.8760 N   0  0  0  0  0  0  0  0  0  0  0  0
    9.3623  -16.5461   22.9880 C   0  0  0  0  0  0  0  0  0  0  0  0
    9.9707  -15.4450   22.9672 O   0  0  0  0  0  0  0  0  0  0  0  0
    7.5412  -11.8791   17.7181 N   0  0  0  0  0  0  0  0  0  0  0  0
    8.8255  -17.0639   24.1971 C   0  0  1  0  0  0  0  0  0  0  0  0
    8.9479  -16.3507   25.4475 C   0  0  0  0  0  0  0  0  0  0  0  0
    7.6402  -16.4492   26.2072 C   0  0  0  0  0  0  0  0  0  0  0  0
    6.6418  -15.4270   25.9192 C   0  0  0  0  0  0  0  0  0  0  0  0
    5.2613  -15.6012   25.7300 N   0  0  0  0  0  0  0  0  0  0  0  0
    4.7196  -14.4121   25.4537 C   0  0  0  0  0  0  0  0  0  0  0  0
    5.6458  -13.4480   25.4453 C   0  0  0  0  0  0  0  0  0  0  0  0
    5.5678  -12.0799   25.2294 C   0  0  0  0  0  0  0  0  0  0  0  0
    6.7161  -11.3204   25.3063 C   0  0  0  0  0  0  0  0  0  0  0  0
    7.9436  -11.8977   25.5947 C   0  0  0  0  0  0  0  0  0  0  0  0
    7.9600  -13.2563   25.7983 C   0  0  0  0  0  0  0  0  0  0  0  0
    6.8415  -14.0650   25.7328 C   0  0  0  0  0  0  0  0  0  0  0  0
   10.1555  -16.5571   26.2142 O   0  0  0  0  0  0  0  0  0  0  0  0
   10.8328  -17.6174   25.9358 N   0  0  0  0  0  0  0  0  0  0  0  0
   10.6750  -15.7176   27.2395 C   0  0  0  0  0  0  0  0  0  0  0  0
   10.3367  -14.3963   27.6381 C   0  0  0  0  0  0  0  0  0  0  0  0
   10.6830  -14.3579   29.1303 C   0  0  0  0  0  0  0  0  0  0  0  0
   12.0751  -15.0084   29.0449 C   0  0  1  0  0  0  0  0  0  0  0  0
   11.7834  -16.1569   28.1054 C   0  0  0  0  0  0  0  0  0  0  0  0
   11.4634  -17.3952   28.8304 O   0  0  0  0  0  0  0  0  0  0  0  0
   12.4355  -18.0589   29.5388 O   0  0  0  0  0  0  0  0  0  0  0  0
  2  1  1  0
  3  2  2  0
  4  2  1  0
  5  4  1  0
  6  5  1  0
  7  6  1  0
  8  9  1  1
  8  7  1  0
 10  8  1  0
 10 11  2  0
 12 10  1  0
 13 12  1  0
 13 14  1  1
 14 15  1  0
 15 16  2  0
 16 17  1  0
 18 17  1  0
 19 18  2  0
 20 19  1  0
 21 22  1  0
 21 20  2  0
 22 23  2  0
 23 15  1  0
 23 18  1  0
 24 13  1  0
 25 24  2  0
 26 27  1  0
 26 24  1  0
 28 27  1  0
 29 28  1  0
 30 29  1  0
 30 26  1  0
 30 31  1  1
 31 32  1  0
 33 31  2  0
M  END
$$$$
