SEF.pdb
     RDKit          3D

 27 27  0  0  1  0  0  0  0  0999 V2000
   29.7586  -19.2140  -14.4421 O   0  0  0  0  0  0  0  0  0  0  0  0
   28.6995  -20.0796  -14.6632 C   0  0  0  0  0  0  0  0  0  0  0  0
   27.4043  -19.3140  -14.9504 C   0  0  2  0  0  0  0  0  0  0  0  0
   27.7018  -18.0229  -15.4862 N   0  0  0  0  0  0  0  0  0  0  0  0
   26.7036  -19.2167  -13.6188 C   0  0  0  0  0  0  0  0  0  0  0  0
   26.5881  -18.0972  -13.0607 O   0  0  0  0  0  0  0  0  0  0  0  0
   26.2203  -20.4418  -13.0970 N   0  0  0  0  0  0  0  0  0  0  0  0
   25.4012  -20.3980  -11.8814 C   0  0  1  0  0  0  0  0  0  0  0  0
   24.1915  -21.2340  -12.1487 C   0  0  0  0  0  0  0  0  0  0  0  0
   23.1712  -21.3027  -11.0728 C   0  0  0  0  0  0  0  0  0  0  0  0
   21.9355  -20.5572  -11.5420 C   0  0  0  0  0  0  0  0  0  0  0  0
   21.2179  -20.0569  -10.6594 O   0  0  0  0  0  0  0  0  0  0  0  0
   26.1992  -20.7579  -10.7096 C   0  0  0  0  0  0  0  0  0  0  0  0
   27.0021  -21.7590  -10.7092 O   0  0  0  0  0  0  0  0  0  0  0  0
   21.6172  -20.4358  -12.8699 O   0  0  0  0  0  0  0  0  0  0  0  0
   26.1051  -19.9859   -9.5214 N   0  0  0  0  0  0  0  0  0  0  0  0
   26.8003  -20.4982   -8.3266 C   0  0  1  0  0  0  0  0  0  0  0  0
   27.4382  -19.2687   -7.7038 C   0  0  0  0  0  0  0  0  0  0  0  0
   28.0569  -19.6049   -6.4022 C   0  0  0  0  0  0  0  0  0  0  0  0
   29.2251  -20.3304   -6.3010 C   0  0  0  0  0  0  0  0  0  0  0  0
   29.7902  -20.6270   -5.0618 C   0  0  0  0  0  0  0  0  0  0  0  0
   29.2061  -20.2087   -3.8860 C   0  0  0  0  0  0  0  0  0  0  0  0
   28.0377  -19.4827   -3.9727 C   0  0  0  0  0  0  0  0  0  0  0  0
   27.4798  -19.1898   -5.1973 C   0  0  0  0  0  0  0  0  0  0  0  0
   25.8214  -21.1277   -7.4292 C   0  0  0  0  0  0  0  0  0  0  0  0
   26.1971  -21.7571   -6.4294 O   0  0  0  0  0  0  0  0  0  0  0  0
   24.4685  -21.0283   -7.6843 O   0  0  0  0  0  0  0  0  0  0  0  0
  2  1  1  0
  3  2  1  0
  3  4  1  1
  5  3  1  0
  5  6  2  0
  7  5  1  0
  8  7  1  0
  8  9  1  6
 10  9  1  0
 10 11  1  0
 11 15  1  0
 12 11  2  0
 13  8  1  0
 14 13  2  0
 16 13  1  0
 17 16  1  0
 17 18  1  1
 18 19  1  0
 19 20  2  0
 20 21  1  0
 22 21  2  0
 23 22  1  0
 24 19  1  0
 24 23  2  0
 25 27  1  0
 25 17  1  0
 26 25  2  0
M  END
$$$$
