SEF.pdb
     RDKit          3D

 27 27  0  0  1  0  0  0  0  0999 V2000
   25.5174  -31.2756   -3.4953 O   0  0  0  0  0  0  0  0  0  0  0  0
   26.5323  -32.1983   -3.2999 C   0  0  0  0  0  0  0  0  0  0  0  0
   25.9697  -33.5895   -2.9931 C   0  0  2  0  0  0  0  0  0  0  0  0
   25.1188  -34.0240   -4.0560 N   0  0  0  0  0  0  0  0  0  0  0  0
   25.2090  -33.4279   -1.7013 C   0  0  0  0  0  0  0  0  0  0  0  0
   23.9812  -33.1648   -1.7348 O   0  0  0  0  0  0  0  0  0  0  0  0
   25.9756  -33.5934   -0.5215 N   0  0  0  0  0  0  0  0  0  0  0  0
   25.2983  -33.4315    0.7691 C   0  0  1  0  0  0  0  0  0  0  0  0
   26.2629  -33.8796    1.8191 C   0  0  0  0  0  0  0  0  0  0  0  0
   26.6749  -35.3053    1.7884 C   0  0  0  0  0  0  0  0  0  0  0  0
   27.6861  -35.5313    2.8972 C   0  0  0  0  0  0  0  0  0  0  0  0
   28.4379  -36.5130    2.7741 O   0  0  0  0  0  0  0  0  0  0  0  0
   24.7664  -32.0758    0.9050 C   0  0  0  0  0  0  0  0  0  0  0  0
   25.4452  -31.0378    0.5753 O   0  0  0  0  0  0  0  0  0  0  0  0
   27.7744  -34.7007    3.9843 O   0  0  0  0  0  0  0  0  0  0  0  0
   23.4548  -31.8745    1.4109 N   0  0  0  0  0  0  0  0  0  0  0  0
   22.9565  -30.4879    1.4622 C   0  0  1  0  0  0  0  0  0  0  0  0
   21.8495  -30.4451    0.4234 C   0  0  0  0  0  0  0  0  0  0  0  0
   21.1386  -29.1482    0.4721 C   0  0  0  0  0  0  0  0  0  0  0  0
   21.5542  -28.0464   -0.2454 C   0  0  0  0  0  0  0  0  0  0  0  0
   20.8614  -26.8384   -0.1866 C   0  0  0  0  0  0  0  0  0  0  0  0
   19.7328  -26.6932    0.5904 C   0  0  0  0  0  0  0  0  0  0  0  0
   19.3064  -27.7866    1.3132 C   0  0  0  0  0  0  0  0  0  0  0  0
   19.9912  -28.9801    1.2547 C   0  0  0  0  0  0  0  0  0  0  0  0
   22.4570  -30.2024    2.8145 C   0  0  0  0  0  0  0  0  0  0  0  0
   22.3943  -29.0359    3.2296 O   0  0  0  0  0  0  0  0  0  0  0  0
   22.0491  -31.2274    3.6441 O   0  0  0  0  0  0  0  0  0  0  0  0
  2  1  1  0
  3  2  1  0
  3  4  1  6
  5  3  1  0
  5  6  2  0
  7  5  1  0
  8  7  1  0
  8  9  1  1
 10  9  1  0
 10 11  1  0
 11 15  1  0
 12 11  2  0
 13  8  1  0
 14 13  2  0
 16 13  1  0
 17 16  1  0
 17 18  1  6
 18 19  1  0
 19 20  2  0
 20 21  1  0
 22 21  2  0
 23 22  1  0
 24 19  1  0
 24 23  2  0
 25 27  1  0
 25 17  1  0
 26 25  2  0
M  END
$$$$
