SEF.pdb
     RDKit          3D

 27 27  0  0  1  0  0  0  0  0999 V2000
   20.5573  -12.8237  -18.2221 O   0  0  0  0  0  0  0  0  0  0  0  0
   20.7615  -11.4532  -18.2290 C   0  0  0  0  0  0  0  0  0  0  0  0
   21.7236  -11.0384  -19.3463 C   0  0  2  0  0  0  0  0  0  0  0  0
   22.8531  -11.9135  -19.3761 N   0  0  0  0  0  0  0  0  0  0  0  0
   22.1238   -9.6234  -19.0128 C   0  0  0  0  0  0  0  0  0  0  0  0
   23.0801   -9.4202  -18.2240 O   0  0  0  0  0  0  0  0  0  0  0  0
   21.3571   -8.6121  -19.6423 N   0  0  0  0  0  0  0  0  0  0  0  0
   21.7069   -7.2136  -19.3731 C   0  0  1  0  0  0  0  0  0  0  0  0
   21.0850   -6.3987  -20.4608 C   0  0  0  0  0  0  0  0  0  0  0  0
   21.3309   -4.9352  -20.4279 C   0  0  0  0  0  0  0  0  0  0  0  0
   20.5405   -4.2956  -21.5546 C   0  0  0  0  0  0  0  0  0  0  0  0
   21.1985   -3.7852  -22.4769 O   0  0  0  0  0  0  0  0  0  0  0  0
   21.3555   -6.8500  -18.0007 C   0  0  0  0  0  0  0  0  0  0  0  0
   20.3228   -7.3294  -17.4085 O   0  0  0  0  0  0  0  0  0  0  0  0
   19.1698   -4.2761  -21.5644 O   0  0  0  0  0  0  0  0  0  0  0  0
   22.1714   -5.9421  -17.2750 N   0  0  0  0  0  0  0  0  0  0  0  0
   21.8179   -5.6954  -15.8652 C   0  0  1  0  0  0  0  0  0  0  0  0
   23.0586   -6.0989  -15.0878 C   0  0  0  0  0  0  0  0  0  0  0  0
   22.7895   -7.2966  -14.2613 C   0  0  0  0  0  0  0  0  0  0  0  0
   21.8438   -7.3088  -13.2579 C   0  0  0  0  0  0  0  0  0  0  0  0
   21.6055   -8.4534  -12.4990 C   0  0  0  0  0  0  0  0  0  0  0  0
   22.3043   -9.6206  -12.7185 C   0  0  0  0  0  0  0  0  0  0  0  0
   23.2529   -9.6222  -13.7185 C   0  0  0  0  0  0  0  0  0  0  0  0
   23.4878   -8.4910  -14.4681 C   0  0  0  0  0  0  0  0  0  0  0  0
   21.4935   -4.2729  -15.6889 C   0  0  0  0  0  0  0  0  0  0  0  0
   20.7665   -3.9036  -14.7550 O   0  0  0  0  0  0  0  0  0  0  0  0
   21.9928   -3.3251  -16.5593 O   0  0  0  0  0  0  0  0  0  0  0  0
  2  1  1  0
  3  2  1  0
  3  4  1  1
  5  3  1  0
  5  6  2  0
  7  5  1  0
  8  7  1  0
  8  9  1  6
 10  9  1  0
 10 11  1  0
 11 15  1  0
 12 11  2  0
 13  8  1  0
 14 13  2  0
 16 13  1  0
 17 16  1  0
 17 18  1  1
 18 19  1  0
 19 20  2  0
 20 21  1  0
 22 21  2  0
 23 22  1  0
 24 19  1  0
 24 23  2  0
 25 27  1  0
 25 17  1  0
 26 25  2  0
M  END
$$$$
