SEF.pdb
     RDKit          3D

 27 27  0  0  1  0  0  0  0  0999 V2000
   26.9194  -15.3536  -19.9487 O   0  0  0  0  0  0  0  0  0  0  0  0
   26.4933  -16.6450  -19.6834 C   0  0  0  0  0  0  0  0  0  0  0  0
   27.4561  -17.3662  -18.7351 C   0  0  2  0  0  0  0  0  0  0  0  0
   28.4826  -18.0249  -19.4800 N   0  0  0  0  0  0  0  0  0  0  0  0
   26.5982  -18.3492  -17.9794 C   0  0  0  0  0  0  0  0  0  0  0  0
   25.8332  -19.1181  -18.6131 O   0  0  0  0  0  0  0  0  0  0  0  0
   26.7368  -18.3165  -16.5700 N   0  0  0  0  0  0  0  0  0  0  0  0
   26.0211  -19.3262  -15.7832 C   0  0  1  0  0  0  0  0  0  0  0  0
   26.8622  -19.6086  -14.5805 C   0  0  0  0  0  0  0  0  0  0  0  0
   28.2226  -20.1500  -14.8242 C   0  0  0  0  0  0  0  0  0  0  0  0
   28.0811  -21.5250  -15.4507 C   0  0  0  0  0  0  0  0  0  0  0  0
   26.9920  -22.1013  -15.2898 O   0  0  0  0  0  0  0  0  0  0  0  0
   24.6435  -18.9029  -15.5335 C   0  0  0  0  0  0  0  0  0  0  0  0
   24.3630  -17.8506  -14.8545 O   0  0  0  0  0  0  0  0  0  0  0  0
   29.0971  -22.1112  -16.1604 O   0  0  0  0  0  0  0  0  0  0  0  0
   23.5616  -19.6614  -16.0539 N   0  0  0  0  0  0  0  0  0  0  0  0
   22.2047  -19.1144  -15.8724 C   0  0  1  0  0  0  0  0  0  0  0  0
   21.9408  -18.3273  -17.1441 C   0  0  0  0  0  0  0  0  0  0  0  0
   20.5451  -17.8363  -17.1733 C   0  0  0  0  0  0  0  0  0  0  0  0
   20.1952  -16.5690  -16.7574 C   0  0  0  0  0  0  0  0  0  0  0  0
   18.8732  -16.1295  -16.8024 C   0  0  0  0  0  0  0  0  0  0  0  0
   17.8602  -16.9418  -17.2635 C   0  0  0  0  0  0  0  0  0  0  0  0
   18.1960  -18.2114  -17.6822 C   0  0  0  0  0  0  0  0  0  0  0  0
   19.5024  -18.6451  -17.6377 C   0  0  0  0  0  0  0  0  0  0  0  0
   21.2546  -20.2225  -15.7009 C   0  0  0  0  0  0  0  0  0  0  0  0
   21.4422  -21.3070  -16.2714 O   0  0  0  0  0  0  0  0  0  0  0  0
   20.1389  -20.0743  -14.9018 O   0  0  0  0  0  0  0  0  0  0  0  0
  2  1  1  0
  3  2  1  0
  3  4  1  6
  5  3  1  0
  5  6  2  0
  7  5  1  0
  8  7  1  0
  8  9  1  1
 10  9  1  0
 10 11  1  0
 11 15  1  0
 12 11  2  0
 13  8  1  0
 14 13  2  0
 16 13  1  0
 17 16  1  0
 17 18  1  6
 18 19  1  0
 19 20  2  0
 20 21  1  0
 22 21  2  0
 23 22  1  0
 24 19  1  0
 24 23  2  0
 25 27  1  0
 25 17  1  0
 26 25  2  0
M  END
$$$$
