SEF.pdb
     RDKit          3D

 27 27  0  0  1  0  0  0  0  0999 V2000
   17.8363  -13.1137  -16.0031 O   0  0  0  0  0  0  0  0  0  0  0  0
   17.5466  -12.8056  -17.3226 C   0  0  0  0  0  0  0  0  0  0  0  0
   18.6059  -13.3721  -18.2730 C   0  0  2  0  0  0  0  0  0  0  0  0
   18.7787  -14.7720  -18.0426 N   0  0  0  0  0  0  0  0  0  0  0  0
   19.8624  -12.5976  -17.9649 C   0  0  0  0  0  0  0  0  0  0  0  0
   20.7731  -13.1387  -17.2897 O   0  0  0  0  0  0  0  0  0  0  0  0
   19.9052  -11.2802  -18.4839 N   0  0  0  0  0  0  0  0  0  0  0  0
   21.1130  -10.4837  -18.2442 C   0  0  1  0  0  0  0  0  0  0  0  0
   21.2511   -9.5535  -19.4059 C   0  0  0  0  0  0  0  0  0  0  0  0
   22.4546   -8.6851  -19.4318 C   0  0  0  0  0  0  0  0  0  0  0  0
   22.3305   -7.7366  -20.6099 C   0  0  0  0  0  0  0  0  0  0  0  0
   21.3259   -7.8698  -21.3291 O   0  0  0  0  0  0  0  0  0  0  0  0
   21.0706   -9.8709  -16.9169 C   0  0  0  0  0  0  0  0  0  0  0  0
   19.9704   -9.5070  -16.3655 O   0  0  0  0  0  0  0  0  0  0  0  0
   23.2731   -6.7776  -20.8766 O   0  0  0  0  0  0  0  0  0  0  0  0
   22.2733   -9.6657  -16.1901 N   0  0  0  0  0  0  0  0  0  0  0  0
   22.1688   -8.9711  -14.8940 C   0  0  1  0  0  0  0  0  0  0  0  0
   23.3403   -9.5006  -14.0854 C   0  0  0  0  0  0  0  0  0  0  0  0
   24.5482   -9.6171  -14.9323 C   0  0  0  0  0  0  0  0  0  0  0  0
   25.0904   -8.5418  -15.6040 C   0  0  0  0  0  0  0  0  0  0  0  0
   26.2336   -8.6782  -16.3896 C   0  0  0  0  0  0  0  0  0  0  0  0
   26.8702   -9.8923  -16.5290 C   0  0  0  0  0  0  0  0  0  0  0  0
   26.3386  -10.9757  -15.8632 C   0  0  0  0  0  0  0  0  0  0  0  0
   25.2091  -10.8404  -15.0869 C   0  0  0  0  0  0  0  0  0  0  0  0
   22.2590   -7.5207  -15.1131 C   0  0  0  0  0  0  0  0  0  0  0  0
   22.6163   -7.0706  -16.2115 O   0  0  0  0  0  0  0  0  0  0  0  0
   21.9470   -6.6362  -14.1003 O   0  0  0  0  0  0  0  0  0  0  0  0
  2  1  1  0
  3  2  1  0
  3  4  1  1
  5  3  1  0
  5  6  2  0
  7  5  1  0
  8  7  1  0
  8  9  1  6
 10  9  1  0
 10 11  1  0
 11 15  1  0
 12 11  2  0
 13  8  1  0
 14 13  2  0
 16 13  1  0
 17 16  1  0
 17 18  1  1
 18 19  1  0
 19 20  2  0
 20 21  1  0
 22 21  2  0
 23 22  1  0
 24 19  1  0
 24 23  2  0
 25 27  1  0
 25 17  1  0
 26 25  2  0
M  END
$$$$
