SEF.pdb
     RDKit          3D

 27 27  0  0  1  0  0  0  0  0999 V2000
   24.4973  -21.0366  -18.2791 O   0  0  0  0  0  0  0  0  0  0  0  0
   23.6141  -20.3073  -19.0587 C   0  0  0  0  0  0  0  0  0  0  0  0
   23.9144  -18.8071  -18.9865 C   0  0  2  0  0  0  0  0  0  0  0  0
   25.3202  -18.5906  -18.8475 N   0  0  0  0  0  0  0  0  0  0  0  0
   23.1530  -18.3129  -17.7825 C   0  0  0  0  0  0  0  0  0  0  0  0
   23.7329  -17.5835  -16.9401 O   0  0  0  0  0  0  0  0  0  0  0  0
   21.8017  -18.7310  -17.7062 N   0  0  0  0  0  0  0  0  0  0  0  0
   21.0044  -18.2809  -16.5605 C   0  0  1  0  0  0  0  0  0  0  0  0
   19.6091  -18.0848  -17.0592 C   0  0  0  0  0  0  0  0  0  0  0  0
   19.3346  -16.8363  -17.8136 C   0  0  0  0  0  0  0  0  0  0  0  0
   17.8556  -16.8011  -18.1515 C   0  0  0  0  0  0  0  0  0  0  0  0
   17.1075  -16.2556  -17.3226 O   0  0  0  0  0  0  0  0  0  0  0  0
   21.1724  -19.1902  -15.4274 C   0  0  0  0  0  0  0  0  0  0  0  0
   21.4320  -20.4373  -15.5829 O   0  0  0  0  0  0  0  0  0  0  0  0
   17.3589  -17.3409  -19.3096 O   0  0  0  0  0  0  0  0  0  0  0  0
   21.0549  -18.7003  -14.0996 N   0  0  0  0  0  0  0  0  0  0  0  0
   21.3074  -19.6533  -13.0035 C   0  0  1  0  0  0  0  0  0  0  0  0
   22.0893  -18.8516  -11.9777 C   0  0  0  0  0  0  0  0  0  0  0  0
   22.3618  -19.6690  -10.7746 C   0  0  0  0  0  0  0  0  0  0  0  0
   21.4817  -19.7483   -9.7160 C   0  0  0  0  0  0  0  0  0  0  0  0
   21.7605  -20.5320   -8.5976 C   0  0  0  0  0  0  0  0  0  0  0  0
   22.9263  -21.2602   -8.5016 C   0  0  0  0  0  0  0  0  0  0  0  0
   23.8151  -21.1898   -9.5527 C   0  0  0  0  0  0  0  0  0  0  0  0
   23.5392  -20.4155  -10.6577 C   0  0  0  0  0  0  0  0  0  0  0  0
   20.0234  -20.1301  -12.4708 C   0  0  0  0  0  0  0  0  0  0  0  0
   19.0106  -19.4184  -12.5374 O   0  0  0  0  0  0  0  0  0  0  0  0
   19.9240  -21.3776  -11.8884 O   0  0  0  0  0  0  0  0  0  0  0  0
  2  1  1  0
  3  2  1  0
  3  4  1  1
  5  3  1  0
  5  6  2  0
  7  5  1  0
  8  7  1  0
  8  9  1  6
 10  9  1  0
 10 11  1  0
 11 15  1  0
 12 11  2  0
 13  8  1  0
 14 13  2  0
 16 13  1  0
 17 16  1  0
 17 18  1  1
 18 19  1  0
 19 20  2  0
 20 21  1  0
 22 21  2  0
 23 22  1  0
 24 19  1  0
 24 23  2  0
 25 27  1  0
 25 17  1  0
 26 25  2  0
M  END
$$$$
