SEF.pdb
     RDKit          3D

 27 27  0  0  1  0  0  0  0  0999 V2000
   28.9355  -22.8866  -15.6910 O   0  0  0  0  0  0  0  0  0  0  0  0
   28.4839  -21.9030  -14.8258 C   0  0  0  0  0  0  0  0  0  0  0  0
   27.2874  -21.1493  -15.4143 C   0  0  2  0  0  0  0  0  0  0  0  0
   27.7087  -20.3278  -16.5052 N   0  0  0  0  0  0  0  0  0  0  0  0
   26.7444  -20.3256  -14.2740 C   0  0  0  0  0  0  0  0  0  0  0  0
   27.1136  -19.1321  -14.1419 O   0  0  0  0  0  0  0  0  0  0  0  0
   25.8326  -20.9961  -13.4221 N   0  0  0  0  0  0  0  0  0  0  0  0
   25.2395  -20.2393  -12.3147 C   0  0  1  0  0  0  0  0  0  0  0  0
   23.7578  -20.2946  -12.5021 C   0  0  0  0  0  0  0  0  0  0  0  0
   23.0801  -21.5609  -12.1270 C   0  0  0  0  0  0  0  0  0  0  0  0
   21.6337  -21.4772  -12.5787 C   0  0  0  0  0  0  0  0  0  0  0  0
   21.1755  -22.4708  -13.1677 O   0  0  0  0  0  0  0  0  0  0  0  0
   25.7549  -20.7154  -11.0314 C   0  0  0  0  0  0  0  0  0  0  0  0
   25.8473  -21.9645  -10.7517 O   0  0  0  0  0  0  0  0  0  0  0  0
   20.8624  -20.3665  -12.3536 O   0  0  0  0  0  0  0  0  0  0  0  0
   26.1796  -19.7845  -10.0467 N   0  0  0  0  0  0  0  0  0  0  0  0
   26.7182  -20.3317   -8.7881 C   0  0  1  0  0  0  0  0  0  0  0  0
   27.4253  -19.1562   -8.1365 C   0  0  0  0  0  0  0  0  0  0  0  0
   27.9469  -19.5347   -6.8044 C   0  0  0  0  0  0  0  0  0  0  0  0
   28.9988  -20.4112   -6.6408 C   0  0  0  0  0  0  0  0  0  0  0  0
   29.4750  -20.7451   -5.3741 C   0  0  0  0  0  0  0  0  0  0  0  0
   28.9155  -20.2144   -4.2321 C   0  0  0  0  0  0  0  0  0  0  0  0
   27.8630  -19.3370   -4.3812 C   0  0  0  0  0  0  0  0  0  0  0  0
   27.3929  -19.0073   -5.6330 C   0  0  0  0  0  0  0  0  0  0  0  0
   25.6096  -20.8353   -7.9652 C   0  0  0  0  0  0  0  0  0  0  0  0
   25.8149  -21.6781   -7.0796 O   0  0  0  0  0  0  0  0  0  0  0  0
   24.3225  -20.3782   -8.1643 O   0  0  0  0  0  0  0  0  0  0  0  0
  2  1  1  0
  3  2  1  0
  3  4  1  6
  5  3  1  0
  5  6  2  0
  7  5  1  0
  8  7  1  0
  8  9  1  1
 10  9  1  0
 10 11  1  0
 11 15  1  0
 12 11  2  0
 13  8  1  0
 14 13  2  0
 16 13  1  0
 17 16  1  0
 17 18  1  1
 18 19  1  0
 19 20  2  0
 20 21  1  0
 22 21  2  0
 23 22  1  0
 24 19  1  0
 24 23  2  0
 25 27  1  0
 25 17  1  0
 26 25  2  0
M  END
$$$$
