SEF.pdb
     RDKit          3D

 27 27  0  0  1  0  0  0  0  0999 V2000
   27.5478  -20.9952  -18.4008 O   0  0  0  0  0  0  0  0  0  0  0  0
   26.5870  -20.6101  -17.4797 C   0  0  0  0  0  0  0  0  0  0  0  0
   25.9717  -19.2567  -17.8484 C   0  0  2  0  0  0  0  0  0  0  0  0
   26.9825  -18.2469  -17.8814 N   0  0  0  0  0  0  0  0  0  0  0  0
   24.9488  -18.9861  -16.7742 C   0  0  0  0  0  0  0  0  0  0  0  0
   25.3299  -18.6156  -15.6360 O   0  0  0  0  0  0  0  0  0  0  0  0
   23.5995  -19.1810  -17.1590 N   0  0  0  0  0  0  0  0  0  0  0  0
   22.5558  -18.9475  -16.1555 C   0  0  1  0  0  0  0  0  0  0  0  0
   21.6799  -17.8618  -16.6920 C   0  0  0  0  0  0  0  0  0  0  0  0
   20.4970  -17.4886  -15.8767 C   0  0  0  0  0  0  0  0  0  0  0  0
   19.2530  -17.7029  -16.7191 C   0  0  0  0  0  0  0  0  0  0  0  0
   19.3810  -17.5640  -17.9473 O   0  0  0  0  0  0  0  0  0  0  0  0
   21.8965  -20.2029  -15.7968 C   0  0  0  0  0  0  0  0  0  0  0  0
   21.5045  -21.0471  -16.6801 O   0  0  0  0  0  0  0  0  0  0  0  0
   18.0440  -18.0332  -16.1636 O   0  0  0  0  0  0  0  0  0  0  0  0
   21.6760  -20.5248  -14.4313 N   0  0  0  0  0  0  0  0  0  0  0  0
   21.0783  -21.8396  -14.1356 C   0  0  1  0  0  0  0  0  0  0  0  0
   21.6120  -22.1970  -12.7594 C   0  0  0  0  0  0  0  0  0  0  0  0
   21.1256  -21.2350  -11.7456 C   0  0  0  0  0  0  0  0  0  0  0  0
   19.9918  -21.4590  -10.9935 C   0  0  0  0  0  0  0  0  0  0  0  0
   19.5599  -20.5388  -10.0398 C   0  0  0  0  0  0  0  0  0  0  0  0
   20.2465  -19.3669   -9.8080 C   0  0  0  0  0  0  0  0  0  0  0  0
   21.3817  -19.1301  -10.5531 C   0  0  0  0  0  0  0  0  0  0  0  0
   21.8081  -20.0397  -11.4953 C   0  0  0  0  0  0  0  0  0  0  0  0
   19.6137  -21.7194  -14.1465 C   0  0  0  0  0  0  0  0  0  0  0  0
   18.8985  -22.7320  -14.1369 O   0  0  0  0  0  0  0  0  0  0  0  0
   19.0105  -20.4780  -14.1671 O   0  0  0  0  0  0  0  0  0  0  0  0
  2  1  1  0
  3  2  1  0
  3  4  1  1
  5  3  1  0
  5  6  2  0
  7  5  1  0
  8  7  1  0
  8  9  1  6
 10  9  1  0
 10 11  1  0
 11 15  1  0
 12 11  2  0
 13  8  1  0
 14 13  2  0
 16 13  1  0
 17 16  1  0
 17 18  1  1
 18 19  1  0
 19 20  2  0
 20 21  1  0
 22 21  2  0
 23 22  1  0
 24 19  1  0
 24 23  2  0
 25 27  1  0
 25 17  1  0
 26 25  2  0
M  END
$$$$
