SEF.pdb
     RDKit          3D

 27 27  0  0  1  0  0  0  0  0999 V2000
   16.7976  -10.9179  -15.0104 O   0  0  0  0  0  0  0  0  0  0  0  0
   17.0325  -11.0526  -16.3692 C   0  0  0  0  0  0  0  0  0  0  0  0
   18.3321  -11.8177  -16.6373 C   0  0  2  0  0  0  0  0  0  0  0  0
   18.3200  -13.0693  -15.9475 N   0  0  0  0  0  0  0  0  0  0  0  0
   19.4292  -10.9144  -16.1332 C   0  0  0  0  0  0  0  0  0  0  0  0
   20.0189  -11.1962  -15.0604 O   0  0  0  0  0  0  0  0  0  0  0  0
   19.7071   -9.7871  -16.9447 N   0  0  0  0  0  0  0  0  0  0  0  0
   20.8182   -8.9133  -16.5538 C   0  0  1  0  0  0  0  0  0  0  0  0
   21.4596   -8.4428  -17.8191 C   0  0  0  0  0  0  0  0  0  0  0  0
   22.3751   -9.3913  -18.5013 C   0  0  0  0  0  0  0  0  0  0  0  0
   22.9447   -8.7026  -19.7278 C   0  0  0  0  0  0  0  0  0  0  0  0
   24.1772   -8.5469  -19.7574 O   0  0  0  0  0  0  0  0  0  0  0  0
   20.3581   -7.8778  -15.6291 C   0  0  0  0  0  0  0  0  0  0  0  0
   19.1880   -7.3573  -15.7112 O   0  0  0  0  0  0  0  0  0  0  0  0
   22.1490   -8.2700  -20.7569 O   0  0  0  0  0  0  0  0  0  0  0  0
   21.2140   -7.4194  -14.5927 N   0  0  0  0  0  0  0  0  0  0  0  0
   20.6682   -6.4158  -13.6608 C   0  0  1  0  0  0  0  0  0  0  0  0
   20.3793   -7.1966  -12.3906 C   0  0  0  0  0  0  0  0  0  0  0  0
   19.8808   -6.2964  -11.3272 C   0  0  0  0  0  0  0  0  0  0  0  0
   20.5933   -6.0440  -10.1739 C   0  0  0  0  0  0  0  0  0  0  0  0
   20.1032   -5.1857   -9.1911 C   0  0  0  0  0  0  0  0  0  0  0  0
   18.8868   -4.5534   -9.3295 C   0  0  0  0  0  0  0  0  0  0  0  0
   18.1639   -4.7969  -10.4775 C   0  0  0  0  0  0  0  0  0  0  0  0
   18.6487   -5.6450  -11.4484 C   0  0  0  0  0  0  0  0  0  0  0  0
   21.6679   -5.3603  -13.4456 C   0  0  0  0  0  0  0  0  0  0  0  0
   22.8790   -5.6231  -13.4809 O   0  0  0  0  0  0  0  0  0  0  0  0
   21.2754   -4.0597  -13.2014 O   0  0  0  0  0  0  0  0  0  0  0  0
  2  1  1  0
  3  2  1  0
  3  4  1  1
  5  3  1  0
  5  6  2  0
  7  5  1  0
  8  7  1  0
  8  9  1  6
 10  9  1  0
 10 11  1  0
 11 15  1  0
 12 11  2  0
 13  8  1  0
 14 13  2  0
 16 13  1  0
 17 16  1  0
 17 18  1  1
 18 19  1  0
 19 20  2  0
 20 21  1  0
 22 21  2  0
 23 22  1  0
 24 19  1  0
 24 23  2  0
 25 27  1  0
 25 17  1  0
 26 25  2  0
M  END
$$$$
