SEF.pdb
     RDKit          3D

 27 27  0  0  1  0  0  0  0  0999 V2000
   14.3571  -12.4597  -13.9644 O   0  0  0  0  0  0  0  0  0  0  0  0
   15.0772  -12.1498  -15.1069 C   0  0  0  0  0  0  0  0  0  0  0  0
   16.5850  -12.1682  -14.8378 C   0  0  2  0  0  0  0  0  0  0  0  0
   16.9706  -13.4222  -14.2709 N   0  0  0  0  0  0  0  0  0  0  0  0
   16.8260  -11.0272  -13.8820 C   0  0  0  0  0  0  0  0  0  0  0  0
   17.1182  -11.2734  -12.6854 O   0  0  0  0  0  0  0  0  0  0  0  0
   16.6965   -9.7315  -14.4398 N   0  0  0  0  0  0  0  0  0  0  0  0
   17.0610   -8.5820  -13.6051 C   0  0  1  0  0  0  0  0  0  0  0  0
   17.4384   -7.4769  -14.5378 C   0  0  0  0  0  0  0  0  0  0  0  0
   17.7557   -6.1616  -13.9275 C   0  0  0  0  0  0  0  0  0  0  0  0
   18.2244   -5.2280  -15.0282 C   0  0  0  0  0  0  0  0  0  0  0  0
   18.0885   -4.0102  -14.8214 O   0  0  0  0  0  0  0  0  0  0  0  0
   16.0016   -8.2902  -12.6398 C   0  0  0  0  0  0  0  0  0  0  0  0
   14.7598   -8.4645  -12.9125 O   0  0  0  0  0  0  0  0  0  0  0  0
   18.7715   -5.6936  -16.1958 O   0  0  0  0  0  0  0  0  0  0  0  0
   16.3322   -7.8020  -11.3479 N   0  0  0  0  0  0  0  0  0  0  0  0
   15.2148   -7.4563  -10.4505 C   0  0  1  0  0  0  0  0  0  0  0  0
   15.5571   -8.1411   -9.1389 C   0  0  0  0  0  0  0  0  0  0  0  0
   14.5284   -7.8516   -8.1154 C   0  0  0  0  0  0  0  0  0  0  0  0
   13.3700   -8.5903   -7.9975 C   0  0  0  0  0  0  0  0  0  0  0  0
   12.4205   -8.3001   -7.0192 C   0  0  0  0  0  0  0  0  0  0  0  0
   12.5983   -7.2635   -6.1290 C   0  0  0  0  0  0  0  0  0  0  0  0
   13.7517   -6.5166   -6.2358 C   0  0  0  0  0  0  0  0  0  0  0  0
   14.6897   -6.8038   -7.2025 C   0  0  0  0  0  0  0  0  0  0  0  0
   15.1415   -5.9953  -10.3086 C   0  0  0  0  0  0  0  0  0  0  0  0
   16.1389   -5.2909  -10.5227 O   0  0  0  0  0  0  0  0  0  0  0  0
   13.9617   -5.3838   -9.9355 O   0  0  0  0  0  0  0  0  0  0  0  0
  2  1  1  0
  3  2  1  0
  3  4  1  1
  5  3  1  0
  5  6  2  0
  7  5  1  0
  8  7  1  0
  8  9  1  6
 10  9  1  0
 10 11  1  0
 11 15  1  0
 12 11  2  0
 13  8  1  0
 14 13  2  0
 16 13  1  0
 17 16  1  0
 17 18  1  1
 18 19  1  0
 19 20  2  0
 20 21  1  0
 22 21  2  0
 23 22  1  0
 24 19  1  0
 24 23  2  0
 25 27  1  0
 25 17  1  0
 26 25  2  0
M  END
$$$$
