SEF.pdb
     RDKit          3D

 27 27  0  0  1  0  0  0  0  0999 V2000
   20.1599  -18.0592  -11.1322 O   0  0  0  0  0  0  0  0  0  0  0  0
   21.1307  -19.0261  -10.9260 C   0  0  0  0  0  0  0  0  0  0  0  0
   21.3606  -19.8635  -12.1877 C   0  0  2  0  0  0  0  0  0  0  0  0
   20.2336  -20.7076  -12.4328 N   0  0  0  0  0  0  0  0  0  0  0  0
   22.6057  -20.6652  -11.9040 C   0  0  0  0  0  0  0  0  0  0  0  0
   22.5176  -21.7352  -11.2517 O   0  0  0  0  0  0  0  0  0  0  0  0
   23.8080  -20.1199  -12.4174 N   0  0  0  0  0  0  0  0  0  0  0  0
   25.0501  -20.8712  -12.2088 C   0  0  1  0  0  0  0  0  0  0  0  0
   25.7721  -20.8785  -13.5174 C   0  0  0  0  0  0  0  0  0  0  0  0
   27.0858  -21.5684  -13.5559 C   0  0  0  0  0  0  0  0  0  0  0  0
   27.6030  -21.5256  -14.9820 C   0  0  0  0  0  0  0  0  0  0  0  0
   27.4087  -20.4733  -15.6138 O   0  0  0  0  0  0  0  0  0  0  0  0
   25.7844  -20.3430  -11.0594 C   0  0  0  0  0  0  0  0  0  0  0  0
   25.6023  -19.1513  -10.6194 O   0  0  0  0  0  0  0  0  0  0  0  0
   28.2530  -22.5882  -15.5544 O   0  0  0  0  0  0  0  0  0  0  0  0
   26.7326  -21.1582  -10.3863 N   0  0  0  0  0  0  0  0  0  0  0  0
   27.5102  -20.5334   -9.3007 C   0  0  1  0  0  0  0  0  0  0  0  0
   26.5716  -20.5467   -8.1069 C   0  0  0  0  0  0  0  0  0  0  0  0
   27.2813  -20.1188   -6.8809 C   0  0  0  0  0  0  0  0  0  0  0  0
   27.1712  -18.8443   -6.3661 C   0  0  0  0  0  0  0  0  0  0  0  0
   27.8455  -18.4697   -5.2051 C   0  0  0  0  0  0  0  0  0  0  0  0
   28.6503  -19.3560   -4.5227 C   0  0  0  0  0  0  0  0  0  0  0  0
   28.7695  -20.6333   -5.0266 C   0  0  0  0  0  0  0  0  0  0  0  0
   28.1030  -21.0030   -6.1737 C   0  0  0  0  0  0  0  0  0  0  0  0
   28.7249  -21.3243   -9.0578 C   0  0  0  0  0  0  0  0  0  0  0  0
   29.8446  -20.7972   -9.1300 O   0  0  0  0  0  0  0  0  0  0  0  0
   28.6391  -22.6659   -8.7450 O   0  0  0  0  0  0  0  0  0  0  0  0
  2  1  1  0
  3  2  1  0
  3  4  1  1
  5  3  1  0
  5  6  2  0
  7  5  1  0
  8  7  1  0
  8  9  1  6
 10  9  1  0
 10 11  1  0
 11 15  1  0
 12 11  2  0
 13  8  1  0
 14 13  2  0
 16 13  1  0
 17 16  1  0
 17 18  1  1
 18 19  1  0
 19 20  2  0
 20 21  1  0
 22 21  2  0
 23 22  1  0
 24 19  1  0
 24 23  2  0
 25 27  1  0
 25 17  1  0
 26 25  2  0
M  END
$$$$
