GVA.pdb
     RDKit          3D

 17 16  0  0  1  0  0  0  0  0999 V2000
   17.6952  -12.8239  -15.6386 N   0  0  0  0  0  0  0  0  0  0  0  0
   17.7708  -11.5711  -14.9557 C   0  0  0  0  0  0  0  0  0  0  0  0
   18.4737  -10.5104  -15.7621 C   0  0  0  0  0  0  0  0  0  0  0  0
   18.8849  -10.8850  -16.8925 O   0  0  0  0  0  0  0  0  0  0  0  0
   17.2431   -6.8632  -15.7856 C   0  0  0  0  0  0  0  0  0  0  0  0
   18.0977   -7.5833  -16.8421 C   0  0  2  0  0  0  0  0  0  0  0  0
   17.1669   -8.5177  -17.5504 C   0  0  0  0  0  0  0  0  0  0  0  0
   19.2278   -8.1958  -16.1087 C   0  0  2  0  0  0  0  0  0  0  0  0
   18.6311   -9.2022  -15.2339 N   0  0  0  0  0  0  0  0  0  0  0  0
   20.0783   -7.3081  -15.3158 C   0  0  0  0  0  0  0  0  0  0  0  0
   19.7662   -7.0309  -14.1291 O   0  0  0  0  0  0  0  0  0  0  0  0
   23.4440   -5.6747  -15.6137 C   0  0  0  0  0  0  0  0  0  0  0  0
   22.1419   -5.9383  -14.9152 C   0  0  2  0  0  0  0  0  0  0  0  0
   21.2763   -6.7092  -15.7939 N   0  0  0  0  0  0  0  0  0  0  0  0
   21.5009   -4.6095  -14.6640 C   0  0  0  0  0  0  0  0  0  0  0  0
   21.8071   -3.8520  -13.5444 O   0  0  0  0  0  0  0  0  0  0  0  0
   20.6654   -4.1433  -15.4632 O   0  0  0  0  0  0  0  0  0  0  0  0
  2  1  1  0
  3  2  1  0
  3  4  2  0
  6  5  1  1
  6  8  1  0
  7  6  1  0
  8  9  1  1
  9  3  1  0
 10  8  1  0
 10 14  1  0
 11 10  2  0
 13 12  1  6
 13 14  1  0
 13 15  1  0
 15 17  2  0
 15 16  1  0
M  END
$$$$
