GVA.pdb
     RDKit          3D

 17 16  0  0  1  0  0  0  0  0999 V2000
   18.4037  -12.2621  -16.1924 N   0  0  0  0  0  0  0  0  0  0  0  0
   18.9120  -11.0232  -16.6911 C   0  0  0  0  0  0  0  0  0  0  0  0
   19.7794  -10.3052  -15.6903 C   0  0  0  0  0  0  0  0  0  0  0  0
   19.4388  -10.4530  -14.4864 O   0  0  0  0  0  0  0  0  0  0  0  0
   23.5257   -9.0470  -16.6055 C   0  0  0  0  0  0  0  0  0  0  0  0
   23.0214   -9.3481  -15.1842 C   0  0  2  0  0  0  0  0  0  0  0  0
   23.1791  -10.8255  -15.0009 C   0  0  0  0  0  0  0  0  0  0  0  0
   21.6446   -8.8102  -15.1141 C   0  0  2  0  0  0  0  0  0  0  0  0
   20.8862   -9.5336  -16.1317 N   0  0  0  0  0  0  0  0  0  0  0  0
   21.4711   -7.3713  -15.3129 C   0  0  0  0  0  0  0  0  0  0  0  0
   21.4019   -6.9000  -16.4772 O   0  0  0  0  0  0  0  0  0  0  0  0
   20.4686   -4.3573  -13.4088 C   0  0  0  0  0  0  0  0  0  0  0  0
   21.2371   -5.0002  -14.5263 C   0  0  2  0  0  0  0  0  0  0  0  0
   21.3699   -6.4235  -14.2574 N   0  0  0  0  0  0  0  0  0  0  0  0
   22.6030   -4.3885  -14.5293 C   0  0  0  0  0  0  0  0  0  0  0  0
   23.7233   -5.1036  -14.1360 O   0  0  0  0  0  0  0  0  0  0  0  0
   22.7718   -3.2070  -14.8893 O   0  0  0  0  0  0  0  0  0  0  0  0
  2  1  1  0
  3  2  1  0
  3  4  2  0
  6  5  1  6
  6  8  1  0
  7  6  1  0
  8  9  1  6
  9  3  1  0
 10  8  1  0
 10 14  1  0
 11 10  2  0
 13 12  1  1
 13 14  1  0
 13 15  1  0
 15 17  2  0
 15 16  1  0
M  END
$$$$
