GVA.pdb
     RDKit          3D

 17 16  0  0  1  0  0  0  0  0999 V2000
   24.6551  -20.3454   -8.6477 N   0  0  0  0  0  0  0  0  0  0  0  0
   25.1237  -21.1522   -9.7299 C   0  0  0  0  0  0  0  0  0  0  0  0
   25.4021  -20.3510  -10.9749 C   0  0  0  0  0  0  0  0  0  0  0  0
   25.1827  -19.1145  -10.8734 O   0  0  0  0  0  0  0  0  0  0  0  0
   28.4041  -20.0499  -12.6771 C   0  0  0  0  0  0  0  0  0  0  0  0
   27.4507  -20.4828  -13.8036 C   0  0  2  0  0  0  0  0  0  0  0  0
   27.9214  -19.7683  -15.0321 C   0  0  0  0  0  0  0  0  0  0  0  0
   26.0847  -20.1671  -13.3300 C   0  0  2  0  0  0  0  0  0  0  0  0
   25.8758  -20.9976  -12.1465 N   0  0  0  0  0  0  0  0  0  0  0  0
   24.9807  -20.3736  -14.2673 C   0  0  0  0  0  0  0  0  0  0  0  0
   24.6598  -21.5390  -14.6158 O   0  0  0  0  0  0  0  0  0  0  0  0
   22.3370  -18.3340  -15.9859 C   0  0  0  0  0  0  0  0  0  0  0  0
   23.0991  -19.6028  -15.7373 C   0  0  2  0  0  0  0  0  0  0  0  0
   24.2093  -19.3248  -14.8396 N   0  0  0  0  0  0  0  0  0  0  0  0
   23.6537  -20.0478  -17.0542 C   0  0  0  0  0  0  0  0  0  0  0  0
   22.9986  -20.9795  -17.8441 O   0  0  0  0  0  0  0  0  0  0  0  0
   24.7310  -19.5877  -17.4807 O   0  0  0  0  0  0  0  0  0  0  0  0
  2  1  1  0
  3  2  1  0
  3  4  2  0
  6  5  1  1
  6  8  1  0
  7  6  1  0
  8  9  1  1
  9  3  1  0
 10  8  1  0
 10 14  1  0
 11 10  2  0
 13 12  1  6
 13 14  1  0
 13 15  1  0
 15 17  2  0
 15 16  1  0
M  END
$$$$
