GVA.pdb
     RDKit          3D

 17 16  0  0  1  0  0  0  0  0999 V2000
   26.0807  -14.3619  -20.7470 N   0  0  0  0  0  0  0  0  0  0  0  0
   27.0862  -13.4171  -21.1186 C   0  0  0  0  0  0  0  0  0  0  0  0
   27.7785  -12.8058  -19.9284 C   0  0  0  0  0  0  0  0  0  0  0  0
   27.0196  -12.4929  -18.9728 O   0  0  0  0  0  0  0  0  0  0  0  0
   30.2010  -14.0989  -17.7675 C   0  0  0  0  0  0  0  0  0  0  0  0
   30.8776  -12.8394  -18.3343 C   0  0  2  0  0  0  0  0  0  0  0  0
   31.7562  -12.3214  -17.2384 C   0  0  0  0  0  0  0  0  0  0  0  0
   29.7824  -11.9530  -18.7869 C   0  0  2  0  0  0  0  0  0  0  0  0
   29.1859  -12.6210  -19.9411 N   0  0  0  0  0  0  0  0  0  0  0  0
   30.1320  -10.5796  -19.1498 C   0  0  0  0  0  0  0  0  0  0  0  0
   30.9337  -10.3622  -20.0945 O   0  0  0  0  0  0  0  0  0  0  0  0
   28.8411   -7.1591  -18.7512 C   0  0  0  0  0  0  0  0  0  0  0  0
   30.0118   -8.0850  -18.9089 C   0  0  2  0  0  0  0  0  0  0  0  0
   29.6201   -9.4241  -18.4976 N   0  0  0  0  0  0  0  0  0  0  0  0
   31.0840   -7.5994  -17.9847 C   0  0  0  0  0  0  0  0  0  0  0  0
   32.0690   -6.7209  -18.4081 O   0  0  0  0  0  0  0  0  0  0  0  0
   31.1207   -7.9758  -16.7968 O   0  0  0  0  0  0  0  0  0  0  0  0
  2  1  1  0
  3  2  1  0
  3  4  2  0
  6  5  1  1
  6  8  1  0
  7  6  1  0
  8  9  1  6
  9  3  1  0
 10  8  1  0
 10 14  1  0
 11 10  2  0
 13 12  1  1
 13 14  1  0
 13 15  1  0
 15 17  2  0
 15 16  1  0
M  END
$$$$
