GVA.pdb
     RDKit          3D

 17 16  0  0  1  0  0  0  0  0999 V2000
   28.7793  -19.5019  -15.3729 N   0  0  0  0  0  0  0  0  0  0  0  0
   27.8482  -19.0991  -14.3666 C   0  0  0  0  0  0  0  0  0  0  0  0
   26.8548  -20.1796  -14.0272 C   0  0  0  0  0  0  0  0  0  0  0  0
   26.8713  -21.1791  -14.7939 O   0  0  0  0  0  0  0  0  0  0  0  0
   24.8848  -20.3456  -10.3309 C   0  0  0  0  0  0  0  0  0  0  0  0
   25.4009  -21.5082  -11.1953 C   0  0  2  0  0  0  0  0  0  0  0  0
   26.8444  -21.6739  -10.8346 C   0  0  0  0  0  0  0  0  0  0  0  0
   25.1011  -21.1423  -12.5976 C   0  0  2  0  0  0  0  0  0  0  0  0
   25.9894  -20.0261  -12.9124 N   0  0  0  0  0  0  0  0  0  0  0  0
   23.7233  -20.7698  -12.9182 C   0  0  0  0  0  0  0  0  0  0  0  0
   23.2775  -19.6458  -12.5710 O   0  0  0  0  0  0  0  0  0  0  0  0
   21.1010  -21.6655  -15.3142 C   0  0  0  0  0  0  0  0  0  0  0  0
   21.4696  -21.1508  -13.9534 C   0  0  2  0  0  0  0  0  0  0  0  0
   22.8099  -21.6057  -13.6179 N   0  0  0  0  0  0  0  0  0  0  0  0
   20.5063  -21.7535  -12.9795 C   0  0  0  0  0  0  0  0  0  0  0  0
   19.2466  -21.2142  -12.7710 O   0  0  0  0  0  0  0  0  0  0  0  0
   20.8140  -22.7674  -12.3227 O   0  0  0  0  0  0  0  0  0  0  0  0
  2  1  1  0
  3  2  1  0
  3  4  2  0
  6  5  1  1
  6  8  1  0
  7  6  1  0
  8  9  1  1
  9  3  1  0
 10  8  1  0
 10 14  1  0
 11 10  2  0
 13 12  1  6
 13 14  1  0
 13 15  1  0
 15 17  2  0
 15 16  1  0
M  END
$$$$
