GVA.pdb
     RDKit          3D

 17 16  0  0  1  0  0  0  0  0999 V2000
   25.3810  -12.5485  -16.6609 N   0  0  0  0  0  0  0  0  0  0  0  0
   24.6111  -12.0248  -15.5771 C   0  0  0  0  0  0  0  0  0  0  0  0
   23.7217  -10.8825  -15.9938 C   0  0  0  0  0  0  0  0  0  0  0  0
   23.7823  -10.5775  -17.2146 O   0  0  0  0  0  0  0  0  0  0  0  0
   20.3811  -10.7982  -16.2116 C   0  0  0  0  0  0  0  0  0  0  0  0
   20.6426   -9.6327  -15.2429 C   0  0  2  0  0  0  0  0  0  0  0  0
   19.5405   -8.6484  -15.4836 C   0  0  0  0  0  0  0  0  0  0  0  0
   22.0215   -9.1711  -15.5180 C   0  0  2  0  0  0  0  0  0  0  0  0
   22.8975  -10.2360  -15.0357 N   0  0  0  0  0  0  0  0  0  0  0  0
   22.4373   -7.8982  -14.9290 C   0  0  0  0  0  0  0  0  0  0  0  0
   22.6344   -7.8122  -13.6895 O   0  0  0  0  0  0  0  0  0  0  0  0
   23.3793   -4.4417  -16.0591 C   0  0  0  0  0  0  0  0  0  0  0  0
   23.0229   -5.4600  -15.0157 C   0  0  2  0  0  0  0  0  0  0  0  0
   22.6458   -6.7028  -15.6706 N   0  0  0  0  0  0  0  0  0  0  0  0
   21.8332   -4.9335  -14.2759 C   0  0  0  0  0  0  0  0  0  0  0  0
   21.9663   -4.2112  -13.1005 O   0  0  0  0  0  0  0  0  0  0  0  0
   20.6785   -5.1326  -14.7013 O   0  0  0  0  0  0  0  0  0  0  0  0
  2  1  1  0
  3  2  1  0
  3  4  2  0
  6  5  1  6
  6  8  1  0
  7  6  1  0
  8  9  1  1
  9  3  1  0
 10  8  1  0
 10 14  1  0
 11 10  2  0
 13 12  1  6
 13 14  1  0
 13 15  1  0
 15 17  2  0
 15 16  1  0
M  END
$$$$
