GVA.pdb
     RDKit          3D

 17 16  0  0  1  0  0  0  0  0999 V2000
   23.1411  -13.9253  -20.3010 N   0  0  0  0  0  0  0  0  0  0  0  0
   23.7106  -12.6178  -20.2126 C   0  0  0  0  0  0  0  0  0  0  0  0
   23.7109  -12.0772  -18.8064 C   0  0  0  0  0  0  0  0  0  0  0  0
   22.7432  -12.4508  -18.0913 O   0  0  0  0  0  0  0  0  0  0  0  0
   26.3991  -12.1705  -16.3735 C   0  0  0  0  0  0  0  0  0  0  0  0
   26.0124  -10.6853  -16.4722 C   0  0  2  0  0  0  0  0  0  0  0  0
   26.1929  -10.1255  -15.0955 C   0  0  0  0  0  0  0  0  0  0  0  0
   24.6426  -10.6535  -17.0313 C   0  0  2  0  0  0  0  0  0  0  0  0
   24.7523  -11.2140  -18.3759 N   0  0  0  0  0  0  0  0  0  0  0  0
   23.9721   -9.3552  -17.1013 C   0  0  0  0  0  0  0  0  0  0  0  0
   24.4798   -8.4192  -17.7711 O   0  0  0  0  0  0  0  0  0  0  0  0
   20.7680   -7.8383  -17.0982 C   0  0  0  0  0  0  0  0  0  0  0  0
   22.1521   -7.7256  -16.5288 C   0  0  2  0  0  0  0  0  0  0  0  0
   22.7452   -9.0514  -16.4494 N   0  0  0  0  0  0  0  0  0  0  0  0
   22.0137   -7.1838  -15.1406 C   0  0  0  0  0  0  0  0  0  0  0  0
   21.7199   -5.8501  -14.9042 O   0  0  0  0  0  0  0  0  0  0  0  0
   22.1604   -7.9252  -14.1492 O   0  0  0  0  0  0  0  0  0  0  0  0
  2  1  1  0
  3  2  1  0
  3  4  2  0
  6  5  1  1
  6  8  1  0
  7  6  1  0
  8  9  1  6
  9  3  1  0
 10  8  1  0
 10 14  1  0
 11 10  2  0
 13 12  1  1
 13 14  1  0
 13 15  1  0
 15 17  2  0
 15 16  1  0
M  END
$$$$
