ELQ.pdb
     RDKit          3D

 27 26  0  0  1  0  0  0  0  0999 V2000
    8.5916  -15.7697   20.9836 N   0  0  0  0  0  0  0  0  0  0  0  0
    7.8761  -16.0863   22.1643 C   0  0  1  0  0  0  0  0  0  0  0  0
    7.8041  -17.5072   22.5758 C   0  0  0  0  0  0  0  0  0  0  0  0
    7.4337  -18.5066   21.5315 C   0  0  0  0  0  0  0  0  0  0  0  0
    7.4184  -19.8881   22.0164 C   0  0  0  0  0  0  0  0  0  0  0  0
    8.3049  -20.7059   21.7390 O   0  0  0  0  0  0  0  0  0  0  0  0
    8.4669  -15.2893   23.3054 C   0  0  0  0  0  0  0  0  0  0  0  0
    9.6828  -15.0799   23.3229 O   0  0  0  0  0  0  0  0  0  0  0  0
    6.3669  -20.3206   22.8277 O   0  0  0  0  0  0  0  0  0  0  0  0
    5.2002  -11.6001   25.8341 C   0  0  0  0  0  0  0  0  0  0  0  0
    6.3444  -12.3898   25.2294 C   0  0  1  0  0  0  0  0  0  0  0  0
    7.4879  -11.3797   24.9333 C   0  0  0  0  0  0  0  0  0  0  0  0
    6.9240  -13.3727   26.2147 C   0  0  0  0  0  0  0  0  0  0  0  0
    7.9950  -14.1737   25.4985 C   0  0  2  0  0  0  0  0  0  0  0  0
    7.5856  -14.8207   24.3016 N   0  0  0  0  0  0  0  0  0  0  0  0
    8.8115  -14.9952   26.4016 C   0  0  0  0  0  0  0  0  0  0  0  0
    9.2815  -14.5561   27.4901 O   0  0  0  0  0  0  0  0  0  0  0  0
    6.4326  -20.3756   27.7580 N   0  0  0  0  0  0  0  0  0  0  0  0
    7.6520  -20.3834   28.4430 C   0  0  0  0  0  0  0  0  0  0  0  0
    7.8623  -21.2946   29.2859 O   0  0  0  0  0  0  0  0  0  0  0  0
    8.7406  -19.3814   28.2512 C   0  0  0  0  0  0  0  0  0  0  0  0
    8.3874  -18.3403   27.2589 C   0  0  0  0  0  0  0  0  0  0  0  0
    9.4872  -17.3145   27.1354 C   0  0  2  0  0  0  0  0  0  0  0  0
    9.1079  -16.3344   26.0794 N   0  0  0  0  0  0  0  0  0  0  0  0
   10.8070  -17.8751   26.7749 C   0  0  0  0  0  0  0  0  0  0  0  0
   11.4386  -18.6540   27.5675 O   0  0  0  0  0  0  0  0  0  0  0  0
   11.4350  -17.6047   25.5813 O   0  0  0  0  0  0  0  0  0  0  0  0
  2  1  1  6
  2  3  1  0
  3  4  1  0
  4  5  1  0
  5  6  2  0
  5  9  1  0
  7  8  2  0
  7  2  1  0
 11 10  1  1
 11 13  1  0
 12 11  1  0
 14 13  1  1
 14 15  1  0
 15  7  1  0
 16 17  2  0
 16 14  1  0
 19 18  1  0
 20 19  2  0
 21 19  1  0
 22 21  1  0
 23 22  1  6
 23 24  1  0
 24 16  1  0
 25 23  1  0
 26 25  2  0
 27 25  1  0
M  END
$$$$
