ELQ.pdb
     RDKit          3D

 27 26  0  0  1  0  0  0  0  0999 V2000
    8.8117  -18.2124   18.5753 N   0  0  0  0  0  0  0  0  0  0  0  0
   10.1425  -17.7420   18.4576 C   0  0  1  0  0  0  0  0  0  0  0  0
   10.6368  -17.3790   17.1097 C   0  0  0  0  0  0  0  0  0  0  0  0
    9.6644  -16.7517   16.1676 C   0  0  0  0  0  0  0  0  0  0  0  0
   10.2390  -16.4174   14.8629 C   0  0  0  0  0  0  0  0  0  0  0  0
   10.8133  -17.2502   14.1500 O   0  0  0  0  0  0  0  0  0  0  0  0
   10.3033  -16.5417   19.3632 C   0  0  0  0  0  0  0  0  0  0  0  0
   11.4265  -16.0545   19.5176 O   0  0  0  0  0  0  0  0  0  0  0  0
   10.1454  -15.1082   14.3853 O   0  0  0  0  0  0  0  0  0  0  0  0
    6.5855  -12.7317   19.2526 C   0  0  0  0  0  0  0  0  0  0  0  0
    7.8461  -13.5481   19.4600 C   0  0  1  0  0  0  0  0  0  0  0  0
    9.0498  -12.5880   19.2481 C   0  0  0  0  0  0  0  0  0  0  0  0
    7.9670  -14.0334   20.8821 C   0  0  0  0  0  0  0  0  0  0  0  0
    9.1443  -14.9878   20.9503 C   0  0  2  0  0  0  0  0  0  0  0  0
    9.1463  -16.0356   19.9906 N   0  0  0  0  0  0  0  0  0  0  0  0
    9.4856  -15.3971   22.3188 C   0  0  0  0  0  0  0  0  0  0  0  0
    8.6207  -15.5209   23.2326 O   0  0  0  0  0  0  0  0  0  0  0  0
   11.0834  -19.4457   26.2181 N   0  0  0  0  0  0  0  0  0  0  0  0
   11.6982  -19.6206   24.9741 C   0  0  0  0  0  0  0  0  0  0  0  0
   12.4772  -20.5976   24.8204 O   0  0  0  0  0  0  0  0  0  0  0  0
   11.5012  -18.7268   23.7959 C   0  0  0  0  0  0  0  0  0  0  0  0
   10.5127  -17.6546   24.0540 C   0  0  0  0  0  0  0  0  0  0  0  0
   11.1595  -16.2931   23.9831 C   0  0  2  0  0  0  0  0  0  0  0  0
   10.8216  -15.6730   22.6713 N   0  0  0  0  0  0  0  0  0  0  0  0
   12.6328  -16.3102   24.1057 C   0  0  0  0  0  0  0  0  0  0  0  0
   13.2065  -16.2652   25.2471 O   0  0  0  0  0  0  0  0  0  0  0  0
   13.4742  -16.3774   23.0196 O   0  0  0  0  0  0  0  0  0  0  0  0
  2  1  1  6
  2  3  1  0
  3  4  1  0
  4  5  1  0
  5  6  2  0
  5  9  1  0
  7  8  2  0
  7  2  1  0
 11 10  1  1
 11 13  1  0
 12 11  1  0
 14 13  1  1
 14 15  1  0
 15  7  1  0
 16 17  2  0
 16 14  1  0
 19 18  1  0
 20 19  2  0
 21 19  1  0
 22 21  1  0
 23 22  1  6
 23 24  1  0
 24 16  1  0
 25 23  1  0
 26 25  2  0
 27 25  1  0
M  END
$$$$
