ELQ.pdb
     RDKit          3D

 27 26  0  0  1  0  0  0  0  0999 V2000
    7.6920  -16.9538   21.4727 N   0  0  0  0  0  0  0  0  0  0  0  0
    9.0699  -16.8641   21.7883 C   0  0  1  0  0  0  0  0  0  0  0  0
   10.0063  -16.4620   20.7138 C   0  0  0  0  0  0  0  0  0  0  0  0
    9.4435  -16.2854   19.3431 C   0  0  0  0  0  0  0  0  0  0  0  0
   10.3314  -16.7521   18.2764 C   0  0  0  0  0  0  0  0  0  0  0  0
   11.4731  -17.1782   18.4928 O   0  0  0  0  0  0  0  0  0  0  0  0
    9.2303  -15.9026   22.9444 C   0  0  0  0  0  0  0  0  0  0  0  0
   10.3668  -15.5953   23.3141 O   0  0  0  0  0  0  0  0  0  0  0  0
    9.8895  -16.7231   16.9517 O   0  0  0  0  0  0  0  0  0  0  0  0
    5.8840  -11.8775   26.3097 C   0  0  0  0  0  0  0  0  0  0  0  0
    7.1275  -12.6382   25.8930 C   0  0  1  0  0  0  0  0  0  0  0  0
    7.6051  -13.4435   27.1334 C   0  0  0  0  0  0  0  0  0  0  0  0
    6.8204  -13.6716   24.8391 C   0  0  0  0  0  0  0  0  0  0  0  0
    8.0369  -14.5667   24.6959 C   0  0  2  0  0  0  0  0  0  0  0  0
    8.0577  -15.4010   23.5459 N   0  0  0  0  0  0  0  0  0  0  0  0
    8.4281  -15.2250   25.9491 C   0  0  0  0  0  0  0  0  0  0  0  0
    8.6399  -14.5879   27.0204 O   0  0  0  0  0  0  0  0  0  0  0  0
    6.7692  -21.2166   27.3308 N   0  0  0  0  0  0  0  0  0  0  0  0
    7.5346  -20.7599   28.4085 C   0  0  0  0  0  0  0  0  0  0  0  0
    7.7094  -21.5283   29.3903 O   0  0  0  0  0  0  0  0  0  0  0  0
    8.1703  -19.4124   28.4885 C   0  0  0  0  0  0  0  0  0  0  0  0
    7.9379  -18.6005   27.2720 C   0  0  0  0  0  0  0  0  0  0  0  0
    8.7513  -17.3299   27.3053 C   0  0  2  0  0  0  0  0  0  0  0  0
    8.5857  -16.6241   26.0038 N   0  0  0  0  0  0  0  0  0  0  0  0
   10.1990  -17.5375   27.5227 C   0  0  0  0  0  0  0  0  0  0  0  0
   11.0123  -17.6360   26.5414 O   0  0  0  0  0  0  0  0  0  0  0  0
   10.7622  -17.6348   28.7738 O   0  0  0  0  0  0  0  0  0  0  0  0
  2  1  1  6
  2  3  1  0
  3  4  1  0
  4  5  1  0
  5  6  2  0
  5  9  1  0
  7  8  2  0
  7  2  1  0
 11 10  1  1
 11 13  1  0
 12 11  1  0
 14 13  1  1
 14 15  1  0
 15  7  1  0
 16 17  2  0
 16 14  1  0
 19 18  1  0
 20 19  2  0
 21 19  1  0
 22 21  1  0
 23 22  1  6
 23 24  1  0
 24 16  1  0
 25 23  1  0
 26 25  2  0
 27 25  1  0
M  END
$$$$
