ELQ.pdb
     RDKit          3D

 27 26  0  0  1  0  0  0  0  0999 V2000
    7.4562  -16.5194   22.3376 N   0  0  0  0  0  0  0  0  0  0  0  0
    8.8490  -16.6042   22.5806 C   0  0  1  0  0  0  0  0  0  0  0  0
    9.7712  -16.1417   21.5181 C   0  0  0  0  0  0  0  0  0  0  0  0
    9.3870  -16.4247   20.1043 C   0  0  0  0  0  0  0  0  0  0  0  0
   10.5268  -16.5099   19.1892 C   0  0  0  0  0  0  0  0  0  0  0  0
   11.6998  -16.3953   19.5668 O   0  0  0  0  0  0  0  0  0  0  0  0
    9.1575  -15.8367   23.8464 C   0  0  0  0  0  0  0  0  0  0  0  0
   10.3356  -15.6707   24.1739 O   0  0  0  0  0  0  0  0  0  0  0  0
   10.3014  -16.7294   17.8283 O   0  0  0  0  0  0  0  0  0  0  0  0
    5.7684  -11.9006   25.4649 C   0  0  0  0  0  0  0  0  0  0  0  0
    6.9654  -12.8044   25.2437 C   0  0  1  0  0  0  0  0  0  0  0  0
    8.2356  -11.9210   25.3902 C   0  0  0  0  0  0  0  0  0  0  0  0
    7.0793  -13.8509   26.3229 C   0  0  0  0  0  0  0  0  0  0  0  0
    8.1678  -14.8253   25.9140 C   0  0  2  0  0  0  0  0  0  0  0  0
    8.0685  -15.3442   24.5949 N   0  0  0  0  0  0  0  0  0  0  0  0
    8.4832  -15.8170   26.9503 C   0  0  0  0  0  0  0  0  0  0  0  0
    8.8482  -15.4958   28.1174 O   0  0  0  0  0  0  0  0  0  0  0  0
    6.2399  -21.8336   27.0547 N   0  0  0  0  0  0  0  0  0  0  0  0
    7.1672  -21.7284   28.0964 C   0  0  0  0  0  0  0  0  0  0  0  0
    7.3406  -22.7222   28.8497 O   0  0  0  0  0  0  0  0  0  0  0  0
    7.9800  -20.5124   28.3909 C   0  0  0  0  0  0  0  0  0  0  0  0
    7.7139  -19.4067   27.4423 C   0  0  0  0  0  0  0  0  0  0  0  0
    8.5817  -18.2105   27.7477 C   0  0  2  0  0  0  0  0  0  0  0  0
    8.3883  -17.1955   26.6745 N   0  0  0  0  0  0  0  0  0  0  0  0
   10.0273  -18.5098   27.8278 C   0  0  0  0  0  0  0  0  0  0  0  0
   10.7734  -18.4732   26.7904 O   0  0  0  0  0  0  0  0  0  0  0  0
   10.6599  -18.8400   29.0037 O   0  0  0  0  0  0  0  0  0  0  0  0
  2  1  1  6
  2  3  1  0
  3  4  1  0
  4  5  1  0
  5  6  2  0
  5  9  1  0
  7  8  2  0
  7  2  1  0
 11 10  1  1
 11 13  1  0
 12 11  1  0
 14 13  1  1
 14 15  1  0
 15  7  1  0
 16 17  2  0
 16 14  1  0
 19 18  1  0
 20 19  2  0
 21 19  1  0
 22 21  1  0
 23 22  1  6
 23 24  1  0
 24 16  1  0
 25 23  1  0
 26 25  2  0
 27 25  1  0
M  END
$$$$
