ELQ.pdb
     RDKit          3D

 27 26  0  0  1  0  0  0  0  0999 V2000
    7.6752  -16.4825   22.8388 N   0  0  0  0  0  0  0  0  0  0  0  0
    9.0822  -16.5799   22.9699 C   0  0  1  0  0  0  0  0  0  0  0  0
    9.9205  -16.1340   21.8334 C   0  0  0  0  0  0  0  0  0  0  0  0
    9.8866  -16.9584   20.5901 C   0  0  0  0  0  0  0  0  0  0  0  0
   10.7340  -16.4391   19.5148 C   0  0  0  0  0  0  0  0  0  0  0  0
   11.9421  -16.2144   19.6624 O   0  0  0  0  0  0  0  0  0  0  0  0
    9.4987  -15.8070   24.2011 C   0  0  0  0  0  0  0  0  0  0  0  0
   10.7002  -15.6920   24.4578 O   0  0  0  0  0  0  0  0  0  0  0  0
   10.1737  -16.1798   18.2620 O   0  0  0  0  0  0  0  0  0  0  0  0
    5.6014  -12.5144   25.5842 C   0  0  0  0  0  0  0  0  0  0  0  0
    6.9399  -13.1518   25.2672 C   0  0  1  0  0  0  0  0  0  0  0  0
    7.7655  -12.1037   24.4703 C   0  0  0  0  0  0  0  0  0  0  0  0
    7.7373  -13.4224   26.5177 C   0  0  0  0  0  0  0  0  0  0  0  0
    8.7013  -14.5553   26.2196 C   0  0  2  0  0  0  0  0  0  0  0  0
    8.4789  -15.2507   25.0006 N   0  0  0  0  0  0  0  0  0  0  0  0
    8.9753  -15.4099   27.3821 C   0  0  0  0  0  0  0  0  0  0  0  0
    9.1843  -14.9458   28.5394 O   0  0  0  0  0  0  0  0  0  0  0  0
    6.2401  -20.8185   28.4421 N   0  0  0  0  0  0  0  0  0  0  0  0
    7.0850  -20.6048   27.3483 C   0  0  0  0  0  0  0  0  0  0  0  0
    6.9633  -21.3489   26.3401 O   0  0  0  0  0  0  0  0  0  0  0  0
    8.1362  -19.5483   27.2804 C   0  0  0  0  0  0  0  0  0  0  0  0
    8.1966  -18.7257   28.5104 C   0  0  0  0  0  0  0  0  0  0  0  0
    9.2910  -17.6911   28.4170 C   0  0  2  0  0  0  0  0  0  0  0  0
    9.0165  -16.8117   27.2462 N   0  0  0  0  0  0  0  0  0  0  0  0
   10.6485  -18.2522   28.2488 C   0  0  0  0  0  0  0  0  0  0  0  0
   11.1952  -18.9583   29.1635 O   0  0  0  0  0  0  0  0  0  0  0  0
   11.4037  -18.0595   27.1154 O   0  0  0  0  0  0  0  0  0  0  0  0
  2  1  1  6
  2  3  1  0
  3  4  1  0
  4  5  1  0
  5  6  2  0
  5  9  1  0
  7  8  2  0
  7  2  1  0
 11 10  1  1
 11 13  1  0
 12 11  1  0
 14 13  1  1
 14 15  1  0
 15  7  1  0
 16 17  2  0
 16 14  1  0
 19 18  1  0
 20 19  2  0
 21 19  1  0
 22 21  1  0
 23 22  1  6
 23 24  1  0
 24 16  1  0
 25 23  1  0
 26 25  2  0
 27 25  1  0
M  END
$$$$
