ELQ.pdb
     RDKit          3D

 27 26  0  0  1  0  0  0  0  0999 V2000
    7.4361  -16.5332   22.4700 N   0  0  0  0  0  0  0  0  0  0  0  0
    8.8333  -16.6041   22.6913 C   0  0  1  0  0  0  0  0  0  0  0  0
    9.7350  -16.1870   21.5931 C   0  0  0  0  0  0  0  0  0  0  0  0
    9.6494  -16.9433   20.3096 C   0  0  0  0  0  0  0  0  0  0  0  0
   10.5615  -16.4531   19.2743 C   0  0  0  0  0  0  0  0  0  0  0  0
   11.7898  -16.4228   19.4225 O   0  0  0  0  0  0  0  0  0  0  0  0
    9.1621  -15.7809   23.9163 C   0  0  0  0  0  0  0  0  0  0  0  0
   10.3453  -15.6007   24.2166 O   0  0  0  0  0  0  0  0  0  0  0  0
   10.0425  -15.9960   18.0608 O   0  0  0  0  0  0  0  0  0  0  0  0
    5.4868  -12.1091   25.1812 C   0  0  0  0  0  0  0  0  0  0  0  0
    6.7764  -12.8896   25.0187 C   0  0  1  0  0  0  0  0  0  0  0  0
    7.9108  -11.8518   24.7920 C   0  0  0  0  0  0  0  0  0  0  0  0
    7.1485  -13.6190   26.2845 C   0  0  0  0  0  0  0  0  0  0  0  0
    8.2114  -14.6440   25.9364 C   0  0  2  0  0  0  0  0  0  0  0  0
    8.0854  -15.2551   24.6598 N   0  0  0  0  0  0  0  0  0  0  0  0
    8.5184  -15.5643   27.0389 C   0  0  0  0  0  0  0  0  0  0  0  0
    8.9372  -15.1692   28.1645 O   0  0  0  0  0  0  0  0  0  0  0  0
    6.8045  -21.7596   27.2014 N   0  0  0  0  0  0  0  0  0  0  0  0
    7.9640  -21.3502   26.5350 C   0  0  0  0  0  0  0  0  0  0  0  0
    8.4871  -22.1352   25.7013 O   0  0  0  0  0  0  0  0  0  0  0  0
    8.6411  -20.0362   26.7371 C   0  0  0  0  0  0  0  0  0  0  0  0
    7.9610  -19.1952   27.7487 C   0  0  0  0  0  0  0  0  0  0  0  0
    8.7086  -17.9033   27.9702 C   0  0  2  0  0  0  0  0  0  0  0  0
    8.3536  -16.9543   26.8780 N   0  0  0  0  0  0  0  0  0  0  0  0
   10.1803  -18.0442   27.9823 C   0  0  0  0  0  0  0  0  0  0  0  0
   10.7974  -18.4979   29.0057 O   0  0  0  0  0  0  0  0  0  0  0  0
   10.9741  -17.7054   26.9113 O   0  0  0  0  0  0  0  0  0  0  0  0
  2  1  1  6
  2  3  1  0
  3  4  1  0
  4  5  1  0
  5  6  2  0
  5  9  1  0
  7  8  2  0
  7  2  1  0
 11 10  1  1
 11 13  1  0
 12 11  1  0
 14 13  1  1
 14 15  1  0
 15  7  1  0
 16 17  2  0
 16 14  1  0
 19 18  1  0
 20 19  2  0
 21 19  1  0
 22 21  1  0
 23 22  1  6
 23 24  1  0
 24 16  1  0
 25 23  1  0
 26 25  2  0
 27 25  1  0
M  END
$$$$
