MRM.pdb
     RDKit          3D

 28 27  0  0  1  0  0  0  0  0999 V2000
   27.1536  -18.3956   -5.9258 C   0  0  0  0  0  0  0  0  0  0  0  0
   27.5579  -20.1755   -6.0006 S   0  0  0  0  0  0  0  0  0  0  0  0
   26.7485  -20.9113   -7.4715 C   0  0  0  0  0  0  0  0  0  0  0  0
   25.2768  -20.7440   -7.2803 C   0  0  0  0  0  0  0  0  0  0  0  0
   24.4233  -21.2275   -8.4045 C   0  0  2  0  0  0  0  0  0  0  0  0
   24.7668  -20.6447   -9.6843 N   0  0  0  0  0  0  0  0  0  0  0  0
   22.9549  -21.1290   -8.1185 C   0  0  0  0  0  0  0  0  0  0  0  0
   22.5126  -19.9681   -7.9540 O   0  0  0  0  0  0  0  0  0  0  0  0
   17.4676  -23.9887  -12.4291 N   0  0  0  0  0  0  0  0  0  0  0  0
   16.5957  -22.9373  -11.9920 C   0  0  0  0  0  0  0  0  0  0  0  0
   15.2986  -23.0325  -12.1180 N   0  0  0  0  0  0  0  0  0  0  0  0
   17.0854  -21.7490  -11.4048 N   0  0  0  0  0  0  0  0  0  0  0  0
   18.5031  -21.5910  -11.1556 C   0  0  0  0  0  0  0  0  0  0  0  0
   18.8170  -21.9819   -9.7241 C   0  0  0  0  0  0  0  0  0  0  0  0
   20.2620  -21.8742   -9.3969 C   0  0  0  0  0  0  0  0  0  0  0  0
   20.6777  -22.1944   -8.0062 C   0  0  2  0  0  0  0  0  0  0  0  0
   22.1484  -22.2835   -8.0434 N   0  0  0  0  0  0  0  0  0  0  0  0
   20.2097  -23.4908   -7.4722 C   0  0  0  0  0  0  0  0  0  0  0  0
   20.7262  -24.5978   -7.8793 O   0  0  0  0  0  0  0  0  0  0  0  0
   14.7435  -22.2166  -11.7976 C   0  0  0  0  0  0  0  0  0  0  0  0
   18.1689  -25.1231   -1.4788 S   0  0  0  0  0  0  0  0  0  0  0  0
   18.8833  -26.5577   -2.3654 C   0  0  0  0  0  0  0  0  0  0  0  0
   18.4542  -26.3280   -4.1316 C   0  0  0  0  0  0  0  0  0  0  0  0
   19.0224  -25.0510   -4.6479 C   0  0  1  0  0  0  0  0  0  0  0  0
   18.6666  -24.8351   -6.0843 N   0  0  0  0  0  0  0  0  0  0  0  0
   19.1896  -23.5114   -6.5057 C   0  0  0  0  0  0  0  0  0  0  0  0
   17.2298  -24.9026   -6.3676 O   0  0  0  0  0  0  0  0  0  0  0  0
   16.5487  -23.8840   -6.5473 O   0  0  0  0  0  0  0  0  0  0  0  0
  2  1  1  0
  3  2  1  0
  4  3  1  0
  5  4  1  0
  5  6  1  6
  7  8  2  0
  7  5  1  0
  9 10  1  0
 10 11  2  0
 12 10  1  0
 12 13  1  0
 13 14  1  0
 15 14  1  0
 16 15  1  6
 16 17  1  0
 17  7  1  0
 18 16  1  0
 18 19  2  0
 21 20  1  0
 22 23  1  0
 22 21  1  0
 24 25  1  0
 24 23  1  6
 25 18  1  0
 26 24  1  0
 27 26  2  0
 28 26  1  0
M  END
$$$$
