MRM.pdb
     RDKit          3D

 28 27  0  0  1  0  0  0  0  0999 V2000
   21.7396  -11.4699    7.5383 C   0  0  0  0  0  0  0  0  0  0  0  0
   21.3038  -11.1685    5.7901 S   0  0  0  0  0  0  0  0  0  0  0  0
   19.4971  -11.3935    5.5769 C   0  0  0  0  0  0  0  0  0  0  0  0
   19.1712  -12.7584    6.0882 C   0  0  0  0  0  0  0  0  0  0  0  0
   17.7598  -13.1993    5.8895 C   0  0  2  0  0  0  0  0  0  0  0  0
   16.7865  -12.3168    6.4973 N   0  0  0  0  0  0  0  0  0  0  0  0
   17.5286  -14.6328    6.2630 C   0  0  0  0  0  0  0  0  0  0  0  0
   17.3253  -14.8484    7.4806 O   0  0  0  0  0  0  0  0  0  0  0  0
   14.9917  -21.3327    0.9937 N   0  0  0  0  0  0  0  0  0  0  0  0
   15.2572  -21.9214    2.2741 C   0  0  0  0  0  0  0  0  0  0  0  0
   15.0548  -23.1936    2.4932 N   0  0  0  0  0  0  0  0  0  0  0  0
   15.7492  -21.1660    3.3623 N   0  0  0  0  0  0  0  0  0  0  0  0
   16.0524  -19.7600    3.1940 C   0  0  0  0  0  0  0  0  0  0  0  0
   16.5780  -19.1910    4.4981 C   0  0  0  0  0  0  0  0  0  0  0  0
   16.8257  -17.7276    4.4344 C   0  0  0  0  0  0  0  0  0  0  0  0
   17.3678  -17.0686    5.6514 C   0  0  2  0  0  0  0  0  0  0  0  0
   17.5462  -15.6515    5.2879 N   0  0  0  0  0  0  0  0  0  0  0  0
   18.6941  -17.5372    6.1059 C   0  0  0  0  0  0  0  0  0  0  0  0
   19.7327  -17.4078    5.3558 O   0  0  0  0  0  0  0  0  0  0  0  0
   15.2583  -23.5341    3.4519 C   0  0  0  0  0  0  0  0  0  0  0  0
   22.6703  -18.3009   11.5227 S   0  0  0  0  0  0  0  0  0  0  0  0
   21.9496  -16.7706   10.8203 C   0  0  0  0  0  0  0  0  0  0  0  0
   21.4395  -17.1879    9.1108 C   0  0  0  0  0  0  0  0  0  0  0  0
   20.4894  -18.3357    9.1122 C   0  0  2  0  0  0  0  0  0  0  0  0
   20.1246  -18.7454    7.7209 N   0  0  0  0  0  0  0  0  0  0  0  0
   18.8197  -18.1285    7.3747 C   0  0  0  0  0  0  0  0  0  0  0  0
   20.0455  -20.1953    7.5191 O   0  0  0  0  0  0  0  0  0  0  0  0
   18.9612  -20.7835    7.4095 O   0  0  0  0  0  0  0  0  0  0  0  0
  2  1  1  0
  3  2  1  0
  4  3  1  0
  5  4  1  0
  5  6  1  1
  7  8  2  0
  7  5  1  0
  9 10  1  0
 10 11  2  0
 12 10  1  0
 12 13  1  0
 13 14  1  0
 15 14  1  0
 16 15  1  6
 16 17  1  0
 17  7  1  0
 18 16  1  0
 18 19  2  0
 21 20  1  0
 22 23  1  0
 22 21  1  0
 24 25  1  0
 24 23  1  6
 25 18  1  0
 26 24  1  0
 27 26  2  0
 28 26  1  0
M  END
$$$$
