MRM.pdb
     RDKit          3D

 28 27  0  0  1  0  0  0  0  0999 V2000
   22.2355  -16.5565  -19.1782 C   0  0  0  0  0  0  0  0  0  0  0  0
   21.9106  -15.0999  -18.1248 S   0  0  0  0  0  0  0  0  0  0  0  0
   23.2039  -14.9981  -16.8297 C   0  0  0  0  0  0  0  0  0  0  0  0
   23.6084  -16.4011  -16.5158 C   0  0  0  0  0  0  0  0  0  0  0  0
   24.1177  -16.6290  -15.1321 C   0  0  2  0  0  0  0  0  0  0  0  0
   25.1817  -15.7246  -14.7505 N   0  0  0  0  0  0  0  0  0  0  0  0
   24.4721  -18.0600  -14.8593 C   0  0  0  0  0  0  0  0  0  0  0  0
   23.6258  -18.9068  -15.2295 O   0  0  0  0  0  0  0  0  0  0  0  0
   28.3641  -23.9683  -16.1399 N   0  0  0  0  0  0  0  0  0  0  0  0
   28.5168  -22.9176  -17.1039 C   0  0  0  0  0  0  0  0  0  0  0  0
   28.1910  -23.0915  -18.3574 N   0  0  0  0  0  0  0  0  0  0  0  0
   29.0235  -21.6452  -16.7562 N   0  0  0  0  0  0  0  0  0  0  0  0
   29.3584  -21.3468  -15.3793 C   0  0  0  0  0  0  0  0  0  0  0  0
   28.0902  -21.2626  -14.5516 C   0  0  0  0  0  0  0  0  0  0  0  0
   27.3959  -19.9562  -14.6854 C   0  0  0  0  0  0  0  0  0  0  0  0
   26.0757  -19.8079  -14.0187 C   0  0  2  0  0  0  0  0  0  0  0  0
   25.6841  -18.4020  -14.2245 N   0  0  0  0  0  0  0  0  0  0  0  0
   26.0610  -20.0193  -12.5558 C   0  0  0  0  0  0  0  0  0  0  0  0
   26.2867  -19.0445  -11.7455 O   0  0  0  0  0  0  0  0  0  0  0  0
   28.3419  -22.2825  -18.9891 C   0  0  0  0  0  0  0  0  0  0  0  0
   29.1027  -20.2091   -8.6366 S   0  0  0  0  0  0  0  0  0  0  0  0
   27.7252  -20.1939   -7.4297 C   0  0  0  0  0  0  0  0  0  0  0  0
   26.2091  -20.5753   -8.3849 C   0  0  0  0  0  0  0  0  0  0  0  0
   26.4982  -20.5844   -9.8466 C   0  0  1  0  0  0  0  0  0  0  0  0
   25.5094  -21.4206  -10.5945 N   0  0  0  0  0  0  0  0  0  0  0  0
   25.7942  -21.3017  -12.0464 C   0  0  0  0  0  0  0  0  0  0  0  0
   24.1084  -21.0691  -10.3437 O   0  0  0  0  0  0  0  0  0  0  0  0
   23.4320  -20.4421  -11.1701 O   0  0  0  0  0  0  0  0  0  0  0  0
  2  1  1  0
  3  2  1  0
  4  3  1  0
  5  4  1  0
  5  6  1  6
  7  8  2  0
  7  5  1  0
  9 10  1  0
 10 11  2  0
 12 10  1  0
 12 13  1  0
 13 14  1  0
 15 14  1  0
 16 15  1  1
 16 17  1  0
 17  7  1  0
 18 16  1  0
 18 19  2  0
 21 20  1  0
 22 23  1  0
 22 21  1  0
 24 25  1  0
 24 23  1  1
 25 18  1  0
 26 24  1  0
 27 26  2  0
 28 26  1  0
M  END
$$$$
