MRM.pdb
     RDKit          3D

 28 27  0  0  1  0  0  0  0  0999 V2000
   24.1905  -13.4290  -14.1603 C   0  0  0  0  0  0  0  0  0  0  0  0
   25.9952  -13.6342  -14.3547 S   0  0  0  0  0  0  0  0  0  0  0  0
   26.3179  -14.9094  -15.6314 C   0  0  0  0  0  0  0  0  0  0  0  0
   25.8266  -16.2062  -15.0766 C   0  0  0  0  0  0  0  0  0  0  0  0
   25.8393  -17.3574  -16.0256 C   0  0  2  0  0  0  0  0  0  0  0  0
   24.9646  -17.1782  -17.1650 N   0  0  0  0  0  0  0  0  0  0  0  0
   25.6238  -18.6808  -15.3547 C   0  0  0  0  0  0  0  0  0  0  0  0
   24.4370  -18.9470  -15.0525 O   0  0  0  0  0  0  0  0  0  0  0  0
   25.8367  -24.7212  -17.1724 N   0  0  0  0  0  0  0  0  0  0  0  0
   27.0120  -25.2776  -16.5676 C   0  0  0  0  0  0  0  0  0  0  0  0
   27.0394  -26.5137  -16.1446 N   0  0  0  0  0  0  0  0  0  0  0  0
   28.1973  -24.5276  -16.3968 N   0  0  0  0  0  0  0  0  0  0  0  0
   28.3033  -23.1965  -16.9570 C   0  0  0  0  0  0  0  0  0  0  0  0
   27.1931  -22.3211  -16.4077 C   0  0  0  0  0  0  0  0  0  0  0  0
   27.5026  -21.7664  -15.0648 C   0  0  0  0  0  0  0  0  0  0  0  0
   26.4999  -20.8587  -14.4482 C   0  0  2  0  0  0  0  0  0  0  0  0
   26.7039  -19.5485  -15.0914 N   0  0  0  0  0  0  0  0  0  0  0  0
   26.6467  -20.6213  -12.9966 C   0  0  0  0  0  0  0  0  0  0  0  0
   27.8024  -20.3871  -12.4794 O   0  0  0  0  0  0  0  0  0  0  0  0
   27.9081  -26.8176  -15.6658 C   0  0  0  0  0  0  0  0  0  0  0  0
   28.6206  -18.3562   -9.0603 S   0  0  0  0  0  0  0  0  0  0  0  0
   27.7049  -19.2358   -7.7404 C   0  0  0  0  0  0  0  0  0  0  0  0
   26.5987  -20.4213   -8.5934 C   0  0  0  0  0  0  0  0  0  0  0  0
   26.5660  -20.1481  -10.0578 C   0  0  1  0  0  0  0  0  0  0  0  0
   25.6796  -21.1157  -10.7751 N   0  0  0  0  0  0  0  0  0  0  0  0
   25.5076  -20.6496  -12.1739 C   0  0  0  0  0  0  0  0  0  0  0  0
   24.3623  -21.2997  -10.1587 O   0  0  0  0  0  0  0  0  0  0  0  0
   24.2339  -21.7020   -8.9945 O   0  0  0  0  0  0  0  0  0  0  0  0
  2  1  1  0
  3  2  1  0
  4  3  1  0
  5  4  1  0
  5  6  1  6
  7  8  2  0
  7  5  1  0
  9 10  1  0
 10 11  2  0
 12 10  1  0
 12 13  1  0
 13 14  1  0
 15 14  1  0
 16 15  1  6
 16 17  1  0
 17  7  1  0
 18 16  1  0
 18 19  2  0
 21 20  1  0
 22 23  1  0
 22 21  1  0
 24 25  1  0
 24 23  1  6
 25 18  1  0
 26 24  1  0
 27 26  2  0
 28 26  1  0
M  END
$$$$
