MRM.pdb
     RDKit          3D

 28 27  0  0  1  0  0  0  0  0999 V2000
   17.8061  -19.1411  -10.6576 C   0  0  0  0  0  0  0  0  0  0  0  0
   18.4195  -17.7433  -11.6611 S   0  0  0  0  0  0  0  0  0  0  0  0
   19.0783  -18.3884  -13.2454 C   0  0  0  0  0  0  0  0  0  0  0  0
   20.2628  -19.2324  -12.9059 C   0  0  0  0  0  0  0  0  0  0  0  0
   20.4595  -20.4384  -13.7621 C   0  0  2  0  0  0  0  0  0  0  0  0
   19.3140  -21.3231  -13.7879 N   0  0  0  0  0  0  0  0  0  0  0  0
   21.7313  -21.1747  -13.4654 C   0  0  0  0  0  0  0  0  0  0  0  0
   21.6767  -21.9861  -12.5119 O   0  0  0  0  0  0  0  0  0  0  0  0
   28.8397  -21.6598  -16.4503 N   0  0  0  0  0  0  0  0  0  0  0  0
   28.7997  -23.0764  -16.6697 C   0  0  0  0  0  0  0  0  0  0  0  0
   29.8860  -23.8016  -16.6331 N   0  0  0  0  0  0  0  0  0  0  0  0
   27.5934  -23.7629  -16.9352 N   0  0  0  0  0  0  0  0  0  0  0  0
   26.3322  -23.0516  -16.9172 C   0  0  0  0  0  0  0  0  0  0  0  0
   25.9238  -22.7717  -15.4835 C   0  0  0  0  0  0  0  0  0  0  0  0
   24.6088  -22.0886  -15.3778 C   0  0  0  0  0  0  0  0  0  0  0  0
   24.1191  -21.7471  -14.0166 C   0  0  2  0  0  0  0  0  0  0  0  0
   22.8982  -20.9481  -14.2243 N   0  0  0  0  0  0  0  0  0  0  0  0
   25.0163  -20.9049  -13.1975 C   0  0  0  0  0  0  0  0  0  0  0  0
   25.1433  -19.6465  -13.4388 O   0  0  0  0  0  0  0  0  0  0  0  0
   29.7632  -24.8226  -16.7703 C   0  0  0  0  0  0  0  0  0  0  0  0
   26.2818  -20.4854   -7.2262 S   0  0  0  0  0  0  0  0  0  0  0  0
   28.0546  -20.6685   -7.6479 C   0  0  0  0  0  0  0  0  0  0  0  0
   28.1678  -20.4656   -9.4652 C   0  0  0  0  0  0  0  0  0  0  0  0
   27.0773  -21.2188  -10.1462 C   0  0  1  0  0  0  0  0  0  0  0  0
   26.8190  -20.6854  -11.5192 N   0  0  0  0  0  0  0  0  0  0  0  0
   25.7362  -21.4883  -12.1408 C   0  0  0  0  0  0  0  0  0  0  0  0
   27.9918  -20.6875  -12.3988 O   0  0  0  0  0  0  0  0  0  0  0  0
   28.3134  -21.6842  -13.0598 O   0  0  0  0  0  0  0  0  0  0  0  0
  2  1  1  0
  3  2  1  0
  4  3  1  0
  5  4  1  0
  5  6  1  1
  7  8  2  0
  7  5  1  0
  9 10  1  0
 10 11  2  0
 12 10  1  0
 12 13  1  0
 13 14  1  0
 15 14  1  0
 16 15  1  6
 16 17  1  0
 17  7  1  0
 18 16  1  0
 18 19  2  0
 21 20  1  0
 22 23  1  0
 22 21  1  0
 24 25  1  0
 24 23  1  1
 25 18  1  0
 26 24  1  0
 27 26  2  0
 28 26  1  0
M  END
$$$$
