MRM.pdb
     RDKit          3D

 28 27  0  0  1  0  0  0  0  0999 V2000
   33.8077  -23.4568  -11.5850 C   0  0  0  0  0  0  0  0  0  0  0  0
   32.3817  -22.3657  -11.2491 S   0  0  0  0  0  0  0  0  0  0  0  0
   31.4906  -22.0460  -12.8188 C   0  0  0  0  0  0  0  0  0  0  0  0
   30.2498  -21.2949  -12.4627 C   0  0  0  0  0  0  0  0  0  0  0  0
   29.3255  -21.0053  -13.5977 C   0  0  2  0  0  0  0  0  0  0  0  0
   29.9395  -20.2429  -14.6641 N   0  0  0  0  0  0  0  0  0  0  0  0
   28.0200  -20.4108  -13.1618 C   0  0  0  0  0  0  0  0  0  0  0  0
   27.9415  -19.1625  -13.2392 O   0  0  0  0  0  0  0  0  0  0  0  0
   21.2060  -19.2737  -16.0899 N   0  0  0  0  0  0  0  0  0  0  0  0
   21.1476  -19.9481  -14.8257 C   0  0  0  0  0  0  0  0  0  0  0  0
   20.0728  -19.9108  -14.0835 N   0  0  0  0  0  0  0  0  0  0  0  0
   22.2395  -20.6857  -14.3152 N   0  0  0  0  0  0  0  0  0  0  0  0
   22.1351  -21.3449  -13.0301 C   0  0  0  0  0  0  0  0  0  0  0  0
   23.2789  -20.9056  -12.1360 C   0  0  0  0  0  0  0  0  0  0  0  0
   24.6129  -21.1168  -12.7549 C   0  0  0  0  0  0  0  0  0  0  0  0
   25.8041  -20.6562  -11.9946 C   0  0  2  0  0  0  0  0  0  0  0  0
   26.9671  -21.2263  -12.6977 N   0  0  0  0  0  0  0  0  0  0  0  0
   25.9056  -21.1316  -10.5986 C   0  0  0  0  0  0  0  0  0  0  0  0
   26.0275  -22.3861  -10.3355 O   0  0  0  0  0  0  0  0  0  0  0  0
   19.2420  -19.4485  -14.4988 C   0  0  0  0  0  0  0  0  0  0  0  0
   27.0753  -17.5859   -4.6191 S   0  0  0  0  0  0  0  0  0  0  0  0
   27.9944  -19.1279   -4.9820 C   0  0  0  0  0  0  0  0  0  0  0  0
   26.8416  -20.1967   -5.9229 C   0  0  0  0  0  0  0  0  0  0  0  0
   26.8633  -19.8451   -7.3707 C   0  0  1  0  0  0  0  0  0  0  0  0
   25.9444  -20.7218   -8.1603 N   0  0  0  0  0  0  0  0  0  0  0  0
   25.8708  -20.1991   -9.5476 C   0  0  0  0  0  0  0  0  0  0  0  0
   24.5903  -20.8298   -7.6091 O   0  0  0  0  0  0  0  0  0  0  0  0
   23.6386  -20.1918   -8.0791 O   0  0  0  0  0  0  0  0  0  0  0  0
  2  1  1  0
  3  2  1  0
  4  3  1  0
  5  4  1  0
  5  6  1  6
  7  8  2  0
  7  5  1  0
  9 10  1  0
 10 11  2  0
 12 10  1  0
 12 13  1  0
 13 14  1  0
 15 14  1  0
 16 15  1  6
 16 17  1  0
 17  7  1  0
 18 16  1  0
 18 19  2  0
 21 20  1  0
 22 23  1  0
 22 21  1  0
 24 25  1  0
 24 23  1  6
 25 18  1  0
 26 24  1  0
 27 26  2  0
 28 26  1  0
M  END
$$$$
