HEC.pdb
     RDKit          3D

 26 26  0  0  1  0  0  0  0  0999 V2000
    9.1725  -17.1939   16.9428 N   0  0  0  0  0  0  0  0  0  0  0  0
    9.4372  -16.1717   17.9116 C   0  0  1  0  0  0  0  0  0  0  0  0
    8.1791  -15.3689   18.1489 C   0  0  0  0  0  0  0  0  0  0  0  0
    7.8603  -14.6465   16.8932 C   0  0  0  0  0  0  0  0  0  0  0  0
    8.4556  -13.5034   16.4066 C   0  0  0  0  0  0  0  0  0  0  0  0
    7.8693  -13.1675   15.2237 N   0  0  0  0  0  0  0  0  0  0  0  0
    6.9147  -14.0986   14.9778 C   0  0  0  0  0  0  0  0  0  0  0  0
    6.9144  -14.9830   15.9833 N   0  0  0  0  0  0  0  0  0  0  0  0
    9.9967  -16.7289   19.1513 C   0  0  0  0  0  0  0  0  0  0  0  0
    9.2053  -17.3674   19.9165 O   0  0  0  0  0  0  0  0  0  0  0  0
   11.3491  -16.6017   19.5462 N   0  0  0  0  0  0  0  0  0  0  0  0
   11.8805  -17.2914   20.6774 C   0  0  1  0  0  0  0  0  0  0  0  0
   13.1668  -17.9981   20.4964 C   0  0  0  0  0  0  0  0  0  0  0  0
   13.7139  -18.8180   21.5864 C   0  0  0  0  0  0  0  0  0  0  0  0
   15.0355  -19.4338   21.3663 C   0  0  0  0  0  0  0  0  0  0  0  0
   15.8898  -19.5880   22.2667 O   0  0  0  0  0  0  0  0  0  0  0  0
   11.7980  -16.4816   21.9256 C   0  0  0  0  0  0  0  0  0  0  0  0
   12.2901  -15.3197   21.9976 O   0  0  0  0  0  0  0  0  0  0  0  0
   15.4276  -19.8992   20.0966 O   0  0  0  0  0  0  0  0  0  0  0  0
   11.1618  -16.9724   23.0977 N   0  0  0  0  0  0  0  0  0  0  0  0
   11.2303  -16.2426   24.3486 C   0  0  1  0  0  0  0  0  0  0  0  0
    9.8940  -15.5474   24.5417 C   0  0  0  0  0  0  0  0  0  0  0  0
    8.5125  -16.7138   24.4836 S   0  0  0  0  0  0  0  0  0  0  0  0
   11.3701  -17.2187   25.4469 C   0  0  0  0  0  0  0  0  0  0  0  0
   11.2279  -18.4374   25.2133 O   0  0  0  0  0  0  0  0  0  0  0  0
   11.6574  -16.8211   26.7437 O   0  0  0  0  0  0  0  0  0  0  0  0
  2  1  1  6
  2  3  1  0
  3  4  1  0
  4  8  1  0
  4  5  2  0
  5  6  1  0
  7  6  1  0
  8  7  2  0
  9 11  1  0
  9  2  1  0
 10  9  2  0
 12 11  1  0
 13 14  1  0
 12 13  1  6
 14 15  1  0
 15 19  1  0
 16 15  2  0
 17 12  1  0
 17 18  2  0
 20 17  1  0
 21 20  1  0
 21 22  1  1
 23 22  1  0
 24 21  1  0
 25 24  2  0
 26 24  1  0
M  END
$$$$
