HEC.pdb
     RDKit          3D

 26 26  0  0  1  0  0  0  0  0999 V2000
    7.1772  -17.3603   20.3310 N   0  0  0  0  0  0  0  0  0  0  0  0
    7.3547  -16.0865   20.9630 C   0  0  1  0  0  0  0  0  0  0  0  0
    6.5287  -15.0488   20.2387 C   0  0  0  0  0  0  0  0  0  0  0  0
    7.3458  -14.5225   19.1182 C   0  0  0  0  0  0  0  0  0  0  0  0
    8.6318  -14.8787   18.7757 C   0  0  0  0  0  0  0  0  0  0  0  0
    9.0146  -14.1602   17.6834 N   0  0  0  0  0  0  0  0  0  0  0  0
    7.9704  -13.3621   17.3501 C   0  0  0  0  0  0  0  0  0  0  0  0
    6.9724  -13.5842   18.2148 N   0  0  0  0  0  0  0  0  0  0  0  0
    7.0560  -16.1464   22.4010 C   0  0  0  0  0  0  0  0  0  0  0  0
    5.8728  -15.8536   22.7666 O   0  0  0  0  0  0  0  0  0  0  0  0
    7.9929  -16.5059   23.3980 N   0  0  0  0  0  0  0  0  0  0  0  0
    7.6513  -16.5525   24.7832 C   0  0  1  0  0  0  0  0  0  0  0  0
    7.5193  -17.8884   25.4032 C   0  0  0  0  0  0  0  0  0  0  0  0
    7.0133  -19.0185   24.6117 C   0  0  0  0  0  0  0  0  0  0  0  0
    6.8709  -20.3132   25.3030 C   0  0  0  0  0  0  0  0  0  0  0  0
    7.7675  -20.8284   26.0066 O   0  0  0  0  0  0  0  0  0  0  0  0
    8.4336  -15.5767   25.5935 C   0  0  0  0  0  0  0  0  0  0  0  0
    9.6623  -15.3707   25.3811 O   0  0  0  0  0  0  0  0  0  0  0  0
    5.6864  -21.0688   25.2122 O   0  0  0  0  0  0  0  0  0  0  0  0
    7.8394  -14.8274   26.6447 N   0  0  0  0  0  0  0  0  0  0  0  0
    8.5987  -13.8334   27.3777 C   0  0  1  0  0  0  0  0  0  0  0  0
    7.6015  -12.8998   28.0414 C   0  0  0  0  0  0  0  0  0  0  0  0
    6.4341  -12.2020   26.8486 S   0  0  0  0  0  0  0  0  0  0  0  0
    9.3334  -14.5175   28.4597 C   0  0  0  0  0  0  0  0  0  0  0  0
   10.0359  -13.8507   29.2482 O   0  0  0  0  0  0  0  0  0  0  0  0
    9.2675  -15.8919   28.6302 O   0  0  0  0  0  0  0  0  0  0  0  0
  2  1  1  6
  2  3  1  0
  3  4  1  0
  4  8  1  0
  4  5  2  0
  5  6  1  0
  7  6  1  0
  8  7  2  0
  9 11  1  0
  9  2  1  0
 10  9  2  0
 12 11  1  0
 13 14  1  0
 12 13  1  1
 14 15  1  0
 15 19  1  0
 16 15  2  0
 17 12  1  0
 17 18  2  0
 20 17  1  0
 21 20  1  0
 21 22  1  1
 23 22  1  0
 24 21  1  0
 25 24  2  0
 26 24  1  0
M  END
$$$$
