HEC.pdb
     RDKit          3D

 26 26  0  0  1  0  0  0  0  0999 V2000
    8.7112  -16.6892   19.8305 N   0  0  0  0  0  0  0  0  0  0  0  0
    8.7103  -15.5764   20.7334 C   0  0  1  0  0  0  0  0  0  0  0  0
    7.5348  -14.6795   20.4216 C   0  0  0  0  0  0  0  0  0  0  0  0
    7.7632  -14.0843   19.0822 C   0  0  0  0  0  0  0  0  0  0  0  0
    8.4558  -12.9321   18.7812 C   0  0  0  0  0  0  0  0  0  0  0  0
    8.4306  -12.7393   17.4329 N   0  0  0  0  0  0  0  0  0  0  0  0
    7.7257  -13.7678   16.9002 C   0  0  0  0  0  0  0  0  0  0  0  0
    7.3280  -14.5711   17.8949 N   0  0  0  0  0  0  0  0  0  0  0  0
    8.7332  -16.0143   22.1363 C   0  0  0  0  0  0  0  0  0  0  0  0
    7.7747  -16.7495   22.5366 O   0  0  0  0  0  0  0  0  0  0  0  0
    9.7450  -15.6731   23.0642 N   0  0  0  0  0  0  0  0  0  0  0  0
    9.8755  -16.3297   24.3249 C   0  0  1  0  0  0  0  0  0  0  0  0
   10.7579  -17.5149   24.3826 C   0  0  0  0  0  0  0  0  0  0  0  0
   10.9147  -18.2529   25.6437 C   0  0  0  0  0  0  0  0  0  0  0  0
   11.8739  -19.3729   25.6524 C   0  0  0  0  0  0  0  0  0  0  0  0
   11.5389  -20.5762   25.5874 O   0  0  0  0  0  0  0  0  0  0  0  0
   10.0675  -15.3690   25.4477 C   0  0  0  0  0  0  0  0  0  0  0  0
   11.1342  -14.7038   25.5780 O   0  0  0  0  0  0  0  0  0  0  0  0
   13.2618  -19.1518   25.7360 O   0  0  0  0  0  0  0  0  0  0  0  0
    9.0623  -15.1501   26.4281 N   0  0  0  0  0  0  0  0  0  0  0  0
    9.2542  -14.1882   27.4957 C   0  0  1  0  0  0  0  0  0  0  0  0
    7.8922  -13.6070   27.8326 C   0  0  0  0  0  0  0  0  0  0  0  0
    7.1119  -12.8390   26.3925 S   0  0  0  0  0  0  0  0  0  0  0  0
    9.7207  -14.9133   28.6937 C   0  0  0  0  0  0  0  0  0  0  0  0
    9.7793  -16.1607   28.6781 O   0  0  0  0  0  0  0  0  0  0  0  0
   10.1002  -14.2459   29.8483 O   0  0  0  0  0  0  0  0  0  0  0  0
  2  1  1  6
  2  3  1  0
  3  4  1  0
  4  8  1  0
  4  5  2  0
  5  6  1  0
  7  6  1  0
  8  7  2  0
  9 11  1  0
  9  2  1  0
 10  9  2  0
 12 11  1  0
 13 14  1  0
 12 13  1  6
 14 15  1  0
 15 19  1  0
 16 15  2  0
 17 12  1  0
 17 18  2  0
 20 17  1  0
 21 20  1  0
 21 22  1  1
 23 22  1  0
 24 21  1  0
 25 24  2  0
 26 24  1  0
M  END
$$$$
