HEC.pdb
     RDKit          3D

 26 26  0  0  1  0  0  0  0  0999 V2000
    7.5223  -16.6746   18.0848 N   0  0  0  0  0  0  0  0  0  0  0  0
    8.5627  -15.9306   18.7311 C   0  0  1  0  0  0  0  0  0  0  0  0
    8.2300  -14.4574   18.6809 C   0  0  0  0  0  0  0  0  0  0  0  0
    8.1296  -14.0651   17.2539 C   0  0  0  0  0  0  0  0  0  0  0  0
    7.1049  -13.3781   16.6409 C   0  0  0  0  0  0  0  0  0  0  0  0
    7.4037  -13.2214   15.3210 N   0  0  0  0  0  0  0  0  0  0  0  0
    8.6086  -13.8086   15.1167 C   0  0  0  0  0  0  0  0  0  0  0  0
    9.0387  -14.3129   16.2801 N   0  0  0  0  0  0  0  0  0  0  0  0
    8.8057  -16.4108   20.0989 C   0  0  0  0  0  0  0  0  0  0  0  0
    7.7888  -16.6871   20.8124 O   0  0  0  0  0  0  0  0  0  0  0  0
   10.0884  -16.5843   20.6695 N   0  0  0  0  0  0  0  0  0  0  0  0
   10.2765  -17.1709   21.9572 C   0  0  1  0  0  0  0  0  0  0  0  0
   11.3636  -18.1635   22.0965 C   0  0  0  0  0  0  0  0  0  0  0  0
   12.6734  -17.9093   21.4804 C   0  0  0  0  0  0  0  0  0  0  0  0
   13.6953  -18.9640   21.6142 C   0  0  0  0  0  0  0  0  0  0  0  0
   14.1454  -19.6227   20.6509 O   0  0  0  0  0  0  0  0  0  0  0  0
   10.2249  -16.1624   23.0529 C   0  0  0  0  0  0  0  0  0  0  0  0
   10.9422  -15.1219   23.0326 O   0  0  0  0  0  0  0  0  0  0  0  0
   14.2425  -19.3031   22.8663 O   0  0  0  0  0  0  0  0  0  0  0  0
    9.3673  -16.3171   24.1754 N   0  0  0  0  0  0  0  0  0  0  0  0
    9.3704  -15.3537   25.2588 C   0  0  1  0  0  0  0  0  0  0  0  0
    7.9356  -14.9027   25.4687 C   0  0  0  0  0  0  0  0  0  0  0  0
    7.3703  -13.8126   24.1404 S   0  0  0  0  0  0  0  0  0  0  0  0
    9.7884  -16.0468   26.4932 C   0  0  0  0  0  0  0  0  0  0  0  0
    9.9836  -17.2802   26.4743 O   0  0  0  0  0  0  0  0  0  0  0  0
    9.9732  -15.3642   27.6858 O   0  0  0  0  0  0  0  0  0  0  0  0
  2  1  1  1
  2  3  1  0
  3  4  1  0
  4  8  1  0
  4  5  2  0
  5  6  1  0
  7  6  1  0
  8  7  2  0
  9 11  1  0
  9  2  1  0
 10  9  2  0
 12 11  1  0
 13 14  1  0
 12 13  1  6
 14 15  1  0
 15 19  1  0
 16 15  2  0
 17 12  1  0
 17 18  2  0
 20 17  1  0
 21 20  1  0
 21 22  1  1
 23 22  1  0
 24 21  1  0
 25 24  2  0
 26 24  1  0
M  END
$$$$
