HEC.pdb
     RDKit          3D

 26 26  0  0  1  0  0  0  0  0999 V2000
    9.0621  -16.8556   18.0776 N   0  0  0  0  0  0  0  0  0  0  0  0
    9.0177  -15.9256   19.1669 C   0  0  1  0  0  0  0  0  0  0  0  0
    7.7095  -15.1701   19.1273 C   0  0  0  0  0  0  0  0  0  0  0  0
    7.6745  -14.3929   17.8644 C   0  0  0  0  0  0  0  0  0  0  0  0
    8.3397  -13.2204   17.5802 C   0  0  0  0  0  0  0  0  0  0  0  0
    8.0367  -12.8360   16.3088 N   0  0  0  0  0  0  0  0  0  0  0  0
    7.1876  -13.7664   15.8069 C   0  0  0  0  0  0  0  0  0  0  0  0
    6.9743  -14.6976   16.7452 N   0  0  0  0  0  0  0  0  0  0  0  0
    9.2510  -16.5884   20.4579 C   0  0  0  0  0  0  0  0  0  0  0  0
    8.4628  -17.5332   20.7826 O   0  0  0  0  0  0  0  0  0  0  0  0
   10.2881  -16.2458   21.3569 N   0  0  0  0  0  0  0  0  0  0  0  0
   10.5609  -17.0090   22.5319 C   0  0  1  0  0  0  0  0  0  0  0  0
   11.7463  -17.8926   22.5051 C   0  0  0  0  0  0  0  0  0  0  0  0
   12.1031  -18.6788   23.6943 C   0  0  0  0  0  0  0  0  0  0  0  0
   13.3433  -19.4737   23.6275 C   0  0  0  0  0  0  0  0  0  0  0  0
   13.3780  -20.7193   23.7361 O   0  0  0  0  0  0  0  0  0  0  0  0
   10.4285  -16.2007   23.7767 C   0  0  0  0  0  0  0  0  0  0  0  0
   11.2407  -15.2736   24.0564 O   0  0  0  0  0  0  0  0  0  0  0  0
   14.5974  -18.8646   23.4315 O   0  0  0  0  0  0  0  0  0  0  0  0
    9.3833  -16.4290   24.7121 N   0  0  0  0  0  0  0  0  0  0  0  0
    9.3525  -15.7354   25.9849 C   0  0  1  0  0  0  0  0  0  0  0  0
    7.9055  -15.3723   26.2685 C   0  0  0  0  0  0  0  0  0  0  0  0
    7.3240  -14.0342   25.1991 S   0  0  0  0  0  0  0  0  0  0  0  0
    9.7730  -16.6810   27.0374 C   0  0  0  0  0  0  0  0  0  0  0  0
   10.0069  -17.8717   26.7419 O   0  0  0  0  0  0  0  0  0  0  0  0
    9.9181  -16.2845   28.3581 O   0  0  0  0  0  0  0  0  0  0  0  0
  2  1  1  6
  2  3  1  0
  3  4  1  0
  4  8  1  0
  4  5  2  0
  5  6  1  0
  7  6  1  0
  8  7  2  0
  9 11  1  0
  9  2  1  0
 10  9  2  0
 12 11  1  0
 13 14  1  0
 12 13  1  6
 14 15  1  0
 15 19  1  0
 16 15  2  0
 17 12  1  0
 17 18  2  0
 20 17  1  0
 21 20  1  0
 21 22  1  1
 23 22  1  0
 24 21  1  0
 25 24  2  0
 26 24  1  0
M  END
$$$$
