HEC.pdb
     RDKit          3D

 26 26  0  0  1  0  0  0  0  0999 V2000
    9.6098  -15.5432   19.3995 N   0  0  0  0  0  0  0  0  0  0  0  0
    8.5735  -14.8036   20.0573 C   0  0  1  0  0  0  0  0  0  0  0  0
    7.2946  -14.9163   19.2602 C   0  0  0  0  0  0  0  0  0  0  0  0
    7.5971  -14.5221   17.8626 C   0  0  0  0  0  0  0  0  0  0  0  0
    7.9756  -13.2798   17.4026 C   0  0  0  0  0  0  0  0  0  0  0  0
    8.1569  -13.3430   16.0539 N   0  0  0  0  0  0  0  0  0  0  0  0
    7.8922  -14.6190   15.6793 C   0  0  0  0  0  0  0  0  0  0  0  0
    7.5568  -15.3212   16.7691 N   0  0  0  0  0  0  0  0  0  0  0  0
    8.4089  -15.2244   21.4560 C   0  0  0  0  0  0  0  0  0  0  0  0
    7.3939  -14.7842   22.0850 O   0  0  0  0  0  0  0  0  0  0  0  0
    9.3001  -16.0811   22.1436 N   0  0  0  0  0  0  0  0  0  0  0  0
    9.1804  -16.3412   23.5421 C   0  0  1  0  0  0  0  0  0  0  0  0
   10.0749  -17.3680   24.1185 C   0  0  0  0  0  0  0  0  0  0  0  0
   10.0530  -17.6332   25.5638 C   0  0  0  0  0  0  0  0  0  0  0  0
    9.4307  -18.8946   26.0065 C   0  0  0  0  0  0  0  0  0  0  0  0
    8.7543  -19.0070   27.0526 O   0  0  0  0  0  0  0  0  0  0  0  0
    9.0876  -15.0899   24.3459 C   0  0  0  0  0  0  0  0  0  0  0  0
   10.0394  -14.2598   24.3954 O   0  0  0  0  0  0  0  0  0  0  0  0
    9.5618  -20.0810   25.2597 O   0  0  0  0  0  0  0  0  0  0  0  0
    7.9255  -14.7648   25.0965 N   0  0  0  0  0  0  0  0  0  0  0  0
    7.8729  -13.5693   25.9151 C   0  0  1  0  0  0  0  0  0  0  0  0
    6.4278  -13.1032   25.9444 C   0  0  0  0  0  0  0  0  0  0  0  0
    6.2044  -11.6672   27.0217 S   0  0  0  0  0  0  0  0  0  0  0  0
    8.2337  -13.9390   27.2978 C   0  0  0  0  0  0  0  0  0  0  0  0
    8.2221  -15.1401   27.6401 O   0  0  0  0  0  0  0  0  0  0  0  0
    8.5891  -12.9846   28.2386 O   0  0  0  0  0  0  0  0  0  0  0  0
  2  1  1  6
  2  3  1  0
  3  4  1  0
  4  8  1  0
  4  5  2  0
  5  6  1  0
  7  6  1  0
  8  7  2  0
  9 11  1  0
  9  2  1  0
 10  9  2  0
 12 11  1  0
 13 14  1  0
 12 13  1  1
 14 15  1  0
 15 19  1  0
 16 15  2  0
 17 12  1  0
 17 18  2  0
 20 17  1  0
 21 20  1  0
 21 22  1  1
 23 22  1  0
 24 21  1  0
 25 24  2  0
 26 24  1  0
M  END
$$$$
