HEC.pdb
     RDKit          3D

 26 26  0  0  1  0  0  0  0  0999 V2000
    9.3433  -15.8656   19.5023 N   0  0  0  0  0  0  0  0  0  0  0  0
    8.4273  -14.9715   20.1465 C   0  0  1  0  0  0  0  0  0  0  0  0
    7.1308  -14.9382   19.3708 C   0  0  0  0  0  0  0  0  0  0  0  0
    7.4538  -14.5906   17.9655 C   0  0  0  0  0  0  0  0  0  0  0  0
    8.0145  -13.4232   17.4957 C   0  0  0  0  0  0  0  0  0  0  0  0
    8.1456  -13.5078   16.1424 N   0  0  0  0  0  0  0  0  0  0  0  0
    7.6686  -14.7225   15.7747 C   0  0  0  0  0  0  0  0  0  0  0  0
    7.2549  -15.3672   16.8730 N   0  0  0  0  0  0  0  0  0  0  0  0
    8.2329  -15.3184   21.5615 C   0  0  0  0  0  0  0  0  0  0  0  0
    7.1760  -14.8940   22.1292 O   0  0  0  0  0  0  0  0  0  0  0  0
    9.1389  -16.0883   22.3280 N   0  0  0  0  0  0  0  0  0  0  0  0
    8.9558  -16.3120   23.7259 C   0  0  1  0  0  0  0  0  0  0  0  0
    9.7400  -17.4019   24.3453 C   0  0  0  0  0  0  0  0  0  0  0  0
    9.6597  -17.6324   25.7944 C   0  0  0  0  0  0  0  0  0  0  0  0
   10.5552  -18.6567   26.3630 C   0  0  0  0  0  0  0  0  0  0  0  0
   10.5448  -19.8588   26.0179 O   0  0  0  0  0  0  0  0  0  0  0  0
    8.9488  -15.0432   24.5072 C   0  0  0  0  0  0  0  0  0  0  0  0
    9.9698  -14.3018   24.5798 O   0  0  0  0  0  0  0  0  0  0  0  0
   11.5023  -18.3368   27.3544 O   0  0  0  0  0  0  0  0  0  0  0  0
    7.7952  -14.6008   25.2094 N   0  0  0  0  0  0  0  0  0  0  0  0
    7.8140  -13.3755   25.9841 C   0  0  1  0  0  0  0  0  0  0  0  0
    6.3793  -12.8918   26.1026 C   0  0  0  0  0  0  0  0  0  0  0  0
    6.2311  -11.4930   27.2400 S   0  0  0  0  0  0  0  0  0  0  0  0
    8.2733  -13.6981   27.3493 C   0  0  0  0  0  0  0  0  0  0  0  0
    8.1704  -14.8672   27.7765 O   0  0  0  0  0  0  0  0  0  0  0  0
    8.8212  -12.7337   28.1813 O   0  0  0  0  0  0  0  0  0  0  0  0
  2  1  1  6
  2  3  1  0
  3  4  1  0
  4  8  1  0
  4  5  2  0
  5  6  1  0
  7  6  1  0
  8  7  2  0
  9 11  1  0
  9  2  1  0
 10  9  2  0
 12 11  1  0
 13 14  1  0
 12 13  1  1
 14 15  1  0
 15 19  1  0
 16 15  2  0
 17 12  1  0
 17 18  2  0
 20 17  1  0
 21 20  1  0
 21 22  1  1
 23 22  1  0
 24 21  1  0
 25 24  2  0
 26 24  1  0
M  END
$$$$
