WVN.pdb
     RDKit          3D

 30 31  0  0  1  0  0  0  0  0999 V2000
    6.6648  -16.6369   24.5379 N   0  0  0  0  0  0  0  0  0  0  0  0
    7.3786  -15.4955   24.0781 C   0  0  1  0  0  0  0  0  0  0  0  0
    8.6349  -15.3466   24.9300 C   0  0  0  0  0  0  0  0  0  0  0  0
    8.3749  -14.5853   26.1790 C   0  0  0  0  0  0  0  0  0  0  0  0
    8.6508  -14.9882   27.4691 C   0  0  0  0  0  0  0  0  0  0  0  0
    8.2347  -14.0429   28.3405 N   0  0  0  0  0  0  0  0  0  0  0  0
    7.6879  -13.0209   27.6395 C   0  0  0  0  0  0  0  0  0  0  0  0
    7.1398  -11.8432   28.0917 C   0  0  0  0  0  0  0  0  0  0  0  0
    6.6432  -10.9292   27.1780 C   0  0  0  0  0  0  0  0  0  0  0  0
    6.7171  -11.2346   25.8420 C   0  0  0  0  0  0  0  0  0  0  0  0
    7.2731  -12.4302   25.3804 C   0  0  0  0  0  0  0  0  0  0  0  0
    7.7706  -13.3497   26.2801 C   0  0  0  0  0  0  0  0  0  0  0  0
    7.7243  -15.6108   22.6400 C   0  0  0  0  0  0  0  0  0  0  0  0
    7.6208  -16.7407   22.0949 O   0  0  0  0  0  0  0  0  0  0  0  0
    8.5628  -13.3685   18.3314 C   0  0  0  0  0  0  0  0  0  0  0  0
    8.3736  -13.3064   19.8052 C   0  0  1  0  0  0  0  0  0  0  0  0
    7.1033  -12.6404   20.2518 C   0  0  0  0  0  0  0  0  0  0  0  0
    8.4902  -14.6763   20.4740 C   0  0  2  0  0  0  0  0  0  0  0  0
    8.1619  -14.5044   21.8624 N   0  0  0  0  0  0  0  0  0  0  0  0
    9.7746  -15.3131   20.1991 C   0  0  0  0  0  0  0  0  0  0  0  0
   10.0347  -15.7907   19.0482 O   0  0  0  0  0  0  0  0  0  0  0  0
   13.5938  -15.6559   18.2980 N   0  0  0  0  0  0  0  0  0  0  0  0
   13.4856  -14.8558   19.4595 C   0  0  0  0  0  0  0  0  0  0  0  0
   13.6252  -13.5932   19.2457 O   0  0  0  0  0  0  0  0  0  0  0  0
   13.2332  -15.3378   20.8293 C   0  0  0  0  0  0  0  0  0  0  0  0
   12.0120  -16.2109   20.8393 C   0  0  2  0  0  0  0  0  0  0  0  0
   10.8133  -15.4491   21.1555 N   0  0  0  0  0  0  0  0  0  0  0  0
   12.1736  -17.2306   21.8918 C   0  0  0  0  0  0  0  0  0  0  0  0
   13.1957  -18.1484   21.8228 O   0  0  0  0  0  0  0  0  0  0  0  0
   11.4099  -17.3107   22.8733 O   0  0  0  0  0  0  0  0  0  0  0  0
  2  1  1  1
  2  3  1  0
  3  4  1  0
  4 12  1  0
  4  5  2  0
  5  6  1  0
  7  8  2  0
  7  6  1  0
  9  8  1  0
 10  9  2  0
 11 10  1  0
 11 12  2  0
 12  7  1  0
 13  2  1  0
 13 14  2  0
 16 15  1  6
 16 17  1  0
 16 18  1  0
 18 19  1  1
 19 13  1  0
 20 18  1  0
 21 20  2  0
 23 24  2  0
 23 22  1  0
 25 23  1  0
 26 27  1  0
 26 25  1  1
 27 20  1  0
 28 26  1  0
 29 28  1  0
 30 28  2  0
M  END
$$$$
