WVN.pdb
     RDKit          3D

 30 31  0  0  1  0  0  0  0  0999 V2000
    4.5366  -19.0421   23.3150 N   0  0  0  0  0  0  0  0  0  0  0  0
    5.6042  -18.6311   24.1606 C   0  0  1  0  0  0  0  0  0  0  0  0
    6.6941  -19.6963   24.1005 C   0  0  0  0  0  0  0  0  0  0  0  0
    6.5776  -20.6768   25.2106 C   0  0  0  0  0  0  0  0  0  0  0  0
    6.0554  -21.9516   25.1404 C   0  0  0  0  0  0  0  0  0  0  0  0
    6.0835  -22.5235   26.3645 N   0  0  0  0  0  0  0  0  0  0  0  0
    6.6188  -21.6402   27.2410 C   0  0  0  0  0  0  0  0  0  0  0  0
    6.8535  -21.7774   28.5893 C   0  0  0  0  0  0  0  0  0  0  0  0
    7.4266  -20.7297   29.2899 C   0  0  0  0  0  0  0  0  0  0  0  0
    7.7428  -19.5821   28.6067 C   0  0  0  0  0  0  0  0  0  0  0  0
    7.5050  -19.4404   27.2373 C   0  0  0  0  0  0  0  0  0  0  0  0
    6.9338  -20.4761   26.5278 C   0  0  0  0  0  0  0  0  0  0  0  0
    6.1369  -17.3052   23.7616 C   0  0  0  0  0  0  0  0  0  0  0  0
    6.3076  -17.0803   22.5349 O   0  0  0  0  0  0  0  0  0  0  0  0
    8.3013  -13.0888   25.2379 C   0  0  0  0  0  0  0  0  0  0  0  0
    7.2896  -14.1647   25.4133 C   0  0  1  0  0  0  0  0  0  0  0  0
    5.8634  -13.6935   25.4355 C   0  0  0  0  0  0  0  0  0  0  0  0
    7.4369  -15.2873   24.3858 C   0  0  2  0  0  0  0  0  0  0  0  0
    6.4568  -16.2892   24.7028 N   0  0  0  0  0  0  0  0  0  0  0  0
    8.8148  -15.7573   24.2810 C   0  0  0  0  0  0  0  0  0  0  0  0
    9.2851  -16.5956   25.1156 O   0  0  0  0  0  0  0  0  0  0  0  0
   13.2326  -17.5373   21.2926 N   0  0  0  0  0  0  0  0  0  0  0  0
   13.0180  -16.2218   21.7664 C   0  0  0  0  0  0  0  0  0  0  0  0
   14.0929  -15.6059   22.1192 O   0  0  0  0  0  0  0  0  0  0  0  0
   11.7177  -15.5367   21.8769 C   0  0  0  0  0  0  0  0  0  0  0  0
   11.0030  -16.0079   23.1102 C   0  0  2  0  0  0  0  0  0  0  0  0
    9.7209  -15.3393   23.2729 N   0  0  0  0  0  0  0  0  0  0  0  0
   11.8256  -15.6705   24.2862 C   0  0  0  0  0  0  0  0  0  0  0  0
   12.7071  -16.5886   24.8075 O   0  0  0  0  0  0  0  0  0  0  0  0
   11.7645  -14.5629   24.8541 O   0  0  0  0  0  0  0  0  0  0  0  0
  2  1  1  6
  2  3  1  0
  3  4  1  0
  4 12  1  0
  4  5  2  0
  5  6  1  0
  7  8  2  0
  7  6  1  0
  9  8  1  0
 10  9  2  0
 11 10  1  0
 11 12  2  0
 12  7  1  0
 13  2  1  0
 13 14  2  0
 16 15  1  6
 16 17  1  0
 16 18  1  0
 18 19  1  1
 19 13  1  0
 20 18  1  0
 21 20  2  0
 23 24  2  0
 23 22  1  0
 25 23  1  0
 26 27  1  0
 26 25  1  6
 27 20  1  0
 28 26  1  0
 29 28  1  0
 30 28  2  0
M  END
$$$$
