WVN.pdb
     RDKit          3D

 30 31  0  0  1  0  0  0  0  0999 V2000
    6.2852  -17.6303   24.8481 N   0  0  0  0  0  0  0  0  0  0  0  0
    6.8029  -16.3563   24.4837 C   0  0  1  0  0  0  0  0  0  0  0  0
    7.7613  -15.9025   25.5799 C   0  0  0  0  0  0  0  0  0  0  0  0
    7.1153  -14.9619   26.5313 C   0  0  0  0  0  0  0  0  0  0  0  0
    6.3831  -15.2893   27.6535 C   0  0  0  0  0  0  0  0  0  0  0  0
    5.9232  -14.1630   28.2421 N   0  0  0  0  0  0  0  0  0  0  0  0
    6.3444  -13.0967   27.5207 C   0  0  0  0  0  0  0  0  0  0  0  0
    6.1308  -11.7549   27.7350 C   0  0  0  0  0  0  0  0  0  0  0  0
    6.6743  -10.8312   26.8585 C   0  0  0  0  0  0  0  0  0  0  0  0
    7.4135  -11.2927   25.7982 C   0  0  0  0  0  0  0  0  0  0  0  0
    7.6314  -12.6550   25.5783 C   0  0  0  0  0  0  0  0  0  0  0  0
    7.0949  -13.5857   26.4434 C   0  0  0  0  0  0  0  0  0  0  0  0
    7.4863  -16.4010   23.1677 C   0  0  0  0  0  0  0  0  0  0  0  0
    8.0202  -17.4848   22.8143 O   0  0  0  0  0  0  0  0  0  0  0  0
    8.8801  -13.9595   19.0666 C   0  0  0  0  0  0  0  0  0  0  0  0
    8.1210  -14.0245   20.3437 C   0  0  1  0  0  0  0  0  0  0  0  0
    6.6511  -13.7400   20.2204 C   0  0  0  0  0  0  0  0  0  0  0  0
    8.3212  -15.3475   21.0833 C   0  0  2  0  0  0  0  0  0  0  0  0
    7.5587  -15.2781   22.2993 N   0  0  0  0  0  0  0  0  0  0  0  0
    9.7339  -15.6811   21.2376 C   0  0  0  0  0  0  0  0  0  0  0  0
   10.4414  -15.1290   22.1403 O   0  0  0  0  0  0  0  0  0  0  0  0
   14.3012  -18.2496   21.1440 N   0  0  0  0  0  0  0  0  0  0  0  0
   13.1376  -19.0531   21.1819 C   0  0  0  0  0  0  0  0  0  0  0  0
   13.3659  -20.3031   21.3932 O   0  0  0  0  0  0  0  0  0  0  0  0
   11.7502  -18.5863   21.0093 C   0  0  0  0  0  0  0  0  0  0  0  0
   11.7405  -17.0988   20.8070 C   0  0  2  0  0  0  0  0  0  0  0  0
   10.4203  -16.6202   20.4258 N   0  0  0  0  0  0  0  0  0  0  0  0
   12.6614  -16.7699   19.7036 C   0  0  0  0  0  0  0  0  0  0  0  0
   12.1752  -16.5065   18.4443 O   0  0  0  0  0  0  0  0  0  0  0  0
   13.8974  -16.7162   19.8529 O   0  0  0  0  0  0  0  0  0  0  0  0
  2  1  1  1
  2  3  1  0
  3  4  1  0
  4 12  1  0
  4  5  2  0
  5  6  1  0
  7  8  2  0
  7  6  1  0
  9  8  1  0
 10  9  2  0
 11 10  1  0
 11 12  2  0
 12  7  1  0
 13  2  1  0
 13 14  2  0
 16 15  1  6
 16 17  1  0
 16 18  1  0
 18 19  1  1
 19 13  1  0
 20 18  1  0
 21 20  2  0
 23 24  2  0
 23 22  1  0
 25 23  1  0
 26 27  1  0
 26 25  1  6
 27 20  1  0
 28 26  1  0
 29 28  1  0
 30 28  2  0
M  END
$$$$
