WVN.pdb
     RDKit          3D

 30 31  0  0  1  0  0  0  0  0999 V2000
    6.3354  -17.7208   24.7225 N   0  0  0  0  0  0  0  0  0  0  0  0
    6.7338  -16.4017   24.3687 C   0  0  1  0  0  0  0  0  0  0  0  0
    7.4463  -15.7838   25.5673 C   0  0  0  0  0  0  0  0  0  0  0  0
    6.6276  -14.7300   26.2204 C   0  0  0  0  0  0  0  0  0  0  0  0
    5.4081  -14.8938   26.8438 C   0  0  0  0  0  0  0  0  0  0  0  0
    4.9556  -13.6979   27.2812 N   0  0  0  0  0  0  0  0  0  0  0  0
    5.8633  -12.7474   26.9535 C   0  0  0  0  0  0  0  0  0  0  0  0
    5.8401  -11.3936   27.1958 C   0  0  0  0  0  0  0  0  0  0  0  0
    6.8980  -10.6083   26.7705 C   0  0  0  0  0  0  0  0  0  0  0  0
    7.9411  -11.2153   26.1169 C   0  0  0  0  0  0  0  0  0  0  0  0
    7.9668  -12.5900   25.8694 C   0  0  0  0  0  0  0  0  0  0  0  0
    6.9188  -13.3835   26.2870 C   0  0  0  0  0  0  0  0  0  0  0  0
    7.6107  -16.3990   23.1721 C   0  0  0  0  0  0  0  0  0  0  0  0
    8.2713  -17.4403   22.9197 O   0  0  0  0  0  0  0  0  0  0  0  0
    9.2008  -13.9880   19.1283 C   0  0  0  0  0  0  0  0  0  0  0  0
    8.3875  -14.0385   20.3723 C   0  0  1  0  0  0  0  0  0  0  0  0
    6.9162  -13.8084   20.1752 C   0  0  0  0  0  0  0  0  0  0  0  0
    8.5973  -15.3300   21.1632 C   0  0  2  0  0  0  0  0  0  0  0  0
    7.7303  -15.2768   22.3079 N   0  0  0  0  0  0  0  0  0  0  0  0
   10.0079  -15.5770   21.4457 C   0  0  0  0  0  0  0  0  0  0  0  0
   10.6690  -14.7978   22.2047 O   0  0  0  0  0  0  0  0  0  0  0  0
   10.9735  -19.6948   22.7397 N   0  0  0  0  0  0  0  0  0  0  0  0
   12.0516  -18.7904   22.5951 C   0  0  0  0  0  0  0  0  0  0  0  0
   12.6026  -18.4439   23.7067 O   0  0  0  0  0  0  0  0  0  0  0  0
   12.5676  -18.2453   21.3267 C   0  0  0  0  0  0  0  0  0  0  0  0
   12.1646  -16.8050   21.1962 C   0  0  2  0  0  0  0  0  0  0  0  0
   10.7422  -16.6712   20.9206 N   0  0  0  0  0  0  0  0  0  0  0  0
   12.8894  -16.2172   20.0548 C   0  0  0  0  0  0  0  0  0  0  0  0
   12.4046  -16.3549   18.7750 O   0  0  0  0  0  0  0  0  0  0  0  0
   13.9529  -15.5818   20.1889 O   0  0  0  0  0  0  0  0  0  0  0  0
  2  1  1  1
  2  3  1  0
  3  4  1  0
  4 12  1  0
  4  5  2  0
  5  6  1  0
  7  8  2  0
  7  6  1  0
  9  8  1  0
 10  9  2  0
 11 10  1  0
 11 12  2  0
 12  7  1  0
 13  2  1  0
 13 14  2  0
 16 15  1  6
 16 17  1  0
 16 18  1  0
 18 19  1  1
 19 13  1  0
 20 18  1  0
 21 20  2  0
 23 24  2  0
 23 22  1  0
 25 23  1  0
 26 27  1  0
 26 25  1  6
 27 20  1  0
 28 26  1  0
 29 28  1  0
 30 28  2  0
M  END
$$$$
