WVN.pdb
     RDKit          3D

 30 31  0  0  1  0  0  0  0  0999 V2000
    6.8322  -17.1345   25.4489 N   0  0  0  0  0  0  0  0  0  0  0  0
    7.3373  -15.9167   24.9144 C   0  0  1  0  0  0  0  0  0  0  0  0
    8.5287  -15.4842   25.7628 C   0  0  0  0  0  0  0  0  0  0  0  0
    8.1257  -14.5798   26.8705 C   0  0  0  0  0  0  0  0  0  0  0  0
    8.4011  -14.7380   28.2128 C   0  0  0  0  0  0  0  0  0  0  0  0
    7.8344  -13.7326   28.9158 N   0  0  0  0  0  0  0  0  0  0  0  0
    7.1886  -12.9130   28.0519 C   0  0  0  0  0  0  0  0  0  0  0  0
    6.4774  -11.7625   28.3018 C   0  0  0  0  0  0  0  0  0  0  0  0
    5.9034  -11.0749   27.2461 C   0  0  0  0  0  0  0  0  0  0  0  0
    6.0670  -11.5711   25.9769 C   0  0  0  0  0  0  0  0  0  0  0  0
    6.7887  -12.7395   25.7207 C   0  0  0  0  0  0  0  0  0  0  0  0
    7.3648  -13.4345   26.7635 C   0  0  0  0  0  0  0  0  0  0  0  0
    7.7269  -16.0656   23.4907 C   0  0  0  0  0  0  0  0  0  0  0  0
    7.8089  -17.2293   23.0179 O   0  0  0  0  0  0  0  0  0  0  0  0
    8.0146  -14.1433   19.0052 C   0  0  0  0  0  0  0  0  0  0  0  0
    7.7247  -14.0379   20.4601 C   0  0  1  0  0  0  0  0  0  0  0  0
    6.2664  -13.9465   20.8089 C   0  0  0  0  0  0  0  0  0  0  0  0
    8.3716  -15.1588   21.2741 C   0  0  2  0  0  0  0  0  0  0  0  0
    8.0068  -14.9550   22.6489 N   0  0  0  0  0  0  0  0  0  0  0  0
    9.8019  -15.2751   21.0069 C   0  0  0  0  0  0  0  0  0  0  0  0
   10.6148  -14.3755   21.3943 O   0  0  0  0  0  0  0  0  0  0  0  0
   14.2140  -17.1612   22.9046 N   0  0  0  0  0  0  0  0  0  0  0  0
   13.1568  -17.8881   22.3089 C   0  0  0  0  0  0  0  0  0  0  0  0
   13.4612  -19.0992   21.9930 O   0  0  0  0  0  0  0  0  0  0  0  0
   11.7973  -17.3863   22.0398 C   0  0  0  0  0  0  0  0  0  0  0  0
   11.7386  -16.8074   20.6559 C   0  0  2  0  0  0  0  0  0  0  0  0
   10.3941  -16.3649   20.3186 N   0  0  0  0  0  0  0  0  0  0  0  0
   12.1085  -17.8596   19.6917 C   0  0  0  0  0  0  0  0  0  0  0  0
   11.1939  -18.8168   19.3187 O   0  0  0  0  0  0  0  0  0  0  0  0
   13.2419  -17.9333   19.1789 O   0  0  0  0  0  0  0  0  0  0  0  0
  2  1  1  1
  2  3  1  0
  3  4  1  0
  4 12  1  0
  4  5  2  0
  5  6  1  0
  7  8  2  0
  7  6  1  0
  9  8  1  0
 10  9  2  0
 11 10  1  0
 11 12  2  0
 12  7  1  0
 13  2  1  0
 13 14  2  0
 16 15  1  6
 16 17  1  0
 16 18  1  0
 18 19  1  1
 19 13  1  0
 20 18  1  0
 21 20  2  0
 23 24  2  0
 23 22  1  0
 25 23  1  0
 26 27  1  0
 26 25  1  1
 27 20  1  0
 28 26  1  0
 29 28  1  0
 30 28  2  0
M  END
$$$$
