WVN.pdb
     RDKit          3D

 30 31  0  0  1  0  0  0  0  0999 V2000
    9.2044  -15.4608   24.2551 N   0  0  0  0  0  0  0  0  0  0  0  0
    8.0518  -16.1978   23.8650 C   0  0  1  0  0  0  0  0  0  0  0  0
    6.9035  -15.8074   24.7897 C   0  0  0  0  0  0  0  0  0  0  0  0
    7.3777  -15.0597   25.9828 C   0  0  0  0  0  0  0  0  0  0  0  0
    8.2123  -15.5266   26.9769 C   0  0  0  0  0  0  0  0  0  0  0  0
    8.3843  -14.5687   27.9146 N   0  0  0  0  0  0  0  0  0  0  0  0
    7.6727  -13.4754   27.5497 C   0  0  0  0  0  0  0  0  0  0  0  0
    7.5474  -12.2606   28.1826 C   0  0  0  0  0  0  0  0  0  0  0  0
    6.7625  -11.2737   27.6111 C   0  0  0  0  0  0  0  0  0  0  0  0
    6.1325  -11.5462   26.4226 C   0  0  0  0  0  0  0  0  0  0  0  0
    6.2580  -12.7793   25.7780 C   0  0  0  0  0  0  0  0  0  0  0  0
    7.0362  -13.7713   26.3371 C   0  0  0  0  0  0  0  0  0  0  0  0
    7.6981  -15.9471   22.4462 C   0  0  0  0  0  0  0  0  0  0  0  0
    6.6893  -16.5342   21.9748 O   0  0  0  0  0  0  0  0  0  0  0  0
    7.8395  -13.1921   18.4451 C   0  0  0  0  0  0  0  0  0  0  0  0
    8.2455  -13.4728   19.8480 C   0  0  1  0  0  0  0  0  0  0  0  0
    7.5464  -12.6423   20.8864 C   0  0  0  0  0  0  0  0  0  0  0  0
    8.1218  -14.9520   20.2142 C   0  0  2  0  0  0  0  0  0  0  0  0
    8.4469  -15.0767   21.6084 N   0  0  0  0  0  0  0  0  0  0  0  0
    8.8803  -15.8069   19.3061 C   0  0  0  0  0  0  0  0  0  0  0  0
   10.1490  -15.8778   19.3814 O   0  0  0  0  0  0  0  0  0  0  0  0
    9.4569  -20.7554   16.3912 N   0  0  0  0  0  0  0  0  0  0  0  0
    9.0765  -19.4484   16.0065 C   0  0  0  0  0  0  0  0  0  0  0  0
    9.5411  -19.0783   14.8635 O   0  0  0  0  0  0  0  0  0  0  0  0
    8.2255  -18.5255   16.7789 C   0  0  0  0  0  0  0  0  0  0  0  0
    9.0892  -17.5916   17.5762 C   0  0  2  0  0  0  0  0  0  0  0  0
    8.2919  -16.6099   18.2957 N   0  0  0  0  0  0  0  0  0  0  0  0
    9.9616  -16.8513   16.6464 C   0  0  0  0  0  0  0  0  0  0  0  0
   11.2831  -17.2030   16.5001 O   0  0  0  0  0  0  0  0  0  0  0  0
    9.5551  -15.8918   15.9629 O   0  0  0  0  0  0  0  0  0  0  0  0
  2  1  1  1
  2  3  1  0
  3  4  1  0
  4 12  1  0
  4  5  2  0
  5  6  1  0
  7  8  2  0
  7  6  1  0
  9  8  1  0
 10  9  2  0
 11 10  1  0
 11 12  2  0
 12  7  1  0
 13  2  1  0
 13 14  2  0
 16 15  1  6
 16 17  1  0
 16 18  1  0
 18 19  1  1
 19 13  1  0
 20 18  1  0
 21 20  2  0
 23 24  2  0
 23 22  1  0
 25 23  1  0
 26 27  1  0
 26 25  1  6
 27 20  1  0
 28 26  1  0
 29 28  1  0
 30 28  2  0
M  END
$$$$
