WVN.pdb
     RDKit          3D

 30 31  0  0  1  0  0  0  0  0999 V2000
    6.2666  -18.1455   24.0027 N   0  0  0  0  0  0  0  0  0  0  0  0
    6.6848  -16.7917   23.8751 C   0  0  1  0  0  0  0  0  0  0  0  0
    7.5808  -16.4579   25.0633 C   0  0  0  0  0  0  0  0  0  0  0  0
    7.0326  -15.3442   25.8797 C   0  0  0  0  0  0  0  0  0  0  0  0
    5.9063  -15.3750   26.6755 C   0  0  0  0  0  0  0  0  0  0  0  0
    5.7061  -14.1585   27.2289 N   0  0  0  0  0  0  0  0  0  0  0  0
    6.6880  -13.3260   26.8073 C   0  0  0  0  0  0  0  0  0  0  0  0
    6.9027  -12.0013   27.1090 C   0  0  0  0  0  0  0  0  0  0  0  0
    7.9926  -11.3469   26.5608 C   0  0  0  0  0  0  0  0  0  0  0  0
    8.8269  -12.0508   25.7287 C   0  0  0  0  0  0  0  0  0  0  0  0
    8.6107  -13.3962   25.4206 C   0  0  0  0  0  0  0  0  0  0  0  0
    7.5281  -14.0596   25.9594 C   0  0  0  0  0  0  0  0  0  0  0  0
    7.3953  -16.5585   22.5939 C   0  0  0  0  0  0  0  0  0  0  0  0
    7.9144  -17.5490   22.0158 O   0  0  0  0  0  0  0  0  0  0  0  0
    8.8520  -13.3252   19.1115 C   0  0  0  0  0  0  0  0  0  0  0  0
    8.0905  -13.6455   20.3481 C   0  0  1  0  0  0  0  0  0  0  0  0
    6.6187  -13.3529   20.2777 C   0  0  0  0  0  0  0  0  0  0  0  0
    8.2992  -15.0868   20.8138 C   0  0  2  0  0  0  0  0  0  0  0  0
    7.5095  -15.2722   21.9999 N   0  0  0  0  0  0  0  0  0  0  0  0
    9.7142  -15.4247   20.9335 C   0  0  0  0  0  0  0  0  0  0  0  0
   10.4689  -15.4523   19.9088 O   0  0  0  0  0  0  0  0  0  0  0  0
   14.8338  -15.1243   22.8849 N   0  0  0  0  0  0  0  0  0  0  0  0
   13.8249  -15.8858   23.5197 C   0  0  0  0  0  0  0  0  0  0  0  0
   14.2619  -16.9223   24.1474 O   0  0  0  0  0  0  0  0  0  0  0  0
   12.3805  -15.5920   23.5185 C   0  0  0  0  0  0  0  0  0  0  0  0
   11.7852  -15.9960   22.2009 C   0  0  2  0  0  0  0  0  0  0  0  0
   10.3537  -15.7386   22.1601 N   0  0  0  0  0  0  0  0  0  0  0  0
   11.9747  -17.4477   22.0266 C   0  0  0  0  0  0  0  0  0  0  0  0
   13.0632  -17.9316   21.3391 O   0  0  0  0  0  0  0  0  0  0  0  0
   11.1764  -18.2894   22.4820 O   0  0  0  0  0  0  0  0  0  0  0  0
  2  1  1  1
  2  3  1  0
  3  4  1  0
  4 12  1  0
  4  5  2  0
  5  6  1  0
  7  8  2  0
  7  6  1  0
  9  8  1  0
 10  9  2  0
 11 10  1  0
 11 12  2  0
 12  7  1  0
 13  2  1  0
 13 14  2  0
 16 15  1  6
 16 17  1  0
 16 18  1  0
 18 19  1  1
 19 13  1  0
 20 18  1  0
 21 20  2  0
 23 24  2  0
 23 22  1  0
 25 23  1  0
 26 27  1  0
 26 25  1  1
 27 20  1  0
 28 26  1  0
 29 28  1  0
 30 28  2  0
M  END
$$$$
