WVN.pdb
     RDKit          3D

 30 31  0  0  1  0  0  0  0  0999 V2000
    6.9012  -17.5458   23.4099 N   0  0  0  0  0  0  0  0  0  0  0  0
    7.3082  -16.1853   23.3253 C   0  0  1  0  0  0  0  0  0  0  0  0
    8.1520  -15.8652   24.5548 C   0  0  0  0  0  0  0  0  0  0  0  0
    7.3801  -15.1198   25.5824 C   0  0  0  0  0  0  0  0  0  0  0  0
    6.4621  -15.6407   26.4704 C   0  0  0  0  0  0  0  0  0  0  0  0
    5.9392  -14.6460   27.2211 N   0  0  0  0  0  0  0  0  0  0  0  0
    6.5026  -13.4751   26.8383 C   0  0  0  0  0  0  0  0  0  0  0  0
    6.2907  -12.2033   27.3175 C   0  0  0  0  0  0  0  0  0  0  0  0
    6.9969  -11.1447   26.7723 C   0  0  0  0  0  0  0  0  0  0  0  0
    7.8911  -11.4056   25.7643 C   0  0  0  0  0  0  0  0  0  0  0  0
    8.1077  -12.6964   25.2757 C   0  0  0  0  0  0  0  0  0  0  0  0
    7.4101  -13.7598   25.8096 C   0  0  0  0  0  0  0  0  0  0  0  0
    8.0665  -15.9191   22.0784 C   0  0  0  0  0  0  0  0  0  0  0  0
    8.7100  -16.8699   21.5622 O   0  0  0  0  0  0  0  0  0  0  0  0
    9.2608  -12.7185   18.4735 C   0  0  0  0  0  0  0  0  0  0  0  0
    8.4904  -13.0711   19.6957 C   0  0  1  0  0  0  0  0  0  0  0  0
    6.9973  -13.0135   19.5401 C   0  0  0  0  0  0  0  0  0  0  0  0
    8.8880  -14.4298   20.2732 C   0  0  2  0  0  0  0  0  0  0  0  0
    8.0922  -14.6442   21.4503 N   0  0  0  0  0  0  0  0  0  0  0  0
   10.3318  -14.5481   20.4522 C   0  0  0  0  0  0  0  0  0  0  0  0
   10.9037  -14.0732   21.4855 O   0  0  0  0  0  0  0  0  0  0  0  0
   15.3909  -15.5202   20.3439 N   0  0  0  0  0  0  0  0  0  0  0  0
   14.5312  -16.6437   20.3395 C   0  0  0  0  0  0  0  0  0  0  0  0
   15.1327  -17.7692   20.5143 O   0  0  0  0  0  0  0  0  0  0  0  0
   13.0682  -16.6208   20.1620 C   0  0  0  0  0  0  0  0  0  0  0  0
   12.6296  -15.2394   19.7709 C   0  0  2  0  0  0  0  0  0  0  0  0
   11.1966  -15.1836   19.5247 N   0  0  0  0  0  0  0  0  0  0  0  0
   13.3051  -14.8717   18.5130 C   0  0  0  0  0  0  0  0  0  0  0  0
   14.3443  -13.9709   18.5168 O   0  0  0  0  0  0  0  0  0  0  0  0
   12.9756  -15.3471   17.4092 O   0  0  0  0  0  0  0  0  0  0  0  0
  2  1  1  1
  2  3  1  0
  3  4  1  0
  4 12  1  0
  4  5  2  0
  5  6  1  0
  7  8  2  0
  7  6  1  0
  9  8  1  0
 10  9  2  0
 11 10  1  0
 11 12  2  0
 12  7  1  0
 13  2  1  0
 13 14  2  0
 16 15  1  6
 16 17  1  0
 16 18  1  0
 18 19  1  1
 19 13  1  0
 20 18  1  0
 21 20  2  0
 23 24  2  0
 23 22  1  0
 25 23  1  0
 26 27  1  0
 26 25  1  6
 27 20  1  0
 28 26  1  0
 29 28  1  0
 30 28  2  0
M  END
$$$$
