QCI.pdb
     RDKit          3D

 24 23  0  0  1  0  0  0  0  0999 V2000
   18.7543  -16.2422  -15.9136 N   0  0  0  0  0  0  0  0  0  0  0  0
   17.4487  -15.8296  -16.2612 C   0  0  0  0  0  0  0  0  0  0  0  0
   16.5274  -15.8417  -15.4286 O   0  0  0  0  0  0  0  0  0  0  0  0
   17.1391  -15.3621  -17.6579 C   0  0  0  0  0  0  0  0  0  0  0  0
   17.8831  -14.0972  -17.9590 C   0  0  0  0  0  0  0  0  0  0  0  0
   17.0385  -12.9892  -18.5244 C   0  0  2  0  0  0  0  0  0  0  0  0
   16.8662  -13.3229  -19.9532 N   0  0  0  0  0  0  0  0  0  0  0  0
   17.7584  -11.7022  -18.4051 C   0  0  0  0  0  0  0  0  0  0  0  0
   18.5673  -11.3970  -19.3433 O   0  0  0  0  0  0  0  0  0  0  0  0
   17.6276  -10.7864  -17.3535 N   0  0  0  0  0  0  0  0  0  0  0  0
   18.3322   -9.5234  -17.4025 C   0  0  1  0  0  0  0  0  0  0  0  0
   17.2979   -8.4062  -17.3504 C   0  0  0  0  0  0  0  0  0  0  0  0
   18.2017   -6.8232  -17.3942 S   0  0  0  0  0  0  0  0  0  0  0  0
   19.2045   -9.4077  -16.2314 C   0  0  0  0  0  0  0  0  0  0  0  0
   18.8331   -9.8012  -15.0965 O   0  0  0  0  0  0  0  0  0  0  0  0
   22.9504  -11.3832  -15.0480 C   0  0  0  0  0  0  0  0  0  0  0  0
   22.9221  -10.3821  -16.1592 C   0  0  0  0  0  0  0  0  0  0  0  0
   22.8001   -8.9715  -15.5995 C   0  0  2  0  0  0  0  0  0  0  0  0
   23.6350   -8.8366  -14.3491 C   0  0  0  0  0  0  0  0  0  0  0  0
   21.3512   -8.7024  -15.2569 C   0  0  2  0  0  0  0  0  0  0  0  0
   20.5001   -8.8309  -16.4138 N   0  0  0  0  0  0  0  0  0  0  0  0
   21.2221   -7.3352  -14.6682 C   0  0  0  0  0  0  0  0  0  0  0  0
   21.2364   -7.1489  -13.4331 O   0  0  0  0  0  0  0  0  0  0  0  0
   21.0842   -6.2564  -15.5078 O   0  0  0  0  0  0  0  0  0  0  0  0
  2  1  1  0
  2  4  1  0
  3  2  2  0
  5  6  1  0
  5  4  1  0
  6  7  1  6
  8 10  1  0
  8  6  1  0
  9  8  2  0
 11 10  1  0
 11 12  1  1
 12 13  1  0
 14 15  2  0
 14 11  1  0
 17 18  1  0
 17 16  1  0
 18 20  1  0
 18 19  1  1
 20 21  1  6
 20 22  1  0
 21 14  1  0
 22 24  1  0
 23 22  2  0
M  END
$$$$
