QCI.pdb
     RDKit          3D

 24 23  0  0  1  0  0  0  0  0999 V2000
   29.6345  -20.2751  -16.3598 N   0  0  0  0  0  0  0  0  0  0  0  0
   28.5453  -20.3669  -17.2547 C   0  0  0  0  0  0  0  0  0  0  0  0
   28.6974  -20.7927  -18.4112 O   0  0  0  0  0  0  0  0  0  0  0  0
   27.1644  -19.9484  -16.8267 C   0  0  0  0  0  0  0  0  0  0  0  0
   27.1708  -19.5311  -15.3879 C   0  0  0  0  0  0  0  0  0  0  0  0
   27.1143  -20.6657  -14.4029 C   0  0  2  0  0  0  0  0  0  0  0  0
   26.2419  -21.6802  -15.0291 N   0  0  0  0  0  0  0  0  0  0  0  0
   26.4978  -20.2008  -13.1409 C   0  0  0  0  0  0  0  0  0  0  0  0
   27.0578  -19.2223  -12.5438 O   0  0  0  0  0  0  0  0  0  0  0  0
   25.3500  -20.7383  -12.5449 N   0  0  0  0  0  0  0  0  0  0  0  0
   24.8556  -20.1880  -11.3012 C   0  0  1  0  0  0  0  0  0  0  0  0
   23.3827  -20.5563  -11.1771 C   0  0  0  0  0  0  0  0  0  0  0  0
   22.7683  -19.8329   -9.6203 S   0  0  0  0  0  0  0  0  0  0  0  0
   25.5834  -20.7885  -10.1806 C   0  0  0  0  0  0  0  0  0  0  0  0
   25.8581  -22.0153  -10.1601 O   0  0  0  0  0  0  0  0  0  0  0  0
   29.0636  -19.4465   -5.3018 C   0  0  0  0  0  0  0  0  0  0  0  0
   28.1366  -20.3535   -6.0472 C   0  0  0  0  0  0  0  0  0  0  0  0
   27.5304  -19.6283   -7.2407 C   0  0  2  0  0  0  0  0  0  0  0  0
   26.8006  -18.3904   -6.7783 C   0  0  0  0  0  0  0  0  0  0  0  0
   26.5491  -20.5511   -7.9298 C   0  0  2  0  0  0  0  0  0  0  0  0
   25.9766  -19.9365   -9.1017 N   0  0  0  0  0  0  0  0  0  0  0  0
   25.4718  -20.9416   -6.9709 C   0  0  0  0  0  0  0  0  0  0  0  0
   24.3599  -20.3722   -6.9662 O   0  0  0  0  0  0  0  0  0  0  0  0
   25.7115  -21.9527   -6.0721 O   0  0  0  0  0  0  0  0  0  0  0  0
  2  1  1  0
  2  4  1  0
  3  2  2  0
  5  6  1  0
  5  4  1  0
  6  7  1  6
  8 10  1  0
  8  6  1  0
  9  8  2  0
 11 10  1  0
 11 12  1  1
 12 13  1  0
 14 15  2  0
 14 11  1  0
 17 18  1  0
 17 16  1  0
 18 20  1  0
 18 19  1  1
 20 21  1  6
 20 22  1  0
 21 14  1  0
 22 24  1  0
 23 22  2  0
M  END
$$$$
