QCI.pdb
     RDKit          3D

 24 23  0  0  1  0  0  0  0  0999 V2000
   25.3106  -20.5372  -20.7453 N   0  0  0  0  0  0  0  0  0  0  0  0
   24.0999  -19.8142  -20.8299 C   0  0  0  0  0  0  0  0  0  0  0  0
   23.6754  -19.3960  -21.9194 O   0  0  0  0  0  0  0  0  0  0  0  0
   23.2889  -19.5304  -19.5942 C   0  0  0  0  0  0  0  0  0  0  0  0
   23.9656  -20.1022  -18.3862 C   0  0  0  0  0  0  0  0  0  0  0  0
   24.0786  -19.1579  -17.2216 C   0  0  2  0  0  0  0  0  0  0  0  0
   24.8048  -17.9823  -17.7442 N   0  0  0  0  0  0  0  0  0  0  0  0
   24.8744  -19.7867  -16.1446 C   0  0  0  0  0  0  0  0  0  0  0  0
   24.3910  -20.8325  -15.5965 O   0  0  0  0  0  0  0  0  0  0  0  0
   26.1150  -19.3369  -15.6752 N   0  0  0  0  0  0  0  0  0  0  0  0
   26.8200  -20.0891  -14.6598 C   0  0  1  0  0  0  0  0  0  0  0  0
   28.2886  -19.6877  -14.7129 C   0  0  0  0  0  0  0  0  0  0  0  0
   28.8922  -20.0470  -16.3955 S   0  0  0  0  0  0  0  0  0  0  0  0
   26.2880  -19.7413  -13.3400 C   0  0  0  0  0  0  0  0  0  0  0  0
   26.1103  -18.5439  -13.0000 O   0  0  0  0  0  0  0  0  0  0  0  0
   21.8180  -20.9260  -12.1068 C   0  0  0  0  0  0  0  0  0  0  0  0
   23.1807  -20.3090  -12.0879 C   0  0  0  0  0  0  0  0  0  0  0  0
   24.0221  -20.9150  -10.9732 C   0  0  2  0  0  0  0  0  0  0  0  0
   23.5126  -20.4519   -9.6297 C   0  0  0  0  0  0  0  0  0  0  0  0
   25.4566  -20.4633  -11.1394 C   0  0  2  0  0  0  0  0  0  0  0  0
   25.9734  -20.8076  -12.4408 N   0  0  0  0  0  0  0  0  0  0  0  0
   26.3006  -21.0746  -10.0686 C   0  0  0  0  0  0  0  0  0  0  0  0
   26.9311  -22.1365  -10.2565 O   0  0  0  0  0  0  0  0  0  0  0  0
   26.3845  -20.4517   -8.8468 O   0  0  0  0  0  0  0  0  0  0  0  0
  2  1  1  0
  2  4  1  0
  3  2  2  0
  5  6  1  0
  5  4  1  0
  6  7  1  6
  8 10  1  0
  8  6  1  0
  9  8  2  0
 11 10  1  0
 11 12  1  1
 12 13  1  0
 14 15  2  0
 14 11  1  0
 17 18  1  0
 17 16  1  0
 18 20  1  0
 18 19  1  1
 20 21  1  6
 20 22  1  0
 21 14  1  0
 22 24  1  0
 23 22  2  0
M  END
$$$$
