QCI.pdb
     RDKit          3D

 24 23  0  0  1  0  0  0  0  0999 V2000
   19.3416  -17.8237  -15.3537 N   0  0  0  0  0  0  0  0  0  0  0  0
   20.2280  -18.8587  -14.9811 C   0  0  0  0  0  0  0  0  0  0  0  0
   19.8093  -19.9934  -14.6994 O   0  0  0  0  0  0  0  0  0  0  0  0
   21.7111  -18.6112  -14.9157 C   0  0  0  0  0  0  0  0  0  0  0  0
   22.0205  -17.2016  -15.3176 C   0  0  0  0  0  0  0  0  0  0  0  0
   22.3587  -17.0210  -16.7714 C   0  0  2  0  0  0  0  0  0  0  0  0
   23.7104  -17.5960  -16.9297 N   0  0  0  0  0  0  0  0  0  0  0  0
   22.3980  -15.5790  -17.0993 C   0  0  0  0  0  0  0  0  0  0  0  0
   23.4364  -14.9280  -16.7447 O   0  0  0  0  0  0  0  0  0  0  0  0
   21.3964  -14.8649  -17.7690 N   0  0  0  0  0  0  0  0  0  0  0  0
   21.5643  -13.4506  -18.0248 C   0  0  1  0  0  0  0  0  0  0  0  0
   21.8668  -13.2741  -19.5073 C   0  0  0  0  0  0  0  0  0  0  0  0
   22.0334  -11.4857  -19.8213 S   0  0  0  0  0  0  0  0  0  0  0  0
   20.3159  -12.7491  -17.7159 C   0  0  0  0  0  0  0  0  0  0  0  0
   19.2030  -13.1951  -18.0944 O   0  0  0  0  0  0  0  0  0  0  0  0
   17.6442  -12.2373  -13.6039 C   0  0  0  0  0  0  0  0  0  0  0  0
   18.1207  -12.1782  -15.0207 C   0  0  0  0  0  0  0  0  0  0  0  0
   18.7421  -10.8200  -15.3153 C   0  0  2  0  0  0  0  0  0  0  0  0
   17.7293   -9.7254  -15.0813 C   0  0  0  0  0  0  0  0  0  0  0  0
   19.1816  -10.7844  -16.7627 C   0  0  2  0  0  0  0  0  0  0  0  0
   20.3964  -11.5339  -16.9665 N   0  0  0  0  0  0  0  0  0  0  0  0
   19.3697   -9.3660  -17.1935 C   0  0  0  0  0  0  0  0  0  0  0  0
   20.5069   -8.8740  -17.3520 O   0  0  0  0  0  0  0  0  0  0  0  0
   18.2629   -8.5843  -17.4207 O   0  0  0  0  0  0  0  0  0  0  0  0
  2  1  1  0
  2  4  1  0
  3  2  2  0
  5  6  1  0
  5  4  1  0
  6  7  1  1
  8 10  1  0
  8  6  1  0
  9  8  2  0
 11 10  1  0
 11 12  1  6
 12 13  1  0
 14 15  2  0
 14 11  1  0
 17 18  1  0
 17 16  1  0
 18 20  1  0
 18 19  1  6
 20 21  1  1
 20 22  1  0
 21 14  1  0
 22 24  1  0
 23 22  2  0
M  END
$$$$
