QCI.pdb
     RDKit          3D

 24 23  0  0  1  0  0  0  0  0999 V2000
   14.4485  -13.5651  -15.4316 N   0  0  0  0  0  0  0  0  0  0  0  0
   15.4788  -14.4624  -15.7909 C   0  0  0  0  0  0  0  0  0  0  0  0
   15.2210  -15.5824  -16.2613 O   0  0  0  0  0  0  0  0  0  0  0  0
   16.9238  -14.0817  -15.6116 C   0  0  0  0  0  0  0  0  0  0  0  0
   17.0295  -12.7272  -14.9804 C   0  0  0  0  0  0  0  0  0  0  0  0
   17.1325  -11.5853  -15.9531 C   0  0  2  0  0  0  0  0  0  0  0  0
   17.8582  -12.1321  -17.1179 N   0  0  0  0  0  0  0  0  0  0  0  0
   17.9236  -10.4885  -15.3533 C   0  0  0  0  0  0  0  0  0  0  0  0
   17.5078  -10.0061  -14.2478 O   0  0  0  0  0  0  0  0  0  0  0  0
   19.0924   -9.9345  -15.8907 N   0  0  0  0  0  0  0  0  0  0  0  0
   19.6745   -8.7530  -15.2916 C   0  0  1  0  0  0  0  0  0  0  0  0
   21.1896   -8.9081  -15.3235 C   0  0  0  0  0  0  0  0  0  0  0  0
   21.9066   -7.4269  -14.5382 S   0  0  0  0  0  0  0  0  0  0  0  0
   19.3085   -7.5759  -16.0831 C   0  0  0  0  0  0  0  0  0  0  0  0
   19.4333   -7.5632  -17.3342 O   0  0  0  0  0  0  0  0  0  0  0  0
   15.1425   -3.9809  -17.5758 C   0  0  0  0  0  0  0  0  0  0  0  0
   16.5758   -3.9574  -17.1483 C   0  0  0  0  0  0  0  0  0  0  0  0
   16.9196   -5.2228  -16.3746 C   0  0  2  0  0  0  0  0  0  0  0  0
   16.2419   -5.2053  -15.0258 C   0  0  0  0  0  0  0  0  0  0  0  0
   18.4180   -5.2838  -16.1733 C   0  0  2  0  0  0  0  0  0  0  0  0
   18.8014   -6.4324  -15.3905 N   0  0  0  0  0  0  0  0  0  0  0  0
   18.8854   -4.0275  -15.5131 C   0  0  0  0  0  0  0  0  0  0  0  0
   18.9165   -2.9382  -16.1236 O   0  0  0  0  0  0  0  0  0  0  0  0
   19.2911   -4.0732  -14.2012 O   0  0  0  0  0  0  0  0  0  0  0  0
  2  1  1  0
  2  4  1  0
  3  2  2  0
  5  6  1  0
  5  4  1  0
  6  7  1  6
  8 10  1  0
  8  6  1  0
  9  8  2  0
 11 10  1  0
 11 12  1  6
 12 13  1  0
 14 15  2  0
 14 11  1  0
 17 18  1  0
 17 16  1  0
 18 20  1  0
 18 19  1  1
 20 21  1  1
 20 22  1  0
 21 14  1  0
 22 24  1  0
 23 22  2  0
M  END
$$$$
