QCI.pdb
     RDKit          3D

 24 23  0  0  1  0  0  0  0  0999 V2000
   20.9320  -19.2984  -10.9408 N   0  0  0  0  0  0  0  0  0  0  0  0
   20.3671  -20.3134  -11.7448 C   0  0  0  0  0  0  0  0  0  0  0  0
   19.2423  -20.1792  -12.2537 O   0  0  0  0  0  0  0  0  0  0  0  0
   21.1185  -21.5908  -12.0067 C   0  0  0  0  0  0  0  0  0  0  0  0
   22.4535  -21.5567  -11.3276 C   0  0  0  0  0  0  0  0  0  0  0  0
   23.4597  -20.6375  -11.9626 C   0  0  2  0  0  0  0  0  0  0  0  0
   23.5446  -21.0699  -13.3728 N   0  0  0  0  0  0  0  0  0  0  0  0
   24.7777  -20.8165  -11.3149 C   0  0  0  0  0  0  0  0  0  0  0  0
   25.4945  -21.7948  -11.7110 O   0  0  0  0  0  0  0  0  0  0  0  0
   25.3106  -20.0035  -10.3065 N   0  0  0  0  0  0  0  0  0  0  0  0
   26.6668  -20.2147   -9.8484 C   0  0  1  0  0  0  0  0  0  0  0  0
   27.4966  -19.0067  -10.2644 C   0  0  0  0  0  0  0  0  0  0  0  0
   26.8068  -17.5506   -9.4109 S   0  0  0  0  0  0  0  0  0  0  0  0
   26.6772  -20.3076   -8.3865 C   0  0  0  0  0  0  0  0  0  0  0  0
   25.6167  -20.2187   -7.7169 O   0  0  0  0  0  0  0  0  0  0  0  0
   31.2197  -22.3465   -6.0404 C   0  0  0  0  0  0  0  0  0  0  0  0
   29.7377  -22.1683   -6.1381 C   0  0  0  0  0  0  0  0  0  0  0  0
   29.3478  -20.7470   -5.7560 C   0  0  2  0  0  0  0  0  0  0  0  0
   29.3325  -20.6005   -4.2536 C   0  0  0  0  0  0  0  0  0  0  0  0
   27.9642  -20.4555   -6.2944 C   0  0  2  0  0  0  0  0  0  0  0  0
   27.9350  -20.5035   -7.7352 N   0  0  0  0  0  0  0  0  0  0  0  0
   27.5117  -19.1158   -5.8115 C   0  0  0  0  0  0  0  0  0  0  0  0
   27.8173  -18.0644   -6.4128 O   0  0  0  0  0  0  0  0  0  0  0  0
   26.7400  -19.0400   -4.6773 O   0  0  0  0  0  0  0  0  0  0  0  0
  2  1  1  0
  2  4  1  0
  3  2  2  0
  5  6  1  0
  5  4  1  0
  6  7  1  6
  8 10  1  0
  8  6  1  0
  9  8  2  0
 11 10  1  0
 11 12  1  1
 12 13  1  0
 14 15  2  0
 14 11  1  0
 17 18  1  0
 17 16  1  0
 18 20  1  0
 18 19  1  1
 20 21  1  6
 20 22  1  0
 21 14  1  0
 22 24  1  0
 23 22  2  0
M  END
$$$$
