QCI.pdb
     RDKit          3D

 24 23  0  0  1  0  0  0  0  0999 V2000
   18.1797  -13.0656  -14.8709 N   0  0  0  0  0  0  0  0  0  0  0  0
   18.1752  -12.9840  -16.2812 C   0  0  0  0  0  0  0  0  0  0  0  0
   17.8388  -13.9537  -16.9803 O   0  0  0  0  0  0  0  0  0  0  0  0
   18.5805  -11.7123  -16.9766 C   0  0  0  0  0  0  0  0  0  0  0  0
   18.8833  -10.6442  -15.9708 C   0  0  0  0  0  0  0  0  0  0  0  0
   20.1904   -9.9320  -16.1826 C   0  0  2  0  0  0  0  0  0  0  0  0
   21.2228  -10.8538  -15.6658 N   0  0  0  0  0  0  0  0  0  0  0  0
   20.2109   -8.6811  -15.3931 C   0  0  0  0  0  0  0  0  0  0  0  0
   19.8579   -8.7575  -14.1695 O   0  0  0  0  0  0  0  0  0  0  0  0
   20.5876   -7.4191  -15.8698 N   0  0  0  0  0  0  0  0  0  0  0  0
   20.8618   -6.3463  -14.9383 C   0  0  1  0  0  0  0  0  0  0  0  0
   22.0573   -6.7567  -14.0880 C   0  0  0  0  0  0  0  0  0  0  0  0
   22.5098   -5.3241  -13.0548 S   0  0  0  0  0  0  0  0  0  0  0  0
   21.2118   -5.1339  -15.6823 C   0  0  0  0  0  0  0  0  0  0  0  0
   22.1729   -5.1172  -16.4927 O   0  0  0  0  0  0  0  0  0  0  0  0
   17.5215   -2.6366  -18.2857 C   0  0  0  0  0  0  0  0  0  0  0  0
   18.8037   -3.1872  -17.7464 C   0  0  0  0  0  0  0  0  0  0  0  0
   19.4722   -2.1729  -16.8287 C   0  0  2  0  0  0  0  0  0  0  0  0
   19.8479   -0.9368  -17.6096 C   0  0  0  0  0  0  0  0  0  0  0  0
   20.7257   -2.7886  -16.2463 C   0  0  2  0  0  0  0  0  0  0  0  0
   20.4255   -3.9603  -15.4614 N   0  0  0  0  0  0  0  0  0  0  0  0
   21.4395   -1.7752  -15.4120 C   0  0  0  0  0  0  0  0  0  0  0  0
   21.1995   -1.6424  -14.1934 O   0  0  0  0  0  0  0  0  0  0  0  0
   22.3836   -0.9696  -16.0016 O   0  0  0  0  0  0  0  0  0  0  0  0
  2  1  1  0
  2  4  1  0
  3  2  2  0
  5  6  1  0
  5  4  1  0
  6  7  1  1
  8 10  1  0
  8  6  1  0
  9  8  2  0
 11 10  1  0
 11 12  1  1
 12 13  1  0
 14 15  2  0
 14 11  1  0
 17 18  1  0
 17 16  1  0
 18 20  1  0
 18 19  1  6
 20 21  1  1
 20 22  1  0
 21 14  1  0
 22 24  1  0
 23 22  2  0
M  END
$$$$
