CRV.pdb
     RDKit          3D

 25 24  0  0  1  0  0  0  0  0999 V2000
    6.3256  -19.8339   23.8071 N   0  0  0  0  0  0  0  0  0  0  0  0
    6.6963  -18.7474   24.6927 C   0  0  1  0  0  0  0  0  0  0  0  0
    7.1271  -19.3571   25.9875 C   0  0  0  0  0  0  0  0  0  0  0  0
    7.1816  -18.1695   27.3398 S   0  0  0  0  0  0  0  0  0  0  0  0
    7.6817  -17.8751   24.0466 C   0  0  0  0  0  0  0  0  0  0  0  0
    8.6526  -18.4150   23.4324 O   0  0  0  0  0  0  0  0  0  0  0  0
    8.3567  -14.3603   18.3648 N   0  0  0  0  0  0  0  0  0  0  0  0
    8.4235  -13.1173   19.0655 C   0  0  0  0  0  0  0  0  0  0  0  0
    9.3177  -12.2172   18.7695 N   0  0  0  0  0  0  0  0  0  0  0  0
    7.5248  -12.7982   20.1163 N   0  0  0  0  0  0  0  0  0  0  0  0
    6.5165  -13.7920   20.5948 C   0  0  0  0  0  0  0  0  0  0  0  0
    7.3045  -14.7983   21.3397 C   0  0  0  0  0  0  0  0  0  0  0  0
    7.8774  -14.5808   22.6477 C   0  0  0  0  0  0  0  0  0  0  0  0
    8.5919  -15.5801   23.4577 C   0  0  2  0  0  0  0  0  0  0  0  0
    7.5660  -16.4741   24.0959 N   0  0  0  0  0  0  0  0  0  0  0  0
    9.2698  -14.9706   24.6446 C   0  0  0  0  0  0  0  0  0  0  0  0
    9.6118  -13.7741   24.6907 O   0  0  0  0  0  0  0  0  0  0  0  0
    9.2803  -11.3005   19.2705 C   0  0  0  0  0  0  0  0  0  0  0  0
    9.1631  -12.9415   26.3007 C   0  0  2  0  0  0  0  0  0  0  0  0
    9.3766  -13.9062   27.4498 C   0  0  0  0  0  0  0  0  0  0  0  0
    8.0138  -14.3854   27.9073 C   0  0  2  0  0  0  0  0  0  0  0  0
   10.2175  -15.0583   26.9363 N   0  0  0  0  0  0  0  0  0  0  0  0
    9.5772  -15.7383   25.8305 C   0  0  0  0  0  0  0  0  0  0  0  0
   10.4245  -15.9988   28.0810 O   0  0  0  0  0  0  0  0  0  0  0  0
   11.0673  -15.6174   29.2387 O   0  0  0  0  0  0  0  0  0  0  0  0
  2  5  1  0
  2  1  1  6
  3  4  1  0
  3  2  1  0
  5  6  2  0
  7  8  1  0
  8  9  2  0
  8 10  1  0
 10 11  1  0
 11 12  1  0
 12 13  1  0
 14 13  1  6
 15  5  1  0
 15 14  1  0
 16 14  1  0
 16 17  2  0
 19 18  1  1
 19 21  1  0
 20 19  1  0
 21 22  1  1
 21 23  1  0
 22 16  1  0
 23 24  1  0
 25 23  2  0
M  END
$$$$
