CRV.pdb
     RDKit          3D

 25 24  0  0  1  0  0  0  0  0999 V2000
    7.4128  -15.5918   18.6460 N   0  0  0  0  0  0  0  0  0  0  0  0
    7.8928  -14.7192   19.6998 C   0  0  1  0  0  0  0  0  0  0  0  0
    7.5846  -13.3156   19.2890 C   0  0  0  0  0  0  0  0  0  0  0  0
    8.9018  -12.5616   18.3202 S   0  0  0  0  0  0  0  0  0  0  0  0
    7.3449  -15.1329   20.9951 C   0  0  0  0  0  0  0  0  0  0  0  0
    6.1241  -15.4765   21.0503 O   0  0  0  0  0  0  0  0  0  0  0  0
    6.1675  -20.4083   25.8119 N   0  0  0  0  0  0  0  0  0  0  0  0
    7.1724  -20.1104   26.7824 C   0  0  0  0  0  0  0  0  0  0  0  0
    6.9784  -20.3312   28.0517 N   0  0  0  0  0  0  0  0  0  0  0  0
    8.4287  -19.5602   26.4182 N   0  0  0  0  0  0  0  0  0  0  0  0
    8.7189  -19.1747   25.0038 C   0  0  0  0  0  0  0  0  0  0  0  0
    8.0990  -17.8412   24.8429 C   0  0  0  0  0  0  0  0  0  0  0  0
    8.1729  -17.0471   23.6386 C   0  0  0  0  0  0  0  0  0  0  0  0
    7.6150  -15.6979   23.4548 C   0  0  2  0  0  0  0  0  0  0  0  0
    8.1402  -15.1557   22.1551 N   0  0  0  0  0  0  0  0  0  0  0  0
    8.1527  -14.7196   24.4517 C   0  0  0  0  0  0  0  0  0  0  0  0
    9.3256  -14.3020   24.4283 O   0  0  0  0  0  0  0  0  0  0  0  0
    7.7881  -20.2145   28.7025 C   0  0  0  0  0  0  0  0  0  0  0  0
    6.7665  -11.3084   25.8204 C   0  0  2  0  0  0  0  0  0  0  0  0
    7.0325  -12.2423   26.9839 C   0  0  0  0  0  0  0  0  0  0  0  0
    5.7029  -12.8230   27.4209 C   0  0  2  0  0  0  0  0  0  0  0  0
    7.9713  -13.3294   26.4991 N   0  0  0  0  0  0  0  0  0  0  0  0
    7.3378  -14.1879   25.5210 C   0  0  0  0  0  0  0  0  0  0  0  0
    8.3888  -14.1199   27.6985 O   0  0  0  0  0  0  0  0  0  0  0  0
    8.1526  -15.4734   27.8054 O   0  0  0  0  0  0  0  0  0  0  0  0
  2  5  1  0
  2  1  1  6
  3  4  1  0
  3  2  1  0
  5  6  2  0
  7  8  1  0
  8  9  2  0
  8 10  1  0
 10 11  1  0
 11 12  1  0
 12 13  1  0
 14 13  1  1
 15  5  1  0
 15 14  1  0
 16 14  1  0
 16 17  2  0
 19 18  1  1
 19 21  1  0
 20 19  1  0
 21 22  1  1
 21 23  1  0
 22 16  1  0
 23 24  1  0
 25 23  2  0
M  END
$$$$
