CRV.pdb
     RDKit          3D

 25 24  0  0  1  0  0  0  0  0999 V2000
    7.4833  -16.0817   18.8761 N   0  0  0  0  0  0  0  0  0  0  0  0
    8.3466  -15.6262   19.9483 C   0  0  1  0  0  0  0  0  0  0  0  0
    8.8606  -14.2770   19.5619 C   0  0  0  0  0  0  0  0  0  0  0  0
    7.6393  -12.9715   19.7770 S   0  0  0  0  0  0  0  0  0  0  0  0
    7.6431  -15.6898   21.2330 C   0  0  0  0  0  0  0  0  0  0  0  0
    6.3863  -15.5116   21.2405 O   0  0  0  0  0  0  0  0  0  0  0  0
    5.8043  -22.3342   25.6413 N   0  0  0  0  0  0  0  0  0  0  0  0
    5.8555  -22.0372   24.2451 C   0  0  0  0  0  0  0  0  0  0  0  0
    5.3814  -22.8635   23.3564 N   0  0  0  0  0  0  0  0  0  0  0  0
    6.4232  -20.8330   23.7537 N   0  0  0  0  0  0  0  0  0  0  0  0
    6.8884  -19.7641   24.6887 C   0  0  0  0  0  0  0  0  0  0  0  0
    7.4134  -18.6971   23.8087 C   0  0  0  0  0  0  0  0  0  0  0  0
    7.9298  -17.4326   24.2783 C   0  0  0  0  0  0  0  0  0  0  0  0
    7.5970  -16.1057   23.7364 C   0  0  2  0  0  0  0  0  0  0  0  0
    8.3297  -15.9432   22.4341 N   0  0  0  0  0  0  0  0  0  0  0  0
    8.1632  -14.9949   24.5643 C   0  0  0  0  0  0  0  0  0  0  0  0
    9.3636  -14.6654   24.5282 O   0  0  0  0  0  0  0  0  0  0  0  0
    5.4322  -22.5879   22.3492 C   0  0  0  0  0  0  0  0  0  0  0  0
    6.3820  -11.5101   25.3798 C   0  0  2  0  0  0  0  0  0  0  0  0
    6.9859  -12.0947   26.6409 C   0  0  0  0  0  0  0  0  0  0  0  0
    5.8571  -12.6883   27.4591 C   0  0  2  0  0  0  0  0  0  0  0  0
    7.9803  -13.1611   26.2260 N   0  0  0  0  0  0  0  0  0  0  0  0
    7.3460  -14.2215   25.4722 C   0  0  0  0  0  0  0  0  0  0  0  0
    8.5949  -13.7029   27.4775 O   0  0  0  0  0  0  0  0  0  0  0  0
    9.4270  -12.9472   28.2748 O   0  0  0  0  0  0  0  0  0  0  0  0
  2  5  1  0
  2  1  1  6
  3  4  1  0
  3  2  1  0
  5  6  2  0
  7  8  1  0
  8  9  2  0
  8 10  1  0
 10 11  1  0
 11 12  1  0
 12 13  1  0
 14 13  1  1
 15  5  1  0
 15 14  1  0
 16 14  1  0
 16 17  2  0
 19 18  1  1
 19 21  1  0
 20 19  1  0
 21 22  1  1
 21 23  1  0
 22 16  1  0
 23 24  1  0
 25 23  2  0
M  END
$$$$
