CRV.pdb
     RDKit          3D

 25 24  0  0  1  0  0  0  0  0999 V2000
    4.3613  -13.3104   26.0686 N   0  0  0  0  0  0  0  0  0  0  0  0
    5.6468  -12.8898   25.5464 C   0  0  1  0  0  0  0  0  0  0  0  0
    6.2841  -12.0208   26.5820 C   0  0  0  0  0  0  0  0  0  0  0  0
    5.3406  -10.5254   26.9222 S   0  0  0  0  0  0  0  0  0  0  0  0
    6.4337  -14.0535   25.1272 C   0  0  0  0  0  0  0  0  0  0  0  0
    6.2306  -15.1606   25.7141 O   0  0  0  0  0  0  0  0  0  0  0  0
    8.9139  -12.6812   18.2956 N   0  0  0  0  0  0  0  0  0  0  0  0
    8.9106  -14.0957   18.0965 C   0  0  0  0  0  0  0  0  0  0  0  0
    9.2091  -14.6204   16.9420 N   0  0  0  0  0  0  0  0  0  0  0  0
    8.5832  -15.0003   19.1397 N   0  0  0  0  0  0  0  0  0  0  0  0
    7.3647  -14.7964   19.9806 C   0  0  0  0  0  0  0  0  0  0  0  0
    7.8683  -14.1855   21.2303 C   0  0  0  0  0  0  0  0  0  0  0  0
    8.6034  -14.8987   22.2486 C   0  0  0  0  0  0  0  0  0  0  0  0
    8.1430  -15.1704   23.6196 C   0  0  2  0  0  0  0  0  0  0  0  0
    7.3911  -13.9613   24.1008 N   0  0  0  0  0  0  0  0  0  0  0  0
    9.2761  -15.2530   24.5939 C   0  0  0  0  0  0  0  0  0  0  0  0
   10.4600  -15.0305   24.2786 O   0  0  0  0  0  0  0  0  0  0  0  0
    9.1335  -15.6577   16.8367 C   0  0  0  0  0  0  0  0  0  0  0  0
   11.1700  -15.2449   29.0711 C   0  0  2  0  0  0  0  0  0  0  0  0
    9.9537  -15.0192   28.1956 C   0  0  0  0  0  0  0  0  0  0  0  0
    9.7564  -13.5231   28.0591 C   0  0  1  0  0  0  0  0  0  0  0  0
   10.2276  -15.6600   26.8493 N   0  0  0  0  0  0  0  0  0  0  0  0
    9.0702  -15.6008   25.9821 C   0  0  0  0  0  0  0  0  0  0  0  0
   10.6172  -17.0810   27.1073 O   0  0  0  0  0  0  0  0  0  0  0  0
   11.7879  -17.4167   27.7523 O   0  0  0  0  0  0  0  0  0  0  0  0
  2  5  1  0
  2  1  1  1
  3  4  1  0
  3  2  1  0
  5  6  2  0
  7  8  1  0
  8  9  2  0
  8 10  1  0
 10 11  1  0
 11 12  1  0
 12 13  1  0
 14 13  1  6
 15  5  1  0
 15 14  1  0
 16 14  1  0
 16 17  2  0
 19 18  1  1
 19 21  1  0
 20 19  1  0
 21 22  1  1
 21 23  1  0
 22 16  1  0
 23 24  1  0
 25 23  2  0
M  END
$$$$
