IKT.pdb
     RDKit          3D

 25 24  0  0  1  0  0  0  0  0999 V2000
    7.3627  -11.9396   19.5038 C   0  0  0  0  0  0  0  0  0  0  0  0
    7.8841  -13.3467   19.4565 C   0  0  0  0  0  0  0  0  0  0  0  0
    8.0440  -14.0203   20.7710 C   0  0  2  0  0  0  0  0  0  0  0  0
    8.6929  -13.1094   21.7964 C   0  0  0  0  0  0  0  0  0  0  0  0
    8.5550  -15.4033   20.8092 C   0  0  2  0  0  0  0  0  0  0  0  0
    7.7219  -16.1660   19.8655 N   0  0  0  0  0  0  0  0  0  0  0  0
    8.6726  -16.0761   22.0926 C   0  0  0  0  0  0  0  0  0  0  0  0
    7.6894  -16.4606   22.7779 O   0  0  0  0  0  0  0  0  0  0  0  0
    9.9414  -16.3757   22.7200 N   0  0  0  0  0  0  0  0  0  0  0  0
   10.0401  -17.1053   23.9638 C   0  0  1  0  0  0  0  0  0  0  0  0
   11.0951  -18.1777   23.9239 C   0  0  0  0  0  0  0  0  0  0  0  0
   10.8136  -19.2824   22.9477 C   0  0  0  0  0  0  0  0  0  0  0  0
   11.9527  -20.2707   22.8834 C   0  0  0  0  0  0  0  0  0  0  0  0
   11.6428  -21.3468   21.8774 C   0  0  0  0  0  0  0  0  0  0  0  0
   12.7529  -22.3008   21.8597 N   0  0  0  0  0  0  0  0  0  0  0  0
   10.4648  -16.1261   25.0021 C   0  0  0  0  0  0  0  0  0  0  0  0
   11.4068  -15.3137   24.8118 O   0  0  0  0  0  0  0  0  0  0  0  0
    8.9030  -13.1983   26.5819 C   0  0  0  0  0  0  0  0  0  0  0  0
    9.1961  -14.1749   27.7008 C   0  0  1  0  0  0  0  0  0  0  0  0
    8.0424  -14.9169   27.9377 O   0  0  0  0  0  0  0  0  0  0  0  0
   10.2916  -15.1559   27.2891 C   0  0  2  0  0  0  0  0  0  0  0  0
    9.8187  -16.0656   26.2656 N   0  0  0  0  0  0  0  0  0  0  0  0
   10.7701  -15.8800   28.4772 C   0  0  0  0  0  0  0  0  0  0  0  0
   10.7111  -17.1343   28.5926 O   0  0  0  0  0  0  0  0  0  0  0  0
   11.3131  -15.1498   29.5234 O   0  0  0  0  0  0  0  0  0  0  0  0
  2  1  1  0
  3  2  1  0
  3  4  1  1
  5  3  1  0
  5  7  1  0
  5  6  1  6
  7  8  2  0
  9 10  1  0
  9  7  1  0
 11 12  1  0
 10 11  1  6
 12 13  1  0
 13 14  1  0
 14 15  1  0
 16 10  1  0
 17 16  2  0
 19 18  1  6
 19 21  1  0
 20 19  1  0
 21 22  1  6
 21 23  1  0
 22 16  1  0
 23 25  1  0
 24 23  2  0
M  END
$$$$
