IKT.pdb
     RDKit          3D

 25 24  0  0  1  0  0  0  0  0999 V2000
    5.9897  -10.7411   27.0070 C   0  0  0  0  0  0  0  0  0  0  0  0
    5.5649  -12.0084   26.3233 C   0  0  0  0  0  0  0  0  0  0  0  0
    6.6522  -12.9747   26.0213 C   0  0  2  0  0  0  0  0  0  0  0  0
    7.8429  -12.2979   25.3682 C   0  0  0  0  0  0  0  0  0  0  0  0
    6.3076  -14.2720   25.4101 C   0  0  2  0  0  0  0  0  0  0  0  0
    5.2318  -14.8352   26.2417 N   0  0  0  0  0  0  0  0  0  0  0  0
    7.3652  -15.2393   25.1662 C   0  0  0  0  0  0  0  0  0  0  0  0
    7.7495  -16.0892   26.0111 O   0  0  0  0  0  0  0  0  0  0  0  0
    8.0912  -15.3258   23.9176 N   0  0  0  0  0  0  0  0  0  0  0  0
    9.0858  -16.3439   23.6662 C   0  0  1  0  0  0  0  0  0  0  0  0
    9.5796  -16.3324   22.2447 C   0  0  0  0  0  0  0  0  0  0  0  0
    8.5911  -16.8580   21.2451 C   0  0  0  0  0  0  0  0  0  0  0  0
    9.1267  -16.7727   19.8364 C   0  0  0  0  0  0  0  0  0  0  0  0
    8.0660  -17.1991   18.8571 C   0  0  0  0  0  0  0  0  0  0  0  0
    8.5934  -17.0390   17.5010 N   0  0  0  0  0  0  0  0  0  0  0  0
   10.2563  -16.0212   24.5281 C   0  0  0  0  0  0  0  0  0  0  0  0
   11.1113  -15.1575   24.2014 O   0  0  0  0  0  0  0  0  0  0  0  0
   10.7329  -14.4112   27.7199 C   0  0  0  0  0  0  0  0  0  0  0  0
   11.3025  -15.8021   27.9005 C   0  0  1  0  0  0  0  0  0  0  0  0
   10.3183  -16.5985   28.4791 O   0  0  0  0  0  0  0  0  0  0  0  0
   11.6538  -16.4221   26.5499 C   0  0  2  0  0  0  0  0  0  0  0  0
   10.4611  -16.6807   25.7693 N   0  0  0  0  0  0  0  0  0  0  0  0
   12.4362  -17.6495   26.7651 C   0  0  0  0  0  0  0  0  0  0  0  0
   12.0412  -18.7926   26.4079 O   0  0  0  0  0  0  0  0  0  0  0  0
   13.6691  -17.5475   27.3911 O   0  0  0  0  0  0  0  0  0  0  0  0
  2  1  1  0
  3  2  1  0
  3  4  1  6
  5  3  1  0
  5  7  1  0
  5  6  1  1
  7  8  2  0
  9 10  1  0
  9  7  1  0
 11 12  1  0
 10 11  1  6
 12 13  1  0
 13 14  1  0
 14 15  1  0
 16 10  1  0
 17 16  2  0
 19 18  1  6
 19 21  1  0
 20 19  1  0
 21 22  1  1
 21 23  1  0
 22 16  1  0
 23 25  1  0
 24 23  2  0
M  END
$$$$
