IKT.pdb
     RDKit          3D

 25 24  0  0  1  0  0  0  0  0999 V2000
    8.1171  -11.3473   25.7327 C   0  0  0  0  0  0  0  0  0  0  0  0
    7.9575  -12.7885   26.1220 C   0  0  0  0  0  0  0  0  0  0  0  0
    6.6051  -13.3673   25.9142 C   0  0  2  0  0  0  0  0  0  0  0  0
    5.5214  -12.5063   26.5361 C   0  0  0  0  0  0  0  0  0  0  0  0
    6.4034  -14.8118   26.1330 C   0  0  2  0  0  0  0  0  0  0  0  0
    6.7741  -15.0617   27.5352 N   0  0  0  0  0  0  0  0  0  0  0  0
    7.0384  -15.7571   25.2291 C   0  0  0  0  0  0  0  0  0  0  0  0
    7.9643  -16.5397   25.5668 O   0  0  0  0  0  0  0  0  0  0  0  0
    6.6690  -15.8971   23.8372 N   0  0  0  0  0  0  0  0  0  0  0  0
    7.3041  -16.8517   22.9571 C   0  0  1  0  0  0  0  0  0  0  0  0
    6.6948  -16.8650   21.5812 C   0  0  0  0  0  0  0  0  0  0  0  0
    7.3363  -17.8356   20.6330 C   0  0  0  0  0  0  0  0  0  0  0  0
    6.7006  -17.7787   19.2652 C   0  0  0  0  0  0  0  0  0  0  0  0
    7.3706  -18.7648   18.3461 C   0  0  0  0  0  0  0  0  0  0  0  0
    6.8843  -18.5362   16.9844 N   0  0  0  0  0  0  0  0  0  0  0  0
    8.7169  -16.4104   22.7949 C   0  0  0  0  0  0  0  0  0  0  0  0
    9.0219  -15.2131   22.5560 O   0  0  0  0  0  0  0  0  0  0  0  0
   11.1725  -15.5330   24.8356 C   0  0  0  0  0  0  0  0  0  0  0  0
   11.8406  -16.6614   24.0793 C   0  0  1  0  0  0  0  0  0  0  0  0
   11.6844  -17.8287   24.8215 O   0  0  0  0  0  0  0  0  0  0  0  0
   11.1607  -16.8853   22.7305 C   0  0  2  0  0  0  0  0  0  0  0  0
    9.7932  -17.3309   22.9039 N   0  0  0  0  0  0  0  0  0  0  0  0
   11.9469  -17.8465   21.9412 C   0  0  0  0  0  0  0  0  0  0  0  0
   13.1036  -17.5995   21.5038 O   0  0  0  0  0  0  0  0  0  0  0  0
   11.3912  -19.0860   21.6630 O   0  0  0  0  0  0  0  0  0  0  0  0
  2  1  1  0
  3  2  1  0
  3  4  1  1
  5  3  1  0
  5  7  1  0
  5  6  1  1
  7  8  2  0
  9 10  1  0
  9  7  1  0
 11 12  1  0
 10 11  1  6
 12 13  1  0
 13 14  1  0
 14 15  1  0
 16 10  1  0
 17 16  2  0
 19 18  1  1
 19 21  1  0
 20 19  1  0
 21 22  1  1
 21 23  1  0
 22 16  1  0
 23 25  1  0
 24 23  2  0
M  END
$$$$
