IKT.pdb
     RDKit          3D

 25 24  0  0  1  0  0  0  0  0999 V2000
    7.4301  -11.7972   19.3439 C   0  0  0  0  0  0  0  0  0  0  0  0
    7.8616  -13.2351   19.3570 C   0  0  0  0  0  0  0  0  0  0  0  0
    7.9064  -13.8835   20.6929 C   0  0  2  0  0  0  0  0  0  0  0  0
    8.6282  -13.0233   21.7134 C   0  0  0  0  0  0  0  0  0  0  0  0
    8.2525  -15.3143   20.7829 C   0  0  2  0  0  0  0  0  0  0  0  0
    7.3293  -16.0095   19.8716 N   0  0  0  0  0  0  0  0  0  0  0  0
    8.2998  -15.9472   22.0910 C   0  0  0  0  0  0  0  0  0  0  0  0
    7.2796  -16.2817   22.7477 O   0  0  0  0  0  0  0  0  0  0  0  0
    9.5337  -16.2602   22.7787 N   0  0  0  0  0  0  0  0  0  0  0  0
    9.5615  -16.9389   24.0544 C   0  0  1  0  0  0  0  0  0  0  0  0
   10.5066  -18.1099   24.0668 C   0  0  0  0  0  0  0  0  0  0  0  0
   10.2792  -19.0966   22.9589 C   0  0  0  0  0  0  0  0  0  0  0  0
   11.2648  -20.2381   23.0206 C   0  0  0  0  0  0  0  0  0  0  0  0
   11.0129  -21.1959   21.8869 C   0  0  0  0  0  0  0  0  0  0  0  0
   11.9267  -22.3311   22.0252 N   0  0  0  0  0  0  0  0  0  0  0  0
   10.0805  -15.9600   25.0491 C   0  0  0  0  0  0  0  0  0  0  0  0
   11.1356  -15.3023   24.8544 O   0  0  0  0  0  0  0  0  0  0  0  0
    8.4884  -12.8755   26.5841 C   0  0  0  0  0  0  0  0  0  0  0  0
    8.8830  -13.8042   27.7127 C   0  0  1  0  0  0  0  0  0  0  0  0
    7.7584  -14.5379   28.0795 O   0  0  0  0  0  0  0  0  0  0  0  0
    9.9440  -14.7993   27.2481 C   0  0  2  0  0  0  0  0  0  0  0  0
    9.4007  -15.7232   26.2735 N   0  0  0  0  0  0  0  0  0  0  0  0
   10.4945  -15.5061   28.4153 C   0  0  0  0  0  0  0  0  0  0  0  0
   10.4457  -16.7589   28.5511 O   0  0  0  0  0  0  0  0  0  0  0  0
   11.0974  -14.7607   29.4170 O   0  0  0  0  0  0  0  0  0  0  0  0
  2  1  1  0
  3  2  1  0
  3  4  1  1
  5  3  1  0
  5  7  1  0
  5  6  1  6
  7  8  2  0
  9 10  1  0
  9  7  1  0
 11 12  1  0
 10 11  1  6
 12 13  1  0
 13 14  1  0
 14 15  1  0
 16 10  1  0
 17 16  2  0
 19 18  1  6
 19 21  1  0
 20 19  1  0
 21 22  1  6
 21 23  1  0
 22 16  1  0
 23 25  1  0
 24 23  2  0
M  END
$$$$
