IKT.pdb
     RDKit          3D

 25 24  0  0  1  0  0  0  0  0999 V2000
    7.4322  -11.9233   28.2002 C   0  0  0  0  0  0  0  0  0  0  0  0
    6.5751  -12.8750   27.4168 C   0  0  0  0  0  0  0  0  0  0  0  0
    7.2429  -13.5583   26.2791 C   0  0  2  0  0  0  0  0  0  0  0  0
    8.0510  -12.5900   25.4354 C   0  0  0  0  0  0  0  0  0  0  0  0
    6.4771  -14.5334   25.4804 C   0  0  2  0  0  0  0  0  0  0  0  0
    6.0562  -15.5827   26.4227 N   0  0  0  0  0  0  0  0  0  0  0  0
    7.0817  -15.0931   24.2825 C   0  0  0  0  0  0  0  0  0  0  0  0
    7.5517  -16.2584   24.2106 O   0  0  0  0  0  0  0  0  0  0  0  0
    7.2069  -14.3631   23.0396 N   0  0  0  0  0  0  0  0  0  0  0  0
    7.8100  -14.9377   21.8585 C   0  0  1  0  0  0  0  0  0  0  0  0
    7.8112  -13.9900   20.6895 C   0  0  0  0  0  0  0  0  0  0  0  0
    8.3489  -14.5803   19.4187 C   0  0  0  0  0  0  0  0  0  0  0  0
    8.0003  -13.7310   18.2205 C   0  0  0  0  0  0  0  0  0  0  0  0
    8.4887  -14.3949   16.9609 C   0  0  0  0  0  0  0  0  0  0  0  0
    8.1428  -13.5431   15.8218 N   0  0  0  0  0  0  0  0  0  0  0  0
    9.2360  -15.2057   22.1931 C   0  0  0  0  0  0  0  0  0  0  0  0
    9.9811  -14.3289   22.7027 O   0  0  0  0  0  0  0  0  0  0  0  0
   10.9461  -17.9131   24.4118 C   0  0  0  0  0  0  0  0  0  0  0  0
   11.4242  -18.0244   22.9798 C   0  0  1  0  0  0  0  0  0  0  0  0
   10.6436  -18.9820   22.3385 O   0  0  0  0  0  0  0  0  0  0  0  0
   11.2246  -16.7041   22.2390 C   0  0  2  0  0  0  0  0  0  0  0  0
    9.8236  -16.4757   21.9494 N   0  0  0  0  0  0  0  0  0  0  0  0
   12.0373  -16.7049   21.0124 C   0  0  0  0  0  0  0  0  0  0  0  0
   11.5401  -16.6840   19.8537 O   0  0  0  0  0  0  0  0  0  0  0  0
   13.4184  -16.7299   21.1334 O   0  0  0  0  0  0  0  0  0  0  0  0
  2  1  1  0
  3  2  1  0
  3  4  1  6
  5  3  1  0
  5  7  1  0
  5  6  1  1
  7  8  2  0
  9 10  1  0
  9  7  1  0
 11 12  1  0
 10 11  1  6
 12 13  1  0
 13 14  1  0
 14 15  1  0
 16 10  1  0
 17 16  2  0
 19 18  1  1
 19 21  1  0
 20 19  1  0
 21 22  1  6
 21 23  1  0
 22 16  1  0
 23 25  1  0
 24 23  2  0
M  END
$$$$
