IKT.pdb
     RDKit          3D

 25 24  0  0  1  0  0  0  0  0999 V2000
    5.6519  -10.8231   27.4916 C   0  0  0  0  0  0  0  0  0  0  0  0
    6.7739  -11.8048   27.6692 C   0  0  0  0  0  0  0  0  0  0  0  0
    7.1369  -12.5950   26.4647 C   0  0  2  0  0  0  0  0  0  0  0  0
    6.0446  -12.5532   25.4123 C   0  0  0  0  0  0  0  0  0  0  0  0
    7.7316  -13.9334   26.6390 C   0  0  2  0  0  0  0  0  0  0  0  0
    8.6713  -13.8122   27.7653 N   0  0  0  0  0  0  0  0  0  0  0  0
    8.3422  -14.5881   25.4934 C   0  0  0  0  0  0  0  0  0  0  0  0
    9.3654  -14.1578   24.9002 O   0  0  0  0  0  0  0  0  0  0  0  0
    7.8330  -15.8112   24.9120 N   0  0  0  0  0  0  0  0  0  0  0  0
    8.4651  -16.4573   23.7842 C   0  0  1  0  0  0  0  0  0  0  0  0
    8.3892  -17.9583   23.8594 C   0  0  0  0  0  0  0  0  0  0  0  0
    9.0149  -18.6659   22.6931 C   0  0  0  0  0  0  0  0  0  0  0  0
   10.4939  -18.8827   22.9031 C   0  0  0  0  0  0  0  0  0  0  0  0
   11.1064  -19.4793   21.6643 C   0  0  0  0  0  0  0  0  0  0  0  0
   12.5578  -19.5390   21.8453 N   0  0  0  0  0  0  0  0  0  0  0  0
    7.6996  -16.0505   22.5735 C   0  0  0  0  0  0  0  0  0  0  0  0
    6.4416  -16.0261   22.5528 O   0  0  0  0  0  0  0  0  0  0  0  0
    7.9644  -12.9197   20.3411 C   0  0  0  0  0  0  0  0  0  0  0  0
    8.1333  -14.1443   19.4672 C   0  0  1  0  0  0  0  0  0  0  0  0
    9.4953  -14.3358   19.2531 O   0  0  0  0  0  0  0  0  0  0  0  0
    7.6041  -15.3901   20.1742 C   0  0  2  0  0  0  0  0  0  0  0  0
    8.3625  -15.6684   21.3768 N   0  0  0  0  0  0  0  0  0  0  0  0
    7.6307  -16.5285   19.2423 C   0  0  0  0  0  0  0  0  0  0  0  0
    8.3326  -17.5592   19.4300 O   0  0  0  0  0  0  0  0  0  0  0  0
    6.8464  -16.4678   18.1006 O   0  0  0  0  0  0  0  0  0  0  0  0
  2  1  1  0
  3  2  1  0
  3  4  1  6
  5  3  1  0
  5  7  1  0
  5  6  1  1
  7  8  2  0
  9 10  1  0
  9  7  1  0
 11 12  1  0
 10 11  1  1
 12 13  1  0
 13 14  1  0
 14 15  1  0
 16 10  1  0
 17 16  2  0
 19 18  1  1
 19 21  1  0
 20 19  1  0
 21 22  1  1
 21 23  1  0
 22 16  1  0
 23 25  1  0
 24 23  2  0
M  END
$$$$
