IKT.pdb
     RDKit          3D

 25 24  0  0  1  0  0  0  0  0999 V2000
    6.9885  -11.3348   27.7664 C   0  0  0  0  0  0  0  0  0  0  0  0
    6.1522  -12.2878   26.9624 C   0  0  0  0  0  0  0  0  0  0  0  0
    6.9022  -13.2186   26.0802 C   0  0  2  0  0  0  0  0  0  0  0  0
    8.0032  -12.5073   25.3158 C   0  0  0  0  0  0  0  0  0  0  0  0
    6.1522  -14.1886   25.2605 C   0  0  2  0  0  0  0  0  0  0  0  0
    5.3481  -14.9781   26.2071 N   0  0  0  0  0  0  0  0  0  0  0  0
    6.8796  -15.0367   24.3303 C   0  0  0  0  0  0  0  0  0  0  0  0
    7.3070  -16.1861   24.6132 O   0  0  0  0  0  0  0  0  0  0  0  0
    7.1902  -14.6443   22.9727 N   0  0  0  0  0  0  0  0  0  0  0  0
    7.9301  -15.4948   22.0681 C   0  0  1  0  0  0  0  0  0  0  0  0
    8.0801  -14.8909   20.6979 C   0  0  0  0  0  0  0  0  0  0  0  0
    8.8448  -15.7446   19.7290 C   0  0  0  0  0  0  0  0  0  0  0  0
    8.0433  -16.9483   19.2964 C   0  0  0  0  0  0  0  0  0  0  0  0
    8.8657  -17.8086   18.3747 C   0  0  0  0  0  0  0  0  0  0  0  0
    8.0616  -18.9653   17.9771 N   0  0  0  0  0  0  0  0  0  0  0  0
    9.3027  -15.6261   22.6302 C   0  0  0  0  0  0  0  0  0  0  0  0
   10.0206  -14.6247   22.8865 O   0  0  0  0  0  0  0  0  0  0  0  0
   10.7867  -17.5187   25.7601 C   0  0  0  0  0  0  0  0  0  0  0  0
   11.3712  -18.0477   24.4678 C   0  0  1  0  0  0  0  0  0  0  0  0
   10.6328  -19.1644   24.0867 O   0  0  0  0  0  0  0  0  0  0  0  0
   11.2408  -17.0133   23.3520 C   0  0  2  0  0  0  0  0  0  0  0  0
    9.8676  -16.9001   22.9045 N   0  0  0  0  0  0  0  0  0  0  0  0
   12.1423  -17.3722   22.2459 C   0  0  0  0  0  0  0  0  0  0  0  0
   11.7327  -17.7077   21.1014 O   0  0  0  0  0  0  0  0  0  0  0  0
   13.5102  -17.3410   22.4701 O   0  0  0  0  0  0  0  0  0  0  0  0
  2  1  1  0
  3  2  1  0
  3  4  1  6
  5  3  1  0
  5  7  1  0
  5  6  1  1
  7  8  2  0
  9 10  1  0
  9  7  1  0
 11 12  1  0
 10 11  1  6
 12 13  1  0
 13 14  1  0
 14 15  1  0
 16 10  1  0
 17 16  2  0
 19 18  1  1
 19 21  1  0
 20 19  1  0
 21 22  1  6
 21 23  1  0
 22 16  1  0
 23 25  1  0
 24 23  2  0
M  END
$$$$
