IKT.pdb
     RDKit          3D

 25 24  0  0  1  0  0  0  0  0999 V2000
    7.4268  -11.6264   19.0344 C   0  0  0  0  0  0  0  0  0  0  0  0
    7.6517  -13.1097   19.0905 C   0  0  0  0  0  0  0  0  0  0  0  0
    7.6563  -13.7110   20.4490 C   0  0  2  0  0  0  0  0  0  0  0  0
    8.5176  -12.9178   21.4140 C   0  0  0  0  0  0  0  0  0  0  0  0
    7.8160  -15.1708   20.5852 C   0  0  2  0  0  0  0  0  0  0  0  0
    6.7747  -15.7702   19.7351 N   0  0  0  0  0  0  0  0  0  0  0  0
    7.8316  -15.7571   21.9155 C   0  0  0  0  0  0  0  0  0  0  0  0
    6.8280  -15.8090   22.6732 O   0  0  0  0  0  0  0  0  0  0  0  0
    9.0114  -16.3461   22.5110 N   0  0  0  0  0  0  0  0  0  0  0  0
    9.0164  -16.8915   23.8495 C   0  0  1  0  0  0  0  0  0  0  0  0
   10.0324  -17.9878   24.0242 C   0  0  0  0  0  0  0  0  0  0  0  0
    9.7799  -19.2019   23.1788 C   0  0  0  0  0  0  0  0  0  0  0  0
   10.7905  -20.2892   23.4521 C   0  0  0  0  0  0  0  0  0  0  0  0
   10.4631  -21.5114   22.6366 C   0  0  0  0  0  0  0  0  0  0  0  0
   11.4823  -22.5299   22.8950 N   0  0  0  0  0  0  0  0  0  0  0  0
    9.4198  -15.7854   24.7611 C   0  0  0  0  0  0  0  0  0  0  0  0
   10.4567  -15.0998   24.5651 O   0  0  0  0  0  0  0  0  0  0  0  0
    7.5115  -12.6678   25.7997 C   0  0  0  0  0  0  0  0  0  0  0  0
    7.8963  -13.4192   27.0563 C   0  0  1  0  0  0  0  0  0  0  0  0
    6.8056  -14.1905   27.4477 O   0  0  0  0  0  0  0  0  0  0  0  0
    9.0547  -14.3754   26.7811 C   0  0  2  0  0  0  0  0  0  0  0  0
    8.6440  -15.4523   25.9034 N   0  0  0  0  0  0  0  0  0  0  0  0
    9.5785  -14.8876   28.0572 C   0  0  0  0  0  0  0  0  0  0  0  0
    9.5340  -16.1047   28.3840 O   0  0  0  0  0  0  0  0  0  0  0  0
   10.1497  -13.9900   28.9462 O   0  0  0  0  0  0  0  0  0  0  0  0
  2  1  1  0
  3  2  1  0
  3  4  1  1
  5  3  1  0
  5  7  1  0
  5  6  1  6
  7  8  2  0
  9 10  1  0
  9  7  1  0
 11 12  1  0
 10 11  1  6
 12 13  1  0
 13 14  1  0
 14 15  1  0
 16 10  1  0
 17 16  2  0
 19 18  1  6
 19 21  1  0
 20 19  1  0
 21 22  1  6
 21 23  1  0
 22 16  1  0
 23 25  1  0
 24 23  2  0
M  END
$$$$
