RKC.pdb
     RDKit          3D

 27 26  0  0  1  0  0  0  0  0999 V2000
    9.6476  -15.4416   17.4556 N   0  0  0  0  0  0  0  0  0  0  0  0
    8.9362  -14.4163   16.7882 C   0  0  0  0  0  0  0  0  0  0  0  0
    8.8085  -14.3862   15.5088 N   0  0  0  0  0  0  0  0  0  0  0  0
    8.3412  -13.3806   17.5696 N   0  0  0  0  0  0  0  0  0  0  0  0
    8.6476  -13.3062   18.9840 C   0  0  0  0  0  0  0  0  0  0  0  0
    7.3705  -13.2023   19.7497 C   0  0  0  0  0  0  0  0  0  0  0  0
    7.5169  -13.8032   21.1134 C   0  0  0  0  0  0  0  0  0  0  0  0
    7.3360  -15.2875   21.1508 C   0  0  2  0  0  0  0  0  0  0  0  0
    5.9784  -15.6934   20.8656 N   0  0  0  0  0  0  0  0  0  0  0  0
    7.7930  -15.7659   22.4794 C   0  0  0  0  0  0  0  0  0  0  0  0
    6.9868  -15.6734   23.4389 O   0  0  0  0  0  0  0  0  0  0  0  0
    8.3101  -13.6066   15.0411 N   0  0  0  0  0  0  0  0  0  0  0  0
    9.0761  -16.3162   22.7233 C   0  0  2  0  0  0  0  0  0  0  0  0
    9.4552  -16.7543   24.0679 C   0  0  0  0  0  0  0  0  0  0  0  0
   10.4408  -17.8956   23.9781 C   0  0  0  0  0  0  0  0  0  0  0  0
    9.7870  -19.2006   23.6942 C   0  0  0  0  0  0  0  0  0  0  0  0
   10.7792  -20.3047   23.4295 C   0  0  0  0  0  0  0  0  0  0  0  0
   10.1165  -21.6348   23.2648 N   0  0  0  0  0  0  0  0  0  0  0  0
   11.0245  -22.7109   23.0060 C   0  0  0  0  0  0  0  0  0  0  0  0
    9.9367  -15.6089   24.8734 O   0  0  0  0  0  0  0  0  0  0  0  0
   11.0087  -15.0302   24.5773 N   0  0  0  0  0  0  0  0  0  0  0  0
    9.2012  -15.1339   26.0011 C   0  0  1  0  0  0  0  0  0  0  0  0
    9.7564  -14.0893   26.8033 C   0  0  0  0  0  0  0  0  0  0  0  0
    8.8271  -12.9080   26.9600 S   0  0  0  0  0  0  0  0  0  0  0  0
    7.2029  -13.5734   27.4461 C   0  0  0  0  0  0  0  0  0  0  0  0
   10.1012  -14.6113   28.1462 O   0  0  0  0  0  0  0  0  0  0  0  0
    9.8409  -15.7861   28.5101 O   0  0  0  0  0  0  0  0  0  0  0  0
  2  3  2  0
  2  1  1  0
  4  2  1  0
  5  4  1  0
  6  5  1  0
  7  6  1  0
  8  9  1  1
  8  7  1  0
 10 12  1  0
 10  8  1  0
 11 10  2  0
 13 12  1  0
 13 14  1  6
 14 15  1  0
 15 16  1  0
 16 17  1  0
 17 18  1  0
 19 13  1  0
 20 19  2  0
 21 19  1  0
 22 25  1  0
 22 21  1  0
 23 24  1  0
 22 23  1  1
 25 27  1  0
 26 25  2  0
M  END
$$$$
