RKC.pdb
     RDKit          3D

 27 26  0  0  1  0  0  0  0  0999 V2000
    8.1552  -12.1503   18.2802 N   0  0  0  0  0  0  0  0  0  0  0  0
    8.7683  -13.2407   18.9419 C   0  0  0  0  0  0  0  0  0  0  0  0
    9.8978  -13.1330   19.5474 N   0  0  0  0  0  0  0  0  0  0  0  0
    8.1032  -14.5035   18.9332 N   0  0  0  0  0  0  0  0  0  0  0  0
    8.0025  -15.2510   20.1707 C   0  0  0  0  0  0  0  0  0  0  0  0
    6.8775  -14.6958   20.9796 C   0  0  0  0  0  0  0  0  0  0  0  0
    5.9147  -15.7762   21.3645 C   0  0  0  0  0  0  0  0  0  0  0  0
    6.5588  -17.0936   21.6587 C   0  0  2  0  0  0  0  0  0  0  0  0
    5.7146  -18.2174   21.3215 N   0  0  0  0  0  0  0  0  0  0  0  0
    6.9463  -17.0983   23.0914 C   0  0  0  0  0  0  0  0  0  0  0  0
    6.0254  -17.0163   23.9424 O   0  0  0  0  0  0  0  0  0  0  0  0
   10.2667  -13.9077   20.1294 N   0  0  0  0  0  0  0  0  0  0  0  0
    8.2848  -17.1891   23.5483 C   0  0  2  0  0  0  0  0  0  0  0  0
    8.5984  -17.0362   24.9703 C   0  0  0  0  0  0  0  0  0  0  0  0
    9.7235  -17.9693   25.3520 C   0  0  0  0  0  0  0  0  0  0  0  0
   10.0736  -17.8897   26.7950 C   0  0  0  0  0  0  0  0  0  0  0  0
   11.1665  -18.8528   27.1840 C   0  0  0  0  0  0  0  0  0  0  0  0
   11.5511  -18.7227   28.6230 N   0  0  0  0  0  0  0  0  0  0  0  0
   10.6811  -19.4155   29.5243 C   0  0  0  0  0  0  0  0  0  0  0  0
    8.8610  -15.6160   25.2969 O   0  0  0  0  0  0  0  0  0  0  0  0
    9.8037  -15.0011   24.7447 N   0  0  0  0  0  0  0  0  0  0  0  0
    8.0558  -14.9112   26.2418 C   0  0  1  0  0  0  0  0  0  0  0  0
    8.4177  -13.5771   26.6054 C   0  0  0  0  0  0  0  0  0  0  0  0
    7.2685  -12.7939   27.1964 S   0  0  0  0  0  0  0  0  0  0  0  0
    5.8576  -12.9867   26.0611 C   0  0  0  0  0  0  0  0  0  0  0  0
    9.5334  -13.6031   27.5799 O   0  0  0  0  0  0  0  0  0  0  0  0
   10.0683  -12.5600   28.0339 O   0  0  0  0  0  0  0  0  0  0  0  0
  2  3  2  0
  2  1  1  0
  4  2  1  0
  5  4  1  0
  6  5  1  0
  7  6  1  0
  8  9  1  1
  8  7  1  0
 10 12  1  0
 10  8  1  0
 11 10  2  0
 13 12  1  0
 13 14  1  6
 14 15  1  0
 15 16  1  0
 16 17  1  0
 17 18  1  0
 19 13  1  0
 20 19  2  0
 21 19  1  0
 22 25  1  0
 22 21  1  0
 23 24  1  0
 22 23  1  1
 25 27  1  0
 26 25  2  0
M  END
$$$$
