RKC.pdb
     RDKit          3D

 27 26  0  0  1  0  0  0  0  0999 V2000
    0.9647  -22.2271   21.1753 N   0  0  0  0  0  0  0  0  0  0  0  0
    1.1198  -20.8216   21.1160 C   0  0  0  0  0  0  0  0  0  0  0  0
    0.1330  -20.0280   20.8918 N   0  0  0  0  0  0  0  0  0  0  0  0
    2.4219  -20.2715   21.3132 N   0  0  0  0  0  0  0  0  0  0  0  0
    3.5795  -21.1164   21.0982 C   0  0  0  0  0  0  0  0  0  0  0  0
    4.2769  -21.3205   22.4021 C   0  0  0  0  0  0  0  0  0  0  0  0
    5.5047  -20.4678   22.4883 C   0  0  0  0  0  0  0  0  0  0  0  0
    5.4513  -19.4243   23.5585 C   0  0  2  0  0  0  0  0  0  0  0  0
    4.1114  -18.9399   23.8019 N   0  0  0  0  0  0  0  0  0  0  0  0
    6.3772  -18.3307   23.1713 C   0  0  0  0  0  0  0  0  0  0  0  0
    7.5620  -18.6440   22.8934 O   0  0  0  0  0  0  0  0  0  0  0  0
    0.2816  -19.0064   20.7962 N   0  0  0  0  0  0  0  0  0  0  0  0
    6.0024  -16.9659   23.0982 C   0  0  2  0  0  0  0  0  0  0  0  0
    6.9920  -15.9384   22.7691 C   0  0  0  0  0  0  0  0  0  0  0  0
    6.3380  -14.8282   21.9805 C   0  0  0  0  0  0  0  0  0  0  0  0
    7.3058  -13.7918   21.5330 C   0  0  0  0  0  0  0  0  0  0  0  0
    7.5607  -13.8345   20.0476 C   0  0  0  0  0  0  0  0  0  0  0  0
    8.5096  -12.7673   19.6044 N   0  0  0  0  0  0  0  0  0  0  0  0
    8.7957  -12.7867   18.2019 C   0  0  0  0  0  0  0  0  0  0  0  0
    7.6891  -15.4751   23.9907 O   0  0  0  0  0  0  0  0  0  0  0  0
    7.0382  -15.0083   24.9551 N   0  0  0  0  0  0  0  0  0  0  0  0
    9.1104  -15.5456   24.1054 C   0  0  1  0  0  0  0  0  0  0  0  0
    9.7287  -15.1576   25.3341 C   0  0  0  0  0  0  0  0  0  0  0  0
    9.0845  -15.7915   26.5452 S   0  0  0  0  0  0  0  0  0  0  0  0
    9.9912  -15.1867   28.0042 C   0  0  0  0  0  0  0  0  0  0  0  0
   11.1664  -15.5144   25.3122 O   0  0  0  0  0  0  0  0  0  0  0  0
   11.6901  -16.1841   24.3861 O   0  0  0  0  0  0  0  0  0  0  0  0
  2  3  2  0
  2  1  1  0
  4  2  1  0
  5  4  1  0
  6  5  1  0
  7  6  1  0
  8  9  1  6
  8  7  1  0
 10 12  1  0
 10  8  1  0
 11 10  2  0
 13 12  1  0
 13 14  1  6
 14 15  1  0
 15 16  1  0
 16 17  1  0
 17 18  1  0
 19 13  1  0
 20 19  2  0
 21 19  1  0
 22 25  1  0
 22 21  1  0
 23 24  1  0
 22 23  1  6
 25 27  1  0
 26 25  2  0
M  END
$$$$
