RKC.pdb
     RDKit          3D

 27 26  0  0  1  0  0  0  0  0999 V2000
    8.6739  -12.6285   16.7296 N   0  0  0  0  0  0  0  0  0  0  0  0
    8.2455  -13.9772   16.7193 C   0  0  0  0  0  0  0  0  0  0  0  0
    8.0234  -14.6218   15.6288 N   0  0  0  0  0  0  0  0  0  0  0  0
    8.0550  -14.6406   17.9687 N   0  0  0  0  0  0  0  0  0  0  0  0
    8.3534  -13.9264   19.1938 C   0  0  0  0  0  0  0  0  0  0  0  0
    7.0725  -13.6091   19.8917 C   0  0  0  0  0  0  0  0  0  0  0  0
    7.0829  -14.1411   21.2913 C   0  0  0  0  0  0  0  0  0  0  0  0
    7.5516  -15.5570   21.4045 C   0  0  2  0  0  0  0  0  0  0  0  0
    6.7079  -16.4851   20.6863 N   0  0  0  0  0  0  0  0  0  0  0  0
    7.6430  -15.8897   22.8481 C   0  0  0  0  0  0  0  0  0  0  0  0
    7.2663  -15.0171   23.6702 O   0  0  0  0  0  0  0  0  0  0  0  0
    7.7757  -15.6284   15.6456 N   0  0  0  0  0  0  0  0  0  0  0  0
    8.1271  -17.1252   23.3458 C   0  0  2  0  0  0  0  0  0  0  0  0
    8.2626  -17.3459   24.7868 C   0  0  0  0  0  0  0  0  0  0  0  0
    8.4129  -18.8224   25.0690 C   0  0  0  0  0  0  0  0  0  0  0  0
    8.5698  -19.1191   26.5176 C   0  0  0  0  0  0  0  0  0  0  0  0
    8.8698  -20.5721   26.7862 C   0  0  0  0  0  0  0  0  0  0  0  0
    8.9205  -20.8795   28.2485 N   0  0  0  0  0  0  0  0  0  0  0  0
    9.0921  -22.2691   28.5470 C   0  0  0  0  0  0  0  0  0  0  0  0
    9.3563  -16.5157   25.3411 O   0  0  0  0  0  0  0  0  0  0  0  0
   10.0719  -15.8193   24.5831 N   0  0  0  0  0  0  0  0  0  0  0  0
    9.6258  -16.4839   26.7428 C   0  0  1  0  0  0  0  0  0  0  0  0
   10.0600  -15.2599   27.3395 C   0  0  0  0  0  0  0  0  0  0  0  0
    9.0242  -14.1628   27.2571 S   0  0  0  0  0  0  0  0  0  0  0  0
    9.7153  -12.7166   28.1219 C   0  0  0  0  0  0  0  0  0  0  0  0
   10.4089  -15.4859   28.7616 O   0  0  0  0  0  0  0  0  0  0  0  0
   11.0643  -14.6584   29.4441 O   0  0  0  0  0  0  0  0  0  0  0  0
  2  3  2  0
  2  1  1  0
  4  2  1  0
  5  4  1  0
  6  5  1  0
  7  6  1  0
  8  9  1  6
  8  7  1  0
 10 12  1  0
 10  8  1  0
 11 10  2  0
 13 12  1  0
 13 14  1  1
 14 15  1  0
 15 16  1  0
 16 17  1  0
 17 18  1  0
 19 13  1  0
 20 19  2  0
 21 19  1  0
 22 25  1  0
 22 21  1  0
 23 24  1  0
 22 23  1  1
 25 27  1  0
 26 25  2  0
M  END
$$$$
