RKC.pdb
     RDKit          3D

 27 26  0  0  1  0  0  0  0  0999 V2000
    7.4996  -12.8141   18.0836 N   0  0  0  0  0  0  0  0  0  0  0  0
    8.8390  -13.1622   18.3798 C   0  0  0  0  0  0  0  0  0  0  0  0
    9.7915  -12.2981   18.3816 N   0  0  0  0  0  0  0  0  0  0  0  0
    9.1367  -14.5239   18.6868 N   0  0  0  0  0  0  0  0  0  0  0  0
    8.0908  -15.5177   18.5501 C   0  0  0  0  0  0  0  0  0  0  0  0
    7.4956  -15.7797   19.8938 C   0  0  0  0  0  0  0  0  0  0  0  0
    8.5547  -16.1673   20.8788 C   0  0  0  0  0  0  0  0  0  0  0  0
    8.4159  -17.5581   21.4112 C   0  0  2  0  0  0  0  0  0  0  0  0
    7.2144  -18.2166   20.9508 N   0  0  0  0  0  0  0  0  0  0  0  0
    8.4779  -17.4842   22.8923 C   0  0  0  0  0  0  0  0  0  0  0  0
    7.4104  -17.2350   23.5066 O   0  0  0  0  0  0  0  0  0  0  0  0
   10.7761  -12.5903   18.5235 N   0  0  0  0  0  0  0  0  0  0  0  0
    9.6633  -17.6774   23.6448 C   0  0  2  0  0  0  0  0  0  0  0  0
    9.6464  -17.5602   25.1041 C   0  0  0  0  0  0  0  0  0  0  0  0
   10.8802  -18.2090   25.6864 C   0  0  0  0  0  0  0  0  0  0  0  0
   10.9268  -18.1299   27.1706 C   0  0  0  0  0  0  0  0  0  0  0  0
   12.1572  -18.7800   27.7509 C   0  0  0  0  0  0  0  0  0  0  0  0
   12.1418  -18.7894   29.2460 N   0  0  0  0  0  0  0  0  0  0  0  0
   13.3310  -19.3224   29.8384 C   0  0  0  0  0  0  0  0  0  0  0  0
    9.4627  -16.1486   25.5120 O   0  0  0  0  0  0  0  0  0  0  0  0
   10.1036  -15.2341   24.9421 N   0  0  0  0  0  0  0  0  0  0  0  0
    8.5585  -15.7903   26.5571 C   0  0  1  0  0  0  0  0  0  0  0  0
    8.4320  -14.4152   26.9258 C   0  0  0  0  0  0  0  0  0  0  0  0
    7.0022  -14.0042   27.1909 S   0  0  0  0  0  0  0  0  0  0  0  0
    7.0411  -12.2596   27.7121 C   0  0  0  0  0  0  0  0  0  0  0  0
    9.2437  -14.1382   28.1337 O   0  0  0  0  0  0  0  0  0  0  0  0
    9.4358  -14.9901   29.0379 O   0  0  0  0  0  0  0  0  0  0  0  0
  2  3  2  0
  2  1  1  0
  4  2  1  0
  5  4  1  0
  6  5  1  0
  7  6  1  0
  8  9  1  1
  8  7  1  0
 10 12  1  0
 10  8  1  0
 11 10  2  0
 13 12  1  0
 13 14  1  6
 14 15  1  0
 15 16  1  0
 16 17  1  0
 17 18  1  0
 19 13  1  0
 20 19  2  0
 21 19  1  0
 22 25  1  0
 22 21  1  0
 23 24  1  0
 22 23  1  1
 25 27  1  0
 26 25  2  0
M  END
$$$$
