RKC.pdb
     RDKit          3D

 27 26  0  0  1  0  0  0  0  0999 V2000
    8.2809  -12.1702   19.3121 N   0  0  0  0  0  0  0  0  0  0  0  0
    7.9015  -13.1554   18.3696 C   0  0  0  0  0  0  0  0  0  0  0  0
    8.2745  -13.1126   17.1396 N   0  0  0  0  0  0  0  0  0  0  0  0
    7.0743  -14.2332   18.8069 N   0  0  0  0  0  0  0  0  0  0  0  0
    7.7006  -15.4176   19.3591 C   0  0  0  0  0  0  0  0  0  0  0  0
    8.2224  -15.0974   20.7205 C   0  0  0  0  0  0  0  0  0  0  0  0
    8.9682  -16.2631   21.2926 C   0  0  0  0  0  0  0  0  0  0  0  0
    8.1043  -17.4368   21.6292 C   0  0  2  0  0  0  0  0  0  0  0  0
    6.8818  -17.4715   20.8589 N   0  0  0  0  0  0  0  0  0  0  0  0
    7.8418  -17.4017   23.0896 C   0  0  0  0  0  0  0  0  0  0  0  0
    7.0219  -16.5481   23.5119 O   0  0  0  0  0  0  0  0  0  0  0  0
    7.9507  -13.8248   16.4593 N   0  0  0  0  0  0  0  0  0  0  0  0
    8.4587  -18.2693   24.0251 C   0  0  1  0  0  0  0  0  0  0  0  0
    8.1684  -18.1504   25.4552 C   0  0  0  0  0  0  0  0  0  0  0  0
    8.1390  -19.5211   26.0897 C   0  0  0  0  0  0  0  0  0  0  0  0
    6.9165  -20.2919   25.7399 C   0  0  0  0  0  0  0  0  0  0  0  0
    6.9605  -21.7136   26.2401 C   0  0  0  0  0  0  0  0  0  0  0  0
    5.7460  -22.4912   25.8454 N   0  0  0  0  0  0  0  0  0  0  0  0
    5.7690  -23.8606   26.2621 C   0  0  0  0  0  0  0  0  0  0  0  0
    9.1117  -17.2105   26.1028 O   0  0  0  0  0  0  0  0  0  0  0  0
   10.3400  -17.2755   25.8602 N   0  0  0  0  0  0  0  0  0  0  0  0
    8.6547  -16.2114   27.0144 C   0  0  1  0  0  0  0  0  0  0  0  0
    9.6029  -15.3116   27.5923 C   0  0  0  0  0  0  0  0  0  0  0  0
    8.9801  -14.0152   28.0559 S   0  0  0  0  0  0  0  0  0  0  0  0
   10.3320  -12.9799   28.7018 C   0  0  0  0  0  0  0  0  0  0  0  0
   10.2792  -15.9580   28.7410 O   0  0  0  0  0  0  0  0  0  0  0  0
   11.2840  -15.4612   29.3102 O   0  0  0  0  0  0  0  0  0  0  0  0
  2  3  2  0
  2  1  1  0
  4  2  1  0
  5  4  1  0
  6  5  1  0
  7  6  1  0
  8  9  1  6
  8  7  1  0
 10 12  1  0
 10  8  1  0
 11 10  2  0
 13 12  1  0
 13 14  1  1
 14 15  1  0
 15 16  1  0
 16 17  1  0
 17 18  1  0
 19 13  1  0
 20 19  2  0
 21 19  1  0
 22 25  1  0
 22 21  1  0
 23 24  1  0
 22 23  1  1
 25 27  1  0
 26 25  2  0
M  END
$$$$
