RKC.pdb
     RDKit          3D

 27 26  0  0  1  0  0  0  0  0999 V2000
   11.0580  -23.4428   15.6757 N   0  0  0  0  0  0  0  0  0  0  0  0
    9.8387  -23.1510   15.0192 C   0  0  0  0  0  0  0  0  0  0  0  0
    9.4601  -23.7736   13.9595 N   0  0  0  0  0  0  0  0  0  0  0  0
    9.0033  -22.1269   15.5583 N   0  0  0  0  0  0  0  0  0  0  0  0
    9.4950  -21.3324   16.6660 C   0  0  0  0  0  0  0  0  0  0  0  0
    8.7674  -21.7318   17.9067 C   0  0  0  0  0  0  0  0  0  0  0  0
    8.5065  -20.5417   18.7773 C   0  0  0  0  0  0  0  0  0  0  0  0
    8.2113  -19.2844   18.0229 C   0  0  2  0  0  0  0  0  0  0  0  0
    8.8649  -19.2379   16.7346 N   0  0  0  0  0  0  0  0  0  0  0  0
    8.5960  -18.1386   18.8844 C   0  0  0  0  0  0  0  0  0  0  0  0
    9.8215  -17.9545   19.0929 O   0  0  0  0  0  0  0  0  0  0  0  0
    8.5466  -23.5644   13.5161 N   0  0  0  0  0  0  0  0  0  0  0  0
    7.6666  -17.2492   19.4791 C   0  0  1  0  0  0  0  0  0  0  0  0
    8.1296  -16.1026   20.2628 C   0  0  0  0  0  0  0  0  0  0  0  0
    6.9988  -15.1189   20.4524 C   0  0  0  0  0  0  0  0  0  0  0  0
    7.4258  -13.8777   21.1512 C   0  0  0  0  0  0  0  0  0  0  0  0
    8.1718  -12.9276   20.2488 C   0  0  0  0  0  0  0  0  0  0  0  0
    8.5199  -11.6471   20.9377 N   0  0  0  0  0  0  0  0  0  0  0  0
    9.1598  -10.6851   20.0925 C   0  0  0  0  0  0  0  0  0  0  0  0
    8.7506  -16.5528   21.5294 O   0  0  0  0  0  0  0  0  0  0  0  0
    8.2429  -17.4915   22.1872 N   0  0  0  0  0  0  0  0  0  0  0  0
    9.9353  -15.9367   22.0346 C   0  0  1  0  0  0  0  0  0  0  0  0
   10.4713  -16.3804   23.2831 C   0  0  0  0  0  0  0  0  0  0  0  0
   11.8925  -15.9208   23.5121 S   0  0  0  0  0  0  0  0  0  0  0  0
   12.4394  -16.6566   25.0857 C   0  0  0  0  0  0  0  0  0  0  0  0
    9.6240  -15.8969   24.3981 O   0  0  0  0  0  0  0  0  0  0  0  0
    9.7685  -16.2865   25.5846 O   0  0  0  0  0  0  0  0  0  0  0  0
  2  3  2  0
  2  1  1  0
  4  2  1  0
  5  4  1  0
  6  5  1  0
  7  6  1  0
  8  9  1  6
  8  7  1  0
 10 12  1  0
 10  8  1  0
 11 10  2  0
 13 12  1  0
 13 14  1  1
 14 15  1  0
 15 16  1  0
 16 17  1  0
 17 18  1  0
 19 13  1  0
 20 19  2  0
 21 19  1  0
 22 25  1  0
 22 21  1  0
 23 24  1  0
 22 23  1  1
 25 27  1  0
 26 25  2  0
M  END
$$$$
