FDM.pdb
     RDKit          3D

 28 28  0  0  1  0  0  0  0  0999 V2000
    7.6148  -17.8095   18.6580 N   0  0  0  0  0  0  0  0  0  0  0  0
    8.0319  -16.7013   19.4700 C   0  0  1  0  0  0  0  0  0  0  0  0
    6.7965  -15.8101   19.6513 C   0  0  0  0  0  0  0  0  0  0  0  0
    7.2290  -14.6309   20.4611 C   0  0  0  0  0  0  0  0  0  0  0  0
    7.0549  -14.6118   21.8450 C   0  0  0  0  0  0  0  0  0  0  0  0
    7.4421  -13.5431   22.6188 C   0  0  0  0  0  0  0  0  0  0  0  0
    8.0214  -12.4490   22.0282 C   0  0  0  0  0  0  0  0  0  0  0  0
    8.2039  -12.4418   20.6720 C   0  0  0  0  0  0  0  0  0  0  0  0
    7.8142  -13.5143   19.9038 C   0  0  0  0  0  0  0  0  0  0  0  0
    8.6012  -17.1057   20.7601 C   0  0  0  0  0  0  0  0  0  0  0  0
    7.9149  -17.8124   21.5365 O   0  0  0  0  0  0  0  0  0  0  0  0
    9.9004  -16.7267   21.1625 N   0  0  0  0  0  0  0  0  0  0  0  0
   10.5438  -17.1893   22.3707 C   0  0  1  0  0  0  0  0  0  0  0  0
   12.0303  -17.1881   22.1639 C   0  0  0  0  0  0  0  0  0  0  0  0
   12.5083  -18.1427   21.1730 C   0  0  0  0  0  0  0  0  0  0  0  0
   12.1105  -19.3306   21.2124 O   0  0  0  0  0  0  0  0  0  0  0  0
   10.1852  -16.2598   23.4653 C   0  0  0  0  0  0  0  0  0  0  0  0
   10.6529  -15.0940   23.5012 O   0  0  0  0  0  0  0  0  0  0  0  0
   13.3957  -17.7694   20.1835 O   0  0  0  0  0  0  0  0  0  0  0  0
    7.0499  -11.4751   27.2856 C   0  0  0  0  0  0  0  0  0  0  0  0
    7.4207  -12.7543   26.0844 S   0  0  0  0  0  0  0  0  0  0  0  0
    7.1145  -14.4253   26.7333 C   0  0  0  0  0  0  0  0  0  0  0  0
    7.4835  -15.4002   25.6547 C   0  0  0  0  0  0  0  0  0  0  0  0
    8.9492  -15.7197   25.6067 C   0  0  2  0  0  0  0  0  0  0  0  0
    9.3025  -16.6149   24.5329 N   0  0  0  0  0  0  0  0  0  0  0  0
    9.3757  -16.3267   26.8930 C   0  0  0  0  0  0  0  0  0  0  0  0
    9.6356  -15.5391   27.9973 O   0  0  0  0  0  0  0  0  0  0  0  0
    9.5188  -17.5759   27.0344 O   0  0  0  0  0  0  0  0  0  0  0  0
  2  1  1  1
  2 10  1  0
  3  2  1  0
  4  3  1  0
  4  9  2  0
  5  4  1  0
  6  5  2  0
  6  7  1  0
  7  8  2  0
  8  9  1  0
 10 11  2  0
 12 10  1  0
 12 13  1  0
 13 14  1  6
 14 15  1  0
 15 19  1  0
 16 15  2  0
 17 25  1  0
 17 13  1  0
 18 17  2  0
 20 21  1  0
 22 21  1  0
 23 22  1  0
 24 23  1  1
 24 25  1  0
 26 27  1  0
 26 24  1  0
 28 26  2  0
M  END
$$$$
