FDM.pdb
     RDKit          3D

 28 28  0  0  1  0  0  0  0  0999 V2000
    7.0007  -17.9747   19.2624 N   0  0  0  0  0  0  0  0  0  0  0  0
    7.5915  -16.8437   19.9204 C   0  0  1  0  0  0  0  0  0  0  0  0
    6.4414  -15.8793   20.2373 C   0  0  0  0  0  0  0  0  0  0  0  0
    7.0604  -14.6296   20.7742 C   0  0  0  0  0  0  0  0  0  0  0  0
    7.0851  -14.3766   22.1457 C   0  0  0  0  0  0  0  0  0  0  0  0
    7.6471  -13.2373   22.6719 C   0  0  0  0  0  0  0  0  0  0  0  0
    8.2077  -12.3056   21.8358 C   0  0  0  0  0  0  0  0  0  0  0  0
    8.1969  -12.5290   20.4857 C   0  0  0  0  0  0  0  0  0  0  0  0
    7.6330  -13.6710   19.9660 C   0  0  0  0  0  0  0  0  0  0  0  0
    8.3466  -17.1999   21.1266 C   0  0  0  0  0  0  0  0  0  0  0  0
    7.7898  -17.8879   22.0153 O   0  0  0  0  0  0  0  0  0  0  0  0
    9.6844  -16.7949   21.3253 N   0  0  0  0  0  0  0  0  0  0  0  0
   10.4988  -17.2036   22.4467 C   0  0  1  0  0  0  0  0  0  0  0  0
   11.9382  -17.2272   22.0224 C   0  0  0  0  0  0  0  0  0  0  0  0
   12.2943  -18.3276   21.1369 C   0  0  0  0  0  0  0  0  0  0  0  0
   13.1269  -18.1415   20.2188 O   0  0  0  0  0  0  0  0  0  0  0  0
   10.3087  -16.2177   23.5342 C   0  0  0  0  0  0  0  0  0  0  0  0
   10.9580  -15.1419   23.5508 O   0  0  0  0  0  0  0  0  0  0  0  0
   11.7336  -19.5804   21.2845 O   0  0  0  0  0  0  0  0  0  0  0  0
    6.9631  -11.8249   27.0529 C   0  0  0  0  0  0  0  0  0  0  0  0
    6.5232  -12.9067   25.6917 S   0  0  0  0  0  0  0  0  0  0  0  0
    7.9351  -13.8899   25.1026 C   0  0  0  0  0  0  0  0  0  0  0  0
    8.2675  -14.8851   26.1746 C   0  0  0  0  0  0  0  0  0  0  0  0
    9.4820  -15.7134   25.8724 C   0  0  2  0  0  0  0  0  0  0  0  0
    9.3947  -16.4157   24.6160 N   0  0  0  0  0  0  0  0  0  0  0  0
    9.7005  -16.7032   26.9575 C   0  0  0  0  0  0  0  0  0  0  0  0
   10.0656  -16.2965   28.2258 O   0  0  0  0  0  0  0  0  0  0  0  0
    9.5642  -17.9476   26.7725 O   0  0  0  0  0  0  0  0  0  0  0  0
  2  1  1  1
  2 10  1  0
  3  2  1  0
  4  3  1  0
  4  9  2  0
  5  4  1  0
  6  5  2  0
  6  7  1  0
  7  8  2  0
  8  9  1  0
 10 11  2  0
 12 10  1  0
 12 13  1  0
 13 14  1  6
 14 15  1  0
 15 19  1  0
 16 15  2  0
 17 25  1  0
 17 13  1  0
 18 17  2  0
 20 21  1  0
 22 21  1  0
 23 22  1  0
 24 23  1  1
 24 25  1  0
 26 27  1  0
 26 24  1  0
 28 26  2  0
M  END
$$$$
