FDM.pdb
     RDKit          3D

 28 28  0  0  1  0  0  0  0  0999 V2000
    5.7881  -17.4979   24.5227 N   0  0  0  0  0  0  0  0  0  0  0  0
    6.7860  -16.4818   24.3411 C   0  0  1  0  0  0  0  0  0  0  0  0
    6.8641  -15.7120   25.6657 C   0  0  0  0  0  0  0  0  0  0  0  0
    6.6409  -14.2702   25.3419 C   0  0  0  0  0  0  0  0  0  0  0  0
    5.5526  -13.5786   25.8738 C   0  0  0  0  0  0  0  0  0  0  0  0
    5.3191  -12.2523   25.5962 C   0  0  0  0  0  0  0  0  0  0  0  0
    6.1744  -11.5685   24.7702 C   0  0  0  0  0  0  0  0  0  0  0  0
    7.2502  -12.2233   24.2348 C   0  0  0  0  0  0  0  0  0  0  0  0
    7.4778  -13.5503   24.5166 C   0  0  0  0  0  0  0  0  0  0  0  0
    8.0949  -17.0142   23.9469 C   0  0  0  0  0  0  0  0  0  0  0  0
    8.4636  -18.1253   24.3971 O   0  0  0  0  0  0  0  0  0  0  0  0
    8.9599  -16.3182   23.0747 N   0  0  0  0  0  0  0  0  0  0  0  0
   10.2551  -16.8037   22.6570 C   0  0  1  0  0  0  0  0  0  0  0  0
   10.7042  -16.0256   21.4548 C   0  0  0  0  0  0  0  0  0  0  0  0
   11.6457  -16.7266   20.5923 C   0  0  0  0  0  0  0  0  0  0  0  0
   11.2204  -17.5488   19.7473 O   0  0  0  0  0  0  0  0  0  0  0  0
   11.2034  -16.5985   23.7748 C   0  0  0  0  0  0  0  0  0  0  0  0
   12.0513  -15.6717   23.7400 O   0  0  0  0  0  0  0  0  0  0  0  0
   13.0056  -16.5065   20.6825 O   0  0  0  0  0  0  0  0  0  0  0  0
    9.3971  -14.1732   29.7147 C   0  0  0  0  0  0  0  0  0  0  0  0
   10.8042  -14.3530   28.6173 S   0  0  0  0  0  0  0  0  0  0  0  0
   10.8225  -15.9622   27.7705 C   0  0  0  0  0  0  0  0  0  0  0  0
   11.9319  -15.9258   26.7614 C   0  0  0  0  0  0  0  0  0  0  0  0
   12.1353  -17.2273   26.0422 C   0  0  2  0  0  0  0  0  0  0  0  0
   11.2205  -17.4210   24.9445 N   0  0  0  0  0  0  0  0  0  0  0  0
   11.9852  -18.3580   26.9929 C   0  0  0  0  0  0  0  0  0  0  0  0
   11.0411  -19.3433   26.7799 O   0  0  0  0  0  0  0  0  0  0  0  0
   12.7052  -18.4692   28.0275 O   0  0  0  0  0  0  0  0  0  0  0  0
  2  1  1  1
  2 10  1  0
  3  2  1  0
  4  3  1  0
  4  9  2  0
  5  4  1  0
  6  5  2  0
  6  7  1  0
  7  8  2  0
  8  9  1  0
 10 11  2  0
 12 10  1  0
 12 13  1  0
 13 14  1  6
 14 15  1  0
 15 19  1  0
 16 15  2  0
 17 25  1  0
 17 13  1  0
 18 17  2  0
 20 21  1  0
 22 21  1  0
 23 22  1  0
 24 23  1  1
 24 25  1  0
 26 27  1  0
 26 24  1  0
 28 26  2  0
M  END
$$$$
