FDM.pdb
     RDKit          3D

 28 28  0  0  1  0  0  0  0  0999 V2000
    5.9339  -17.2135   24.5537 N   0  0  0  0  0  0  0  0  0  0  0  0
    7.0874  -16.3606   24.4977 C   0  0  1  0  0  0  0  0  0  0  0  0
    7.1753  -15.6633   25.8612 C   0  0  0  0  0  0  0  0  0  0  0  0
    6.9697  -14.2037   25.6146 C   0  0  0  0  0  0  0  0  0  0  0  0
    5.8827  -13.5309   26.1726 C   0  0  0  0  0  0  0  0  0  0  0  0
    5.6652  -12.1890   25.9658 C   0  0  0  0  0  0  0  0  0  0  0  0
    6.5358  -11.4701   25.1871 C   0  0  0  0  0  0  0  0  0  0  0  0
    7.6107  -12.1058   24.6274 C   0  0  0  0  0  0  0  0  0  0  0  0
    7.8223  -13.4485   24.8384 C   0  0  0  0  0  0  0  0  0  0  0  0
    8.3266  -17.0766   24.1755 C   0  0  0  0  0  0  0  0  0  0  0  0
    8.5159  -18.2186   24.6583 O   0  0  0  0  0  0  0  0  0  0  0  0
    9.3197  -16.5247   23.3373 N   0  0  0  0  0  0  0  0  0  0  0  0
   10.6586  -17.0523   23.2082 C   0  0  1  0  0  0  0  0  0  0  0  0
   11.3856  -16.2849   22.1428 C   0  0  0  0  0  0  0  0  0  0  0  0
   10.8870  -16.4979   20.7909 C   0  0  0  0  0  0  0  0  0  0  0  0
   11.0545  -15.6120   19.9203 O   0  0  0  0  0  0  0  0  0  0  0  0
   11.3445  -16.8842   24.5090 C   0  0  0  0  0  0  0  0  0  0  0  0
   12.0172  -15.8518   24.7553 O   0  0  0  0  0  0  0  0  0  0  0  0
   10.2293  -17.6603   20.4413 O   0  0  0  0  0  0  0  0  0  0  0  0
    8.7888  -13.6188   28.1845 C   0  0  0  0  0  0  0  0  0  0  0  0
    9.6967  -14.9024   29.0475 S   0  0  0  0  0  0  0  0  0  0  0  0
   11.0863  -15.5477   28.0678 C   0  0  0  0  0  0  0  0  0  0  0  0
   10.8134  -16.9987   27.8032 C   0  0  0  0  0  0  0  0  0  0  0  0
   11.8073  -17.6403   26.8795 C   0  0  2  0  0  0  0  0  0  0  0  0
   11.2908  -17.8616   25.5515 N   0  0  0  0  0  0  0  0  0  0  0  0
   12.2515  -18.9411   27.4411 C   0  0  0  0  0  0  0  0  0  0  0  0
   13.0069  -18.9943   28.5960 O   0  0  0  0  0  0  0  0  0  0  0  0
   11.9625  -20.0453   26.8948 O   0  0  0  0  0  0  0  0  0  0  0  0
  2  1  1  1
  2 10  1  0
  3  2  1  0
  4  3  1  0
  4  9  2  0
  5  4  1  0
  6  5  2  0
  6  7  1  0
  7  8  2  0
  8  9  1  0
 10 11  2  0
 12 10  1  0
 12 13  1  0
 13 14  1  6
 14 15  1  0
 15 19  1  0
 16 15  2  0
 17 25  1  0
 17 13  1  0
 18 17  2  0
 20 21  1  0
 22 21  1  0
 23 22  1  0
 24 23  1  1
 24 25  1  0
 26 27  1  0
 26 24  1  0
 28 26  2  0
M  END
$$$$
