FDM.pdb
     RDKit          3D

 28 28  0  0  1  0  0  0  0  0999 V2000
    6.1774  -18.5384   21.5762 N   0  0  0  0  0  0  0  0  0  0  0  0
    6.9529  -17.3341   21.6748 C   0  0  1  0  0  0  0  0  0  0  0  0
    6.0006  -16.2487   22.1926 C   0  0  0  0  0  0  0  0  0  0  0  0
    6.7039  -14.9407   22.0254 C   0  0  0  0  0  0  0  0  0  0  0  0
    7.0743  -14.1817   23.1355 C   0  0  0  0  0  0  0  0  0  0  0  0
    7.7227  -12.9749   23.0163 C   0  0  0  0  0  0  0  0  0  0  0  0
    8.0242  -12.4838   21.7716 C   0  0  0  0  0  0  0  0  0  0  0  0
    7.6720  -13.2086   20.6655 C   0  0  0  0  0  0  0  0  0  0  0  0
    7.0235  -14.4151   20.7920 C   0  0  0  0  0  0  0  0  0  0  0  0
    8.1350  -17.4707   22.5327 C   0  0  0  0  0  0  0  0  0  0  0  0
    8.0106  -17.9932   23.6661 O   0  0  0  0  0  0  0  0  0  0  0  0
    9.4148  -17.0333   22.1274 N   0  0  0  0  0  0  0  0  0  0  0  0
   10.5920  -17.0808   22.9640 C   0  0  1  0  0  0  0  0  0  0  0  0
   11.7937  -16.7280   22.1371 C   0  0  0  0  0  0  0  0  0  0  0  0
   13.0727  -16.9278   22.8049 C   0  0  0  0  0  0  0  0  0  0  0  0
   14.1151  -16.4389   22.3095 O   0  0  0  0  0  0  0  0  0  0  0  0
   10.4202  -16.0930   24.0529 C   0  0  0  0  0  0  0  0  0  0  0  0
   10.8768  -14.9273   23.9447 O   0  0  0  0  0  0  0  0  0  0  0  0
   13.1668  -17.6477   23.9791 O   0  0  0  0  0  0  0  0  0  0  0  0
    7.2873  -11.4589   26.7955 C   0  0  0  0  0  0  0  0  0  0  0  0
    6.6730  -12.8933   25.9113 S   0  0  0  0  0  0  0  0  0  0  0  0
    8.0084  -14.0145   25.3950 C   0  0  0  0  0  0  0  0  0  0  0  0
    8.4481  -14.7779   26.6091 C   0  0  0  0  0  0  0  0  0  0  0  0
    9.7419  -15.5150   26.4216 C   0  0  2  0  0  0  0  0  0  0  0  0
    9.7389  -16.3892   25.2748 N   0  0  0  0  0  0  0  0  0  0  0  0
   10.0448  -16.3189   27.6328 C   0  0  0  0  0  0  0  0  0  0  0  0
   10.1779  -17.6916   27.5581 O   0  0  0  0  0  0  0  0  0  0  0  0
   10.1926  -15.7907   28.7731 O   0  0  0  0  0  0  0  0  0  0  0  0
  2  1  1  1
  2 10  1  0
  3  2  1  0
  4  3  1  0
  4  9  2  0
  5  4  1  0
  6  5  2  0
  6  7  1  0
  7  8  2  0
  8  9  1  0
 10 11  2  0
 12 10  1  0
 12 13  1  0
 13 14  1  6
 14 15  1  0
 15 19  1  0
 16 15  2  0
 17 25  1  0
 17 13  1  0
 18 17  2  0
 20 21  1  0
 22 21  1  0
 23 22  1  0
 24 23  1  1
 24 25  1  0
 26 27  1  0
 26 24  1  0
 28 26  2  0
M  END
$$$$
