FDM.pdb
     RDKit          3D

 28 28  0  0  1  0  0  0  0  0999 V2000
    6.4683  -18.1630   20.7729 N   0  0  0  0  0  0  0  0  0  0  0  0
    7.2022  -16.9380   20.9210 C   0  0  1  0  0  0  0  0  0  0  0  0
    6.1812  -15.8705   21.3348 C   0  0  0  0  0  0  0  0  0  0  0  0
    6.8344  -14.5429   21.1250 C   0  0  0  0  0  0  0  0  0  0  0  0
    7.0028  -13.6537   22.1865 C   0  0  0  0  0  0  0  0  0  0  0  0
    7.6000  -12.4254   22.0274 C   0  0  0  0  0  0  0  0  0  0  0  0
    8.0522  -12.0430   20.7902 C   0  0  0  0  0  0  0  0  0  0  0  0
    7.8995  -12.8966   19.7314 C   0  0  0  0  0  0  0  0  0  0  0  0
    7.3012  -14.1240   19.8976 C   0  0  0  0  0  0  0  0  0  0  0  0
    8.3059  -17.0324   21.8829 C   0  0  0  0  0  0  0  0  0  0  0  0
    8.0751  -17.4642   23.0376 O   0  0  0  0  0  0  0  0  0  0  0  0
    9.6258  -16.6531   21.5550 N   0  0  0  0  0  0  0  0  0  0  0  0
   10.7715  -16.8819   22.4051 C   0  0  1  0  0  0  0  0  0  0  0  0
   12.0031  -16.3771   21.7117 C   0  0  0  0  0  0  0  0  0  0  0  0
   12.4560  -17.2000   20.5984 C   0  0  0  0  0  0  0  0  0  0  0  0
   12.8500  -16.6531   19.5417 O   0  0  0  0  0  0  0  0  0  0  0  0
   10.5614  -16.1376   23.6671 C   0  0  0  0  0  0  0  0  0  0  0  0
   10.5053  -14.8823   23.6744 O   0  0  0  0  0  0  0  0  0  0  0  0
   12.4625  -18.5782   20.6783 O   0  0  0  0  0  0  0  0  0  0  0  0
    7.0999  -12.2694   26.4508 C   0  0  0  0  0  0  0  0  0  0  0  0
    6.9262  -13.8451   27.2898 S   0  0  0  0  0  0  0  0  0  0  0  0
    8.5163  -14.7054   27.4864 C   0  0  0  0  0  0  0  0  0  0  0  0
    8.8684  -15.3068   26.1581 C   0  0  0  0  0  0  0  0  0  0  0  0
   10.1617  -16.0684   26.1652 C   0  0  2  0  0  0  0  0  0  0  0  0
   10.4109  -16.7799   24.9359 N   0  0  0  0  0  0  0  0  0  0  0  0
   10.1690  -17.0401   27.2881 C   0  0  0  0  0  0  0  0  0  0  0  0
   10.2015  -16.6083   28.5995 O   0  0  0  0  0  0  0  0  0  0  0  0
   10.1461  -18.2908   27.0976 O   0  0  0  0  0  0  0  0  0  0  0  0
  2  1  1  1
  2 10  1  0
  3  2  1  0
  4  3  1  0
  4  9  2  0
  5  4  1  0
  6  5  2  0
  6  7  1  0
  7  8  2  0
  8  9  1  0
 10 11  2  0
 12 10  1  0
 12 13  1  0
 13 14  1  6
 14 15  1  0
 15 19  1  0
 16 15  2  0
 17 25  1  0
 17 13  1  0
 18 17  2  0
 20 21  1  0
 22 21  1  0
 23 22  1  0
 24 23  1  6
 24 25  1  0
 26 27  1  0
 26 24  1  0
 28 26  2  0
M  END
$$$$
