FDM.pdb
     RDKit          3D

 28 28  0  0  1  0  0  0  0  0999 V2000
    5.8141  -18.1405   23.6314 N   0  0  0  0  0  0  0  0  0  0  0  0
    6.5970  -16.9659   23.8935 C   0  0  1  0  0  0  0  0  0  0  0  0
    6.0798  -16.3891   25.2174 C   0  0  0  0  0  0  0  0  0  0  0  0
    6.2865  -14.9103   25.1550 C   0  0  0  0  0  0  0  0  0  0  0  0
    5.6734  -14.0635   26.0784 C   0  0  0  0  0  0  0  0  0  0  0  0
    5.8433  -12.6993   26.0489 C   0  0  0  0  0  0  0  0  0  0  0  0
    6.6392  -12.1327   25.0861 C   0  0  0  0  0  0  0  0  0  0  0  0
    7.2527  -12.9408   24.1678 C   0  0  0  0  0  0  0  0  0  0  0  0
    7.0784  -14.3048   24.2031 C   0  0  0  0  0  0  0  0  0  0  0  0
    8.0398  -17.2264   23.9440 C   0  0  0  0  0  0  0  0  0  0  0  0
    8.4790  -18.0800   24.7512 O   0  0  0  0  0  0  0  0  0  0  0  0
    8.9576  -16.5481   23.1127 N   0  0  0  0  0  0  0  0  0  0  0  0
   10.3752  -16.8248   23.0725 C   0  0  1  0  0  0  0  0  0  0  0  0
   11.0009  -16.0114   21.9775 C   0  0  0  0  0  0  0  0  0  0  0  0
   12.3105  -16.4789   21.5435 C   0  0  0  0  0  0  0  0  0  0  0  0
   12.8351  -17.4678   22.1072 O   0  0  0  0  0  0  0  0  0  0  0  0
   10.9539  -16.4421   24.3800 C   0  0  0  0  0  0  0  0  0  0  0  0
   11.5987  -15.3717   24.5119 O   0  0  0  0  0  0  0  0  0  0  0  0
   12.9939  -15.8555   20.5188 O   0  0  0  0  0  0  0  0  0  0  0  0
    9.9299  -12.1863   28.2253 C   0  0  0  0  0  0  0  0  0  0  0  0
   10.8330  -13.6245   28.8021 S   0  0  0  0  0  0  0  0  0  0  0  0
   11.4569  -14.6468   27.4337 C   0  0  0  0  0  0  0  0  0  0  0  0
   11.0332  -16.0608   27.7004 C   0  0  0  0  0  0  0  0  0  0  0  0
   11.6200  -17.0566   26.7430 C   0  0  2  0  0  0  0  0  0  0  0  0
   10.8226  -17.2446   25.5563 N   0  0  0  0  0  0  0  0  0  0  0  0
   11.7862  -18.3686   27.4182 C   0  0  0  0  0  0  0  0  0  0  0  0
   11.1615  -19.5005   26.9326 O   0  0  0  0  0  0  0  0  0  0  0  0
   12.4979  -18.5078   28.4552 O   0  0  0  0  0  0  0  0  0  0  0  0
  2  1  1  1
  2 10  1  0
  3  2  1  0
  4  3  1  0
  4  9  2  0
  5  4  1  0
  6  5  2  0
  6  7  1  0
  7  8  2  0
  8  9  1  0
 10 11  2  0
 12 10  1  0
 12 13  1  0
 13 14  1  6
 14 15  1  0
 15 19  1  0
 16 15  2  0
 17 25  1  0
 17 13  1  0
 18 17  2  0
 20 21  1  0
 22 21  1  0
 23 22  1  0
 24 23  1  1
 24 25  1  0
 26 27  1  0
 26 24  1  0
 28 26  2  0
M  END
$$$$
