FDM.pdb
     RDKit          3D

 28 28  0  0  1  0  0  0  0  0999 V2000
    7.1807  -18.2533   19.3671 N   0  0  0  0  0  0  0  0  0  0  0  0
    7.7055  -17.1102   20.0592 C   0  0  1  0  0  0  0  0  0  0  0  0
    6.5023  -16.3975   20.6897 C   0  0  0  0  0  0  0  0  0  0  0  0
    7.0025  -15.0944   21.2237 C   0  0  0  0  0  0  0  0  0  0  0  0
    7.4352  -14.0874   20.3609 C   0  0  0  0  0  0  0  0  0  0  0  0
    7.9004  -12.8775   20.8197 C   0  0  0  0  0  0  0  0  0  0  0  0
    7.9484  -12.6334   22.1686 C   0  0  0  0  0  0  0  0  0  0  0  0
    7.5298  -13.6045   23.0372 C   0  0  0  0  0  0  0  0  0  0  0  0
    7.0655  -14.8126   22.5715 C   0  0  0  0  0  0  0  0  0  0  0  0
    8.7190  -17.4514   21.0634 C   0  0  0  0  0  0  0  0  0  0  0  0
    8.4971  -18.3946   21.8599 O   0  0  0  0  0  0  0  0  0  0  0  0
    9.9420  -16.7536   21.1671 N   0  0  0  0  0  0  0  0  0  0  0  0
   10.9684  -17.0534   22.1389 C   0  0  1  0  0  0  0  0  0  0  0  0
   12.2718  -16.4793   21.6660 C   0  0  0  0  0  0  0  0  0  0  0  0
   12.8915  -17.2019   20.5634 C   0  0  0  0  0  0  0  0  0  0  0  0
   12.6852  -18.4312   20.4325 O   0  0  0  0  0  0  0  0  0  0  0  0
   10.5785  -16.4305   23.4238 C   0  0  0  0  0  0  0  0  0  0  0  0
   11.3289  -16.5013   24.4293 O   0  0  0  0  0  0  0  0  0  0  0  0
   13.7069  -16.5620   19.6516 O   0  0  0  0  0  0  0  0  0  0  0  0
    6.6735  -10.5884   26.4632 C   0  0  0  0  0  0  0  0  0  0  0  0
    7.8618  -11.7071   25.7192 S   0  0  0  0  0  0  0  0  0  0  0  0
    7.4154  -13.4535   25.9595 C   0  0  0  0  0  0  0  0  0  0  0  0
    7.7730  -14.1855   24.7000 C   0  0  0  0  0  0  0  0  0  0  0  0
    8.9877  -15.0568   24.8335 C   0  0  2  0  0  0  0  0  0  0  0  0
    9.3501  -15.7215   23.6062 N   0  0  0  0  0  0  0  0  0  0  0  0
    8.7597  -16.0832   25.8820 C   0  0  0  0  0  0  0  0  0  0  0  0
    8.6848  -17.4237   25.5581 O   0  0  0  0  0  0  0  0  0  0  0  0
    8.6254  -15.7811   27.1035 O   0  0  0  0  0  0  0  0  0  0  0  0
  2  1  1  1
  2 10  1  0
  3  2  1  0
  4  3  1  0
  4  9  2  0
  5  4  1  0
  6  5  2  0
  6  7  1  0
  7  8  2  0
  8  9  1  0
 10 11  2  0
 12 10  1  0
 12 13  1  0
 13 14  1  6
 14 15  1  0
 15 19  1  0
 16 15  2  0
 17 25  1  0
 17 13  1  0
 18 17  2  0
 20 21  1  0
 22 21  1  0
 23 22  1  0
 24 23  1  6
 24 25  1  0
 26 27  1  0
 26 24  1  0
 28 26  2  0
M  END
$$$$
