FDM.pdb
     RDKit          3D

 28 28  0  0  1  0  0  0  0  0999 V2000
    6.1117  -16.7868   25.2834 N   0  0  0  0  0  0  0  0  0  0  0  0
    6.7267  -16.7847   23.9860 C   0  0  1  0  0  0  0  0  0  0  0  0
    6.3776  -15.4354   23.3452 C   0  0  0  0  0  0  0  0  0  0  0  0
    6.8524  -14.3746   24.2847 C   0  0  0  0  0  0  0  0  0  0  0  0
    6.1532  -14.0951   25.4589 C   0  0  0  0  0  0  0  0  0  0  0  0
    6.5633  -13.1264   26.3444 C   0  0  0  0  0  0  0  0  0  0  0  0
    7.6963  -12.3992   26.0818 C   0  0  0  0  0  0  0  0  0  0  0  0
    8.4011  -12.6532   24.9366 C   0  0  0  0  0  0  0  0  0  0  0  0
    7.9852  -13.6238   24.0551 C   0  0  0  0  0  0  0  0  0  0  0  0
    8.1765  -17.0046   24.0280 C   0  0  0  0  0  0  0  0  0  0  0  0
    8.7012  -17.4210   25.0883 O   0  0  0  0  0  0  0  0  0  0  0  0
    9.0078  -16.7636   22.9125 N   0  0  0  0  0  0  0  0  0  0  0  0
   10.3976  -17.1515   22.8364 C   0  0  1  0  0  0  0  0  0  0  0  0
   11.0097  -16.5383   21.6109 C   0  0  0  0  0  0  0  0  0  0  0  0
   12.3967  -16.9124   21.3704 C   0  0  0  0  0  0  0  0  0  0  0  0
   12.7830  -18.0734   21.6420 O   0  0  0  0  0  0  0  0  0  0  0  0
   11.0809  -16.6471   24.0487 C   0  0  0  0  0  0  0  0  0  0  0  0
   11.3059  -15.4201   24.1994 O   0  0  0  0  0  0  0  0  0  0  0  0
   13.3041  -16.0133   20.8466 O   0  0  0  0  0  0  0  0  0  0  0  0
   10.1639  -12.9204   28.3325 C   0  0  0  0  0  0  0  0  0  0  0  0
    9.9025  -14.5673   28.9931 S   0  0  0  0  0  0  0  0  0  0  0  0
   11.1804  -15.7427   28.4523 C   0  0  0  0  0  0  0  0  0  0  0  0
   10.8878  -16.0985   27.0248 C   0  0  0  0  0  0  0  0  0  0  0  0
   11.9021  -17.0203   26.4133 C   0  0  2  0  0  0  0  0  0  0  0  0
   11.5219  -17.5007   25.1079 N   0  0  0  0  0  0  0  0  0  0  0  0
   12.1253  -18.1872   27.3041 C   0  0  0  0  0  0  0  0  0  0  0  0
   12.6811  -18.0262   28.5581 O   0  0  0  0  0  0  0  0  0  0  0  0
   11.8210  -19.3662   26.9599 O   0  0  0  0  0  0  0  0  0  0  0  0
  2  1  1  1
  2 10  1  0
  3  2  1  0
  4  3  1  0
  4  9  2  0
  5  4  1  0
  6  5  2  0
  6  7  1  0
  7  8  2  0
  8  9  1  0
 10 11  2  0
 12 10  1  0
 12 13  1  0
 13 14  1  6
 14 15  1  0
 15 19  1  0
 16 15  2  0
 17 25  1  0
 17 13  1  0
 18 17  2  0
 20 21  1  0
 22 21  1  0
 23 22  1  0
 24 23  1  1
 24 25  1  0
 26 27  1  0
 26 24  1  0
 28 26  2  0
M  END
$$$$
