FDM.pdb
     RDKit          3D

 28 28  0  0  1  0  0  0  0  0999 V2000
    6.1486  -18.2530   20.6054 N   0  0  0  0  0  0  0  0  0  0  0  0
    6.9173  -17.0678   20.8618 C   0  0  1  0  0  0  0  0  0  0  0  0
    5.9157  -15.9882   21.2912 C   0  0  0  0  0  0  0  0  0  0  0  0
    6.6127  -14.6732   21.1559 C   0  0  0  0  0  0  0  0  0  0  0  0
    6.8740  -13.8844   22.2763 C   0  0  0  0  0  0  0  0  0  0  0  0
    7.5135  -12.6705   22.1863 C   0  0  0  0  0  0  0  0  0  0  0  0
    7.9159  -12.2018   20.9616 C   0  0  0  0  0  0  0  0  0  0  0  0
    7.6719  -12.9559   19.8460 C   0  0  0  0  0  0  0  0  0  0  0  0
    7.0316  -14.1695   19.9433 C   0  0  0  0  0  0  0  0  0  0  0  0
    7.9684  -17.2609   21.8668 C   0  0  0  0  0  0  0  0  0  0  0  0
    7.6875  -17.8452   22.9405 O   0  0  0  0  0  0  0  0  0  0  0  0
    9.2920  -16.8110   21.6689 N   0  0  0  0  0  0  0  0  0  0  0  0
   10.3922  -17.1083   22.5572 C   0  0  1  0  0  0  0  0  0  0  0  0
   11.6836  -16.8239   21.8475 C   0  0  0  0  0  0  0  0  0  0  0  0
   12.8784  -17.2551   22.5606 C   0  0  0  0  0  0  0  0  0  0  0  0
   13.9769  -16.6997   22.3247 O   0  0  0  0  0  0  0  0  0  0  0  0
   10.2676  -16.2378   23.7478 C   0  0  0  0  0  0  0  0  0  0  0  0
   10.7541  -15.0792   23.7540 O   0  0  0  0  0  0  0  0  0  0  0  0
   12.8311  -18.2681   23.4973 O   0  0  0  0  0  0  0  0  0  0  0  0
    7.3101  -11.5492   27.0111 C   0  0  0  0  0  0  0  0  0  0  0  0
    6.8243  -13.1220   26.2991 S   0  0  0  0  0  0  0  0  0  0  0  0
    8.2395  -14.0471   25.6293 C   0  0  0  0  0  0  0  0  0  0  0  0
    8.5486  -15.1543   26.5930 C   0  0  0  0  0  0  0  0  0  0  0  0
    9.7500  -15.9684   26.2104 C   0  0  2  0  0  0  0  0  0  0  0  0
    9.6009  -16.6448   24.9456 N   0  0  0  0  0  0  0  0  0  0  0  0
   10.0300  -16.9793   27.2614 C   0  0  0  0  0  0  0  0  0  0  0  0
   10.4084  -16.5947   28.5327 O   0  0  0  0  0  0  0  0  0  0  0  0
    9.9363  -18.2223   27.0435 O   0  0  0  0  0  0  0  0  0  0  0  0
  2  1  1  1
  2 10  1  0
  3  2  1  0
  4  3  1  0
  4  9  2  0
  5  4  1  0
  6  5  2  0
  6  7  1  0
  7  8  2  0
  8  9  1  0
 10 11  2  0
 12 10  1  0
 12 13  1  0
 13 14  1  6
 14 15  1  0
 15 19  1  0
 16 15  2  0
 17 25  1  0
 17 13  1  0
 18 17  2  0
 20 21  1  0
 22 21  1  0
 23 22  1  0
 24 23  1  1
 24 25  1  0
 26 27  1  0
 26 24  1  0
 28 26  2  0
M  END
$$$$
