LEA.pdb
     RDKit          3D

 23 22  0  0  1  0  0  0  0  0999 V2000
   32.3811  -35.9032   -6.9183 C   0  0  0  0  0  0  0  0  0  0  0  0
   32.0639  -34.4185   -6.9139 C   0  0  2  0  0  0  0  0  0  0  0  0
   33.1832  -33.6910   -7.6781 C   0  0  0  0  0  0  0  0  0  0  0  0
   31.9618  -33.8852   -5.5043 C   0  0  0  0  0  0  0  0  0  0  0  0
   30.7351  -34.4454   -4.8571 C   0  0  2  0  0  0  0  0  0  0  0  0
   29.5656  -33.9030   -5.4173 N   0  0  0  0  0  0  0  0  0  0  0  0
   30.7247  -34.2866   -3.3917 C   0  0  0  0  0  0  0  0  0  0  0  0
   30.3042  -33.2683   -2.7988 O   0  0  0  0  0  0  0  0  0  0  0  0
   31.2245  -35.3560   -2.5900 N   0  0  0  0  0  0  0  0  0  0  0  0
   31.2101  -35.2625   -1.1390 C   0  0  1  0  0  0  0  0  0  0  0  0
   30.1200  -36.1262   -0.5796 C   0  0  0  0  0  0  0  0  0  0  0  0
   30.0294  -36.1687    0.9152 C   0  0  0  0  0  0  0  0  0  0  0  0
   28.6253  -35.7736    1.2501 C   0  0  0  0  0  0  0  0  0  0  0  0
   28.1998  -34.6003    1.0835 O   0  0  0  0  0  0  0  0  0  0  0  0
   32.4870  -35.8286   -0.5843 C   0  0  0  0  0  0  0  0  0  0  0  0
   32.8732  -36.9591   -0.9852 O   0  0  0  0  0  0  0  0  0  0  0  0
   27.7718  -36.7343    1.7623 O   0  0  0  0  0  0  0  0  0  0  0  0
   35.1487  -34.7193    1.7972 C   0  0  0  0  0  0  0  0  0  0  0  0
   34.5112  -35.7824    0.9000 C   0  0  2  0  0  0  0  0  0  0  0  0
   33.2949  -35.1661    0.3744 N   0  0  0  0  0  0  0  0  0  0  0  0
   34.2816  -36.9925    1.6771 C   0  0  0  0  0  0  0  0  0  0  0  0
   32.9976  -37.4081    1.9727 O   0  0  0  0  0  0  0  0  0  0  0  0
   35.2379  -37.6914    2.0994 O   0  0  0  0  0  0  0  0  0  0  0  0
  2  1  1  1
  2  4  1  0
  2  3  1  0
  5  7  1  0
  5  6  1  6
  5  4  1  0
  7  8  2  0
  9 10  1  0
  9  7  1  0
 10 11  1  1
 12 11  1  0
 13 14  2  0
 13 12  1  0
 15 16  2  0
 15 10  1  0
 17 13  1  0
 19 18  1  1
 19 20  1  0
 19 21  1  0
 20 15  1  0
 21 23  2  0
 21 22  1  0
M  END
$$$$
