LEA.pdb
     RDKit          3D

 23 22  0  0  1  0  0  0  0  0999 V2000
   27.2103  -10.2648  -16.9358 C   0  0  0  0  0  0  0  0  0  0  0  0
   25.8542  -10.3523  -16.2588 C   0  0  2  0  0  0  0  0  0  0  0  0
   26.0854  -10.4315  -14.7401 C   0  0  0  0  0  0  0  0  0  0  0  0
   25.0828  -11.5612  -16.7335 C   0  0  0  0  0  0  0  0  0  0  0  0
   23.6989  -11.5111  -16.1683 C   0  0  2  0  0  0  0  0  0  0  0  0
   22.9735  -12.6734  -16.4822 N   0  0  0  0  0  0  0  0  0  0  0  0
   22.9465  -10.3103  -16.5740 C   0  0  0  0  0  0  0  0  0  0  0  0
   22.7869   -9.9496  -17.7613 O   0  0  0  0  0  0  0  0  0  0  0  0
   22.3599   -9.5011  -15.5556 N   0  0  0  0  0  0  0  0  0  0  0  0
   21.5688   -8.3317  -15.9033 C   0  0  1  0  0  0  0  0  0  0  0  0
   20.1509   -8.5188  -15.4541 C   0  0  0  0  0  0  0  0  0  0  0  0
   19.2523   -9.2260  -16.4221 C   0  0  0  0  0  0  0  0  0  0  0  0
   17.8849   -9.1829  -15.8155 C   0  0  0  0  0  0  0  0  0  0  0  0
   17.5002  -10.0285  -14.9656 O   0  0  0  0  0  0  0  0  0  0  0  0
   22.0710   -7.1380  -15.1407 C   0  0  0  0  0  0  0  0  0  0  0  0
   22.3372   -7.2693  -13.9161 O   0  0  0  0  0  0  0  0  0  0  0  0
   17.0181   -8.1788  -16.2083 O   0  0  0  0  0  0  0  0  0  0  0  0
   23.2075   -3.6892  -15.9911 C   0  0  0  0  0  0  0  0  0  0  0  0
   22.8741   -4.7665  -14.9568 C   0  0  2  0  0  0  0  0  0  0  0  0
   22.2653   -5.8566  -15.7160 N   0  0  0  0  0  0  0  0  0  0  0  0
   22.0119   -4.1970  -13.9305 C   0  0  0  0  0  0  0  0  0  0  0  0
   22.5490   -3.5029  -12.8634 O   0  0  0  0  0  0  0  0  0  0  0  0
   20.7614   -4.3181  -13.9839 O   0  0  0  0  0  0  0  0  0  0  0  0
  2  1  1  6
  2  4  1  0
  2  3  1  0
  5  7  1  0
  5  6  1  6
  5  4  1  0
  7  8  2  0
  9 10  1  0
  9  7  1  0
 10 11  1  1
 12 11  1  0
 13 14  2  0
 13 12  1  0
 15 16  2  0
 15 10  1  0
 17 13  1  0
 19 18  1  6
 19 20  1  0
 19 21  1  0
 20 15  1  0
 21 23  2  0
 21 22  1  0
M  END
$$$$
