LEA.pdb
     RDKit          3D

 23 22  0  0  1  0  0  0  0  0999 V2000
   26.9514  -18.4041   -7.4104 C   0  0  0  0  0  0  0  0  0  0  0  0
   27.1806  -19.8860   -7.1731 C   0  0  2  0  0  0  0  0  0  0  0  0
   28.5015  -20.0451   -6.4011 C   0  0  0  0  0  0  0  0  0  0  0  0
   27.2431  -20.6455   -8.4774 C   0  0  0  0  0  0  0  0  0  0  0  0
   25.9547  -20.4592   -9.2141 C   0  0  2  0  0  0  0  0  0  0  0  0
   24.8853  -21.0764   -8.5426 N   0  0  0  0  0  0  0  0  0  0  0  0
   26.0131  -20.9137  -10.6150 C   0  0  0  0  0  0  0  0  0  0  0  0
   26.5045  -22.0050  -10.9792 O   0  0  0  0  0  0  0  0  0  0  0  0
   25.4785  -20.0618  -11.6273 N   0  0  0  0  0  0  0  0  0  0  0  0
   25.4271  -20.5005  -13.0127 C   0  0  1  0  0  0  0  0  0  0  0  0
   24.0015  -20.6340  -13.4564 C   0  0  0  0  0  0  0  0  0  0  0  0
   23.2907  -21.8680  -12.9910 C   0  0  0  0  0  0  0  0  0  0  0  0
   21.9399  -21.8276  -13.6342 C   0  0  0  0  0  0  0  0  0  0  0  0
   21.7592  -22.1500  -14.8378 O   0  0  0  0  0  0  0  0  0  0  0  0
   26.0199  -19.4417  -13.8994 C   0  0  0  0  0  0  0  0  0  0  0  0
   25.6425  -18.2482  -13.7537 O   0  0  0  0  0  0  0  0  0  0  0  0
   20.8578  -21.4187  -12.8755 O   0  0  0  0  0  0  0  0  0  0  0  0
   28.7322  -19.2238  -16.4482 C   0  0  0  0  0  0  0  0  0  0  0  0
   27.4992  -18.6342  -15.7602 C   0  0  2  0  0  0  0  0  0  0  0  0
   26.9867  -19.7015  -14.9036 N   0  0  0  0  0  0  0  0  0  0  0  0
   26.5579  -18.1745  -16.7720 C   0  0  0  0  0  0  0  0  0  0  0  0
   26.7758  -16.9923  -17.4530 O   0  0  0  0  0  0  0  0  0  0  0  0
   25.5260  -18.8349  -17.0553 O   0  0  0  0  0  0  0  0  0  0  0  0
  2  1  1  6
  2  4  1  0
  2  3  1  0
  5  7  1  0
  5  6  1  1
  5  4  1  0
  7  8  2  0
  9 10  1  0
  9  7  1  0
 10 11  1  6
 12 11  1  0
 13 14  2  0
 13 12  1  0
 15 16  2  0
 15 10  1  0
 17 13  1  0
 19 18  1  6
 19 20  1  0
 19 21  1  0
 20 15  1  0
 21 23  2  0
 21 22  1  0
M  END
$$$$
