LEA.pdb
     RDKit          3D

 23 22  0  0  1  0  0  0  0  0999 V2000
   26.8086  -10.2261  -15.0946 C   0  0  0  0  0  0  0  0  0  0  0  0
   25.8716  -10.9912  -16.0120 C   0  0  2  0  0  0  0  0  0  0  0  0
   26.7049  -12.0268  -16.7861 C   0  0  0  0  0  0  0  0  0  0  0  0
   25.1685  -10.0622  -16.9735 C   0  0  0  0  0  0  0  0  0  0  0  0
   24.3193   -9.1063  -16.1973 C   0  0  2  0  0  0  0  0  0  0  0  0
   23.3591   -9.7826  -15.4252 N   0  0  0  0  0  0  0  0  0  0  0  0
   23.6739   -8.0833  -17.0397 C   0  0  0  0  0  0  0  0  0  0  0  0
   24.2779   -7.3877  -17.8863 O   0  0  0  0  0  0  0  0  0  0  0  0
   22.2722   -7.8645  -16.8869 N   0  0  0  0  0  0  0  0  0  0  0  0
   21.5727   -6.9204  -17.7435 C   0  0  1  0  0  0  0  0  0  0  0  0
   20.1173   -7.2722  -17.8144 C   0  0  0  0  0  0  0  0  0  0  0  0
   19.7761   -8.4489  -18.6767 C   0  0  0  0  0  0  0  0  0  0  0  0
   18.2894   -8.5985  -18.5930 C   0  0  0  0  0  0  0  0  0  0  0  0
   17.5788   -7.8514  -17.8704 O   0  0  0  0  0  0  0  0  0  0  0  0
   21.6189   -5.5503  -17.1276 C   0  0  0  0  0  0  0  0  0  0  0  0
   21.5337   -5.4460  -15.8746 O   0  0  0  0  0  0  0  0  0  0  0  0
   17.6819   -9.5953  -19.3354 O   0  0  0  0  0  0  0  0  0  0  0  0
   22.0659   -2.0376  -18.3281 C   0  0  0  0  0  0  0  0  0  0  0  0
   21.7518   -3.0450  -17.2199 C   0  0  2  0  0  0  0  0  0  0  0  0
   21.7516   -4.3519  -17.8738 N   0  0  0  0  0  0  0  0  0  0  0  0
   20.4869   -2.6896  -16.5917 C   0  0  0  0  0  0  0  0  0  0  0  0
   20.4463   -1.7797  -15.5527 O   0  0  0  0  0  0  0  0  0  0  0  0
   19.4007   -3.1955  -16.9731 O   0  0  0  0  0  0  0  0  0  0  0  0
  2  1  1  1
  2  4  1  0
  2  3  1  0
  5  7  1  0
  5  6  1  6
  5  4  1  0
  7  8  2  0
  9 10  1  0
  9  7  1  0
 10 11  1  1
 12 11  1  0
 13 14  2  0
 13 12  1  0
 15 16  2  0
 15 10  1  0
 17 13  1  0
 19 18  1  6
 19 20  1  0
 19 21  1  0
 20 15  1  0
 21 23  2  0
 21 22  1  0
M  END
$$$$
