LEA.pdb
     RDKit          3D

 23 22  0  0  1  0  0  0  0  0999 V2000
   29.0021  -19.4845  -16.3464 C   0  0  0  0  0  0  0  0  0  0  0  0
   27.4909  -19.4950  -16.4924 C   0  0  2  0  0  0  0  0  0  0  0  0
   27.1276  -18.6624  -17.7338 C   0  0  0  0  0  0  0  0  0  0  0  0
   26.8189  -18.9245  -15.2657 C   0  0  0  0  0  0  0  0  0  0  0  0
   27.2944  -19.6673  -14.0576 C   0  0  2  0  0  0  0  0  0  0  0  0
   27.2429  -21.0578  -14.2564 N   0  0  0  0  0  0  0  0  0  0  0  0
   26.5754  -19.2972  -12.8252 C   0  0  0  0  0  0  0  0  0  0  0  0
   26.1887  -18.1374  -12.5594 O   0  0  0  0  0  0  0  0  0  0  0  0
   26.2989  -20.3190  -11.8685 N   0  0  0  0  0  0  0  0  0  0  0  0
   25.5527  -20.0168  -10.6575 C   0  0  1  0  0  0  0  0  0  0  0  0
   24.3645  -20.9240  -10.5467 C   0  0  0  0  0  0  0  0  0  0  0  0
   23.5285  -21.0511  -11.7834 C   0  0  0  0  0  0  0  0  0  0  0  0
   22.1163  -21.1924  -11.3084 C   0  0  0  0  0  0  0  0  0  0  0  0
   21.8310  -21.6968  -10.1906 O   0  0  0  0  0  0  0  0  0  0  0  0
   26.3986  -20.3242   -9.4539 C   0  0  0  0  0  0  0  0  0  0  0  0
   26.9665  -21.4468   -9.3830 O   0  0  0  0  0  0  0  0  0  0  0  0
   21.0944  -20.7544  -12.1316 O   0  0  0  0  0  0  0  0  0  0  0  0
   27.9771  -18.4712   -6.6870 C   0  0  0  0  0  0  0  0  0  0  0  0
   27.4133  -19.7898   -7.2206 C   0  0  2  0  0  0  0  0  0  0  0  0
   26.6002  -19.4228   -8.3780 N   0  0  0  0  0  0  0  0  0  0  0  0
   26.6758  -20.4616   -6.1595 C   0  0  0  0  0  0  0  0  0  0  0  0
   27.3105  -20.8479   -4.9946 O   0  0  0  0  0  0  0  0  0  0  0  0
   25.4477  -20.7083   -6.2697 O   0  0  0  0  0  0  0  0  0  0  0  0
  2  1  1  1
  2  4  1  0
  2  3  1  0
  5  7  1  0
  5  6  1  6
  5  4  1  0
  7  8  2  0
  9 10  1  0
  9  7  1  0
 10 11  1  1
 12 11  1  0
 13 14  2  0
 13 12  1  0
 15 16  2  0
 15 10  1  0
 17 13  1  0
 19 18  1  1
 19 20  1  0
 19 21  1  0
 20 15  1  0
 21 23  2  0
 21 22  1  0
M  END
$$$$
