LEA.pdb
     RDKit          3D

 23 22  0  0  1  0  0  0  0  0999 V2000
   29.7833  -15.3101  -17.5987 C   0  0  0  0  0  0  0  0  0  0  0  0
   29.8717  -14.6904  -18.9818 C   0  0  2  0  0  0  0  0  0  0  0  0
   30.1608  -15.8162  -19.9894 C   0  0  0  0  0  0  0  0  0  0  0  0
   30.9581  -13.6426  -19.0433 C   0  0  0  0  0  0  0  0  0  0  0  0
   30.6248  -12.5364  -18.0933 C   0  0  2  0  0  0  0  0  0  0  0  0
   29.2717  -12.1679  -18.1884 N   0  0  0  0  0  0  0  0  0  0  0  0
   31.4916  -11.3543  -18.2477 C   0  0  0  0  0  0  0  0  0  0  0  0
   32.7353  -11.4071  -18.3728 O   0  0  0  0  0  0  0  0  0  0  0  0
   30.8833  -10.0635  -18.2556 N   0  0  0  0  0  0  0  0  0  0  0  0
   31.6816   -8.8705  -18.4875 C   0  0  1  0  0  0  0  0  0  0  0  0
   30.9201   -7.9009  -19.3402 C   0  0  0  0  0  0  0  0  0  0  0  0
   30.7989   -8.2671  -20.7879 C   0  0  0  0  0  0  0  0  0  0  0  0
   29.4892   -7.7037  -21.2429 C   0  0  0  0  0  0  0  0  0  0  0  0
   29.4059   -6.6047  -21.8516 O   0  0  0  0  0  0  0  0  0  0  0  0
   31.9114   -8.1563  -17.1853 C   0  0  0  0  0  0  0  0  0  0  0  0
   30.9345   -7.9832  -16.4084 O   0  0  0  0  0  0  0  0  0  0  0  0
   28.3343   -8.4184  -20.9800 O   0  0  0  0  0  0  0  0  0  0  0  0
   34.8310   -6.7572  -15.3207 C   0  0  0  0  0  0  0  0  0  0  0  0
   33.3223   -6.9250  -15.5131 C   0  0  2  0  0  0  0  0  0  0  0  0
   33.1714   -7.6561  -16.7693 N   0  0  0  0  0  0  0  0  0  0  0  0
   32.6878   -5.6142  -15.5032 C   0  0  0  0  0  0  0  0  0  0  0  0
   32.3551   -5.0004  -14.3108 O   0  0  0  0  0  0  0  0  0  0  0  0
   32.4256   -5.0049  -16.5714 O   0  0  0  0  0  0  0  0  0  0  0  0
  2  1  1  1
  2  4  1  0
  2  3  1  0
  5  7  1  0
  5  6  1  6
  5  4  1  0
  7  8  2  0
  9 10  1  0
  9  7  1  0
 10 11  1  6
 12 11  1  0
 13 14  2  0
 13 12  1  0
 15 16  2  0
 15 10  1  0
 17 13  1  0
 19 18  1  6
 19 20  1  0
 19 21  1  0
 20 15  1  0
 21 23  2  0
 21 22  1  0
M  END
$$$$
