LEA.pdb
     RDKit          3D

 23 22  0  0  1  0  0  0  0  0999 V2000
   29.1813  -17.5834  -17.9932 C   0  0  0  0  0  0  0  0  0  0  0  0
   27.7963  -16.9729  -18.1111 C   0  0  2  0  0  0  0  0  0  0  0  0
   27.9249  -15.6480  -18.8821 C   0  0  0  0  0  0  0  0  0  0  0  0
   27.1887  -16.7282  -16.7498 C   0  0  0  0  0  0  0  0  0  0  0  0
   27.1227  -18.0229  -16.0039 C   0  0  2  0  0  0  0  0  0  0  0  0
   26.8955  -19.1048  -16.8720 N   0  0  0  0  0  0  0  0  0  0  0  0
   26.1282  -18.0191  -14.9160 C   0  0  0  0  0  0  0  0  0  0  0  0
   25.9360  -17.0536  -14.1438 O   0  0  0  0  0  0  0  0  0  0  0  0
   25.3297  -19.1858  -14.7228 N   0  0  0  0  0  0  0  0  0  0  0  0
   24.3629  -19.2498  -13.6385 C   0  0  1  0  0  0  0  0  0  0  0  0
   23.1018  -19.9066  -14.1132 C   0  0  0  0  0  0  0  0  0  0  0  0
   22.2696  -19.1010  -15.0636 C   0  0  0  0  0  0  0  0  0  0  0  0
   21.0649  -19.9377  -15.3609 C   0  0  0  0  0  0  0  0  0  0  0  0
   20.5102  -19.9389  -16.4912 O   0  0  0  0  0  0  0  0  0  0  0  0
   24.8866  -20.1412  -12.5477 C   0  0  0  0  0  0  0  0  0  0  0  0
   25.1146  -21.3521  -12.8117 O   0  0  0  0  0  0  0  0  0  0  0  0
   20.5466  -20.7326  -14.3543 O   0  0  0  0  0  0  0  0  0  0  0  0
   26.1445  -19.8075   -9.0680 C   0  0  0  0  0  0  0  0  0  0  0  0
   25.4854  -20.6489  -10.1631 C   0  0  2  0  0  0  0  0  0  0  0  0
   25.1422  -19.7037  -11.2234 N   0  0  0  0  0  0  0  0  0  0  0  0
   24.3447  -21.3596   -9.6021 C   0  0  0  0  0  0  0  0  0  0  0  0
   24.5295  -22.3910   -8.7015 O   0  0  0  0  0  0  0  0  0  0  0  0
   23.1653  -21.0582   -9.9173 O   0  0  0  0  0  0  0  0  0  0  0  0
  2  1  1  1
  2  4  1  0
  2  3  1  0
  5  7  1  0
  5  6  1  6
  5  4  1  0
  7  8  2  0
  9 10  1  0
  9  7  1  0
 10 11  1  6
 12 11  1  0
 13 14  2  0
 13 12  1  0
 15 16  2  0
 15 10  1  0
 17 13  1  0
 19 18  1  1
 19 20  1  0
 19 21  1  0
 20 15  1  0
 21 23  2  0
 21 22  1  0
M  END
$$$$
