WID.pdb
     RDKit          3D

 31 32  0  0  1  0  0  0  0  0999 V2000
    6.4942  -17.4924   25.5347 N   0  0  0  0  0  0  0  0  0  0  0  0
    7.1188  -16.2349   25.1667 C   0  0  1  0  0  0  0  0  0  0  0  0
    8.3085  -15.9184   26.0477 C   0  0  0  0  0  0  0  0  0  0  0  0
    8.0319  -14.8146   26.9858 C   0  0  0  0  0  0  0  0  0  0  0  0
    8.3186  -14.8030   28.3304 C   0  0  0  0  0  0  0  0  0  0  0  0
    7.9043  -13.6178   28.7956 N   0  0  0  0  0  0  0  0  0  0  0  0
    7.3655  -12.8770   27.7964 C   0  0  0  0  0  0  0  0  0  0  0  0
    6.8172  -11.6289   27.7715 C   0  0  0  0  0  0  0  0  0  0  0  0
    6.3437  -11.1490   26.5533 C   0  0  0  0  0  0  0  0  0  0  0  0
    6.4177  -11.8917   25.4064 C   0  0  0  0  0  0  0  0  0  0  0  0
    6.9702  -13.1491   25.4304 C   0  0  0  0  0  0  0  0  0  0  0  0
    7.4452  -13.6310   26.6525 C   0  0  0  0  0  0  0  0  0  0  0  0
    7.6405  -16.3992   23.7781 C   0  0  0  0  0  0  0  0  0  0  0  0
    7.7464  -17.6035   23.3756 O   0  0  0  0  0  0  0  0  0  0  0  0
    7.1801  -12.5200   19.9421 C   0  0  0  0  0  0  0  0  0  0  0  0
    7.1037  -13.8685   20.5960 C   0  0  0  0  0  0  0  0  0  0  0  0
    8.4749  -14.4428   20.7137 C   0  0  2  0  0  0  0  0  0  0  0  0
    8.9317  -14.8366   19.3116 C   0  0  0  0  0  0  0  0  0  0  0  0
    8.5482  -15.6285   21.6266 C   0  0  2  0  0  0  0  0  0  0  0  0
    8.0030  -15.3436   22.9368 N   0  0  0  0  0  0  0  0  0  0  0  0
    9.9501  -16.1474   21.7409 C   0  0  0  0  0  0  0  0  0  0  0  0
   10.7939  -15.4525   22.3334 O   0  0  0  0  0  0  0  0  0  0  0  0
   10.3216  -17.3848   21.1983 N   0  0  0  0  0  0  0  0  0  0  0  0
   11.7205  -17.8208   21.3399 C   0  0  1  0  0  0  0  0  0  0  0  0
   11.7715  -19.2881   21.5991 C   0  0  0  0  0  0  0  0  0  0  0  0
   11.5540  -19.6395   23.0014 C   0  0  0  0  0  0  0  0  0  0  0  0
   12.2492  -19.3072   23.9703 O   0  0  0  0  0  0  0  0  0  0  0  0
   12.4596  -17.4147   20.1190 C   0  0  0  0  0  0  0  0  0  0  0  0
   13.8206  -17.3102   20.0675 O   0  0  0  0  0  0  0  0  0  0  0  0
   10.4259  -20.4506   23.3089 O   0  0  0  0  0  0  0  0  0  0  0  0
   11.8270  -17.1476   19.0667 O   0  0  0  0  0  0  0  0  0  0  0  0
  2 13  1  0
  2  3  1  0
  2  1  1  1
  4  3  1  0
  4  5  2  0
  6  5  1  0
  7  6  1  0
  8  7  2  0
  9  8  1  0
 10  9  2  0
 10 11  1  0
 11 12  2  0
 12  7  1  0
 12  4  1  0
 13 14  2  0
 16 15  1  0
 17 16  1  0
 17 19  1  0
 17 18  1  6
 19 21  1  0
 19 20  1  1
 20 13  1  0
 21 22  2  0
 23 21  1  0
 23 24  1  0
 24 28  1  0
 24 25  1  6
 26 25  1  0
 26 27  2  0
 28 31  2  0
 28 29  1  0
 30 26  1  0
M  END
$$$$
