WID.pdb
     RDKit          3D

 31 32  0  0  1  0  0  0  0  0999 V2000
    6.8212  -18.0344   24.2482 N   0  0  0  0  0  0  0  0  0  0  0  0
    7.1270  -16.6334   24.0232 C   0  0  1  0  0  0  0  0  0  0  0  0
    7.8766  -16.0265   25.1901 C   0  0  0  0  0  0  0  0  0  0  0  0
    7.0243  -15.1370   26.0007 C   0  0  0  0  0  0  0  0  0  0  0  0
    5.8694  -15.4961   26.6545 C   0  0  0  0  0  0  0  0  0  0  0  0
    5.4198  -14.3915   27.2631 N   0  0  0  0  0  0  0  0  0  0  0  0
    6.2463  -13.3449   27.0198 C   0  0  0  0  0  0  0  0  0  0  0  0
    6.2146  -12.0393   27.4115 C   0  0  0  0  0  0  0  0  0  0  0  0
    7.2399  -11.2033   26.9774 C   0  0  0  0  0  0  0  0  0  0  0  0
    8.2561  -11.6594   26.1825 C   0  0  0  0  0  0  0  0  0  0  0  0
    8.2890  -12.9747   25.7876 C   0  0  0  0  0  0  0  0  0  0  0  0
    7.2604  -13.8136   26.2227 C   0  0  0  0  0  0  0  0  0  0  0  0
    8.0397  -16.5721   22.8439 C   0  0  0  0  0  0  0  0  0  0  0  0
    8.3161  -17.6960   22.3109 O   0  0  0  0  0  0  0  0  0  0  0  0
    7.6568  -12.3712   18.5947 C   0  0  0  0  0  0  0  0  0  0  0  0
    8.2591  -13.6965   18.9588 C   0  0  0  0  0  0  0  0  0  0  0  0
    8.1221  -13.9187   20.4271 C   0  0  2  0  0  0  0  0  0  0  0  0
    8.8363  -12.7709   21.1357 C   0  0  0  0  0  0  0  0  0  0  0  0
    8.6825  -15.2301   20.8862 C   0  0  2  0  0  0  0  0  0  0  0  0
    8.5818  -15.3950   22.3207 N   0  0  0  0  0  0  0  0  0  0  0  0
   10.1005  -15.4098   20.4337 C   0  0  0  0  0  0  0  0  0  0  0  0
   10.3391  -15.4060   19.2135 O   0  0  0  0  0  0  0  0  0  0  0  0
   11.1474  -15.5806   21.3493 N   0  0  0  0  0  0  0  0  0  0  0  0
   12.4990  -15.8418   20.8278 C   0  0  1  0  0  0  0  0  0  0  0  0
   12.6286  -17.2780   20.4492 C   0  0  0  0  0  0  0  0  0  0  0  0
   13.1903  -18.1116   21.5108 C   0  0  0  0  0  0  0  0  0  0  0  0
   13.2241  -19.3484   21.5492 O   0  0  0  0  0  0  0  0  0  0  0  0
   12.7489  -14.9125   19.6983 C   0  0  0  0  0  0  0  0  0  0  0  0
   11.7879  -14.5555   18.7956 O   0  0  0  0  0  0  0  0  0  0  0  0
   13.7664  -17.4499   22.6312 O   0  0  0  0  0  0  0  0  0  0  0  0
   13.8921  -14.4152   19.5408 O   0  0  0  0  0  0  0  0  0  0  0  0
  2 13  1  0
  2  3  1  0
  2  1  1  1
  4  3  1  0
  4  5  2  0
  6  5  1  0
  7  6  1  0
  8  7  2  0
  9  8  1  0
 10  9  2  0
 10 11  1  0
 11 12  2  0
 12  7  1  0
 12  4  1  0
 13 14  2  0
 16 15  1  0
 17 16  1  0
 17 19  1  0
 17 18  1  1
 19 21  1  0
 19 20  1  1
 20 13  1  0
 21 22  2  0
 23 21  1  0
 23 24  1  0
 24 28  1  0
 24 25  1  6
 26 25  1  0
 26 27  2  0
 28 31  2  0
 28 29  1  0
 30 26  1  0
M  END
$$$$
