WID.pdb
     RDKit          3D

 31 32  0  0  1  0  0  0  0  0999 V2000
    6.1699  -17.2012   25.0368 N   0  0  0  0  0  0  0  0  0  0  0  0
    6.9126  -16.0182   24.6424 C   0  0  1  0  0  0  0  0  0  0  0  0
    8.1924  -15.8662   25.4366 C   0  0  0  0  0  0  0  0  0  0  0  0
    8.0026  -15.0552   26.6536 C   0  0  0  0  0  0  0  0  0  0  0  0
    8.1901  -15.4797   27.9477 C   0  0  0  0  0  0  0  0  0  0  0  0
    7.9097  -14.4330   28.7339 N   0  0  0  0  0  0  0  0  0  0  0  0
    7.5511  -13.3601   27.9870 C   0  0  0  0  0  0  0  0  0  0  0  0
    7.1822  -12.0906   28.3209 C   0  0  0  0  0  0  0  0  0  0  0  0
    6.8682  -11.2102   27.2890 C   0  0  0  0  0  0  0  0  0  0  0  0
    6.9225  -11.5886   25.9751 C   0  0  0  0  0  0  0  0  0  0  0  0
    7.2943  -12.8673   25.6377 C   0  0  0  0  0  0  0  0  0  0  0  0
    7.6091  -13.7509   26.6728 C   0  0  0  0  0  0  0  0  0  0  0  0
    7.3088  -16.2096   23.2163 C   0  0  0  0  0  0  0  0  0  0  0  0
    7.1435  -17.3874   22.7591 O   0  0  0  0  0  0  0  0  0  0  0  0
    7.4691  -12.0226   19.8954 C   0  0  0  0  0  0  0  0  0  0  0  0
    7.1103  -13.3993   20.3728 C   0  0  0  0  0  0  0  0  0  0  0  0
    8.2669  -14.3165   20.1608 C   0  0  2  0  0  0  0  0  0  0  0  0
    8.2545  -14.7431   18.6954 C   0  0  0  0  0  0  0  0  0  0  0  0
    8.2386  -15.5257   21.0450 C   0  0  2  0  0  0  0  0  0  0  0  0
    7.8297  -15.2051   22.3959 N   0  0  0  0  0  0  0  0  0  0  0  0
    9.5599  -16.2341   21.0487 C   0  0  0  0  0  0  0  0  0  0  0  0
   10.4760  -15.7779   21.7548 O   0  0  0  0  0  0  0  0  0  0  0  0
    9.7780  -17.3852   20.2800 N   0  0  0  0  0  0  0  0  0  0  0  0
   11.0664  -18.0845   20.4150 C   0  0  1  0  0  0  0  0  0  0  0  0
   12.0335  -17.2283   21.1597 C   0  0  0  0  0  0  0  0  0  0  0  0
   13.3265  -17.0936   20.4910 C   0  0  0  0  0  0  0  0  0  0  0  0
   13.6241  -17.4879   19.3559 O   0  0  0  0  0  0  0  0  0  0  0  0
   10.8183  -19.3937   21.0679 C   0  0  0  0  0  0  0  0  0  0  0  0
   10.4082  -19.5180   22.3649 O   0  0  0  0  0  0  0  0  0  0  0  0
   14.3709  -16.4410   21.2041 O   0  0  0  0  0  0  0  0  0  0  0  0
   10.9865  -20.4564   20.4187 O   0  0  0  0  0  0  0  0  0  0  0  0
  2 13  1  0
  2  3  1  0
  2  1  1  1
  4  3  1  0
  4  5  2  0
  6  5  1  0
  7  6  1  0
  8  7  2  0
  9  8  1  0
 10  9  2  0
 10 11  1  0
 11 12  2  0
 12  7  1  0
 12  4  1  0
 13 14  2  0
 16 15  1  0
 17 16  1  0
 17 19  1  0
 17 18  1  6
 19 21  1  0
 19 20  1  1
 20 13  1  0
 21 22  2  0
 23 21  1  0
 23 24  1  0
 24 28  1  0
 24 25  1  1
 26 25  1  0
 26 27  2  0
 28 31  2  0
 28 29  1  0
 30 26  1  0
M  END
$$$$
