WID.pdb
     RDKit          3D

 31 32  0  0  1  0  0  0  0  0999 V2000
    6.0799  -17.8650   24.3111 N   0  0  0  0  0  0  0  0  0  0  0  0
    6.5702  -16.5101   24.1358 C   0  0  1  0  0  0  0  0  0  0  0  0
    7.4015  -16.0552   25.3163 C   0  0  0  0  0  0  0  0  0  0  0  0
    6.7889  -14.9171   26.0264 C   0  0  0  0  0  0  0  0  0  0  0  0
    5.5826  -14.9280   26.6859 C   0  0  0  0  0  0  0  0  0  0  0  0
    5.4123  -13.6968   27.1839 N   0  0  0  0  0  0  0  0  0  0  0  0
    6.4655  -12.9052   26.8649 C   0  0  0  0  0  0  0  0  0  0  0  0
    6.7487  -11.5996   27.1375 C   0  0  0  0  0  0  0  0  0  0  0  0
    7.9441  -11.0767   26.6516 C   0  0  0  0  0  0  0  0  0  0  0  0
    8.8198  -11.8335   25.9217 C   0  0  0  0  0  0  0  0  0  0  0  0
    8.5354  -13.1490   25.6467 C   0  0  0  0  0  0  0  0  0  0  0  0
    7.3361  -13.6740   26.1339 C   0  0  0  0  0  0  0  0  0  0  0  0
    7.4758  -16.5261   22.9496 C   0  0  0  0  0  0  0  0  0  0  0  0
    8.0575  -17.6371   22.7242 O   0  0  0  0  0  0  0  0  0  0  0  0
    7.0373  -12.5746   19.5539 C   0  0  0  0  0  0  0  0  0  0  0  0
    7.2420  -14.0609   19.5832 C   0  0  0  0  0  0  0  0  0  0  0  0
    8.6056  -14.3652   20.1047 C   0  0  2  0  0  0  0  0  0  0  0  0
    9.5165  -14.6021   18.9031 C   0  0  0  0  0  0  0  0  0  0  0  0
    8.6436  -15.5533   21.0166 C   0  0  2  0  0  0  0  0  0  0  0  0
    7.7068  -15.4306   22.1130 N   0  0  0  0  0  0  0  0  0  0  0  0
   10.0285  -15.8051   21.5327 C   0  0  0  0  0  0  0  0  0  0  0  0
   10.3548  -15.3071   22.6244 O   0  0  0  0  0  0  0  0  0  0  0  0
   10.9498  -16.5803   20.8159 N   0  0  0  0  0  0  0  0  0  0  0  0
   12.1681  -17.0366   21.5047 C   0  0  1  0  0  0  0  0  0  0  0  0
   11.8020  -17.8654   22.6888 C   0  0  0  0  0  0  0  0  0  0  0  0
   12.9535  -18.4783   23.3488 C   0  0  0  0  0  0  0  0  0  0  0  0
   13.7753  -17.9192   24.0868 O   0  0  0  0  0  0  0  0  0  0  0  0
   13.0145  -17.7583   20.5227 C   0  0  0  0  0  0  0  0  0  0  0  0
   14.3710  -17.6129   20.4534 O   0  0  0  0  0  0  0  0  0  0  0  0
   13.1721  -19.8679   23.1337 O   0  0  0  0  0  0  0  0  0  0  0  0
   12.4831  -18.5481   19.7024 O   0  0  0  0  0  0  0  0  0  0  0  0
  2 13  1  0
  2  3  1  0
  2  1  1  1
  4  3  1  0
  4  5  2  0
  6  5  1  0
  7  6  1  0
  8  7  2  0
  9  8  1  0
 10  9  2  0
 10 11  1  0
 11 12  2  0
 12  7  1  0
 12  4  1  0
 13 14  2  0
 16 15  1  0
 17 16  1  0
 17 19  1  0
 17 18  1  6
 19 21  1  0
 19 20  1  1
 20 13  1  0
 21 22  2  0
 23 21  1  0
 23 24  1  0
 24 28  1  0
 24 25  1  1
 26 25  1  0
 26 27  2  0
 28 31  2  0
 28 29  1  0
 30 26  1  0
M  END
$$$$
