WID.pdb
     RDKit          3D

 31 32  0  0  1  0  0  0  0  0999 V2000
    5.7269  -18.2220   24.5262 N   0  0  0  0  0  0  0  0  0  0  0  0
    6.1798  -16.8497   24.3904 C   0  0  1  0  0  0  0  0  0  0  0  0
    6.8365  -16.3457   25.6579 C   0  0  0  0  0  0  0  0  0  0  0  0
    6.3198  -15.0271   26.0693 C   0  0  0  0  0  0  0  0  0  0  0  0
    4.9990  -14.6994   26.2648 C   0  0  0  0  0  0  0  0  0  0  0  0
    4.9784  -13.4112   26.6292 N   0  0  0  0  0  0  0  0  0  0  0  0
    6.2370  -12.9093   26.6722 C   0  0  0  0  0  0  0  0  0  0  0  0
    6.7227  -11.6735   26.9820 C   0  0  0  0  0  0  0  0  0  0  0  0
    8.1008  -11.4823   26.9276 C   0  0  0  0  0  0  0  0  0  0  0  0
    8.9566  -12.4906   26.5767 C   0  0  0  0  0  0  0  0  0  0  0  0
    8.4682  -13.7360   26.2648 C   0  0  0  0  0  0  0  0  0  0  0  0
    7.0857  -13.9283   26.3190 C   0  0  0  0  0  0  0  0  0  0  0  0
    7.2277  -16.8414   23.3277 C   0  0  0  0  0  0  0  0  0  0  0  0
    7.7031  -17.9837   23.0234 O   0  0  0  0  0  0  0  0  0  0  0  0
    7.3506  -12.6533   19.8925 C   0  0  0  0  0  0  0  0  0  0  0  0
    7.3106  -14.1236   20.1899 C   0  0  0  0  0  0  0  0  0  0  0  0
    8.6312  -14.5582   20.7294 C   0  0  2  0  0  0  0  0  0  0  0  0
    9.5747  -14.7447   19.5442 C   0  0  0  0  0  0  0  0  0  0  0  0
    8.5611  -15.8224   21.5303 C   0  0  2  0  0  0  0  0  0  0  0  0
    7.6920  -15.6929   22.6805 N   0  0  0  0  0  0  0  0  0  0  0  0
    9.9248  -16.2830   21.9497 C   0  0  0  0  0  0  0  0  0  0  0  0
   10.5214  -15.6437   22.8337 O   0  0  0  0  0  0  0  0  0  0  0  0
   10.5313  -17.4055   21.3702 N   0  0  0  0  0  0  0  0  0  0  0  0
   11.8709  -17.7979   21.8374 C   0  0  1  0  0  0  0  0  0  0  0  0
   12.0611  -19.2660   21.6593 C   0  0  0  0  0  0  0  0  0  0  0  0
   13.4251  -19.7139   21.9355 C   0  0  0  0  0  0  0  0  0  0  0  0
   14.3787  -19.0169   22.3060 O   0  0  0  0  0  0  0  0  0  0  0  0
   12.8744  -16.9838   21.1081 C   0  0  0  0  0  0  0  0  0  0  0  0
   13.9509  -16.4020   21.7151 O   0  0  0  0  0  0  0  0  0  0  0  0
   13.7095  -21.0981   21.7671 O   0  0  0  0  0  0  0  0  0  0  0  0
   12.7518  -16.8042   19.8704 O   0  0  0  0  0  0  0  0  0  0  0  0
  2 13  1  0
  2  3  1  0
  2  1  1  1
  4  3  1  0
  4  5  2  0
  6  5  1  0
  7  6  1  0
  8  7  2  0
  9  8  1  0
 10  9  2  0
 10 11  1  0
 11 12  2  0
 12  7  1  0
 12  4  1  0
 13 14  2  0
 16 15  1  0
 17 16  1  0
 17 19  1  0
 17 18  1  6
 19 21  1  0
 19 20  1  1
 20 13  1  0
 21 22  2  0
 23 21  1  0
 23 24  1  0
 24 28  1  0
 24 25  1  6
 26 25  1  0
 26 27  2  0
 28 31  2  0
 28 29  1  0
 30 26  1  0
M  END
$$$$
