WID.pdb
     RDKit          3D

 31 32  0  0  1  0  0  0  0  0999 V2000
    6.5211  -16.9795   25.3234 N   0  0  0  0  0  0  0  0  0  0  0  0
    7.1217  -15.7789   24.7714 C   0  0  1  0  0  0  0  0  0  0  0  0
    8.3130  -15.3202   25.5851 C   0  0  0  0  0  0  0  0  0  0  0  0
    7.9241  -14.4253   26.6909 C   0  0  0  0  0  0  0  0  0  0  0  0
    8.0242  -14.7051   28.0332 C   0  0  0  0  0  0  0  0  0  0  0  0
    7.5646  -13.6267   28.6800 N   0  0  0  0  0  0  0  0  0  0  0  0
    7.1765  -12.6731   27.7982 C   0  0  0  0  0  0  0  0  0  0  0  0
    6.6519  -11.4258   27.9662 C   0  0  0  0  0  0  0  0  0  0  0  0
    6.3553  -10.6843   26.8257 C   0  0  0  0  0  0  0  0  0  0  0  0
    6.5764  -11.1748   25.5675 C   0  0  0  0  0  0  0  0  0  0  0  0
    7.1052  -12.4311   25.3973 C   0  0  0  0  0  0  0  0  0  0  0  0
    7.4027  -13.1755   26.5413 C   0  0  0  0  0  0  0  0  0  0  0  0
    7.6347  -16.1338   23.4156 C   0  0  0  0  0  0  0  0  0  0  0  0
    7.6858  -17.3816   23.1628 O   0  0  0  0  0  0  0  0  0  0  0  0
    7.4312  -12.3622   20.1224 C   0  0  0  0  0  0  0  0  0  0  0  0
    7.1715  -13.8392   20.0671 C   0  0  0  0  0  0  0  0  0  0  0  0
    8.4672  -14.5748   20.1306 C   0  0  2  0  0  0  0  0  0  0  0  0
    8.7359  -15.1558   18.7450 C   0  0  0  0  0  0  0  0  0  0  0  0
    8.4822  -15.6683   21.1547 C   0  0  2  0  0  0  0  0  0  0  0  0
    8.0442  -15.2056   22.4543 N   0  0  0  0  0  0  0  0  0  0  0  0
    9.8334  -16.3107   21.2521 C   0  0  0  0  0  0  0  0  0  0  0  0
   10.7672  -15.6566   21.7481 O   0  0  0  0  0  0  0  0  0  0  0  0
   10.0596  -17.6173   20.7992 N   0  0  0  0  0  0  0  0  0  0  0  0
   11.4264  -18.1586   20.8749 C   0  0  1  0  0  0  0  0  0  0  0  0
   11.4137  -19.4740   21.5767 C   0  0  0  0  0  0  0  0  0  0  0  0
   12.6710  -19.7839   22.2552 C   0  0  0  0  0  0  0  0  0  0  0  0
   12.9165  -20.7751   22.9552 O   0  0  0  0  0  0  0  0  0  0  0  0
   11.9734  -18.2338   19.4976 C   0  0  0  0  0  0  0  0  0  0  0  0
   11.2187  -18.0201   18.3793 O   0  0  0  0  0  0  0  0  0  0  0  0
   13.7430  -18.8597   22.1081 O   0  0  0  0  0  0  0  0  0  0  0  0
   13.1875  -18.5063   19.3226 O   0  0  0  0  0  0  0  0  0  0  0  0
  2 13  1  0
  2  3  1  0
  2  1  1  1
  4  3  1  0
  4  5  2  0
  6  5  1  0
  7  6  1  0
  8  7  2  0
  9  8  1  0
 10  9  2  0
 10 11  1  0
 11 12  2  0
 12  7  1  0
 12  4  1  0
 13 14  2  0
 16 15  1  0
 17 16  1  0
 17 19  1  0
 17 18  1  6
 19 21  1  0
 19 20  1  1
 20 13  1  0
 21 22  2  0
 23 21  1  0
 23 24  1  0
 24 28  1  0
 24 25  1  6
 26 25  1  0
 26 27  2  0
 28 31  2  0
 28 29  1  0
 30 26  1  0
M  END
$$$$
