GHT.pdb
     RDKit          3D

 22 22  0  0  1  0  0  0  0  0999 V2000
   26.7654  -22.2705  -16.1125 N   0  0  0  0  0  0  0  0  0  0  0  0
   25.8375  -21.2171  -16.3837 C   0  0  0  0  0  0  0  0  0  0  0  0
   24.5141  -21.4477  -15.6972 C   0  0  0  0  0  0  0  0  0  0  0  0
   24.0427  -22.5803  -15.7877 O   0  0  0  0  0  0  0  0  0  0  0  0
   23.8845  -20.3995  -15.0014 N   0  0  0  0  0  0  0  0  0  0  0  0
   22.6870  -20.4548  -14.2135 C   0  0  1  0  0  0  0  0  0  0  0  0
   22.8403  -19.9870  -12.7764 C   0  0  0  0  0  0  0  0  0  0  0  0
   23.8680  -20.7710  -12.0468 C   0  0  0  0  0  0  0  0  0  0  0  0
   24.6531  -21.7989  -12.4811 C   0  0  0  0  0  0  0  0  0  0  0  0
   25.4329  -22.1884  -11.4518 N   0  0  0  0  0  0  0  0  0  0  0  0
   25.1560  -21.4310  -10.3850 C   0  0  0  0  0  0  0  0  0  0  0  0
   24.2100  -20.5726  -10.7410 N   0  0  0  0  0  0  0  0  0  0  0  0
   21.4844  -20.0047  -14.8850 C   0  0  0  0  0  0  0  0  0  0  0  0
   21.2487  -18.7999  -15.2016 O   0  0  0  0  0  0  0  0  0  0  0  0
   19.8599  -21.1430  -18.0873 C   0  0  0  0  0  0  0  0  0  0  0  0
   18.8966  -21.4341  -16.9815 C   0  0  1  0  0  0  0  0  0  0  0  0
   19.1262  -22.7174  -16.4849 O   0  0  0  0  0  0  0  0  0  0  0  0
   19.1885  -20.4447  -15.8446 C   0  0  2  0  0  0  0  0  0  0  0  0
   20.4450  -20.9226  -15.2490 N   0  0  0  0  0  0  0  0  0  0  0  0
   18.0941  -20.5998  -14.8694 C   0  0  0  0  0  0  0  0  0  0  0  0
   16.8426  -20.0998  -15.1466 O   0  0  0  0  0  0  0  0  0  0  0  0
   18.2929  -21.1840  -13.7877 O   0  0  0  0  0  0  0  0  0  0  0  0
  2  1  1  0
  2  3  1  0
  3  4  2  0
  5  3  1  0
  5  6  1  0
  6 13  1  0
  6  7  1  1
  8 12  1  0
  8  7  1  0
  9  8  2  0
 10  9  1  0
 10 11  1  0
 11 12  2  0
 13 14  2  0
 13 19  1  0
 16 15  1  6
 16 18  1  0
 17 16  1  0
 18 20  1  0
 18 19  1  1
 20 22  2  0
 20 21  1  0
M  END
$$$$
