GHT.pdb
     RDKit          3D

 22 22  0  0  1  0  0  0  0  0999 V2000
   14.2412   -9.4786  -13.0406 N   0  0  0  0  0  0  0  0  0  0  0  0
   15.4227   -9.2068  -13.7985 C   0  0  0  0  0  0  0  0  0  0  0  0
   16.2170   -8.0692  -13.2064 C   0  0  0  0  0  0  0  0  0  0  0  0
   15.7294   -6.9456  -13.3211 O   0  0  0  0  0  0  0  0  0  0  0  0
   17.4442   -8.3197  -12.5657 N   0  0  0  0  0  0  0  0  0  0  0  0
   18.3488   -7.3697  -11.9850 C   0  0  1  0  0  0  0  0  0  0  0  0
   18.4602   -7.4297  -10.4711 C   0  0  0  0  0  0  0  0  0  0  0  0
   17.1357   -7.2984   -9.8141 C   0  0  0  0  0  0  0  0  0  0  0  0
   16.3941   -6.1817   -9.5598 C   0  0  0  0  0  0  0  0  0  0  0  0
   15.2594   -6.5694   -8.9423 N   0  0  0  0  0  0  0  0  0  0  0  0
   15.2718   -7.8994   -8.8037 C   0  0  0  0  0  0  0  0  0  0  0  0
   16.4050   -8.3439   -9.3298 N   0  0  0  0  0  0  0  0  0  0  0  0
   19.6029   -7.1997  -12.6906 C   0  0  0  0  0  0  0  0  0  0  0  0
   20.4717   -8.1113  -12.8377 O   0  0  0  0  0  0  0  0  0  0  0  0
   19.8461   -5.8320  -16.1958 C   0  0  0  0  0  0  0  0  0  0  0  0
   20.7056   -4.9705  -15.3271 C   0  0  1  0  0  0  0  0  0  0  0  0
   19.9495   -3.9134  -14.8200 O   0  0  0  0  0  0  0  0  0  0  0  0
   21.1560   -5.8245  -14.1337 C   0  0  2  0  0  0  0  0  0  0  0  0
   19.9577   -5.9468  -13.2904 N   0  0  0  0  0  0  0  0  0  0  0  0
   22.1775   -5.0354  -13.4218 C   0  0  0  0  0  0  0  0  0  0  0  0
   23.4449   -4.9111  -13.9428 O   0  0  0  0  0  0  0  0  0  0  0  0
   21.9021   -4.4753  -12.3441 O   0  0  0  0  0  0  0  0  0  0  0  0
  2  1  1  0
  2  3  1  0
  3  4  2  0
  5  3  1  0
  5  6  1  0
  6 13  1  0
  6  7  1  1
  8 12  1  0
  8  7  1  0
  9  8  2  0
 10  9  1  0
 10 11  1  0
 11 12  2  0
 13 14  2  0
 13 19  1  0
 16 15  1  6
 16 18  1  0
 17 16  1  0
 18 20  1  0
 18 19  1  1
 20 22  2  0
 20 21  1  0
M  END
$$$$
