GHT.pdb
     RDKit          3D

 22 22  0  0  1  0  0  0  0  0999 V2000
   34.8799  -25.5744  -13.2859 N   0  0  0  0  0  0  0  0  0  0  0  0
   35.4364  -25.7230  -14.5945 C   0  0  0  0  0  0  0  0  0  0  0  0
   34.8825  -26.9342  -15.3030 C   0  0  0  0  0  0  0  0  0  0  0  0
   34.1173  -27.6443  -14.6523 O   0  0  0  0  0  0  0  0  0  0  0  0
   35.2448  -27.2031  -16.6355 N   0  0  0  0  0  0  0  0  0  0  0  0
   34.7493  -28.2395  -17.4948 C   0  0  1  0  0  0  0  0  0  0  0  0
   33.2357  -28.3517  -17.5604 C   0  0  0  0  0  0  0  0  0  0  0  0
   32.5702  -27.0856  -17.1639 C   0  0  0  0  0  0  0  0  0  0  0  0
   33.0882  -25.8299  -17.0356 C   0  0  0  0  0  0  0  0  0  0  0  0
   32.0909  -25.0074  -16.6508 N   0  0  0  0  0  0  0  0  0  0  0  0
   30.9625  -25.7158  -16.5350 C   0  0  0  0  0  0  0  0  0  0  0  0
   31.2485  -26.9732  -16.8446 N   0  0  0  0  0  0  0  0  0  0  0  0
   35.4342  -28.3688  -18.7651 C   0  0  0  0  0  0  0  0  0  0  0  0
   35.6387  -27.4107  -19.5698 O   0  0  0  0  0  0  0  0  0  0  0  0
   38.0938  -31.2903  -21.7208 C   0  0  0  0  0  0  0  0  0  0  0  0
   37.3334  -31.1192  -20.4448 C   0  0  1  0  0  0  0  0  0  0  0  0
   38.2221  -31.0853  -19.3700 O   0  0  0  0  0  0  0  0  0  0  0  0
   36.6357  -29.7531  -20.5046 C   0  0  2  0  0  0  0  0  0  0  0  0
   35.9442  -29.6317  -19.2127 N   0  0  0  0  0  0  0  0  0  0  0  0
   35.6391  -29.8441  -21.5869 C   0  0  0  0  0  0  0  0  0  0  0  0
   35.9963  -29.5565  -22.8842 O   0  0  0  0  0  0  0  0  0  0  0  0
   34.4668  -30.1818  -21.3364 O   0  0  0  0  0  0  0  0  0  0  0  0
  2  1  1  0
  2  3  1  0
  3  4  2  0
  5  3  1  0
  5  6  1  0
  6 13  1  0
  6  7  1  6
  8 12  1  0
  8  7  1  0
  9  8  2  0
 10  9  1  0
 10 11  1  0
 11 12  2  0
 13 14  2  0
 13 19  1  0
 16 15  1  6
 16 18  1  0
 17 16  1  0
 18 20  1  0
 18 19  1  1
 20 22  2  0
 20 21  1  0
M  END
$$$$
