GHT.pdb
     RDKit          3D

 22 22  0  0  1  0  0  0  0  0999 V2000
   20.3971  -14.4612  -18.4201 N   0  0  0  0  0  0  0  0  0  0  0  0
   19.8597  -14.0796  -17.1512 C   0  0  0  0  0  0  0  0  0  0  0  0
   20.5690  -12.8754  -16.5834 C   0  0  0  0  0  0  0  0  0  0  0  0
   20.3828  -12.6454  -15.3893 O   0  0  0  0  0  0  0  0  0  0  0  0
   21.3902  -12.0831  -17.4063 N   0  0  0  0  0  0  0  0  0  0  0  0
   22.1525  -10.9239  -17.0415 C   0  0  1  0  0  0  0  0  0  0  0  0
   23.5345  -10.8400  -17.6666 C   0  0  0  0  0  0  0  0  0  0  0  0
   24.4178  -11.9395  -17.2037 C   0  0  0  0  0  0  0  0  0  0  0  0
   24.2228  -12.8582  -16.2140 C   0  0  0  0  0  0  0  0  0  0  0  0
   25.3103  -13.6547  -16.1676 N   0  0  0  0  0  0  0  0  0  0  0  0
   26.1805  -13.2582  -17.1025 C   0  0  0  0  0  0  0  0  0  0  0  0
   25.6442  -12.2210  -17.7311 N   0  0  0  0  0  0  0  0  0  0  0  0
   21.4101   -9.6798  -17.0142 C   0  0  0  0  0  0  0  0  0  0  0  0
   20.9283   -9.1102  -18.0393 O   0  0  0  0  0  0  0  0  0  0  0  0
   18.3638   -8.8741  -15.0102 C   0  0  0  0  0  0  0  0  0  0  0  0
   19.4157   -7.8986  -14.5890 C   0  0  1  0  0  0  0  0  0  0  0  0
   20.1408   -8.4235  -13.5190 O   0  0  0  0  0  0  0  0  0  0  0  0
   20.3890   -7.7351  -15.7647 C   0  0  2  0  0  0  0  0  0  0  0  0
   21.1618   -8.9859  -15.7845 N   0  0  0  0  0  0  0  0  0  0  0  0
   21.2796   -6.6146  -15.4124 C   0  0  0  0  0  0  0  0  0  0  0  0
   22.6036   -6.8473  -15.1189 O   0  0  0  0  0  0  0  0  0  0  0  0
   20.8415   -5.4494  -15.3774 O   0  0  0  0  0  0  0  0  0  0  0  0
  2  1  1  0
  2  3  1  0
  3  4  2  0
  5  3  1  0
  5  6  1  0
  6 13  1  0
  6  7  1  6
  8 12  1  0
  8  7  1  0
  9  8  2  0
 10  9  1  0
 10 11  1  0
 11 12  2  0
 13 14  2  0
 13 19  1  0
 16 15  1  6
 16 18  1  0
 17 16  1  0
 18 20  1  0
 18 19  1  1
 20 22  2  0
 20 21  1  0
M  END
$$$$
