GHT.pdb
     RDKit          3D

 22 22  0  0  1  0  0  0  0  0999 V2000
   19.6893  -15.4811  -17.5173 N   0  0  0  0  0  0  0  0  0  0  0  0
   18.2987  -15.7400  -17.3090 C   0  0  0  0  0  0  0  0  0  0  0  0
   17.5246  -14.4692  -17.0611 C   0  0  0  0  0  0  0  0  0  0  0  0
   16.6173  -14.2197  -17.8534 O   0  0  0  0  0  0  0  0  0  0  0  0
   17.8526  -13.6406  -15.9724 N   0  0  0  0  0  0  0  0  0  0  0  0
   17.2251  -12.4134  -15.5746 C   0  0  1  0  0  0  0  0  0  0  0  0
   16.3517  -12.5098  -14.3353 C   0  0  0  0  0  0  0  0  0  0  0  0
   15.3636  -13.6125  -14.4403 C   0  0  0  0  0  0  0  0  0  0  0  0
   15.4905  -14.9321  -14.1177 C   0  0  0  0  0  0  0  0  0  0  0  0
   14.3180  -15.5402  -14.3907 N   0  0  0  0  0  0  0  0  0  0  0  0
   13.4609  -14.6353  -14.8756 C   0  0  0  0  0  0  0  0  0  0  0  0
   14.0898  -13.4683  -14.9070 N   0  0  0  0  0  0  0  0  0  0  0  0
   18.0679  -11.2370  -15.6466 C   0  0  0  0  0  0  0  0  0  0  0  0
   19.2329  -11.1587  -15.1526 O   0  0  0  0  0  0  0  0  0  0  0  0
   18.7798   -9.1088  -18.8014 C   0  0  0  0  0  0  0  0  0  0  0  0
   18.1717   -8.2347  -17.7519 C   0  0  1  0  0  0  0  0  0  0  0  0
   16.7833   -8.2337  -17.8889 O   0  0  0  0  0  0  0  0  0  0  0  0
   18.4963   -8.8594  -16.3878 C   0  0  2  0  0  0  0  0  0  0  0  0
   17.6262  -10.0418  -16.3037 N   0  0  0  0  0  0  0  0  0  0  0  0
   18.0833   -7.8741  -15.3722 C   0  0  0  0  0  0  0  0  0  0  0  0
   18.8167   -6.7256  -15.1821 O   0  0  0  0  0  0  0  0  0  0  0  0
   17.0682   -8.0729  -14.6786 O   0  0  0  0  0  0  0  0  0  0  0  0
  2  1  1  0
  2  3  1  0
  3  4  2  0
  5  3  1  0
  5  6  1  0
  6 13  1  0
  6  7  1  1
  8 12  1  0
  8  7  1  0
  9  8  2  0
 10  9  1  0
 10 11  1  0
 11 12  2  0
 13 14  2  0
 13 19  1  0
 16 15  1  6
 16 18  1  0
 17 16  1  0
 18 20  1  0
 18 19  1  1
 20 22  2  0
 20 21  1  0
M  END
$$$$
