GHT.pdb
     RDKit          3D

 22 22  0  0  1  0  0  0  0  0999 V2000
   15.8233  -22.0943   -0.6332 N   0  0  0  0  0  0  0  0  0  0  0  0
   15.2504  -22.3167    0.6577 C   0  0  0  0  0  0  0  0  0  0  0  0
   15.9892  -21.5614    1.7345 C   0  0  0  0  0  0  0  0  0  0  0  0
   17.0648  -21.0606    1.4095 O   0  0  0  0  0  0  0  0  0  0  0  0
   15.4453  -21.4575    3.0278 N   0  0  0  0  0  0  0  0  0  0  0  0
   15.9508  -20.7090    4.1423 C   0  0  1  0  0  0  0  0  0  0  0  0
   14.8898  -20.1307    5.0630 C   0  0  0  0  0  0  0  0  0  0  0  0
   14.1756  -18.9908    4.4356 C   0  0  0  0  0  0  0  0  0  0  0  0
   14.4282  -18.3413    3.2625 C   0  0  0  0  0  0  0  0  0  0  0  0
   13.5036  -17.3699    3.1191 N   0  0  0  0  0  0  0  0  0  0  0  0
   12.6792  -17.3947    4.1718 C   0  0  0  0  0  0  0  0  0  0  0  0
   13.0825  -18.3738    4.9701 N   0  0  0  0  0  0  0  0  0  0  0  0
   17.0967  -21.2929    4.8098 C   0  0  0  0  0  0  0  0  0  0  0  0
   17.3757  -22.5296    4.8047 O   0  0  0  0  0  0  0  0  0  0  0  0
   20.8357  -19.7650    5.1500 C   0  0  0  0  0  0  0  0  0  0  0  0
   20.1543  -19.9612    6.4663 C   0  0  1  0  0  0  0  0  0  0  0  0
   19.4428  -18.8093    6.8025 O   0  0  0  0  0  0  0  0  0  0  0  0
   19.1338  -21.0946    6.2919 C   0  0  2  0  0  0  0  0  0  0  0  0
   18.0236  -20.4839    5.5459 N   0  0  0  0  0  0  0  0  0  0  0  0
   18.6758  -21.4516    7.6467 C   0  0  0  0  0  0  0  0  0  0  0  0
   19.5389  -22.0517    8.5345 O   0  0  0  0  0  0  0  0  0  0  0  0
   17.5052  -21.2134    7.9986 O   0  0  0  0  0  0  0  0  0  0  0  0
  2  1  1  0
  2  3  1  0
  3  4  2  0
  5  3  1  0
  5  6  1  0
  6 13  1  0
  6  7  1  1
  8 12  1  0
  8  7  1  0
  9  8  2  0
 10  9  1  0
 10 11  1  0
 11 12  2  0
 13 14  2  0
 13 19  1  0
 16 15  1  6
 16 18  1  0
 17 16  1  0
 18 20  1  0
 18 19  1  6
 20 22  2  0
 20 21  1  0
M  END
$$$$
