GHT.pdb
     RDKit          3D

 22 22  0  0  1  0  0  0  0  0999 V2000
   20.8764  -10.7454  -19.3555 N   0  0  0  0  0  0  0  0  0  0  0  0
   19.9814  -10.1381  -18.4204 C   0  0  0  0  0  0  0  0  0  0  0  0
   20.6909   -9.7259  -17.1546 C   0  0  0  0  0  0  0  0  0  0  0  0
   20.0064   -9.6882  -16.1331 O   0  0  0  0  0  0  0  0  0  0  0  0
   22.0615   -9.4096  -17.1812 N   0  0  0  0  0  0  0  0  0  0  0  0
   22.8983   -9.0103  -16.0866 C   0  0  1  0  0  0  0  0  0  0  0  0
   24.2137   -9.7621  -15.9749 C   0  0  0  0  0  0  0  0  0  0  0  0
   24.0095  -11.2321  -15.9519 C   0  0  0  0  0  0  0  0  0  0  0  0
   22.8511  -11.9529  -15.9588 C   0  0  0  0  0  0  0  0  0  0  0  0
   23.1768  -13.2614  -15.9294 N   0  0  0  0  0  0  0  0  0  0  0  0
   24.5088  -13.3780  -15.9042 C   0  0  0  0  0  0  0  0  0  0  0  0
   25.0158  -12.1527  -15.9178 N   0  0  0  0  0  0  0  0  0  0  0  0
   22.9825   -7.5811  -15.8627 C   0  0  0  0  0  0  0  0  0  0  0  0
   23.8595   -6.8253  -16.3795 O   0  0  0  0  0  0  0  0  0  0  0  0
   20.9289   -5.0129  -16.8562 C   0  0  0  0  0  0  0  0  0  0  0  0
   20.8493   -4.8786  -15.3692 C   0  0  1  0  0  0  0  0  0  0  0  0
   19.7960   -5.6539  -14.8838 O   0  0  0  0  0  0  0  0  0  0  0  0
   22.1474   -5.4535  -14.7851 C   0  0  2  0  0  0  0  0  0  0  0  0
   22.0481   -6.9027  -15.0131 N   0  0  0  0  0  0  0  0  0  0  0  0
   22.1060   -5.1815  -13.3370 C   0  0  0  0  0  0  0  0  0  0  0  0
   22.3269   -3.9084  -12.8642 O   0  0  0  0  0  0  0  0  0  0  0  0
   21.8710   -6.1008  -12.5303 O   0  0  0  0  0  0  0  0  0  0  0  0
  2  1  1  0
  2  3  1  0
  3  4  2  0
  5  3  1  0
  5  6  1  0
  6 13  1  0
  6  7  1  6
  8 12  1  0
  8  7  1  0
  9  8  2  0
 10  9  1  0
 10 11  1  0
 11 12  2  0
 13 14  2  0
 13 19  1  0
 16 15  1  6
 16 18  1  0
 17 16  1  0
 18 20  1  0
 18 19  1  1
 20 22  2  0
 20 21  1  0
M  END
$$$$
