FYC.pdb
     RDKit          3D

 30 31  0  0  1  0  0  0  0  0999 V2000
   27.9350  -36.3694   -8.3868 N   0  0  0  0  0  0  0  0  0  0  0  0
   28.3918  -35.2000   -7.6851 C   0  0  1  0  0  0  0  0  0  0  0  0
   27.2312  -34.4911   -6.9838 C   0  0  0  0  0  0  0  0  0  0  0  0
   26.6128  -33.4655   -7.8301 C   0  0  0  0  0  0  0  0  0  0  0  0
   26.4223  -32.2054   -7.3288 C   0  0  0  0  0  0  0  0  0  0  0  0
   25.8480  -31.1901   -8.0639 C   0  0  0  0  0  0  0  0  0  0  0  0
   25.4433  -31.4359   -9.3574 C   0  0  0  0  0  0  0  0  0  0  0  0
   25.6295  -32.6919   -9.8671 C   0  0  0  0  0  0  0  0  0  0  0  0
   26.2052  -33.7067   -9.1278 C   0  0  0  0  0  0  0  0  0  0  0  0
   29.3349  -35.6085   -6.6186 C   0  0  0  0  0  0  0  0  0  0  0  0
   29.1937  -36.7413   -6.0962 O   0  0  0  0  0  0  0  0  0  0  0  0
   36.7945  -36.8874   -2.1499 O   0  0  0  0  0  0  0  0  0  0  0  0
   35.7859  -36.3346   -2.9128 C   0  0  0  0  0  0  0  0  0  0  0  0
   34.8957  -35.4226   -2.3663 C   0  0  0  0  0  0  0  0  0  0  0  0
   33.8817  -34.8604   -3.1149 C   0  0  0  0  0  0  0  0  0  0  0  0
   33.7119  -35.1809   -4.4333 C   0  0  0  0  0  0  0  0  0  0  0  0
   32.6827  -34.6455   -5.2980 C   0  0  0  0  0  0  0  0  0  0  0  0
   31.3151  -35.2332   -5.1459 C   0  0  2  0  0  0  0  0  0  0  0  0
   30.3865  -34.8075   -6.1473 N   0  0  0  0  0  0  0  0  0  0  0  0
   30.7628  -35.1211   -3.7691 C   0  0  0  0  0  0  0  0  0  0  0  0
   29.9728  -34.1924   -3.4348 O   0  0  0  0  0  0  0  0  0  0  0  0
   34.6105  -36.0994   -4.9786 C   0  0  0  0  0  0  0  0  0  0  0  0
   35.6151  -36.6602   -4.2479 C   0  0  0  0  0  0  0  0  0  0  0  0
   31.0864  -36.0501   -2.7412 N   0  0  0  0  0  0  0  0  0  0  0  0
   30.5932  -35.9046   -1.4098 C   0  0  1  0  0  0  0  0  0  0  0  0
   29.0607  -35.9850   -1.4802 C   0  0  0  0  0  0  0  0  0  0  0  0
   28.3649  -36.0914    0.1902 S   0  0  0  0  0  0  0  0  0  0  0  0
   31.1350  -36.8594   -0.4416 C   0  0  0  0  0  0  0  0  0  0  0  0
   31.8818  -37.8139   -0.7730 O   0  0  0  0  0  0  0  0  0  0  0  0
   30.8366  -36.7420    0.9084 O   0  0  0  0  0  0  0  0  0  0  0  0
  2  1  1  1
  3  2  1  0
  3  4  1  0
  4  5  2  0
  5  6  1  0
  7  6  2  0
  8  7  1  0
  9  4  1  0
  9  8  2  0
 10 19  1  0
 10  2  1  0
 11 10  2  0
 13 12  1  0
 14 13  2  0
 15 14  1  0
 16 22  1  0
 16 15  2  0
 18 17  1  1
 17 16  1  0
 18 19  1  0
 20 18  1  0
 21 20  2  0
 22 23  2  0
 23 13  1  0
 24 20  1  0
 25 24  1  0
 25 28  1  0
 26 27  1  0
 25 26  1  6
 28 30  1  0
 29 28  2  0
M  END
$$$$
