FYC.pdb
     RDKit          3D

 30 31  0  0  1  0  0  0  0  0999 V2000
   26.9319  -10.3757  -19.1267 N   0  0  0  0  0  0  0  0  0  0  0  0
   26.0918  -10.5583  -17.9736 C   0  0  1  0  0  0  0  0  0  0  0  0
   26.8495  -10.2341  -16.6844 C   0  0  0  0  0  0  0  0  0  0  0  0
   27.8500  -11.2545  -16.3555 C   0  0  0  0  0  0  0  0  0  0  0  0
   29.1586  -11.0502  -16.7041 C   0  0  0  0  0  0  0  0  0  0  0  0
   30.1542  -11.9632  -16.4287 C   0  0  0  0  0  0  0  0  0  0  0  0
   29.8376  -13.1346  -15.7767 C   0  0  0  0  0  0  0  0  0  0  0  0
   28.5327  -13.3477  -15.4243 C   0  0  0  0  0  0  0  0  0  0  0  0
   27.5377  -12.4308  -15.7018 C   0  0  0  0  0  0  0  0  0  0  0  0
   24.9586   -9.6069  -18.0403 C   0  0  0  0  0  0  0  0  0  0  0  0
   25.1553   -8.4760  -18.5487 O   0  0  0  0  0  0  0  0  0  0  0  0
   23.5139  -10.2309  -23.9797 O   0  0  0  0  0  0  0  0  0  0  0  0
   23.0335  -10.0302  -22.7015 C   0  0  0  0  0  0  0  0  0  0  0  0
   22.4606   -8.8214  -22.3361 C   0  0  0  0  0  0  0  0  0  0  0  0
   21.9754   -8.6040  -21.0624 C   0  0  0  0  0  0  0  0  0  0  0  0
   22.0398   -9.5764  -20.1032 C   0  0  0  0  0  0  0  0  0  0  0  0
   21.5589   -9.4440  -18.7450 C   0  0  0  0  0  0  0  0  0  0  0  0
   22.5590   -8.9947  -17.7268 C   0  0  2  0  0  0  0  0  0  0  0  0
   23.6664   -9.8863  -17.5691 N   0  0  0  0  0  0  0  0  0  0  0  0
   21.9554   -8.5967  -16.4267 C   0  0  0  0  0  0  0  0  0  0  0  0
   21.7250   -9.4339  -15.5077 O   0  0  0  0  0  0  0  0  0  0  0  0
   22.6174  -10.7912  -20.4761 C   0  0  0  0  0  0  0  0  0  0  0  0
   23.0995  -11.0159  -21.7311 C   0  0  0  0  0  0  0  0  0  0  0  0
   21.5994   -7.2508  -16.1329 N   0  0  0  0  0  0  0  0  0  0  0  0
   21.0154   -6.8799  -14.8846 C   0  0  1  0  0  0  0  0  0  0  0  0
   21.9140   -5.7995  -14.2642 C   0  0  0  0  0  0  0  0  0  0  0  0
   21.9114   -4.3144  -15.3037 S   0  0  0  0  0  0  0  0  0  0  0  0
   19.6221   -6.4379  -14.9605 C   0  0  0  0  0  0  0  0  0  0  0  0
   19.0177   -6.2785  -16.0505 O   0  0  0  0  0  0  0  0  0  0  0  0
   18.9015   -6.1729  -13.8046 O   0  0  0  0  0  0  0  0  0  0  0  0
  2  1  1  6
  3  2  1  0
  3  4  1  0
  4  5  2  0
  5  6  1  0
  7  6  2  0
  8  7  1  0
  9  4  1  0
  9  8  2  0
 10 19  1  0
 10  2  1  0
 11 10  2  0
 13 12  1  0
 14 13  2  0
 15 14  1  0
 16 22  1  0
 16 15  2  0
 18 17  1  6
 17 16  1  0
 18 19  1  0
 20 18  1  0
 21 20  2  0
 22 23  2  0
 23 13  1  0
 24 20  1  0
 25 24  1  0
 25 28  1  0
 26 27  1  0
 25 26  1  6
 28 30  1  0
 29 28  2  0
M  END
$$$$
