FYC.pdb
     RDKit          3D

 30 31  0  0  1  0  0  0  0  0999 V2000
   17.6543  -12.1184  -16.8878 N   0  0  0  0  0  0  0  0  0  0  0  0
   18.7583  -11.4106  -16.2972 C   0  0  1  0  0  0  0  0  0  0  0  0
   19.9179  -11.2765  -17.2864 C   0  0  0  0  0  0  0  0  0  0  0  0
   20.5208  -12.5720  -17.6159 C   0  0  0  0  0  0  0  0  0  0  0  0
   20.2694  -13.1396  -18.8367 C   0  0  0  0  0  0  0  0  0  0  0  0
   20.8000  -14.3538  -19.2173 C   0  0  0  0  0  0  0  0  0  0  0  0
   21.6188  -15.0380  -18.3461 C   0  0  0  0  0  0  0  0  0  0  0  0
   21.8758  -14.4790  -17.1240 C   0  0  0  0  0  0  0  0  0  0  0  0
   21.3425  -13.2622  -16.7460 C   0  0  0  0  0  0  0  0  0  0  0  0
   18.3322  -10.0312  -15.9664 C   0  0  0  0  0  0  0  0  0  0  0  0
   17.6187   -9.4107  -16.7921 O   0  0  0  0  0  0  0  0  0  0  0  0
   12.1769  -10.0719  -15.2892 O   0  0  0  0  0  0  0  0  0  0  0  0
   13.3847   -9.5642  -14.8550 C   0  0  0  0  0  0  0  0  0  0  0  0
   14.4052  -10.4066  -14.4407 C   0  0  0  0  0  0  0  0  0  0  0  0
   15.6189   -9.9157  -14.0037 C   0  0  0  0  0  0  0  0  0  0  0  0
   15.8665   -8.5717  -13.9609 C   0  0  0  0  0  0  0  0  0  0  0  0
   17.1032   -7.9630  -13.5207 C   0  0  0  0  0  0  0  0  0  0  0  0
   18.2538   -8.0312  -14.4748 C   0  0  2  0  0  0  0  0  0  0  0  0
   18.6752   -9.3636  -14.7805 N   0  0  0  0  0  0  0  0  0  0  0  0
   19.3891   -7.1413  -14.1113 C   0  0  0  0  0  0  0  0  0  0  0  0
   20.4941   -7.5956  -13.6977 O   0  0  0  0  0  0  0  0  0  0  0  0
   14.8360   -7.7281  -14.3790 C   0  0  0  0  0  0  0  0  0  0  0  0
   13.6340   -8.2027  -14.8122 C   0  0  0  0  0  0  0  0  0  0  0  0
   19.3060   -5.7241  -14.2059 N   0  0  0  0  0  0  0  0  0  0  0  0
   20.4431   -4.8860  -14.0014 C   0  0  1  0  0  0  0  0  0  0  0  0
   21.5315   -5.3473  -14.9824 C   0  0  0  0  0  0  0  0  0  0  0  0
   22.9700   -4.2492  -14.8785 S   0  0  0  0  0  0  0  0  0  0  0  0
   20.1841   -3.4508  -14.1258 C   0  0  0  0  0  0  0  0  0  0  0  0
   19.3016   -2.9827  -14.8878 O   0  0  0  0  0  0  0  0  0  0  0  0
   20.9210   -2.5340  -13.3895 O   0  0  0  0  0  0  0  0  0  0  0  0
  2  1  1  6
  3  2  1  0
  3  4  1  0
  4  5  2  0
  5  6  1  0
  7  6  2  0
  8  7  1  0
  9  4  1  0
  9  8  2  0
 10 19  1  0
 10  2  1  0
 11 10  2  0
 13 12  1  0
 14 13  2  0
 15 14  1  0
 16 22  1  0
 16 15  2  0
 18 17  1  1
 17 16  1  0
 18 19  1  0
 20 18  1  0
 21 20  2  0
 22 23  2  0
 23 13  1  0
 24 20  1  0
 25 24  1  0
 25 28  1  0
 26 27  1  0
 25 26  1  6
 28 30  1  0
 29 28  2  0
M  END
$$$$
