FYC.pdb
     RDKit          3D

 30 31  0  0  1  0  0  0  0  0999 V2000
   27.6812  -19.3117  -19.3595 N   0  0  0  0  0  0  0  0  0  0  0  0
   27.2773  -18.4267  -18.3001 C   0  0  1  0  0  0  0  0  0  0  0  0
   26.0541  -17.6030  -18.7081 C   0  0  0  0  0  0  0  0  0  0  0  0
   26.3618  -16.6377  -19.7683 C   0  0  0  0  0  0  0  0  0  0  0  0
   25.9002  -16.8635  -21.0378 C   0  0  0  0  0  0  0  0  0  0  0  0
   26.1489  -16.0021  -22.0851 C   0  0  0  0  0  0  0  0  0  0  0  0
   26.8905  -14.8626  -21.8633 C   0  0  0  0  0  0  0  0  0  0  0  0
   27.3560  -14.6284  -20.5981 C   0  0  0  0  0  0  0  0  0  0  0  0
   27.1049  -15.4936  -19.5512 C   0  0  0  0  0  0  0  0  0  0  0  0
   26.8655  -19.2289  -17.1251 C   0  0  0  0  0  0  0  0  0  0  0  0
   26.2292  -20.2934  -17.3201 O   0  0  0  0  0  0  0  0  0  0  0  0
   25.2864  -21.6299   -8.6812 O   0  0  0  0  0  0  0  0  0  0  0  0
   25.7959  -21.0690   -9.8348 C   0  0  0  0  0  0  0  0  0  0  0  0
   26.4965  -21.8370  -10.7525 C   0  0  0  0  0  0  0  0  0  0  0  0
   27.0125  -21.2923  -11.9109 C   0  0  0  0  0  0  0  0  0  0  0  0
   26.8536  -19.9660  -12.2032 C   0  0  0  0  0  0  0  0  0  0  0  0
   27.3554  -19.3051  -13.3885 C   0  0  0  0  0  0  0  0  0  0  0  0
   26.6343  -19.5959  -14.6669 C   0  0  2  0  0  0  0  0  0  0  0  0
   27.1408  -18.8765  -15.7948 N   0  0  0  0  0  0  0  0  0  0  0  0
   25.1533  -19.5128  -14.5534 C   0  0  0  0  0  0  0  0  0  0  0  0
   24.5358  -18.4105  -14.6011 O   0  0  0  0  0  0  0  0  0  0  0  0
   26.1477  -19.1974  -11.2762 C   0  0  0  0  0  0  0  0  0  0  0  0
   25.6342  -19.7257  -10.1294 C   0  0  0  0  0  0  0  0  0  0  0  0
   24.3368  -20.6658  -14.3850 N   0  0  0  0  0  0  0  0  0  0  0  0
   22.9522  -20.5681  -14.0529 C   0  0  1  0  0  0  0  0  0  0  0  0
   22.1588  -20.7091  -15.3608 C   0  0  0  0  0  0  0  0  0  0  0  0
   20.3985  -20.9468  -14.9993 S   0  0  0  0  0  0  0  0  0  0  0  0
   22.4900  -21.5200  -13.0416 C   0  0  0  0  0  0  0  0  0  0  0  0
   23.1607  -22.5250  -12.6969 O   0  0  0  0  0  0  0  0  0  0  0  0
   21.2660  -21.3427  -12.4124 O   0  0  0  0  0  0  0  0  0  0  0  0
  2  1  1  6
  3  2  1  0
  3  4  1  0
  4  5  2  0
  5  6  1  0
  7  6  2  0
  8  7  1  0
  9  4  1  0
  9  8  2  0
 10 19  1  0
 10  2  1  0
 11 10  2  0
 13 12  1  0
 14 13  2  0
 15 14  1  0
 16 22  1  0
 16 15  2  0
 18 17  1  1
 17 16  1  0
 18 19  1  0
 20 18  1  0
 21 20  2  0
 22 23  2  0
 23 13  1  0
 24 20  1  0
 25 24  1  0
 25 28  1  0
 26 27  1  0
 25 26  1  6
 28 30  1  0
 29 28  2  0
M  END
$$$$
