FYC.pdb
     RDKit          3D

 30 31  0  0  1  0  0  0  0  0999 V2000
   29.2533  -12.5260  -19.5517 N   0  0  0  0  0  0  0  0  0  0  0  0
   28.8950  -12.5624  -18.1592 C   0  0  1  0  0  0  0  0  0  0  0  0
   28.2520  -11.2445  -17.7222 C   0  0  0  0  0  0  0  0  0  0  0  0
   29.1963  -10.1234  -17.7659 C   0  0  0  0  0  0  0  0  0  0  0  0
   28.7702   -8.9025  -18.2171 C   0  0  0  0  0  0  0  0  0  0  0  0
   29.5993   -7.8032  -18.2868 C   0  0  0  0  0  0  0  0  0  0  0  0
   30.9134   -7.9197  -17.8904 C   0  0  0  0  0  0  0  0  0  0  0  0
   31.3484   -9.1356  -17.4381 C   0  0  0  0  0  0  0  0  0  0  0  0
   30.5150  -10.2349  -17.3695 C   0  0  0  0  0  0  0  0  0  0  0  0
   27.8742  -13.6140  -17.9458 C   0  0  0  0  0  0  0  0  0  0  0  0
   27.2894  -14.0931  -18.9480 O   0  0  0  0  0  0  0  0  0  0  0  0
   23.1081  -20.1671  -14.3605 O   0  0  0  0  0  0  0  0  0  0  0  0
   23.9597  -19.0983  -14.5537 C   0  0  0  0  0  0  0  0  0  0  0  0
   23.6061  -17.8211  -14.1455 C   0  0  0  0  0  0  0  0  0  0  0  0
   24.4457  -16.7415  -14.3310 C   0  0  0  0  0  0  0  0  0  0  0  0
   25.6672  -16.8872  -14.9280 C   0  0  0  0  0  0  0  0  0  0  0  0
   26.6146  -15.8196  -15.1650 C   0  0  0  0  0  0  0  0  0  0  0  0
   26.5355  -15.1448  -16.4981 C   0  0  2  0  0  0  0  0  0  0  0  0
   27.5122  -14.1167  -16.6864 N   0  0  0  0  0  0  0  0  0  0  0  0
   25.1634  -14.7051  -16.8684 C   0  0  0  0  0  0  0  0  0  0  0  0
   24.7153  -13.5649  -16.5561 O   0  0  0  0  0  0  0  0  0  0  0  0
   26.0183  -18.1748  -15.3371 C   0  0  0  0  0  0  0  0  0  0  0  0
   25.1965  -19.2474  -15.1585 C   0  0  0  0  0  0  0  0  0  0  0  0
   24.2682  -15.5369  -17.5971 N   0  0  0  0  0  0  0  0  0  0  0  0
   22.9103  -15.1634  -17.8288 C   0  0  1  0  0  0  0  0  0  0  0  0
   22.8438  -14.5318  -19.2275 C   0  0  0  0  0  0  0  0  0  0  0  0
   21.1219  -14.1786  -19.6706 S   0  0  0  0  0  0  0  0  0  0  0  0
   21.9373  -16.2474  -17.6846 C   0  0  0  0  0  0  0  0  0  0  0  0
   22.1512  -17.4130  -18.1019 O   0  0  0  0  0  0  0  0  0  0  0  0
   20.7152  -16.0216  -17.0674 O   0  0  0  0  0  0  0  0  0  0  0  0
  2  1  1  6
  3  2  1  0
  3  4  1  0
  4  5  2  0
  5  6  1  0
  7  6  2  0
  8  7  1  0
  9  4  1  0
  9  8  2  0
 10 19  1  0
 10  2  1  0
 11 10  2  0
 13 12  1  0
 14 13  2  0
 15 14  1  0
 16 22  1  0
 16 15  2  0
 18 17  1  1
 17 16  1  0
 18 19  1  0
 20 18  1  0
 21 20  2  0
 22 23  2  0
 23 13  1  0
 24 20  1  0
 25 24  1  0
 25 28  1  0
 26 27  1  0
 25 26  1  6
 28 30  1  0
 29 28  2  0
M  END
$$$$
