FYC.pdb
     RDKit          3D

 30 31  0  0  1  0  0  0  0  0999 V2000
   20.4838  -18.6784  -16.7299 N   0  0  0  0  0  0  0  0  0  0  0  0
   21.7101  -19.3521  -16.3969 C   0  0  1  0  0  0  0  0  0  0  0  0
   22.8868  -18.7742  -17.1861 C   0  0  0  0  0  0  0  0  0  0  0  0
   22.7891  -19.0614  -18.6208 C   0  0  0  0  0  0  0  0  0  0  0  0
   23.0392  -20.3304  -19.0710 C   0  0  0  0  0  0  0  0  0  0  0  0
   22.9673  -20.6758  -20.4038 C   0  0  0  0  0  0  0  0  0  0  0  0
   22.6313  -19.7176  -21.3346 C   0  0  0  0  0  0  0  0  0  0  0  0
   22.3796  -18.4467  -20.8943 C   0  0  0  0  0  0  0  0  0  0  0  0
   22.4526  -18.1042  -19.5583 C   0  0  0  0  0  0  0  0  0  0  0  0
   22.0179  -19.1256  -14.9659 C   0  0  0  0  0  0  0  0  0  0  0  0
   21.8984  -17.9643  -14.5043 O   0  0  0  0  0  0  0  0  0  0  0  0
   18.1737  -24.3460  -12.5394 O   0  0  0  0  0  0  0  0  0  0  0  0
   19.0832  -23.3274  -12.3390 C   0  0  0  0  0  0  0  0  0  0  0  0
   20.2449  -23.2496  -13.0921 C   0  0  0  0  0  0  0  0  0  0  0  0
   21.1648  -22.2380  -12.9047 C   0  0  0  0  0  0  0  0  0  0  0  0
   20.9679  -21.2655  -11.9639 C   0  0  0  0  0  0  0  0  0  0  0  0
   21.8709  -20.1674  -11.6949 C   0  0  0  0  0  0  0  0  0  0  0  0
   22.8904  -19.8719  -12.7495 C   0  0  2  0  0  0  0  0  0  0  0  0
   22.4383  -20.1311  -14.0817 N   0  0  0  0  0  0  0  0  0  0  0  0
   24.2279  -20.4623  -12.4742 C   0  0  0  0  0  0  0  0  0  0  0  0
   24.6105  -21.5409  -13.0115 O   0  0  0  0  0  0  0  0  0  0  0  0
   19.7970  -21.3483  -11.2085 C   0  0  0  0  0  0  0  0  0  0  0  0
   18.8824  -22.3432  -11.3857 C   0  0  0  0  0  0  0  0  0  0  0  0
   25.1620  -19.8526  -11.5910 N   0  0  0  0  0  0  0  0  0  0  0  0
   26.3475  -20.5238  -11.1655 C   0  0  1  0  0  0  0  0  0  0  0  0
   27.0679  -19.5941  -10.1774 C   0  0  0  0  0  0  0  0  0  0  0  0
   26.1002  -19.4348   -8.6530 S   0  0  0  0  0  0  0  0  0  0  0  0
   26.1334  -21.8528  -10.5907 C   0  0  0  0  0  0  0  0  0  0  0  0
   25.0004  -22.2674  -10.2399 O   0  0  0  0  0  0  0  0  0  0  0  0
   27.1987  -22.7230  -10.4081 O   0  0  0  0  0  0  0  0  0  0  0  0
  2  1  1  6
  3  2  1  0
  3  4  1  0
  4  5  2  0
  5  6  1  0
  7  6  2  0
  8  7  1  0
  9  4  1  0
  9  8  2  0
 10 19  1  0
 10  2  1  0
 11 10  2  0
 13 12  1  0
 14 13  2  0
 15 14  1  0
 16 22  1  0
 16 15  2  0
 18 17  1  1
 17 16  1  0
 18 19  1  0
 20 18  1  0
 21 20  2  0
 22 23  2  0
 23 13  1  0
 24 20  1  0
 25 24  1  0
 25 28  1  0
 26 27  1  0
 25 26  1  1
 28 30  1  0
 29 28  2  0
M  END
$$$$
