FYC.pdb
     RDKit          3D

 30 31  0  0  1  0  0  0  0  0999 V2000
   22.3730  -12.5147  -17.6922 N   0  0  0  0  0  0  0  0  0  0  0  0
   21.7529  -11.3564  -18.2773 C   0  0  1  0  0  0  0  0  0  0  0  0
   20.2984  -11.6433  -18.6558 C   0  0  0  0  0  0  0  0  0  0  0  0
   20.1877  -12.6524  -19.7142 C   0  0  0  0  0  0  0  0  0  0  0  0
   20.6439  -12.3603  -20.9720 C   0  0  0  0  0  0  0  0  0  0  0  0
   20.5737  -13.2570  -22.0169 C   0  0  0  0  0  0  0  0  0  0  0  0
   20.0252  -14.5026  -21.8046 C   0  0  0  0  0  0  0  0  0  0  0  0
   19.5667  -14.8037  -20.5511 C   0  0  0  0  0  0  0  0  0  0  0  0
   19.6386  -13.9029  -19.5066 C   0  0  0  0  0  0  0  0  0  0  0  0
   21.7145  -10.2657  -17.2759 C   0  0  0  0  0  0  0  0  0  0  0  0
   21.4364  -10.5546  -16.0863 O   0  0  0  0  0  0  0  0  0  0  0  0
   27.5247  -11.2050  -15.6930 O   0  0  0  0  0  0  0  0  0  0  0  0
   26.5220  -10.2688  -15.8449 C   0  0  0  0  0  0  0  0  0  0  0  0
   25.7142   -9.9086  -14.7769 C   0  0  0  0  0  0  0  0  0  0  0  0
   24.7073   -8.9743  -14.9114 C   0  0  0  0  0  0  0  0  0  0  0  0
   24.4632   -8.3620  -16.1094 C   0  0  0  0  0  0  0  0  0  0  0  0
   23.4347   -7.3727  -16.3484 C   0  0  0  0  0  0  0  0  0  0  0  0
   22.0504   -7.8943  -16.5726 C   0  0  2  0  0  0  0  0  0  0  0  0
   21.9706   -8.9173  -17.5692 N   0  0  0  0  0  0  0  0  0  0  0  0
   21.0305   -6.8283  -16.7640 C   0  0  0  0  0  0  0  0  0  0  0  0
   20.9241   -6.1861  -17.8479 O   0  0  0  0  0  0  0  0  0  0  0  0
   25.2791   -8.7281  -17.1812 C   0  0  0  0  0  0  0  0  0  0  0  0
   26.2760   -9.6495  -17.0588 C   0  0  0  0  0  0  0  0  0  0  0  0
   20.1099   -6.4633  -15.7425 N   0  0  0  0  0  0  0  0  0  0  0  0
   19.1659   -5.4075  -15.9193 C   0  0  1  0  0  0  0  0  0  0  0  0
   17.7939   -5.9456  -15.4859 C   0  0  0  0  0  0  0  0  0  0  0  0
   16.5640   -4.6144  -15.5177 S   0  0  0  0  0  0  0  0  0  0  0  0
   19.4949   -4.1610  -15.2262 C   0  0  0  0  0  0  0  0  0  0  0  0
   19.8467   -4.1258  -14.0205 O   0  0  0  0  0  0  0  0  0  0  0  0
   19.4288   -2.9448  -15.8910 O   0  0  0  0  0  0  0  0  0  0  0  0
  2  1  1  1
  3  2  1  0
  3  4  1  0
  4  5  2  0
  5  6  1  0
  7  6  2  0
  8  7  1  0
  9  4  1  0
  9  8  2  0
 10 19  1  0
 10  2  1  0
 11 10  2  0
 13 12  1  0
 14 13  2  0
 15 14  1  0
 16 22  1  0
 16 15  2  0
 18 17  1  6
 17 16  1  0
 18 19  1  0
 20 18  1  0
 21 20  2  0
 22 23  2  0
 23 13  1  0
 24 20  1  0
 25 24  1  0
 25 28  1  0
 26 27  1  0
 25 26  1  1
 28 30  1  0
 29 28  2  0
M  END
$$$$
