DDE.pdb
     RDKit          3D

 26 25  0  0  1  0  0  0  0  0999 V2000
   24.1999  -17.7897  -17.8674 N   0  0  0  0  0  0  0  0  0  0  0  0
   24.6326  -19.0940  -17.3887 C   0  0  1  0  0  0  0  0  0  0  0  0
   26.0548  -18.9263  -16.9083 C   0  0  0  0  0  0  0  0  0  0  0  0
   26.8745  -18.5618  -18.0930 C   0  0  0  0  0  0  0  0  0  0  0  0
   26.3882  -18.3639  -19.2322 O   0  0  0  0  0  0  0  0  0  0  0  0
   23.7277  -19.6158  -16.3392 C   0  0  0  0  0  0  0  0  0  0  0  0
   23.9655  -20.7228  -15.7915 O   0  0  0  0  0  0  0  0  0  0  0  0
   28.2481  -18.4279  -17.9549 O   0  0  0  0  0  0  0  0  0  0  0  0
   22.5700  -18.9213  -15.8978 N   0  0  0  0  0  0  0  0  0  0  0  0
   21.6551  -19.4104  -14.9022 C   0  0  1  0  0  0  0  0  0  0  0  0
   21.1910  -18.3208  -13.9608 C   0  0  0  0  0  0  0  0  0  0  0  0
   20.3450  -18.8154  -12.8762 C   0  0  0  0  0  0  0  0  0  0  0  0
   19.7607  -18.1191  -12.0257 O   0  0  0  0  0  0  0  0  0  0  0  0
   20.5098  -20.0779  -15.5742 C   0  0  0  0  0  0  0  0  0  0  0  0
   19.8845  -19.4880  -16.4903 O   0  0  0  0  0  0  0  0  0  0  0  0
   20.1784  -20.2021  -12.7887 O   0  0  0  0  0  0  0  0  0  0  0  0
   20.0604  -21.3736  -15.2424 N   0  0  0  0  0  0  0  0  0  0  0  0
   18.9490  -22.0098  -15.9580 C   0  0  1  0  0  0  0  0  0  0  0  0
   18.7385  -23.4075  -15.5172 C   0  0  0  0  0  0  0  0  0  0  0  0
   17.7116  -24.1191  -16.3399 C   0  0  0  0  0  0  0  0  0  0  0  0
   17.5065  -25.5191  -15.8893 C   0  0  0  0  0  0  0  0  0  0  0  0
   17.3349  -26.4078  -16.7393 O   0  0  0  0  0  0  0  0  0  0  0  0
   17.7381  -21.1651  -15.8704 C   0  0  0  0  0  0  0  0  0  0  0  0
   16.8703  -20.8606  -16.8752 O   0  0  0  0  0  0  0  0  0  0  0  0
   17.5053  -25.8304  -14.5536 O   0  0  0  0  0  0  0  0  0  0  0  0
   17.4636  -20.6553  -14.7288 O   0  0  0  0  0  0  0  0  0  0  0  0
  2  3  1  0
  2  1  1  1
  3  4  1  0
  4  8  1  0
  4  5  2  0
  6  2  1  0
  6  7  2  0
  9  6  1  0
 10  9  1  0
 10 14  1  0
 10 11  1  6
 12 11  1  0
 13 12  2  0
 14 17  1  0
 15 14  2  0
 16 12  1  0
 17 18  1  0
 18 23  1  0
 18 19  1  1
 20 19  1  0
 21 20  1  0
 21 22  2  0
 23 26  2  0
 23 24  1  0
 25 21  1  0
M  END
$$$$
