DDE.pdb
     RDKit          3D

 26 25  0  0  1  0  0  0  0  0999 V2000
   16.4541  -12.3761  -14.1135 N   0  0  0  0  0  0  0  0  0  0  0  0
   16.5004  -11.2431  -15.0257 C   0  0  1  0  0  0  0  0  0  0  0  0
   15.0733  -10.7881  -15.2199 C   0  0  0  0  0  0  0  0  0  0  0  0
   14.4175  -11.7795  -16.1116 C   0  0  0  0  0  0  0  0  0  0  0  0
   14.7896  -12.9739  -16.2046 O   0  0  0  0  0  0  0  0  0  0  0  0
   17.3831  -10.1696  -14.5152 C   0  0  0  0  0  0  0  0  0  0  0  0
   17.4064   -9.8998  -13.2870 O   0  0  0  0  0  0  0  0  0  0  0  0
   13.3379  -11.3865  -16.8885 O   0  0  0  0  0  0  0  0  0  0  0  0
   18.2334   -9.4002  -15.3536 N   0  0  0  0  0  0  0  0  0  0  0  0
   19.0162   -8.2778  -14.9120 C   0  0  1  0  0  0  0  0  0  0  0  0
   20.4615   -8.3757  -15.3483 C   0  0  0  0  0  0  0  0  0  0  0  0
   21.2767   -7.2458  -14.9061 C   0  0  0  0  0  0  0  0  0  0  0  0
   21.9871   -6.5255  -15.6315 O   0  0  0  0  0  0  0  0  0  0  0  0
   18.3840   -7.0206  -15.3900 C   0  0  0  0  0  0  0  0  0  0  0  0
   18.1758   -6.8454  -16.6165 O   0  0  0  0  0  0  0  0  0  0  0  0
   21.2540   -6.9487  -13.5389 O   0  0  0  0  0  0  0  0  0  0  0  0
   17.9880   -5.9732  -14.5313 N   0  0  0  0  0  0  0  0  0  0  0  0
   17.3705   -4.7465  -15.0470 C   0  0  1  0  0  0  0  0  0  0  0  0
   16.4292   -4.1516  -14.0711 C   0  0  0  0  0  0  0  0  0  0  0  0
   15.8041   -2.8893  -14.5746 C   0  0  0  0  0  0  0  0  0  0  0  0
   14.8414   -2.3153  -13.6006 C   0  0  0  0  0  0  0  0  0  0  0  0
   13.8548   -2.9875  -13.2593 O   0  0  0  0  0  0  0  0  0  0  0  0
   18.4147   -3.8114  -15.5189 C   0  0  0  0  0  0  0  0  0  0  0  0
   19.7070   -3.7359  -15.0949 O   0  0  0  0  0  0  0  0  0  0  0  0
   15.0352   -1.0601  -13.0830 O   0  0  0  0  0  0  0  0  0  0  0  0
   18.0800   -2.9725  -16.4259 O   0  0  0  0  0  0  0  0  0  0  0  0
  2  3  1  0
  2  1  1  1
  3  4  1  0
  4  8  1  0
  4  5  2  0
  6  2  1  0
  6  7  2  0
  9  6  1  0
 10  9  1  0
 10 14  1  0
 10 11  1  6
 12 11  1  0
 13 12  2  0
 14 17  1  0
 15 14  2  0
 16 12  1  0
 17 18  1  0
 18 23  1  0
 18 19  1  1
 20 19  1  0
 21 20  1  0
 21 22  2  0
 23 26  2  0
 23 24  1  0
 25 21  1  0
M  END
$$$$
