DDE.pdb
     RDKit          3D

 26 25  0  0  1  0  0  0  0  0999 V2000
   20.8649  -10.3901  -20.0781 N   0  0  0  0  0  0  0  0  0  0  0  0
   19.8853  -10.0361  -19.0617 C   0  0  1  0  0  0  0  0  0  0  0  0
   18.9340  -11.2045  -18.9552 C   0  0  0  0  0  0  0  0  0  0  0  0
   18.1867  -11.2758  -20.2377 C   0  0  0  0  0  0  0  0  0  0  0  0
   17.3916  -10.3849  -20.6217 O   0  0  0  0  0  0  0  0  0  0  0  0
   20.5346   -9.7025  -17.7734 C   0  0  0  0  0  0  0  0  0  0  0  0
   19.8766   -9.7476  -16.7025 O   0  0  0  0  0  0  0  0  0  0  0  0
   18.3621  -12.3734  -21.0673 O   0  0  0  0  0  0  0  0  0  0  0  0
   21.8993   -9.3226  -17.6681 N   0  0  0  0  0  0  0  0  0  0  0  0
   22.5583   -8.9807  -16.4368 C   0  0  1  0  0  0  0  0  0  0  0  0
   24.0291   -9.3348  -16.4524 C   0  0  0  0  0  0  0  0  0  0  0  0
   24.2766  -10.7742  -16.5128 C   0  0  0  0  0  0  0  0  0  0  0  0
   23.8028  -11.6328  -15.7459 O   0  0  0  0  0  0  0  0  0  0  0  0
   22.3456   -7.5378  -16.1509 C   0  0  0  0  0  0  0  0  0  0  0  0
   22.7394   -6.6678  -16.9671 O   0  0  0  0  0  0  0  0  0  0  0  0
   25.1261  -11.2259  -17.5288 O   0  0  0  0  0  0  0  0  0  0  0  0
   21.7099   -7.0609  -14.9848 N   0  0  0  0  0  0  0  0  0  0  0  0
   21.5967   -5.6260  -14.7017 C   0  0  1  0  0  0  0  0  0  0  0  0
   20.2282   -5.1209  -14.9556 C   0  0  0  0  0  0  0  0  0  0  0  0
   20.0768   -3.6751  -14.6033 C   0  0  0  0  0  0  0  0  0  0  0  0
   18.9157   -3.0517  -15.2877 C   0  0  0  0  0  0  0  0  0  0  0  0
   18.9333   -2.9383  -16.5240 O   0  0  0  0  0  0  0  0  0  0  0  0
   22.0999   -5.3350  -13.3418 C   0  0  0  0  0  0  0  0  0  0  0  0
   22.3994   -6.2340  -12.3631 O   0  0  0  0  0  0  0  0  0  0  0  0
   17.8370   -2.6055  -14.5678 O   0  0  0  0  0  0  0  0  0  0  0  0
   22.2771   -4.1048  -13.0360 O   0  0  0  0  0  0  0  0  0  0  0  0
  2  3  1  0
  2  1  1  6
  3  4  1  0
  4  8  1  0
  4  5  2  0
  6  2  1  0
  6  7  2  0
  9  6  1  0
 10  9  1  0
 10 14  1  0
 10 11  1  6
 12 11  1  0
 13 12  2  0
 14 17  1  0
 15 14  2  0
 16 12  1  0
 17 18  1  0
 18 23  1  0
 18 19  1  1
 20 19  1  0
 21 20  1  0
 21 22  2  0
 23 26  2  0
 23 24  1  0
 25 21  1  0
M  END
$$$$
