DDE.pdb
     RDKit          3D

 26 25  0  0  1  0  0  0  0  0999 V2000
   17.9064  -12.6791  -17.7839 N   0  0  0  0  0  0  0  0  0  0  0  0
   18.3010  -12.3511  -16.4221 C   0  0  1  0  0  0  0  0  0  0  0  0
   19.5702  -13.1214  -16.1444 C   0  0  0  0  0  0  0  0  0  0  0  0
   19.1895  -14.5505  -15.9996 C   0  0  0  0  0  0  0  0  0  0  0  0
   18.0050  -14.9576  -16.0668 O   0  0  0  0  0  0  0  0  0  0  0  0
   18.4617  -10.8905  -16.2393 C   0  0  0  0  0  0  0  0  0  0  0  0
   19.0237  -10.1994  -17.1272 O   0  0  0  0  0  0  0  0  0  0  0  0
   20.1773  -15.4988  -15.7790 O   0  0  0  0  0  0  0  0  0  0  0  0
   18.0055  -10.1984  -15.0858 N   0  0  0  0  0  0  0  0  0  0  0  0
   18.1155   -8.7783  -14.8897 C   0  0  1  0  0  0  0  0  0  0  0  0
   17.0903   -8.2504  -13.9103 C   0  0  0  0  0  0  0  0  0  0  0  0
   15.7145   -8.3834  -14.3857 C   0  0  0  0  0  0  0  0  0  0  0  0
   15.3090   -8.1371  -15.5366 O   0  0  0  0  0  0  0  0  0  0  0  0
   19.5005   -8.4478  -14.4638 C   0  0  0  0  0  0  0  0  0  0  0  0
   20.1338   -9.2310  -13.7130 O   0  0  0  0  0  0  0  0  0  0  0  0
   14.7670   -8.8295  -13.4576 O   0  0  0  0  0  0  0  0  0  0  0  0
   20.1768   -7.2738  -14.8579 N   0  0  0  0  0  0  0  0  0  0  0  0
   21.5500   -6.9937  -14.4244 C   0  0  1  0  0  0  0  0  0  0  0  0
   22.5311   -7.2500  -15.5032 C   0  0  0  0  0  0  0  0  0  0  0  0
   22.2593   -6.4374  -16.7294 C   0  0  0  0  0  0  0  0  0  0  0  0
   23.4342   -6.3837  -17.6360 C   0  0  0  0  0  0  0  0  0  0  0  0
   24.4987   -6.9120  -17.2765 O   0  0  0  0  0  0  0  0  0  0  0  0
   21.6339   -5.6340  -13.8487 C   0  0  0  0  0  0  0  0  0  0  0  0
   22.6600   -5.1070  -13.1241 O   0  0  0  0  0  0  0  0  0  0  0  0
   23.3489   -5.7598  -18.8544 O   0  0  0  0  0  0  0  0  0  0  0  0
   20.6372   -4.8550  -14.0440 O   0  0  0  0  0  0  0  0  0  0  0  0
  2  3  1  0
  2  1  1  6
  3  4  1  0
  4  8  1  0
  4  5  2  0
  6  2  1  0
  6  7  2  0
  9  6  1  0
 10  9  1  0
 10 14  1  0
 10 11  1  1
 12 11  1  0
 13 12  2  0
 14 17  1  0
 15 14  2  0
 16 12  1  0
 17 18  1  0
 18 23  1  0
 18 19  1  6
 20 19  1  0
 21 20  1  0
 21 22  2  0
 23 26  2  0
 23 24  1  0
 25 21  1  0
M  END
$$$$
