DDE.pdb
     RDKit          3D

 26 25  0  0  1  0  0  0  0  0999 V2000
   20.1059  -12.1570  -15.5131 N   0  0  0  0  0  0  0  0  0  0  0  0
   19.4540  -11.8024  -16.7649 C   0  0  1  0  0  0  0  0  0  0  0  0
   18.7836  -13.0575  -17.2717 C   0  0  0  0  0  0  0  0  0  0  0  0
   19.8585  -14.0487  -17.5368 C   0  0  0  0  0  0  0  0  0  0  0  0
   20.4992  -14.6291  -16.6278 O   0  0  0  0  0  0  0  0  0  0  0  0
   18.5092  -10.6765  -16.5862 C   0  0  0  0  0  0  0  0  0  0  0  0
   18.3518   -9.8305  -17.5035 O   0  0  0  0  0  0  0  0  0  0  0  0
   20.1859  -14.3633  -18.8473 O   0  0  0  0  0  0  0  0  0  0  0  0
   17.7442  -10.4860  -15.4046 N   0  0  0  0  0  0  0  0  0  0  0  0
   16.8499   -9.3825  -15.1806 C   0  0  1  0  0  0  0  0  0  0  0  0
   15.6102   -9.7911  -14.4159 C   0  0  0  0  0  0  0  0  0  0  0  0
   14.7027  -10.6331  -15.1933 C   0  0  0  0  0  0  0  0  0  0  0  0
   14.4828  -10.5415  -16.4151 O   0  0  0  0  0  0  0  0  0  0  0  0
   17.5833   -8.2893  -14.4908 C   0  0  0  0  0  0  0  0  0  0  0  0
   18.3389   -8.5496  -13.5215 O   0  0  0  0  0  0  0  0  0  0  0  0
   14.0185  -11.6347  -14.4955 O   0  0  0  0  0  0  0  0  0  0  0  0
   17.4857   -6.9314  -14.8620 N   0  0  0  0  0  0  0  0  0  0  0  0
   18.3716   -5.9113  -14.2906 C   0  0  1  0  0  0  0  0  0  0  0  0
   19.7962   -6.3033  -14.3859 C   0  0  0  0  0  0  0  0  0  0  0  0
   20.7065   -5.3200  -13.7212 C   0  0  0  0  0  0  0  0  0  0  0  0
   22.1315   -5.7280  -13.8113 C   0  0  0  0  0  0  0  0  0  0  0  0
   22.9822   -4.8826  -14.1327 O   0  0  0  0  0  0  0  0  0  0  0  0
   18.0730   -4.5894  -14.8827 C   0  0  0  0  0  0  0  0  0  0  0  0
   17.7925   -4.3141  -16.1870 O   0  0  0  0  0  0  0  0  0  0  0  0
   22.5069   -7.0198  -13.5446 O   0  0  0  0  0  0  0  0  0  0  0  0
   18.0769   -3.5820  -14.0931 O   0  0  0  0  0  0  0  0  0  0  0  0
  2  3  1  0
  2  1  1  1
  3  4  1  0
  4  8  1  0
  4  5  2  0
  6  2  1  0
  6  7  2  0
  9  6  1  0
 10  9  1  0
 10 14  1  0
 10 11  1  1
 12 11  1  0
 13 12  2  0
 14 17  1  0
 15 14  2  0
 16 12  1  0
 17 18  1  0
 18 23  1  0
 18 19  1  6
 20 19  1  0
 21 20  1  0
 21 22  2  0
 23 26  2  0
 23 24  1  0
 25 21  1  0
M  END
$$$$
