DDE.pdb
     RDKit          3D

 26 25  0  0  1  0  0  0  0  0999 V2000
   14.8482  -11.7838  -13.1024 N   0  0  0  0  0  0  0  0  0  0  0  0
   15.9262  -11.3449  -12.2289 C   0  0  1  0  0  0  0  0  0  0  0  0
   17.2121  -11.5550  -12.9929 C   0  0  0  0  0  0  0  0  0  0  0  0
   17.3741  -13.0204  -13.1783 C   0  0  0  0  0  0  0  0  0  0  0  0
   18.3483  -13.5350  -13.7780 O   0  0  0  0  0  0  0  0  0  0  0  0
   15.7369   -9.9422  -11.7940 C   0  0  0  0  0  0  0  0  0  0  0  0
   15.4727   -9.0480  -12.6380 O   0  0  0  0  0  0  0  0  0  0  0  0
   16.4121  -13.8809  -12.6706 O   0  0  0  0  0  0  0  0  0  0  0  0
   15.8383   -9.5300  -10.4384 N   0  0  0  0  0  0  0  0  0  0  0  0
   15.6577   -8.1789   -9.9808 C   0  0  1  0  0  0  0  0  0  0  0  0
   15.0292   -8.1150   -8.6061 C   0  0  0  0  0  0  0  0  0  0  0  0
   14.7738   -6.7499   -8.1501 C   0  0  0  0  0  0  0  0  0  0  0  0
   15.0178   -5.7069   -8.7844 O   0  0  0  0  0  0  0  0  0  0  0  0
   16.9630   -7.4694  -10.0195 C   0  0  0  0  0  0  0  0  0  0  0  0
   18.0201   -8.0753   -9.7133 O   0  0  0  0  0  0  0  0  0  0  0  0
   14.2017   -6.6056   -6.8813 O   0  0  0  0  0  0  0  0  0  0  0  0
   17.1018   -6.1147  -10.3891 N   0  0  0  0  0  0  0  0  0  0  0  0
   18.4196   -5.5042  -10.5960 C   0  0  1  0  0  0  0  0  0  0  0  0
   19.2081   -6.2294  -11.6179 C   0  0  0  0  0  0  0  0  0  0  0  0
   20.5219   -5.5723  -11.9004 C   0  0  0  0  0  0  0  0  0  0  0  0
   21.3523   -6.3649  -12.8424 C   0  0  0  0  0  0  0  0  0  0  0  0
   20.9148   -7.4451  -13.2706 O   0  0  0  0  0  0  0  0  0  0  0  0
   18.2727   -4.0579  -10.8677 C   0  0  0  0  0  0  0  0  0  0  0  0
   19.1834   -3.0754  -10.6208 O   0  0  0  0  0  0  0  0  0  0  0  0
   22.5862   -5.9138  -13.2361 O   0  0  0  0  0  0  0  0  0  0  0  0
   17.1707   -3.6716  -11.3921 O   0  0  0  0  0  0  0  0  0  0  0  0
  2  3  1  0
  2  1  1  6
  3  4  1  0
  4  8  1  0
  4  5  2  0
  6  2  1  0
  6  7  2  0
  9  6  1  0
 10  9  1  0
 10 14  1  0
 10 11  1  1
 12 11  1  0
 13 12  2  0
 14 17  1  0
 15 14  2  0
 16 12  1  0
 17 18  1  0
 18 23  1  0
 18 19  1  6
 20 19  1  0
 21 20  1  0
 21 22  2  0
 23 26  2  0
 23 24  1  0
 25 21  1  0
M  END
$$$$
