DDE.pdb
     RDKit          3D

 26 25  0  0  1  0  0  0  0  0999 V2000
   15.6845  -11.4101  -11.7340 N   0  0  0  0  0  0  0  0  0  0  0  0
   14.9284  -10.3815  -12.4327 C   0  0  1  0  0  0  0  0  0  0  0  0
   13.4721  -10.6281  -12.1164 C   0  0  0  0  0  0  0  0  0  0  0  0
   13.1421  -11.9881  -12.6161 C   0  0  0  0  0  0  0  0  0  0  0  0
   13.1511  -12.2958  -13.8321 O   0  0  0  0  0  0  0  0  0  0  0  0
   15.3785   -9.0231  -12.0528 C   0  0  0  0  0  0  0  0  0  0  0  0
   14.9000   -8.0132  -12.6298 O   0  0  0  0  0  0  0  0  0  0  0  0
   12.8048  -12.9826  -11.7100 O   0  0  0  0  0  0  0  0  0  0  0  0
   16.3488   -8.7814  -11.0439 N   0  0  0  0  0  0  0  0  0  0  0  0
   16.8908   -7.4880  -10.7263 C   0  0  1  0  0  0  0  0  0  0  0  0
   16.6428   -7.0968   -9.2860 C   0  0  0  0  0  0  0  0  0  0  0  0
   17.2586   -5.8230   -8.9187 C   0  0  0  0  0  0  0  0  0  0  0  0
   18.2995   -5.6767   -8.2518 O   0  0  0  0  0  0  0  0  0  0  0  0
   18.3396   -7.4686  -11.0572 C   0  0  0  0  0  0  0  0  0  0  0  0
   19.0417   -8.4949  -10.8784 O   0  0  0  0  0  0  0  0  0  0  0  0
   16.6151   -4.6612   -9.3595 O   0  0  0  0  0  0  0  0  0  0  0  0
   19.0043   -6.3373  -11.5762 N   0  0  0  0  0  0  0  0  0  0  0  0
   20.2633   -6.4576  -12.3194 C   0  0  1  0  0  0  0  0  0  0  0  0
   20.1763   -7.4784  -13.3883 C   0  0  0  0  0  0  0  0  0  0  0  0
   21.4811   -7.6857  -14.0899 C   0  0  0  0  0  0  0  0  0  0  0  0
   21.3868   -8.7200  -15.1512 C   0  0  0  0  0  0  0  0  0  0  0  0
   21.0866   -8.3748  -16.3055 O   0  0  0  0  0  0  0  0  0  0  0  0
   20.7018   -5.1277  -12.7952 C   0  0  0  0  0  0  0  0  0  0  0  0
   21.9805   -4.7062  -13.0025 O   0  0  0  0  0  0  0  0  0  0  0  0
   21.6268  -10.0396  -14.8646 O   0  0  0  0  0  0  0  0  0  0  0  0
   19.7882   -4.2659  -13.0422 O   0  0  0  0  0  0  0  0  0  0  0  0
  2  3  1  0
  2  1  1  1
  3  4  1  0
  4  8  1  0
  4  5  2  0
  6  2  1  0
  6  7  2  0
  9  6  1  0
 10  9  1  0
 10 14  1  0
 10 11  1  1
 12 11  1  0
 13 12  2  0
 14 17  1  0
 15 14  2  0
 16 12  1  0
 17 18  1  0
 18 23  1  0
 18 19  1  6
 20 19  1  0
 21 20  1  0
 21 22  2  0
 23 26  2  0
 23 24  1  0
 25 21  1  0
M  END
$$$$
