DDE.pdb
     RDKit          3D

 26 25  0  0  1  0  0  0  0  0999 V2000
   15.2851  -15.2250  -14.5333 N   0  0  0  0  0  0  0  0  0  0  0  0
   15.3471  -14.5916  -13.2246 C   0  0  1  0  0  0  0  0  0  0  0  0
   16.7573  -14.7849  -12.7192 C   0  0  0  0  0  0  0  0  0  0  0  0
   16.9295  -16.2367  -12.4532 C   0  0  0  0  0  0  0  0  0  0  0  0
   18.0257  -16.7515  -12.1267 O   0  0  0  0  0  0  0  0  0  0  0  0
   14.9488  -13.1670  -13.2906 C   0  0  0  0  0  0  0  0  0  0  0  0
   14.9213  -12.5679  -14.3961 O   0  0  0  0  0  0  0  0  0  0  0  0
   15.8366  -17.0833  -12.5655 O   0  0  0  0  0  0  0  0  0  0  0  0
   14.5837  -12.4099  -12.1454 N   0  0  0  0  0  0  0  0  0  0  0  0
   14.0349  -11.0816  -12.1866 C   0  0  1  0  0  0  0  0  0  0  0  0
   13.1979  -10.7655  -10.9665 C   0  0  0  0  0  0  0  0  0  0  0  0
   11.9240  -11.4818  -10.9379 C   0  0  0  0  0  0  0  0  0  0  0  0
   11.4011  -12.0868  -11.8920 O   0  0  0  0  0  0  0  0  0  0  0  0
   15.1374  -10.1007  -12.3633 C   0  0  0  0  0  0  0  0  0  0  0  0
   16.3211  -10.4270  -12.0977 O   0  0  0  0  0  0  0  0  0  0  0  0
   11.2301  -11.4859   -9.7228 O   0  0  0  0  0  0  0  0  0  0  0  0
   14.9393   -8.7819  -12.8245 N   0  0  0  0  0  0  0  0  0  0  0  0
   16.0675   -7.8992  -13.1405 C   0  0  1  0  0  0  0  0  0  0  0  0
   17.0877   -8.5838  -13.9668 C   0  0  0  0  0  0  0  0  0  0  0  0
   18.2303   -7.6874  -14.3252 C   0  0  0  0  0  0  0  0  0  0  0  0
   19.2037   -8.3554  -15.2259 C   0  0  0  0  0  0  0  0  0  0  0  0
   18.9412   -8.4480  -16.4360 O   0  0  0  0  0  0  0  0  0  0  0  0
   15.5743   -6.6333  -13.7249 C   0  0  0  0  0  0  0  0  0  0  0  0
   16.1690   -5.4093  -13.6631 O   0  0  0  0  0  0  0  0  0  0  0  0
   20.3774   -8.8649  -14.7322 O   0  0  0  0  0  0  0  0  0  0  0  0
   14.4646   -6.6777  -14.3613 O   0  0  0  0  0  0  0  0  0  0  0  0
  2  3  1  0
  2  1  1  6
  3  4  1  0
  4  8  1  0
  4  5  2  0
  6  2  1  0
  6  7  2  0
  9  6  1  0
 10  9  1  0
 10 14  1  0
 10 11  1  1
 12 11  1  0
 13 12  2  0
 14 17  1  0
 15 14  2  0
 16 12  1  0
 17 18  1  0
 18 23  1  0
 18 19  1  6
 20 19  1  0
 21 20  1  0
 21 22  2  0
 23 26  2  0
 23 24  1  0
 25 21  1  0
M  END
$$$$
