IQA.pdb
     RDKit          3D

 23 22  0  0  1  0  0  0  0  0999 V2000
    7.5501  -12.0301   19.2306 C   0  0  0  0  0  0  0  0  0  0  0  0
    7.9451  -13.4732   19.2615 C   0  0  0  0  0  0  0  0  0  0  0  0
    7.8257  -14.0289   20.6364 C   0  0  2  0  0  0  0  0  0  0  0  0
    8.6503  -13.2134   21.6337 C   0  0  0  0  0  0  0  0  0  0  0  0
    8.2649  -15.4510   20.7068 C   0  0  2  0  0  0  0  0  0  0  0  0
    7.4915  -16.3203   19.8681 N   0  0  0  0  0  0  0  0  0  0  0  0
    8.2350  -15.9585   22.1013 C   0  0  0  0  0  0  0  0  0  0  0  0
    7.1512  -16.1860   22.7129 O   0  0  0  0  0  0  0  0  0  0  0  0
   11.8920  -20.0240   24.5322 N   0  0  0  0  0  0  0  0  0  0  0  0
   10.8438  -20.1548   23.5932 C   0  0  0  0  0  0  0  0  0  0  0  0
   10.7320  -21.2069   22.9268 O   0  0  0  0  0  0  0  0  0  0  0  0
    9.8948  -19.0070   23.4339 C   0  0  0  0  0  0  0  0  0  0  0  0
   10.2834  -17.8722   24.3453 C   0  0  0  0  0  0  0  0  0  0  0  0
    9.4208  -16.6475   24.1983 C   0  0  2  0  0  0  0  0  0  0  0  0
    9.4412  -16.2027   22.7890 N   0  0  0  0  0  0  0  0  0  0  0  0
    9.8606  -15.4932   25.0080 C   0  0  0  0  0  0  0  0  0  0  0  0
   10.9672  -14.9859   24.8120 O   0  0  0  0  0  0  0  0  0  0  0  0
    8.4685  -12.9379   27.3156 C   0  0  0  0  0  0  0  0  0  0  0  0
    9.4912  -13.9627   26.9749 C   0  0  2  0  0  0  0  0  0  0  0  0
    9.0379  -14.9449   26.0168 N   0  0  0  0  0  0  0  0  0  0  0  0
   10.0024  -14.5542   28.2122 C   0  0  0  0  0  0  0  0  0  0  0  0
    9.8277  -15.7739   28.4382 O   0  0  0  0  0  0  0  0  0  0  0  0
   10.6782  -13.7753   29.1352 O   0  0  0  0  0  0  0  0  0  0  0  0
  1  2  1  0
  3  5  1  0
  3  2  1  0
  3  4  1  1
  5  6  1  6
  7  5  1  0
  7  8  2  0
  9 10  1  0
 10 12  1  0
 11 10  2  0
 12 13  1  0
 14 13  1  6
 14 15  1  0
 15  7  1  0
 16 14  1  0
 17 16  2  0
 19 18  1  1
 19 21  1  0
 19 20  1  0
 20 16  1  0
 21 23  1  0
 22 21  2  0
M  END
$$$$
