IQA.pdb
     RDKit          3D

 23 22  0  0  1  0  0  0  0  0999 V2000
    8.2391  -11.7801   20.0607 C   0  0  0  0  0  0  0  0  0  0  0  0
    7.5427  -12.9086   20.7543 C   0  0  0  0  0  0  0  0  0  0  0  0
    8.2109  -14.2057   20.4643 C   0  0  2  0  0  0  0  0  0  0  0  0
    8.2076  -14.5037   18.9640 C   0  0  0  0  0  0  0  0  0  0  0  0
    7.5622  -15.3425   21.1764 C   0  0  2  0  0  0  0  0  0  0  0  0
    7.3817  -15.0983   22.5781 N   0  0  0  0  0  0  0  0  0  0  0  0
    8.3238  -16.6030   20.9908 C   0  0  0  0  0  0  0  0  0  0  0  0
    8.3176  -17.2398   19.8977 O   0  0  0  0  0  0  0  0  0  0  0  0
   11.0398  -18.5986   18.2381 N   0  0  0  0  0  0  0  0  0  0  0  0
   12.0627  -19.1544   19.0396 C   0  0  0  0  0  0  0  0  0  0  0  0
   12.8485  -19.9959   18.5518 O   0  0  0  0  0  0  0  0  0  0  0  0
   12.1634  -18.7033   20.4643 C   0  0  0  0  0  0  0  0  0  0  0  0
   11.0774  -17.7079   20.7794 C   0  0  0  0  0  0  0  0  0  0  0  0
   10.0844  -18.1903   21.8025 C   0  0  2  0  0  0  0  0  0  0  0  0
    9.0872  -17.1287   22.0530 N   0  0  0  0  0  0  0  0  0  0  0  0
   10.6765  -18.5263   23.1133 C   0  0  0  0  0  0  0  0  0  0  0  0
   11.4236  -17.7245   23.6783 O   0  0  0  0  0  0  0  0  0  0  0  0
   10.2446  -21.3053   25.6515 C   0  0  0  0  0  0  0  0  0  0  0  0
   10.9006  -20.1080   25.0614 C   0  0  2  0  0  0  0  0  0  0  0  0
   10.4080  -19.7589   23.7486 N   0  0  0  0  0  0  0  0  0  0  0  0
   12.3521  -20.2910   25.1051 C   0  0  0  0  0  0  0  0  0  0  0  0
   13.0101  -20.3092   24.0392 O   0  0  0  0  0  0  0  0  0  0  0  0
   13.0038  -20.4442   26.3163 O   0  0  0  0  0  0  0  0  0  0  0  0
  1  2  1  0
  3  5  1  0
  3  2  1  0
  3  4  1  6
  5  6  1  1
  7  5  1  0
  7  8  2  0
  9 10  1  0
 10 12  1  0
 11 10  2  0
 12 13  1  0
 14 13  1  6
 14 15  1  0
 15  7  1  0
 16 14  1  0
 17 16  2  0
 19 18  1  6
 19 21  1  0
 19 20  1  0
 20 16  1  0
 21 23  1  0
 22 21  2  0
M  END
$$$$
