IQA.pdb
     RDKit          3D

 23 22  0  0  1  0  0  0  0  0999 V2000
    6.6683  -12.8022   20.0117 C   0  0  0  0  0  0  0  0  0  0  0  0
    7.4028  -13.2035   18.7712 C   0  0  0  0  0  0  0  0  0  0  0  0
    8.6651  -13.9160   19.1064 C   0  0  2  0  0  0  0  0  0  0  0  0
    9.6096  -13.0169   19.9058 C   0  0  0  0  0  0  0  0  0  0  0  0
    9.3798  -14.3937   17.8894 C   0  0  2  0  0  0  0  0  0  0  0  0
    8.5558  -15.1960   17.0322 N   0  0  0  0  0  0  0  0  0  0  0  0
   10.6054  -15.1522   18.2441 C   0  0  0  0  0  0  0  0  0  0  0  0
   10.6037  -16.4096   18.3826 O   0  0  0  0  0  0  0  0  0  0  0  0
   16.3440  -13.1057   17.1334 N   0  0  0  0  0  0  0  0  0  0  0  0
   16.6863  -14.2499   17.8893 C   0  0  0  0  0  0  0  0  0  0  0  0
   17.8885  -14.5174   18.1049 O   0  0  0  0  0  0  0  0  0  0  0  0
   15.5742  -15.1082   18.4089 C   0  0  0  0  0  0  0  0  0  0  0  0
   14.2424  -14.4454   18.1710 C   0  0  0  0  0  0  0  0  0  0  0  0
   13.0685  -15.2262   18.6979 C   0  0  2  0  0  0  0  0  0  0  0  0
   11.8245  -14.4715   18.4385 N   0  0  0  0  0  0  0  0  0  0  0  0
   13.1095  -15.4785   20.1526 C   0  0  0  0  0  0  0  0  0  0  0  0
   12.9178  -14.5545   20.9462 O   0  0  0  0  0  0  0  0  0  0  0  0
   13.1497  -18.5161   22.3827 C   0  0  0  0  0  0  0  0  0  0  0  0
   13.3769  -17.0776   22.0810 C   0  0  2  0  0  0  0  0  0  0  0  0
   13.3664  -16.7676   20.6697 N   0  0  0  0  0  0  0  0  0  0  0  0
   14.5949  -16.6355   22.7616 C   0  0  0  0  0  0  0  0  0  0  0  0
   15.5268  -16.1223   22.1001 O   0  0  0  0  0  0  0  0  0  0  0  0
   14.7249  -16.7803   24.1317 O   0  0  0  0  0  0  0  0  0  0  0  0
  1  2  1  0
  3  5  1  0
  3  2  1  0
  3  4  1  6
  5  6  1  1
  7  5  1  0
  7  8  2  0
  9 10  1  0
 10 12  1  0
 11 10  2  0
 12 13  1  0
 14 13  1  1
 14 15  1  0
 15  7  1  0
 16 14  1  0
 17 16  2  0
 19 18  1  6
 19 21  1  0
 19 20  1  0
 20 16  1  0
 21 23  1  0
 22 21  2  0
M  END
$$$$
