IQA.pdb
     RDKit          3D

 23 22  0  0  1  0  0  0  0  0999 V2000
    7.7020  -11.9829   19.3141 C   0  0  0  0  0  0  0  0  0  0  0  0
    7.8141  -13.4722   19.4086 C   0  0  0  0  0  0  0  0  0  0  0  0
    7.7568  -13.9220   20.8256 C   0  0  2  0  0  0  0  0  0  0  0  0
    8.8719  -13.2802   21.6527 C   0  0  0  0  0  0  0  0  0  0  0  0
    7.8653  -15.4029   20.9489 C   0  0  2  0  0  0  0  0  0  0  0  0
    6.8109  -16.1020   20.2730 N   0  0  0  0  0  0  0  0  0  0  0  0
    7.9035  -15.8264   22.3710 C   0  0  0  0  0  0  0  0  0  0  0  0
    6.8764  -15.8031   23.1093 O   0  0  0  0  0  0  0  0  0  0  0  0
   11.7663  -19.9693   24.7275 N   0  0  0  0  0  0  0  0  0  0  0  0
   11.1941  -19.5339   25.9443 C   0  0  0  0  0  0  0  0  0  0  0  0
   11.5004  -20.1021   27.0152 O   0  0  0  0  0  0  0  0  0  0  0  0
   10.2283  -18.3901   25.8979 C   0  0  0  0  0  0  0  0  0  0  0  0
   10.0685  -17.8929   24.4848 C   0  0  0  0  0  0  0  0  0  0  0  0
    9.1583  -16.7012   24.3555 C   0  0  2  0  0  0  0  0  0  0  0  0
    9.1127  -16.2732   22.9417 N   0  0  0  0  0  0  0  0  0  0  0  0
    9.5854  -15.5224   25.1362 C   0  0  0  0  0  0  0  0  0  0  0  0
   10.6142  -14.9164   24.8286 O   0  0  0  0  0  0  0  0  0  0  0  0
    8.1155  -13.0663   27.4820 C   0  0  0  0  0  0  0  0  0  0  0  0
    9.2400  -13.9504   27.0745 C   0  0  2  0  0  0  0  0  0  0  0  0
    8.8382  -15.0616   26.2428 N   0  0  0  0  0  0  0  0  0  0  0  0
    9.9802  -14.3595   28.2690 C   0  0  0  0  0  0  0  0  0  0  0  0
   10.0626  -15.5739   28.5654 O   0  0  0  0  0  0  0  0  0  0  0  0
   10.5906  -13.4139   29.0743 O   0  0  0  0  0  0  0  0  0  0  0  0
  1  2  1  0
  3  5  1  0
  3  2  1  0
  3  4  1  1
  5  6  1  1
  7  5  1  0
  7  8  2  0
  9 10  1  0
 10 12  1  0
 11 10  2  0
 12 13  1  0
 14 13  1  6
 14 15  1  0
 15  7  1  0
 16 14  1  0
 17 16  2  0
 19 18  1  1
 19 21  1  0
 19 20  1  0
 20 16  1  0
 21 23  1  0
 22 21  2  0
M  END
$$$$
