IQA.pdb
     RDKit          3D

 23 22  0  0  1  0  0  0  0  0999 V2000
    8.1681  -12.1401   20.6626 C   0  0  0  0  0  0  0  0  0  0  0  0
    7.3961  -13.4044   20.8743 C   0  0  0  0  0  0  0  0  0  0  0  0
    8.2797  -14.5950   20.7520 C   0  0  2  0  0  0  0  0  0  0  0  0
    8.8954  -14.6828   19.3546 C   0  0  0  0  0  0  0  0  0  0  0  0
    7.5519  -15.8648   21.0316 C   0  0  2  0  0  0  0  0  0  0  0  0
    6.4607  -16.0976   20.1303 N   0  0  0  0  0  0  0  0  0  0  0  0
    7.0530  -15.9064   22.4290 C   0  0  0  0  0  0  0  0  0  0  0  0
    5.8983  -15.4973   22.7451 O   0  0  0  0  0  0  0  0  0  0  0  0
    6.6488  -20.3372   26.0511 N   0  0  0  0  0  0  0  0  0  0  0  0
    7.7280  -19.7208   26.7241 C   0  0  0  0  0  0  0  0  0  0  0  0
    8.3489  -20.3471   27.6105 O   0  0  0  0  0  0  0  0  0  0  0  0
    8.0881  -18.3187   26.3395 C   0  0  0  0  0  0  0  0  0  0  0  0
    7.1182  -17.7878   25.3163 C   0  0  0  0  0  0  0  0  0  0  0  0
    7.4171  -16.3845   24.8615 C   0  0  2  0  0  0  0  0  0  0  0  0
    7.8742  -16.4139   23.4563 N   0  0  0  0  0  0  0  0  0  0  0  0
    8.4795  -15.7084   25.6333 C   0  0  0  0  0  0  0  0  0  0  0  0
    9.6639  -15.8787   25.3357 O   0  0  0  0  0  0  0  0  0  0  0  0
    8.6160  -12.8609   28.0800 C   0  0  0  0  0  0  0  0  0  0  0  0
    9.1623  -14.0841   27.4340 C   0  0  2  0  0  0  0  0  0  0  0  0
    8.1739  -14.8592   26.7198 N   0  0  0  0  0  0  0  0  0  0  0  0
    9.8965  -14.8620   28.4330 C   0  0  0  0  0  0  0  0  0  0  0  0
   10.8226  -14.3248   29.0834 O   0  0  0  0  0  0  0  0  0  0  0  0
    9.5749  -16.1879   28.6649 O   0  0  0  0  0  0  0  0  0  0  0  0
  1  2  1  0
  3  5  1  0
  3  2  1  0
  3  4  1  6
  5  6  1  6
  7  5  1  0
  7  8  2  0
  9 10  1  0
 10 12  1  0
 11 10  2  0
 12 13  1  0
 14 13  1  1
 14 15  1  0
 15  7  1  0
 16 14  1  0
 17 16  2  0
 19 18  1  1
 19 21  1  0
 19 20  1  0
 20 16  1  0
 21 23  1  0
 22 21  2  0
M  END
$$$$
