IQA.pdb
     RDKit          3D

 23 22  0  0  1  0  0  0  0  0999 V2000
    7.4537  -11.8211   19.0583 C   0  0  0  0  0  0  0  0  0  0  0  0
    7.7753  -13.2826   19.0690 C   0  0  0  0  0  0  0  0  0  0  0  0
    7.5995  -13.8569   20.4300 C   0  0  2  0  0  0  0  0  0  0  0  0
    8.4611  -13.1179   21.4552 C   0  0  0  0  0  0  0  0  0  0  0  0
    7.9432  -15.3060   20.4762 C   0  0  2  0  0  0  0  0  0  0  0  0
    7.0902  -16.1126   19.6523 N   0  0  0  0  0  0  0  0  0  0  0  0
    7.9173  -15.8245   21.8668 C   0  0  0  0  0  0  0  0  0  0  0  0
    6.8354  -16.0728   22.4737 O   0  0  0  0  0  0  0  0  0  0  0  0
   11.8864  -19.6535   24.3862 N   0  0  0  0  0  0  0  0  0  0  0  0
   11.2582  -19.2567   25.5885 C   0  0  0  0  0  0  0  0  0  0  0  0
   11.5447  -19.8327   26.6607 O   0  0  0  0  0  0  0  0  0  0  0  0
   10.2585  -18.1431   25.5256 C   0  0  0  0  0  0  0  0  0  0  0  0
   10.1248  -17.6348   24.1137 C   0  0  0  0  0  0  0  0  0  0  0  0
    9.1078  -16.5369   23.9533 C   0  0  2  0  0  0  0  0  0  0  0  0
    9.1252  -16.0561   22.5559 N   0  0  0  0  0  0  0  0  0  0  0  0
    9.3491  -15.3551   24.8057 C   0  0  0  0  0  0  0  0  0  0  0  0
   10.3384  -14.6449   24.6127 O   0  0  0  0  0  0  0  0  0  0  0  0
    7.4505  -13.2050   27.1762 C   0  0  0  0  0  0  0  0  0  0  0  0
    8.6931  -13.9097   26.7621 C   0  0  2  0  0  0  0  0  0  0  0  0
    8.4661  -15.0092   25.8525 N   0  0  0  0  0  0  0  0  0  0  0  0
    9.4432  -14.2938   27.9587 C   0  0  0  0  0  0  0  0  0  0  0  0
    9.5912  -15.5059   28.2388 O   0  0  0  0  0  0  0  0  0  0  0  0
    9.9910  -13.3272   28.7838 O   0  0  0  0  0  0  0  0  0  0  0  0
  1  2  1  0
  3  5  1  0
  3  2  1  0
  3  4  1  1
  5  6  1  6
  7  5  1  0
  7  8  2  0
  9 10  1  0
 10 12  1  0
 11 10  2  0
 12 13  1  0
 14 13  1  6
 14 15  1  0
 15  7  1  0
 16 14  1  0
 17 16  2  0
 19 18  1  1
 19 21  1  0
 19 20  1  0
 20 16  1  0
 21 23  1  0
 22 21  2  0
M  END
$$$$
