IQA.pdb
     RDKit          3D

 23 22  0  0  1  0  0  0  0  0999 V2000
    7.4997  -12.0564   19.3791 C   0  0  0  0  0  0  0  0  0  0  0  0
    8.0239  -13.4580   19.3983 C   0  0  0  0  0  0  0  0  0  0  0  0
    7.8177  -14.0857   20.7313 C   0  0  2  0  0  0  0  0  0  0  0  0
    8.5104  -13.2809   21.8322 C   0  0  0  0  0  0  0  0  0  0  0  0
    8.3238  -15.4864   20.7761 C   0  0  2  0  0  0  0  0  0  0  0  0
    7.6869  -16.3450   19.8199 N   0  0  0  0  0  0  0  0  0  0  0  0
    8.1811  -16.0704   22.1332 C   0  0  0  0  0  0  0  0  0  0  0  0
    7.0594  -16.4201   22.6022 O   0  0  0  0  0  0  0  0  0  0  0  0
   12.1144  -20.0977   25.4315 N   0  0  0  0  0  0  0  0  0  0  0  0
   11.7052  -19.6327   24.1610 C   0  0  0  0  0  0  0  0  0  0  0  0
   11.7604  -20.3948   23.1712 O   0  0  0  0  0  0  0  0  0  0  0  0
   11.2141  -18.2218   24.0531 C   0  0  0  0  0  0  0  0  0  0  0  0
    9.7529  -18.1441   24.4118 C   0  0  0  0  0  0  0  0  0  0  0  0
    9.1762  -16.7564   24.3280 C   0  0  2  0  0  0  0  0  0  0  0  0
    9.3184  -16.2515   22.9463 N   0  0  0  0  0  0  0  0  0  0  0  0
    9.8380  -15.7689   25.2047 C   0  0  0  0  0  0  0  0  0  0  0  0
   10.9044  -15.2539   24.8617 O   0  0  0  0  0  0  0  0  0  0  0  0
    9.1137  -13.2377   27.6167 C   0  0  0  0  0  0  0  0  0  0  0  0
    9.9062  -14.4704   27.3626 C   0  0  2  0  0  0  0  0  0  0  0  0
    9.2763  -15.3914   26.4446 N   0  0  0  0  0  0  0  0  0  0  0  0
   10.2590  -15.0817   28.6448 C   0  0  0  0  0  0  0  0  0  0  0  0
    9.9151  -16.2615   28.8880 O   0  0  0  0  0  0  0  0  0  0  0  0
   10.9705  -14.3655   29.5913 O   0  0  0  0  0  0  0  0  0  0  0  0
  1  2  1  0
  3  5  1  0
  3  2  1  0
  3  4  1  1
  5  6  1  6
  7  5  1  0
  7  8  2  0
  9 10  1  0
 10 12  1  0
 11 10  2  0
 12 13  1  0
 14 13  1  6
 14 15  1  0
 15  7  1  0
 16 14  1  0
 17 16  2  0
 19 18  1  1
 19 21  1  0
 19 20  1  0
 20 16  1  0
 21 23  1  0
 22 21  2  0
M  END
$$$$
