IQA.pdb
     RDKit          3D

 23 22  0  0  1  0  0  0  0  0999 V2000
    8.3558  -12.4659   19.6500 C   0  0  0  0  0  0  0  0  0  0  0  0
    7.7472  -13.8108   19.8961 C   0  0  0  0  0  0  0  0  0  0  0  0
    7.8034  -14.1649   21.3399 C   0  0  2  0  0  0  0  0  0  0  0  0
    9.2479  -14.2043   21.8416 C   0  0  0  0  0  0  0  0  0  0  0  0
    7.1668  -15.4828   21.6195 C   0  0  2  0  0  0  0  0  0  0  0  0
    5.8131  -15.5634   21.1526 N   0  0  0  0  0  0  0  0  0  0  0  0
    7.2079  -15.8075   23.0673 C   0  0  0  0  0  0  0  0  0  0  0  0
    6.4657  -15.2252   23.9102 O   0  0  0  0  0  0  0  0  0  0  0  0
    6.3232  -19.6542   26.3490 N   0  0  0  0  0  0  0  0  0  0  0  0
    7.4308  -19.4615   27.2057 C   0  0  0  0  0  0  0  0  0  0  0  0
    7.3227  -19.7036   28.4277 O   0  0  0  0  0  0  0  0  0  0  0  0
    8.7093  -18.9670   26.6021 C   0  0  0  0  0  0  0  0  0  0  0  0
    8.4920  -18.5618   25.1674 C   0  0  0  0  0  0  0  0  0  0  0  0
    8.1613  -17.1046   24.9874 C   0  0  2  0  0  0  0  0  0  0  0  0
    8.0950  -16.7940   23.5440 N   0  0  0  0  0  0  0  0  0  0  0  0
    9.1545  -16.1792   25.5696 C   0  0  0  0  0  0  0  0  0  0  0  0
   10.2258  -15.9790   24.9930 O   0  0  0  0  0  0  0  0  0  0  0  0
    9.2906  -13.4279   28.0414 C   0  0  0  0  0  0  0  0  0  0  0  0
    9.8771  -14.6562   27.4419 C   0  0  2  0  0  0  0  0  0  0  0  0
    8.9094  -15.5064   26.7871 N   0  0  0  0  0  0  0  0  0  0  0  0
   10.6645  -15.3530   28.4600 C   0  0  0  0  0  0  0  0  0  0  0  0
   10.4076  -16.5475   28.7369 O   0  0  0  0  0  0  0  0  0  0  0  0
   11.6919  -14.7016   29.1198 O   0  0  0  0  0  0  0  0  0  0  0  0
  1  2  1  0
  3  5  1  0
  3  2  1  0
  3  4  1  6
  5  6  1  1
  7  5  1  0
  7  8  2  0
  9 10  1  0
 10 12  1  0
 11 10  2  0
 12 13  1  0
 14 13  1  6
 14 15  1  0
 15  7  1  0
 16 14  1  0
 17 16  2  0
 19 18  1  1
 19 21  1  0
 19 20  1  0
 20 16  1  0
 21 23  1  0
 22 21  2  0
M  END
$$$$
