IQA.pdb
     RDKit          3D

 23 22  0  0  1  0  0  0  0  0999 V2000
    7.1832  -11.7153   19.7922 C   0  0  0  0  0  0  0  0  0  0  0  0
    7.9876  -12.7979   19.1439 C   0  0  0  0  0  0  0  0  0  0  0  0
    7.9692  -14.0391   19.9639 C   0  0  2  0  0  0  0  0  0  0  0  0
    8.5379  -13.7848   21.3609 C   0  0  0  0  0  0  0  0  0  0  0  0
    8.7435  -15.1425   19.3289 C   0  0  2  0  0  0  0  0  0  0  0  0
    8.2274  -15.5259   18.0468 N   0  0  0  0  0  0  0  0  0  0  0  0
    8.8080  -16.3353   20.2099 C   0  0  0  0  0  0  0  0  0  0  0  0
    7.8613  -17.1713   20.2832 O   0  0  0  0  0  0  0  0  0  0  0  0
   12.9635  -20.5552   21.4905 N   0  0  0  0  0  0  0  0  0  0  0  0
   13.3938  -19.2366   21.2191 C   0  0  0  0  0  0  0  0  0  0  0  0
   14.6086  -19.0027   21.0371 O   0  0  0  0  0  0  0  0  0  0  0  0
   12.3577  -18.1566   21.1599 C   0  0  0  0  0  0  0  0  0  0  0  0
   10.9888  -18.7250   21.4299 C   0  0  0  0  0  0  0  0  0  0  0  0
    9.9954  -17.7127   21.9336 C   0  0  2  0  0  0  0  0  0  0  0  0
    9.9514  -16.5666   21.0015 N   0  0  0  0  0  0  0  0  0  0  0  0
   10.3145  -17.1577   23.2646 C   0  0  0  0  0  0  0  0  0  0  0  0
   11.0768  -16.1940   23.3664 O   0  0  0  0  0  0  0  0  0  0  0  0
    8.9998  -16.5480   26.4708 C   0  0  0  0  0  0  0  0  0  0  0  0
   10.1052  -17.2576   25.7733 C   0  0  2  0  0  0  0  0  0  0  0  0
    9.7637  -17.7076   24.4434 N   0  0  0  0  0  0  0  0  0  0  0  0
   10.6019  -18.3296   26.6372 C   0  0  0  0  0  0  0  0  0  0  0  0
   10.5194  -19.5217   26.2610 O   0  0  0  0  0  0  0  0  0  0  0  0
   11.1628  -18.0359   27.8678 O   0  0  0  0  0  0  0  0  0  0  0  0
  1  2  1  0
  3  5  1  0
  3  2  1  0
  3  4  1  1
  5  6  1  6
  7  5  1  0
  7  8  2  0
  9 10  1  0
 10 12  1  0
 11 10  2  0
 12 13  1  0
 14 13  1  6
 14 15  1  0
 15  7  1  0
 16 14  1  0
 17 16  2  0
 19 18  1  1
 19 21  1  0
 19 20  1  0
 20 16  1  0
 21 23  1  0
 22 21  2  0
M  END
$$$$
