IQA.pdb
     RDKit          3D

 23 22  0  0  1  0  0  0  0  0999 V2000
    6.5380  -11.4822   27.2562 C   0  0  0  0  0  0  0  0  0  0  0  0
    5.9634  -12.6645   26.5408 C   0  0  0  0  0  0  0  0  0  0  0  0
    7.0360  -13.4733   25.9016 C   0  0  2  0  0  0  0  0  0  0  0  0
    7.8265  -12.6400   24.8916 C   0  0  0  0  0  0  0  0  0  0  0  0
    6.4939  -14.6746   25.2064 C   0  0  2  0  0  0  0  0  0  0  0  0
    5.7857  -15.5604   26.0844 N   0  0  0  0  0  0  0  0  0  0  0  0
    7.5670  -15.4270   24.5095 C   0  0  0  0  0  0  0  0  0  0  0  0
    8.2281  -16.3424   25.0798 O   0  0  0  0  0  0  0  0  0  0  0  0
    8.2247  -17.7230   18.9904 N   0  0  0  0  0  0  0  0  0  0  0  0
    9.3801  -17.6229   19.7983 C   0  0  0  0  0  0  0  0  0  0  0  0
    9.9477  -18.6602   20.2051 O   0  0  0  0  0  0  0  0  0  0  0  0
    9.8841  -16.2541   20.1385 C   0  0  0  0  0  0  0  0  0  0  0  0
    8.8773  -15.5170   20.9826 C   0  0  0  0  0  0  0  0  0  0  0  0
    8.8192  -15.9846   22.4121 C   0  0  2  0  0  0  0  0  0  0  0  0
    7.8789  -15.1302   23.1671 N   0  0  0  0  0  0  0  0  0  0  0  0
   10.1103  -15.9190   23.1263 C   0  0  0  0  0  0  0  0  0  0  0  0
   10.8475  -14.9411   22.9829 O   0  0  0  0  0  0  0  0  0  0  0  0
   11.9520  -17.9503   25.7268 C   0  0  0  0  0  0  0  0  0  0  0  0
   11.8570  -17.0405   24.5541 C   0  0  2  0  0  0  0  0  0  0  0  0
   10.5325  -16.9604   23.9822 N   0  0  0  0  0  0  0  0  0  0  0  0
   12.8861  -17.4099   23.5811 C   0  0  0  0  0  0  0  0  0  0  0  0
   14.0962  -17.3432   23.8985 O   0  0  0  0  0  0  0  0  0  0  0  0
   12.5322  -17.8328   22.3118 O   0  0  0  0  0  0  0  0  0  0  0  0
  1  2  1  0
  3  5  1  0
  3  2  1  0
  3  4  1  6
  5  6  1  1
  7  5  1  0
  7  8  2  0
  9 10  1  0
 10 12  1  0
 11 10  2  0
 12 13  1  0
 14 13  1  6
 14 15  1  0
 15  7  1  0
 16 14  1  0
 17 16  2  0
 19 18  1  1
 19 21  1  0
 19 20  1  0
 20 16  1  0
 21 23  1  0
 22 21  2  0
M  END
$$$$
