IQA.pdb
     RDKit          3D

 23 22  0  0  1  0  0  0  0  0999 V2000
    7.5962  -12.1545   19.1911 C   0  0  0  0  0  0  0  0  0  0  0  0
    7.9229  -13.6116   19.2887 C   0  0  0  0  0  0  0  0  0  0  0  0
    7.8751  -14.0748   20.7017 C   0  0  2  0  0  0  0  0  0  0  0  0
    8.8869  -13.3182   21.5639 C   0  0  0  0  0  0  0  0  0  0  0  0
    8.1450  -15.5352   20.8228 C   0  0  2  0  0  0  0  0  0  0  0  0
    7.1811  -16.3439   20.1342 N   0  0  0  0  0  0  0  0  0  0  0  0
    8.2151  -15.9567   22.2443 C   0  0  0  0  0  0  0  0  0  0  0  0
    7.1782  -16.1309   22.9478 O   0  0  0  0  0  0  0  0  0  0  0  0
   11.2923  -20.8011   25.5218 N   0  0  0  0  0  0  0  0  0  0  0  0
   11.7788  -19.4788   25.6337 C   0  0  0  0  0  0  0  0  0  0  0  0
   13.0103  -19.2713   25.6963 O   0  0  0  0  0  0  0  0  0  0  0  0
   10.7805  -18.3629   25.6730 C   0  0  0  0  0  0  0  0  0  0  0  0
   10.5318  -17.8297   24.2862 C   0  0  0  0  0  0  0  0  0  0  0  0
    9.5445  -16.6949   24.2357 C   0  0  2  0  0  0  0  0  0  0  0  0
    9.4671  -16.1765   22.8538 N   0  0  0  0  0  0  0  0  0  0  0  0
    9.8946  -15.5456   25.0949 C   0  0  0  0  0  0  0  0  0  0  0  0
   10.8946  -14.8688   24.8454 O   0  0  0  0  0  0  0  0  0  0  0  0
    8.2819  -13.2560   27.4797 C   0  0  0  0  0  0  0  0  0  0  0  0
    9.4373  -14.1217   27.1224 C   0  0  2  0  0  0  0  0  0  0  0  0
    9.1052  -15.1936   26.2121 N   0  0  0  0  0  0  0  0  0  0  0  0
   10.0822  -14.5854   28.3517 C   0  0  0  0  0  0  0  0  0  0  0  0
   10.1484  -15.8123   28.5960 O   0  0  0  0  0  0  0  0  0  0  0  0
   10.6201  -13.6776   29.2472 O   0  0  0  0  0  0  0  0  0  0  0  0
  1  2  1  0
  3  5  1  0
  3  2  1  0
  3  4  1  1
  5  6  1  6
  7  5  1  0
  7  8  2  0
  9 10  1  0
 10 12  1  0
 11 10  2  0
 12 13  1  0
 14 13  1  6
 14 15  1  0
 15  7  1  0
 16 14  1  0
 17 16  2  0
 19 18  1  1
 19 21  1  0
 19 20  1  0
 20 16  1  0
 21 23  1  0
 22 21  2  0
M  END
$$$$
