AGF.pdb
     RDKit          3D

 21 21  0  0  1  0  0  0  0  0999 V2000
   25.3530  -17.4390  -19.3729 C   0  0  0  0  0  0  0  0  0  0  0  0
   24.6812  -18.7091  -18.8686 C   0  0  2  0  0  0  0  0  0  0  0  0
   23.6664  -19.1703  -19.7744 N   0  0  0  0  0  0  0  0  0  0  0  0
   24.0946  -18.5153  -17.5213 C   0  0  0  0  0  0  0  0  0  0  0  0
   24.8334  -18.1636  -16.5741 O   0  0  0  0  0  0  0  0  0  0  0  0
   22.7220  -18.7243  -17.3089 N   0  0  0  0  0  0  0  0  0  0  0  0
   22.0620  -18.5070  -16.0396 C   0  0  0  0  0  0  0  0  0  0  0  0
   21.8154  -19.8070  -15.3996 C   0  0  0  0  0  0  0  0  0  0  0  0
   21.2788  -20.7256  -16.1097 O   0  0  0  0  0  0  0  0  0  0  0  0
   22.1486  -20.0673  -14.0444 N   0  0  0  0  0  0  0  0  0  0  0  0
   21.9220  -21.3884  -13.5234 C   0  0  1  0  0  0  0  0  0  0  0  0
   23.1417  -21.9750  -12.8872 C   0  0  0  0  0  0  0  0  0  0  0  0
   24.1865  -22.1736  -13.8975 C   0  0  0  0  0  0  0  0  0  0  0  0
   24.2752  -23.3470  -14.6078 C   0  0  0  0  0  0  0  0  0  0  0  0
   25.2309  -23.5689  -15.5862 C   0  0  0  0  0  0  0  0  0  0  0  0
   26.1322  -22.5427  -15.8450 C   0  0  0  0  0  0  0  0  0  0  0  0
   26.0615  -21.3575  -15.1446 C   0  0  0  0  0  0  0  0  0  0  0  0
   25.0894  -21.1780  -14.1742 C   0  0  0  0  0  0  0  0  0  0  0  0
   20.7412  -21.3748  -12.6504 C   0  0  0  0  0  0  0  0  0  0  0  0
   20.1005  -22.3853  -12.2773 O   0  0  0  0  0  0  0  0  0  0  0  0
   20.2535  -20.1544  -12.1698 O   0  0  0  0  0  0  0  0  0  0  0  0
  2  1  1  6
  2  3  1  0
  4  2  1  0
  4  5  2  0
  6  4  1  0
  7  6  1  0
  8 10  1  0
  8  7  1  0
  9  8  2  0
 11 12  1  1
 11 10  1  0
 12 13  1  0
 13 14  2  0
 13 18  1  0
 14 15  1  0
 15 16  2  0
 17 16  1  0
 18 17  2  0
 19 11  1  0
 20 19  2  0
 21 19  1  0
M  END
$$$$
