AGF.pdb
     RDKit          3D

 21 21  0  0  1  0  0  0  0  0999 V2000
   19.3074  -14.2034  -18.6693 C   0  0  0  0  0  0  0  0  0  0  0  0
   19.7786  -13.5592  -17.3725 C   0  0  2  0  0  0  0  0  0  0  0  0
   18.9090  -13.8758  -16.2741 N   0  0  0  0  0  0  0  0  0  0  0  0
   19.8941  -12.0877  -17.5074 C   0  0  0  0  0  0  0  0  0  0  0  0
   20.8038  -11.6053  -18.2190 O   0  0  0  0  0  0  0  0  0  0  0  0
   18.9910  -11.2418  -16.8429 N   0  0  0  0  0  0  0  0  0  0  0  0
   19.0003   -9.7999  -16.9651 C   0  0  0  0  0  0  0  0  0  0  0  0
   19.0993   -9.2066  -15.6240 C   0  0  0  0  0  0  0  0  0  0  0  0
   18.4515   -9.7708  -14.6763 O   0  0  0  0  0  0  0  0  0  0  0  0
   19.8767   -8.0496  -15.3553 N   0  0  0  0  0  0  0  0  0  0  0  0
   19.9147   -7.5453  -14.0091 C   0  0  1  0  0  0  0  0  0  0  0  0
   21.2605   -7.6948  -13.3744 C   0  0  0  0  0  0  0  0  0  0  0  0
   22.2719   -6.9975  -14.1762 C   0  0  0  0  0  0  0  0  0  0  0  0
   22.4226   -5.6333  -14.1009 C   0  0  0  0  0  0  0  0  0  0  0  0
   23.3787   -4.9368  -14.8222 C   0  0  0  0  0  0  0  0  0  0  0  0
   24.2141   -5.6725  -15.6549 C   0  0  0  0  0  0  0  0  0  0  0  0
   24.0805   -7.0415  -15.7457 C   0  0  0  0  0  0  0  0  0  0  0  0
   23.1104   -7.6980  -15.0062 C   0  0  0  0  0  0  0  0  0  0  0  0
   19.3925   -6.1730  -13.9852 C   0  0  0  0  0  0  0  0  0  0  0  0
   19.1494   -5.5048  -12.9531 O   0  0  0  0  0  0  0  0  0  0  0  0
   19.1288   -5.5147  -15.1916 O   0  0  0  0  0  0  0  0  0  0  0  0
  2  1  1  6
  2  3  1  0
  4  2  1  0
  4  5  2  0
  6  4  1  0
  7  6  1  0
  8 10  1  0
  8  7  1  0
  9  8  2  0
 11 12  1  6
 11 10  1  0
 12 13  1  0
 13 14  2  0
 13 18  1  0
 14 15  1  0
 15 16  2  0
 17 16  1  0
 18 17  2  0
 19 11  1  0
 20 19  2  0
 21 19  1  0
M  END
$$$$
