AGF.pdb
     RDKit          3D

 21 21  0  0  1  0  0  0  0  0999 V2000
   16.7248   -8.8194  -23.1124 C   0  0  0  0  0  0  0  0  0  0  0  0
   17.5123   -9.1949  -21.8643 C   0  0  2  0  0  0  0  0  0  0  0  0
   16.6758   -9.8098  -20.8719 N   0  0  0  0  0  0  0  0  0  0  0  0
   18.1960   -8.0175  -21.2785 C   0  0  0  0  0  0  0  0  0  0  0  0
   19.0049   -7.3659  -21.9770 O   0  0  0  0  0  0  0  0  0  0  0  0
   17.9387   -7.6358  -19.9515 N   0  0  0  0  0  0  0  0  0  0  0  0
   18.5387   -6.4830  -19.3151 C   0  0  0  0  0  0  0  0  0  0  0  0
   19.0159   -6.8681  -17.9793 C   0  0  0  0  0  0  0  0  0  0  0  0
   18.4697   -7.8825  -17.4237 O   0  0  0  0  0  0  0  0  0  0  0  0
   20.0441   -6.1616  -17.3018 N   0  0  0  0  0  0  0  0  0  0  0  0
   20.3995   -6.5755  -15.9712 C   0  0  1  0  0  0  0  0  0  0  0  0
   21.8472   -6.9278  -15.8435 C   0  0  0  0  0  0  0  0  0  0  0  0
   22.1248   -7.4201  -14.4899 C   0  0  0  0  0  0  0  0  0  0  0  0
   22.2628   -8.7640  -14.2362 C   0  0  0  0  0  0  0  0  0  0  0  0
   22.5472   -9.2713  -12.9787 C   0  0  0  0  0  0  0  0  0  0  0  0
   22.6959   -8.3601  -11.9394 C   0  0  0  0  0  0  0  0  0  0  0  0
   22.5617   -7.0079  -12.1713 C   0  0  0  0  0  0  0  0  0  0  0  0
   22.2769   -6.5438  -13.4450 C   0  0  0  0  0  0  0  0  0  0  0  0
   19.9432   -5.5668  -15.0063 C   0  0  0  0  0  0  0  0  0  0  0  0
   20.0273   -4.3253  -15.1569 O   0  0  0  0  0  0  0  0  0  0  0  0
   19.3589   -5.9783  -13.8032 O   0  0  0  0  0  0  0  0  0  0  0  0
  2  1  1  6
  2  3  1  0
  4  2  1  0
  4  5  2  0
  6  4  1  0
  7  6  1  0
  8 10  1  0
  8  7  1  0
  9  8  2  0
 11 12  1  6
 11 10  1  0
 12 13  1  0
 13 14  2  0
 13 18  1  0
 14 15  1  0
 15 16  2  0
 17 16  1  0
 18 17  2  0
 19 11  1  0
 20 19  2  0
 21 19  1  0
M  END
$$$$
