AGF.pdb
     RDKit          3D

 21 21  0  0  1  0  0  0  0  0999 V2000
   14.3909  -12.7711  -14.9554 C   0  0  0  0  0  0  0  0  0  0  0  0
   15.9031  -12.6474  -14.8255 C   0  0  2  0  0  0  0  0  0  0  0  0
   16.5737  -13.8433  -15.2531 N   0  0  0  0  0  0  0  0  0  0  0  0
   16.3042  -12.3218  -13.4363 C   0  0  0  0  0  0  0  0  0  0  0  0
   16.6545  -13.2437  -12.6655 O   0  0  0  0  0  0  0  0  0  0  0  0
   16.2914  -10.9907  -12.9882 N   0  0  0  0  0  0  0  0  0  0  0  0
   16.7202  -10.5819  -11.6680 C   0  0  0  0  0  0  0  0  0  0  0  0
   16.5917   -9.1222  -11.5536 C   0  0  0  0  0  0  0  0  0  0  0  0
   16.6217   -8.4375  -12.6336 O   0  0  0  0  0  0  0  0  0  0  0  0
   16.4386   -8.4637  -10.3053 N   0  0  0  0  0  0  0  0  0  0  0  0
   16.1799   -7.0491  -10.3026 C   0  0  1  0  0  0  0  0  0  0  0  0
   14.7285   -6.7274  -10.4650 C   0  0  0  0  0  0  0  0  0  0  0  0
   13.9662   -7.2711   -9.3358 C   0  0  0  0  0  0  0  0  0  0  0  0
   13.7340   -6.5211   -8.2075 C   0  0  0  0  0  0  0  0  0  0  0  0
   13.0007   -6.9859   -7.1277 C   0  0  0  0  0  0  0  0  0  0  0  0
   12.4850   -8.2741   -7.2110 C   0  0  0  0  0  0  0  0  0  0  0  0
   12.7057   -9.0438   -8.3331 C   0  0  0  0  0  0  0  0  0  0  0  0
   13.4450   -8.5393   -9.3904 C   0  0  0  0  0  0  0  0  0  0  0  0
   16.7972   -6.4406   -9.1171 C   0  0  0  0  0  0  0  0  0  0  0  0
   17.3463   -7.0665   -8.1804 O   0  0  0  0  0  0  0  0  0  0  0  0
   16.7966   -5.0482   -8.9777 O   0  0  0  0  0  0  0  0  0  0  0  0
  2  1  1  1
  2  3  1  0
  4  2  1  0
  4  5  2  0
  6  4  1  0
  7  6  1  0
  8 10  1  0
  8  7  1  0
  9  8  2  0
 11 12  1  1
 11 10  1  0
 12 13  1  0
 13 14  2  0
 13 18  1  0
 14 15  1  0
 15 16  2  0
 17 16  1  0
 18 17  2  0
 19 11  1  0
 20 19  2  0
 21 19  1  0
M  END
$$$$
