AGF.pdb
     RDKit          3D

 21 21  0  0  1  0  0  0  0  0999 V2000
   24.5016  -13.1313  -20.9729 C   0  0  0  0  0  0  0  0  0  0  0  0
   24.8174  -11.8247  -20.2575 C   0  0  2  0  0  0  0  0  0  0  0  0
   25.3807  -12.0529  -18.9561 N   0  0  0  0  0  0  0  0  0  0  0  0
   23.6144  -10.9675  -20.1355 C   0  0  0  0  0  0  0  0  0  0  0  0
   23.0695  -10.5222  -21.1706 O   0  0  0  0  0  0  0  0  0  0  0  0
   23.0902  -10.6574  -18.8699 N   0  0  0  0  0  0  0  0  0  0  0  0
   21.9606   -9.7775  -18.6604 C   0  0  0  0  0  0  0  0  0  0  0  0
   22.0372   -9.2150  -17.3046 C   0  0  0  0  0  0  0  0  0  0  0  0
   21.7471   -9.9851  -16.3254 O   0  0  0  0  0  0  0  0  0  0  0  0
   22.4158   -7.8697  -17.0554 N   0  0  0  0  0  0  0  0  0  0  0  0
   22.4844   -7.4171  -15.6921 C   0  0  1  0  0  0  0  0  0  0  0  0
   23.8710   -7.0397  -15.2782 C   0  0  0  0  0  0  0  0  0  0  0  0
   24.8213   -8.0672  -15.7176 C   0  0  0  0  0  0  0  0  0  0  0  0
   25.0180   -9.2137  -14.9853 C   0  0  0  0  0  0  0  0  0  0  0  0
   25.8878  -10.2198  -15.3740 C   0  0  0  0  0  0  0  0  0  0  0  0
   26.5838  -10.0399  -16.5638 C   0  0  0  0  0  0  0  0  0  0  0  0
   26.4018   -8.8979  -17.3139 C   0  0  0  0  0  0  0  0  0  0  0  0
   25.5217   -7.9167  -16.8879 C   0  0  0  0  0  0  0  0  0  0  0  0
   21.4883   -6.3598  -15.4764 C   0  0  0  0  0  0  0  0  0  0  0  0
   20.7967   -5.8183  -16.3705 O   0  0  0  0  0  0  0  0  0  0  0  0
   21.2571   -5.8845  -14.1807 O   0  0  0  0  0  0  0  0  0  0  0  0
  2  1  1  1
  2  3  1  0
  4  2  1  0
  4  5  2  0
  6  4  1  0
  7  6  1  0
  8 10  1  0
  8  7  1  0
  9  8  2  0
 11 12  1  6
 11 10  1  0
 12 13  1  0
 13 14  2  0
 13 18  1  0
 14 15  1  0
 15 16  2  0
 17 16  1  0
 18 17  2  0
 19 11  1  0
 20 19  2  0
 21 19  1  0
M  END
$$$$
