AGF.pdb
     RDKit          3D

 21 21  0  0  1  0  0  0  0  0999 V2000
   18.3271  -11.6009  -17.1342 C   0  0  0  0  0  0  0  0  0  0  0  0
   18.9671  -10.2222  -17.0427 C   0  0  2  0  0  0  0  0  0  0  0  0
   19.8327   -9.9619  -18.1589 N   0  0  0  0  0  0  0  0  0  0  0  0
   19.7225  -10.0566  -15.7782 C   0  0  0  0  0  0  0  0  0  0  0  0
   19.1188  -10.1470  -14.6854 O   0  0  0  0  0  0  0  0  0  0  0  0
   21.1032   -9.8006  -15.8054 N   0  0  0  0  0  0  0  0  0  0  0  0
   21.9164   -9.6459  -14.6185 C   0  0  0  0  0  0  0  0  0  0  0  0
   22.4766   -8.2872  -14.5959 C   0  0  0  0  0  0  0  0  0  0  0  0
   23.6217   -8.1085  -15.1373 O   0  0  0  0  0  0  0  0  0  0  0  0
   21.7980   -7.1902  -14.0031 N   0  0  0  0  0  0  0  0  0  0  0  0
   21.8570   -5.9114  -14.6582 C   0  0  1  0  0  0  0  0  0  0  0  0
   21.5327   -5.9940  -16.1157 C   0  0  0  0  0  0  0  0  0  0  0  0
   21.5478   -4.6522  -16.7083 C   0  0  0  0  0  0  0  0  0  0  0  0
   20.3883   -3.9309  -16.8655 C   0  0  0  0  0  0  0  0  0  0  0  0
   20.3588   -2.6525  -17.3989 C   0  0  0  0  0  0  0  0  0  0  0  0
   21.5707   -2.0927  -17.7867 C   0  0  0  0  0  0  0  0  0  0  0  0
   22.7456   -2.7981  -17.6380 C   0  0  0  0  0  0  0  0  0  0  0  0
   22.7293   -4.0743  -17.0997 C   0  0  0  0  0  0  0  0  0  0  0  0
   21.0370   -4.9437  -13.9180 C   0  0  0  0  0  0  0  0  0  0  0  0
   19.8913   -5.1614  -13.4590 O   0  0  0  0  0  0  0  0  0  0  0  0
   21.5347   -3.6575  -13.6807 O   0  0  0  0  0  0  0  0  0  0  0  0
  2  1  1  6
  2  3  1  0
  4  2  1  0
  4  5  2  0
  6  4  1  0
  7  6  1  0
  8 10  1  0
  8  7  1  0
  9  8  2  0
 11 12  1  6
 11 10  1  0
 12 13  1  0
 13 14  2  0
 13 18  1  0
 14 15  1  0
 15 16  2  0
 17 16  1  0
 18 17  2  0
 19 11  1  0
 20 19  2  0
 21 19  1  0
M  END
$$$$
