AGF.pdb
     RDKit          3D

 21 21  0  0  1  0  0  0  0  0999 V2000
   22.8014  -20.3457  -14.4211 C   0  0  0  0  0  0  0  0  0  0  0  0
   23.6225  -19.8813  -13.2257 C   0  0  2  0  0  0  0  0  0  0  0  0
   24.3011  -18.6443  -13.4940 N   0  0  0  0  0  0  0  0  0  0  0  0
   24.6069  -20.9089  -12.8106 C   0  0  0  0  0  0  0  0  0  0  0  0
   24.2032  -22.0406  -12.4602 O   0  0  0  0  0  0  0  0  0  0  0  0
   25.9805  -20.6156  -12.8105 N   0  0  0  0  0  0  0  0  0  0  0  0
   27.0077  -21.5736  -12.4627 C   0  0  0  0  0  0  0  0  0  0  0  0
   27.1670  -21.5952  -11.0016 C   0  0  0  0  0  0  0  0  0  0  0  0
   28.0523  -22.3785  -10.5129 O   0  0  0  0  0  0  0  0  0  0  0  0
   26.3833  -20.7889  -10.1351 N   0  0  0  0  0  0  0  0  0  0  0  0
   26.7325  -20.7392   -8.7409 C   0  0  1  0  0  0  0  0  0  0  0  0
   27.7818  -19.7156   -8.4448 C   0  0  0  0  0  0  0  0  0  0  0  0
   28.0577  -19.6844   -7.0044 C   0  0  0  0  0  0  0  0  0  0  0  0
   27.6047  -18.6539   -6.2156 C   0  0  0  0  0  0  0  0  0  0  0  0
   27.8224  -18.5954   -4.8485 C   0  0  0  0  0  0  0  0  0  0  0  0
   28.5349  -19.6386   -4.2686 C   0  0  0  0  0  0  0  0  0  0  0  0
   28.9986  -20.6821   -5.0408 C   0  0  0  0  0  0  0  0  0  0  0  0
   28.7581  -20.7007   -6.4049 C   0  0  0  0  0  0  0  0  0  0  0  0
   25.5131  -20.5944   -7.9355 C   0  0  0  0  0  0  0  0  0  0  0  0
   24.4963  -19.9402   -8.2658 O   0  0  0  0  0  0  0  0  0  0  0  0
   25.4331  -21.2215   -6.6871 O   0  0  0  0  0  0  0  0  0  0  0  0
  2  1  1  6
  2  3  1  0
  4  2  1  0
  4  5  2  0
  6  4  1  0
  7  6  1  0
  8 10  1  0
  8  7  1  0
  9  8  2  0
 11 12  1  6
 11 10  1  0
 12 13  1  0
 13 14  2  0
 13 18  1  0
 14 15  1  0
 15 16  2  0
 17 16  1  0
 18 17  2  0
 19 11  1  0
 20 19  2  0
 21 19  1  0
M  END
$$$$
