AGF.pdb
     RDKit          3D

 21 21  0  0  1  0  0  0  0  0999 V2000
   29.4461  -21.7691  -17.4392 C   0  0  0  0  0  0  0  0  0  0  0  0
   28.2392  -22.3813  -16.7410 C   0  0  2  0  0  0  0  0  0  0  0  0
   27.5649  -23.3325  -17.5796 N   0  0  0  0  0  0  0  0  0  0  0  0
   27.2810  -21.3402  -16.2995 C   0  0  0  0  0  0  0  0  0  0  0  0
   27.0477  -20.3631  -17.0463 O   0  0  0  0  0  0  0  0  0  0  0  0
   26.6402  -21.4486  -15.0544 N   0  0  0  0  0  0  0  0  0  0  0  0
   26.3059  -22.7098  -14.4287 C   0  0  0  0  0  0  0  0  0  0  0  0
   25.6608  -22.4459  -13.1346 C   0  0  0  0  0  0  0  0  0  0  0  0
   24.9437  -23.3763  -12.6284 O   0  0  0  0  0  0  0  0  0  0  0  0
   25.8074  -21.2140  -12.4444 N   0  0  0  0  0  0  0  0  0  0  0  0
   24.6724  -20.6834  -11.7384 C   0  0  1  0  0  0  0  0  0  0  0  0
   25.0206  -19.5009  -10.8917 C   0  0  0  0  0  0  0  0  0  0  0  0
   25.4564  -19.9472   -9.5641 C   0  0  0  0  0  0  0  0  0  0  0  0
   24.8894  -21.0446   -8.9611 C   0  0  0  0  0  0  0  0  0  0  0  0
   25.2853  -21.5145   -7.7192 C   0  0  0  0  0  0  0  0  0  0  0  0
   26.3056  -20.8283   -7.0707 C   0  0  0  0  0  0  0  0  0  0  0  0
   26.8884  -19.7253   -7.6571 C   0  0  0  0  0  0  0  0  0  0  0  0
   26.4615  -19.2895   -8.9008 C   0  0  0  0  0  0  0  0  0  0  0  0
   23.5775  -20.4378  -12.6856 C   0  0  0  0  0  0  0  0  0  0  0  0
   23.7127  -20.2057  -13.9099 O   0  0  0  0  0  0  0  0  0  0  0  0
   22.2546  -20.4543  -12.2294 O   0  0  0  0  0  0  0  0  0  0  0  0
  2  1  1  6
  2  3  1  0
  4  2  1  0
  4  5  2  0
  6  4  1  0
  7  6  1  0
  8 10  1  0
  8  7  1  0
  9  8  2  0
 11 12  1  6
 11 10  1  0
 12 13  1  0
 13 14  2  0
 13 18  1  0
 14 15  1  0
 15 16  2  0
 17 16  1  0
 18 17  2  0
 19 11  1  0
 20 19  2  0
 21 19  1  0
M  END
$$$$
