PAP.pdb
     RDKit          3D

 20 21  0  0  1  0  0  0  0  0999 V2000
    7.4065  -14.9791   18.9770 N   0  0  0  0  0  0  0  0  0  0  0  0
    8.1911  -14.3624   17.8961 C   0  0  0  0  0  0  0  0  0  0  0  0
    8.1493  -12.9042   18.3288 C   0  0  0  0  0  0  0  0  0  0  0  0
    8.2870  -13.0383   19.8328 C   0  0  0  0  0  0  0  0  0  0  0  0
    8.1645  -14.5242   20.1335 C   0  0  1  0  0  0  0  0  0  0  0  0
    7.4463  -14.7737   21.3977 C   0  0  0  0  0  0  0  0  0  0  0  0
    6.2282  -14.5542   21.4515 O   0  0  0  0  0  0  0  0  0  0  0  0
    7.1249  -16.7433   24.1407 C   0  0  0  0  0  0  0  0  0  0  0  0
    7.4460  -15.2936   23.8187 C   0  0  2  0  0  0  0  0  0  0  0  0
    8.1378  -15.2615   22.5483 N   0  0  0  0  0  0  0  0  0  0  0  0
    8.3191  -14.6957   24.8493 C   0  0  0  0  0  0  0  0  0  0  0  0
    9.5708  -14.7485   24.6722 O   0  0  0  0  0  0  0  0  0  0  0  0
    7.8225  -14.0711   26.0170 N   0  0  0  0  0  0  0  0  0  0  0  0
    6.4325  -14.0308   26.4038 C   0  0  0  0  0  0  0  0  0  0  0  0
    6.2821  -12.5447   26.7565 C   0  0  0  0  0  0  0  0  0  0  0  0
    7.5447  -12.3271   27.5699 C   0  0  0  0  0  0  0  0  0  0  0  0
    8.5464  -13.3661   27.0477 C   0  0  1  0  0  0  0  0  0  0  0  0
    8.8854  -14.3170   28.1637 C   0  0  0  0  0  0  0  0  0  0  0  0
    9.6716  -13.9516   29.0744 O   0  0  0  0  0  0  0  0  0  0  0  0
    8.3636  -15.5939   28.2342 O   0  0  0  0  0  0  0  0  0  0  0  0
  1  2  1  0
  3  2  1  0
  4  5  1  0
  4  3  1  0
  5  1  1  0
  5  6  1  1
  7  6  2  0
  9  8  1  1
  9 11  1  0
  9 10  1  0
 10  6  1  0
 11 13  1  0
 12 11  2  0
 13 14  1  0
 13 17  1  0
 14 15  1  0
 15 16  1  0
 17 18  1  1
 17 16  1  0
 18 20  1  0
 19 18  2  0
M  END
$$$$
