PAP.pdb
     RDKit          3D

 20 21  0  0  1  0  0  0  0  0999 V2000
    7.1335  -14.8046   19.7117 N   0  0  0  0  0  0  0  0  0  0  0  0
    7.8626  -14.3738   18.5088 C   0  0  0  0  0  0  0  0  0  0  0  0
    8.2842  -12.9749   18.9338 C   0  0  0  0  0  0  0  0  0  0  0  0
    8.6300  -13.2012   20.3927 C   0  0  0  0  0  0  0  0  0  0  0  0
    8.1673  -14.6129   20.7185 C   0  0  1  0  0  0  0  0  0  0  0  0
    7.6299  -14.7148   22.0885 C   0  0  0  0  0  0  0  0  0  0  0  0
    6.6381  -14.0400   22.3979 O   0  0  0  0  0  0  0  0  0  0  0  0
    6.9225  -16.7127   24.7052 C   0  0  0  0  0  0  0  0  0  0  0  0
    7.8023  -15.5051   24.4288 C   0  0  2  0  0  0  0  0  0  0  0  0
    8.2384  -15.5769   23.0512 N   0  0  0  0  0  0  0  0  0  0  0  0
    8.9928  -15.4973   25.3033 C   0  0  0  0  0  0  0  0  0  0  0  0
   10.0792  -15.9436   24.8330 O   0  0  0  0  0  0  0  0  0  0  0  0
    8.9731  -15.0164   26.6332 N   0  0  0  0  0  0  0  0  0  0  0  0
    7.7809  -14.6576   27.3634 C   0  0  0  0  0  0  0  0  0  0  0  0
    8.2041  -13.3011   27.9431 C   0  0  0  0  0  0  0  0  0  0  0  0
    9.6024  -13.6353   28.4295 C   0  0  0  0  0  0  0  0  0  0  0  0
   10.0787  -14.7855   27.5318 C   0  0  1  0  0  0  0  0  0  0  0  0
   10.2979  -16.0069   28.3833 C   0  0  0  0  0  0  0  0  0  0  0  0
    9.4159  -16.9020   28.4249 O   0  0  0  0  0  0  0  0  0  0  0  0
   11.4427  -16.1921   29.1334 O   0  0  0  0  0  0  0  0  0  0  0  0
  1  2  1  0
  3  2  1  0
  4  5  1  0
  4  3  1  0
  5  1  1  0
  5  6  1  1
  7  6  2  0
  9  8  1  1
  9 11  1  0
  9 10  1  0
 10  6  1  0
 11 13  1  0
 12 11  2  0
 13 14  1  0
 13 17  1  0
 14 15  1  0
 15 16  1  0
 17 18  1  1
 17 16  1  0
 18 20  1  0
 19 18  2  0
M  END
$$$$
