PAP.pdb
     RDKit          3D

 20 21  0  0  1  0  0  0  0  0999 V2000
    9.9147  -16.4165   20.2134 N   0  0  0  0  0  0  0  0  0  0  0  0
   10.4716  -17.4626   19.3418 C   0  0  0  0  0  0  0  0  0  0  0  0
   11.6027  -17.9745   20.2215 C   0  0  0  0  0  0  0  0  0  0  0  0
   10.9542  -17.9313   21.5914 C   0  0  0  0  0  0  0  0  0  0  0  0
    9.6325  -17.2019   21.4059 C   0  0  1  0  0  0  0  0  0  0  0  0
    9.3058  -16.3493   22.5646 C   0  0  0  0  0  0  0  0  0  0  0  0
    9.8497  -15.2411   22.6689 O   0  0  0  0  0  0  0  0  0  0  0  0
    6.8361  -16.3807   25.3511 C   0  0  0  0  0  0  0  0  0  0  0  0
    8.1513  -15.9563   24.7196 C   0  0  2  0  0  0  0  0  0  0  0  0
    8.3765  -16.7874   23.5569 N   0  0  0  0  0  0  0  0  0  0  0  0
    9.2790  -16.1361   25.6566 C   0  0  0  0  0  0  0  0  0  0  0  0
   10.1928  -16.9512   25.3381 O   0  0  0  0  0  0  0  0  0  0  0  0
    9.3827  -15.4429   26.8850 N   0  0  0  0  0  0  0  0  0  0  0  0
    8.3536  -14.6012   27.4470 C   0  0  0  0  0  0  0  0  0  0  0  0
    9.1799  -13.3667   27.8323 C   0  0  0  0  0  0  0  0  0  0  0  0
   10.3806  -14.0318   28.4797 C   0  0  0  0  0  0  0  0  0  0  0  0
   10.4801  -15.4150   27.8222 C   0  0  1  0  0  0  0  0  0  0  0  0
   10.2686  -16.4692   28.8752 C   0  0  0  0  0  0  0  0  0  0  0  0
    9.1593  -17.0562   28.9531 O   0  0  0  0  0  0  0  0  0  0  0  0
   11.2538  -16.8271   29.7746 O   0  0  0  0  0  0  0  0  0  0  0  0
  1  2  1  0
  3  2  1  0
  4  5  1  0
  4  3  1  0
  5  1  1  0
  5  6  1  1
  7  6  2  0
  9  8  1  1
  9 11  1  0
  9 10  1  0
 10  6  1  0
 11 13  1  0
 12 11  2  0
 13 14  1  0
 13 17  1  0
 14 15  1  0
 15 16  1  0
 17 18  1  1
 17 16  1  0
 18 20  1  0
 19 18  2  0
M  END
$$$$
