PAP.pdb
     RDKit          3D

 20 21  0  0  1  0  0  0  0  0999 V2000
    8.2986  -15.1377   19.6785 N   0  0  0  0  0  0  0  0  0  0  0  0
    8.6128  -14.6883   18.3135 C   0  0  0  0  0  0  0  0  0  0  0  0
    7.6799  -13.4915   18.2006 C   0  0  0  0  0  0  0  0  0  0  0  0
    7.7886  -12.9001   19.5926 C   0  0  0  0  0  0  0  0  0  0  0  0
    8.5670  -13.9130   20.4181 C   0  0  1  0  0  0  0  0  0  0  0  0
    8.0753  -13.9871   21.8069 C   0  0  0  0  0  0  0  0  0  0  0  0
    8.2322  -13.0113   22.5540 O   0  0  0  0  0  0  0  0  0  0  0  0
    6.5011  -16.5890   23.9858 C   0  0  0  0  0  0  0  0  0  0  0  0
    6.8885  -15.1623   23.6350 C   0  0  2  0  0  0  0  0  0  0  0  0
    7.4264  -15.1635   22.2918 N   0  0  0  0  0  0  0  0  0  0  0  0
    7.9187  -14.6437   24.5579 C   0  0  0  0  0  0  0  0  0  0  0  0
    9.1331  -14.7750   24.2281 O   0  0  0  0  0  0  0  0  0  0  0  0
    7.6109  -14.0112   25.7849 N   0  0  0  0  0  0  0  0  0  0  0  0
    6.2770  -13.8139   26.2998 C   0  0  0  0  0  0  0  0  0  0  0  0
    6.3499  -12.3367   26.7096 C   0  0  0  0  0  0  0  0  0  0  0  0
    7.6966  -12.3126   27.4088 C   0  0  0  0  0  0  0  0  0  0  0  0
    8.5070  -13.4458   26.7650 C   0  0  1  0  0  0  0  0  0  0  0  0
    8.8183  -14.4774   27.8156 C   0  0  0  0  0  0  0  0  0  0  0  0
    8.1259  -15.5248   27.8826 O   0  0  0  0  0  0  0  0  0  0  0  0
    9.8469  -14.3233   28.7244 O   0  0  0  0  0  0  0  0  0  0  0  0
  1  2  1  0
  3  2  1  0
  4  5  1  0
  4  3  1  0
  5  1  1  0
  5  6  1  1
  7  6  2  0
  9  8  1  1
  9 11  1  0
  9 10  1  0
 10  6  1  0
 11 13  1  0
 12 11  2  0
 13 14  1  0
 13 17  1  0
 14 15  1  0
 15 16  1  0
 17 18  1  1
 17 16  1  0
 18 20  1  0
 19 18  2  0
M  END
$$$$
