PAP.pdb
     RDKit          3D

 20 21  0  0  1  0  0  0  0  0999 V2000
    8.1695  -15.4206   20.4658 N   0  0  0  0  0  0  0  0  0  0  0  0
    8.2676  -15.0713   19.0402 C   0  0  0  0  0  0  0  0  0  0  0  0
    7.4602  -13.7818   19.0209 C   0  0  0  0  0  0  0  0  0  0  0  0
    7.8887  -13.1454   20.3287 C   0  0  0  0  0  0  0  0  0  0  0  0
    8.6980  -14.2030   21.0634 C   0  0  1  0  0  0  0  0  0  0  0  0
    8.4701  -14.1586   22.5202 C   0  0  0  0  0  0  0  0  0  0  0  0
    8.8829  -13.1843   23.1646 O   0  0  0  0  0  0  0  0  0  0  0  0
    6.5897  -16.2090   25.0173 C   0  0  0  0  0  0  0  0  0  0  0  0
    7.5877  -15.1354   24.6175 C   0  0  2  0  0  0  0  0  0  0  0  0
    7.7842  -15.2195   23.1865 N   0  0  0  0  0  0  0  0  0  0  0  0
    8.8889  -15.3362   25.2874 C   0  0  0  0  0  0  0  0  0  0  0  0
    9.8296  -15.8523   24.6171 O   0  0  0  0  0  0  0  0  0  0  0  0
    9.1289  -14.9796   26.6349 N   0  0  0  0  0  0  0  0  0  0  0  0
    8.1439  -14.4175   27.5277 C   0  0  0  0  0  0  0  0  0  0  0  0
    8.9412  -13.2512   28.1271 C   0  0  0  0  0  0  0  0  0  0  0  0
   10.2618  -13.9415   28.4149 C   0  0  0  0  0  0  0  0  0  0  0  0
   10.3477  -15.0896   27.4001 C   0  0  1  0  0  0  0  0  0  0  0  0
   10.3567  -16.3968   28.1457 C   0  0  0  0  0  0  0  0  0  0  0  0
    9.2938  -17.0603   28.2498 O   0  0  0  0  0  0  0  0  0  0  0  0
   11.4984  -16.9091   28.7304 O   0  0  0  0  0  0  0  0  0  0  0  0
  1  2  1  0
  3  2  1  0
  4  5  1  0
  4  3  1  0
  5  1  1  0
  5  6  1  1
  7  6  2  0
  9  8  1  1
  9 11  1  0
  9 10  1  0
 10  6  1  0
 11 13  1  0
 12 11  2  0
 13 14  1  0
 13 17  1  0
 14 15  1  0
 15 16  1  0
 17 18  1  1
 17 16  1  0
 18 20  1  0
 19 18  2  0
M  END
$$$$
