PAP.pdb
     RDKit          3D

 20 21  0  0  1  0  0  0  0  0999 V2000
    7.1654  -14.9426   19.7356 N   0  0  0  0  0  0  0  0  0  0  0  0
    7.7398  -14.3815   18.5030 C   0  0  0  0  0  0  0  0  0  0  0  0
    7.7878  -12.9064   18.8733 C   0  0  0  0  0  0  0  0  0  0  0  0
    8.2012  -12.9811   20.3303 C   0  0  0  0  0  0  0  0  0  0  0  0
    8.1273  -14.4516   20.7115 C   0  0  1  0  0  0  0  0  0  0  0  0
    7.6545  -14.6393   22.0962 C   0  0  0  0  0  0  0  0  0  0  0  0
    6.5659  -14.1524   22.4318 O   0  0  0  0  0  0  0  0  0  0  0  0
    7.1438  -16.6561   24.6052 C   0  0  0  0  0  0  0  0  0  0  0  0
    7.9999  -15.4142   24.4225 C   0  0  2  0  0  0  0  0  0  0  0  0
    8.4344  -15.3709   23.0431 N   0  0  0  0  0  0  0  0  0  0  0  0
    9.1919  -15.4512   25.2942 C   0  0  0  0  0  0  0  0  0  0  0  0
   10.2644  -15.9217   24.8156 O   0  0  0  0  0  0  0  0  0  0  0  0
    9.1884  -14.9874   26.6303 N   0  0  0  0  0  0  0  0  0  0  0  0
    8.0238  -14.5046   27.3332 C   0  0  0  0  0  0  0  0  0  0  0  0
    8.5808  -13.2119   27.9448 C   0  0  0  0  0  0  0  0  0  0  0  0
    9.9177  -13.7084   28.4639 C   0  0  0  0  0  0  0  0  0  0  0  0
   10.2867  -14.8941   27.5621 C   0  0  1  0  0  0  0  0  0  0  0  0
   10.3419  -16.1427   28.4004 C   0  0  0  0  0  0  0  0  0  0  0  0
    9.3614  -16.9299   28.4085 O   0  0  0  0  0  0  0  0  0  0  0  0
   11.4387  -16.4686   29.1741 O   0  0  0  0  0  0  0  0  0  0  0  0
  1  2  1  0
  3  2  1  0
  4  5  1  0
  4  3  1  0
  5  1  1  0
  5  6  1  1
  7  6  2  0
  9  8  1  6
  9 11  1  0
  9 10  1  0
 10  6  1  0
 11 13  1  0
 12 11  2  0
 13 14  1  0
 13 17  1  0
 14 15  1  0
 15 16  1  0
 17 18  1  1
 17 16  1  0
 18 20  1  0
 19 18  2  0
M  END
$$$$
