PAP.pdb
     RDKit          3D

 20 21  0  0  1  0  0  0  0  0999 V2000
    8.2313  -16.5794   19.4888 N   0  0  0  0  0  0  0  0  0  0  0  0
    9.3256  -17.0206   18.6101 C   0  0  0  0  0  0  0  0  0  0  0  0
   10.4226  -16.0571   19.0385 C   0  0  0  0  0  0  0  0  0  0  0  0
   10.1889  -15.9903   20.5352 C   0  0  0  0  0  0  0  0  0  0  0  0
    8.8761  -16.7159   20.7867 C   0  0  1  0  0  0  0  0  0  0  0  0
    8.0921  -16.0805   21.8627 C   0  0  0  0  0  0  0  0  0  0  0  0
    7.5083  -15.0124   21.6319 O   0  0  0  0  0  0  0  0  0  0  0  0
    6.5986  -17.0713   25.0621 C   0  0  0  0  0  0  0  0  0  0  0  0
    7.2431  -16.0091   24.1877 C   0  0  2  0  0  0  0  0  0  0  0  0
    8.0020  -16.6813   23.1553 N   0  0  0  0  0  0  0  0  0  0  0  0
    8.1598  -15.1543   24.9695 C   0  0  0  0  0  0  0  0  0  0  0  0
    9.4005  -15.2470   24.7399 O   0  0  0  0  0  0  0  0  0  0  0  0
    7.7161  -14.2432   25.9560 N   0  0  0  0  0  0  0  0  0  0  0  0
    6.3425  -14.0761   26.3670 C   0  0  0  0  0  0  0  0  0  0  0  0
    6.2239  -12.5463   26.3348 C   0  0  0  0  0  0  0  0  0  0  0  0
    7.5194  -12.1566   27.0225 C   0  0  0  0  0  0  0  0  0  0  0  0
    8.4875  -13.3154   26.7481 C   0  0  1  0  0  0  0  0  0  0  0  0
    8.8576  -13.9590   28.0571 C   0  0  0  0  0  0  0  0  0  0  0  0
    8.2713  -15.0102   28.4207 O   0  0  0  0  0  0  0  0  0  0  0  0
    9.8281  -13.4388   28.8910 O   0  0  0  0  0  0  0  0  0  0  0  0
  1  2  1  0
  3  2  1  0
  4  5  1  0
  4  3  1  0
  5  1  1  0
  5  6  1  1
  7  6  2  0
  9  8  1  1
  9 11  1  0
  9 10  1  0
 10  6  1  0
 11 13  1  0
 12 11  2  0
 13 14  1  0
 13 17  1  0
 14 15  1  0
 15 16  1  0
 17 18  1  1
 17 16  1  0
 18 20  1  0
 19 18  2  0
M  END
$$$$
