PAP.pdb
     RDKit          3D

 20 21  0  0  1  0  0  0  0  0999 V2000
    7.6790  -15.0909   19.0597 N   0  0  0  0  0  0  0  0  0  0  0  0
    8.3861  -14.3910   17.9760 C   0  0  0  0  0  0  0  0  0  0  0  0
    8.0419  -12.9482   18.3152 C   0  0  0  0  0  0  0  0  0  0  0  0
    8.1236  -12.9732   19.8291 C   0  0  0  0  0  0  0  0  0  0  0  0
    8.2735  -14.4364   20.2161 C   0  0  1  0  0  0  0  0  0  0  0  0
    7.5513  -14.7540   21.4626 C   0  0  0  0  0  0  0  0  0  0  0  0
    6.3377  -14.5150   21.5328 O   0  0  0  0  0  0  0  0  0  0  0  0
    7.3123  -16.7696   24.2609 C   0  0  0  0  0  0  0  0  0  0  0  0
    7.5858  -15.3267   23.8713 C   0  0  2  0  0  0  0  0  0  0  0  0
    8.2338  -15.3292   22.5777 N   0  0  0  0  0  0  0  0  0  0  0  0
    8.4776  -14.6674   24.8471 C   0  0  0  0  0  0  0  0  0  0  0  0
    9.7256  -14.7282   24.6481 O   0  0  0  0  0  0  0  0  0  0  0  0
    8.0026  -13.9758   25.9856 N   0  0  0  0  0  0  0  0  0  0  0  0
    6.6100  -13.7741   26.3072 C   0  0  0  0  0  0  0  0  0  0  0  0
    6.6130  -12.2761   26.6411 C   0  0  0  0  0  0  0  0  0  0  0  0
    7.8541  -12.1918   27.5106 C   0  0  0  0  0  0  0  0  0  0  0  0
    8.7542  -13.3438   27.0434 C   0  0  1  0  0  0  0  0  0  0  0  0
    8.9325  -14.3125   28.1812 C   0  0  0  0  0  0  0  0  0  0  0  0
    8.2012  -15.3331   28.2490 O   0  0  0  0  0  0  0  0  0  0  0  0
    9.8785  -14.1283   29.1706 O   0  0  0  0  0  0  0  0  0  0  0  0
  1  2  1  0
  3  2  1  0
  4  5  1  0
  4  3  1  0
  5  1  1  0
  5  6  1  1
  7  6  2  0
  9  8  1  1
  9 11  1  0
  9 10  1  0
 10  6  1  0
 11 13  1  0
 12 11  2  0
 13 14  1  0
 13 17  1  0
 14 15  1  0
 15 16  1  0
 17 18  1  1
 17 16  1  0
 18 20  1  0
 19 18  2  0
M  END
$$$$
