PAP.pdb
     RDKit          3D

 20 21  0  0  1  0  0  0  0  0999 V2000
    8.3890  -15.1970   19.6544 N   0  0  0  0  0  0  0  0  0  0  0  0
    8.7161  -14.8373   18.2660 C   0  0  0  0  0  0  0  0  0  0  0  0
    7.6880  -13.7429   18.0201 C   0  0  0  0  0  0  0  0  0  0  0  0
    7.6904  -13.0295   19.3581 C   0  0  0  0  0  0  0  0  0  0  0  0
    8.5210  -13.8955   20.2927 C   0  0  1  0  0  0  0  0  0  0  0  0
    7.9837  -13.8968   21.6666 C   0  0  0  0  0  0  0  0  0  0  0  0
    7.9901  -12.8420   22.3164 O   0  0  0  0  0  0  0  0  0  0  0  0
    6.3853  -16.4210   23.9309 C   0  0  0  0  0  0  0  0  0  0  0  0
    6.9173  -15.0400   23.5867 C   0  0  2  0  0  0  0  0  0  0  0  0
    7.4615  -15.0927   22.2472 N   0  0  0  0  0  0  0  0  0  0  0  0
    7.9884  -14.6304   24.5179 C   0  0  0  0  0  0  0  0  0  0  0  0
    9.1871  -14.8574   24.1825 O   0  0  0  0  0  0  0  0  0  0  0  0
    7.7362  -14.0001   25.7586 N   0  0  0  0  0  0  0  0  0  0  0  0
    6.4240  -13.7143   26.2874 C   0  0  0  0  0  0  0  0  0  0  0  0
    6.6087  -12.2546   26.7236 C   0  0  0  0  0  0  0  0  0  0  0  0
    7.9580  -12.3433   27.4126 C   0  0  0  0  0  0  0  0  0  0  0  0
    8.6780  -13.5211   26.7419 C   0  0  1  0  0  0  0  0  0  0  0  0
    8.9187  -14.5925   27.7709 C   0  0  0  0  0  0  0  0  0  0  0  0
    8.1331  -15.5715   27.8445 O   0  0  0  0  0  0  0  0  0  0  0  0
    9.9808  -14.5485   28.6528 O   0  0  0  0  0  0  0  0  0  0  0  0
  1  2  1  0
  3  2  1  0
  4  5  1  0
  4  3  1  0
  5  1  1  0
  5  6  1  1
  7  6  2  0
  9  8  1  1
  9 11  1  0
  9 10  1  0
 10  6  1  0
 11 13  1  0
 12 11  2  0
 13 14  1  0
 13 17  1  0
 14 15  1  0
 15 16  1  0
 17 18  1  1
 17 16  1  0
 18 20  1  0
 19 18  2  0
M  END
$$$$
