PAP.pdb
     RDKit          3D

 20 21  0  0  1  0  0  0  0  0999 V2000
    7.5344  -14.9393   18.8408 N   0  0  0  0  0  0  0  0  0  0  0  0
    8.2970  -14.2599   17.7821 C   0  0  0  0  0  0  0  0  0  0  0  0
    8.1890  -12.8171   18.2534 C   0  0  0  0  0  0  0  0  0  0  0  0
    8.3244  -12.9858   19.7542 C   0  0  0  0  0  0  0  0  0  0  0  0
    8.2654  -14.4832   20.0141 C   0  0  1  0  0  0  0  0  0  0  0  0
    7.5522  -14.7980   21.2664 C   0  0  0  0  0  0  0  0  0  0  0  0
    6.3152  -14.7332   21.2872 O   0  0  0  0  0  0  0  0  0  0  0  0
    7.3400  -16.6849   24.0578 C   0  0  0  0  0  0  0  0  0  0  0  0
    7.5650  -15.2241   23.7056 C   0  0  2  0  0  0  0  0  0  0  0  0
    8.2698  -15.1731   22.4430 N   0  0  0  0  0  0  0  0  0  0  0  0
    8.3811  -14.5442   24.7320 C   0  0  0  0  0  0  0  0  0  0  0  0
    9.6346  -14.5041   24.5648 O   0  0  0  0  0  0  0  0  0  0  0  0
    7.8284  -13.9400   25.8852 N   0  0  0  0  0  0  0  0  0  0  0  0
    6.4195  -13.8862   26.1938 C   0  0  0  0  0  0  0  0  0  0  0  0
    6.2717  -12.4069   26.5748 C   0  0  0  0  0  0  0  0  0  0  0  0
    7.4892  -12.2300   27.4634 C   0  0  0  0  0  0  0  0  0  0  0  0
    8.5031  -13.2724   26.9726 C   0  0  1  0  0  0  0  0  0  0  0  0
    8.7637  -14.2557   28.0816 C   0  0  0  0  0  0  0  0  0  0  0  0
    8.1244  -15.3378   28.1159 O   0  0  0  0  0  0  0  0  0  0  0  0
    9.6885  -14.0195   29.0800 O   0  0  0  0  0  0  0  0  0  0  0  0
  1  2  1  0
  3  2  1  0
  4  5  1  0
  4  3  1  0
  5  1  1  0
  5  6  1  1
  7  6  2  0
  9  8  1  1
  9 11  1  0
  9 10  1  0
 10  6  1  0
 11 13  1  0
 12 11  2  0
 13 14  1  0
 13 17  1  0
 14 15  1  0
 15 16  1  0
 17 18  1  1
 17 16  1  0
 18 20  1  0
 19 18  2  0
M  END
$$$$
