GSC.pdb
     RDKit          3D

 17 16  0  0  1  0  0  0  0  0999 V2000
   16.1389  -12.5097  -14.3357 N   0  0  0  0  0  0  0  0  0  0  0  0
   16.3433  -11.1347  -14.6583 C   0  0  0  0  0  0  0  0  0  0  0  0
   16.8325  -10.3534  -13.4753 C   0  0  0  0  0  0  0  0  0  0  0  0
   16.7682  -10.8265  -12.3157 O   0  0  0  0  0  0  0  0  0  0  0  0
   18.3342   -6.4334  -13.8129 O   0  0  0  0  0  0  0  0  0  0  0  0
   18.9175   -7.2865  -12.8938 C   0  0  0  0  0  0  0  0  0  0  0  0
   17.8912   -8.3071  -12.4528 C   0  0  2  0  0  0  0  0  0  0  0  0
   17.3858   -9.0556  -13.6067 N   0  0  0  0  0  0  0  0  0  0  0  0
   16.7906   -7.7479  -11.6538 C   0  0  0  0  0  0  0  0  0  0  0  0
   15.7476   -7.3514  -12.2822 O   0  0  0  0  0  0  0  0  0  0  0  0
   16.7464   -7.5953  -10.2623 N   0  0  0  0  0  0  0  0  0  0  0  0
   15.6896   -6.9290   -9.5383 C   0  0  1  0  0  0  0  0  0  0  0  0
   15.7867   -7.2005   -8.0402 C   0  0  0  0  0  0  0  0  0  0  0  0
   14.2413   -6.6078   -7.2967 S   0  0  0  0  0  0  0  0  0  0  0  0
   15.6498   -5.4889   -9.7311 C   0  0  0  0  0  0  0  0  0  0  0  0
   16.6988   -4.8147   -9.7010 O   0  0  0  0  0  0  0  0  0  0  0  0
   14.4561   -4.8385   -9.9507 O   0  0  0  0  0  0  0  0  0  0  0  0
  1  2  1  0
  2  3  1  0
  3  8  1  0
  3  4  2  0
  5  6  1  0
  7  6  1  6
  7  9  1  0
  8  7  1  0
  9 10  2  0
  9 11  1  0
 11 12  1  0
 12 13  1  1
 14 13  1  0
 15 12  1  0
 15 17  1  0
 16 15  2  0
M  END
$$$$
