GSC.pdb
     RDKit          3D

 17 16  0  0  1  0  0  0  0  0999 V2000
   24.7171  -15.2993  -18.2905 N   0  0  0  0  0  0  0  0  0  0  0  0
   24.9882  -13.9145  -18.5028 C   0  0  0  0  0  0  0  0  0  0  0  0
   24.5759  -13.0810  -17.3261 C   0  0  0  0  0  0  0  0  0  0  0  0
   23.4567  -13.2374  -16.7824 O   0  0  0  0  0  0  0  0  0  0  0  0
   26.7039   -9.6595  -16.0622 O   0  0  0  0  0  0  0  0  0  0  0  0
   26.1727  -10.4835  -15.0868 C   0  0  0  0  0  0  0  0  0  0  0  0
   24.9909  -11.2299  -15.6663 C   0  0  2  0  0  0  0  0  0  0  0  0
   25.4208  -12.0857  -16.7754 N   0  0  0  0  0  0  0  0  0  0  0  0
   23.8679  -10.3664  -16.0609 C   0  0  0  0  0  0  0  0  0  0  0  0
   23.9296   -9.8071  -17.2112 O   0  0  0  0  0  0  0  0  0  0  0  0
   22.7180  -10.0784  -15.3150 N   0  0  0  0  0  0  0  0  0  0  0  0
   21.6714   -9.1736  -15.7284 C   0  0  1  0  0  0  0  0  0  0  0  0
   20.3497   -9.5031  -15.0411 C   0  0  0  0  0  0  0  0  0  0  0  0
   19.1492   -8.2556  -15.5837 S   0  0  0  0  0  0  0  0  0  0  0  0
   21.9648   -7.7709  -15.4864 C   0  0  0  0  0  0  0  0  0  0  0  0
   21.5650   -6.8926  -16.2767 O   0  0  0  0  0  0  0  0  0  0  0  0
   22.6889   -7.3811  -14.3817 O   0  0  0  0  0  0  0  0  0  0  0  0
  1  2  1  0
  2  3  1  0
  3  8  1  0
  3  4  2  0
  5  6  1  0
  7  6  1  6
  7  9  1  0
  8  7  1  0
  9 10  2  0
  9 11  1  0
 11 12  1  0
 12 13  1  1
 14 13  1  0
 15 12  1  0
 15 17  1  0
 16 15  2  0
M  END
$$$$
