GSC.pdb
     RDKit          3D

 17 16  0  0  1  0  0  0  0  0999 V2000
   14.7848  -10.7575  -10.7107 N   0  0  0  0  0  0  0  0  0  0  0  0
   15.3541   -9.8400   -9.7778 C   0  0  0  0  0  0  0  0  0  0  0  0
   16.0092   -8.6808  -10.4680 C   0  0  0  0  0  0  0  0  0  0  0  0
   16.0111   -8.5891  -11.7188 O   0  0  0  0  0  0  0  0  0  0  0  0
   17.3163   -5.5755   -8.2346 O   0  0  0  0  0  0  0  0  0  0  0  0
   17.0207   -5.2329   -9.5415 C   0  0  0  0  0  0  0  0  0  0  0  0
   17.1902   -6.4544  -10.4183 C   0  0  2  0  0  0  0  0  0  0  0  0
   16.6521   -7.6422   -9.7498 N   0  0  0  0  0  0  0  0  0  0  0  0
   18.5684   -6.6782  -10.8796 C   0  0  0  0  0  0  0  0  0  0  0  0
   19.4352   -7.0240  -10.0027 O   0  0  0  0  0  0  0  0  0  0  0  0
   19.0542   -6.5565  -12.1875 N   0  0  0  0  0  0  0  0  0  0  0  0
   20.4410   -6.6868  -12.5682 C   0  0  1  0  0  0  0  0  0  0  0  0
   20.5888   -7.4809  -13.8624 C   0  0  0  0  0  0  0  0  0  0  0  0
   19.8907   -9.1267  -13.5526 S   0  0  0  0  0  0  0  0  0  0  0  0
   21.1351   -5.4211  -12.7374 C   0  0  0  0  0  0  0  0  0  0  0  0
   20.4959   -4.3557  -12.8470 O   0  0  0  0  0  0  0  0  0  0  0  0
   22.5106   -5.3702  -12.7802 O   0  0  0  0  0  0  0  0  0  0  0  0
  1  2  1  0
  2  3  1  0
  3  8  1  0
  3  4  2  0
  5  6  1  0
  7  6  1  1
  7  9  1  0
  8  7  1  0
  9 10  2  0
  9 11  1  0
 11 12  1  0
 12 13  1  6
 14 13  1  0
 15 12  1  0
 15 17  1  0
 16 15  2  0
M  END
$$$$
