GSC.pdb
     RDKit          3D

 17 16  0  0  1  0  0  0  0  0999 V2000
   18.8066  -13.2678  -18.9171 N   0  0  0  0  0  0  0  0  0  0  0  0
   19.1868  -11.9062  -19.1114 C   0  0  0  0  0  0  0  0  0  0  0  0
   19.9887  -11.3833  -17.9569 C   0  0  0  0  0  0  0  0  0  0  0  0
   19.8870  -11.8918  -16.8150 O   0  0  0  0  0  0  0  0  0  0  0  0
   22.6893   -8.0584  -18.2037 O   0  0  0  0  0  0  0  0  0  0  0  0
   22.9502   -9.1662  -17.4180 C   0  0  0  0  0  0  0  0  0  0  0  0
   21.6371   -9.7598  -16.9565 C   0  0  2  0  0  0  0  0  0  0  0  0
   20.8917  -10.3003  -18.0965 N   0  0  0  0  0  0  0  0  0  0  0  0
   20.8077   -8.8420  -16.1614 C   0  0  0  0  0  0  0  0  0  0  0  0
   20.0051   -8.0721  -16.7962 O   0  0  0  0  0  0  0  0  0  0  0  0
   20.7904   -8.7080  -14.7674 N   0  0  0  0  0  0  0  0  0  0  0  0
   19.9913   -7.7501  -14.0403 C   0  0  1  0  0  0  0  0  0  0  0  0
   19.9448   -8.0823  -12.5520 C   0  0  0  0  0  0  0  0  0  0  0  0
   19.0783   -9.6686  -12.3937 S   0  0  0  0  0  0  0  0  0  0  0  0
   20.4369   -6.3736  -14.1784 C   0  0  0  0  0  0  0  0  0  0  0  0
   19.7548   -5.4359  -13.7188 O   0  0  0  0  0  0  0  0  0  0  0  0
   21.6192   -6.0748  -14.8182 O   0  0  0  0  0  0  0  0  0  0  0  0
  1  2  1  0
  2  3  1  0
  3  8  1  0
  3  4  2  0
  5  6  1  0
  7  6  1  6
  7  9  1  0
  8  7  1  0
  9 10  2  0
  9 11  1  0
 11 12  1  0
 12 13  1  1
 14 13  1  0
 15 12  1  0
 15 17  1  0
 16 15  2  0
M  END
$$$$
