GSC.pdb
     RDKit          3D

 17 16  0  0  1  0  0  0  0  0999 V2000
   13.5784   -9.4236  -13.7412 N   0  0  0  0  0  0  0  0  0  0  0  0
   14.1187   -8.1541  -13.3769 C   0  0  0  0  0  0  0  0  0  0  0  0
   15.3298   -7.8111  -14.1924 C   0  0  0  0  0  0  0  0  0  0  0  0
   16.0565   -8.7088  -14.6812 O   0  0  0  0  0  0  0  0  0  0  0  0
   17.8448   -4.4924  -16.6474 O   0  0  0  0  0  0  0  0  0  0  0  0
   16.7220   -4.7724  -15.8899 C   0  0  0  0  0  0  0  0  0  0  0  0
   16.8844   -6.1385  -15.2600 C   0  0  2  0  0  0  0  0  0  0  0  0
   15.7098   -6.4704  -14.4490 N   0  0  0  0  0  0  0  0  0  0  0  0
   18.1282   -6.3043  -14.4933 C   0  0  0  0  0  0  0  0  0  0  0  0
   18.1378   -5.8795  -13.2853 O   0  0  0  0  0  0  0  0  0  0  0  0
   19.3249   -6.8827  -14.9350 N   0  0  0  0  0  0  0  0  0  0  0  0
   20.5496   -6.9301  -14.1716 C   0  0  1  0  0  0  0  0  0  0  0  0
   21.4771   -8.0302  -14.6785 C   0  0  0  0  0  0  0  0  0  0  0  0
   22.8495   -8.1471  -13.4974 S   0  0  0  0  0  0  0  0  0  0  0  0
   21.2963   -5.6832  -14.1630 C   0  0  0  0  0  0  0  0  0  0  0  0
   21.8219   -5.2646  -13.1120 O   0  0  0  0  0  0  0  0  0  0  0  0
   21.4398   -4.9379  -15.3121 O   0  0  0  0  0  0  0  0  0  0  0  0
  1  2  1  0
  2  3  1  0
  3  8  1  0
  3  4  2  0
  5  6  1  0
  7  6  1  1
  7  9  1  0
  8  7  1  0
  9 10  2  0
  9 11  1  0
 11 12  1  0
 12 13  1  6
 14 13  1  0
 15 12  1  0
 15 17  1  0
 16 15  2  0
M  END
$$$$
