GSC.pdb
     RDKit          3D

 17 16  0  0  1  0  0  0  0  0999 V2000
   18.3694  -13.9973  -16.3155 N   0  0  0  0  0  0  0  0  0  0  0  0
   19.3965  -13.2125  -16.9201 C   0  0  0  0  0  0  0  0  0  0  0  0
   19.8628  -12.1135  -16.0123 C   0  0  0  0  0  0  0  0  0  0  0  0
   19.1384  -11.6942  -15.0784 O   0  0  0  0  0  0  0  0  0  0  0  0
   23.6176  -10.2813  -16.4585 O   0  0  0  0  0  0  0  0  0  0  0  0
   23.0455  -10.3196  -15.2000 C   0  0  0  0  0  0  0  0  0  0  0  0
   21.5399  -10.3531  -15.3472 C   0  0  2  0  0  0  0  0  0  0  0  0
   21.1314  -11.5003  -16.1623 N   0  0  0  0  0  0  0  0  0  0  0  0
   20.9562   -9.1019  -15.8535 C   0  0  0  0  0  0  0  0  0  0  0  0
   20.8589   -8.9677  -17.1232 O   0  0  0  0  0  0  0  0  0  0  0  0
   20.4851   -8.0206  -15.0983 N   0  0  0  0  0  0  0  0  0  0  0  0
   19.9015   -6.8207  -15.6502 C   0  0  1  0  0  0  0  0  0  0  0  0
   18.8633   -6.2233  -14.7053 C   0  0  0  0  0  0  0  0  0  0  0  0
   17.5450   -7.4568  -14.5243 S   0  0  0  0  0  0  0  0  0  0  0  0
   20.8652   -5.7813  -15.9717 C   0  0  0  0  0  0  0  0  0  0  0  0
   22.0720   -5.9251  -15.6910 O   0  0  0  0  0  0  0  0  0  0  0  0
   20.4684   -4.6176  -16.5919 O   0  0  0  0  0  0  0  0  0  0  0  0
  1  2  1  0
  2  3  1  0
  3  8  1  0
  3  4  2  0
  5  6  1  0
  7  6  1  6
  7  9  1  0
  8  7  1  0
  9 10  2  0
  9 11  1  0
 11 12  1  0
 12 13  1  1
 14 13  1  0
 15 12  1  0
 15 17  1  0
 16 15  2  0
M  END
$$$$
