GSC.pdb
     RDKit          3D

 17 16  0  0  1  0  0  0  0  0999 V2000
   16.4904  -11.1379  -16.5898 N   0  0  0  0  0  0  0  0  0  0  0  0
   16.9893   -9.9630  -17.2277 C   0  0  0  0  0  0  0  0  0  0  0  0
   18.3541   -9.5956  -16.7260 C   0  0  0  0  0  0  0  0  0  0  0  0
   18.8194  -10.1090  -15.6807 O   0  0  0  0  0  0  0  0  0  0  0  0
   20.7397   -6.5301  -18.4581 O   0  0  0  0  0  0  0  0  0  0  0  0
   21.3422   -7.6804  -17.9822 C   0  0  0  0  0  0  0  0  0  0  0  0
   20.4866   -8.2601  -16.8770 C   0  0  2  0  0  0  0  0  0  0  0  0
   19.1776   -8.6602  -17.4002 N   0  0  0  0  0  0  0  0  0  0  0  0
   20.3491   -7.3877  -15.7012 C   0  0  0  0  0  0  0  0  0  0  0  0
   19.3441   -6.5948  -15.6692 O   0  0  0  0  0  0  0  0  0  0  0  0
   21.2016   -7.3204  -14.5920 N   0  0  0  0  0  0  0  0  0  0  0  0
   21.0334   -6.4204  -13.4755 C   0  0  1  0  0  0  0  0  0  0  0  0
   21.3841   -7.1016  -12.1561 C   0  0  0  0  0  0  0  0  0  0  0  0
   20.1766   -8.4341  -11.9147 S   0  0  0  0  0  0  0  0  0  0  0  0
   21.8149   -5.1987  -13.5704 C   0  0  0  0  0  0  0  0  0  0  0  0
   22.6396   -5.0421  -14.4931 O   0  0  0  0  0  0  0  0  0  0  0  0
   21.6627   -4.1892  -12.6462 O   0  0  0  0  0  0  0  0  0  0  0  0
  1  2  1  0
  2  3  1  0
  3  8  1  0
  3  4  2  0
  5  6  1  0
  7  6  1  6
  7  9  1  0
  8  7  1  0
  9 10  2  0
  9 11  1  0
 11 12  1  0
 12 13  1  1
 14 13  1  0
 15 12  1  0
 15 17  1  0
 16 15  2  0
M  END
$$$$
