GSC.pdb
     RDKit          3D

 17 16  0  0  1  0  0  0  0  0999 V2000
   12.4687   -9.8887   -8.9584 N   0  0  0  0  0  0  0  0  0  0  0  0
   13.8884   -9.8578   -8.8184 C   0  0  0  0  0  0  0  0  0  0  0  0
   14.4945   -8.7024   -9.5581 C   0  0  0  0  0  0  0  0  0  0  0  0
   13.9241   -8.2023  -10.5567 O   0  0  0  0  0  0  0  0  0  0  0  0
   17.0542   -4.7803   -9.7699 O   0  0  0  0  0  0  0  0  0  0  0  0
   16.5495   -5.8247   -9.0168 C   0  0  0  0  0  0  0  0  0  0  0  0
   16.3377   -7.0212   -9.9185 C   0  0  2  0  0  0  0  0  0  0  0  0
   15.7285   -8.1239   -9.1701 N   0  0  0  0  0  0  0  0  0  0  0  0
   17.5474   -7.4610  -10.6296 C   0  0  0  0  0  0  0  0  0  0  0  0
   18.4084   -8.1380   -9.9662 O   0  0  0  0  0  0  0  0  0  0  0  0
   17.8753   -7.2237  -11.9704 N   0  0  0  0  0  0  0  0  0  0  0  0
   19.1255   -7.5922  -12.5919 C   0  0  1  0  0  0  0  0  0  0  0  0
   18.9058   -8.5662  -13.7454 C   0  0  0  0  0  0  0  0  0  0  0  0
   20.5453   -8.9835  -14.4012 S   0  0  0  0  0  0  0  0  0  0  0  0
   19.8960   -6.4675  -13.0958 C   0  0  0  0  0  0  0  0  0  0  0  0
   19.3226   -5.4535  -13.5417 O   0  0  0  0  0  0  0  0  0  0  0  0
   21.2728   -6.4963  -13.0920 O   0  0  0  0  0  0  0  0  0  0  0  0
  1  2  1  0
  2  3  1  0
  3  8  1  0
  3  4  2  0
  5  6  1  0
  7  6  1  1
  7  9  1  0
  8  7  1  0
  9 10  2  0
  9 11  1  0
 11 12  1  0
 12 13  1  6
 14 13  1  0
 15 12  1  0
 15 17  1  0
 16 15  2  0
M  END
$$$$
