GSC.pdb
     RDKit          3D

 17 16  0  0  1  0  0  0  0  0999 V2000
   20.0357  -11.8141  -19.2738 N   0  0  0  0  0  0  0  0  0  0  0  0
   20.6522  -10.5288  -19.2095 C   0  0  0  0  0  0  0  0  0  0  0  0
   20.5928   -9.9528  -17.8260 C   0  0  0  0  0  0  0  0  0  0  0  0
   19.5280   -9.4718  -17.3703 O   0  0  0  0  0  0  0  0  0  0  0  0
   22.6829   -9.2650  -13.5164 O   0  0  0  0  0  0  0  0  0  0  0  0
   22.7406   -9.8904  -14.7486 C   0  0  0  0  0  0  0  0  0  0  0  0
   21.6829   -9.2934  -15.6510 C   0  0  2  0  0  0  0  0  0  0  0  0
   21.7241   -9.9234  -16.9734 N   0  0  0  0  0  0  0  0  0  0  0  0
   21.7371   -7.8276  -15.7546 C   0  0  0  0  0  0  0  0  0  0  0  0
   22.5609   -7.3257  -16.5968 O   0  0  0  0  0  0  0  0  0  0  0  0
   20.9807   -6.8985  -15.0291 N   0  0  0  0  0  0  0  0  0  0  0  0
   21.1007   -5.4644  -15.1473 C   0  0  1  0  0  0  0  0  0  0  0  0
   19.7334   -4.7885  -15.1125 C   0  0  0  0  0  0  0  0  0  0  0  0
   20.0195   -3.0106  -15.3344 S   0  0  0  0  0  0  0  0  0  0  0  0
   21.9311   -4.8486  -14.1257 C   0  0  0  0  0  0  0  0  0  0  0  0
   21.9337   -5.2888  -12.9586 O   0  0  0  0  0  0  0  0  0  0  0  0
   22.7315   -3.7681  -14.4229 O   0  0  0  0  0  0  0  0  0  0  0  0
  1  2  1  0
  2  3  1  0
  3  8  1  0
  3  4  2  0
  5  6  1  0
  7  6  1  1
  7  9  1  0
  8  7  1  0
  9 10  2  0
  9 11  1  0
 11 12  1  0
 12 13  1  1
 14 13  1  0
 15 12  1  0
 15 17  1  0
 16 15  2  0
M  END
$$$$
