GSC.pdb
     RDKit          3D

 17 16  0  0  1  0  0  0  0  0999 V2000
   15.3157  -11.2381  -11.2653 N   0  0  0  0  0  0  0  0  0  0  0  0
   16.2991  -10.4060  -10.6513 C   0  0  0  0  0  0  0  0  0  0  0  0
   16.0191   -8.9510  -10.8838 C   0  0  0  0  0  0  0  0  0  0  0  0
   15.4502   -8.5606  -11.9311 O   0  0  0  0  0  0  0  0  0  0  0  0
   15.2791   -6.1860   -7.9750 O   0  0  0  0  0  0  0  0  0  0  0  0
   16.2397   -5.7591   -8.8737 C   0  0  0  0  0  0  0  0  0  0  0  0
   16.0846   -6.5366  -10.1625 C   0  0  2  0  0  0  0  0  0  0  0  0
   16.3793   -7.9551   -9.9425 N   0  0  0  0  0  0  0  0  0  0  0  0
   16.8612   -5.9971  -11.2886 C   0  0  0  0  0  0  0  0  0  0  0  0
   18.1355   -6.1125  -11.2355 O   0  0  0  0  0  0  0  0  0  0  0  0
   16.3640   -5.3613  -12.4331 N   0  0  0  0  0  0  0  0  0  0  0  0
   17.1703   -4.9108  -13.5430 C   0  0  1  0  0  0  0  0  0  0  0  0
   16.4005   -4.9933  -14.8576 C   0  0  0  0  0  0  0  0  0  0  0  0
   15.9126   -6.7274  -15.0738 S   0  0  0  0  0  0  0  0  0  0  0  0
   17.6742   -3.5547  -13.4032 C   0  0  0  0  0  0  0  0  0  0  0  0
   18.5653   -3.1265  -14.1637 O   0  0  0  0  0  0  0  0  0  0  0  0
   17.1802   -2.7145  -12.4304 O   0  0  0  0  0  0  0  0  0  0  0  0
  1  2  1  0
  2  3  1  0
  3  8  1  0
  3  4  2  0
  5  6  1  0
  7  6  1  1
  7  9  1  0
  8  7  1  0
  9 10  2  0
  9 11  1  0
 11 12  1  0
 12 13  1  6
 14 13  1  0
 15 12  1  0
 15 17  1  0
 16 15  2  0
M  END
$$$$
