KIS.pdb
     RDKit          3D

 24 23  0  0  1  0  0  0  0  0999 V2000
    7.8849  -14.5939   20.2855 N   0  0  0  0  0  0  0  0  0  0  0  0
    7.3354  -15.2310   21.4662 C   0  0  1  0  0  0  0  0  0  0  0  0
    7.3976  -16.7274   21.2266 C   0  0  0  0  0  0  0  0  0  0  0  0
    6.6049  -17.1966   20.0572 C   0  0  0  0  0  0  0  0  0  0  0  0
    6.6251  -18.6980   19.8899 C   0  0  0  0  0  0  0  0  0  0  0  0
    5.8852  -19.1349   18.6447 C   0  0  0  0  0  0  0  0  0  0  0  0
    5.8702  -20.5735   18.5994 N   0  0  0  0  0  0  0  0  0  0  0  0
    8.2053  -14.9188   22.6174 C   0  0  0  0  0  0  0  0  0  0  0  0
    9.4536  -14.8229   22.5412 O   0  0  0  0  0  0  0  0  0  0  0  0
    6.0792  -11.5141   26.1683 C   0  0  0  0  0  0  0  0  0  0  0  0
    7.0652  -12.2805   25.2686 C   0  0  0  0  0  0  0  0  0  0  0  0
    7.5044  -13.5515   25.9232 C   0  0  2  0  0  0  0  0  0  0  0  0
    7.9986  -13.3438   27.3296 C   0  0  0  0  0  0  0  0  0  0  0  0
    8.3691  -14.4460   25.0995 C   0  0  2  0  0  0  0  0  0  0  0  0
    7.5917  -14.7165   23.8784 N   0  0  0  0  0  0  0  0  0  0  0  0
    8.6716  -15.7604   25.6922 C   0  0  0  0  0  0  0  0  0  0  0  0
    7.7501  -16.5847   26.0283 O   0  0  0  0  0  0  0  0  0  0  0  0
   12.2913  -17.5151   25.3933 O   0  0  0  0  0  0  0  0  0  0  0  0
   11.1949  -18.3447   25.5891 C   0  0  0  0  0  0  0  0  0  0  0  0
   10.2275  -17.5753   26.4837 C   0  0  2  0  0  0  0  0  0  0  0  0
    9.9912  -16.2265   25.9389 N   0  0  0  0  0  0  0  0  0  0  0  0
   10.7475  -17.4776   27.8632 C   0  0  0  0  0  0  0  0  0  0  0  0
   10.9059  -16.2107   28.4058 O   0  0  0  0  0  0  0  0  0  0  0  0
   11.0523  -18.4698   28.5684 O   0  0  0  0  0  0  0  0  0  0  0  0
  2  3  1  0
  2  1  1  6
  4  5  1  0
  4  3  1  0
  6  5  1  0
  7  6  1  0
  8  2  1  0
  9  8  2  0
 10 11  1  0
 11 12  1  0
 12 13  1  1
 12 14  1  0
 14 15  1  6
 15  8  1  0
 16 17  2  0
 16 14  1  0
 18 19  1  0
 20 19  1  6
 20 21  1  0
 21 16  1  0
 22 20  1  0
 23 22  1  0
 24 22  2  0
M  END
$$$$
