KIS.pdb
     RDKit          3D

 24 23  0  0  1  0  0  0  0  0999 V2000
    8.2555  -16.3999   20.7648 N   0  0  0  0  0  0  0  0  0  0  0  0
    7.5705  -16.5014   22.0386 C   0  0  1  0  0  0  0  0  0  0  0  0
    7.5673  -17.9695   22.4195 C   0  0  0  0  0  0  0  0  0  0  0  0
    7.0191  -18.8753   21.3730 C   0  0  0  0  0  0  0  0  0  0  0  0
    6.8247  -20.2931   21.8574 C   0  0  0  0  0  0  0  0  0  0  0  0
    6.1974  -21.1689   20.7951 C   0  0  0  0  0  0  0  0  0  0  0  0
    4.7755  -21.2121   21.0152 N   0  0  0  0  0  0  0  0  0  0  0  0
    8.3543  -15.7704   23.0539 C   0  0  0  0  0  0  0  0  0  0  0  0
    9.6024  -15.6517   23.0176 O   0  0  0  0  0  0  0  0  0  0  0  0
    6.6982  -11.3711   26.9711 C   0  0  0  0  0  0  0  0  0  0  0  0
    7.8117  -12.3749   26.6227 C   0  0  0  0  0  0  0  0  0  0  0  0
    7.3346  -13.3687   25.6121 C   0  0  2  0  0  0  0  0  0  0  0  0
    5.9821  -13.9383   25.9464 C   0  0  0  0  0  0  0  0  0  0  0  0
    8.3334  -14.3872   25.1747 C   0  0  2  0  0  0  0  0  0  0  0  0
    7.6534  -15.1700   24.1291 N   0  0  0  0  0  0  0  0  0  0  0  0
    8.7491  -15.3541   26.2055 C   0  0  0  0  0  0  0  0  0  0  0  0
    7.9330  -16.2007   26.7143 O   0  0  0  0  0  0  0  0  0  0  0  0
   12.6015  -16.2948   26.8241 O   0  0  0  0  0  0  0  0  0  0  0  0
   11.6654  -17.2477   27.2037 C   0  0  0  0  0  0  0  0  0  0  0  0
   10.4420  -16.4781   27.6928 C   0  0  2  0  0  0  0  0  0  0  0  0
   10.0717  -15.4358   26.7189 N   0  0  0  0  0  0  0  0  0  0  0  0
   10.6958  -15.8664   29.0135 C   0  0  0  0  0  0  0  0  0  0  0  0
   11.0439  -16.7084   30.0595 O   0  0  0  0  0  0  0  0  0  0  0  0
   10.6148  -14.6351   29.2420 O   0  0  0  0  0  0  0  0  0  0  0  0
  2  3  1  0
  2  1  1  6
  4  5  1  0
  4  3  1  0
  6  5  1  0
  7  6  1  0
  8  2  1  0
  9  8  2  0
 10 11  1  0
 11 12  1  0
 12 13  1  1
 12 14  1  0
 14 15  1  6
 15  8  1  0
 16 17  2  0
 16 14  1  0
 18 19  1  0
 20 19  1  6
 20 21  1  0
 21 16  1  0
 22 20  1  0
 23 22  1  0
 24 22  2  0
M  END
$$$$
