KIS.pdb
     RDKit          3D

 24 23  0  0  1  0  0  0  0  0999 V2000
    9.1624  -18.2012   16.0328 N   0  0  0  0  0  0  0  0  0  0  0  0
    8.6386  -18.2945   17.3815 C   0  0  1  0  0  0  0  0  0  0  0  0
    8.9878  -19.6789   17.8933 C   0  0  0  0  0  0  0  0  0  0  0  0
    8.6131  -19.9225   19.3133 C   0  0  0  0  0  0  0  0  0  0  0  0
    9.0304  -21.2861   19.8120 C   0  0  0  0  0  0  0  0  0  0  0  0
    8.6530  -21.4939   21.2623 C   0  0  0  0  0  0  0  0  0  0  0  0
    7.3840  -22.1712   21.3150 N   0  0  0  0  0  0  0  0  0  0  0  0
    9.3386  -17.3075   18.2275 C   0  0  0  0  0  0  0  0  0  0  0  0
   10.5723  -17.0894   18.1675 O   0  0  0  0  0  0  0  0  0  0  0  0
    7.3105  -12.1443   20.6588 C   0  0  0  0  0  0  0  0  0  0  0  0
    8.4746  -13.1506   20.6954 C   0  0  0  0  0  0  0  0  0  0  0  0
    8.0841  -14.4392   20.0445 C   0  0  2  0  0  0  0  0  0  0  0  0
    6.7495  -14.9508   20.5161 C   0  0  0  0  0  0  0  0  0  0  0  0
    9.1468  -15.4841   19.9738 C   0  0  2  0  0  0  0  0  0  0  0  0
    8.5698  -16.5665   19.1588 N   0  0  0  0  0  0  0  0  0  0  0  0
    9.5240  -16.0959   21.2598 C   0  0  0  0  0  0  0  0  0  0  0  0
    8.7459  -16.8976   21.8872 O   0  0  0  0  0  0  0  0  0  0  0  0
   12.2330  -18.2263   21.8055 O   0  0  0  0  0  0  0  0  0  0  0  0
   11.2517  -18.1080   22.7810 C   0  0  0  0  0  0  0  0  0  0  0  0
   11.1492  -16.6216   23.1101 C   0  0  2  0  0  0  0  0  0  0  0  0
   10.7653  -15.8582   21.9093 N   0  0  0  0  0  0  0  0  0  0  0  0
   12.4275  -16.1095   23.6454 C   0  0  0  0  0  0  0  0  0  0  0  0
   12.9628  -16.7435   24.7571 O   0  0  0  0  0  0  0  0  0  0  0  0
   13.0534  -15.1389   23.1545 O   0  0  0  0  0  0  0  0  0  0  0  0
  2  3  1  0
  2  1  1  6
  4  5  1  0
  4  3  1  0
  6  5  1  0
  7  6  1  0
  8  2  1  0
  9  8  2  0
 10 11  1  0
 11 12  1  0
 12 13  1  1
 12 14  1  0
 14 15  1  6
 15  8  1  0
 16 17  2  0
 16 14  1  0
 18 19  1  0
 20 19  1  6
 20 21  1  0
 21 16  1  0
 22 20  1  0
 23 22  1  0
 24 22  2  0
M  END
$$$$
