KIS.pdb
     RDKit          3D

 24 23  0  0  1  0  0  0  0  0999 V2000
    7.3340  -14.6192   20.2614 N   0  0  0  0  0  0  0  0  0  0  0  0
    6.9312  -15.1909   21.5315 C   0  0  1  0  0  0  0  0  0  0  0  0
    6.9923  -16.6981   21.3735 C   0  0  0  0  0  0  0  0  0  0  0  0
    6.2323  -17.2257   20.2073 C   0  0  0  0  0  0  0  0  0  0  0  0
    6.2944  -18.7306   20.0896 C   0  0  0  0  0  0  0  0  0  0  0  0
    5.5678  -19.2288   18.8596 C   0  0  0  0  0  0  0  0  0  0  0  0
    5.6626  -20.6645   18.8192 N   0  0  0  0  0  0  0  0  0  0  0  0
    7.9189  -14.8012   22.5573 C   0  0  0  0  0  0  0  0  0  0  0  0
    9.1311  -14.5915   22.3127 O   0  0  0  0  0  0  0  0  0  0  0  0
    6.1267  -11.4032   26.2927 C   0  0  0  0  0  0  0  0  0  0  0  0
    7.0394  -12.1444   25.2994 C   0  0  0  0  0  0  0  0  0  0  0  0
    7.5487  -13.4185   25.8942 C   0  0  2  0  0  0  0  0  0  0  0  0
    8.1366  -13.2284   27.2667 C   0  0  0  0  0  0  0  0  0  0  0  0
    8.3706  -14.2780   24.9931 C   0  0  2  0  0  0  0  0  0  0  0  0
    7.4683  -14.6569   23.8928 N   0  0  0  0  0  0  0  0  0  0  0  0
    8.8514  -15.5400   25.5820 C   0  0  0  0  0  0  0  0  0  0  0  0
    8.0547  -16.3900   26.1153 O   0  0  0  0  0  0  0  0  0  0  0  0
   12.2367  -18.9348   25.9683 O   0  0  0  0  0  0  0  0  0  0  0  0
   11.9356  -17.6810   25.4528 C   0  0  0  0  0  0  0  0  0  0  0  0
   10.6223  -17.2532   26.1013 C   0  0  2  0  0  0  0  0  0  0  0  0
   10.2193  -15.9237   25.6094 N   0  0  0  0  0  0  0  0  0  0  0  0
   10.7428  -17.2305   27.5736 C   0  0  0  0  0  0  0  0  0  0  0  0
   10.9914  -18.4324   28.2203 O   0  0  0  0  0  0  0  0  0  0  0  0
   10.6336  -16.1916   28.2691 O   0  0  0  0  0  0  0  0  0  0  0  0
  2  3  1  0
  2  1  1  6
  4  5  1  0
  4  3  1  0
  6  5  1  0
  7  6  1  0
  8  2  1  0
  9  8  2  0
 10 11  1  0
 11 12  1  0
 12 13  1  1
 12 14  1  0
 14 15  1  6
 15  8  1  0
 16 17  2  0
 16 14  1  0
 18 19  1  0
 20 19  1  6
 20 21  1  0
 21 16  1  0
 22 20  1  0
 23 22  1  0
 24 22  2  0
M  END
$$$$
