KIS.pdb
     RDKit          3D

 24 23  0  0  1  0  0  0  0  0999 V2000
    4.8950  -19.1226   23.4459 N   0  0  0  0  0  0  0  0  0  0  0  0
    5.7710  -18.6929   24.5183 C   0  0  1  0  0  0  0  0  0  0  0  0
    6.7737  -19.8091   24.7400 C   0  0  0  0  0  0  0  0  0  0  0  0
    6.6580  -20.4868   26.0603 C   0  0  0  0  0  0  0  0  0  0  0  0
    7.9808  -20.6186   26.7781 C   0  0  0  0  0  0  0  0  0  0  0  0
    7.8235  -21.2801   28.1296 C   0  0  0  0  0  0  0  0  0  0  0  0
    9.0798  -21.2039   28.8282 N   0  0  0  0  0  0  0  0  0  0  0  0
    6.5130  -17.4981   24.0696 C   0  0  0  0  0  0  0  0  0  0  0  0
    6.7972  -17.2645   22.8705 O   0  0  0  0  0  0  0  0  0  0  0  0
    5.7573  -12.8618   26.8258 C   0  0  0  0  0  0  0  0  0  0  0  0
    6.0379  -13.8245   25.6581 C   0  0  0  0  0  0  0  0  0  0  0  0
    7.4284  -14.3691   25.7405 C   0  0  2  0  0  0  0  0  0  0  0  0
    8.4682  -13.2934   25.9049 C   0  0  0  0  0  0  0  0  0  0  0  0
    7.7833  -15.4106   24.7326 C   0  0  2  0  0  0  0  0  0  0  0  0
    6.9260  -16.5645   25.0521 N   0  0  0  0  0  0  0  0  0  0  0  0
    9.1708  -15.9029   24.7881 C   0  0  0  0  0  0  0  0  0  0  0  0
    9.6541  -16.4616   25.8350 O   0  0  0  0  0  0  0  0  0  0  0  0
   11.7863  -15.6812   21.5857 O   0  0  0  0  0  0  0  0  0  0  0  0
   11.6637  -16.9277   22.1855 C   0  0  0  0  0  0  0  0  0  0  0  0
   11.2759  -16.6696   23.6385 C   0  0  2  0  0  0  0  0  0  0  0  0
   10.0831  -15.8064   23.7030 N   0  0  0  0  0  0  0  0  0  0  0  0
   12.3907  -16.0448   24.3800 C   0  0  0  0  0  0  0  0  0  0  0  0
   12.1425  -14.8441   25.0290 O   0  0  0  0  0  0  0  0  0  0  0  0
   13.5432  -16.5356   24.4559 O   0  0  0  0  0  0  0  0  0  0  0  0
  2  3  1  0
  2  1  1  6
  4  5  1  0
  4  3  1  0
  6  5  1  0
  7  6  1  0
  8  2  1  0
  9  8  2  0
 10 11  1  0
 11 12  1  0
 12 13  1  6
 12 14  1  0
 14 15  1  1
 15  8  1  0
 16 17  2  0
 16 14  1  0
 18 19  1  0
 20 19  1  6
 20 21  1  0
 21 16  1  0
 22 20  1  0
 23 22  1  0
 24 22  2  0
M  END
$$$$
