KIS.pdb
     RDKit          3D

 24 23  0  0  1  0  0  0  0  0999 V2000
    7.9740  -15.0688   20.2867 N   0  0  0  0  0  0  0  0  0  0  0  0
    7.2118  -15.2698   21.5035 C   0  0  1  0  0  0  0  0  0  0  0  0
    6.7617  -16.7182   21.5053 C   0  0  0  0  0  0  0  0  0  0  0  0
    6.9381  -17.4188   20.2038 C   0  0  0  0  0  0  0  0  0  0  0  0
    6.0544  -18.6357   20.0599 C   0  0  0  0  0  0  0  0  0  0  0  0
    6.2832  -19.3439   18.7427 C   0  0  0  0  0  0  0  0  0  0  0  0
    5.3866  -20.4672   18.6624 N   0  0  0  0  0  0  0  0  0  0  0  0
    8.1092  -15.0716   22.6590 C   0  0  0  0  0  0  0  0  0  0  0  0
    9.3574  -15.1791   22.5978 O   0  0  0  0  0  0  0  0  0  0  0  0
    6.1023  -11.5038   26.2228 C   0  0  0  0  0  0  0  0  0  0  0  0
    7.0870  -12.2682   25.3199 C   0  0  0  0  0  0  0  0  0  0  0  0
    7.4851  -13.5664   25.9468 C   0  0  2  0  0  0  0  0  0  0  0  0
    7.9752  -13.4061   27.3608 C   0  0  0  0  0  0  0  0  0  0  0  0
    8.3295  -14.4658   25.1076 C   0  0  2  0  0  0  0  0  0  0  0  0
    7.5237  -14.7412   23.9062 N   0  0  0  0  0  0  0  0  0  0  0  0
    8.6444  -15.7777   25.6995 C   0  0  0  0  0  0  0  0  0  0  0  0
    7.7358  -16.6414   25.9645 O   0  0  0  0  0  0  0  0  0  0  0  0
   11.5803  -19.4543   26.2094 O   0  0  0  0  0  0  0  0  0  0  0  0
   11.3253  -18.2124   25.6426 C   0  0  0  0  0  0  0  0  0  0  0  0
   10.2263  -17.5723   26.4856 C   0  0  2  0  0  0  0  0  0  0  0  0
    9.9627  -16.1982   26.0226 N   0  0  0  0  0  0  0  0  0  0  0  0
   10.5970  -17.5597   27.9157 C   0  0  0  0  0  0  0  0  0  0  0  0
   10.7418  -18.7815   28.5566 O   0  0  0  0  0  0  0  0  0  0  0  0
   10.7873  -16.5124   28.5805 O   0  0  0  0  0  0  0  0  0  0  0  0
  2  3  1  0
  2  1  1  6
  4  5  1  0
  4  3  1  0
  6  5  1  0
  7  6  1  0
  8  2  1  0
  9  8  2  0
 10 11  1  0
 11 12  1  0
 12 13  1  1
 12 14  1  0
 14 15  1  6
 15  8  1  0
 16 17  2  0
 16 14  1  0
 18 19  1  0
 20 19  1  6
 20 21  1  0
 21 16  1  0
 22 20  1  0
 23 22  1  0
 24 22  2  0
M  END
$$$$
