KIS.pdb
     RDKit          3D

 24 23  0  0  1  0  0  0  0  0999 V2000
    7.7821  -13.5424   19.9855 N   0  0  0  0  0  0  0  0  0  0  0  0
    7.3295  -14.4611   21.0117 C   0  0  1  0  0  0  0  0  0  0  0  0
    7.5433  -15.8623   20.4717 C   0  0  0  0  0  0  0  0  0  0  0  0
    6.7619  -16.1743   19.2437 C   0  0  0  0  0  0  0  0  0  0  0  0
    6.9662  -17.5885   18.7531 C   0  0  0  0  0  0  0  0  0  0  0  0
    6.2948  -17.8227   17.4177 C   0  0  0  0  0  0  0  0  0  0  0  0
    6.5029  -19.1939   17.0324 N   0  0  0  0  0  0  0  0  0  0  0  0
    8.1874  -14.2970   22.2018 C   0  0  0  0  0  0  0  0  0  0  0  0
    9.4046  -13.9992   22.1472 O   0  0  0  0  0  0  0  0  0  0  0  0
    5.8689  -11.6914   26.1532 C   0  0  0  0  0  0  0  0  0  0  0  0
    6.9118  -12.2618   25.1755 C   0  0  0  0  0  0  0  0  0  0  0  0
    7.4107  -13.5908   25.6460 C   0  0  2  0  0  0  0  0  0  0  0  0
    7.8528  -13.5728   27.0847 C   0  0  0  0  0  0  0  0  0  0  0  0
    8.3509  -14.2983   24.7286 C   0  0  2  0  0  0  0  0  0  0  0  0
    7.5991  -14.4875   23.4766 N   0  0  0  0  0  0  0  0  0  0  0  0
    8.7713  -15.6424   25.1613 C   0  0  0  0  0  0  0  0  0  0  0  0
    7.9298  -16.5869   25.3649 O   0  0  0  0  0  0  0  0  0  0  0  0
   12.6366  -16.8260   25.0135 O   0  0  0  0  0  0  0  0  0  0  0  0
   11.6965  -17.8431   24.9133 C   0  0  0  0  0  0  0  0  0  0  0  0
   10.4883  -17.3944   25.7301 C   0  0  2  0  0  0  0  0  0  0  0  0
   10.1260  -16.0079   25.3862 N   0  0  0  0  0  0  0  0  0  0  0  0
   10.7611  -17.4995   27.1783 C   0  0  0  0  0  0  0  0  0  0  0  0
   11.1343  -18.7388   27.6774 O   0  0  0  0  0  0  0  0  0  0  0  0
   10.6750  -16.5367   27.9787 O   0  0  0  0  0  0  0  0  0  0  0  0
  2  3  1  0
  2  1  1  6
  4  5  1  0
  4  3  1  0
  6  5  1  0
  7  6  1  0
  8  2  1  0
  9  8  2  0
 10 11  1  0
 11 12  1  0
 12 13  1  1
 12 14  1  0
 14 15  1  6
 15  8  1  0
 16 17  2  0
 16 14  1  0
 18 19  1  0
 20 19  1  6
 20 21  1  0
 21 16  1  0
 22 20  1  0
 23 22  1  0
 24 22  2  0
M  END
$$$$
