KIS.pdb
     RDKit          3D

 24 23  0  0  1  0  0  0  0  0999 V2000
    6.5896  -15.9656   21.9588 N   0  0  0  0  0  0  0  0  0  0  0  0
    8.0046  -15.9607   21.6427 C   0  0  1  0  0  0  0  0  0  0  0  0
    8.1942  -14.9890   20.4936 C   0  0  0  0  0  0  0  0  0  0  0  0
    7.6485  -15.4618   19.1918 C   0  0  0  0  0  0  0  0  0  0  0  0
    8.6773  -16.1634   18.3363 C   0  0  0  0  0  0  0  0  0  0  0  0
    8.0936  -16.6221   17.0180 C   0  0  0  0  0  0  0  0  0  0  0  0
    9.0653  -17.4443   16.3459 N   0  0  0  0  0  0  0  0  0  0  0  0
    8.7451  -15.4368   22.8075 C   0  0  0  0  0  0  0  0  0  0  0  0
    9.9756  -15.1936   22.7984 O   0  0  0  0  0  0  0  0  0  0  0  0
    6.1605  -12.0074   26.0527 C   0  0  0  0  0  0  0  0  0  0  0  0
    7.2755  -12.7284   25.2742 C   0  0  0  0  0  0  0  0  0  0  0  0
    7.7039  -13.9710   25.9876 C   0  0  2  0  0  0  0  0  0  0  0  0
    8.0477  -13.7261   27.4323 C   0  0  0  0  0  0  0  0  0  0  0  0
    8.6841  -14.8341   25.2660 C   0  0  2  0  0  0  0  0  0  0  0  0
    8.0216  -15.1963   24.0017 N   0  0  0  0  0  0  0  0  0  0  0  0
    9.0225  -16.1049   25.9301 C   0  0  0  0  0  0  0  0  0  0  0  0
    8.1272  -16.9575   26.2662 O   0  0  0  0  0  0  0  0  0  0  0  0
   12.6695  -17.8388   25.8317 O   0  0  0  0  0  0  0  0  0  0  0  0
   11.5658  -18.6312   26.1189 C   0  0  0  0  0  0  0  0  0  0  0  0
   10.6189  -17.7666   26.9458 C   0  0  2  0  0  0  0  0  0  0  0  0
   10.3508  -16.4948   26.2510 N   0  0  0  0  0  0  0  0  0  0  0  0
   11.1811  -17.4998   28.2858 C   0  0  0  0  0  0  0  0  0  0  0  0
   11.4546  -18.5889   29.1004 O   0  0  0  0  0  0  0  0  0  0  0  0
   11.4241  -16.3504   28.7270 O   0  0  0  0  0  0  0  0  0  0  0  0
  2  3  1  0
  2  1  1  1
  4  5  1  0
  4  3  1  0
  6  5  1  0
  7  6  1  0
  8  2  1  0
  9  8  2  0
 10 11  1  0
 11 12  1  0
 12 13  1  1
 12 14  1  0
 14 15  1  6
 15  8  1  0
 16 17  2  0
 16 14  1  0
 18 19  1  0
 20 19  1  6
 20 21  1  0
 21 16  1  0
 22 20  1  0
 23 22  1  0
 24 22  2  0
M  END
$$$$
