RDY.pdb
     RDKit          3D

 32 32  0  0  1  0  0  0  0  0999 V2000
   22.6165  -27.4003  -17.6501 N   0  0  0  0  0  0  0  0  0  0  0  0
   22.5834  -28.3937  -16.6383 C   0  0  0  0  0  0  0  0  0  0  0  0
   23.0540  -29.6070  -16.8260 N   0  0  0  0  0  0  0  0  0  0  0  0
   22.0346  -28.1661  -15.3566 N   0  0  0  0  0  0  0  0  0  0  0  0
   21.5680  -26.8878  -14.9000 C   0  0  0  0  0  0  0  0  0  0  0  0
   22.6191  -25.8605  -14.6765 C   0  0  0  0  0  0  0  0  0  0  0  0
   22.2123  -24.5522  -14.1309 C   0  0  0  0  0  0  0  0  0  0  0  0
   21.2387  -23.7613  -14.9425 C   0  0  2  0  0  0  0  0  0  0  0  0
   21.9028  -22.7272  -15.7281 N   0  0  0  0  0  0  0  0  0  0  0  0
   20.1908  -23.1320  -14.0933 C   0  0  0  0  0  0  0  0  0  0  0  0
   20.4338  -22.2558  -13.2284 O   0  0  0  0  0  0  0  0  0  0  0  0
   22.9639  -30.2486  -16.0118 N   0  0  0  0  0  0  0  0  0  0  0  0
   18.8050  -23.5124  -14.2299 C   0  0  2  0  0  0  0  0  0  0  0  0
   17.7970  -22.9319  -13.3666 C   0  0  0  0  0  0  0  0  0  0  0  0
   16.5171  -22.8051  -14.1525 C   0  0  0  0  0  0  0  0  0  0  0  0
   15.4223  -22.1940  -13.3681 O   0  0  0  0  0  0  0  0  0  0  0  0
   15.5763  -21.5075  -12.3301 C   0  0  0  0  0  0  0  0  0  0  0  0
   17.6228  -23.7852  -12.1538 O   0  0  0  0  0  0  0  0  0  0  0  0
   17.7819  -25.0295  -12.2410 O   0  0  0  0  0  0  0  0  0  0  0  0
   14.0863  -22.3702  -13.7813 O   0  0  0  0  0  0  0  0  0  0  0  0
   16.8151  -26.1737   -3.6707 C   0  0  0  0  0  0  0  0  0  0  0  0
   17.0048  -25.4675   -4.8656 C   0  0  0  0  0  0  0  0  0  0  0  0
   16.0758  -24.5514   -5.3073 C   0  0  0  0  0  0  0  0  0  0  0  0
   16.2639  -23.8457   -6.4997 C   0  0  0  0  0  0  0  0  0  0  0  0
   17.3983  -24.0745   -7.2406 C   0  0  0  0  0  0  0  0  0  0  0  0
   17.6040  -23.3357   -8.4962 C   0  0  1  0  0  0  0  0  0  0  0  0
   17.0768  -24.0428   -9.7069 N   0  0  0  0  0  0  0  0  0  0  0  0
   17.2836  -23.2546  -10.8972 C   0  0  0  0  0  0  0  0  0  0  0  0
   15.6276  -24.3750   -9.5195 O   0  0  0  0  0  0  0  0  0  0  0  0
   15.2604  -25.6339   -9.1163 C   0  0  0  0  0  0  0  0  0  0  0  0
   18.3201  -25.0055   -6.7707 C   0  0  0  0  0  0  0  0  0  0  0  0
   18.1504  -25.7080   -5.5998 O   0  0  0  0  0  0  0  0  0  0  0  0
  2  3  2  0
  2  1  1  0
  4  2  1  0
  5  4  1  0
  6  5  1  0
  7  6  1  0
  8  7  1  0
  8  9  1  1
 10 11  2  0
 10  8  1  0
 12 10  1  0
 13 17  1  0
 13 12  1  0
 13 14  1  6
 15 16  2  0
 15 14  1  0
 17 18  2  0
 19 15  1  0
 20 21  1  0
 21 31  2  0
 22 23  2  0
 22 21  1  0
 23 24  1  0
 24 25  1  0
 24 30  2  0
 26 25  1  6
 27 26  1  0
 27 17  1  0
 28 26  1  0
 29 28  1  0
 31 30  1  0
 32 28  2  0
M  END
$$$$
