RDY.pdb
     RDKit          3D

 32 32  0  0  1  0  0  0  0  0999 V2000
   23.4439  -26.0654  -15.0982 N   0  0  0  0  0  0  0  0  0  0  0  0
   22.2253  -25.4549  -14.7054 C   0  0  0  0  0  0  0  0  0  0  0  0
   21.9797  -24.1788  -14.9056 N   0  0  0  0  0  0  0  0  0  0  0  0
   21.1860  -26.1611  -14.0599 N   0  0  0  0  0  0  0  0  0  0  0  0
   21.3507  -27.4507  -13.4515 C   0  0  0  0  0  0  0  0  0  0  0  0
   20.1052  -28.0921  -12.9540 C   0  0  0  0  0  0  0  0  0  0  0  0
   20.2093  -29.4169  -12.3145 C   0  0  0  0  0  0  0  0  0  0  0  0
   19.8470  -29.4923  -10.8670 C   0  0  2  0  0  0  0  0  0  0  0  0
   19.8119  -30.8697  -10.3886 N   0  0  0  0  0  0  0  0  0  0  0  0
   18.5357  -28.8453  -10.5890 C   0  0  0  0  0  0  0  0  0  0  0  0
   17.5371  -28.9519  -11.3415 O   0  0  0  0  0  0  0  0  0  0  0  0
   21.0686  -23.8391  -14.5352 N   0  0  0  0  0  0  0  0  0  0  0  0
   18.3470  -28.0410   -9.4052 C   0  0  2  0  0  0  0  0  0  0  0  0
   17.0657  -27.4210   -9.1368 C   0  0  0  0  0  0  0  0  0  0  0  0
   16.8557  -27.3959   -7.6444 C   0  0  0  0  0  0  0  0  0  0  0  0
   15.5118  -26.9097   -7.2640 O   0  0  0  0  0  0  0  0  0  0  0  0
   14.6355  -26.5121   -8.0681 C   0  0  0  0  0  0  0  0  0  0  0  0
   17.0387  -26.0491   -9.7255 O   0  0  0  0  0  0  0  0  0  0  0  0
   17.9709  -25.2446   -9.4705 O   0  0  0  0  0  0  0  0  0  0  0  0
   15.1430  -26.8724   -5.9041 O   0  0  0  0  0  0  0  0  0  0  0  0
   18.7565  -26.7734  -16.3919 C   0  0  0  0  0  0  0  0  0  0  0  0
   17.9092  -26.1856  -15.4437 C   0  0  0  0  0  0  0  0  0  0  0  0
   16.6083  -26.6115  -15.2891 C   0  0  0  0  0  0  0  0  0  0  0  0
   15.7615  -26.0258  -14.3430 C   0  0  0  0  0  0  0  0  0  0  0  0
   16.2412  -25.0068  -13.5558 C   0  0  0  0  0  0  0  0  0  0  0  0
   15.3567  -24.3856  -12.5577 C   0  0  2  0  0  0  0  0  0  0  0  0
   15.9549  -24.3050  -11.1868 N   0  0  0  0  0  0  0  0  0  0  0  0
   16.0028  -25.6062  -10.5659 C   0  0  0  0  0  0  0  0  0  0  0  0
   15.1882  -23.3294  -10.3465 O   0  0  0  0  0  0  0  0  0  0  0  0
   14.7015  -23.7141   -9.1228 C   0  0  0  0  0  0  0  0  0  0  0  0
   17.5593  -24.5966  -13.7333 C   0  0  0  0  0  0  0  0  0  0  0  0
   18.4055  -25.1622  -14.6592 O   0  0  0  0  0  0  0  0  0  0  0  0
  2  3  2  0
  2  1  1  0
  4  2  1  0
  5  4  1  0
  6  5  1  0
  7  6  1  0
  8  7  1  0
  8  9  1  6
 10 11  2  0
 10  8  1  0
 12 10  1  0
 13 17  1  0
 13 12  1  0
 13 14  1  1
 15 16  2  0
 15 14  1  0
 17 18  2  0
 19 15  1  0
 20 21  1  0
 21 31  2  0
 22 23  2  0
 22 21  1  0
 23 24  1  0
 24 25  1  0
 24 30  2  0
 26 25  1  6
 27 26  1  0
 27 17  1  0
 28 26  1  0
 29 28  1  0
 31 30  1  0
 32 28  2  0
M  END
$$$$
