RDY.pdb
     RDKit          3D

 32 32  0  0  1  0  0  0  0  0999 V2000
   28.0210  -29.2360  -16.7557 N   0  0  0  0  0  0  0  0  0  0  0  0
   29.3518  -29.3514  -17.2326 C   0  0  0  0  0  0  0  0  0  0  0  0
   30.1458  -30.3366  -16.8749 N   0  0  0  0  0  0  0  0  0  0  0  0
   29.9343  -28.4163  -18.1168 N   0  0  0  0  0  0  0  0  0  0  0  0
   29.3735  -27.1262  -18.4024 C   0  0  0  0  0  0  0  0  0  0  0  0
   28.9062  -26.3514  -17.2229 C   0  0  0  0  0  0  0  0  0  0  0  0
   28.1584  -25.1025  -17.4593 C   0  0  0  0  0  0  0  0  0  0  0  0
   28.9186  -23.8262  -17.2998 C   0  0  2  0  0  0  0  0  0  0  0  0
   30.2044  -24.0401  -16.6454 N   0  0  0  0  0  0  0  0  0  0  0  0
   28.1441  -22.8113  -16.5347 C   0  0  0  0  0  0  0  0  0  0  0  0
   28.6756  -21.9398  -15.8048 O   0  0  0  0  0  0  0  0  0  0  0  0
   31.1145  -30.2844  -17.2512 N   0  0  0  0  0  0  0  0  0  0  0  0
   26.7023  -22.7821  -16.5993 C   0  0  2  0  0  0  0  0  0  0  0  0
   25.9635  -21.6904  -15.9988 C   0  0  0  0  0  0  0  0  0  0  0  0
   25.0599  -21.0966  -17.0489 C   0  0  0  0  0  0  0  0  0  0  0  0
   23.7242  -21.7307  -17.0791 O   0  0  0  0  0  0  0  0  0  0  0  0
   22.8011  -21.5051  -16.2609 C   0  0  0  0  0  0  0  0  0  0  0  0
   25.1938  -22.1925  -14.8220 O   0  0  0  0  0  0  0  0  0  0  0  0
   25.2410  -23.4129  -14.5229 O   0  0  0  0  0  0  0  0  0  0  0  0
   23.4199  -22.6674  -18.0875 O   0  0  0  0  0  0  0  0  0  0  0  0
   26.6550  -20.0933   -6.6488 C   0  0  0  0  0  0  0  0  0  0  0  0
   26.4719  -20.2670   -8.0268 C   0  0  0  0  0  0  0  0  0  0  0  0
   26.4749  -21.5225   -8.5935 C   0  0  0  0  0  0  0  0  0  0  0  0
   26.2921  -21.6974   -9.9688 C   0  0  0  0  0  0  0  0  0  0  0  0
   26.1067  -20.5928  -10.7648 C   0  0  0  0  0  0  0  0  0  0  0  0
   25.9132  -20.7684  -12.2126 C   0  0  1  0  0  0  0  0  0  0  0  0
   24.5381  -21.2296  -12.5871 N   0  0  0  0  0  0  0  0  0  0  0  0
   24.4052  -21.3511  -14.0183 C   0  0  0  0  0  0  0  0  0  0  0  0
   23.5100  -20.2967  -12.0226 O   0  0  0  0  0  0  0  0  0  0  0  0
   23.1671  -19.1595  -12.7091 C   0  0  0  0  0  0  0  0  0  0  0  0
   26.1082  -19.3365  -10.1656 C   0  0  0  0  0  0  0  0  0  0  0  0
   26.2864  -19.1470   -8.8145 O   0  0  0  0  0  0  0  0  0  0  0  0
  2  3  2  0
  2  1  1  0
  4  2  1  0
  5  4  1  0
  6  5  1  0
  7  6  1  0
  8  7  1  0
  8  9  1  1
 10 11  2  0
 10  8  1  0
 12 10  1  0
 13 17  1  0
 13 12  1  0
 13 14  1  6
 15 16  2  0
 15 14  1  0
 17 18  2  0
 19 15  1  0
 20 21  1  0
 21 31  2  0
 22 23  2  0
 22 21  1  0
 23 24  1  0
 24 25  1  0
 24 30  2  0
 26 25  1  1
 27 26  1  0
 27 17  1  0
 28 26  1  0
 29 28  1  0
 31 30  1  0
 32 28  2  0
M  END
$$$$
