RDY.pdb
     RDKit          3D

 32 32  0  0  1  0  0  0  0  0999 V2000
   27.5280  -22.2881  -16.5780 N   0  0  0  0  0  0  0  0  0  0  0  0
   26.7988  -23.4356  -16.1737 C   0  0  0  0  0  0  0  0  0  0  0  0
   27.2910  -24.6515  -16.2640 N   0  0  0  0  0  0  0  0  0  0  0  0
   25.4868  -23.3677  -15.6546 N   0  0  0  0  0  0  0  0  0  0  0  0
   24.6539  -22.2012  -15.7308 C   0  0  0  0  0  0  0  0  0  0  0  0
   24.9445  -21.1359  -14.7355 C   0  0  0  0  0  0  0  0  0  0  0  0
   24.0570  -19.9588  -14.6929 C   0  0  0  0  0  0  0  0  0  0  0  0
   23.8685  -19.2153  -15.9750 C   0  0  2  0  0  0  0  0  0  0  0  0
   25.0263  -18.3887  -16.2968 N   0  0  0  0  0  0  0  0  0  0  0  0
   22.6508  -18.3600  -15.9462 C   0  0  0  0  0  0  0  0  0  0  0  0
   22.5282  -17.3536  -15.2067 O   0  0  0  0  0  0  0  0  0  0  0  0
   26.6283  -25.4171  -16.0245 N   0  0  0  0  0  0  0  0  0  0  0  0
   21.5206  -18.6582  -16.7935 C   0  0  2  0  0  0  0  0  0  0  0  0
   20.2894  -17.9059  -16.6649 C   0  0  0  0  0  0  0  0  0  0  0  0
   20.2674  -16.8477  -17.7380 C   0  0  0  0  0  0  0  0  0  0  0  0
   19.0351  -16.0305  -17.7103 O   0  0  0  0  0  0  0  0  0  0  0  0
   18.0188  -16.2358  -18.4156 C   0  0  0  0  0  0  0  0  0  0  0  0
   19.1224  -18.8310  -16.7719 O   0  0  0  0  0  0  0  0  0  0  0  0
   18.5292  -18.9589  -17.8732 O   0  0  0  0  0  0  0  0  0  0  0  0
   18.9508  -14.9255  -16.8394 O   0  0  0  0  0  0  0  0  0  0  0  0
   21.3221  -18.8768   -9.7982 C   0  0  0  0  0  0  0  0  0  0  0  0
   20.4262  -18.6718  -10.8556 C   0  0  0  0  0  0  0  0  0  0  0  0
   19.4850  -19.6216  -11.1866 C   0  0  0  0  0  0  0  0  0  0  0  0
   18.5901  -19.4182  -12.2417 C   0  0  0  0  0  0  0  0  0  0  0  0
   18.6556  -18.2475  -12.9582 C   0  0  0  0  0  0  0  0  0  0  0  0
   17.7173  -18.0257  -14.0694 C   0  0  2  0  0  0  0  0  0  0  0  0
   17.4758  -19.2426  -14.9088 N   0  0  0  0  0  0  0  0  0  0  0  0
   18.6469  -19.5791  -15.6810 C   0  0  0  0  0  0  0  0  0  0  0  0
   16.2840  -19.0311  -15.7922 O   0  0  0  0  0  0  0  0  0  0  0  0
   15.3194  -20.0023  -15.8847 C   0  0  0  0  0  0  0  0  0  0  0  0
   19.6163  -17.3055  -12.6020 C   0  0  0  0  0  0  0  0  0  0  0  0
   20.5039  -17.4898  -11.5669 O   0  0  0  0  0  0  0  0  0  0  0  0
  2  3  2  0
  2  1  1  0
  4  2  1  0
  5  4  1  0
  6  5  1  0
  7  6  1  0
  8  7  1  0
  8  9  1  1
 10 11  2  0
 10  8  1  0
 12 10  1  0
 13 17  1  0
 13 12  1  0
 13 14  1  6
 15 16  2  0
 15 14  1  0
 17 18  2  0
 19 15  1  0
 20 21  1  0
 21 31  2  0
 22 23  2  0
 22 21  1  0
 23 24  1  0
 24 25  1  0
 24 30  2  0
 26 25  1  1
 27 26  1  0
 27 17  1  0
 28 26  1  0
 29 28  1  0
 31 30  1  0
 32 28  2  0
M  END
$$$$
