RDY.pdb
     RDKit          3D

 32 32  0  0  1  0  0  0  0  0999 V2000
   32.5125  -23.8717  -17.9367 N   0  0  0  0  0  0  0  0  0  0  0  0
   32.3554  -24.7277  -16.8166 C   0  0  0  0  0  0  0  0  0  0  0  0
   33.3297  -25.4886  -16.3689 N   0  0  0  0  0  0  0  0  0  0  0  0
   31.1425  -24.8411  -16.1013 N   0  0  0  0  0  0  0  0  0  0  0  0
   29.9451  -24.1232  -16.4348 C   0  0  0  0  0  0  0  0  0  0  0  0
   30.1428  -22.7364  -16.9324 C   0  0  0  0  0  0  0  0  0  0  0  0
   29.1375  -21.7172  -16.5782 C   0  0  0  0  0  0  0  0  0  0  0  0
   27.7269  -22.1887  -16.4362 C   0  0  2  0  0  0  0  0  0  0  0  0
   27.2467  -22.8340  -17.6528 N   0  0  0  0  0  0  0  0  0  0  0  0
   26.8044  -21.0776  -16.0760 C   0  0  0  0  0  0  0  0  0  0  0  0
   27.0132  -20.2837  -15.1269 O   0  0  0  0  0  0  0  0  0  0  0  0
   33.1012  -26.0496  -15.5228 N   0  0  0  0  0  0  0  0  0  0  0  0
   25.5903  -20.8558  -16.8247 C   0  0  1  0  0  0  0  0  0  0  0  0
   24.7188  -19.7464  -16.4962 C   0  0  0  0  0  0  0  0  0  0  0  0
   24.4166  -18.9904  -17.7647 C   0  0  0  0  0  0  0  0  0  0  0  0
   25.5030  -18.0645  -18.1514 O   0  0  0  0  0  0  0  0  0  0  0  0
   26.0276  -17.2136  -17.3943 C   0  0  0  0  0  0  0  0  0  0  0  0
   23.4769  -20.2594  -15.8450 O   0  0  0  0  0  0  0  0  0  0  0  0
   23.0519  -21.4069  -16.1339 O   0  0  0  0  0  0  0  0  0  0  0  0
   26.0203  -18.1054  -19.4618 O   0  0  0  0  0  0  0  0  0  0  0  0
   16.0954  -20.1990  -10.8917 C   0  0  0  0  0  0  0  0  0  0  0  0
   17.3517  -19.9189  -11.4447 C   0  0  0  0  0  0  0  0  0  0  0  0
   18.4789  -20.5945  -11.0317 C   0  0  0  0  0  0  0  0  0  0  0  0
   19.7335  -20.3161  -11.5828 C   0  0  0  0  0  0  0  0  0  0  0  0
   19.8379  -19.3496  -12.5540 C   0  0  0  0  0  0  0  0  0  0  0  0
   21.1543  -19.0512  -13.1394 C   0  0  1  0  0  0  0  0  0  0  0  0
   21.5267  -19.9491  -14.2790 N   0  0  0  0  0  0  0  0  0  0  0  0
   22.7474  -19.5073  -14.9080 C   0  0  0  0  0  0  0  0  0  0  0  0
   20.4017  -20.0224  -15.2663 O   0  0  0  0  0  0  0  0  0  0  0  0
   19.4250  -20.9749  -15.1218 C   0  0  0  0  0  0  0  0  0  0  0  0
   18.6829  -18.6829  -12.9523 C   0  0  0  0  0  0  0  0  0  0  0  0
   17.4412  -18.9447  -12.4205 O   0  0  0  0  0  0  0  0  0  0  0  0
  2  3  2  0
  2  1  1  0
  4  2  1  0
  5  4  1  0
  6  5  1  0
  7  6  1  0
  8  7  1  0
  8  9  1  6
 10 11  2  0
 10  8  1  0
 12 10  1  0
 13 17  1  0
 13 12  1  0
 13 14  1  1
 15 16  2  0
 15 14  1  0
 17 18  2  0
 19 15  1  0
 20 21  1  0
 21 31  2  0
 22 23  2  0
 22 21  1  0
 23 24  1  0
 24 25  1  0
 24 30  2  0
 26 25  1  1
 27 26  1  0
 27 17  1  0
 28 26  1  0
 29 28  1  0
 31 30  1  0
 32 28  2  0
M  END
$$$$
