RDY.pdb
     RDKit          3D

 32 32  0  0  1  0  0  0  0  0999 V2000
   30.1158  -21.2405  -22.1777 N   0  0  0  0  0  0  0  0  0  0  0  0
   31.0439  -21.0797  -21.1173 C   0  0  0  0  0  0  0  0  0  0  0  0
   32.3085  -20.7863  -21.3258 N   0  0  0  0  0  0  0  0  0  0  0  0
   30.6905  -21.2323  -19.7581 N   0  0  0  0  0  0  0  0  0  0  0  0
   29.3850  -21.6244  -19.3085 C   0  0  0  0  0  0  0  0  0  0  0  0
   28.4026  -20.5212  -19.1419 C   0  0  0  0  0  0  0  0  0  0  0  0
   28.2954  -19.8749  -17.8207 C   0  0  0  0  0  0  0  0  0  0  0  0
   27.5868  -20.6445  -16.7540 C   0  0  2  0  0  0  0  0  0  0  0  0
   27.0152  -21.8835  -17.2694 N   0  0  0  0  0  0  0  0  0  0  0  0
   26.5114  -19.8407  -16.1117 C   0  0  0  0  0  0  0  0  0  0  0  0
   26.7044  -18.7151  -15.5915 O   0  0  0  0  0  0  0  0  0  0  0  0
   32.9085  -20.7809  -20.4757 N   0  0  0  0  0  0  0  0  0  0  0  0
   25.1559  -20.3342  -16.0561 C   0  0  1  0  0  0  0  0  0  0  0  0
   24.0993  -19.5138  -15.5003 C   0  0  0  0  0  0  0  0  0  0  0  0
   23.1428  -19.1588  -16.6096 C   0  0  0  0  0  0  0  0  0  0  0  0
   22.0508  -18.2684  -16.1603 O   0  0  0  0  0  0  0  0  0  0  0  0
   22.1684  -17.3602  -15.3037 C   0  0  0  0  0  0  0  0  0  0  0  0
   23.4196  -20.2520  -14.3946 O   0  0  0  0  0  0  0  0  0  0  0  0
   23.2652  -21.4969  -14.4810 O   0  0  0  0  0  0  0  0  0  0  0  0
   20.7610  -18.4151  -16.7096 O   0  0  0  0  0  0  0  0  0  0  0  0
   20.1870  -21.9258   -6.3113 C   0  0  0  0  0  0  0  0  0  0  0  0
   20.7181  -21.3031   -7.4483 C   0  0  0  0  0  0  0  0  0  0  0  0
   22.0772  -21.1406   -7.6027 C   0  0  0  0  0  0  0  0  0  0  0  0
   22.6087  -20.5193   -8.7371 C   0  0  0  0  0  0  0  0  0  0  0  0
   21.7546  -20.0645   -9.7127 C   0  0  0  0  0  0  0  0  0  0  0  0
   22.3059  -19.4103  -10.9096 C   0  0  2  0  0  0  0  0  0  0  0  0
   22.3312  -20.2899  -12.1218 N   0  0  0  0  0  0  0  0  0  0  0  0
   22.9355  -19.6103  -13.2415 C   0  0  0  0  0  0  0  0  0  0  0  0
   20.9447  -20.7538  -12.4509 O   0  0  0  0  0  0  0  0  0  0  0  0
   20.5110  -21.9795  -12.0131 C   0  0  0  0  0  0  0  0  0  0  0  0
   20.3862  -20.2420   -9.5308 C   0  0  0  0  0  0  0  0  0  0  0  0
   19.8470  -20.8510   -8.4210 O   0  0  0  0  0  0  0  0  0  0  0  0
  2  3  2  0
  2  1  1  0
  4  2  1  0
  5  4  1  0
  6  5  1  0
  7  6  1  0
  8  7  1  0
  8  9  1  6
 10 11  2  0
 10  8  1  0
 12 10  1  0
 13 17  1  0
 13 12  1  0
 13 14  1  1
 15 16  2  0
 15 14  1  0
 17 18  2  0
 19 15  1  0
 20 21  1  0
 21 31  2  0
 22 23  2  0
 22 21  1  0
 23 24  1  0
 24 25  1  0
 24 30  2  0
 26 25  1  1
 27 26  1  0
 27 17  1  0
 28 26  1  0
 29 28  1  0
 31 30  1  0
 32 28  2  0
M  END
$$$$
