RDY.pdb
     RDKit          3D

 32 32  0  0  1  0  0  0  0  0999 V2000
   27.9597  -26.7092  -16.9582 N   0  0  0  0  0  0  0  0  0  0  0  0
   27.5794  -25.6053  -17.7635 C   0  0  0  0  0  0  0  0  0  0  0  0
   27.2123  -25.7418  -19.0187 N   0  0  0  0  0  0  0  0  0  0  0  0
   27.5750  -24.2746  -17.2894 N   0  0  0  0  0  0  0  0  0  0  0  0
   26.8868  -23.8483  -16.1042 C   0  0  0  0  0  0  0  0  0  0  0  0
   25.4387  -23.5558  -16.2699 C   0  0  0  0  0  0  0  0  0  0  0  0
   24.6810  -23.0900  -15.0935 C   0  0  0  0  0  0  0  0  0  0  0  0
   23.6128  -24.0003  -14.5813 C   0  0  2  0  0  0  0  0  0  0  0  0
   23.2115  -24.9815  -15.5830 N   0  0  0  0  0  0  0  0  0  0  0  0
   22.4122  -23.2464  -14.1278 C   0  0  0  0  0  0  0  0  0  0  0  0
   22.4492  -22.3426  -13.2581 O   0  0  0  0  0  0  0  0  0  0  0  0
   27.0047  -24.8535  -19.5191 N   0  0  0  0  0  0  0  0  0  0  0  0
   21.1107  -23.5292  -14.6847 C   0  0  1  0  0  0  0  0  0  0  0  0
   19.9421  -22.8115  -14.2183 C   0  0  0  0  0  0  0  0  0  0  0  0
   19.1705  -22.3316  -15.4208 C   0  0  0  0  0  0  0  0  0  0  0  0
   17.9820  -21.5308  -15.0556 O   0  0  0  0  0  0  0  0  0  0  0  0
   17.7725  -21.0264  -13.9268 C   0  0  0  0  0  0  0  0  0  0  0  0
   19.1190  -23.7036  -13.3488 O   0  0  0  0  0  0  0  0  0  0  0  0
   19.0215  -24.9258  -13.6274 O   0  0  0  0  0  0  0  0  0  0  0  0
   16.9810  -21.2899  -16.0183 O   0  0  0  0  0  0  0  0  0  0  0  0
   13.6396  -19.3467   -9.8502 C   0  0  0  0  0  0  0  0  0  0  0  0
   14.6104  -20.3564   -9.8728 C   0  0  0  0  0  0  0  0  0  0  0  0
   14.3808  -21.5792   -9.2815 C   0  0  0  0  0  0  0  0  0  0  0  0
   15.3488  -22.5881   -9.3034 C   0  0  0  0  0  0  0  0  0  0  0  0
   16.5496  -22.3496   -9.9275 C   0  0  0  0  0  0  0  0  0  0  0  0
   17.5731  -23.4060   -9.9553 C   0  0  1  0  0  0  0  0  0  0  0  0
   17.7160  -24.0743  -11.2883 N   0  0  0  0  0  0  0  0  0  0  0  0
   18.4358  -23.2339  -12.2137 C   0  0  0  0  0  0  0  0  0  0  0  0
   16.3672  -24.4450  -11.8262 O   0  0  0  0  0  0  0  0  0  0  0  0
   15.6434  -25.4458  -11.2289 C   0  0  0  0  0  0  0  0  0  0  0  0
   16.7545  -21.1053  -10.5166 C   0  0  0  0  0  0  0  0  0  0  0  0
   15.8128  -20.1022  -10.5042 O   0  0  0  0  0  0  0  0  0  0  0  0
  2  3  2  0
  2  1  1  0
  4  2  1  0
  5  4  1  0
  6  5  1  0
  7  6  1  0
  8  7  1  0
  8  9  1  6
 10 11  2  0
 10  8  1  0
 12 10  1  0
 13 17  1  0
 13 12  1  0
 13 14  1  1
 15 16  2  0
 15 14  1  0
 17 18  2  0
 19 15  1  0
 20 21  1  0
 21 31  2  0
 22 23  2  0
 22 21  1  0
 23 24  1  0
 24 25  1  0
 24 30  2  0
 26 25  1  1
 27 26  1  0
 27 17  1  0
 28 26  1  0
 29 28  1  0
 31 30  1  0
 32 28  2  0
M  END
$$$$
