RDY.pdb
     RDKit          3D

 32 32  0  0  1  0  0  0  0  0999 V2000
   24.6152  -34.2113  -10.8704 N   0  0  0  0  0  0  0  0  0  0  0  0
   25.6567  -33.6080  -11.6208 C   0  0  0  0  0  0  0  0  0  0  0  0
   25.6516  -33.5770  -12.9353 N   0  0  0  0  0  0  0  0  0  0  0  0
   26.7847  -33.0047  -11.0213 N   0  0  0  0  0  0  0  0  0  0  0  0
   26.9412  -32.8274   -9.6056 C   0  0  0  0  0  0  0  0  0  0  0  0
   25.9539  -31.9255   -8.9561 C   0  0  0  0  0  0  0  0  0  0  0  0
   25.0886  -32.4822   -7.8996 C   0  0  0  0  0  0  0  0  0  0  0  0
   25.7617  -32.8983   -6.6324 C   0  0  2  0  0  0  0  0  0  0  0  0
   26.4711  -34.1634   -6.7863 N   0  0  0  0  0  0  0  0  0  0  0  0
   24.7978  -33.0130   -5.5041 C   0  0  0  0  0  0  0  0  0  0  0  0
   24.0942  -32.0583   -5.0940 O   0  0  0  0  0  0  0  0  0  0  0  0
   26.4965  -33.1552  -13.3722 N   0  0  0  0  0  0  0  0  0  0  0  0
   24.6228  -34.2660   -4.8090 C   0  0  1  0  0  0  0  0  0  0  0  0
   23.6453  -34.3846   -3.7465 C   0  0  0  0  0  0  0  0  0  0  0  0
   23.0582  -35.7719   -3.7965 C   0  0  0  0  0  0  0  0  0  0  0  0
   22.0740  -36.0157   -2.7199 O   0  0  0  0  0  0  0  0  0  0  0  0
   20.9858  -35.4068   -2.5875 C   0  0  0  0  0  0  0  0  0  0  0  0
   24.2957  -34.1029   -2.4323 O   0  0  0  0  0  0  0  0  0  0  0  0
   25.4735  -34.4914   -2.2255 O   0  0  0  0  0  0  0  0  0  0  0  0
   22.3367  -36.9990   -1.7448 O   0  0  0  0  0  0  0  0  0  0  0  0
   28.4134  -31.7332    4.5333 C   0  0  0  0  0  0  0  0  0  0  0  0
   27.6675  -31.8551    3.3538 C   0  0  0  0  0  0  0  0  0  0  0  0
   26.5597  -31.0685    3.1266 C   0  0  0  0  0  0  0  0  0  0  0  0
   25.8143  -31.1889    1.9496 C   0  0  0  0  0  0  0  0  0  0  0  0
   26.1985  -32.1109    1.0059 C   0  0  0  0  0  0  0  0  0  0  0  0
   25.4199  -32.2434   -0.2353 C   0  0  2  0  0  0  0  0  0  0  0  0
   24.2237  -33.1357   -0.1062 N   0  0  0  0  0  0  0  0  0  0  0  0
   23.6425  -33.4118   -1.3972 C   0  0  0  0  0  0  0  0  0  0  0  0
   23.2202  -32.5212    0.8219 O   0  0  0  0  0  0  0  0  0  0  0  0
   23.4203  -32.5731    2.1781 C   0  0  0  0  0  0  0  0  0  0  0  0
   27.3216  -32.8922    1.2616 C   0  0  0  0  0  0  0  0  0  0  0  0
   28.0659  -32.7862    2.4139 O   0  0  0  0  0  0  0  0  0  0  0  0
  2  3  2  0
  2  1  1  0
  4  2  1  0
  5  4  1  0
  6  5  1  0
  7  6  1  0
  8  7  1  0
  8  9  1  6
 10 11  2  0
 10  8  1  0
 12 10  1  0
 13 17  1  0
 13 12  1  0
 13 14  1  1
 15 16  2  0
 15 14  1  0
 17 18  2  0
 19 15  1  0
 20 21  1  0
 21 31  2  0
 22 23  2  0
 22 21  1  0
 23 24  1  0
 24 25  1  0
 24 30  2  0
 26 25  1  6
 27 26  1  0
 27 17  1  0
 28 26  1  0
 29 28  1  0
 31 30  1  0
 32 28  2  0
M  END
$$$$
