KLY.pdb
     RDKit          3D

 30 30  0  0  1  0  0  0  0  0999 V2000
   28.4838  -21.3806  -14.1738 N   0  0  0  0  0  0  0  0  0  0  0  0
   28.3584  -20.4978  -12.9984 C   0  0  1  0  0  0  0  0  0  0  0  0
   28.0195  -19.1457  -13.5802 C   0  0  0  0  0  0  0  0  0  0  0  0
   28.5373  -18.9987  -14.9611 C   0  0  0  0  0  0  0  0  0  0  0  0
   27.4243  -19.1353  -15.9995 C   0  0  0  0  0  0  0  0  0  0  0  0
   27.9222  -18.7343  -17.3501 C   0  0  0  0  0  0  0  0  0  0  0  0
   26.7933  -18.8880  -18.2848 N   0  0  0  0  0  0  0  0  0  0  0  0
   27.2834  -20.9643  -12.1206 C   0  0  0  0  0  0  0  0  0  0  0  0
   26.2818  -21.6026  -12.5162 O   0  0  0  0  0  0  0  0  0  0  0  0
   26.9034  -20.2889   -6.1271 C   0  0  0  0  0  0  0  0  0  0  0  0
   26.7225  -19.9330   -7.6253 C   0  0  1  0  0  0  0  0  0  0  0  0
   28.0841  -19.3831   -8.0776 C   0  0  0  0  0  0  0  0  0  0  0  0
   26.4178  -21.1585   -8.4011 C   0  0  0  0  0  0  0  0  0  0  0  0
   26.2025  -21.0289   -9.8626 C   0  0  2  0  0  0  0  0  0  0  0  0
   27.3035  -20.7121  -10.6903 N   0  0  0  0  0  0  0  0  0  0  0  0
   25.0248  -20.1268  -10.0495 C   0  0  0  0  0  0  0  0  0  0  0  0
   25.3231  -18.9013  -10.2373 O   0  0  0  0  0  0  0  0  0  0  0  0
   19.9970  -19.5861  -16.8391 O   0  0  0  0  0  0  0  0  0  0  0  0
   20.8051  -19.8404  -15.7521 C   0  0  0  0  0  0  0  0  0  0  0  0
   21.3844  -18.7760  -15.0704 C   0  0  0  0  0  0  0  0  0  0  0  0
   22.1983  -19.0462  -13.9754 C   0  0  0  0  0  0  0  0  0  0  0  0
   22.4375  -20.3356  -13.5591 C   0  0  0  0  0  0  0  0  0  0  0  0
   23.3060  -20.6041  -12.4005 C   0  0  0  0  0  0  0  0  0  0  0  0
   22.7481  -20.1669  -11.0875 C   0  0  2  0  0  0  0  0  0  0  0  0
   23.6806  -20.5515  -10.0277 N   0  0  0  0  0  0  0  0  0  0  0  0
   21.4181  -20.6991  -10.7774 C   0  0  0  0  0  0  0  0  0  0  0  0
   20.2939  -19.9574  -11.0907 O   0  0  0  0  0  0  0  0  0  0  0  0
   21.8601  -21.4082  -14.2372 C   0  0  0  0  0  0  0  0  0  0  0  0
   21.0526  -21.1290  -15.3246 C   0  0  0  0  0  0  0  0  0  0  0  0
   21.2325  -21.8282  -10.2234 O   0  0  0  0  0  0  0  0  0  0  0  0
  2  1  1  6
  3  2  1  0
  3  4  1  0
  5  4  1  0
  6  5  1  0
  7  6  1  0
  8  2  1  0
  8  9  2  0
 11 10  1  1
 11 13  1  0
 12 11  1  0
 14 13  1  1
 14 15  1  0
 15  8  1  0
 16 14  1  0
 17 16  2  0
 19 18  1  0
 20 19  2  0
 21 20  1  0
 22 28  1  0
 22 21  2  0
 23 22  1  0
 24 23  1  6
 24 25  1  0
 25 16  1  0
 26 24  1  0
 27 26  1  0
 28 29  2  0
 29 19  1  0
 30 26  2  0
M  END
$$$$
