KLY.pdb
     RDKit          3D

 30 30  0  0  1  0  0  0  0  0999 V2000
   27.5224  -21.4663  -15.0061 N   0  0  0  0  0  0  0  0  0  0  0  0
   27.2558  -20.4095  -14.0117 C   0  0  1  0  0  0  0  0  0  0  0  0
   26.6503  -19.2832  -14.8156 C   0  0  0  0  0  0  0  0  0  0  0  0
   27.6806  -18.5406  -15.5796 C   0  0  0  0  0  0  0  0  0  0  0  0
   27.7422  -18.9974  -17.0367 C   0  0  0  0  0  0  0  0  0  0  0  0
   28.6602  -18.1152  -17.8190 C   0  0  0  0  0  0  0  0  0  0  0  0
   28.6251  -18.5910  -19.2133 N   0  0  0  0  0  0  0  0  0  0  0  0
   26.3105  -20.8857  -13.0001 C   0  0  0  0  0  0  0  0  0  0  0  0
   25.5193  -21.8403  -13.1734 O   0  0  0  0  0  0  0  0  0  0  0  0
   26.8705  -19.6522   -7.3879 C   0  0  0  0  0  0  0  0  0  0  0  0
   26.8607  -20.2268   -8.8278 C   0  0  1  0  0  0  0  0  0  0  0  0
   27.4686  -21.6328   -8.7066 C   0  0  0  0  0  0  0  0  0  0  0  0
   25.4653  -20.3472   -9.3128 C   0  0  0  0  0  0  0  0  0  0  0  0
   25.2443  -20.6590  -10.7456 C   0  0  2  0  0  0  0  0  0  0  0  0
   26.2210  -20.2670  -11.6891 N   0  0  0  0  0  0  0  0  0  0  0  0
   23.8606  -20.2023  -11.0808 C   0  0  0  0  0  0  0  0  0  0  0  0
   23.7562  -18.9501  -11.2985 O   0  0  0  0  0  0  0  0  0  0  0  0
   18.8646  -20.2403  -17.8835 O   0  0  0  0  0  0  0  0  0  0  0  0
   19.7256  -20.4033  -16.8199 C   0  0  0  0  0  0  0  0  0  0  0  0
   19.7171  -21.6014  -16.1144 C   0  0  0  0  0  0  0  0  0  0  0  0
   20.5905  -21.7530  -15.0427 C   0  0  0  0  0  0  0  0  0  0  0  0
   21.4544  -20.7481  -14.6724 C   0  0  0  0  0  0  0  0  0  0  0  0
   22.3692  -20.9236  -13.5319 C   0  0  0  0  0  0  0  0  0  0  0  0
   21.7162  -20.8574  -12.1919 C   0  0  2  0  0  0  0  0  0  0  0  0
   22.7362  -21.0490  -11.1605 N   0  0  0  0  0  0  0  0  0  0  0  0
   20.6345  -21.8251  -11.9873 C   0  0  0  0  0  0  0  0  0  0  0  0
   20.9285  -23.1739  -11.9089 O   0  0  0  0  0  0  0  0  0  0  0  0
   21.4691  -19.5440  -15.3750 C   0  0  0  0  0  0  0  0  0  0  0  0
   20.5968  -19.4032  -16.4389 C   0  0  0  0  0  0  0  0  0  0  0  0
   19.4132  -21.4900  -11.8760 O   0  0  0  0  0  0  0  0  0  0  0  0
  2  1  1  6
  3  2  1  0
  3  4  1  0
  5  4  1  0
  6  5  1  0
  7  6  1  0
  8  2  1  0
  8  9  2  0
 11 10  1  1
 11 13  1  0
 12 11  1  0
 14 13  1  1
 14 15  1  0
 15  8  1  0
 16 14  1  0
 17 16  2  0
 19 18  1  0
 20 19  2  0
 21 20  1  0
 22 28  1  0
 22 21  2  0
 23 22  1  0
 24 23  1  6
 24 25  1  0
 25 16  1  0
 26 24  1  0
 27 26  1  0
 28 29  2  0
 29 19  1  0
 30 26  2  0
M  END
$$$$
