KLY.pdb
     RDKit          3D

 30 30  0  0  1  0  0  0  0  0999 V2000
   27.6989  -19.9420  -14.4218 N   0  0  0  0  0  0  0  0  0  0  0  0
   26.3640  -20.5492  -14.5833 C   0  0  1  0  0  0  0  0  0  0  0  0
   26.4189  -21.2198  -15.9357 C   0  0  0  0  0  0  0  0  0  0  0  0
   26.6969  -20.2465  -17.0183 C   0  0  0  0  0  0  0  0  0  0  0  0
   25.5338  -20.1516  -18.0052 C   0  0  0  0  0  0  0  0  0  0  0  0
   25.8448  -19.1617  -19.0805 C   0  0  0  0  0  0  0  0  0  0  0  0
   24.6469  -19.0669  -19.9335 N   0  0  0  0  0  0  0  0  0  0  0  0
   26.1198  -21.5358  -13.5293 C   0  0  0  0  0  0  0  0  0  0  0  0
   25.8361  -22.7360  -13.7439 O   0  0  0  0  0  0  0  0  0  0  0  0
   26.2774  -19.1345   -9.4669 C   0  0  0  0  0  0  0  0  0  0  0  0
   26.6864  -20.6253   -9.3490 C   0  0  1  0  0  0  0  0  0  0  0  0
   26.9987  -20.8427   -7.8603 C   0  0  0  0  0  0  0  0  0  0  0  0
   25.5470  -21.4922   -9.7322 C   0  0  0  0  0  0  0  0  0  0  0  0
   25.2828  -21.7075  -11.1755 C   0  0  2  0  0  0  0  0  0  0  0  0
   26.1907  -21.1817  -12.1225 N   0  0  0  0  0  0  0  0  0  0  0  0
   23.8600  -21.3177  -11.4191 C   0  0  0  0  0  0  0  0  0  0  0  0
   23.3001  -20.7240  -10.4392 O   0  0  0  0  0  0  0  0  0  0  0  0
   17.0491  -16.8379  -13.7255 O   0  0  0  0  0  0  0  0  0  0  0  0
   18.2325  -17.4975  -13.4731 C   0  0  0  0  0  0  0  0  0  0  0  0
   18.4292  -18.0926  -12.2320 C   0  0  0  0  0  0  0  0  0  0  0  0
   19.6280  -18.7548  -11.9898 C   0  0  0  0  0  0  0  0  0  0  0  0
   20.6128  -18.8307  -12.9477 C   0  0  0  0  0  0  0  0  0  0  0  0
   21.8784  -19.5316  -12.6728 C   0  0  0  0  0  0  0  0  0  0  0  0
   21.8194  -21.0136  -12.8353 C   0  0  2  0  0  0  0  0  0  0  0  0
   23.1565  -21.5655  -12.6155 N   0  0  0  0  0  0  0  0  0  0  0  0
   21.3161  -21.4695  -14.1343 C   0  0  0  0  0  0  0  0  0  0  0  0
   19.9584  -21.6612  -14.3133 O   0  0  0  0  0  0  0  0  0  0  0  0
   20.4231  -18.2368  -14.1947 C   0  0  0  0  0  0  0  0  0  0  0  0
   19.2277  -17.5808  -14.4255 C   0  0  0  0  0  0  0  0  0  0  0  0
   22.0716  -21.7057  -15.1291 O   0  0  0  0  0  0  0  0  0  0  0  0
  2  1  1  1
  3  2  1  0
  3  4  1  0
  5  4  1  0
  6  5  1  0
  7  6  1  0
  8  2  1  0
  8  9  2  0
 11 10  1  1
 11 13  1  0
 12 11  1  0
 14 13  1  1
 14 15  1  0
 15  8  1  0
 16 14  1  0
 17 16  2  0
 19 18  1  0
 20 19  2  0
 21 20  1  0
 22 28  1  0
 22 21  2  0
 23 22  1  0
 24 23  1  6
 24 25  1  0
 25 16  1  0
 26 24  1  0
 27 26  1  0
 28 29  2  0
 29 19  1  0
 30 26  2  0
M  END
$$$$
