KLY.pdb
     RDKit          3D

 30 30  0  0  1  0  0  0  0  0999 V2000
   24.1408  -25.7104  -16.8195 N   0  0  0  0  0  0  0  0  0  0  0  0
   23.4996  -24.6064  -16.0801 C   0  0  1  0  0  0  0  0  0  0  0  0
   23.3562  -25.1328  -14.6716 C   0  0  0  0  0  0  0  0  0  0  0  0
   22.4603  -26.3122  -14.6167 C   0  0  0  0  0  0  0  0  0  0  0  0
   22.1933  -26.7525  -13.1777 C   0  0  0  0  0  0  0  0  0  0  0  0
   21.2031  -27.8714  -13.1523 C   0  0  0  0  0  0  0  0  0  0  0  0
   19.9197  -27.2963  -12.7122 N   0  0  0  0  0  0  0  0  0  0  0  0
   24.3506  -23.4152  -16.1000 C   0  0  0  0  0  0  0  0  0  0  0  0
   24.1742  -22.4146  -15.3686 O   0  0  0  0  0  0  0  0  0  0  0  0
   29.8521  -23.2427  -18.0525 C   0  0  0  0  0  0  0  0  0  0  0  0
   28.4876  -23.3680  -17.3270 C   0  0  1  0  0  0  0  0  0  0  0  0
   28.8203  -23.3155  -15.8278 C   0  0  0  0  0  0  0  0  0  0  0  0
   27.6271  -22.2108  -17.6688 C   0  0  0  0  0  0  0  0  0  0  0  0
   26.2773  -22.1351  -17.0593 C   0  0  2  0  0  0  0  0  0  0  0  0
   25.4899  -23.3071  -16.9944 N   0  0  0  0  0  0  0  0  0  0  0  0
   25.5811  -20.9717  -17.6896 C   0  0  0  0  0  0  0  0  0  0  0  0
   24.9959  -21.2398  -18.7904 O   0  0  0  0  0  0  0  0  0  0  0  0
   20.0302  -20.7074  -14.1454 O   0  0  0  0  0  0  0  0  0  0  0  0
   21.0153  -19.9996  -14.7995 C   0  0  0  0  0  0  0  0  0  0  0  0
   22.2286  -19.7713  -14.1599 C   0  0  0  0  0  0  0  0  0  0  0  0
   23.2142  -19.0551  -14.8306 C   0  0  0  0  0  0  0  0  0  0  0  0
   23.0117  -18.5738  -16.1037 C   0  0  0  0  0  0  0  0  0  0  0  0
   24.0644  -17.8131  -16.7976 C   0  0  0  0  0  0  0  0  0  0  0  0
   24.8253  -18.5897  -17.8195 C   0  0  2  0  0  0  0  0  0  0  0  0
   25.5481  -19.6703  -17.1483 N   0  0  0  0  0  0  0  0  0  0  0  0
   25.7687  -17.7987  -18.6150 C   0  0  0  0  0  0  0  0  0  0  0  0
   25.2897  -16.8902  -19.5409 O   0  0  0  0  0  0  0  0  0  0  0  0
   21.7980  -18.7989  -16.7518 C   0  0  0  0  0  0  0  0  0  0  0  0
   20.8244  -19.5119  -16.0763 C   0  0  0  0  0  0  0  0  0  0  0  0
   27.0308  -17.9016  -18.5024 O   0  0  0  0  0  0  0  0  0  0  0  0
  2  1  1  6
  3  2  1  0
  3  4  1  0
  5  4  1  0
  6  5  1  0
  7  6  1  0
  8  2  1  0
  8  9  2  0
 11 10  1  6
 11 13  1  0
 12 11  1  0
 14 13  1  6
 14 15  1  0
 15  8  1  0
 16 14  1  0
 17 16  2  0
 19 18  1  0
 20 19  2  0
 21 20  1  0
 22 28  1  0
 22 21  2  0
 23 22  1  0
 24 23  1  1
 24 25  1  0
 25 16  1  0
 26 24  1  0
 27 26  1  0
 28 29  2  0
 29 19  1  0
 30 26  2  0
M  END
$$$$
