KLY.pdb
     RDKit          3D

 30 30  0  0  1  0  0  0  0  0999 V2000
   24.9357  -19.8683  -17.9270 N   0  0  0  0  0  0  0  0  0  0  0  0
   24.2138  -19.6769  -16.6546 C   0  0  1  0  0  0  0  0  0  0  0  0
   22.7879  -20.0613  -16.9719 C   0  0  0  0  0  0  0  0  0  0  0  0
   22.1550  -19.0965  -17.9021 C   0  0  0  0  0  0  0  0  0  0  0  0
   20.9012  -18.4668  -17.2963 C   0  0  0  0  0  0  0  0  0  0  0  0
   20.2320  -17.5788  -18.2946 C   0  0  0  0  0  0  0  0  0  0  0  0
   20.8246  -16.2385  -18.1394 N   0  0  0  0  0  0  0  0  0  0  0  0
   24.7640  -20.5519  -15.6176 C   0  0  0  0  0  0  0  0  0  0  0  0
   24.4757  -21.7641  -15.4970 O   0  0  0  0  0  0  0  0  0  0  0  0
   29.8276  -19.7359  -13.0673 C   0  0  0  0  0  0  0  0  0  0  0  0
   28.5800  -20.1377  -13.8956 C   0  0  1  0  0  0  0  0  0  0  0  0
   29.0412  -21.3059  -14.7808 C   0  0  0  0  0  0  0  0  0  0  0  0
   27.5072  -20.6150  -12.9912 C   0  0  0  0  0  0  0  0  0  0  0  0
   26.1667  -20.8766  -13.5688 C   0  0  2  0  0  0  0  0  0  0  0  0
   25.7080  -20.0618  -14.6286 N   0  0  0  0  0  0  0  0  0  0  0  0
   25.2116  -20.9739  -12.4224 C   0  0  0  0  0  0  0  0  0  0  0  0
   25.7647  -21.1638  -11.2892 O   0  0  0  0  0  0  0  0  0  0  0  0
   26.9920  -20.6839   -6.3878 O   0  0  0  0  0  0  0  0  0  0  0  0
   26.0993  -20.4268   -7.4057 C   0  0  0  0  0  0  0  0  0  0  0  0
   26.1173  -19.1843   -8.0295 C   0  0  0  0  0  0  0  0  0  0  0  0
   25.2109  -18.9373   -9.0550 C   0  0  0  0  0  0  0  0  0  0  0  0
   24.3060  -19.8918   -9.4592 C   0  0  0  0  0  0  0  0  0  0  0  0
   23.3498  -19.6117  -10.5436 C   0  0  0  0  0  0  0  0  0  0  0  0
   22.9562  -20.8025  -11.3519 C   0  0  2  0  0  0  0  0  0  0  0  0
   23.8103  -20.8704  -12.5379 N   0  0  0  0  0  0  0  0  0  0  0  0
   21.5506  -20.8260  -11.7668 C   0  0  0  0  0  0  0  0  0  0  0  0
   20.5657  -21.0907  -10.8331 O   0  0  0  0  0  0  0  0  0  0  0  0
   24.2820  -21.1401   -8.8390 C   0  0  0  0  0  0  0  0  0  0  0  0
   25.1871  -21.3757   -7.8203 C   0  0  0  0  0  0  0  0  0  0  0  0
   21.1746  -20.6134  -12.9625 O   0  0  0  0  0  0  0  0  0  0  0  0
  2  1  1  6
  3  2  1  0
  3  4  1  0
  5  4  1  0
  6  5  1  0
  7  6  1  0
  8  2  1  0
  8  9  2  0
 11 10  1  1
 11 13  1  0
 12 11  1  0
 14 13  1  1
 14 15  1  0
 15  8  1  0
 16 14  1  0
 17 16  2  0
 19 18  1  0
 20 19  2  0
 21 20  1  0
 22 28  1  0
 22 21  2  0
 23 22  1  0
 24 23  1  6
 24 25  1  0
 25 16  1  0
 26 24  1  0
 27 26  1  0
 28 29  2  0
 29 19  1  0
 30 26  2  0
M  END
$$$$
