KLY.pdb
     RDKit          3D

 30 30  0  0  1  0  0  0  0  0999 V2000
   27.2709  -23.2091  -17.4349 N   0  0  0  0  0  0  0  0  0  0  0  0
   26.2697  -22.9977  -16.3719 C   0  0  1  0  0  0  0  0  0  0  0  0
   25.9701  -24.3863  -15.8586 C   0  0  0  0  0  0  0  0  0  0  0  0
   25.0911  -25.1354  -16.7875 C   0  0  0  0  0  0  0  0  0  0  0  0
   23.6750  -25.2814  -16.2314 C   0  0  0  0  0  0  0  0  0  0  0  0
   23.1966  -26.6879  -16.3920 C   0  0  0  0  0  0  0  0  0  0  0  0
   22.8715  -26.8685  -17.8179 N   0  0  0  0  0  0  0  0  0  0  0  0
   26.8251  -22.1633  -15.3047 C   0  0  0  0  0  0  0  0  0  0  0  0
   27.9509  -22.3430  -14.7875 O   0  0  0  0  0  0  0  0  0  0  0  0
   27.3025  -18.3833  -15.9411 C   0  0  0  0  0  0  0  0  0  0  0  0
   27.3829  -18.0075  -14.4391 C   0  0  1  0  0  0  0  0  0  0  0  0
   26.9648  -16.5306  -14.3686 C   0  0  0  0  0  0  0  0  0  0  0  0
   26.4139  -18.8183  -13.6642 C   0  0  0  0  0  0  0  0  0  0  0  0
   26.5775  -20.2922  -13.6589 C   0  0  2  0  0  0  0  0  0  0  0  0
   26.0888  -21.0382  -14.7554 N   0  0  0  0  0  0  0  0  0  0  0  0
   26.0915  -20.7780  -12.3310 C   0  0  0  0  0  0  0  0  0  0  0  0
   24.8604  -21.1096  -12.3085 O   0  0  0  0  0  0  0  0  0  0  0  0
   27.5497  -18.5367   -4.2591 O   0  0  0  0  0  0  0  0  0  0  0  0
   27.5196  -19.2989   -5.4069 C   0  0  0  0  0  0  0  0  0  0  0  0
   28.2591  -18.8943   -6.5126 C   0  0  0  0  0  0  0  0  0  0  0  0
   28.2198  -19.6720   -7.6650 C   0  0  0  0  0  0  0  0  0  0  0  0
   27.4695  -20.8236   -7.7290 C   0  0  0  0  0  0  0  0  0  0  0  0
   27.4352  -21.6328   -8.9589 C   0  0  0  0  0  0  0  0  0  0  0  0
   26.3215  -21.2998   -9.8944 C   0  0  2  0  0  0  0  0  0  0  0  0
   26.8913  -20.8777  -11.1742 N   0  0  0  0  0  0  0  0  0  0  0  0
   25.4015  -20.2663   -9.4109 C   0  0  0  0  0  0  0  0  0  0  0  0
   25.6293  -18.9414   -9.7345 O   0  0  0  0  0  0  0  0  0  0  0  0
   26.7255  -21.2361   -6.6245 C   0  0  0  0  0  0  0  0  0  0  0  0
   26.7712  -20.4559   -5.4836 C   0  0  0  0  0  0  0  0  0  0  0  0
   24.3831  -20.5216   -8.6940 O   0  0  0  0  0  0  0  0  0  0  0  0
  2  1  1  6
  3  2  1  0
  3  4  1  0
  5  4  1  0
  6  5  1  0
  7  6  1  0
  8  2  1  0
  8  9  2  0
 11 10  1  6
 11 13  1  0
 12 11  1  0
 14 13  1  6
 14 15  1  0
 15  8  1  0
 16 14  1  0
 17 16  2  0
 19 18  1  0
 20 19  2  0
 21 20  1  0
 22 28  1  0
 22 21  2  0
 23 22  1  0
 24 23  1  1
 24 25  1  0
 25 16  1  0
 26 24  1  0
 27 26  1  0
 28 29  2  0
 29 19  1  0
 30 26  2  0
M  END
$$$$
