KLY.pdb
     RDKit          3D

 30 30  0  0  1  0  0  0  0  0999 V2000
   25.1932  -30.9322  -19.7421 N   0  0  0  0  0  0  0  0  0  0  0  0
   25.8392  -30.0464  -18.7548 C   0  0  1  0  0  0  0  0  0  0  0  0
   27.2839  -30.4872  -18.7452 C   0  0  0  0  0  0  0  0  0  0  0  0
   27.4383  -31.8441  -18.1693 C   0  0  0  0  0  0  0  0  0  0  0  0
   27.5241  -31.8041  -16.6439 C   0  0  0  0  0  0  0  0  0  0  0  0
   28.7944  -32.4387  -16.1786 C   0  0  0  0  0  0  0  0  0  0  0  0
   28.8303  -32.2978  -14.7121 N   0  0  0  0  0  0  0  0  0  0  0  0
   25.7307  -28.6478  -19.1742 C   0  0  0  0  0  0  0  0  0  0  0  0
   26.2623  -27.6903  -18.5678 O   0  0  0  0  0  0  0  0  0  0  0  0
   26.7445  -26.5912  -24.1732 C   0  0  0  0  0  0  0  0  0  0  0  0
   26.6346  -26.8609  -22.6503 C   0  0  1  0  0  0  0  0  0  0  0  0
   27.5827  -25.8476  -21.9906 C   0  0  0  0  0  0  0  0  0  0  0  0
   25.2512  -26.5944  -22.1900 C   0  0  0  0  0  0  0  0  0  0  0  0
   24.9041  -26.9179  -20.7850 C   0  0  2  0  0  0  0  0  0  0  0  0
   24.9778  -28.2622  -20.3549 N   0  0  0  0  0  0  0  0  0  0  0  0
   23.5910  -26.2620  -20.5003 C   0  0  0  0  0  0  0  0  0  0  0  0
   22.5726  -26.9832  -20.7628 O   0  0  0  0  0  0  0  0  0  0  0  0
   16.0960  -23.4907  -17.8003 O   0  0  0  0  0  0  0  0  0  0  0  0
   17.3781  -23.9224  -18.0627 C   0  0  0  0  0  0  0  0  0  0  0  0
   17.7083  -24.3334  -19.3493 C   0  0  0  0  0  0  0  0  0  0  0  0
   19.0055  -24.7674  -19.6008 C   0  0  0  0  0  0  0  0  0  0  0  0
   19.9583  -24.7964  -18.6086 C   0  0  0  0  0  0  0  0  0  0  0  0
   21.3260  -25.2635  -18.8911 C   0  0  0  0  0  0  0  0  0  0  0  0
   22.1192  -24.3691  -19.7839 C   0  0  2  0  0  0  0  0  0  0  0  0
   23.4435  -24.9580  -19.9850 N   0  0  0  0  0  0  0  0  0  0  0  0
   22.2705  -22.9943  -19.2987 C   0  0  0  0  0  0  0  0  0  0  0  0
   21.2079  -22.1144  -19.3926 O   0  0  0  0  0  0  0  0  0  0  0  0
   19.6351  -24.3856  -17.3161 C   0  0  0  0  0  0  0  0  0  0  0  0
   18.3426  -23.9560  -17.0762 C   0  0  0  0  0  0  0  0  0  0  0  0
   23.3463  -22.5521  -18.7856 O   0  0  0  0  0  0  0  0  0  0  0  0
  2  1  1  6
  3  2  1  0
  3  4  1  0
  5  4  1  0
  6  5  1  0
  7  6  1  0
  8  2  1  0
  8  9  2  0
 11 10  1  6
 11 13  1  0
 12 11  1  0
 14 13  1  6
 14 15  1  0
 15  8  1  0
 16 14  1  0
 17 16  2  0
 19 18  1  0
 20 19  2  0
 21 20  1  0
 22 28  1  0
 22 21  2  0
 23 22  1  0
 24 23  1  1
 24 25  1  0
 25 16  1  0
 26 24  1  0
 27 26  1  0
 28 29  2  0
 29 19  1  0
 30 26  2  0
M  END
$$$$
