MAS.pdb
     RDKit          3D

 20 19  0  0  1  0  0  0  0  0999 V2000
   27.8128  -12.9375  -14.8071 C   0  0  0  0  0  0  0  0  0  0  0  0
   27.5929  -14.2933  -15.9715 S   0  0  0  0  0  0  0  0  0  0  0  0
   27.6799  -13.7186  -17.6662 C   0  0  0  0  0  0  0  0  0  0  0  0
   26.5647  -12.6951  -17.8974 C   0  0  0  0  0  0  0  0  0  0  0  0
   25.2189  -13.3842  -17.9702 C   0  0  2  0  0  0  0  0  0  0  0  0
   25.1853  -14.1453  -19.2046 N   0  0  0  0  0  0  0  0  0  0  0  0
   24.0849  -12.4629  -17.9396 C   0  0  0  0  0  0  0  0  0  0  0  0
   23.9120  -11.6112  -18.8541 O   0  0  0  0  0  0  0  0  0  0  0  0
   20.9463  -12.1993  -15.9450 C   0  0  0  0  0  0  0  0  0  0  0  0
   21.9586  -11.5574  -16.9086 C   0  0  2  0  0  0  0  0  0  0  0  0
   23.0999  -12.4508  -16.8964 N   0  0  0  0  0  0  0  0  0  0  0  0
   22.3070  -10.1947  -16.4689 C   0  0  0  0  0  0  0  0  0  0  0  0
   23.1652  -10.0533  -15.5598 O   0  0  0  0  0  0  0  0  0  0  0  0
   20.1407   -6.9644  -17.7624 O   0  0  0  0  0  0  0  0  0  0  0  0
   21.4900   -6.7179  -17.5627 C   0  0  0  0  0  0  0  0  0  0  0  0
   22.0778   -7.6850  -16.5264 C   0  0  2  0  0  0  0  0  0  0  0  0
   21.7389   -9.0210  -17.0020 N   0  0  0  0  0  0  0  0  0  0  0  0
   21.4067   -7.3914  -15.2337 C   0  0  0  0  0  0  0  0  0  0  0  0
   21.7939   -6.2621  -14.5468 O   0  0  0  0  0  0  0  0  0  0  0  0
   20.5203   -8.1120  -14.7491 O   0  0  0  0  0  0  0  0  0  0  0  0
  2  1  1  0
  3  4  1  0
  3  2  1  0
  5  6  1  6
  5  4  1  0
  7  5  1  0
  7  8  2  0
 10  9  1  1
 10 11  1  0
 10 12  1  0
 11  7  1  0
 12 17  1  0
 13 12  2  0
 14 15  1  0
 16 15  1  6
 16 18  1  0
 17 16  1  0
 18 20  2  0
 18 19  1  0
M  END
$$$$
