MAS.pdb
     RDKit          3D

 20 19  0  0  1  0  0  0  0  0999 V2000
   27.0073  -19.2534   -6.8046 C   0  0  0  0  0  0  0  0  0  0  0  0
   27.2555  -20.8639   -7.5710 S   0  0  0  0  0  0  0  0  0  0  0  0
   25.9379  -21.2485   -8.7225 C   0  0  0  0  0  0  0  0  0  0  0  0
   26.0042  -20.2647   -9.8939 C   0  0  0  0  0  0  0  0  0  0  0  0
   26.6936  -20.9004  -11.0822 C   0  0  2  0  0  0  0  0  0  0  0  0
   27.9930  -21.3648  -10.6349 N   0  0  0  0  0  0  0  0  0  0  0  0
   26.8683  -19.9931  -12.2145 C   0  0  0  0  0  0  0  0  0  0  0  0
   27.4671  -18.8908  -12.0803 O   0  0  0  0  0  0  0  0  0  0  0  0
   27.4952  -20.0618  -15.6192 C   0  0  0  0  0  0  0  0  0  0  0  0
   26.5493  -19.3462  -14.6401 C   0  0  2  0  0  0  0  0  0  0  0  0
   26.3875  -20.2726  -13.5371 N   0  0  0  0  0  0  0  0  0  0  0  0
   25.2689  -19.0215  -15.2935 C   0  0  0  0  0  0  0  0  0  0  0  0
   24.4591  -19.9537  -15.5344 O   0  0  0  0  0  0  0  0  0  0  0  0
   24.2480  -15.1563  -15.8395 O   0  0  0  0  0  0  0  0  0  0  0  0
   23.1881  -16.0484  -15.7949 C   0  0  0  0  0  0  0  0  0  0  0  0
   23.6079  -17.4275  -16.3207 C   0  0  2  0  0  0  0  0  0  0  0  0
   24.8811  -17.7216  -15.6735 N   0  0  0  0  0  0  0  0  0  0  0  0
   23.7735  -17.2959  -17.7913 C   0  0  0  0  0  0  0  0  0  0  0  0
   22.6388  -17.1523  -18.5587 O   0  0  0  0  0  0  0  0  0  0  0  0
   24.8791  -17.3094  -18.3547 O   0  0  0  0  0  0  0  0  0  0  0  0
  2  1  1  0
  3  4  1  0
  3  2  1  0
  5  6  1  1
  5  4  1  0
  7  5  1  0
  7  8  2  0
 10  9  1  6
 10 11  1  0
 10 12  1  0
 11  7  1  0
 12 17  1  0
 13 12  2  0
 14 15  1  0
 16 15  1  1
 16 18  1  0
 17 16  1  0
 18 20  2  0
 18 19  1  0
M  END
$$$$
