MAS.pdb
     RDKit          3D

 20 19  0  0  1  0  0  0  0  0999 V2000
   27.0290  -15.4886  -14.7747 C   0  0  0  0  0  0  0  0  0  0  0  0
   26.4069  -13.8518  -15.1951 S   0  0  0  0  0  0  0  0  0  0  0  0
   24.7466  -13.9365  -15.8628 C   0  0  0  0  0  0  0  0  0  0  0  0
   24.2613  -12.5147  -16.1590 C   0  0  0  0  0  0  0  0  0  0  0  0
   22.8306  -12.5346  -16.6529 C   0  0  2  0  0  0  0  0  0  0  0  0
   22.8262  -13.1852  -17.9494 N   0  0  0  0  0  0  0  0  0  0  0  0
   22.2334  -11.2065  -16.7767 C   0  0  0  0  0  0  0  0  0  0  0  0
   22.5510  -10.4346  -17.7227 O   0  0  0  0  0  0  0  0  0  0  0  0
   19.3614   -9.4089  -15.2532 C   0  0  0  0  0  0  0  0  0  0  0  0
   20.7191   -9.3452  -15.9730 C   0  0  2  0  0  0  0  0  0  0  0  0
   21.2623  -10.6842  -15.8588 N   0  0  0  0  0  0  0  0  0  0  0  0
   21.5910   -8.3304  -15.3553 C   0  0  0  0  0  0  0  0  0  0  0  0
   22.2665   -8.6488  -14.3428 O   0  0  0  0  0  0  0  0  0  0  0  0
   23.4098   -3.8024  -15.6763 O   0  0  0  0  0  0  0  0  0  0  0  0
   22.6083   -4.8220  -16.1656 C   0  0  0  0  0  0  0  0  0  0  0  0
   22.6493   -6.0454  -15.2402 C   0  0  2  0  0  0  0  0  0  0  0  0
   21.7241   -7.0090  -15.8249 N   0  0  0  0  0  0  0  0  0  0  0  0
   22.1772   -5.5926  -13.9061 C   0  0  0  0  0  0  0  0  0  0  0  0
   23.1225   -5.1884  -12.9895 O   0  0  0  0  0  0  0  0  0  0  0  0
   20.9795   -5.5623  -13.5832 O   0  0  0  0  0  0  0  0  0  0  0  0
  2  1  1  0
  3  4  1  0
  3  2  1  0
  5  6  1  6
  5  4  1  0
  7  5  1  0
  7  8  2  0
 10  9  1  1
 10 11  1  0
 10 12  1  0
 11  7  1  0
 12 17  1  0
 13 12  2  0
 14 15  1  0
 16 15  1  6
 16 18  1  0
 17 16  1  0
 18 20  2  0
 18 19  1  0
M  END
$$$$
