MAS.pdb
     RDKit          3D

 20 19  0  0  1  0  0  0  0  0999 V2000
   29.6513  -20.1067   -7.3209 C   0  0  0  0  0  0  0  0  0  0  0  0
   28.4662  -19.5780   -6.0724 S   0  0  0  0  0  0  0  0  0  0  0  0
   26.8119  -19.4629   -6.7503 C   0  0  0  0  0  0  0  0  0  0  0  0
   26.7411  -20.3096   -8.0242 C   0  0  0  0  0  0  0  0  0  0  0  0
   25.3958  -20.1431   -8.6979 C   0  0  2  0  0  0  0  0  0  0  0  0
   24.3970  -20.7355   -7.8286 N   0  0  0  0  0  0  0  0  0  0  0  0
   25.3186  -20.7662  -10.0175 C   0  0  0  0  0  0  0  0  0  0  0  0
   26.3046  -21.3837  -10.5056 O   0  0  0  0  0  0  0  0  0  0  0  0
   22.6314  -21.3118  -12.5685 C   0  0  0  0  0  0  0  0  0  0  0  0
   24.1211  -21.2753  -12.1878 C   0  0  2  0  0  0  0  0  0  0  0  0
   24.1473  -20.7295  -10.8453 N   0  0  0  0  0  0  0  0  0  0  0  0
   24.8847  -20.4536  -13.1436 C   0  0  0  0  0  0  0  0  0  0  0  0
   24.6236  -19.2259  -13.2293 O   0  0  0  0  0  0  0  0  0  0  0  0
   27.8343  -22.1350  -15.4731 O   0  0  0  0  0  0  0  0  0  0  0  0
   28.0047  -20.8127  -15.0939 C   0  0  0  0  0  0  0  0  0  0  0  0
   26.6505  -20.1147  -14.9104 C   0  0  2  0  0  0  0  0  0  0  0  0
   25.9018  -20.9525  -13.9809 N   0  0  0  0  0  0  0  0  0  0  0  0
   25.9982  -20.0819  -16.2449 C   0  0  0  0  0  0  0  0  0  0  0  0
   24.9633  -20.9598  -16.4797 O   0  0  0  0  0  0  0  0  0  0  0  0
   26.3412  -19.3054  -17.1501 O   0  0  0  0  0  0  0  0  0  0  0  0
  2  1  1  0
  3  4  1  0
  3  2  1  0
  5  6  1  1
  5  4  1  0
  7  5  1  0
  7  8  2  0
 10  9  1  6
 10 11  1  0
 10 12  1  0
 11  7  1  0
 12 17  1  0
 13 12  2  0
 14 15  1  0
 16 15  1  6
 16 18  1  0
 17 16  1  0
 18 20  2  0
 18 19  1  0
M  END
$$$$
