MAS.pdb
     RDKit          3D

 20 19  0  0  1  0  0  0  0  0999 V2000
   29.5776  -20.3101   -5.4252 C   0  0  0  0  0  0  0  0  0  0  0  0
   28.0492  -19.5210   -4.8923 S   0  0  0  0  0  0  0  0  0  0  0  0
   26.7119  -19.8478   -6.0389 C   0  0  0  0  0  0  0  0  0  0  0  0
   27.3081  -20.1853   -7.4083 C   0  0  0  0  0  0  0  0  0  0  0  0
   26.2472  -20.0997   -8.4845 C   0  0  2  0  0  0  0  0  0  0  0  0
   25.1016  -20.8641   -8.0289 N   0  0  0  0  0  0  0  0  0  0  0  0
   26.6840  -20.6109   -9.7820 C   0  0  0  0  0  0  0  0  0  0  0  0
   27.8953  -20.5550  -10.1304 O   0  0  0  0  0  0  0  0  0  0  0  0
   26.8375  -21.7661  -12.7924 C   0  0  0  0  0  0  0  0  0  0  0  0
   25.8008  -20.8340  -12.1429 C   0  0  2  0  0  0  0  0  0  0  0  0
   25.7968  -21.2035  -10.7414 N   0  0  0  0  0  0  0  0  0  0  0  0
   24.4791  -21.0033  -12.7724 C   0  0  0  0  0  0  0  0  0  0  0  0
   24.4006  -20.9876  -14.0280 O   0  0  0  0  0  0  0  0  0  0  0  0
   21.2943  -20.6812  -10.4725 O   0  0  0  0  0  0  0  0  0  0  0  0
   20.9651  -21.4718  -11.5625 C   0  0  0  0  0  0  0  0  0  0  0  0
   21.9749  -21.2838  -12.7026 C   0  0  2  0  0  0  0  0  0  0  0  0
   23.2788  -21.1842  -12.0575 N   0  0  0  0  0  0  0  0  0  0  0  0
   21.6193  -20.0146  -13.3883 C   0  0  0  0  0  0  0  0  0  0  0  0
   20.4945  -20.0032  -14.1832 O   0  0  0  0  0  0  0  0  0  0  0  0
   22.2846  -18.9730  -13.2780 O   0  0  0  0  0  0  0  0  0  0  0  0
  2  1  1  0
  3  4  1  0
  3  2  1  0
  5  6  1  1
  5  4  1  0
  7  5  1  0
  7  8  2  0
 10  9  1  6
 10 11  1  0
 10 12  1  0
 11  7  1  0
 12 17  1  0
 13 12  2  0
 14 15  1  0
 16 15  1  1
 16 18  1  0
 17 16  1  0
 18 20  2  0
 18 19  1  0
M  END
$$$$
