LGQ.pdb
     RDKit          3D

 22 21  0  0  1  0  0  0  0  0999 V2000
    5.0503  -12.3282   25.5645 C   0  0  0  0  0  0  0  0  0  0  0  0
    6.2720  -12.9810   26.1706 C   0  0  2  0  0  0  0  0  0  0  0  0
    6.5876  -12.2745   27.4580 C   0  0  0  0  0  0  0  0  0  0  0  0
    7.4336  -12.9975   25.2315 C   0  0  0  0  0  0  0  0  0  0  0  0
    7.1643  -14.0007   24.1312 C   0  0  2  0  0  0  0  0  0  0  0  0
    6.4465  -15.1159   24.7120 N   0  0  0  0  0  0  0  0  0  0  0  0
    8.4557  -14.5395   23.5816 C   0  0  0  0  0  0  0  0  0  0  0  0
    9.3992  -13.7646   23.2543 O   0  0  0  0  0  0  0  0  0  0  0  0
    8.6543  -15.9371   23.4135 N   0  0  0  0  0  0  0  0  0  0  0  0
    9.8086  -16.5405   22.7990 C   0  0  0  0  0  0  0  0  0  0  0  0
   10.8811  -16.9184   23.7167 C   0  0  0  0  0  0  0  0  0  0  0  0
   12.0223  -17.2743   23.2562 O   0  0  0  0  0  0  0  0  0  0  0  0
   10.7884  -13.5833   28.9546 N   0  0  0  0  0  0  0  0  0  0  0  0
   10.8336  -14.9943   28.7530 C   0  0  0  0  0  0  0  0  0  0  0  0
   10.8044  -15.7032   29.7738 O   0  0  0  0  0  0  0  0  0  0  0  0
   10.9118  -15.6119   27.4270 C   0  0  0  0  0  0  0  0  0  0  0  0
   11.8644  -16.7686   27.3208 C   0  0  0  0  0  0  0  0  0  0  0  0
   11.9088  -17.4167   25.9744 C   0  0  2  0  0  0  0  0  0  0  0  0
   10.8015  -16.9405   25.1295 N   0  0  0  0  0  0  0  0  0  0  0  0
   11.7462  -18.8889   26.0383 C   0  0  0  0  0  0  0  0  0  0  0  0
   12.7077  -19.7443   26.6117 O   0  0  0  0  0  0  0  0  0  0  0  0
   10.7348  -19.4882   25.5844 O   0  0  0  0  0  0  0  0  0  0  0  0
  2  3  1  1
  2  1  1  0
  4  2  1  0
  4  5  1  0
  5  6  1  1
  7  5  1  0
  7  9  1  0
  8  7  2  0
 10  9  1  0
 10 11  1  0
 11 19  1  0
 12 11  2  0
 13 14  1  0
 14 15  2  0
 16 14  1  0
 16 17  1  0
 18 17  1  1
 18 20  1  0
 19 18  1  0
 20 22  2  0
 20 21  1  0
M  END
$$$$
