LGQ.pdb
     RDKit          3D

 22 21  0  0  1  0  0  0  0  0999 V2000
    4.8977  -13.0979   25.7940 C   0  0  0  0  0  0  0  0  0  0  0  0
    6.3590  -13.4657   25.6711 C   0  0  2  0  0  0  0  0  0  0  0  0
    7.1051  -12.7903   26.7861 C   0  0  0  0  0  0  0  0  0  0  0  0
    6.9193  -13.1306   24.3274 C   0  0  0  0  0  0  0  0  0  0  0  0
    7.0303  -14.3985   23.5090 C   0  0  2  0  0  0  0  0  0  0  0  0
    6.3026  -15.4407   24.2024 N   0  0  0  0  0  0  0  0  0  0  0  0
    8.4637  -14.8421   23.4162 C   0  0  0  0  0  0  0  0  0  0  0  0
    9.3822  -14.0241   23.1246 O   0  0  0  0  0  0  0  0  0  0  0  0
    8.8292  -16.1952   23.6538 N   0  0  0  0  0  0  0  0  0  0  0  0
   10.1139  -16.7706   23.3498 C   0  0  0  0  0  0  0  0  0  0  0  0
   10.9875  -16.9954   24.4994 C   0  0  0  0  0  0  0  0  0  0  0  0
   12.2257  -17.2697   24.3189 O   0  0  0  0  0  0  0  0  0  0  0  0
   11.1430  -14.4341   30.1763 N   0  0  0  0  0  0  0  0  0  0  0  0
   10.9403  -14.0606   28.8151 C   0  0  0  0  0  0  0  0  0  0  0  0
   10.6095  -12.8807   28.6054 O   0  0  0  0  0  0  0  0  0  0  0  0
   11.1031  -14.9918   27.6961 C   0  0  0  0  0  0  0  0  0  0  0  0
   11.4454  -16.4010   28.0877 C   0  0  0  0  0  0  0  0  0  0  0  0
   11.5022  -17.3674   26.9486 C   0  0  2  0  0  0  0  0  0  0  0  0
   10.6048  -16.9448   25.8609 N   0  0  0  0  0  0  0  0  0  0  0  0
   11.0473  -18.7275   27.3240 C   0  0  0  0  0  0  0  0  0  0  0  0
   11.7534  -19.5542   28.2202 O   0  0  0  0  0  0  0  0  0  0  0  0
    9.9935  -19.2487   26.8701 O   0  0  0  0  0  0  0  0  0  0  0  0
  2  3  1  1
  2  1  1  0
  4  2  1  0
  4  5  1  0
  5  6  1  1
  7  5  1  0
  7  9  1  0
  8  7  2  0
 10  9  1  0
 10 11  1  0
 11 19  1  0
 12 11  2  0
 13 14  1  0
 14 15  2  0
 16 14  1  0
 16 17  1  0
 18 17  1  1
 18 20  1  0
 19 18  1  0
 20 22  2  0
 20 21  1  0
M  END
$$$$
