LGQ.pdb
     RDKit          3D

 22 21  0  0  1  0  0  0  0  0999 V2000
    5.5950  -12.3103   25.8938 C   0  0  0  0  0  0  0  0  0  0  0  0
    6.9080  -13.0079   26.1681 C   0  0  2  0  0  0  0  0  0  0  0  0
    7.6071  -12.2680   27.2726 C   0  0  0  0  0  0  0  0  0  0  0  0
    7.7536  -13.1318   24.9428 C   0  0  0  0  0  0  0  0  0  0  0  0
    7.2628  -14.3037   24.1211 C   0  0  2  0  0  0  0  0  0  0  0  0
    6.6162  -15.2371   25.0195 N   0  0  0  0  0  0  0  0  0  0  0  0
    8.4199  -15.0243   23.4871 C   0  0  0  0  0  0  0  0  0  0  0  0
    9.3401  -14.3890   22.8975 O   0  0  0  0  0  0  0  0  0  0  0  0
    8.5139  -16.4421   23.5317 N   0  0  0  0  0  0  0  0  0  0  0  0
    9.6077  -17.2156   23.0033 C   0  0  0  0  0  0  0  0  0  0  0  0
   10.6441  -17.5756   23.9684 C   0  0  0  0  0  0  0  0  0  0  0  0
   11.6991  -18.1877   23.5769 O   0  0  0  0  0  0  0  0  0  0  0  0
   10.7523  -14.0985   28.0812 N   0  0  0  0  0  0  0  0  0  0  0  0
   10.6746  -15.2709   28.8892 C   0  0  0  0  0  0  0  0  0  0  0  0
   10.1511  -15.1408   30.0093 O   0  0  0  0  0  0  0  0  0  0  0  0
   11.1760  -16.5773   28.4557 C   0  0  0  0  0  0  0  0  0  0  0  0
   12.0148  -16.5536   27.2098 C   0  0  0  0  0  0  0  0  0  0  0  0
   11.7349  -17.6647   26.2497 C   0  0  2  0  0  0  0  0  0  0  0  0
   10.6161  -17.3152   25.3592 N   0  0  0  0  0  0  0  0  0  0  0  0
   11.3202  -18.9180   26.9244 C   0  0  0  0  0  0  0  0  0  0  0  0
   12.1938  -19.6910   27.7145 O   0  0  0  0  0  0  0  0  0  0  0  0
   10.1539  -19.3881   26.8428 O   0  0  0  0  0  0  0  0  0  0  0  0
  2  3  1  1
  2  1  1  0
  4  2  1  0
  4  5  1  0
  5  6  1  1
  7  5  1  0
  7  9  1  0
  8  7  2  0
 10  9  1  0
 10 11  1  0
 11 19  1  0
 12 11  2  0
 13 14  1  0
 14 15  2  0
 16 14  1  0
 16 17  1  0
 18 17  1  1
 18 20  1  0
 19 18  1  0
 20 22  2  0
 20 21  1  0
M  END
$$$$
