LGQ.pdb
     RDKit          3D

 22 21  0  0  1  0  0  0  0  0999 V2000
    7.0892  -13.3324   18.8085 C   0  0  0  0  0  0  0  0  0  0  0  0
    7.3796  -13.7553   20.2307 C   0  0  2  0  0  0  0  0  0  0  0  0
    7.3652  -12.5267   21.0945 C   0  0  0  0  0  0  0  0  0  0  0  0
    8.6589  -14.5178   20.3479 C   0  0  0  0  0  0  0  0  0  0  0  0
    8.5135  -15.5615   21.4338 C   0  0  2  0  0  0  0  0  0  0  0  0
    7.5517  -15.0694   22.3978 N   0  0  0  0  0  0  0  0  0  0  0  0
    9.8158  -15.7510   22.1604 C   0  0  0  0  0  0  0  0  0  0  0  0
   10.2016  -14.9235   23.0346 O   0  0  0  0  0  0  0  0  0  0  0  0
   10.6527  -16.8669   21.8860 N   0  0  0  0  0  0  0  0  0  0  0  0
   11.9915  -17.0400   22.3877 C   0  0  0  0  0  0  0  0  0  0  0  0
   12.1188  -17.0494   23.8433 C   0  0  0  0  0  0  0  0  0  0  0  0
   13.2619  -17.2515   24.3850 O   0  0  0  0  0  0  0  0  0  0  0  0
   10.4621  -13.5332   29.9969 N   0  0  0  0  0  0  0  0  0  0  0  0
   10.0292  -14.2059   28.8164 C   0  0  0  0  0  0  0  0  0  0  0  0
    9.0178  -13.7499   28.2555 O   0  0  0  0  0  0  0  0  0  0  0  0
   10.7146  -15.3771   28.2648 C   0  0  0  0  0  0  0  0  0  0  0  0
   10.6026  -15.5349   26.7751 C   0  0  0  0  0  0  0  0  0  0  0  0
   11.3138  -16.7270   26.2203 C   0  0  2  0  0  0  0  0  0  0  0  0
   11.0709  -16.8529   24.7739 N   0  0  0  0  0  0  0  0  0  0  0  0
   10.8427  -18.0039   26.8080 C   0  0  0  0  0  0  0  0  0  0  0  0
    9.9440  -18.8673   26.1508 O   0  0  0  0  0  0  0  0  0  0  0  0
   11.2102  -18.4150   27.9411 O   0  0  0  0  0  0  0  0  0  0  0  0
  2  3  1  1
  2  1  1  0
  4  2  1  0
  4  5  1  0
  5  6  1  1
  7  5  1  0
  7  9  1  0
  8  7  2  0
 10  9  1  0
 10 11  1  0
 11 19  1  0
 12 11  2  0
 13 14  1  0
 14 15  2  0
 16 14  1  0
 16 17  1  0
 18 17  1  1
 18 20  1  0
 19 18  1  0
 20 22  2  0
 20 21  1  0
M  END
$$$$
