LGQ.pdb
     RDKit          3D

 22 21  0  0  1  0  0  0  0  0999 V2000
    5.1287  -12.0236   25.5367 C   0  0  0  0  0  0  0  0  0  0  0  0
    6.3122  -12.6892   26.2016 C   0  0  2  0  0  0  0  0  0  0  0  0
    6.8027  -11.7838   27.2950 C   0  0  0  0  0  0  0  0  0  0  0  0
    7.3894  -13.0397   25.2276 C   0  0  0  0  0  0  0  0  0  0  0  0
    6.8709  -14.0977   24.2781 C   0  0  2  0  0  0  0  0  0  0  0  0
    6.3942  -15.2116   25.0708 N   0  0  0  0  0  0  0  0  0  0  0  0
    7.9819  -14.6138   23.4068 C   0  0  0  0  0  0  0  0  0  0  0  0
    8.7185  -13.8227   22.7516 O   0  0  0  0  0  0  0  0  0  0  0  0
    8.2374  -16.0077   23.2936 N   0  0  0  0  0  0  0  0  0  0  0  0
    9.3459  -16.5904   22.5825 C   0  0  0  0  0  0  0  0  0  0  0  0
   10.4975  -16.9526   23.4058 C   0  0  0  0  0  0  0  0  0  0  0  0
   11.6025  -17.2861   22.8501 O   0  0  0  0  0  0  0  0  0  0  0  0
   10.6669  -16.2333   29.7139 N   0  0  0  0  0  0  0  0  0  0  0  0
   10.7475  -15.2124   28.7215 C   0  0  0  0  0  0  0  0  0  0  0  0
   10.5805  -14.0436   29.1110 O   0  0  0  0  0  0  0  0  0  0  0  0
   11.0105  -15.4889   27.3072 C   0  0  0  0  0  0  0  0  0  0  0  0
   11.5827  -16.8483   27.0220 C   0  0  0  0  0  0  0  0  0  0  0  0
   11.7915  -17.1439   25.5716 C   0  0  2  0  0  0  0  0  0  0  0  0
   10.5362  -16.9815   24.8202 N   0  0  0  0  0  0  0  0  0  0  0  0
   12.2165  -18.5425   25.3244 C   0  0  0  0  0  0  0  0  0  0  0  0
   13.5464  -18.9809   25.4806 O   0  0  0  0  0  0  0  0  0  0  0  0
   11.4204  -19.4469   24.9552 O   0  0  0  0  0  0  0  0  0  0  0  0
  2  3  1  1
  2  1  1  0
  4  2  1  0
  4  5  1  0
  5  6  1  1
  7  5  1  0
  7  9  1  0
  8  7  2  0
 10  9  1  0
 10 11  1  0
 11 19  1  0
 12 11  2  0
 13 14  1  0
 14 15  2  0
 16 14  1  0
 16 17  1  0
 18 17  1  1
 18 20  1  0
 19 18  1  0
 20 22  2  0
 20 21  1  0
M  END
$$$$
