LGQ.pdb
     RDKit          3D

 22 21  0  0  1  0  0  0  0  0999 V2000
    9.1272  -12.4532   19.6964 C   0  0  0  0  0  0  0  0  0  0  0  0
    8.0988  -13.5610   19.6681 C   0  0  2  0  0  0  0  0  0  0  0  0
    6.7481  -12.9379   19.4595 C   0  0  0  0  0  0  0  0  0  0  0  0
    8.1479  -14.4148   20.8930 C   0  0  0  0  0  0  0  0  0  0  0  0
    9.5657  -14.9023   21.0979 C   0  0  2  0  0  0  0  0  0  0  0  0
    9.9419  -15.6778   19.9346 N   0  0  0  0  0  0  0  0  0  0  0  0
    9.6413  -15.8182   22.2877 C   0  0  0  0  0  0  0  0  0  0  0  0
    9.3347  -15.4116   23.4446 O   0  0  0  0  0  0  0  0  0  0  0  0
   10.0599  -17.1695   22.1470 N   0  0  0  0  0  0  0  0  0  0  0  0
   10.2121  -18.1054   23.2310 C   0  0  0  0  0  0  0  0  0  0  0  0
   10.8963  -17.5880   24.4139 C   0  0  0  0  0  0  0  0  0  0  0  0
   12.1764  -17.5868   24.4641 O   0  0  0  0  0  0  0  0  0  0  0  0
    9.7752  -12.7545   28.8727 N   0  0  0  0  0  0  0  0  0  0  0  0
    9.1809  -13.5447   27.8451 C   0  0  0  0  0  0  0  0  0  0  0  0
    7.9560  -13.4118   27.6794 O   0  0  0  0  0  0  0  0  0  0  0  0
    9.9424  -14.4760   27.0092 C   0  0  0  0  0  0  0  0  0  0  0  0
   10.2661  -15.7917   27.6578 C   0  0  0  0  0  0  0  0  0  0  0  0
   11.0340  -16.7395   26.7936 C   0  0  2  0  0  0  0  0  0  0  0  0
   10.2774  -17.0623   25.5729 N   0  0  0  0  0  0  0  0  0  0  0  0
   11.2873  -18.0433   27.4523 C   0  0  0  0  0  0  0  0  0  0  0  0
   10.6180  -19.2295   27.0918 O   0  0  0  0  0  0  0  0  0  0  0  0
   12.1211  -18.1904   28.3856 O   0  0  0  0  0  0  0  0  0  0  0  0
  2  3  1  1
  2  1  1  0
  4  2  1  0
  4  5  1  0
  5  6  1  6
  7  5  1  0
  7  9  1  0
  8  7  2  0
 10  9  1  0
 10 11  1  0
 11 19  1  0
 12 11  2  0
 13 14  1  0
 14 15  2  0
 16 14  1  0
 16 17  1  0
 18 17  1  1
 18 20  1  0
 19 18  1  0
 20 22  2  0
 20 21  1  0
M  END
$$$$
