LGQ.pdb
     RDKit          3D

 22 21  0  0  1  0  0  0  0  0999 V2000
    6.9600  -13.2773   22.0224 C   0  0  0  0  0  0  0  0  0  0  0  0
    7.9312  -13.6469   20.9241 C   0  0  2  0  0  0  0  0  0  0  0  0
    7.8874  -12.5676   19.8804 C   0  0  0  0  0  0  0  0  0  0  0  0
    7.6576  -15.0004   20.3541 C   0  0  0  0  0  0  0  0  0  0  0  0
    7.8515  -16.0399   21.4365 C   0  0  2  0  0  0  0  0  0  0  0  0
    7.4861  -15.4382   22.7017 N   0  0  0  0  0  0  0  0  0  0  0  0
    9.2983  -16.4367   21.5330 C   0  0  0  0  0  0  0  0  0  0  0  0
    9.8319  -17.1761   20.6576 O   0  0  0  0  0  0  0  0  0  0  0  0
   10.1100  -15.9920   22.6121 N   0  0  0  0  0  0  0  0  0  0  0  0
   11.4882  -16.3569   22.8157 C   0  0  0  0  0  0  0  0  0  0  0  0
   11.8220  -16.8178   24.1615 C   0  0  0  0  0  0  0  0  0  0  0  0
   13.0466  -16.9967   24.4919 O   0  0  0  0  0  0  0  0  0  0  0  0
    9.3768  -12.6321   27.4691 N   0  0  0  0  0  0  0  0  0  0  0  0
    9.8024  -13.9166   27.9189 C   0  0  0  0  0  0  0  0  0  0  0  0
    9.4534  -14.2484   29.0650 O   0  0  0  0  0  0  0  0  0  0  0  0
   10.6107  -14.8244   27.1012 C   0  0  0  0  0  0  0  0  0  0  0  0
   10.4859  -16.2788   27.4556 C   0  0  0  0  0  0  0  0  0  0  0  0
   11.3062  -17.1983   26.6091 C   0  0  2  0  0  0  0  0  0  0  0  0
   10.9015  -17.1071   25.1968 N   0  0  0  0  0  0  0  0  0  0  0  0
   11.1329  -18.6248   26.9737 C   0  0  0  0  0  0  0  0  0  0  0  0
   11.6067  -19.1724   28.1824 O   0  0  0  0  0  0  0  0  0  0  0  0
   10.5482  -19.4574   26.2301 O   0  0  0  0  0  0  0  0  0  0  0  0
  2  3  1  6
  2  1  1  0
  4  2  1  0
  4  5  1  0
  5  6  1  1
  7  5  1  0
  7  9  1  0
  8  7  2  0
 10  9  1  0
 10 11  1  0
 11 19  1  0
 12 11  2  0
 13 14  1  0
 14 15  2  0
 16 14  1  0
 16 17  1  0
 18 17  1  1
 18 20  1  0
 19 18  1  0
 20 22  2  0
 20 21  1  0
M  END
$$$$
