LGQ.pdb
     RDKit          3D

 22 21  0  0  1  0  0  0  0  0999 V2000
    6.6743  -13.1325   19.7620 C   0  0  0  0  0  0  0  0  0  0  0  0
    8.0760  -13.3100   20.3000 C   0  0  2  0  0  0  0  0  0  0  0  0
    8.7909  -11.9944   20.1813 C   0  0  0  0  0  0  0  0  0  0  0  0
    8.8103  -14.4194   19.6205 C   0  0  0  0  0  0  0  0  0  0  0  0
    8.0513  -15.7122   19.8262 C   0  0  2  0  0  0  0  0  0  0  0  0
    7.7012  -15.8042   21.2281 N   0  0  0  0  0  0  0  0  0  0  0  0
    8.9251  -16.8930   19.5066 C   0  0  0  0  0  0  0  0  0  0  0  0
    9.4100  -17.0518   18.3501 O   0  0  0  0  0  0  0  0  0  0  0  0
    9.2323  -17.8666   20.4959 N   0  0  0  0  0  0  0  0  0  0  0  0
   10.1011  -18.9985   20.3008 C   0  0  0  0  0  0  0  0  0  0  0  0
   11.5214  -18.7453   20.5328 C   0  0  0  0  0  0  0  0  0  0  0  0
   12.3723  -19.6924   20.3911 O   0  0  0  0  0  0  0  0  0  0  0  0
   14.9348  -14.4557   17.4644 N   0  0  0  0  0  0  0  0  0  0  0  0
   15.3927  -14.4902   18.8144 C   0  0  0  0  0  0  0  0  0  0  0  0
   16.0015  -13.4855   19.2211 O   0  0  0  0  0  0  0  0  0  0  0  0
   15.1765  -15.6332   19.7047 C   0  0  0  0  0  0  0  0  0  0  0  0
   13.7478  -16.0806   19.8277 C   0  0  0  0  0  0  0  0  0  0  0  0
   13.5330  -17.2278   20.7618 C   0  0  2  0  0  0  0  0  0  0  0  0
   12.0971  -17.5113   20.9183 N   0  0  0  0  0  0  0  0  0  0  0  0
   14.0289  -16.9554   22.1321 C   0  0  0  0  0  0  0  0  0  0  0  0
   13.1740  -16.7745   23.2372 O   0  0  0  0  0  0  0  0  0  0  0  0
   15.2539  -16.8647   22.4135 O   0  0  0  0  0  0  0  0  0  0  0  0
  2  3  1  6
  2  1  1  0
  4  2  1  0
  4  5  1  0
  5  6  1  1
  7  5  1  0
  7  9  1  0
  8  7  2  0
 10  9  1  0
 10 11  1  0
 11 19  1  0
 12 11  2  0
 13 14  1  0
 14 15  2  0
 16 14  1  0
 16 17  1  0
 18 17  1  6
 18 20  1  0
 19 18  1  0
 20 22  2  0
 20 21  1  0
M  END
$$$$
