ERG.pdb
     RDKit          3D

 25 24  0  0  1  0  0  0  0  0999 V2000
   24.4190  -10.7536  -16.2079 N   0  0  0  0  0  0  0  0  0  0  0  0
   24.0842   -9.8184  -17.2641 C   0  0  1  0  0  0  0  0  0  0  0  0
   23.7049  -10.5860  -18.4796 C   0  0  0  0  0  0  0  0  0  0  0  0
   24.4747  -11.8635  -18.5784 C   0  0  0  0  0  0  0  0  0  0  0  0
   24.1569  -12.7136  -19.7378 C   0  0  0  0  0  0  0  0  0  0  0  0
   24.5751  -12.4466  -20.8688 O   0  0  0  0  0  0  0  0  0  0  0  0
   23.0066   -8.8815  -16.8269 C   0  0  0  0  0  0  0  0  0  0  0  0
   22.5418   -8.0207  -17.6134 O   0  0  0  0  0  0  0  0  0  0  0  0
   23.3654  -13.8642  -19.6097 O   0  0  0  0  0  0  0  0  0  0  0  0
   16.3582   -8.1552  -17.8595 N   0  0  0  0  0  0  0  0  0  0  0  0
   16.4526   -9.5252  -17.4187 C   0  0  0  0  0  0  0  0  0  0  0  0
   15.5929  -10.4135  -17.7748 N   0  0  0  0  0  0  0  0  0  0  0  0
   17.5065   -9.9448  -16.5677 N   0  0  0  0  0  0  0  0  0  0  0  0
   18.3614   -8.9519  -15.8836 C   0  0  0  0  0  0  0  0  0  0  0  0
   19.3559   -9.7355  -15.1088 C   0  0  0  0  0  0  0  0  0  0  0  0
   20.3251   -8.9386  -14.2950 C   0  0  0  0  0  0  0  0  0  0  0  0
   21.3719   -8.1946  -15.0303 C   0  0  2  0  0  0  0  0  0  0  0  0
   22.5036   -8.9788  -15.4826 N   0  0  0  0  0  0  0  0  0  0  0  0
   21.8433   -7.0823  -14.1474 C   0  0  0  0  0  0  0  0  0  0  0  0
   22.4173   -7.4347  -13.0765 O   0  0  0  0  0  0  0  0  0  0  0  0
   15.6383  -11.4184  -17.5209 N   0  0  0  0  0  0  0  0  0  0  0  0
   21.6838   -5.7141  -14.4386 C   0  0  0  0  0  0  0  0  0  0  0  0
   22.1075   -4.6718  -13.4908 C   0  0  0  0  0  0  0  0  0  0  0  0
   21.8993   -3.3389  -14.0768 O   0  0  0  0  0  0  0  0  0  0  0  0
   22.1806   -2.2117  -13.3284 O   0  0  0  0  0  0  0  0  0  0  0  0
  2  1  1  1
  2  7  1  0
  2  3  1  0
  4  5  1  0
  4  3  1  0
  5  9  1  0
  6  5  2  0
  7  8  2  0
 10 11  1  0
 11 12  2  0
 11 13  1  0
 13 14  1  0
 14 15  1  0
 15 16  1  0
 17 16  1  1
 17 19  1  0
 18 17  1  0
 18  7  1  0
 19 20  2  0
 21 22  1  0
 21 19  1  0
 23 22  1  0
 24 23  1  0
 25 23  2  0
M  END
$$$$
