ERG.pdb
     RDKit          3D

 25 24  0  0  1  0  0  0  0  0999 V2000
   26.2788  -20.8003  -10.6066 N   0  0  0  0  0  0  0  0  0  0  0  0
   25.6298  -21.2102  -11.8366 C   0  0  1  0  0  0  0  0  0  0  0  0
   24.3371  -21.8631  -11.5002 C   0  0  0  0  0  0  0  0  0  0  0  0
   23.4214  -20.9213  -10.7868 C   0  0  0  0  0  0  0  0  0  0  0  0
   22.0254  -20.9095  -11.2543 C   0  0  0  0  0  0  0  0  0  0  0  0
   21.6147  -21.7273  -12.0837 O   0  0  0  0  0  0  0  0  0  0  0  0
   25.4548  -20.0504  -12.7609 C   0  0  0  0  0  0  0  0  0  0  0  0
   25.3678  -18.8794  -12.3174 O   0  0  0  0  0  0  0  0  0  0  0  0
   21.0997  -19.9693  -10.7788 O   0  0  0  0  0  0  0  0  0  0  0  0
   29.2865  -19.3569  -18.8735 N   0  0  0  0  0  0  0  0  0  0  0  0
   28.6279  -18.0743  -18.9045 C   0  0  0  0  0  0  0  0  0  0  0  0
   29.2892  -16.9734  -18.9792 N   0  0  0  0  0  0  0  0  0  0  0  0
   27.2138  -17.9810  -18.8520 N   0  0  0  0  0  0  0  0  0  0  0  0
   26.3800  -19.2012  -18.8257 C   0  0  0  0  0  0  0  0  0  0  0  0
   25.4819  -19.0557  -17.6530 C   0  0  0  0  0  0  0  0  0  0  0  0
   26.1155  -19.2650  -16.3145 C   0  0  0  0  0  0  0  0  0  0  0  0
   25.2268  -19.2156  -15.1322 C   0  0  2  0  0  0  0  0  0  0  0  0
   25.3868  -20.2938  -14.1772 N   0  0  0  0  0  0  0  0  0  0  0  0
   23.8151  -19.1783  -15.6266 C   0  0  0  0  0  0  0  0  0  0  0  0
   23.2728  -20.3031  -15.8296 O   0  0  0  0  0  0  0  0  0  0  0  0
   28.8642  -16.0282  -19.0281 N   0  0  0  0  0  0  0  0  0  0  0  0
   23.0887  -17.9969  -15.8694 C   0  0  0  0  0  0  0  0  0  0  0  0
   21.6436  -18.0255  -16.1433 C   0  0  0  0  0  0  0  0  0  0  0  0
   21.1464  -16.6624  -16.3847 O   0  0  0  0  0  0  0  0  0  0  0  0
   19.8148  -16.4660  -16.6978 O   0  0  0  0  0  0  0  0  0  0  0  0
  2  1  1  1
  2  7  1  0
  2  3  1  0
  4  5  1  0
  4  3  1  0
  5  9  1  0
  6  5  2  0
  7  8  2  0
 10 11  1  0
 11 12  2  0
 11 13  1  0
 13 14  1  0
 14 15  1  0
 15 16  1  0
 17 16  1  6
 17 19  1  0
 18 17  1  0
 18  7  1  0
 19 20  2  0
 21 22  1  0
 21 19  1  0
 23 22  1  0
 24 23  1  0
 25 23  2  0
M  END
$$$$
