ERG.pdb
     RDKit          3D

 25 24  0  0  1  0  0  0  0  0999 V2000
   25.4954  -20.1590  -18.5909 N   0  0  0  0  0  0  0  0  0  0  0  0
   25.3088  -19.4262  -17.3537 C   0  0  1  0  0  0  0  0  0  0  0  0
   24.7547  -18.0839  -17.6722 C   0  0  0  0  0  0  0  0  0  0  0  0
   23.9233  -18.1192  -18.9141 C   0  0  0  0  0  0  0  0  0  0  0  0
   23.2357  -16.8639  -19.2592 C   0  0  0  0  0  0  0  0  0  0  0  0
   22.4700  -16.7911  -20.2256 O   0  0  0  0  0  0  0  0  0  0  0  0
   24.4398  -20.1875  -16.4073 C   0  0  0  0  0  0  0  0  0  0  0  0
   24.2928  -21.4287  -16.5228 O   0  0  0  0  0  0  0  0  0  0  0  0
   23.4191  -15.6951  -18.5062 O   0  0  0  0  0  0  0  0  0  0  0  0
   24.7629  -20.7119   -8.8716 N   0  0  0  0  0  0  0  0  0  0  0  0
   25.8657  -21.1327   -9.7002 C   0  0  0  0  0  0  0  0  0  0  0  0
   27.0880  -21.0024   -9.3208 N   0  0  0  0  0  0  0  0  0  0  0  0
   25.6389  -21.7097  -10.9756 N   0  0  0  0  0  0  0  0  0  0  0  0
   24.3678  -21.4742  -11.6923 C   0  0  0  0  0  0  0  0  0  0  0  0
   24.4040  -20.0567  -12.1310 C   0  0  0  0  0  0  0  0  0  0  0  0
   23.2310  -19.5908  -12.9335 C   0  0  0  0  0  0  0  0  0  0  0  0
   23.0692  -20.1650  -14.2878 C   0  0  2  0  0  0  0  0  0  0  0  0
   23.7684  -19.4750  -15.3533 N   0  0  0  0  0  0  0  0  0  0  0  0
   21.6042  -20.2140  -14.5880 C   0  0  0  0  0  0  0  0  0  0  0  0
   21.0610  -19.1050  -14.8630 O   0  0  0  0  0  0  0  0  0  0  0  0
   27.9170  -21.2241   -9.9039 N   0  0  0  0  0  0  0  0  0  0  0  0
   20.8296  -21.3896  -14.5783 C   0  0  0  0  0  0  0  0  0  0  0  0
   19.3862  -21.3617  -14.8617 C   0  0  0  0  0  0  0  0  0  0  0  0
   19.1499  -21.5181  -16.3051 O   0  0  0  0  0  0  0  0  0  0  0  0
   17.8547  -21.5623  -16.7847 O   0  0  0  0  0  0  0  0  0  0  0  0
  2  1  1  6
  2  7  1  0
  2  3  1  0
  4  5  1  0
  4  3  1  0
  5  9  1  0
  6  5  2  0
  7  8  2  0
 10 11  1  0
 11 12  2  0
 11 13  1  0
 13 14  1  0
 14 15  1  0
 15 16  1  0
 17 16  1  1
 17 19  1  0
 18 17  1  0
 18  7  1  0
 19 20  2  0
 21 22  1  0
 21 19  1  0
 23 22  1  0
 24 23  1  0
 25 23  2  0
M  END
$$$$
