ERG.pdb
     RDKit          3D

 25 24  0  0  1  0  0  0  0  0999 V2000
   28.4306  -20.4921  -16.9242 N   0  0  0  0  0  0  0  0  0  0  0  0
   27.3517  -21.2871  -17.4775 C   0  0  1  0  0  0  0  0  0  0  0  0
   27.9100  -22.5744  -17.9689 C   0  0  0  0  0  0  0  0  0  0  0  0
   29.3030  -22.4021  -18.4833 C   0  0  0  0  0  0  0  0  0  0  0  0
   29.9336  -23.6110  -19.0387 C   0  0  0  0  0  0  0  0  0  0  0  0
   29.9694  -23.8204  -20.2554 O   0  0  0  0  0  0  0  0  0  0  0  0
   26.2658  -21.4879  -16.4721 C   0  0  0  0  0  0  0  0  0  0  0  0
   25.2411  -22.1558  -16.7541 O   0  0  0  0  0  0  0  0  0  0  0  0
   30.5218  -24.5786  -18.2113 O   0  0  0  0  0  0  0  0  0  0  0  0
   25.3387  -20.3946   -7.4312 N   0  0  0  0  0  0  0  0  0  0  0  0
   24.1153  -20.8403   -8.0514 C   0  0  0  0  0  0  0  0  0  0  0  0
   23.0775  -21.1523   -7.3583 N   0  0  0  0  0  0  0  0  0  0  0  0
   24.0131  -20.9522   -9.4614 N   0  0  0  0  0  0  0  0  0  0  0  0
   25.2202  -20.8781  -10.3112 C   0  0  0  0  0  0  0  0  0  0  0  0
   24.7316  -20.8629  -11.7126 C   0  0  0  0  0  0  0  0  0  0  0  0
   25.7829  -20.7481  -12.7701 C   0  0  0  0  0  0  0  0  0  0  0  0
   25.3625  -20.9891  -14.1684 C   0  0  2  0  0  0  0  0  0  0  0  0
   26.4100  -20.9022  -15.1661 N   0  0  0  0  0  0  0  0  0  0  0  0
   24.2720  -20.0159  -14.4887 C   0  0  0  0  0  0  0  0  0  0  0  0
   24.6251  -18.8048  -14.5839 O   0  0  0  0  0  0  0  0  0  0  0  0
   22.1681  -21.4556   -7.7552 N   0  0  0  0  0  0  0  0  0  0  0  0
   22.9227  -20.3688  -14.6807 C   0  0  0  0  0  0  0  0  0  0  0  0
   21.8961  -19.3548  -14.9676 C   0  0  0  0  0  0  0  0  0  0  0  0
   20.5825  -19.9959  -15.1325 O   0  0  0  0  0  0  0  0  0  0  0  0
   19.4630  -19.2148  -15.3471 O   0  0  0  0  0  0  0  0  0  0  0  0
  2  1  1  1
  2  7  1  0
  2  3  1  0
  4  5  1  0
  4  3  1  0
  5  9  1  0
  6  5  2  0
  7  8  2  0
 10 11  1  0
 11 12  2  0
 11 13  1  0
 13 14  1  0
 14 15  1  0
 15 16  1  0
 17 16  1  1
 17 19  1  0
 18 17  1  0
 18  7  1  0
 19 20  2  0
 21 22  1  0
 21 19  1  0
 23 22  1  0
 24 23  1  0
 25 23  2  0
M  END
$$$$
