ERG.pdb
     RDKit          3D

 25 24  0  0  1  0  0  0  0  0999 V2000
   27.7490  -19.5926  -17.8929 N   0  0  0  0  0  0  0  0  0  0  0  0
   28.1117  -18.9587  -16.6404 C   0  0  1  0  0  0  0  0  0  0  0  0
   28.5769  -17.5750  -16.9222 C   0  0  0  0  0  0  0  0  0  0  0  0
   27.7984  -16.9559  -18.0380 C   0  0  0  0  0  0  0  0  0  0  0  0
   28.3933  -17.0807  -19.3790 C   0  0  0  0  0  0  0  0  0  0  0  0
   29.4503  -17.6926  -19.5626 O   0  0  0  0  0  0  0  0  0  0  0  0
   26.9711  -18.9873  -15.6768 C   0  0  0  0  0  0  0  0  0  0  0  0
   26.1823  -18.0155  -15.5819 O   0  0  0  0  0  0  0  0  0  0  0  0
   27.7864  -16.5108  -20.5075 O   0  0  0  0  0  0  0  0  0  0  0  0
   20.6834  -21.0552  -12.3518 N   0  0  0  0  0  0  0  0  0  0  0  0
   20.2017  -20.6296  -13.6428 C   0  0  0  0  0  0  0  0  0  0  0  0
   19.1496  -19.8999  -13.7679 N   0  0  0  0  0  0  0  0  0  0  0  0
   20.8774  -21.0052  -14.8316 N   0  0  0  0  0  0  0  0  0  0  0  0
   22.1535  -21.7485  -14.7686 C   0  0  0  0  0  0  0  0  0  0  0  0
   23.1872  -20.7520  -14.3923 C   0  0  0  0  0  0  0  0  0  0  0  0
   24.6009  -21.2398  -14.4062 C   0  0  0  0  0  0  0  0  0  0  0  0
   25.6469  -20.2894  -13.9672 C   0  0  2  0  0  0  0  0  0  0  0  0
   26.7859  -20.1517  -14.8526 N   0  0  0  0  0  0  0  0  0  0  0  0
   26.1064  -20.7158  -12.6086 C   0  0  0  0  0  0  0  0  0  0  0  0
   26.8879  -21.7102  -12.5784 O   0  0  0  0  0  0  0  0  0  0  0  0
   18.7552  -19.5776  -14.6717 N   0  0  0  0  0  0  0  0  0  0  0  0
   25.7246  -20.0889  -11.4072 C   0  0  0  0  0  0  0  0  0  0  0  0
   26.1399  -20.6172  -10.0985 C   0  0  0  0  0  0  0  0  0  0  0  0
   24.9589  -20.9820   -9.3012 O   0  0  0  0  0  0  0  0  0  0  0  0
   25.1159  -21.3635   -7.9823 O   0  0  0  0  0  0  0  0  0  0  0  0
  2  1  1  6
  2  7  1  0
  2  3  1  0
  4  5  1  0
  4  3  1  0
  5  9  1  0
  6  5  2  0
  7  8  2  0
 10 11  1  0
 11 12  2  0
 11 13  1  0
 13 14  1  0
 14 15  1  0
 15 16  1  0
 17 16  1  6
 17 19  1  0
 18 17  1  0
 18  7  1  0
 19 20  2  0
 21 22  1  0
 21 19  1  0
 23 22  1  0
 24 23  1  0
 25 23  2  0
M  END
$$$$
