ERG.pdb
     RDKit          3D

 25 24  0  0  1  0  0  0  0  0999 V2000
   26.5227  -21.3141   -9.7060 N   0  0  0  0  0  0  0  0  0  0  0  0
   25.3162  -21.7518  -10.3805 C   0  0  1  0  0  0  0  0  0  0  0  0
   24.1405  -21.3603   -9.5588 C   0  0  0  0  0  0  0  0  0  0  0  0
   24.1347  -22.0715   -8.2440 C   0  0  0  0  0  0  0  0  0  0  0  0
   22.9637  -21.8219   -7.3872 C   0  0  0  0  0  0  0  0  0  0  0  0
   22.2979  -22.7496   -6.9165 O   0  0  0  0  0  0  0  0  0  0  0  0
   25.2479  -21.1991  -11.7661 C   0  0  0  0  0  0  0  0  0  0  0  0
   24.2486  -21.4096  -12.4960 O   0  0  0  0  0  0  0  0  0  0  0  0
   22.5520  -20.5201   -7.0672 O   0  0  0  0  0  0  0  0  0  0  0  0
   25.7681  -14.0762  -15.8198 N   0  0  0  0  0  0  0  0  0  0  0  0
   26.0627  -15.0189  -16.8707 C   0  0  0  0  0  0  0  0  0  0  0  0
   25.9306  -14.7132  -18.1133 N   0  0  0  0  0  0  0  0  0  0  0  0
   26.5118  -16.3295  -16.5679 N   0  0  0  0  0  0  0  0  0  0  0  0
   26.5175  -16.8190  -15.1732 C   0  0  0  0  0  0  0  0  0  0  0  0
   27.2142  -18.1293  -15.2042 C   0  0  0  0  0  0  0  0  0  0  0  0
   27.3421  -18.8327  -13.8906 C   0  0  0  0  0  0  0  0  0  0  0  0
   26.4047  -19.9473  -13.6279 C   0  0  2  0  0  0  0  0  0  0  0  0
   26.3500  -20.4161  -12.2578 N   0  0  0  0  0  0  0  0  0  0  0  0
   26.7747  -21.0757  -14.5381 C   0  0  0  0  0  0  0  0  0  0  0  0
   27.8743  -21.6484  -14.2863 O   0  0  0  0  0  0  0  0  0  0  0  0
   26.1462  -15.3465  -18.9063 N   0  0  0  0  0  0  0  0  0  0  0  0
   25.9893  -21.5138  -15.6213 C   0  0  0  0  0  0  0  0  0  0  0  0
   26.4878  -22.5146  -16.5774 C   0  0  0  0  0  0  0  0  0  0  0  0
   25.4355  -22.8587  -17.5458 O   0  0  0  0  0  0  0  0  0  0  0  0
   25.2517  -24.1774  -17.9157 O   0  0  0  0  0  0  0  0  0  0  0  0
  2  1  1  1
  2  7  1  0
  2  3  1  0
  4  5  1  0
  4  3  1  0
  5  9  1  0
  6  5  2  0
  7  8  2  0
 10 11  1  0
 11 12  2  0
 11 13  1  0
 13 14  1  0
 14 15  1  0
 15 16  1  0
 17 16  1  1
 17 19  1  0
 18 17  1  0
 18  7  1  0
 19 20  2  0
 21 22  1  0
 21 19  1  0
 23 22  1  0
 24 23  1  0
 25 23  2  0
M  END
$$$$
