ERG.pdb
     RDKit          3D

 25 24  0  0  1  0  0  0  0  0999 V2000
   28.1223  -23.1781  -17.1305 N   0  0  0  0  0  0  0  0  0  0  0  0
   28.1243  -22.0410  -16.2309 C   0  0  1  0  0  0  0  0  0  0  0  0
   28.3651  -20.8058  -17.0225 C   0  0  0  0  0  0  0  0  0  0  0  0
   27.5014  -20.7642  -18.2419 C   0  0  0  0  0  0  0  0  0  0  0  0
   27.6692  -19.5827  -19.1043 C   0  0  0  0  0  0  0  0  0  0  0  0
   27.0599  -19.4709  -20.1728 O   0  0  0  0  0  0  0  0  0  0  0  0
   26.8528  -21.9745  -15.4504 C   0  0  0  0  0  0  0  0  0  0  0  0
   25.8244  -22.5796  -15.8400 O   0  0  0  0  0  0  0  0  0  0  0  0
   28.5280  -18.5318  -18.7512 O   0  0  0  0  0  0  0  0  0  0  0  0
   23.4709  -21.9722   -7.4976 N   0  0  0  0  0  0  0  0  0  0  0  0
   22.5604  -21.3808   -8.4468 C   0  0  0  0  0  0  0  0  0  0  0  0
   21.2845  -21.4528   -8.2988 N   0  0  0  0  0  0  0  0  0  0  0  0
   23.0446  -20.6932   -9.5886 N   0  0  0  0  0  0  0  0  0  0  0  0
   24.3212  -21.0892  -10.2196 C   0  0  0  0  0  0  0  0  0  0  0  0
   24.5302  -20.1436  -11.3445 C   0  0  0  0  0  0  0  0  0  0  0  0
   25.7690  -20.3559  -12.1551 C   0  0  0  0  0  0  0  0  0  0  0  0
   25.6243  -21.0998  -13.4263 C   0  0  2  0  0  0  0  0  0  0  0  0
   26.8211  -21.2024  -14.2370 N   0  0  0  0  0  0  0  0  0  0  0  0
   24.5311  -20.4472  -14.2122 C   0  0  0  0  0  0  0  0  0  0  0  0
   24.8095  -19.3181  -14.7105 O   0  0  0  0  0  0  0  0  0  0  0  0
   20.5878  -21.0409   -8.9479 N   0  0  0  0  0  0  0  0  0  0  0  0
   23.2551  -21.0065  -14.4155 C   0  0  0  0  0  0  0  0  0  0  0  0
   22.2208  -20.3016  -15.1885 C   0  0  0  0  0  0  0  0  0  0  0  0
   21.0896  -19.9482  -14.3174 O   0  0  0  0  0  0  0  0  0  0  0  0
   20.0173  -19.2499  -14.8391 O   0  0  0  0  0  0  0  0  0  0  0  0
  2  1  1  6
  2  7  1  0
  2  3  1  0
  4  5  1  0
  4  3  1  0
  5  9  1  0
  6  5  2  0
  7  8  2  0
 10 11  1  0
 11 12  2  0
 11 13  1  0
 13 14  1  0
 14 15  1  0
 15 16  1  0
 17 16  1  1
 17 19  1  0
 18 17  1  0
 18  7  1  0
 19 20  2  0
 21 22  1  0
 21 19  1  0
 23 22  1  0
 24 23  1  0
 25 23  2  0
M  END
$$$$
