ERG.pdb
     RDKit          3D

 25 24  0  0  1  0  0  0  0  0999 V2000
   28.6733  -24.9787  -16.2435 N   0  0  0  0  0  0  0  0  0  0  0  0
   27.6076  -24.2283  -16.8786 C   0  0  1  0  0  0  0  0  0  0  0  0
   26.6667  -25.1841  -17.5201 C   0  0  0  0  0  0  0  0  0  0  0  0
   26.0253  -26.0781  -16.5081 C   0  0  0  0  0  0  0  0  0  0  0  0
   25.0760  -27.0694  -17.0408 C   0  0  0  0  0  0  0  0  0  0  0  0
   24.4692  -27.8472  -16.2979 O   0  0  0  0  0  0  0  0  0  0  0  0
   26.9246  -23.3342  -15.8966 C   0  0  0  0  0  0  0  0  0  0  0  0
   27.1368  -23.4477  -14.6647 O   0  0  0  0  0  0  0  0  0  0  0  0
   24.8184  -27.1746  -18.4154 O   0  0  0  0  0  0  0  0  0  0  0  0
   26.7318  -16.4689  -14.7889 N   0  0  0  0  0  0  0  0  0  0  0  0
   26.5943  -16.8760  -16.1656 C   0  0  0  0  0  0  0  0  0  0  0  0
   27.5732  -16.7999  -16.9968 N   0  0  0  0  0  0  0  0  0  0  0  0
   25.3624  -17.3785  -16.6563 N   0  0  0  0  0  0  0  0  0  0  0  0
   24.2548  -17.6911  -15.7289 C   0  0  0  0  0  0  0  0  0  0  0  0
   24.5923  -19.0011  -15.1180 C   0  0  0  0  0  0  0  0  0  0  0  0
   25.1266  -20.0395  -16.0523 C   0  0  0  0  0  0  0  0  0  0  0  0
   25.3667  -21.3892  -15.4948 C   0  0  2  0  0  0  0  0  0  0  0  0
   26.0136  -22.3332  -16.3840 N   0  0  0  0  0  0  0  0  0  0  0  0
   24.0485  -21.9352  -15.0440 C   0  0  0  0  0  0  0  0  0  0  0  0
   23.3510  -22.4978  -15.9369 O   0  0  0  0  0  0  0  0  0  0  0  0
   27.5433  -17.1285  -17.9804 N   0  0  0  0  0  0  0  0  0  0  0  0
   23.5641  -21.8549  -13.7245 C   0  0  0  0  0  0  0  0  0  0  0  0
   22.2910  -22.4799  -13.3334 C   0  0  0  0  0  0  0  0  0  0  0  0
   21.1618  -21.6384  -13.7578 O   0  0  0  0  0  0  0  0  0  0  0  0
   19.8750  -21.9876  -13.3948 O   0  0  0  0  0  0  0  0  0  0  0  0
  2  1  1  1
  2  7  1  0
  2  3  1  0
  4  5  1  0
  4  3  1  0
  5  9  1  0
  6  5  2  0
  7  8  2  0
 10 11  1  0
 11 12  2  0
 11 13  1  0
 13 14  1  0
 14 15  1  0
 15 16  1  0
 17 16  1  6
 17 19  1  0
 18 17  1  0
 18  7  1  0
 19 20  2  0
 21 22  1  0
 21 19  1  0
 23 22  1  0
 24 23  1  0
 25 23  2  0
M  END
$$$$
