ERG.pdb
     RDKit          3D

 25 24  0  0  1  0  0  0  0  0999 V2000
   18.0910  -10.9936  -14.2751 N   0  0  0  0  0  0  0  0  0  0  0  0
   18.3055  -10.3817  -15.5719 C   0  0  1  0  0  0  0  0  0  0  0  0
   16.9969   -9.9180  -16.1039 C   0  0  0  0  0  0  0  0  0  0  0  0
   16.0847  -11.0688  -16.3833 C   0  0  0  0  0  0  0  0  0  0  0  0
   16.2744  -11.7344  -17.6828 C   0  0  0  0  0  0  0  0  0  0  0  0
   17.1977  -12.5328  -17.8712 O   0  0  0  0  0  0  0  0  0  0  0  0
   19.3044   -9.2752  -15.4823 C   0  0  0  0  0  0  0  0  0  0  0  0
   19.3808   -8.5567  -14.4559 O   0  0  0  0  0  0  0  0  0  0  0  0
   15.4153  -11.4917  -18.7644 O   0  0  0  0  0  0  0  0  0  0  0  0
   25.9124  -10.0904  -15.3808 N   0  0  0  0  0  0  0  0  0  0  0  0
   25.6157  -11.2261  -16.2188 C   0  0  0  0  0  0  0  0  0  0  0  0
   25.9515  -12.4221  -15.8847 N   0  0  0  0  0  0  0  0  0  0  0  0
   24.9375  -11.0621  -17.4533 N   0  0  0  0  0  0  0  0  0  0  0  0
   24.4280   -9.7359  -17.8612 C   0  0  0  0  0  0  0  0  0  0  0  0
   23.2539   -9.4663  -16.9941 C   0  0  0  0  0  0  0  0  0  0  0  0
   22.4167   -8.2871  -17.3757 C   0  0  0  0  0  0  0  0  0  0  0  0
   21.2133   -8.0207  -16.5567 C   0  0  2  0  0  0  0  0  0  0  0  0
   20.1851   -9.0413  -16.5955 N   0  0  0  0  0  0  0  0  0  0  0  0
   20.6454   -6.7086  -16.9977 C   0  0  0  0  0  0  0  0  0  0  0  0
   20.2498   -6.6552  -18.1982 O   0  0  0  0  0  0  0  0  0  0  0  0
   25.7749  -13.2696  -16.4565 N   0  0  0  0  0  0  0  0  0  0  0  0
   20.5353   -5.5726  -16.1734 C   0  0  0  0  0  0  0  0  0  0  0  0
   20.0580   -4.2842  -16.6993 C   0  0  0  0  0  0  0  0  0  0  0  0
   19.9314   -3.3066  -15.6076 O   0  0  0  0  0  0  0  0  0  0  0  0
   20.1514   -3.7065  -14.3032 O   0  0  0  0  0  0  0  0  0  0  0  0
  2  1  1  1
  2  7  1  0
  2  3  1  0
  4  5  1  0
  4  3  1  0
  5  9  1  0
  6  5  2  0
  7  8  2  0
 10 11  1  0
 11 12  2  0
 11 13  1  0
 13 14  1  0
 14 15  1  0
 15 16  1  0
 17 16  1  6
 17 19  1  0
 18 17  1  0
 18  7  1  0
 19 20  2  0
 21 22  1  0
 21 19  1  0
 23 22  1  0
 24 23  1  0
 25 23  2  0
M  END
$$$$
