ERG.pdb
     RDKit          3D

 25 24  0  0  1  0  0  0  0  0999 V2000
   27.5632  -17.5162  -18.1722 N   0  0  0  0  0  0  0  0  0  0  0  0
   27.5636  -18.9490  -18.3937 C   0  0  1  0  0  0  0  0  0  0  0  0
   28.9586  -19.3919  -18.6549 C   0  0  0  0  0  0  0  0  0  0  0  0
   29.8093  -18.2582  -19.1299 C   0  0  0  0  0  0  0  0  0  0  0  0
   30.7745  -18.5846  -20.1927 C   0  0  0  0  0  0  0  0  0  0  0  0
   31.1492  -19.7446  -20.3914 O   0  0  0  0  0  0  0  0  0  0  0  0
   26.9479  -19.6687  -17.2390 C   0  0  0  0  0  0  0  0  0  0  0  0
   26.8426  -20.9194  -17.2404 O   0  0  0  0  0  0  0  0  0  0  0  0
   31.3113  -17.5933  -21.0269 O   0  0  0  0  0  0  0  0  0  0  0  0
   26.1684  -20.7953   -9.5873 N   0  0  0  0  0  0  0  0  0  0  0  0
   24.7831  -20.9964   -9.9343 C   0  0  0  0  0  0  0  0  0  0  0  0
   23.8363  -20.8084   -9.0840 N   0  0  0  0  0  0  0  0  0  0  0  0
   24.4127  -21.4138  -11.2380 N   0  0  0  0  0  0  0  0  0  0  0  0
   25.3155  -21.1851  -12.3858 C   0  0  0  0  0  0  0  0  0  0  0  0
   25.4568  -19.7125  -12.5060 C   0  0  0  0  0  0  0  0  0  0  0  0
   26.2684  -19.2262  -13.6642 C   0  0  0  0  0  0  0  0  0  0  0  0
   25.7538  -19.5214  -15.0200 C   0  0  2  0  0  0  0  0  0  0  0  0
   26.4736  -18.9046  -16.1162 N   0  0  0  0  0  0  0  0  0  0  0  0
   24.3158  -19.1098  -15.0592 C   0  0  0  0  0  0  0  0  0  0  0  0
   24.0971  -17.8655  -14.9940 O   0  0  0  0  0  0  0  0  0  0  0  0
   22.8258  -20.9324   -9.2841 N   0  0  0  0  0  0  0  0  0  0  0  0
   23.2348  -20.0062  -15.1598 C   0  0  0  0  0  0  0  0  0  0  0  0
   21.8503  -19.5286  -15.2995 C   0  0  0  0  0  0  0  0  0  0  0  0
   21.0632  -19.9021  -14.1144 O   0  0  0  0  0  0  0  0  0  0  0  0
   19.7360  -19.5270  -14.0295 O   0  0  0  0  0  0  0  0  0  0  0  0
  2  1  1  1
  2  7  1  0
  2  3  1  0
  4  5  1  0
  4  3  1  0
  5  9  1  0
  6  5  2  0
  7  8  2  0
 10 11  1  0
 11 12  2  0
 11 13  1  0
 13 14  1  0
 14 15  1  0
 15 16  1  0
 17 16  1  1
 17 19  1  0
 18 17  1  0
 18  7  1  0
 19 20  2  0
 21 22  1  0
 21 19  1  0
 23 22  1  0
 24 23  1  0
 25 23  2  0
M  END
$$$$
