ERG.pdb
     RDKit          3D

 25 24  0  0  1  0  0  0  0  0999 V2000
   21.6988  -14.9787  -19.3129 N   0  0  0  0  0  0  0  0  0  0  0  0
   21.8674  -15.2099  -17.8915 C   0  0  1  0  0  0  0  0  0  0  0  0
   20.7112  -14.6155  -17.1702 C   0  0  0  0  0  0  0  0  0  0  0  0
   19.5753  -15.5824  -17.0730 C   0  0  0  0  0  0  0  0  0  0  0  0
   19.0160  -15.7785  -15.7252 C   0  0  0  0  0  0  0  0  0  0  0  0
   19.2355  -16.8072  -15.0779 O   0  0  0  0  0  0  0  0  0  0  0  0
   22.0274  -16.6662  -17.6021 C   0  0  0  0  0  0  0  0  0  0  0  0
   21.5339  -17.5333  -18.3637 O   0  0  0  0  0  0  0  0  0  0  0  0
   18.2094  -14.8062  -15.1163 O   0  0  0  0  0  0  0  0  0  0  0  0
   29.0731  -21.6413  -16.4021 N   0  0  0  0  0  0  0  0  0  0  0  0
   27.8926  -22.4678  -16.3455 C   0  0  0  0  0  0  0  0  0  0  0  0
   27.9612  -23.7521  -16.3757 N   0  0  0  0  0  0  0  0  0  0  0  0
   26.6017  -21.8877  -16.2547 N   0  0  0  0  0  0  0  0  0  0  0  0
   26.4421  -20.4231  -16.1365 C   0  0  0  0  0  0  0  0  0  0  0  0
   24.9793  -20.1716  -16.1343 C   0  0  0  0  0  0  0  0  0  0  0  0
   24.5630  -18.7359  -16.0853 C   0  0  0  0  0  0  0  0  0  0  0  0
   23.1145  -18.4496  -16.1846 C   0  0  2  0  0  0  0  0  0  0  0  0
   22.7602  -17.0661  -16.4304 N   0  0  0  0  0  0  0  0  0  0  0  0
   22.4705  -18.9234  -14.9198 C   0  0  0  0  0  0  0  0  0  0  0  0
   22.4121  -18.0773  -13.9811 O   0  0  0  0  0  0  0  0  0  0  0  0
   27.1477  -24.3916  -16.3009 N   0  0  0  0  0  0  0  0  0  0  0  0
   21.9474  -20.2166  -14.7300 C   0  0  0  0  0  0  0  0  0  0  0  0
   20.4973  -20.4633  -14.7039 C   0  0  0  0  0  0  0  0  0  0  0  0
   19.9417  -20.0821  -13.3964 O   0  0  0  0  0  0  0  0  0  0  0  0
   18.5950  -20.2650  -13.1465 O   0  0  0  0  0  0  0  0  0  0  0  0
  2  1  1  6
  2  7  1  0
  2  3  1  0
  4  5  1  0
  4  3  1  0
  5  9  1  0
  6  5  2  0
  7  8  2  0
 10 11  1  0
 11 12  2  0
 11 13  1  0
 13 14  1  0
 14 15  1  0
 15 16  1  0
 17 16  1  1
 17 19  1  0
 18 17  1  0
 18  7  1  0
 19 20  2  0
 21 22  1  0
 21 19  1  0
 23 22  1  0
 24 23  1  0
 25 23  2  0
M  END
$$$$
