GMW.pdb
     RDKit          3D

 27 28  0  0  1  0  0  0  0  0999 V2000
   30.2487  -17.1658  -18.1563 N   0  0  0  0  0  0  0  0  0  0  0  0
   29.6412  -18.4040  -17.7139 C   0  0  0  0  0  0  0  0  0  0  0  0
   28.9236  -18.1428  -16.4504 C   0  0  0  0  0  0  0  0  0  0  0  0
   28.9700  -17.0213  -15.9175 O   0  0  0  0  0  0  0  0  0  0  0  0
   22.6920  -18.4666  -16.5091 C   0  0  0  0  0  0  0  0  0  0  0  0
   23.2637  -17.5023  -15.1085 S   0  0  0  0  0  0  0  0  0  0  0  0
   24.8151  -18.0666  -14.4373 C   0  0  0  0  0  0  0  0  0  0  0  0
   25.8651  -18.4350  -15.4150 C   0  0  0  0  0  0  0  0  0  0  0  0
   27.1390  -18.9792  -14.8858 C   0  0  2  0  0  0  0  0  0  0  0  0
   28.1748  -19.2186  -15.8588 N   0  0  0  0  0  0  0  0  0  0  0  0
   26.9541  -20.2558  -14.1085 C   0  0  0  0  0  0  0  0  0  0  0  0
   26.7959  -21.3371  -14.7177 O   0  0  0  0  0  0  0  0  0  0  0  0
   26.9564  -20.2517  -12.6865 N   0  0  0  0  0  0  0  0  0  0  0  0
   26.7260  -21.4445  -11.8785 C   0  0  1  0  0  0  0  0  0  0  0  0
   27.7354  -21.3651  -10.7582 C   0  0  0  0  0  0  0  0  0  0  0  0
   27.1834  -20.6936   -9.5484 C   0  0  0  0  0  0  0  0  0  0  0  0
   25.8714  -20.2458   -9.4516 C   0  0  0  0  0  0  0  0  0  0  0  0
   25.6590  -19.7325   -8.2392 N   0  0  0  0  0  0  0  0  0  0  0  0
   26.8050  -19.8369   -7.5474 C   0  0  0  0  0  0  0  0  0  0  0  0
   27.1453  -19.4531   -6.2445 C   0  0  0  0  0  0  0  0  0  0  0  0
   28.4209  -19.6701   -5.7798 C   0  0  0  0  0  0  0  0  0  0  0  0
   29.3709  -20.2623   -6.5834 C   0  0  0  0  0  0  0  0  0  0  0  0
   29.0549  -20.6505   -7.8777 C   0  0  0  0  0  0  0  0  0  0  0  0
   27.7706  -20.4314   -8.3397 C   0  0  0  0  0  0  0  0  0  0  0  0
   25.3399  -21.6116  -11.4899 C   0  0  0  0  0  0  0  0  0  0  0  0
   24.8474  -22.6442  -10.9784 O   0  0  0  0  0  0  0  0  0  0  0  0
   24.4301  -20.5535  -11.6827 O   0  0  0  0  0  0  0  0  0  0  0  0
  2  1  1  0
  2  3  1  0
  3  4  2  0
  6  7  1  0
  6  5  1  0
  9  8  1  6
  8  7  1  0
 10  3  1  0
 10  9  1  0
 11  9  1  0
 11 12  2  0
 13 11  1  0
 14 13  1  0
 14 15  1  1
 16 15  1  0
 16 17  2  0
 18 17  1  0
 19 18  1  0
 20 19  2  0
 21 20  1  0
 22 21  2  0
 22 23  1  0
 23 24  2  0
 24 19  1  0
 24 16  1  0
 25 14  1  0
 26 25  2  0
 27 25  1  0
M  END
$$$$
