GMW.pdb
     RDKit          3D

 27 28  0  0  1  0  0  0  0  0999 V2000
   28.4012  -22.9376  -16.2494 N   0  0  0  0  0  0  0  0  0  0  0  0
   27.7174  -21.6621  -16.1901 C   0  0  0  0  0  0  0  0  0  0  0  0
   26.7465  -21.7077  -15.0789 C   0  0  0  0  0  0  0  0  0  0  0  0
   25.7390  -22.4316  -15.1494 O   0  0  0  0  0  0  0  0  0  0  0  0
   24.6261  -21.2178   -7.8305 C   0  0  0  0  0  0  0  0  0  0  0  0
   25.8806  -21.3293   -9.1081 S   0  0  0  0  0  0  0  0  0  0  0  0
   25.6849  -20.1275  -10.4094 C   0  0  0  0  0  0  0  0  0  0  0  0
   26.6093  -20.2416  -11.5611 C   0  0  0  0  0  0  0  0  0  0  0  0
   26.0845  -20.8477  -12.8086 C   0  0  2  0  0  0  0  0  0  0  0  0
   27.0000  -20.8942  -13.9206 N   0  0  0  0  0  0  0  0  0  0  0  0
   24.8230  -20.1858  -13.2972 C   0  0  0  0  0  0  0  0  0  0  0  0
   24.8871  -19.0827  -13.8841 O   0  0  0  0  0  0  0  0  0  0  0  0
   23.5543  -20.7975  -13.1011 N   0  0  0  0  0  0  0  0  0  0  0  0
   22.3495  -20.3990  -13.8210 C   0  0  1  0  0  0  0  0  0  0  0  0
   22.6928  -20.5529  -15.2834 C   0  0  0  0  0  0  0  0  0  0  0  0
   21.5758  -20.1274  -16.1726 C   0  0  0  0  0  0  0  0  0  0  0  0
   21.1046  -18.8218  -16.2403 C   0  0  0  0  0  0  0  0  0  0  0  0
   20.1369  -18.7391  -17.1542 N   0  0  0  0  0  0  0  0  0  0  0  0
   19.9695  -19.9630  -17.6804 C   0  0  0  0  0  0  0  0  0  0  0  0
   19.0926  -20.4440  -18.6604 C   0  0  0  0  0  0  0  0  0  0  0  0
   19.1230  -21.7730  -19.0110 C   0  0  0  0  0  0  0  0  0  0  0  0
   20.0086  -22.6395  -18.4077 C   0  0  0  0  0  0  0  0  0  0  0  0
   20.8864  -22.1838  -17.4343 C   0  0  0  0  0  0  0  0  0  0  0  0
   20.8527  -20.8464  -17.0863 C   0  0  0  0  0  0  0  0  0  0  0  0
   21.1573  -21.0826  -13.3608 C   0  0  0  0  0  0  0  0  0  0  0  0
   21.1204  -22.2438  -12.8911 O   0  0  0  0  0  0  0  0  0  0  0  0
   19.9110  -20.4292  -13.4259 O   0  0  0  0  0  0  0  0  0  0  0  0
  2  1  1  0
  2  3  1  0
  3  4  2  0
  6  7  1  0
  6  5  1  0
  9  8  1  1
  8  7  1  0
 10  3  1  0
 10  9  1  0
 11  9  1  0
 11 12  2  0
 13 11  1  0
 14 13  1  0
 14 15  1  6
 16 15  1  0
 16 17  2  0
 18 17  1  0
 19 18  1  0
 20 19  2  0
 21 20  1  0
 22 21  2  0
 22 23  1  0
 23 24  2  0
 24 19  1  0
 24 16  1  0
 25 14  1  0
 26 25  2  0
 27 25  1  0
M  END
$$$$
