GMW.pdb
     RDKit          3D

 27 28  0  0  1  0  0  0  0  0999 V2000
   25.5648  -25.3116  -15.2134 N   0  0  0  0  0  0  0  0  0  0  0  0
   25.6796  -23.9445  -15.6777 C   0  0  0  0  0  0  0  0  0  0  0  0
   25.2248  -23.0478  -14.5966 C   0  0  0  0  0  0  0  0  0  0  0  0
   24.2911  -23.3831  -13.8484 O   0  0  0  0  0  0  0  0  0  0  0  0
   25.5460  -20.8306   -8.5347 C   0  0  0  0  0  0  0  0  0  0  0  0
   25.2365  -20.5681  -10.2822 S   0  0  0  0  0  0  0  0  0  0  0  0
   26.7188  -20.5042  -11.2693 C   0  0  0  0  0  0  0  0  0  0  0  0
   26.5495  -20.1455  -12.6964 C   0  0  0  0  0  0  0  0  0  0  0  0
   25.4666  -20.8196  -13.4527 C   0  0  2  0  0  0  0  0  0  0  0  0
   25.8904  -21.7832  -14.4369 N   0  0  0  0  0  0  0  0  0  0  0  0
   24.5438  -19.8515  -14.1452 C   0  0  0  0  0  0  0  0  0  0  0  0
   24.3978  -18.6964  -13.6874 O   0  0  0  0  0  0  0  0  0  0  0  0
   23.8324  -20.2315  -15.3164 N   0  0  0  0  0  0  0  0  0  0  0  0
   22.8793  -19.3610  -15.9962 C   0  0  1  0  0  0  0  0  0  0  0  0
   23.7032  -18.5601  -16.9760 C   0  0  0  0  0  0  0  0  0  0  0  0
   22.8723  -17.6101  -17.7674 C   0  0  0  0  0  0  0  0  0  0  0  0
   22.4473  -16.3780  -17.2852 C   0  0  0  0  0  0  0  0  0  0  0  0
   21.7639  -15.7349  -18.2328 N   0  0  0  0  0  0  0  0  0  0  0  0
   21.7358  -16.5233  -19.3192 C   0  0  0  0  0  0  0  0  0  0  0  0
   21.1534  -16.3510  -20.5809 C   0  0  0  0  0  0  0  0  0  0  0  0
   21.2672  -17.3423  -21.5267 C   0  0  0  0  0  0  0  0  0  0  0  0
   21.9493  -18.5065  -21.2469 C   0  0  0  0  0  0  0  0  0  0  0  0
   22.5342  -18.6978  -20.0031 C   0  0  0  0  0  0  0  0  0  0  0  0
   22.4181  -17.6976  -19.0560 C   0  0  0  0  0  0  0  0  0  0  0  0
   21.7412  -20.0750  -16.5397 C   0  0  0  0  0  0  0  0  0  0  0  0
   20.5864  -19.6073  -16.6754 O   0  0  0  0  0  0  0  0  0  0  0  0
   21.8945  -21.4090  -16.9654 O   0  0  0  0  0  0  0  0  0  0  0  0
  2  1  1  0
  2  3  1  0
  3  4  2  0
  6  7  1  0
  6  5  1  0
  9  8  1  6
  8  7  1  0
 10  3  1  0
 10  9  1  0
 11  9  1  0
 11 12  2  0
 13 11  1  0
 14 13  1  0
 14 15  1  6
 16 15  1  0
 16 17  2  0
 18 17  1  0
 19 18  1  0
 20 19  2  0
 21 20  1  0
 22 21  2  0
 22 23  1  0
 23 24  2  0
 24 19  1  0
 24 16  1  0
 25 14  1  0
 26 25  2  0
 27 25  1  0
M  END
$$$$
