GMW.pdb
     RDKit          3D

 27 28  0  0  1  0  0  0  0  0999 V2000
   25.9474  -15.7374  -15.5135 N   0  0  0  0  0  0  0  0  0  0  0  0
   26.1881  -15.9284  -14.0981 C   0  0  0  0  0  0  0  0  0  0  0  0
   26.1289  -17.3749  -13.8087 C   0  0  0  0  0  0  0  0  0  0  0  0
   25.0681  -18.0054  -13.9538 O   0  0  0  0  0  0  0  0  0  0  0  0
   26.2995  -23.6716  -13.7860 C   0  0  0  0  0  0  0  0  0  0  0  0
   27.0943  -22.3450  -14.6954 S   0  0  0  0  0  0  0  0  0  0  0  0
   28.4879  -21.6301  -13.8453 C   0  0  0  0  0  0  0  0  0  0  0  0
   28.5353  -20.1512  -13.7778 C   0  0  0  0  0  0  0  0  0  0  0  0
   27.3870  -19.4527  -13.1513 C   0  0  2  0  0  0  0  0  0  0  0  0
   27.3279  -18.0274  -13.3564 N   0  0  0  0  0  0  0  0  0  0  0  0
   27.2916  -19.6938  -11.6678 C   0  0  0  0  0  0  0  0  0  0  0  0
   28.1587  -19.2151  -10.9033 O   0  0  0  0  0  0  0  0  0  0  0  0
   26.2269  -20.4607  -11.1196 N   0  0  0  0  0  0  0  0  0  0  0  0
   26.1846  -20.8989   -9.7287 C   0  0  1  0  0  0  0  0  0  0  0  0
   25.6665  -19.7105   -8.9545 C   0  0  0  0  0  0  0  0  0  0  0  0
   26.7101  -19.1109   -8.0766 C   0  0  0  0  0  0  0  0  0  0  0  0
   27.2565  -17.8505   -8.2861 C   0  0  0  0  0  0  0  0  0  0  0  0
   28.1269  -17.5699   -7.3154 N   0  0  0  0  0  0  0  0  0  0  0  0
   28.1574  -18.6213   -6.4809 C   0  0  0  0  0  0  0  0  0  0  0  0
   28.8936  -18.8644   -5.3149 C   0  0  0  0  0  0  0  0  0  0  0  0
   28.7394  -20.0556   -4.6458 C   0  0  0  0  0  0  0  0  0  0  0  0
   27.8666  -21.0154   -5.1105 C   0  0  0  0  0  0  0  0  0  0  0  0
   27.1272  -20.7949   -6.2639 C   0  0  0  0  0  0  0  0  0  0  0  0
   27.2849  -19.5952   -6.9323 C   0  0  0  0  0  0  0  0  0  0  0  0
   25.4756  -22.1495   -9.5456 C   0  0  0  0  0  0  0  0  0  0  0  0
   25.4665  -22.8334   -8.4955 O   0  0  0  0  0  0  0  0  0  0  0  0
   24.7186  -22.6828  -10.6072 O   0  0  0  0  0  0  0  0  0  0  0  0
  2  1  1  0
  2  3  1  0
  3  4  2  0
  6  7  1  0
  6  5  1  0
  9  8  1  1
  8  7  1  0
 10  3  1  0
 10  9  1  0
 11  9  1  0
 11 12  2  0
 13 11  1  0
 14 13  1  0
 14 15  1  1
 16 15  1  0
 16 17  2  0
 18 17  1  0
 19 18  1  0
 20 19  2  0
 21 20  1  0
 22 21  2  0
 22 23  1  0
 23 24  2  0
 24 19  1  0
 24 16  1  0
 25 14  1  0
 26 25  2  0
 27 25  1  0
M  END
$$$$
