GMW.pdb
     RDKit          3D

 27 28  0  0  1  0  0  0  0  0999 V2000
   27.4099  -22.4613  -13.4483 N   0  0  0  0  0  0  0  0  0  0  0  0
   27.9648  -21.3842  -12.6547 C   0  0  0  0  0  0  0  0  0  0  0  0
   27.4157  -21.4847  -11.2879 C   0  0  0  0  0  0  0  0  0  0  0  0
   26.4829  -22.2665  -11.0377 O   0  0  0  0  0  0  0  0  0  0  0  0
   27.4461  -20.2946   -3.7090 C   0  0  0  0  0  0  0  0  0  0  0  0
   28.2374  -20.5567   -5.2977 S   0  0  0  0  0  0  0  0  0  0  0  0
   27.5333  -19.5861   -6.6160 C   0  0  0  0  0  0  0  0  0  0  0  0
   28.1378  -19.7537   -7.9579 C   0  0  0  0  0  0  0  0  0  0  0  0
   27.3452  -20.4702   -8.9862 C   0  0  2  0  0  0  0  0  0  0  0  0
   27.9888  -20.6558  -10.2622 N   0  0  0  0  0  0  0  0  0  0  0  0
   26.0089  -19.8278   -9.2503 C   0  0  0  0  0  0  0  0  0  0  0  0
   25.9566  -18.6419   -9.6455 O   0  0  0  0  0  0  0  0  0  0  0  0
   24.7999  -20.5511   -9.0566 N   0  0  0  0  0  0  0  0  0  0  0  0
   23.5947  -20.3298   -9.8485 C   0  0  1  0  0  0  0  0  0  0  0  0
   24.0257  -20.5097  -11.2844 C   0  0  0  0  0  0  0  0  0  0  0  0
   22.9021  -20.3028  -12.2405 C   0  0  0  0  0  0  0  0  0  0  0  0
   22.1068  -19.1632  -12.2538 C   0  0  0  0  0  0  0  0  0  0  0  0
   21.2196  -19.2447  -13.2461 N   0  0  0  0  0  0  0  0  0  0  0  0
   21.4215  -20.4129  -13.8765 C   0  0  0  0  0  0  0  0  0  0  0  0
   20.7761  -21.0062  -14.9684 C   0  0  0  0  0  0  0  0  0  0  0  0
   21.1836  -22.2415  -15.4137 C   0  0  0  0  0  0  0  0  0  0  0  0
   22.2223  -22.9042  -14.7964 C   0  0  0  0  0  0  0  0  0  0  0  0
   22.8757  -22.3343  -13.7129 C   0  0  0  0  0  0  0  0  0  0  0  0
   22.4631  -21.0915  -13.2699 C   0  0  0  0  0  0  0  0  0  0  0  0
   22.4673  -21.1262   -9.4066 C   0  0  0  0  0  0  0  0  0  0  0  0
   22.5421  -22.2447   -8.8465 O   0  0  0  0  0  0  0  0  0  0  0  0
   21.1572  -20.6462   -9.6001 O   0  0  0  0  0  0  0  0  0  0  0  0
  2  1  1  0
  2  3  1  0
  3  4  2  0
  6  7  1  0
  6  5  1  0
  9  8  1  1
  8  7  1  0
 10  3  1  0
 10  9  1  0
 11  9  1  0
 11 12  2  0
 13 11  1  0
 14 13  1  0
 14 15  1  6
 16 15  1  0
 16 17  2  0
 18 17  1  0
 19 18  1  0
 20 19  2  0
 21 20  1  0
 22 21  2  0
 22 23  1  0
 23 24  2  0
 24 19  1  0
 24 16  1  0
 25 14  1  0
 26 25  2  0
 27 25  1  0
M  END
$$$$
