GMW.pdb
     RDKit          3D

 27 28  0  0  1  0  0  0  0  0999 V2000
   29.8429  -23.0032  -17.2910 N   0  0  0  0  0  0  0  0  0  0  0  0
   28.8452  -21.9990  -17.5977 C   0  0  0  0  0  0  0  0  0  0  0  0
   28.5604  -21.2368  -16.3658 C   0  0  0  0  0  0  0  0  0  0  0  0
   29.4817  -20.7009  -15.7272 O   0  0  0  0  0  0  0  0  0  0  0  0
   26.7931  -15.6762  -14.5536 C   0  0  0  0  0  0  0  0  0  0  0  0
   27.7771  -16.7750  -15.5749 S   0  0  0  0  0  0  0  0  0  0  0  0
   26.8291  -18.0671  -16.3544 C   0  0  0  0  0  0  0  0  0  0  0  0
   26.0778  -18.9725  -15.4546 C   0  0  0  0  0  0  0  0  0  0  0  0
   26.7813  -20.1721  -14.9398 C   0  0  2  0  0  0  0  0  0  0  0  0
   27.1938  -21.1344  -15.9301 N   0  0  0  0  0  0  0  0  0  0  0  0
   25.9876  -20.9164  -13.8986 C   0  0  0  0  0  0  0  0  0  0  0  0
   24.8946  -21.4409  -14.2077 O   0  0  0  0  0  0  0  0  0  0  0  0
   26.4630  -21.0330  -12.5634 N   0  0  0  0  0  0  0  0  0  0  0  0
   25.6896  -21.6381  -11.4844 C   0  0  1  0  0  0  0  0  0  0  0  0
   26.6987  -21.9680  -10.4105 C   0  0  0  0  0  0  0  0  0  0  0  0
   26.7232  -20.9461   -9.3268 C   0  0  0  0  0  0  0  0  0  0  0  0
   25.6686  -20.0795   -9.0662 C   0  0  0  0  0  0  0  0  0  0  0  0
   25.9626  -19.3161   -8.0130 N   0  0  0  0  0  0  0  0  0  0  0  0
   27.1855  -19.6681   -7.5850 C   0  0  0  0  0  0  0  0  0  0  0  0
   27.9778  -19.1914   -6.5334 C   0  0  0  0  0  0  0  0  0  0  0  0
   29.2237  -19.7314   -6.3180 C   0  0  0  0  0  0  0  0  0  0  0  0
   29.7031  -20.7388   -7.1269 C   0  0  0  0  0  0  0  0  0  0  0  0
   28.9345  -21.2260   -8.1745 C   0  0  0  0  0  0  0  0  0  0  0  0
   27.6819  -20.6807   -8.3861 C   0  0  0  0  0  0  0  0  0  0  0  0
   24.5518  -20.8371  -11.0791 C   0  0  0  0  0  0  0  0  0  0  0  0
   24.4633  -19.5918  -11.1879 O   0  0  0  0  0  0  0  0  0  0  0  0
   23.4261  -21.4642  -10.5100 O   0  0  0  0  0  0  0  0  0  0  0  0
  2  1  1  0
  2  3  1  0
  3  4  2  0
  6  7  1  0
  6  5  1  0
  9  8  1  6
  8  7  1  0
 10  3  1  0
 10  9  1  0
 11  9  1  0
 11 12  2  0
 13 11  1  0
 14 13  1  0
 14 15  1  1
 16 15  1  0
 16 17  2  0
 18 17  1  0
 19 18  1  0
 20 19  2  0
 21 20  1  0
 22 21  2  0
 22 23  1  0
 23 24  2  0
 24 19  1  0
 24 16  1  0
 25 14  1  0
 26 25  2  0
 27 25  1  0
M  END
$$$$
