GMW.pdb
     RDKit          3D

 27 28  0  0  1  0  0  0  0  0999 V2000
   30.8226  -22.2554  -10.9525 N   0  0  0  0  0  0  0  0  0  0  0  0
   30.1517  -20.9728  -10.8996 C   0  0  0  0  0  0  0  0  0  0  0  0
   28.9478  -21.1136  -10.0568 C   0  0  0  0  0  0  0  0  0  0  0  0
   28.1667  -22.0652  -10.2249 O   0  0  0  0  0  0  0  0  0  0  0  0
   27.1216  -18.8038   -3.6344 C   0  0  0  0  0  0  0  0  0  0  0  0
   28.1294  -20.1307   -4.2993 S   0  0  0  0  0  0  0  0  0  0  0  0
   28.6489  -19.8597   -5.9823 C   0  0  0  0  0  0  0  0  0  0  0  0
   27.6032  -19.4236   -6.9364 C   0  0  0  0  0  0  0  0  0  0  0  0
   27.5147  -20.1349   -8.2345 C   0  0  2  0  0  0  0  0  0  0  0  0
   28.7078  -20.1227   -9.0428 N   0  0  0  0  0  0  0  0  0  0  0  0
   26.3854  -19.6400   -9.0994 C   0  0  0  0  0  0  0  0  0  0  0  0
   26.4334  -18.4880   -9.5849 O   0  0  0  0  0  0  0  0  0  0  0  0
   25.2603  -20.4651   -9.3739 N   0  0  0  0  0  0  0  0  0  0  0  0
   24.4486  -20.3428  -10.5800 C   0  0  1  0  0  0  0  0  0  0  0  0
   25.3368  -20.8175  -11.7051 C   0  0  0  0  0  0  0  0  0  0  0  0
   24.6178  -20.8665  -13.0089 C   0  0  0  0  0  0  0  0  0  0  0  0
   24.0848  -19.7451  -13.6331 C   0  0  0  0  0  0  0  0  0  0  0  0
   23.5456  -20.0938  -14.8019 N   0  0  0  0  0  0  0  0  0  0  0  0
   23.7165  -21.4174  -14.9493 C   0  0  0  0  0  0  0  0  0  0  0  0
   23.3413  -22.2973  -15.9719 C   0  0  0  0  0  0  0  0  0  0  0  0
   23.6354  -23.6359  -15.8631 C   0  0  0  0  0  0  0  0  0  0  0  0
   24.2966  -24.1231  -14.7565 C   0  0  0  0  0  0  0  0  0  0  0  0
   24.6777  -23.2685  -13.7317 C   0  0  0  0  0  0  0  0  0  0  0  0
   24.3809  -21.9233  -13.8465 C   0  0  0  0  0  0  0  0  0  0  0  0
   23.1536  -20.9831  -10.4638 C   0  0  0  0  0  0  0  0  0  0  0  0
   22.8760  -21.9269   -9.6875 O   0  0  0  0  0  0  0  0  0  0  0  0
   22.0846  -20.5437  -11.2692 O   0  0  0  0  0  0  0  0  0  0  0  0
  2  1  1  0
  2  3  1  0
  3  4  2  0
  6  7  1  0
  6  5  1  0
  9  8  1  1
  8  7  1  0
 10  3  1  0
 10  9  1  0
 11  9  1  0
 11 12  2  0
 13 11  1  0
 14 13  1  0
 14 15  1  6
 16 15  1  0
 16 17  2  0
 18 17  1  0
 19 18  1  0
 20 19  2  0
 21 20  1  0
 22 21  2  0
 22 23  1  0
 23 24  2  0
 24 19  1  0
 24 16  1  0
 25 14  1  0
 26 25  2  0
 27 25  1  0
M  END
$$$$
