GMW.pdb
     RDKit          3D

 27 28  0  0  1  0  0  0  0  0999 V2000
   27.1186  -19.4035  -15.2148 N   0  0  0  0  0  0  0  0  0  0  0  0
   27.0806  -19.1003  -13.7990 C   0  0  0  0  0  0  0  0  0  0  0  0
   27.4905  -20.3078  -13.0551 C   0  0  0  0  0  0  0  0  0  0  0  0
   27.1697  -21.4382  -13.4591 O   0  0  0  0  0  0  0  0  0  0  0  0
   32.7086  -22.3478   -9.0852 C   0  0  0  0  0  0  0  0  0  0  0  0
   32.5714  -22.3377  -10.8740 S   0  0  0  0  0  0  0  0  0  0  0  0
   31.1583  -21.4353  -11.4778 C   0  0  0  0  0  0  0  0  0  0  0  0
   30.0517  -21.2174  -10.5176 C   0  0  0  0  0  0  0  0  0  0  0  0
   28.6655  -21.2579  -11.0428 C   0  0  2  0  0  0  0  0  0  0  0  0
   28.2667  -20.1373  -11.8566 N   0  0  0  0  0  0  0  0  0  0  0  0
   27.6313  -21.4121   -9.9589 C   0  0  0  0  0  0  0  0  0  0  0  0
   27.7054  -22.3732   -9.1615 O   0  0  0  0  0  0  0  0  0  0  0  0
   26.5670  -20.4783   -9.8271 N   0  0  0  0  0  0  0  0  0  0  0  0
   25.4452  -20.6614   -8.9124 C   0  0  1  0  0  0  0  0  0  0  0  0
   25.5005  -19.4783   -7.9758 C   0  0  0  0  0  0  0  0  0  0  0  0
   26.8229  -19.3548   -7.3009 C   0  0  0  0  0  0  0  0  0  0  0  0
   27.7951  -18.4375   -7.6814 C   0  0  0  0  0  0  0  0  0  0  0  0
   28.8463  -18.5311   -6.8661 N   0  0  0  0  0  0  0  0  0  0  0  0
   28.5775  -19.4897   -5.9652 C   0  0  0  0  0  0  0  0  0  0  0  0
   29.3255  -20.0016   -4.8979 C   0  0  0  0  0  0  0  0  0  0  0  0
   28.8072  -21.0127   -4.1237 C   0  0  0  0  0  0  0  0  0  0  0  0
   27.5571  -21.5297   -4.3866 C   0  0  0  0  0  0  0  0  0  0  0  0
   26.7990  -21.0369   -5.4393 C   0  0  0  0  0  0  0  0  0  0  0  0
   27.3240  -20.0194   -6.2139 C   0  0  0  0  0  0  0  0  0  0  0  0
   24.1859  -20.8902   -9.5923 C   0  0  0  0  0  0  0  0  0  0  0  0
   24.0093  -20.8406  -10.8320 O   0  0  0  0  0  0  0  0  0  0  0  0
   23.0346  -21.1974   -8.8411 O   0  0  0  0  0  0  0  0  0  0  0  0
  2  1  1  0
  2  3  1  0
  3  4  2  0
  6  7  1  0
  6  5  1  0
  9  8  1  1
  8  7  1  0
 10  3  1  0
 10  9  1  0
 11  9  1  0
 11 12  2  0
 13 11  1  0
 14 13  1  0
 14 15  1  6
 16 15  1  0
 16 17  2  0
 18 17  1  0
 19 18  1  0
 20 19  2  0
 21 20  1  0
 22 21  2  0
 22 23  1  0
 23 24  2  0
 24 19  1  0
 24 16  1  0
 25 14  1  0
 26 25  2  0
 27 25  1  0
M  END
$$$$
