GMW.pdb
     RDKit          3D

 27 28  0  0  1  0  0  0  0  0999 V2000
   17.7639  -28.4854  -12.9378 N   0  0  0  0  0  0  0  0  0  0  0  0
   18.4736  -27.9608  -14.0862 C   0  0  0  0  0  0  0  0  0  0  0  0
   19.4252  -26.9353  -13.6145 C   0  0  0  0  0  0  0  0  0  0  0  0
   19.7195  -26.8528  -12.4102 O   0  0  0  0  0  0  0  0  0  0  0  0
   25.5689  -23.2992  -13.2597 C   0  0  0  0  0  0  0  0  0  0  0  0
   24.2202  -24.4249  -13.6235 S   0  0  0  0  0  0  0  0  0  0  0  0
   23.0939  -23.8148  -14.8625 C   0  0  0  0  0  0  0  0  0  0  0  0
   21.9836  -24.7155  -15.2497 C   0  0  0  0  0  0  0  0  0  0  0  0
   20.9699  -25.0428  -14.2181 C   0  0  2  0  0  0  0  0  0  0  0  0
   19.9970  -26.0409  -14.5844 N   0  0  0  0  0  0  0  0  0  0  0  0
   20.2099  -23.8346  -13.7378 C   0  0  0  0  0  0  0  0  0  0  0  0
   20.8022  -22.9467  -13.0850 O   0  0  0  0  0  0  0  0  0  0  0  0
   18.8232  -23.6863  -14.0158 N   0  0  0  0  0  0  0  0  0  0  0  0
   18.0316  -22.5441  -13.5714 C   0  0  1  0  0  0  0  0  0  0  0  0
   17.7217  -21.7645  -14.8269 C   0  0  0  0  0  0  0  0  0  0  0  0
   18.9137  -21.0394  -15.3491 C   0  0  0  0  0  0  0  0  0  0  0  0
   19.6962  -21.5063  -16.3983 C   0  0  0  0  0  0  0  0  0  0  0  0
   20.6582  -20.6237  -16.6702 N   0  0  0  0  0  0  0  0  0  0  0  0
   20.5174  -19.5945  -15.8195 C   0  0  0  0  0  0  0  0  0  0  0  0
   21.2511  -18.4130  -15.6566 C   0  0  0  0  0  0  0  0  0  0  0  0
   20.8916  -17.5151  -14.6795 C   0  0  0  0  0  0  0  0  0  0  0  0
   19.8150  -17.7649  -13.8564 C   0  0  0  0  0  0  0  0  0  0  0  0
   19.0741  -18.9294  -14.0007 C   0  0  0  0  0  0  0  0  0  0  0  0
   19.4388  -19.8284  -14.9855 C   0  0  0  0  0  0  0  0  0  0  0  0
   16.9003  -22.9198  -12.7472 C   0  0  0  0  0  0  0  0  0  0  0  0
   16.6079  -24.0887  -12.4026 O   0  0  0  0  0  0  0  0  0  0  0  0
   16.0265  -21.9241  -12.2680 O   0  0  0  0  0  0  0  0  0  0  0  0
  2  1  1  0
  2  3  1  0
  3  4  2  0
  6  7  1  0
  6  5  1  0
  9  8  1  6
  8  7  1  0
 10  3  1  0
 10  9  1  0
 11  9  1  0
 11 12  2  0
 13 11  1  0
 14 13  1  0
 14 15  1  6
 16 15  1  0
 16 17  2  0
 18 17  1  0
 19 18  1  0
 20 19  2  0
 21 20  1  0
 22 21  2  0
 22 23  1  0
 23 24  2  0
 24 19  1  0
 24 16  1  0
 25 14  1  0
 26 25  2  0
 27 25  1  0
M  END
$$$$
