GMW.pdb
     RDKit          3D

 27 28  0  0  1  0  0  0  0  0999 V2000
   27.0036  -25.7039  -17.6000 N   0  0  0  0  0  0  0  0  0  0  0  0
   26.6446  -24.3183  -17.8214 C   0  0  0  0  0  0  0  0  0  0  0  0
   27.0094  -23.5467  -16.6167 C   0  0  0  0  0  0  0  0  0  0  0  0
   27.6183  -24.0891  -15.6793 O   0  0  0  0  0  0  0  0  0  0  0  0
   29.6274  -19.0581  -12.2975 C   0  0  0  0  0  0  0  0  0  0  0  0
   29.5703  -19.4911  -14.0376 S   0  0  0  0  0  0  0  0  0  0  0  0
   28.0421  -19.0418  -14.8366 C   0  0  0  0  0  0  0  0  0  0  0  0
   27.5583  -19.9517  -15.9006 C   0  0  0  0  0  0  0  0  0  0  0  0
   27.0818  -21.2958  -15.4940 C   0  0  2  0  0  0  0  0  0  0  0  0
   26.6407  -22.1578  -16.5614 N   0  0  0  0  0  0  0  0  0  0  0  0
   25.9724  -21.2424  -14.4769 C   0  0  0  0  0  0  0  0  0  0  0  0
   24.8342  -20.8514  -14.8186 O   0  0  0  0  0  0  0  0  0  0  0  0
   26.1993  -21.6310  -13.1279 N   0  0  0  0  0  0  0  0  0  0  0  0
   25.1519  -21.6613  -12.1128 C   0  0  1  0  0  0  0  0  0  0  0  0
   25.8250  -22.1797  -10.8644 C   0  0  0  0  0  0  0  0  0  0  0  0
   26.1588  -21.0869   -9.9085 C   0  0  0  0  0  0  0  0  0  0  0  0
   25.2394  -20.1383   -9.4772 C   0  0  0  0  0  0  0  0  0  0  0  0
   25.8151  -19.3222   -8.5935 N   0  0  0  0  0  0  0  0  0  0  0  0
   27.0885  -19.7204   -8.4426 C   0  0  0  0  0  0  0  0  0  0  0  0
   28.1337  -19.2217   -7.6555 C   0  0  0  0  0  0  0  0  0  0  0  0
   29.3691  -19.8235   -7.6998 C   0  0  0  0  0  0  0  0  0  0  0  0
   29.5913  -20.9145   -8.5119 C   0  0  0  0  0  0  0  0  0  0  0  0
   28.5694  -21.4249   -9.2999 C   0  0  0  0  0  0  0  0  0  0  0  0
   27.3288  -20.8171   -9.2507 C   0  0  0  0  0  0  0  0  0  0  0  0
   24.4397  -20.4051  -11.9898 C   0  0  0  0  0  0  0  0  0  0  0  0
   23.2455  -20.2782  -11.6317 O   0  0  0  0  0  0  0  0  0  0  0  0
   25.1015  -19.1974  -12.2863 O   0  0  0  0  0  0  0  0  0  0  0  0
  2  1  1  0
  2  3  1  0
  3  4  2  0
  6  7  1  0
  6  5  1  0
  9  8  1  6
  8  7  1  0
 10  3  1  0
 10  9  1  0
 11  9  1  0
 11 12  2  0
 13 11  1  0
 14 13  1  0
 14 15  1  1
 16 15  1  0
 16 17  2  0
 18 17  1  0
 19 18  1  0
 20 19  2  0
 21 20  1  0
 22 21  2  0
 22 23  1  0
 23 24  2  0
 24 19  1  0
 24 16  1  0
 25 14  1  0
 26 25  2  0
 27 25  1  0
M  END
$$$$
