GMW.pdb
     RDKit          3D

 27 28  0  0  1  0  0  0  0  0999 V2000
   31.0454  -22.4404  -11.7528 N   0  0  0  0  0  0  0  0  0  0  0  0
   30.5043  -21.3704  -10.9403 C   0  0  0  0  0  0  0  0  0  0  0  0
   29.1451  -21.7556  -10.5116 C   0  0  0  0  0  0  0  0  0  0  0  0
   28.4346  -22.4745  -11.2344 O   0  0  0  0  0  0  0  0  0  0  0  0
   27.4211  -18.0883   -4.4322 C   0  0  0  0  0  0  0  0  0  0  0  0
   27.1163  -19.7474   -5.0430 S   0  0  0  0  0  0  0  0  0  0  0  0
   27.3285  -19.9110   -6.8048 C   0  0  0  0  0  0  0  0  0  0  0  0
   27.0248  -21.2381   -7.3883 C   0  0  0  0  0  0  0  0  0  0  0  0
   27.2985  -21.4350   -8.8324 C   0  0  2  0  0  0  0  0  0  0  0  0
   28.6714  -21.2766   -9.2412 N   0  0  0  0  0  0  0  0  0  0  0  0
   26.4650  -20.5435   -9.7148 C   0  0  0  0  0  0  0  0  0  0  0  0
   26.8926  -19.4128  -10.0370 O   0  0  0  0  0  0  0  0  0  0  0  0
   25.1937  -20.9685  -10.1895 N   0  0  0  0  0  0  0  0  0  0  0  0
   24.4884  -20.3202  -11.2898 C   0  0  1  0  0  0  0  0  0  0  0  0
   25.4378  -20.3856  -12.4622 C   0  0  0  0  0  0  0  0  0  0  0  0
   24.8804  -19.7269  -13.6766 C   0  0  0  0  0  0  0  0  0  0  0  0
   25.4032  -18.5620  -14.2252 C   0  0  0  0  0  0  0  0  0  0  0  0
   24.7269  -18.2409  -15.3288 N   0  0  0  0  0  0  0  0  0  0  0  0
   23.7761  -19.1719  -15.5079 C   0  0  0  0  0  0  0  0  0  0  0  0
   22.7891  -19.3189  -16.4901 C   0  0  0  0  0  0  0  0  0  0  0  0
   21.9172  -20.3802  -16.4286 C   0  0  0  0  0  0  0  0  0  0  0  0
   22.0036  -21.3032  -15.4091 C   0  0  0  0  0  0  0  0  0  0  0  0
   22.9743  -21.1766  -14.4255 C   0  0  0  0  0  0  0  0  0  0  0  0
   23.8493  -20.1085  -14.4925 C   0  0  0  0  0  0  0  0  0  0  0  0
   23.1568  -20.8501  -11.5052 C   0  0  0  0  0  0  0  0  0  0  0  0
   22.8414  -22.0624  -11.4663 O   0  0  0  0  0  0  0  0  0  0  0  0
   22.0935  -19.9694  -11.7849 O   0  0  0  0  0  0  0  0  0  0  0  0
  2  1  1  0
  2  3  1  0
  3  4  2  0
  6  7  1  0
  6  5  1  0
  9  8  1  1
  8  7  1  0
 10  3  1  0
 10  9  1  0
 11  9  1  0
 11 12  2  0
 13 11  1  0
 14 13  1  0
 14 15  1  6
 16 15  1  0
 16 17  2  0
 18 17  1  0
 19 18  1  0
 20 19  2  0
 21 20  1  0
 22 21  2  0
 22 23  1  0
 23 24  2  0
 24 19  1  0
 24 16  1  0
 25 14  1  0
 26 25  2  0
 27 25  1  0
M  END
$$$$
