GMW.pdb
     RDKit          3D

 27 28  0  0  1  0  0  0  0  0999 V2000
   29.6194  -21.5864  -17.0592 N   0  0  0  0  0  0  0  0  0  0  0  0
   29.3278  -20.5881  -16.0510 C   0  0  0  0  0  0  0  0  0  0  0  0
   29.1255  -21.2772  -14.7612 C   0  0  0  0  0  0  0  0  0  0  0  0
   28.6581  -22.4280  -14.7260 O   0  0  0  0  0  0  0  0  0  0  0  0
   32.3038  -22.7410   -8.8578 C   0  0  0  0  0  0  0  0  0  0  0  0
   32.7857  -22.2280  -10.5081 S   0  0  0  0  0  0  0  0  0  0  0  0
   31.4253  -22.1411  -11.6558 C   0  0  0  0  0  0  0  0  0  0  0  0
   30.3252  -21.2114  -11.3101 C   0  0  0  0  0  0  0  0  0  0  0  0
   29.1827  -21.1156  -12.2506 C   0  0  2  0  0  0  0  0  0  0  0  0
   29.4828  -20.5809  -13.5548 N   0  0  0  0  0  0  0  0  0  0  0  0
   28.0313  -20.3187  -11.6963 C   0  0  0  0  0  0  0  0  0  0  0  0
   28.0633  -19.0687  -11.7383 O   0  0  0  0  0  0  0  0  0  0  0  0
   26.9032  -20.9674  -11.1230 N   0  0  0  0  0  0  0  0  0  0  0  0
   25.7997  -20.2525  -10.4908 C   0  0  1  0  0  0  0  0  0  0  0  0
   25.2939  -19.2945  -11.5426 C   0  0  0  0  0  0  0  0  0  0  0  0
   24.4795  -19.9799  -12.5849 C   0  0  0  0  0  0  0  0  0  0  0  0
   23.2311  -20.5383  -12.3379 C   0  0  0  0  0  0  0  0  0  0  0  0
   22.7289  -21.0365  -13.4684 N   0  0  0  0  0  0  0  0  0  0  0  0
   23.6248  -20.8140  -14.4435 C   0  0  0  0  0  0  0  0  0  0  0  0
   23.6163  -21.1324  -15.8071 C   0  0  0  0  0  0  0  0  0  0  0  0
   24.6910  -20.7924  -16.5943 C   0  0  0  0  0  0  0  0  0  0  0  0
   25.7791  -20.1404  -16.0559 C   0  0  0  0  0  0  0  0  0  0  0  0
   25.8080  -19.8153  -14.7071 C   0  0  0  0  0  0  0  0  0  0  0  0
   24.7245  -20.1581  -13.9200 C   0  0  0  0  0  0  0  0  0  0  0  0
   24.8171  -21.1339   -9.8922 C   0  0  0  0  0  0  0  0  0  0  0  0
   24.7360  -22.3696  -10.0840 O   0  0  0  0  0  0  0  0  0  0  0  0
   23.8509  -20.6054   -9.0139 O   0  0  0  0  0  0  0  0  0  0  0  0
  2  1  1  0
  2  3  1  0
  3  4  2  0
  6  7  1  0
  6  5  1  0
  9  8  1  1
  8  7  1  0
 10  3  1  0
 10  9  1  0
 11  9  1  0
 11 12  2  0
 13 11  1  0
 14 13  1  0
 14 15  1  6
 16 15  1  0
 16 17  2  0
 18 17  1  0
 19 18  1  0
 20 19  2  0
 21 20  1  0
 22 21  2  0
 22 23  1  0
 23 24  2  0
 24 19  1  0
 24 16  1  0
 25 14  1  0
 26 25  2  0
 27 25  1  0
M  END
$$$$
