WPD.pdb
     RDKit          3D

 30 32  0  0  1  0  0  0  0  0999 V2000
    6.1596  -17.3582   24.1947 N   0  0  0  0  0  0  0  0  0  0  0  0
    6.7966  -16.2574   23.5458 C   0  0  1  0  0  0  0  0  0  0  0  0
    7.7461  -15.4845   24.4233 C   0  0  0  0  0  0  0  0  0  0  0  0
    6.9661  -14.6082   25.3338 C   0  0  0  0  0  0  0  0  0  0  0  0
    5.8029  -14.9670   25.9894 C   0  0  0  0  0  0  0  0  0  0  0  0
    5.3688  -13.9539   26.7302 N   0  0  0  0  0  0  0  0  0  0  0  0
    6.2271  -12.9417   26.5687 C   0  0  0  0  0  0  0  0  0  0  0  0
    6.2443  -11.6772   27.0943 C   0  0  0  0  0  0  0  0  0  0  0  0
    7.2313  -10.7965   26.7784 C   0  0  0  0  0  0  0  0  0  0  0  0
    8.2246  -11.1748   25.9238 C   0  0  0  0  0  0  0  0  0  0  0  0
    8.2548  -12.4529   25.3596 C   0  0  0  0  0  0  0  0  0  0  0  0
    7.2394  -13.3166   25.7013 C   0  0  0  0  0  0  0  0  0  0  0  0
    7.4686  -16.5719   22.2695 C   0  0  0  0  0  0  0  0  0  0  0  0
    7.2904  -17.7991   21.8805 O   0  0  0  0  0  0  0  0  0  0  0  0
    8.2427  -15.7036   21.4861 N   0  0  0  0  0  0  0  0  0  0  0  0
    8.5700  -14.3373   21.8254 C   0  0  0  0  0  0  0  0  0  0  0  0
    8.2744  -13.6494   20.4976 C   0  0  0  0  0  0  0  0  0  0  0  0
    8.4576  -14.6958   19.4537 C   0  0  0  0  0  0  0  0  0  0  0  0
    8.8554  -15.9491   20.2260 C   0  0  1  0  0  0  0  0  0  0  0  0
   10.3414  -16.1023   20.2696 C   0  0  0  0  0  0  0  0  0  0  0  0
   11.0419  -15.0747   20.1348 O   0  0  0  0  0  0  0  0  0  0  0  0
   10.9778  -17.3415   20.4567 N   0  0  0  0  0  0  0  0  0  0  0  0
   12.1311  -17.8922   19.8346 C   0  0  1  0  0  0  0  0  0  0  0  0
   11.8618  -18.4874   18.4802 C   0  0  0  0  0  0  0  0  0  0  0  0
   11.1073  -19.7568   18.6113 C   0  0  0  0  0  0  0  0  0  0  0  0
   10.6359  -20.2572   17.5311 O   0  0  0  0  0  0  0  0  0  0  0  0
   13.3307  -17.0042   19.8327 C   0  0  0  0  0  0  0  0  0  0  0  0
   13.4046  -15.9522   18.9417 O   0  0  0  0  0  0  0  0  0  0  0  0
   10.8625  -20.4435   19.7685 O   0  0  0  0  0  0  0  0  0  0  0  0
   14.2900  -17.1577   20.6016 O   0  0  0  0  0  0  0  0  0  0  0  0
  2  1  1  1
  2  3  1  0
  3  4  1  0
  4  5  2  0
  4 12  1  0
  5  6  1  0
  6  7  1  0
  7  8  2  0
  8  9  1  0
 10  9  2  0
 11 10  1  0
 12 11  2  0
 12  7  1  0
 13  2  1  0
 14 13  2  0
 15 19  1  0
 15 13  1  0
 16 17  1  0
 16 15  1  0
 17 18  1  0
 18 19  1  0
 20 22  1  0
 19 20  1  1
 21 20  2  0
 23 22  1  0
 23 24  1  6
 24 25  1  0
 25 29  1  0
 26 25  2  0
 27 23  1  0
 28 27  1  0
 30 27  2  0
M  END
$$$$
