WPD.pdb
     RDKit          3D

 30 32  0  0  1  0  0  0  0  0999 V2000
    6.6358  -17.2912   23.8352 N   0  0  0  0  0  0  0  0  0  0  0  0
    7.1314  -16.0832   23.2577 C   0  0  1  0  0  0  0  0  0  0  0  0
    8.0922  -15.3243   24.1350 C   0  0  0  0  0  0  0  0  0  0  0  0
    7.3296  -14.6082   25.1892 C   0  0  0  0  0  0  0  0  0  0  0  0
    6.2726  -15.1329   25.9096 C   0  0  0  0  0  0  0  0  0  0  0  0
    5.8241  -14.2331   26.7773 N   0  0  0  0  0  0  0  0  0  0  0  0
    6.5687  -13.1320   26.6348 C   0  0  0  0  0  0  0  0  0  0  0  0
    6.5241  -11.9206   27.2722 C   0  0  0  0  0  0  0  0  0  0  0  0
    7.3930  -10.9242   26.9528 C   0  0  0  0  0  0  0  0  0  0  0  0
    8.3279  -11.1304   25.9815 C   0  0  0  0  0  0  0  0  0  0  0  0
    8.4170  -12.3473   25.3004 C   0  0  0  0  0  0  0  0  0  0  0  0
    7.5210  -13.3317   25.6494 C   0  0  0  0  0  0  0  0  0  0  0  0
    7.7137  -16.2144   21.9074 C   0  0  0  0  0  0  0  0  0  0  0  0
    7.6922  -17.4313   21.4514 O   0  0  0  0  0  0  0  0  0  0  0  0
    8.2600  -15.1904   21.1200 N   0  0  0  0  0  0  0  0  0  0  0  0
    8.3569  -13.8004   21.5040 C   0  0  0  0  0  0  0  0  0  0  0  0
    7.8484  -13.1313   20.2322 C   0  0  0  0  0  0  0  0  0  0  0  0
    8.1444  -14.0874   19.1294 C   0  0  0  0  0  0  0  0  0  0  0  0
    8.8166  -15.2730   19.8135 C   0  0  1  0  0  0  0  0  0  0  0  0
   10.3051  -15.1510   19.7563 C   0  0  0  0  0  0  0  0  0  0  0  0
   10.7903  -14.0970   19.2890 O   0  0  0  0  0  0  0  0  0  0  0  0
   11.1735  -16.1613   20.2043 N   0  0  0  0  0  0  0  0  0  0  0  0
   12.4185  -16.0762   20.8848 C   0  0  1  0  0  0  0  0  0  0  0  0
   12.9924  -14.6869   20.9245 C   0  0  0  0  0  0  0  0  0  0  0  0
   14.1553  -14.5788   20.0114 C   0  0  0  0  0  0  0  0  0  0  0  0
   14.1940  -15.4040   19.0331 O   0  0  0  0  0  0  0  0  0  0  0  0
   12.4526  -16.7396   22.2214 C   0  0  0  0  0  0  0  0  0  0  0  0
   11.8380  -16.1388   23.3018 O   0  0  0  0  0  0  0  0  0  0  0  0
   15.1898  -13.6898   20.1111 O   0  0  0  0  0  0  0  0  0  0  0  0
   13.0142  -17.8248   22.4263 O   0  0  0  0  0  0  0  0  0  0  0  0
  2  1  1  1
  2  3  1  0
  3  4  1  0
  4  5  2  0
  4 12  1  0
  5  6  1  0
  6  7  1  0
  7  8  2  0
  8  9  1  0
 10  9  2  0
 11 10  1  0
 12 11  2  0
 12  7  1  0
 13  2  1  0
 14 13  2  0
 15 19  1  0
 15 13  1  0
 16 17  1  0
 16 15  1  0
 17 18  1  0
 18 19  1  0
 20 22  1  0
 19 20  1  1
 21 20  2  0
 23 22  1  0
 23 24  1  1
 24 25  1  0
 25 29  1  0
 26 25  2  0
 27 23  1  0
 28 27  1  0
 30 27  2  0
M  END
$$$$
