WPD.pdb
     RDKit          3D

 30 32  0  0  1  0  0  0  0  0999 V2000
    6.4043  -17.6389   24.9778 N   0  0  0  0  0  0  0  0  0  0  0  0
    6.9883  -16.6140   24.1734 C   0  0  1  0  0  0  0  0  0  0  0  0
    7.8802  -15.6643   24.9292 C   0  0  0  0  0  0  0  0  0  0  0  0
    7.0403  -14.6686   25.6425 C   0  0  0  0  0  0  0  0  0  0  0  0
    5.7201  -14.8510   26.0105 C   0  0  0  0  0  0  0  0  0  0  0  0
    5.2712  -13.7707   26.6391 N   0  0  0  0  0  0  0  0  0  0  0  0
    6.2739  -12.8879   26.6865 C   0  0  0  0  0  0  0  0  0  0  0  0
    6.3436  -11.6248   27.2110 C   0  0  0  0  0  0  0  0  0  0  0  0
    7.4878  -10.8933   27.1368 C   0  0  0  0  0  0  0  0  0  0  0  0
    8.5887  -11.4231   26.5306 C   0  0  0  0  0  0  0  0  0  0  0  0
    8.5717  -12.7071   25.9793 C   0  0  0  0  0  0  0  0  0  0  0  0
    7.3967  -13.4171   26.0723 C   0  0  0  0  0  0  0  0  0  0  0  0
    7.6957  -17.0787   22.9637 C   0  0  0  0  0  0  0  0  0  0  0  0
    7.7085  -18.3722   22.8376 O   0  0  0  0  0  0  0  0  0  0  0  0
    8.3222  -16.2830   21.9936 N   0  0  0  0  0  0  0  0  0  0  0  0
    8.6319  -14.8784   22.1356 C   0  0  0  0  0  0  0  0  0  0  0  0
    8.1354  -14.3537   20.7933 C   0  0  0  0  0  0  0  0  0  0  0  0
    8.2251  -15.5058   19.8537 C   0  0  0  0  0  0  0  0  0  0  0  0
    8.7743  -16.6521   20.6963 C   0  0  1  0  0  0  0  0  0  0  0  0
   10.2584  -16.7573   20.5550 C   0  0  0  0  0  0  0  0  0  0  0  0
   10.7184  -17.1320   19.4538 O   0  0  0  0  0  0  0  0  0  0  0  0
   11.1499  -16.4528   21.5981 N   0  0  0  0  0  0  0  0  0  0  0  0
   12.0835  -17.2745   22.2864 C   0  0  1  0  0  0  0  0  0  0  0  0
   13.5189  -16.9350   21.9938 C   0  0  0  0  0  0  0  0  0  0  0  0
   13.7560  -16.8972   20.5309 C   0  0  0  0  0  0  0  0  0  0  0  0
   13.7326  -18.0208   19.9176 O   0  0  0  0  0  0  0  0  0  0  0  0
   11.8270  -17.4313   23.7484 C   0  0  0  0  0  0  0  0  0  0  0  0
   12.5648  -18.3393   24.4812 O   0  0  0  0  0  0  0  0  0  0  0  0
   13.9996  -15.7847   19.7734 O   0  0  0  0  0  0  0  0  0  0  0  0
   10.9694  -16.7796   24.3607 O   0  0  0  0  0  0  0  0  0  0  0  0
  2  1  1  1
  2  3  1  0
  3  4  1  0
  4  5  2  0
  4 12  1  0
  5  6  1  0
  6  7  1  0
  7  8  2  0
  8  9  1  0
 10  9  2  0
 11 10  1  0
 12 11  2  0
 12  7  1  0
 13  2  1  0
 14 13  2  0
 15 19  1  0
 15 13  1  0
 16 17  1  0
 16 15  1  0
 17 18  1  0
 18 19  1  0
 20 22  1  0
 19 20  1  1
 21 20  2  0
 23 22  1  0
 23 24  1  1
 24 25  1  0
 25 29  1  0
 26 25  2  0
 27 23  1  0
 28 27  1  0
 30 27  2  0
M  END
$$$$
