WPD.pdb
     RDKit          3D

 30 32  0  0  1  0  0  0  0  0999 V2000
    6.4372  -17.4215   23.5780 N   0  0  0  0  0  0  0  0  0  0  0  0
    6.9923  -16.1895   23.1170 C   0  0  1  0  0  0  0  0  0  0  0  0
    7.9067  -15.5127   24.1042 C   0  0  0  0  0  0  0  0  0  0  0  0
    7.0889  -14.7890   25.1107 C   0  0  0  0  0  0  0  0  0  0  0  0
    5.9774  -15.2986   25.7561 C   0  0  0  0  0  0  0  0  0  0  0  0
    5.4886  -14.3958   26.5986 N   0  0  0  0  0  0  0  0  0  0  0  0
    6.2603  -13.3076   26.5132 C   0  0  0  0  0  0  0  0  0  0  0  0
    6.1951  -12.0993   27.1546 C   0  0  0  0  0  0  0  0  0  0  0  0
    7.1006  -11.1170   26.9002 C   0  0  0  0  0  0  0  0  0  0  0  0
    8.0940  -11.3344   25.9914 C   0  0  0  0  0  0  0  0  0  0  0  0
    8.2063  -12.5489   25.3092 C   0  0  0  0  0  0  0  0  0  0  0  0
    7.2720  -13.5188   25.5914 C   0  0  0  0  0  0  0  0  0  0  0  0
    7.6603  -16.2442   21.8015 C   0  0  0  0  0  0  0  0  0  0  0  0
    7.7120  -17.4411   21.2977 O   0  0  0  0  0  0  0  0  0  0  0  0
    8.2150  -15.1700   21.0906 N   0  0  0  0  0  0  0  0  0  0  0  0
    8.2384  -13.7950   21.5353 C   0  0  0  0  0  0  0  0  0  0  0  0
    7.7824  -13.0903   20.2628 C   0  0  0  0  0  0  0  0  0  0  0  0
    8.1779  -13.9884   19.1425 C   0  0  0  0  0  0  0  0  0  0  0  0
    8.8508  -15.1785   19.8182 C   0  0  1  0  0  0  0  0  0  0  0  0
   10.3346  -15.0040   19.8566 C   0  0  0  0  0  0  0  0  0  0  0  0
   10.7859  -13.8824   20.1777 O   0  0  0  0  0  0  0  0  0  0  0  0
   11.2351  -16.0394   19.5521 N   0  0  0  0  0  0  0  0  0  0  0  0
   12.5049  -16.3542   20.1079 C   0  0  1  0  0  0  0  0  0  0  0  0
   13.3181  -15.1457   20.4814 C   0  0  0  0  0  0  0  0  0  0  0  0
   14.3319  -14.8591   19.4384 C   0  0  0  0  0  0  0  0  0  0  0  0
   14.1600  -15.4234   18.3021 O   0  0  0  0  0  0  0  0  0  0  0  0
   12.4809  -17.3767   21.1950 C   0  0  0  0  0  0  0  0  0  0  0  0
   11.7369  -17.1487   22.3354 O   0  0  0  0  0  0  0  0  0  0  0  0
   15.4314  -14.0562   19.5696 O   0  0  0  0  0  0  0  0  0  0  0  0
   13.1048  -18.4454   21.1353 O   0  0  0  0  0  0  0  0  0  0  0  0
  2  1  1  1
  2  3  1  0
  3  4  1  0
  4  5  2  0
  4 12  1  0
  5  6  1  0
  6  7  1  0
  7  8  2  0
  8  9  1  0
 10  9  2  0
 11 10  1  0
 12 11  2  0
 12  7  1  0
 13  2  1  0
 14 13  2  0
 15 19  1  0
 15 13  1  0
 16 17  1  0
 16 15  1  0
 17 18  1  0
 18 19  1  0
 20 22  1  0
 19 20  1  1
 21 20  2  0
 23 22  1  0
 23 24  1  1
 24 25  1  0
 25 29  1  0
 26 25  2  0
 27 23  1  0
 28 27  1  0
 30 27  2  0
M  END
$$$$
