WPD.pdb
     RDKit          3D

 30 32  0  0  1  0  0  0  0  0999 V2000
    5.6541  -17.4862   24.2779 N   0  0  0  0  0  0  0  0  0  0  0  0
    6.5164  -16.4314   23.8508 C   0  0  1  0  0  0  0  0  0  0  0  0
    7.4281  -15.9011   24.9261 C   0  0  0  0  0  0  0  0  0  0  0  0
    6.7606  -14.7689   25.6178 C   0  0  0  0  0  0  0  0  0  0  0  0
    5.4552  -14.7659   26.0732 C   0  0  0  0  0  0  0  0  0  0  0  0
    5.1795  -13.6029   26.6521 N   0  0  0  0  0  0  0  0  0  0  0  0
    6.2807  -12.8482   26.5814 C   0  0  0  0  0  0  0  0  0  0  0  0
    6.5338  -11.5738   27.0144 C   0  0  0  0  0  0  0  0  0  0  0  0
    7.7491  -10.9937   26.8246 C   0  0  0  0  0  0  0  0  0  0  0  0
    8.7374  -11.6898   26.1929 C   0  0  0  0  0  0  0  0  0  0  0  0
    8.5323  -12.9928   25.7317 C   0  0  0  0  0  0  0  0  0  0  0  0
    7.2901  -13.5469   25.9404 C   0  0  0  0  0  0  0  0  0  0  0  0
    7.3126  -16.7102   22.6392 C   0  0  0  0  0  0  0  0  0  0  0  0
    7.1872  -17.9299   22.2079 O   0  0  0  0  0  0  0  0  0  0  0  0
    8.1488  -15.8169   21.9540 N   0  0  0  0  0  0  0  0  0  0  0  0
    8.4357  -14.4599   22.3602 C   0  0  0  0  0  0  0  0  0  0  0  0
    8.2569  -13.7350   21.0311 C   0  0  0  0  0  0  0  0  0  0  0  0
    8.5400  -14.7501   19.9788 C   0  0  0  0  0  0  0  0  0  0  0  0
    8.8742  -16.0239   20.7479 C   0  0  1  0  0  0  0  0  0  0  0  0
   10.3511  -16.1729   20.9212 C   0  0  0  0  0  0  0  0  0  0  0  0
   10.9450  -15.3398   21.6407 O   0  0  0  0  0  0  0  0  0  0  0  0
   11.0924  -17.2028   20.3166 N   0  0  0  0  0  0  0  0  0  0  0  0
   12.4337  -17.6235   20.5274 C   0  0  1  0  0  0  0  0  0  0  0  0
   13.4451  -16.8376   19.7396 C   0  0  0  0  0  0  0  0  0  0  0  0
   13.8064  -17.5567   18.4945 C   0  0  0  0  0  0  0  0  0  0  0  0
   12.8527  -18.1460   17.8761 O   0  0  0  0  0  0  0  0  0  0  0  0
   12.8283  -17.7770   21.9587 C   0  0  0  0  0  0  0  0  0  0  0  0
   12.9305  -16.6617   22.7659 O   0  0  0  0  0  0  0  0  0  0  0  0
   15.0543  -17.6555   17.9435 O   0  0  0  0  0  0  0  0  0  0  0  0
   13.0770  -18.8729   22.4803 O   0  0  0  0  0  0  0  0  0  0  0  0
  2  1  1  1
  2  3  1  0
  3  4  1  0
  4  5  2  0
  4 12  1  0
  5  6  1  0
  6  7  1  0
  7  8  2  0
  8  9  1  0
 10  9  2  0
 11 10  1  0
 12 11  2  0
 12  7  1  0
 13  2  1  0
 14 13  2  0
 15 19  1  0
 15 13  1  0
 16 17  1  0
 16 15  1  0
 17 18  1  0
 18 19  1  0
 20 22  1  0
 19 20  1  1
 21 20  2  0
 23 22  1  0
 23 24  1  1
 24 25  1  0
 25 29  1  0
 26 25  2  0
 27 23  1  0
 28 27  1  0
 30 27  2  0
M  END
$$$$
