WPD.pdb
     RDKit          3D

 30 32  0  0  1  0  0  0  0  0999 V2000
    6.3742  -18.4368   25.0337 N   0  0  0  0  0  0  0  0  0  0  0  0
    6.7858  -17.1912   24.4703 C   0  0  1  0  0  0  0  0  0  0  0  0
    7.6768  -16.3696   25.3646 C   0  0  0  0  0  0  0  0  0  0  0  0
    6.9214  -15.1885   25.8546 C   0  0  0  0  0  0  0  0  0  0  0  0
    5.5528  -15.1348   26.0436 C   0  0  0  0  0  0  0  0  0  0  0  0
    5.2045  -13.9368   26.4988 N   0  0  0  0  0  0  0  0  0  0  0  0
    6.3205  -13.2090   26.6087 C   0  0  0  0  0  0  0  0  0  0  0  0
    6.5223  -11.9182   27.0194 C   0  0  0  0  0  0  0  0  0  0  0  0
    7.7682  -11.3734   27.0438 C   0  0  0  0  0  0  0  0  0  0  0  0
    8.8394  -12.1223   26.6542 C   0  0  0  0  0  0  0  0  0  0  0  0
    8.6893  -13.4442   26.2267 C   0  0  0  0  0  0  0  0  0  0  0  0
    7.4142  -13.9614   26.2142 C   0  0  0  0  0  0  0  0  0  0  0  0
    7.3928  -17.2689   23.1267 C   0  0  0  0  0  0  0  0  0  0  0  0
    7.4208  -18.4743   22.6414 O   0  0  0  0  0  0  0  0  0  0  0  0
    7.9148  -16.2077   22.3730 N   0  0  0  0  0  0  0  0  0  0  0  0
    8.0708  -14.8481   22.8379 C   0  0  0  0  0  0  0  0  0  0  0  0
    7.5011  -14.0866   21.6466 C   0  0  0  0  0  0  0  0  0  0  0  0
    7.7032  -14.9748   20.4683 C   0  0  0  0  0  0  0  0  0  0  0  0
    8.3864  -16.2167   21.0310 C   0  0  1  0  0  0  0  0  0  0  0  0
    9.8710  -16.1230   20.8866 C   0  0  0  0  0  0  0  0  0  0  0  0
   10.3390  -15.9354   19.7418 O   0  0  0  0  0  0  0  0  0  0  0  0
   10.7542  -16.2334   21.9745 N   0  0  0  0  0  0  0  0  0  0  0  0
   12.0907  -16.7133   22.0359 C   0  0  1  0  0  0  0  0  0  0  0  0
   12.3753  -17.5570   23.2477 C   0  0  0  0  0  0  0  0  0  0  0  0
   11.9113  -16.8722   24.4780 C   0  0  0  0  0  0  0  0  0  0  0  0
   12.1454  -15.6160   24.5574 O   0  0  0  0  0  0  0  0  0  0  0  0
   12.5924  -17.3429   20.7791 C   0  0  0  0  0  0  0  0  0  0  0  0
   13.7569  -16.8822   20.1980 O   0  0  0  0  0  0  0  0  0  0  0  0
   11.2623  -17.4478   25.5355 O   0  0  0  0  0  0  0  0  0  0  0  0
   12.0121  -18.2780   20.2099 O   0  0  0  0  0  0  0  0  0  0  0  0
  2  1  1  1
  2  3  1  0
  3  4  1  0
  4  5  2  0
  4 12  1  0
  5  6  1  0
  6  7  1  0
  7  8  2  0
  8  9  1  0
 10  9  2  0
 11 10  1  0
 12 11  2  0
 12  7  1  0
 13  2  1  0
 14 13  2  0
 15 19  1  0
 15 13  1  0
 16 17  1  0
 16 15  1  0
 17 18  1  0
 18 19  1  0
 20 22  1  0
 19 20  1  1
 21 20  2  0
 23 22  1  0
 23 24  1  1
 24 25  1  0
 25 29  1  0
 26 25  2  0
 27 23  1  0
 28 27  1  0
 30 27  2  0
M  END
$$$$
