WPD.pdb
     RDKit          3D

 30 32  0  0  1  0  0  0  0  0999 V2000
    6.2706  -18.0367   25.0362 N   0  0  0  0  0  0  0  0  0  0  0  0
    6.8502  -16.8972   24.4005 C   0  0  1  0  0  0  0  0  0  0  0  0
    7.7688  -16.0940   25.2835 C   0  0  0  0  0  0  0  0  0  0  0  0
    7.0289  -14.9246   25.8226 C   0  0  0  0  0  0  0  0  0  0  0  0
    5.6993  -14.9232   26.2019 C   0  0  0  0  0  0  0  0  0  0  0  0
    5.3562  -13.7203   26.6478 N   0  0  0  0  0  0  0  0  0  0  0  0
    6.4371  -12.9380   26.5653 C   0  0  0  0  0  0  0  0  0  0  0  0
    6.6269  -11.6199   26.8848 C   0  0  0  0  0  0  0  0  0  0  0  0
    7.8338  -11.0188   26.7074 C   0  0  0  0  0  0  0  0  0  0  0  0
    8.8776  -11.7375   26.2031 C   0  0  0  0  0  0  0  0  0  0  0  0
    8.7381  -13.0852   25.8610 C   0  0  0  0  0  0  0  0  0  0  0  0
    7.5025  -13.6595   26.0532 C   0  0  0  0  0  0  0  0  0  0  0  0
    7.5267  -17.1600   23.1149 C   0  0  0  0  0  0  0  0  0  0  0  0
    7.5599  -18.4197   22.7965 O   0  0  0  0  0  0  0  0  0  0  0  0
    8.1066  -16.2143   22.2567 N   0  0  0  0  0  0  0  0  0  0  0  0
    8.1422  -14.7876   22.4851 C   0  0  0  0  0  0  0  0  0  0  0  0
    7.7148  -14.2820   21.1120 C   0  0  0  0  0  0  0  0  0  0  0  0
    8.1147  -15.3462   20.1499 C   0  0  0  0  0  0  0  0  0  0  0  0
    8.7611  -16.4256   21.0116 C   0  0  1  0  0  0  0  0  0  0  0  0
   10.2464  -16.2639   21.0476 C   0  0  0  0  0  0  0  0  0  0  0  0
   10.7079  -15.1463   21.3680 O   0  0  0  0  0  0  0  0  0  0  0  0
   11.1374  -17.3071   20.7418 N   0  0  0  0  0  0  0  0  0  0  0  0
   12.3825  -17.6621   21.3286 C   0  0  1  0  0  0  0  0  0  0  0  0
   12.3755  -19.0114   21.9923 C   0  0  0  0  0  0  0  0  0  0  0  0
   12.2080  -18.8684   23.4583 C   0  0  0  0  0  0  0  0  0  0  0  0
   12.1521  -17.6734   23.9146 O   0  0  0  0  0  0  0  0  0  0  0  0
   13.5715  -17.4728   20.4465 C   0  0  0  0  0  0  0  0  0  0  0  0
   14.8369  -17.4416   20.9975 O   0  0  0  0  0  0  0  0  0  0  0  0
   12.1105  -19.8831   24.3701 O   0  0  0  0  0  0  0  0  0  0  0  0
   13.4902  -17.3376   19.2176 O   0  0  0  0  0  0  0  0  0  0  0  0
  2  1  1  1
  2  3  1  0
  3  4  1  0
  4  5  2  0
  4 12  1  0
  5  6  1  0
  6  7  1  0
  7  8  2  0
  8  9  1  0
 10  9  2  0
 11 10  1  0
 12 11  2  0
 12  7  1  0
 13  2  1  0
 14 13  2  0
 15 19  1  0
 15 13  1  0
 16 17  1  0
 16 15  1  0
 17 18  1  0
 18 19  1  0
 20 22  1  0
 19 20  1  1
 21 20  2  0
 23 22  1  0
 23 24  1  6
 24 25  1  0
 25 29  1  0
 26 25  2  0
 27 23  1  0
 28 27  1  0
 30 27  2  0
M  END
$$$$
