WPD.pdb
     RDKit          3D

 30 32  0  0  1  0  0  0  0  0999 V2000
    5.9202  -18.2402   25.0029 N   0  0  0  0  0  0  0  0  0  0  0  0
    6.5870  -17.0898   24.4829 C   0  0  1  0  0  0  0  0  0  0  0  0
    7.5099  -16.4121   25.4614 C   0  0  0  0  0  0  0  0  0  0  0  0
    6.8693  -15.1662   25.9544 C   0  0  0  0  0  0  0  0  0  0  0  0
    5.5448  -15.0413   26.3309 C   0  0  0  0  0  0  0  0  0  0  0  0
    5.3022  -13.7982   26.7303 N   0  0  0  0  0  0  0  0  0  0  0  0
    6.4436  -13.1110   26.6201 C   0  0  0  0  0  0  0  0  0  0  0  0
    6.7414  -11.8017   26.8897 C   0  0  0  0  0  0  0  0  0  0  0  0
    7.9934  -11.3089   26.6918 C   0  0  0  0  0  0  0  0  0  0  0  0
    8.9739  -12.1295   26.2170 C   0  0  0  0  0  0  0  0  0  0  0  0
    8.7238  -13.4732   25.9260 C   0  0  0  0  0  0  0  0  0  0  0  0
    7.4455  -13.9364   26.1376 C   0  0  0  0  0  0  0  0  0  0  0  0
    7.3018  -17.2902   23.2067 C   0  0  0  0  0  0  0  0  0  0  0  0
    7.3322  -18.5309   22.8208 O   0  0  0  0  0  0  0  0  0  0  0  0
    7.9186  -16.3061   22.4206 N   0  0  0  0  0  0  0  0  0  0  0  0
    7.9272  -14.8895   22.7074 C   0  0  0  0  0  0  0  0  0  0  0  0
    7.5714  -14.3322   21.3339 C   0  0  0  0  0  0  0  0  0  0  0  0
    8.0344  -15.3535   20.3538 C   0  0  0  0  0  0  0  0  0  0  0  0
    8.6431  -16.4617   21.2063 C   0  0  1  0  0  0  0  0  0  0  0  0
   10.1224  -16.2900   21.3314 C   0  0  0  0  0  0  0  0  0  0  0  0
   10.5474  -15.2825   21.9387 O   0  0  0  0  0  0  0  0  0  0  0  0
   11.0467  -17.2070   20.8017 N   0  0  0  0  0  0  0  0  0  0  0  0
   12.3671  -17.5327   21.2152 C   0  0  1  0  0  0  0  0  0  0  0  0
   12.4895  -18.9018   21.8250 C   0  0  0  0  0  0  0  0  0  0  0  0
   12.2712  -18.8394   23.2900 C   0  0  0  0  0  0  0  0  0  0  0  0
   12.0781  -17.6772   23.7914 O   0  0  0  0  0  0  0  0  0  0  0  0
   13.4284  -17.2702   20.1991 C   0  0  0  0  0  0  0  0  0  0  0  0
   13.0743  -16.9549   18.9025 O   0  0  0  0  0  0  0  0  0  0  0  0
   12.2583  -19.8966   24.1577 O   0  0  0  0  0  0  0  0  0  0  0  0
   14.6397  -17.3201   20.4545 O   0  0  0  0  0  0  0  0  0  0  0  0
  2  1  1  1
  2  3  1  0
  3  4  1  0
  4  5  2  0
  4 12  1  0
  5  6  1  0
  6  7  1  0
  7  8  2  0
  8  9  1  0
 10  9  2  0
 11 10  1  0
 12 11  2  0
 12  7  1  0
 13  2  1  0
 14 13  2  0
 15 19  1  0
 15 13  1  0
 16 17  1  0
 16 15  1  0
 17 18  1  0
 18 19  1  0
 20 22  1  0
 19 20  1  1
 21 20  2  0
 23 22  1  0
 23 24  1  6
 24 25  1  0
 25 29  1  0
 26 25  2  0
 27 23  1  0
 28 27  1  0
 30 27  2  0
M  END
$$$$
