WPD.pdb
     RDKit          3D

 30 32  0  0  1  0  0  0  0  0999 V2000
    6.6416  -17.5601   23.8927 N   0  0  0  0  0  0  0  0  0  0  0  0
    7.0409  -16.3189   23.3110 C   0  0  1  0  0  0  0  0  0  0  0  0
    7.9828  -15.5088   24.1627 C   0  0  0  0  0  0  0  0  0  0  0  0
    7.2087  -14.8180   25.2254 C   0  0  0  0  0  0  0  0  0  0  0  0
    6.1544  -15.3653   25.9327 C   0  0  0  0  0  0  0  0  0  0  0  0
    5.6933  -14.4846   26.8133 N   0  0  0  0  0  0  0  0  0  0  0  0
    6.4270  -13.3737   26.6920 C   0  0  0  0  0  0  0  0  0  0  0  0
    6.3675  -12.1736   27.3491 C   0  0  0  0  0  0  0  0  0  0  0  0
    7.2273  -11.1633   27.0498 C   0  0  0  0  0  0  0  0  0  0  0  0
    8.1682  -11.3437   26.0790 C   0  0  0  0  0  0  0  0  0  0  0  0
    8.2724  -12.5483   25.3783 C   0  0  0  0  0  0  0  0  0  0  0  0
    7.3852  -13.5474   25.7074 C   0  0  0  0  0  0  0  0  0  0  0  0
    7.5828  -16.4025   21.9403 C   0  0  0  0  0  0  0  0  0  0  0  0
    7.6903  -17.6209   21.5006 O   0  0  0  0  0  0  0  0  0  0  0  0
    7.9717  -15.3342   21.1191 N   0  0  0  0  0  0  0  0  0  0  0  0
    7.9190  -13.9364   21.4831 C   0  0  0  0  0  0  0  0  0  0  0  0
    7.2836  -13.3524   20.2266 C   0  0  0  0  0  0  0  0  0  0  0  0
    7.6455  -14.2846   19.1230 C   0  0  0  0  0  0  0  0  0  0  0  0
    8.4805  -15.3717   19.7913 C   0  0  1  0  0  0  0  0  0  0  0  0
    9.9405  -15.0762   19.6697 C   0  0  0  0  0  0  0  0  0  0  0  0
   10.3363  -13.9320   19.9843 O   0  0  0  0  0  0  0  0  0  0  0  0
   10.8784  -16.0232   19.2232 N   0  0  0  0  0  0  0  0  0  0  0  0
   11.9623  -16.6428   19.9025 C   0  0  1  0  0  0  0  0  0  0  0  0
   11.7023  -16.8829   21.3640 C   0  0  0  0  0  0  0  0  0  0  0  0
   12.9097  -17.4369   22.0223 C   0  0  0  0  0  0  0  0  0  0  0  0
   14.0066  -16.8043   21.8327 O   0  0  0  0  0  0  0  0  0  0  0  0
   12.5255  -17.8470   19.2239 C   0  0  0  0  0  0  0  0  0  0  0  0
   11.6835  -18.8639   18.8200 O   0  0  0  0  0  0  0  0  0  0  0  0
   12.9691  -18.5550   22.8077 O   0  0  0  0  0  0  0  0  0  0  0  0
   13.7343  -17.9942   18.9955 O   0  0  0  0  0  0  0  0  0  0  0  0
  2  1  1  1
  2  3  1  0
  3  4  1  0
  4  5  2  0
  4 12  1  0
  5  6  1  0
  6  7  1  0
  7  8  2  0
  8  9  1  0
 10  9  2  0
 11 10  1  0
 12 11  2  0
 12  7  1  0
 13  2  1  0
 14 13  2  0
 15 19  1  0
 15 13  1  0
 16 17  1  0
 16 15  1  0
 17 18  1  0
 18 19  1  0
 20 22  1  0
 19 20  1  1
 21 20  2  0
 23 22  1  0
 23 24  1  1
 24 25  1  0
 25 29  1  0
 26 25  2  0
 27 23  1  0
 28 27  1  0
 30 27  2  0
M  END
$$$$
