WPD.pdb
     RDKit          3D

 30 32  0  0  1  0  0  0  0  0999 V2000
    6.0975  -17.5590   24.2053 N   0  0  0  0  0  0  0  0  0  0  0  0
    6.6799  -16.4114   23.5870 C   0  0  1  0  0  0  0  0  0  0  0  0
    7.7113  -15.7084   24.4300 C   0  0  0  0  0  0  0  0  0  0  0  0
    7.0245  -14.8221   25.4039 C   0  0  0  0  0  0  0  0  0  0  0  0
    5.9442  -15.1798   26.1892 C   0  0  0  0  0  0  0  0  0  0  0  0
    5.5810  -14.1567   26.9541 N   0  0  0  0  0  0  0  0  0  0  0  0
    6.4040  -13.1392   26.6809 C   0  0  0  0  0  0  0  0  0  0  0  0
    6.4628  -11.8644   27.1779 C   0  0  0  0  0  0  0  0  0  0  0  0
    7.3985  -10.9800   26.7397 C   0  0  0  0  0  0  0  0  0  0  0  0
    8.2973  -11.3650   25.7889 C   0  0  0  0  0  0  0  0  0  0  0  0
    8.2816  -12.6537   25.2487 C   0  0  0  0  0  0  0  0  0  0  0  0
    7.3203  -13.5208   25.7152 C   0  0  0  0  0  0  0  0  0  0  0  0
    7.2298  -16.6266   22.2339 C   0  0  0  0  0  0  0  0  0  0  0  0
    6.9396  -17.7922   21.7376 O   0  0  0  0  0  0  0  0  0  0  0  0
    7.9989  -15.7268   21.4818 N   0  0  0  0  0  0  0  0  0  0  0  0
    8.4818  -14.4463   21.9468 C   0  0  0  0  0  0  0  0  0  0  0  0
    8.1207  -13.5701   20.7528 C   0  0  0  0  0  0  0  0  0  0  0  0
    8.1034  -14.4824   19.5758 C   0  0  0  0  0  0  0  0  0  0  0  0
    8.4591  -15.8530   20.1418 C   0  0  1  0  0  0  0  0  0  0  0  0
    9.9219  -16.1265   20.0033 C   0  0  0  0  0  0  0  0  0  0  0  0
   10.7205  -15.3562   20.5808 O   0  0  0  0  0  0  0  0  0  0  0  0
   10.4318  -17.2051   19.2601 N   0  0  0  0  0  0  0  0  0  0  0  0
   11.6880  -17.8662   19.3322 C   0  0  1  0  0  0  0  0  0  0  0  0
   11.6179  -19.3344   19.0151 C   0  0  0  0  0  0  0  0  0  0  0  0
   10.5502  -19.9871   19.8099 C   0  0  0  0  0  0  0  0  0  0  0  0
   10.6865  -19.9612   21.0827 O   0  0  0  0  0  0  0  0  0  0  0  0
   12.8011  -17.1847   18.6081 C   0  0  0  0  0  0  0  0  0  0  0  0
   12.5366  -16.0740   17.8320 O   0  0  0  0  0  0  0  0  0  0  0  0
    9.4382  -20.6152   19.3203 O   0  0  0  0  0  0  0  0  0  0  0  0
   13.9790  -17.5651   18.6618 O   0  0  0  0  0  0  0  0  0  0  0  0
  2  1  1  1
  2  3  1  0
  3  4  1  0
  4  5  2  0
  4 12  1  0
  5  6  1  0
  6  7  1  0
  7  8  2  0
  8  9  1  0
 10  9  2  0
 11 10  1  0
 12 11  2  0
 12  7  1  0
 13  2  1  0
 14 13  2  0
 15 19  1  0
 15 13  1  0
 16 17  1  0
 16 15  1  0
 17 18  1  0
 18 19  1  0
 20 22  1  0
 19 20  1  1
 21 20  2  0
 23 22  1  0
 23 24  1  6
 24 25  1  0
 25 29  1  0
 26 25  2  0
 27 23  1  0
 28 27  1  0
 30 27  2  0
M  END
$$$$
