WPD.pdb
     RDKit          3D

 30 32  0  0  1  0  0  0  0  0999 V2000
    6.2906  -18.4144   25.2272 N   0  0  0  0  0  0  0  0  0  0  0  0
    6.7884  -17.1883   24.6910 C   0  0  1  0  0  0  0  0  0  0  0  0
    7.6138  -16.3785   25.6562 C   0  0  0  0  0  0  0  0  0  0  0  0
    6.8179  -15.2146   26.1225 C   0  0  0  0  0  0  0  0  0  0  0  0
    5.4732  -15.2405   26.4432 C   0  0  0  0  0  0  0  0  0  0  0  0
    5.0766  -14.0344   26.8327 N   0  0  0  0  0  0  0  0  0  0  0  0
    6.1376  -13.2234   26.7707 C   0  0  0  0  0  0  0  0  0  0  0  0
    6.2755  -11.8905   27.0532 C   0  0  0  0  0  0  0  0  0  0  0  0
    7.4717  -11.2597   26.9082 C   0  0  0  0  0  0  0  0  0  0  0  0
    8.5567  -11.9632   26.4745 C   0  0  0  0  0  0  0  0  0  0  0  0
    8.4709  -13.3249   26.1727 C   0  0  0  0  0  0  0  0  0  0  0  0
    7.2447  -13.9291   26.3303 C   0  0  0  0  0  0  0  0  0  0  0  0
    7.5169  -17.3014   23.4119 C   0  0  0  0  0  0  0  0  0  0  0  0
    7.5259  -18.5073   22.9272 O   0  0  0  0  0  0  0  0  0  0  0  0
    8.1660  -16.2714   22.7157 N   0  0  0  0  0  0  0  0  0  0  0  0
    8.1823  -14.8794   23.1041 C   0  0  0  0  0  0  0  0  0  0  0  0
    7.8708  -14.2203   21.7654 C   0  0  0  0  0  0  0  0  0  0  0  0
    8.3496  -15.1744   20.7269 C   0  0  0  0  0  0  0  0  0  0  0  0
    8.9221  -16.3489   21.5133 C   0  0  1  0  0  0  0  0  0  0  0  0
   10.3992  -16.2058   21.6901 C   0  0  0  0  0  0  0  0  0  0  0  0
   10.8132  -15.3520   22.5052 O   0  0  0  0  0  0  0  0  0  0  0  0
   11.3333  -16.9858   20.9865 N   0  0  0  0  0  0  0  0  0  0  0  0
   12.7167  -17.2098   21.2237 C   0  0  1  0  0  0  0  0  0  0  0  0
   13.6170  -16.2301   20.5230 C   0  0  0  0  0  0  0  0  0  0  0  0
   14.9772  -16.7973   20.3626 C   0  0  0  0  0  0  0  0  0  0  0  0
   15.1722  -17.9648   20.8507 O   0  0  0  0  0  0  0  0  0  0  0  0
   13.0887  -17.3928   22.6575 C   0  0  0  0  0  0  0  0  0  0  0  0
   13.1611  -16.2963   23.4932 O   0  0  0  0  0  0  0  0  0  0  0  0
   16.0428  -16.1982   19.7492 O   0  0  0  0  0  0  0  0  0  0  0  0
   13.3438  -18.4977   23.1568 O   0  0  0  0  0  0  0  0  0  0  0  0
  2  1  1  1
  2  3  1  0
  3  4  1  0
  4  5  2  0
  4 12  1  0
  5  6  1  0
  6  7  1  0
  7  8  2  0
  8  9  1  0
 10  9  2  0
 11 10  1  0
 12 11  2  0
 12  7  1  0
 13  2  1  0
 14 13  2  0
 15 19  1  0
 15 13  1  0
 16 17  1  0
 16 15  1  0
 17 18  1  0
 18 19  1  0
 20 22  1  0
 19 20  1  1
 21 20  2  0
 23 22  1  0
 23 24  1  1
 24 25  1  0
 25 29  1  0
 26 25  2  0
 27 23  1  0
 28 27  1  0
 30 27  2  0
M  END
$$$$
