WPD.pdb
     RDKit          3D

 30 32  0  0  1  0  0  0  0  0999 V2000
    6.8249  -17.8814   24.7473 N   0  0  0  0  0  0  0  0  0  0  0  0
    7.2006  -16.7067   24.0280 C   0  0  1  0  0  0  0  0  0  0  0  0
    8.0405  -15.7373   24.8176 C   0  0  0  0  0  0  0  0  0  0  0  0
    7.1493  -14.8460   25.6030 C   0  0  0  0  0  0  0  0  0  0  0  0
    5.9444  -15.2164   26.1709 C   0  0  0  0  0  0  0  0  0  0  0  0
    5.4081  -14.1836   26.8108 N   0  0  0  0  0  0  0  0  0  0  0  0
    6.2407  -13.1473   26.6693 C   0  0  0  0  0  0  0  0  0  0  0  0
    6.1643  -11.8568   27.1212 C   0  0  0  0  0  0  0  0  0  0  0  0
    7.1439  -10.9546   26.8452 C   0  0  0  0  0  0  0  0  0  0  0  0
    8.2244  -11.3373   26.1062 C   0  0  0  0  0  0  0  0  0  0  0  0
    8.3521  -12.6416   25.6210 C   0  0  0  0  0  0  0  0  0  0  0  0
    7.3413  -13.5264   25.9190 C   0  0  0  0  0  0  0  0  0  0  0  0
    7.8383  -16.9390   22.7169 C   0  0  0  0  0  0  0  0  0  0  0  0
    8.0301  -18.1967   22.4511 O   0  0  0  0  0  0  0  0  0  0  0  0
    8.2343  -15.9673   21.7863 N   0  0  0  0  0  0  0  0  0  0  0  0
    8.1968  -14.5385   22.0007 C   0  0  0  0  0  0  0  0  0  0  0  0
    7.5621  -14.0839   20.6915 C   0  0  0  0  0  0  0  0  0  0  0  0
    7.9103  -15.1312   19.6914 C   0  0  0  0  0  0  0  0  0  0  0  0
    8.7373  -16.1501   20.4683 C   0  0  1  0  0  0  0  0  0  0  0  0
   10.1996  -15.8840   20.3118 C   0  0  0  0  0  0  0  0  0  0  0  0
   10.6551  -15.7705   19.1524 O   0  0  0  0  0  0  0  0  0  0  0  0
   11.0751  -15.7547   21.4039 N   0  0  0  0  0  0  0  0  0  0  0  0
   12.0998  -16.6196   21.8753 C   0  0  1  0  0  0  0  0  0  0  0  0
   11.6106  -17.6722   22.8313 C   0  0  0  0  0  0  0  0  0  0  0  0
   12.0726  -17.3777   24.2089 C   0  0  0  0  0  0  0  0  0  0  0  0
   12.8603  -18.2335   24.7441 O   0  0  0  0  0  0  0  0  0  0  0  0
   12.9829  -17.1871   20.8142 C   0  0  0  0  0  0  0  0  0  0  0  0
   13.8843  -16.3700   20.1618 O   0  0  0  0  0  0  0  0  0  0  0  0
   11.7397  -16.2872   24.9644 O   0  0  0  0  0  0  0  0  0  0  0  0
   12.9553  -18.3780   20.4736 O   0  0  0  0  0  0  0  0  0  0  0  0
  2  1  1  1
  2  3  1  0
  3  4  1  0
  4  5  2  0
  4 12  1  0
  5  6  1  0
  6  7  1  0
  7  8  2  0
  8  9  1  0
 10  9  2  0
 11 10  1  0
 12 11  2  0
 12  7  1  0
 13  2  1  0
 14 13  2  0
 15 19  1  0
 15 13  1  0
 16 17  1  0
 16 15  1  0
 17 18  1  0
 18 19  1  0
 20 22  1  0
 19 20  1  1
 21 20  2  0
 23 22  1  0
 23 24  1  6
 24 25  1  0
 25 29  1  0
 26 25  2  0
 27 23  1  0
 28 27  1  0
 30 27  2  0
M  END
$$$$
