WCR.pdb
     RDKit          3D

 32 33  0  0  1  0  0  0  0  0999 V2000
    6.0494  -18.0870   24.4693 N   0  0  0  0  0  0  0  0  0  0  0  0
    6.5759  -16.7934   24.0033 C   0  0  1  0  0  0  0  0  0  0  0  0
    7.1672  -16.1388   25.2285 C   0  0  0  0  0  0  0  0  0  0  0  0
    6.4087  -14.9833   25.7207 C   0  0  0  0  0  0  0  0  0  0  0  0
    5.1299  -14.9822   26.2372 C   0  0  0  0  0  0  0  0  0  0  0  0
    4.7976  -13.7276   26.5728 N   0  0  0  0  0  0  0  0  0  0  0  0
    5.8054  -12.8815   26.3022 C   0  0  0  0  0  0  0  0  0  0  0  0
    5.9545  -11.5232   26.4609 C   0  0  0  0  0  0  0  0  0  0  0  0
    7.1447  -10.9543   26.0728 C   0  0  0  0  0  0  0  0  0  0  0  0
    8.1578  -11.7206   25.5407 C   0  0  0  0  0  0  0  0  0  0  0  0
    7.9977  -13.0725   25.3872 C   0  0  0  0  0  0  0  0  0  0  0  0
    6.8245  -13.6622   25.7652 C   0  0  0  0  0  0  0  0  0  0  0  0
    7.5342  -16.9732   22.9182 C   0  0  0  0  0  0  0  0  0  0  0  0
    8.0568  -18.0900   22.7209 O   0  0  0  0  0  0  0  0  0  0  0  0
    7.8819  -15.8901   22.0809 N   0  0  0  0  0  0  0  0  0  0  0  0
    8.7876  -16.1123   20.9726 C   0  0  1  0  0  0  0  0  0  0  0  0
    8.5159  -15.0383   19.9406 C   0  0  0  0  0  0  0  0  0  0  0  0
    8.4363  -13.3986   20.7328 S   0  0  0  0  0  0  0  0  0  0  0  0
   10.2036  -15.9605   21.4553 C   0  0  0  0  0  0  0  0  0  0  0  0
   10.8480  -14.9313   21.1325 O   0  0  0  0  0  0  0  0  0  0  0  0
    9.8028  -15.3665   27.0534 N   0  0  0  0  0  0  0  0  0  0  0  0
   10.9202  -15.5287   27.9218 C   0  0  0  0  0  0  0  0  0  0  0  0
   11.0054  -14.8785   29.0219 N   0  0  0  0  0  0  0  0  0  0  0  0
   11.9565  -16.4348   27.5475 N   0  0  0  0  0  0  0  0  0  0  0  0
   11.7163  -17.4258   26.4890 C   0  0  0  0  0  0  0  0  0  0  0  0
   11.7181  -16.7352   25.1577 C   0  0  0  0  0  0  0  0  0  0  0  0
   12.2621  -17.5217   24.0259 C   0  0  0  0  0  0  0  0  0  0  0  0
   12.2133  -16.8999   22.6819 C   0  0  2  0  0  0  0  0  0  0  0  0
   10.8122  -16.9368   22.2517 N   0  0  0  0  0  0  0  0  0  0  0  0
   13.0825  -17.5635   21.6836 C   0  0  0  0  0  0  0  0  0  0  0  0
   12.6712  -18.3506   20.8136 O   0  0  0  0  0  0  0  0  0  0  0  0
   14.4378  -17.2889   21.7227 O   0  0  0  0  0  0  0  0  0  0  0  0
  2  1  1  1
  3  4  1  0
  3  2  1  0
  4  5  2  0
  5  6  1  0
  7  8  2  0
  7  6  1  0
  9  8  1  0
 10  9  2  0
 11 10  1  0
 11 12  2  0
 12  4  1  0
 12  7  1  0
 13  2  1  0
 13 14  2  0
 15 13  1  0
 16 15  1  0
 16 17  1  6
 18 17  1  0
 19 16  1  0
 20 19  2  0
 22 21  1  0
 22 23  2  0
 24 22  1  0
 25 24  1  0
 26 25  1  0
 28 27  1  1
 27 26  1  0
 28 29  1  0
 29 19  1  0
 30 28  1  0
 30 32  1  0
 31 30  2  0
M  END
$$$$
