WCR.pdb
     RDKit          3D

 32 33  0  0  1  0  0  0  0  0999 V2000
    6.5592  -18.2551   24.7228 N   0  0  0  0  0  0  0  0  0  0  0  0
    6.9283  -16.8838   24.3344 C   0  0  1  0  0  0  0  0  0  0  0  0
    7.6536  -16.3126   25.5289 C   0  0  0  0  0  0  0  0  0  0  0  0
    6.9847  -15.1626   26.1478 C   0  0  0  0  0  0  0  0  0  0  0  0
    5.7542  -15.1477   26.7703 C   0  0  0  0  0  0  0  0  0  0  0  0
    5.5006  -13.9044   27.2026 N   0  0  0  0  0  0  0  0  0  0  0  0
    6.5152  -13.0792   26.8951 C   0  0  0  0  0  0  0  0  0  0  0  0
    6.7305  -11.7386   27.1164 C   0  0  0  0  0  0  0  0  0  0  0  0
    7.9059  -11.1893   26.6609 C   0  0  0  0  0  0  0  0  0  0  0  0
    8.8405  -11.9576   26.0026 C   0  0  0  0  0  0  0  0  0  0  0  0
    8.6149  -13.2916   25.7879 C   0  0  0  0  0  0  0  0  0  0  0  0
    7.4547  -13.8616   26.2306 C   0  0  0  0  0  0  0  0  0  0  0  0
    7.7234  -16.8772   23.1113 C   0  0  0  0  0  0  0  0  0  0  0  0
    8.3551  -17.8981   22.7677 O   0  0  0  0  0  0  0  0  0  0  0  0
    7.7888  -15.7201   22.3040 N   0  0  0  0  0  0  0  0  0  0  0  0
    8.6202  -15.7284   21.1179 C   0  0  1  0  0  0  0  0  0  0  0  0
    8.2858  -14.4863   20.3193 C   0  0  0  0  0  0  0  0  0  0  0  0
    6.5658  -14.5576   19.7199 S   0  0  0  0  0  0  0  0  0  0  0  0
   10.0649  -15.6551   21.5283 C   0  0  0  0  0  0  0  0  0  0  0  0
   10.3680  -15.0276   22.5738 O   0  0  0  0  0  0  0  0  0  0  0  0
   13.2505  -22.9200   23.0282 N   0  0  0  0  0  0  0  0  0  0  0  0
   13.4837  -22.1870   24.2270 C   0  0  0  0  0  0  0  0  0  0  0  0
   14.0230  -22.7400   25.2485 N   0  0  0  0  0  0  0  0  0  0  0  0
   13.1045  -20.8127   24.2778 N   0  0  0  0  0  0  0  0  0  0  0  0
   12.1039  -20.2934   23.3347 C   0  0  0  0  0  0  0  0  0  0  0  0
   12.6788  -19.1161   22.6049 C   0  0  0  0  0  0  0  0  0  0  0  0
   11.6930  -18.1593   22.0501 C   0  0  0  0  0  0  0  0  0  0  0  0
   12.2245  -16.9699   21.3444 C   0  0  2  0  0  0  0  0  0  0  0  0
   11.0705  -16.2687   20.7732 N   0  0  0  0  0  0  0  0  0  0  0  0
   13.2128  -17.2916   20.2899 C   0  0  0  0  0  0  0  0  0  0  0  0
   14.3628  -17.7073   20.5145 O   0  0  0  0  0  0  0  0  0  0  0  0
   12.8306  -17.1185   18.9716 O   0  0  0  0  0  0  0  0  0  0  0  0
  2  1  1  1
  3  4  1  0
  3  2  1  0
  4  5  2  0
  5  6  1  0
  7  8  2  0
  7  6  1  0
  9  8  1  0
 10  9  2  0
 11 10  1  0
 11 12  2  0
 12  4  1  0
 12  7  1  0
 13  2  1  0
 13 14  2  0
 15 13  1  0
 16 15  1  0
 16 17  1  6
 18 17  1  0
 19 16  1  0
 20 19  2  0
 22 21  1  0
 22 23  2  0
 24 22  1  0
 25 24  1  0
 26 25  1  0
 28 27  1  6
 27 26  1  0
 28 29  1  0
 29 19  1  0
 30 28  1  0
 30 32  1  0
 31 30  2  0
M  END
$$$$
