WCR.pdb
     RDKit          3D

 32 33  0  0  1  0  0  0  0  0999 V2000
    7.9244  -17.7924   26.8731 N   0  0  0  0  0  0  0  0  0  0  0  0
    7.9171  -16.7149   25.8699 C   0  0  1  0  0  0  0  0  0  0  0  0
    9.0336  -15.7836   26.2769 C   0  0  0  0  0  0  0  0  0  0  0  0
    8.6026  -14.6490   27.1012 C   0  0  0  0  0  0  0  0  0  0  0  0
    9.0862  -14.2856   28.3405 C   0  0  0  0  0  0  0  0  0  0  0  0
    8.4319  -13.1932   28.7595 N   0  0  0  0  0  0  0  0  0  0  0  0
    7.5242  -12.8054   27.8482 C   0  0  0  0  0  0  0  0  0  0  0  0
    6.6235  -11.7664   27.8085 C   0  0  0  0  0  0  0  0  0  0  0  0
    5.8195  -11.6503   26.6991 C   0  0  0  0  0  0  0  0  0  0  0  0
    5.9124  -12.5472   25.6580 C   0  0  0  0  0  0  0  0  0  0  0  0
    6.8130  -13.5782   25.7088 C   0  0  0  0  0  0  0  0  0  0  0  0
    7.6235  -13.7156   26.8002 C   0  0  0  0  0  0  0  0  0  0  0  0
    8.0656  -17.2487   24.5204 C   0  0  0  0  0  0  0  0  0  0  0  0
    8.5133  -18.4014   24.3470 O   0  0  0  0  0  0  0  0  0  0  0  0
    7.7065  -16.4709   23.3974 N   0  0  0  0  0  0  0  0  0  0  0  0
    8.0223  -16.9544   22.0690 C   0  0  1  0  0  0  0  0  0  0  0  0
    6.8659  -16.5859   21.1639 C   0  0  0  0  0  0  0  0  0  0  0  0
    6.3278  -14.8737   21.4822 S   0  0  0  0  0  0  0  0  0  0  0  0
    9.2573  -16.2559   21.5710 C   0  0  0  0  0  0  0  0  0  0  0  0
    9.7563  -15.3358   22.2660 O   0  0  0  0  0  0  0  0  0  0  0  0
    9.2030  -15.3921   16.0179 N   0  0  0  0  0  0  0  0  0  0  0  0
    8.7081  -14.0565   16.0006 C   0  0  0  0  0  0  0  0  0  0  0  0
    8.5475  -13.4227   14.8994 N   0  0  0  0  0  0  0  0  0  0  0  0
    8.3898  -13.4247   17.2394 N   0  0  0  0  0  0  0  0  0  0  0  0
    8.7890  -14.0536   18.5064 C   0  0  0  0  0  0  0  0  0  0  0  0
   10.2537  -13.8225   18.7313 C   0  0  0  0  0  0  0  0  0  0  0  0
   10.8393  -14.5056   19.9085 C   0  0  0  0  0  0  0  0  0  0  0  0
   11.0548  -15.9680   19.8070 C   0  0  2  0  0  0  0  0  0  0  0  0
    9.8566  -16.6092   20.3570 N   0  0  0  0  0  0  0  0  0  0  0  0
   12.2690  -16.4441   20.5081 C   0  0  0  0  0  0  0  0  0  0  0  0
   13.3657  -16.6338   19.9541 O   0  0  0  0  0  0  0  0  0  0  0  0
   12.1754  -16.6930   21.8657 O   0  0  0  0  0  0  0  0  0  0  0  0
  2  1  1  1
  3  4  1  0
  3  2  1  0
  4  5  2  0
  5  6  1  0
  7  8  2  0
  7  6  1  0
  9  8  1  0
 10  9  2  0
 11 10  1  0
 11 12  2  0
 12  4  1  0
 12  7  1  0
 13  2  1  0
 13 14  2  0
 15 13  1  0
 16 15  1  0
 16 17  1  6
 18 17  1  0
 19 16  1  0
 20 19  2  0
 22 21  1  0
 22 23  2  0
 24 22  1  0
 25 24  1  0
 26 25  1  0
 28 27  1  1
 27 26  1  0
 28 29  1  0
 29 19  1  0
 30 28  1  0
 30 32  1  0
 31 30  2  0
M  END
$$$$
