WCR.pdb
     RDKit          3D

 32 33  0  0  1  0  0  0  0  0999 V2000
   10.3225  -15.8325   21.8076 N   0  0  0  0  0  0  0  0  0  0  0  0
    9.8715  -15.3090   23.1076 C   0  0  1  0  0  0  0  0  0  0  0  0
    8.4013  -15.6438   23.1840 C   0  0  0  0  0  0  0  0  0  0  0  0
    7.5265  -14.4806   23.3698 C   0  0  0  0  0  0  0  0  0  0  0  0
    6.8791  -13.7575   22.3900 C   0  0  0  0  0  0  0  0  0  0  0  0
    6.1782  -12.7720   22.9684 N   0  0  0  0  0  0  0  0  0  0  0  0
    6.3285  -12.8032   24.3030 C   0  0  0  0  0  0  0  0  0  0  0  0
    5.8265  -12.0239   25.3194 C   0  0  0  0  0  0  0  0  0  0  0  0
    6.1861  -12.3346   26.6097 C   0  0  0  0  0  0  0  0  0  0  0  0
    7.0241  -13.3943   26.8776 C   0  0  0  0  0  0  0  0  0  0  0  0
    7.5180  -14.1633   25.8571 C   0  0  0  0  0  0  0  0  0  0  0  0
    7.1758  -13.8754   24.5660 C   0  0  0  0  0  0  0  0  0  0  0  0
   10.6550  -15.8695   24.2032 C   0  0  0  0  0  0  0  0  0  0  0  0
   11.2378  -16.9648   24.0620 O   0  0  0  0  0  0  0  0  0  0  0  0
   10.7631  -15.1829   25.4328 N   0  0  0  0  0  0  0  0  0  0  0  0
   11.4813  -15.7996   26.5291 C   0  0  1  0  0  0  0  0  0  0  0  0
   11.6639  -14.7475   27.6024 C   0  0  0  0  0  0  0  0  0  0  0  0
   10.0850  -14.4254   28.4545 S   0  0  0  0  0  0  0  0  0  0  0  0
   10.6505  -16.9176   27.0956 C   0  0  0  0  0  0  0  0  0  0  0  0
    9.5395  -17.1755   26.5685 O   0  0  0  0  0  0  0  0  0  0  0  0
   15.2888  -22.4498   26.6950 N   0  0  0  0  0  0  0  0  0  0  0  0
   14.2952  -22.8358   25.7502 C   0  0  0  0  0  0  0  0  0  0  0  0
   14.6062  -23.1305   24.5433 N   0  0  0  0  0  0  0  0  0  0  0  0
   12.9324  -22.8907   26.1685 N   0  0  0  0  0  0  0  0  0  0  0  0
   12.1714  -21.6465   26.3512 C   0  0  0  0  0  0  0  0  0  0  0  0
   13.0664  -20.6056   26.9553 C   0  0  0  0  0  0  0  0  0  0  0  0
   12.4707  -19.2582   27.1127 C   0  0  0  0  0  0  0  0  0  0  0  0
   11.4121  -19.0996   28.1372 C   0  0  2  0  0  0  0  0  0  0  0  0
   11.0887  -17.6705   28.1905 N   0  0  0  0  0  0  0  0  0  0  0  0
   11.7971  -19.5970   29.4776 C   0  0  0  0  0  0  0  0  0  0  0  0
   12.7147  -19.1146   30.1640 O   0  0  0  0  0  0  0  0  0  0  0  0
   11.0899  -20.6661   29.9977 O   0  0  0  0  0  0  0  0  0  0  0  0
  2  1  1  6
  3  4  1  0
  3  2  1  0
  4  5  2  0
  5  6  1  0
  7  8  2  0
  7  6  1  0
  9  8  1  0
 10  9  2  0
 11 10  1  0
 11 12  2  0
 12  4  1  0
 12  7  1  0
 13  2  1  0
 13 14  2  0
 15 13  1  0
 16 15  1  0
 16 17  1  1
 18 17  1  0
 19 16  1  0
 20 19  2  0
 22 21  1  0
 22 23  2  0
 24 22  1  0
 25 24  1  0
 26 25  1  0
 28 27  1  6
 27 26  1  0
 28 29  1  0
 29 19  1  0
 30 28  1  0
 30 32  1  0
 31 30  2  0
M  END
$$$$
