WCR.pdb
     RDKit          3D

 32 33  0  0  1  0  0  0  0  0999 V2000
    7.7213  -17.1528   23.1061 N   0  0  0  0  0  0  0  0  0  0  0  0
    8.5506  -16.0194   23.5480 C   0  0  1  0  0  0  0  0  0  0  0  0
    8.3597  -15.9448   25.0438 C   0  0  0  0  0  0  0  0  0  0  0  0
    7.2469  -15.0878   25.4680 C   0  0  0  0  0  0  0  0  0  0  0  0
    5.9534  -15.4758   25.7478 C   0  0  0  0  0  0  0  0  0  0  0  0
    5.2420  -14.3958   26.1005 N   0  0  0  0  0  0  0  0  0  0  0  0
    6.0080  -13.2925   26.0695 C   0  0  0  0  0  0  0  0  0  0  0  0
    5.7524  -11.9684   26.3409 C   0  0  0  0  0  0  0  0  0  0  0  0
    6.7855  -11.0707   26.2087 C   0  0  0  0  0  0  0  0  0  0  0  0
    8.0393  -11.4839   25.8162 C   0  0  0  0  0  0  0  0  0  0  0  0
    8.2820  -12.8053   25.5483 C   0  0  0  0  0  0  0  0  0  0  0  0
    7.2722  -13.7174   25.6722 C   0  0  0  0  0  0  0  0  0  0  0  0
    9.9419  -16.1945   23.1457 C   0  0  0  0  0  0  0  0  0  0  0  0
   10.5483  -15.2707   22.5644 O   0  0  0  0  0  0  0  0  0  0  0  0
   10.6175  -17.4070   23.4075 N   0  0  0  0  0  0  0  0  0  0  0  0
   12.0643  -17.4126   23.4765 C   0  0  1  0  0  0  0  0  0  0  0  0
   12.4612  -16.7162   24.7609 C   0  0  0  0  0  0  0  0  0  0  0  0
   11.7242  -17.5611   26.1982 S   0  0  0  0  0  0  0  0  0  0  0  0
   12.5493  -18.8347   23.5371 C   0  0  0  0  0  0  0  0  0  0  0  0
   11.9988  -19.6301   24.3389 O   0  0  0  0  0  0  0  0  0  0  0  0
   17.0458  -21.5082   16.5586 N   0  0  0  0  0  0  0  0  0  0  0  0
   16.4392  -20.5660   17.4380 C   0  0  0  0  0  0  0  0  0  0  0  0
   16.2961  -19.3392   17.0996 N   0  0  0  0  0  0  0  0  0  0  0  0
   15.9876  -21.0100   18.7164 N   0  0  0  0  0  0  0  0  0  0  0  0
   14.5511  -21.0060   19.0279 C   0  0  0  0  0  0  0  0  0  0  0  0
   14.3428  -21.5758   20.3995 C   0  0  0  0  0  0  0  0  0  0  0  0
   14.9429  -20.8054   21.5138 C   0  0  0  0  0  0  0  0  0  0  0  0
   14.1325  -20.6487   22.7442 C   0  0  2  0  0  0  0  0  0  0  0  0
   13.5943  -19.2851   22.7229 N   0  0  0  0  0  0  0  0  0  0  0  0
   14.8889  -20.8908   23.9939 C   0  0  0  0  0  0  0  0  0  0  0  0
   15.2097  -19.9996   24.7993 O   0  0  0  0  0  0  0  0  0  0  0  0
   15.2613  -22.1915   24.2821 O   0  0  0  0  0  0  0  0  0  0  0  0
  2  1  1  1
  3  4  1  0
  3  2  1  0
  4  5  2  0
  5  6  1  0
  7  8  2  0
  7  6  1  0
  9  8  1  0
 10  9  2  0
 11 10  1  0
 11 12  2  0
 12  4  1  0
 12  7  1  0
 13  2  1  0
 13 14  2  0
 15 13  1  0
 16 15  1  0
 16 17  1  1
 18 17  1  0
 19 16  1  0
 20 19  2  0
 22 21  1  0
 22 23  2  0
 24 22  1  0
 25 24  1  0
 26 25  1  0
 28 27  1  6
 27 26  1  0
 28 29  1  0
 29 19  1  0
 30 28  1  0
 30 32  1  0
 31 30  2  0
M  END
$$$$
