WCR.pdb
     RDKit          3D

 32 33  0  0  1  0  0  0  0  0999 V2000
    6.2187  -18.5085   25.1139 N   0  0  0  0  0  0  0  0  0  0  0  0
    6.8140  -17.2206   24.7209 C   0  0  1  0  0  0  0  0  0  0  0  0
    7.5846  -16.7515   25.9315 C   0  0  0  0  0  0  0  0  0  0  0  0
    7.2265  -15.4046   26.3901 C   0  0  0  0  0  0  0  0  0  0  0  0
    5.9919  -14.7954   26.3090 C   0  0  0  0  0  0  0  0  0  0  0  0
    6.0777  -13.5666   26.8378 N   0  0  0  0  0  0  0  0  0  0  0  0
    7.3251  -13.3238   27.2733 C   0  0  0  0  0  0  0  0  0  0  0  0
    7.9092  -12.2355   27.8791 C   0  0  0  0  0  0  0  0  0  0  0  0
    9.2426  -12.3160   28.2053 C   0  0  0  0  0  0  0  0  0  0  0  0
    9.9726  -13.4519   27.9340 C   0  0  0  0  0  0  0  0  0  0  0  0
    9.3802  -14.5295   27.3302 C   0  0  0  0  0  0  0  0  0  0  0  0
    8.0564  -14.4748   26.9960 C   0  0  0  0  0  0  0  0  0  0  0  0
    7.6369  -17.3622   23.5247 C   0  0  0  0  0  0  0  0  0  0  0  0
    8.0651  -18.4854   23.1867 O   0  0  0  0  0  0  0  0  0  0  0  0
    7.9586  -16.2347   22.7372 N   0  0  0  0  0  0  0  0  0  0  0  0
    8.6843  -16.4188   21.4972 C   0  0  1  0  0  0  0  0  0  0  0  0
    7.8953  -15.7327   20.4022 C   0  0  0  0  0  0  0  0  0  0  0  0
    7.0540  -14.2529   21.0541 S   0  0  0  0  0  0  0  0  0  0  0  0
   10.0262  -15.7492   21.6074 C   0  0  0  0  0  0  0  0  0  0  0  0
   10.0992  -14.6232   22.1600 O   0  0  0  0  0  0  0  0  0  0  0  0
   10.7450  -16.7108   27.4578 N   0  0  0  0  0  0  0  0  0  0  0  0
   10.9548  -18.0947   27.1942 C   0  0  0  0  0  0  0  0  0  0  0  0
   10.7123  -18.9837   28.0836 N   0  0  0  0  0  0  0  0  0  0  0  0
   11.4447  -18.4844   25.9123 N   0  0  0  0  0  0  0  0  0  0  0  0
   12.6635  -17.8637   25.3741 C   0  0  0  0  0  0  0  0  0  0  0  0
   12.8034  -18.2272   23.9258 C   0  0  0  0  0  0  0  0  0  0  0  0
   11.8138  -17.6128   23.0101 C   0  0  0  0  0  0  0  0  0  0  0  0
   12.3365  -16.7407   21.9324 C   0  0  2  0  0  0  0  0  0  0  0  0
   11.1864  -16.3527   21.1099 N   0  0  0  0  0  0  0  0  0  0  0  0
   13.3809  -17.3791   21.0994 C   0  0  0  0  0  0  0  0  0  0  0  0
   14.5502  -16.9665   21.0087 O   0  0  0  0  0  0  0  0  0  0  0  0
   13.0320  -18.5062   20.3771 O   0  0  0  0  0  0  0  0  0  0  0  0
  2  1  1  1
  3  4  1  0
  3  2  1  0
  4  5  2  0
  5  6  1  0
  7  8  2  0
  7  6  1  0
  9  8  1  0
 10  9  2  0
 11 10  1  0
 11 12  2  0
 12  4  1  0
 12  7  1  0
 13  2  1  0
 13 14  2  0
 15 13  1  0
 16 15  1  0
 16 17  1  6
 18 17  1  0
 19 16  1  0
 20 19  2  0
 22 21  1  0
 22 23  2  0
 24 22  1  0
 25 24  1  0
 26 25  1  0
 28 27  1  1
 27 26  1  0
 28 29  1  0
 29 19  1  0
 30 28  1  0
 30 32  1  0
 31 30  2  0
M  END
$$$$
