WCR.pdb
     RDKit          3D

 32 33  0  0  1  0  0  0  0  0999 V2000
    8.2173  -16.7229   22.4314 N   0  0  0  0  0  0  0  0  0  0  0  0
    8.2500  -15.2660   22.6412 C   0  0  1  0  0  0  0  0  0  0  0  0
    6.8694  -14.7790   22.2723 C   0  0  0  0  0  0  0  0  0  0  0  0
    6.6796  -14.5322   20.8385 C   0  0  0  0  0  0  0  0  0  0  0  0
    6.0447  -15.3496   19.9272 C   0  0  0  0  0  0  0  0  0  0  0  0
    6.0831  -14.7675   18.7202 N   0  0  0  0  0  0  0  0  0  0  0  0
    6.7206  -13.5867   18.7833 C   0  0  0  0  0  0  0  0  0  0  0  0
    7.0143  -12.6305   17.8388 C   0  0  0  0  0  0  0  0  0  0  0  0
    7.6969  -11.5085   18.2460 C   0  0  0  0  0  0  0  0  0  0  0  0
    8.0757  -11.3457   19.5601 C   0  0  0  0  0  0  0  0  0  0  0  0
    7.7779  -12.3047   20.4918 C   0  0  0  0  0  0  0  0  0  0  0  0
    7.1004  -13.4292   20.1128 C   0  0  0  0  0  0  0  0  0  0  0  0
    8.6382  -14.9380   24.0086 C   0  0  0  0  0  0  0  0  0  0  0  0
    8.6338  -13.7505   24.3946 O   0  0  0  0  0  0  0  0  0  0  0  0
    9.0228  -15.9558   24.9093 N   0  0  0  0  0  0  0  0  0  0  0  0
    9.7463  -15.6018   26.1131 C   0  0  1  0  0  0  0  0  0  0  0  0
    8.8361  -14.7289   26.9509 C   0  0  0  0  0  0  0  0  0  0  0  0
    9.6941  -14.1789   28.4621 S   0  0  0  0  0  0  0  0  0  0  0  0
   10.0527  -16.8525   26.8897 C   0  0  0  0  0  0  0  0  0  0  0  0
    9.1363  -17.3907   27.5598 O   0  0  0  0  0  0  0  0  0  0  0  0
   15.8704  -20.3311   25.2885 N   0  0  0  0  0  0  0  0  0  0  0  0
   16.2786  -21.3548   26.1909 C   0  0  0  0  0  0  0  0  0  0  0  0
   17.2166  -22.1720   25.8869 N   0  0  0  0  0  0  0  0  0  0  0  0
   15.6220  -21.4613   27.4529 N   0  0  0  0  0  0  0  0  0  0  0  0
   14.1674  -21.2691   27.5406 C   0  0  0  0  0  0  0  0  0  0  0  0
   13.8816  -19.8645   27.9819 C   0  0  0  0  0  0  0  0  0  0  0  0
   13.0151  -19.0706   27.0796 C   0  0  0  0  0  0  0  0  0  0  0  0
   11.6981  -18.6426   27.6065 C   0  0  2  0  0  0  0  0  0  0  0  0
   11.3299  -17.4238   26.8796 N   0  0  0  0  0  0  0  0  0  0  0  0
   11.6877  -18.4012   29.0673 C   0  0  0  0  0  0  0  0  0  0  0  0
   11.5469  -19.2938   29.9213 O   0  0  0  0  0  0  0  0  0  0  0  0
   11.8448  -17.0994   29.5082 O   0  0  0  0  0  0  0  0  0  0  0  0
  2  1  1  1
  3  4  1  0
  3  2  1  0
  4  5  2  0
  5  6  1  0
  7  8  2  0
  7  6  1  0
  9  8  1  0
 10  9  2  0
 11 10  1  0
 11 12  2  0
 12  4  1  0
 12  7  1  0
 13  2  1  0
 13 14  2  0
 15 13  1  0
 16 15  1  0
 16 17  1  1
 18 17  1  0
 19 16  1  0
 20 19  2  0
 22 21  1  0
 22 23  2  0
 24 22  1  0
 25 24  1  0
 26 25  1  0
 28 27  1  6
 27 26  1  0
 28 29  1  0
 29 19  1  0
 30 28  1  0
 30 32  1  0
 31 30  2  0
M  END
$$$$
