KVL.pdb
     RDKit          3D

 25 24  0  0  1  0  0  0  0  0999 V2000
    6.4699  -20.0995   22.4050 N   0  0  0  0  0  0  0  0  0  0  0  0
    6.4183  -18.8674   23.1250 C   0  0  1  0  0  0  0  0  0  0  0  0
    6.3553  -18.9969   24.6148 C   0  0  0  0  0  0  0  0  0  0  0  0
    7.0390  -20.1931   25.1820 C   0  0  0  0  0  0  0  0  0  0  0  0
    6.8914  -20.3834   26.6591 C   0  0  0  0  0  0  0  0  0  0  0  0
    7.6982  -21.5644   27.1610 C   0  0  0  0  0  0  0  0  0  0  0  0
    7.4713  -21.6770   28.5867 N   0  0  0  0  0  0  0  0  0  0  0  0
    7.4895  -17.9217   22.7235 C   0  0  0  0  0  0  0  0  0  0  0  0
    8.6602  -18.3543   22.6810 O   0  0  0  0  0  0  0  0  0  0  0  0
    7.0003  -13.5843   21.8547 C   0  0  0  0  0  0  0  0  0  0  0  0
    7.9146  -14.5502   21.1485 C   0  0  2  0  0  0  0  0  0  0  0  0
    7.3053  -15.0978   19.8843 C   0  0  0  0  0  0  0  0  0  0  0  0
    8.3642  -15.6689   22.0804 C   0  0  2  0  0  0  0  0  0  0  0  0
    7.2652  -16.5632   22.3871 N   0  0  0  0  0  0  0  0  0  0  0  0
    8.9129  -15.0677   23.3223 C   0  0  0  0  0  0  0  0  0  0  0  0
    9.9975  -14.4408   23.2457 O   0  0  0  0  0  0  0  0  0  0  0  0
    7.7670  -11.6570   25.6164 C   0  0  0  0  0  0  0  0  0  0  0  0
    6.8863  -12.8984   25.8381 C   0  0  2  0  0  0  0  0  0  0  0  0
    5.6753  -12.4434   26.5816 C   0  0  0  0  0  0  0  0  0  0  0  0
    7.7229  -13.8835   26.5714 C   0  0  0  0  0  0  0  0  0  0  0  0
    8.8123  -14.5333   25.7838 C   0  0  2  0  0  0  0  0  0  0  0  0
    8.2785  -15.1660   24.5766 N   0  0  0  0  0  0  0  0  0  0  0  0
    9.4843  -15.5840   26.5766 C   0  0  0  0  0  0  0  0  0  0  0  0
   10.0501  -15.2763   27.6689 O   0  0  0  0  0  0  0  0  0  0  0  0
    9.5400  -16.9302   26.1954 O   0  0  0  0  0  0  0  0  0  0  0  0
  2  1  1  6
  3  2  1  0
  4  3  1  0
  5  6  1  0
  5  4  1  0
  6  7  1  0
  8  2  1  0
  8  9  2  0
 11 13  1  0
 11 10  1  1
 12 11  1  0
 13 14  1  1
 14  8  1  0
 15 13  1  0
 16 15  2  0
 18 17  1  1
 18 20  1  0
 19 18  1  0
 21 20  1  1
 21 23  1  0
 21 22  1  0
 22 15  1  0
 23 25  1  0
 24 23  2  0
M  END
$$$$
