KVL.pdb
     RDKit          3D

 25 24  0  0  1  0  0  0  0  0999 V2000
   13.0497  -17.8405   20.5131 N   0  0  0  0  0  0  0  0  0  0  0  0
   12.0172  -18.4172   21.3135 C   0  0  1  0  0  0  0  0  0  0  0  0
   12.3523  -19.7332   21.9427 C   0  0  0  0  0  0  0  0  0  0  0  0
   12.3000  -20.9099   21.0302 C   0  0  0  0  0  0  0  0  0  0  0  0
   13.6180  -21.3697   20.4906 C   0  0  0  0  0  0  0  0  0  0  0  0
   13.4834  -22.6397   19.6740 C   0  0  0  0  0  0  0  0  0  0  0  0
   14.8156  -23.0596   19.2925 N   0  0  0  0  0  0  0  0  0  0  0  0
   11.4777  -17.4728   22.3236 C   0  0  0  0  0  0  0  0  0  0  0  0
   12.2640  -16.6359   22.8144 O   0  0  0  0  0  0  0  0  0  0  0  0
    7.7029  -15.3782   24.7797 C   0  0  0  0  0  0  0  0  0  0  0  0
    8.1726  -16.3468   23.7267 C   0  0  2  0  0  0  0  0  0  0  0  0
    7.4297  -17.6562   23.7786 C   0  0  0  0  0  0  0  0  0  0  0  0
    9.6799  -16.5578   23.8015 C   0  0  2  0  0  0  0  0  0  0  0  0
   10.1301  -17.4634   22.7629 N   0  0  0  0  0  0  0  0  0  0  0  0
   10.0241  -17.0885   25.1449 C   0  0  0  0  0  0  0  0  0  0  0  0
   10.3283  -18.3025   25.2401 O   0  0  0  0  0  0  0  0  0  0  0  0
   11.6100  -14.0368   27.7886 C   0  0  0  0  0  0  0  0  0  0  0  0
   10.1854  -14.3865   28.2512 C   0  0  2  0  0  0  0  0  0  0  0  0
    9.8293  -13.4171   29.3283 C   0  0  0  0  0  0  0  0  0  0  0  0
   10.2206  -15.8058   28.6897 C   0  0  0  0  0  0  0  0  0  0  0  0
   10.4456  -16.8182   27.6155 C   0  0  2  0  0  0  0  0  0  0  0  0
   10.0260  -16.2999   26.3125 N   0  0  0  0  0  0  0  0  0  0  0  0
    9.6687  -18.0481   27.8762 C   0  0  0  0  0  0  0  0  0  0  0  0
   10.0614  -18.8570   28.7701 O   0  0  0  0  0  0  0  0  0  0  0  0
    8.4987  -18.3898   27.1870 O   0  0  0  0  0  0  0  0  0  0  0  0
  2  1  1  1
  3  2  1  0
  4  3  1  0
  5  6  1  0
  5  4  1  0
  6  7  1  0
  8  2  1  0
  8  9  2  0
 11 13  1  0
 11 10  1  1
 12 11  1  0
 13 14  1  6
 14  8  1  0
 15 13  1  0
 16 15  2  0
 18 17  1  1
 18 20  1  0
 19 18  1  0
 21 20  1  1
 21 23  1  0
 21 22  1  0
 22 15  1  0
 23 25  1  0
 24 23  2  0
M  END
$$$$
