KVL.pdb
     RDKit          3D

 25 24  0  0  1  0  0  0  0  0999 V2000
    7.9904  -18.8245   20.8256 N   0  0  0  0  0  0  0  0  0  0  0  0
    9.3468  -18.4104   20.6590 C   0  0  1  0  0  0  0  0  0  0  0  0
    9.9852  -18.8090   19.3652 C   0  0  0  0  0  0  0  0  0  0  0  0
    9.6677  -20.1861   18.8932 C   0  0  0  0  0  0  0  0  0  0  0  0
   10.3177  -20.5962   17.6090 C   0  0  0  0  0  0  0  0  0  0  0  0
   11.4282  -21.6032   17.8329 C   0  0  0  0  0  0  0  0  0  0  0  0
   10.9001  -22.9154   17.5235 N   0  0  0  0  0  0  0  0  0  0  0  0
    9.5416  -16.9619   20.9180 C   0  0  0  0  0  0  0  0  0  0  0  0
   10.7137  -16.5396   21.0027 O   0  0  0  0  0  0  0  0  0  0  0  0
    7.8141  -12.3108   21.0064 C   0  0  0  0  0  0  0  0  0  0  0  0
    7.5705  -13.7782   20.7718 C   0  0  2  0  0  0  0  0  0  0  0  0
    6.2647  -14.2447   21.3604 C   0  0  0  0  0  0  0  0  0  0  0  0
    8.7388  -14.6199   21.2704 C   0  0  2  0  0  0  0  0  0  0  0  0
    8.4823  -16.0331   21.0743 N   0  0  0  0  0  0  0  0  0  0  0  0
    8.9656  -14.3229   22.7075 C   0  0  0  0  0  0  0  0  0  0  0  0
    9.5959  -13.2784   23.0023 O   0  0  0  0  0  0  0  0  0  0  0  0
    8.2666  -12.0775   26.2120 C   0  0  0  0  0  0  0  0  0  0  0  0
    7.1727  -12.9419   25.5623 C   0  0  2  0  0  0  0  0  0  0  0  0
    5.8722  -12.5122   26.1543 C   0  0  0  0  0  0  0  0  0  0  0  0
    7.5346  -14.3568   25.8368 C   0  0  0  0  0  0  0  0  0  0  0  0
    8.7679  -14.8604   25.1624 C   0  0  2  0  0  0  0  0  0  0  0  0
    8.5100  -15.1523   23.7514 N   0  0  0  0  0  0  0  0  0  0  0  0
    9.2449  -16.1081   25.7947 C   0  0  0  0  0  0  0  0  0  0  0  0
    9.5354  -16.1111   27.0290 O   0  0  0  0  0  0  0  0  0  0  0  0
    9.4014  -17.3180   25.1075 O   0  0  0  0  0  0  0  0  0  0  0  0
  2  1  1  6
  3  2  1  0
  4  3  1  0
  5  6  1  0
  5  4  1  0
  6  7  1  0
  8  2  1  0
  8  9  2  0
 11 13  1  0
 11 10  1  1
 12 11  1  0
 13 14  1  1
 14  8  1  0
 15 13  1  0
 16 15  2  0
 18 17  1  1
 18 20  1  0
 19 18  1  0
 21 20  1  1
 21 23  1  0
 21 22  1  0
 22 15  1  0
 23 25  1  0
 24 23  2  0
M  END
$$$$
