KVL.pdb
     RDKit          3D

 25 24  0  0  1  0  0  0  0  0999 V2000
    8.4130  -18.7577   19.0220 N   0  0  0  0  0  0  0  0  0  0  0  0
    8.0168  -18.1133   20.2332 C   0  0  1  0  0  0  0  0  0  0  0  0
    8.0701  -18.9671   21.4614 C   0  0  0  0  0  0  0  0  0  0  0  0
    8.2936  -20.4205   21.2205 C   0  0  0  0  0  0  0  0  0  0  0  0
    8.1296  -21.3073   22.4148 C   0  0  0  0  0  0  0  0  0  0  0  0
    8.2806  -22.7725   22.0569 C   0  0  0  0  0  0  0  0  0  0  0  0
    8.0140  -23.5461   23.2515 N   0  0  0  0  0  0  0  0  0  0  0  0
    8.7206  -16.8257   20.4562 C   0  0  0  0  0  0  0  0  0  0  0  0
    9.9693  -16.8373   20.4477 O   0  0  0  0  0  0  0  0  0  0  0  0
    6.8700  -12.7941   21.0532 C   0  0  0  0  0  0  0  0  0  0  0  0
    8.0937  -13.1736   20.2620 C   0  0  2  0  0  0  0  0  0  0  0  0
    7.7843  -13.4188   18.8083 C   0  0  0  0  0  0  0  0  0  0  0  0
    8.8102  -14.3641   20.8877 C   0  0  2  0  0  0  0  0  0  0  0  0
    8.0641  -15.5891   20.6772 N   0  0  0  0  0  0  0  0  0  0  0  0
    8.9944  -14.1053   22.3382 C   0  0  0  0  0  0  0  0  0  0  0  0
    9.7625  -13.1729   22.6788 O   0  0  0  0  0  0  0  0  0  0  0  0
    5.9018  -12.6095   26.8779 C   0  0  0  0  0  0  0  0  0  0  0  0
    7.2563  -13.2956   26.6314 C   0  0  2  0  0  0  0  0  0  0  0  0
    8.3140  -12.2873   26.9333 C   0  0  0  0  0  0  0  0  0  0  0  0
    7.2406  -13.7659   25.2220 C   0  0  0  0  0  0  0  0  0  0  0  0
    8.4516  -14.5110   24.7662 C   0  0  2  0  0  0  0  0  0  0  0  0
    8.3522  -14.8515   23.3461 N   0  0  0  0  0  0  0  0  0  0  0  0
    8.6093  -15.7743   25.5166 C   0  0  0  0  0  0  0  0  0  0  0  0
    8.8295  -15.7360   26.7648 O   0  0  0  0  0  0  0  0  0  0  0  0
    8.5295  -17.0430   24.9295 O   0  0  0  0  0  0  0  0  0  0  0  0
  2  1  1  6
  3  2  1  0
  4  3  1  0
  5  6  1  0
  5  4  1  0
  6  7  1  0
  8  2  1  0
  8  9  2  0
 11 13  1  0
 11 10  1  1
 12 11  1  0
 13 14  1  1
 14  8  1  0
 15 13  1  0
 16 15  2  0
 18 17  1  6
 18 20  1  0
 19 18  1  0
 21 20  1  1
 21 23  1  0
 21 22  1  0
 22 15  1  0
 23 25  1  0
 24 23  2  0
M  END
$$$$
