KVL.pdb
     RDKit          3D

 25 24  0  0  1  0  0  0  0  0999 V2000
   10.2598  -18.0614   18.3514 N   0  0  0  0  0  0  0  0  0  0  0  0
    9.5172  -17.9867   19.5689 C   0  0  1  0  0  0  0  0  0  0  0  0
    9.7761  -19.0893   20.5472 C   0  0  0  0  0  0  0  0  0  0  0  0
    9.6128  -20.4703   20.0120 C   0  0  0  0  0  0  0  0  0  0  0  0
    9.6744  -21.5692   21.0262 C   0  0  0  0  0  0  0  0  0  0  0  0
    9.5066  -22.9354   20.3914 C   0  0  0  0  0  0  0  0  0  0  0  0
    9.5120  -23.9175   21.4554 N   0  0  0  0  0  0  0  0  0  0  0  0
    9.6262  -16.6614   20.2283 C   0  0  0  0  0  0  0  0  0  0  0  0
   10.7531  -16.1251   20.2714 O   0  0  0  0  0  0  0  0  0  0  0  0
    6.2881  -14.0294   21.1605 C   0  0  0  0  0  0  0  0  0  0  0  0
    7.7056  -13.6637   20.8078 C   0  0  2  0  0  0  0  0  0  0  0  0
    7.9053  -13.5053   19.3231 C   0  0  0  0  0  0  0  0  0  0  0  0
    8.6974  -14.6571   21.4006 C   0  0  2  0  0  0  0  0  0  0  0  0
    8.5334  -15.9707   20.8097 N   0  0  0  0  0  0  0  0  0  0  0  0
    8.4979  -14.7153   22.8708 C   0  0  0  0  0  0  0  0  0  0  0  0
    7.5801  -15.4478   23.3137 O   0  0  0  0  0  0  0  0  0  0  0  0
    5.7855  -12.9810   26.7171 C   0  0  0  0  0  0  0  0  0  0  0  0
    7.2956  -12.6909   26.7501 C   0  0  2  0  0  0  0  0  0  0  0  0
    7.4591  -11.3043   27.2766 C   0  0  0  0  0  0  0  0  0  0  0  0
    7.7926  -12.8836   25.3631 C   0  0  0  0  0  0  0  0  0  0  0  0
    8.9213  -13.8473   25.1993 C   0  0  2  0  0  0  0  0  0  0  0  0
    9.2848  -13.9918   23.7888 N   0  0  0  0  0  0  0  0  0  0  0  0
    8.5512  -15.1865   25.7028 C   0  0  0  0  0  0  0  0  0  0  0  0
    9.1031  -15.6333   26.7533 O   0  0  0  0  0  0  0  0  0  0  0  0
    7.6083  -16.0168   25.0844 O   0  0  0  0  0  0  0  0  0  0  0  0
  2  1  1  6
  3  2  1  0
  4  3  1  0
  5  6  1  0
  5  4  1  0
  6  7  1  0
  8  2  1  0
  8  9  2  0
 11 13  1  0
 11 10  1  6
 12 11  1  0
 13 14  1  6
 14  8  1  0
 15 13  1  0
 16 15  2  0
 18 17  1  6
 18 20  1  0
 19 18  1  0
 21 20  1  6
 21 23  1  0
 21 22  1  0
 22 15  1  0
 23 25  1  0
 24 23  2  0
M  END
$$$$
