KVL.pdb
     RDKit          3D

 25 24  0  0  1  0  0  0  0  0999 V2000
   10.6173  -18.1983   19.1178 N   0  0  0  0  0  0  0  0  0  0  0  0
    9.5761  -17.9913   20.0728 C   0  0  1  0  0  0  0  0  0  0  0  0
    9.3926  -19.0916   21.0708 C   0  0  0  0  0  0  0  0  0  0  0  0
    9.6059  -20.4707   20.5484 C   0  0  0  0  0  0  0  0  0  0  0  0
    9.4093  -21.5756   21.5385 C   0  0  0  0  0  0  0  0  0  0  0  0
    9.6170  -22.9403   20.9124 C   0  0  0  0  0  0  0  0  0  0  0  0
   11.0045  -23.0315   20.5084 N   0  0  0  0  0  0  0  0  0  0  0  0
    9.6724  -16.6751   20.7521 C   0  0  0  0  0  0  0  0  0  0  0  0
   10.8132  -16.2155   20.9686 O   0  0  0  0  0  0  0  0  0  0  0  0
    6.3350  -13.9830   21.4946 C   0  0  0  0  0  0  0  0  0  0  0  0
    7.7776  -13.5911   21.3133 C   0  0  2  0  0  0  0  0  0  0  0  0
    8.1079  -13.2640   19.8804 C   0  0  0  0  0  0  0  0  0  0  0  0
    8.7146  -14.6549   21.8723 C   0  0  2  0  0  0  0  0  0  0  0  0
    8.5529  -15.9118   21.1682 N   0  0  0  0  0  0  0  0  0  0  0  0
    8.4366  -14.8261   23.3209 C   0  0  0  0  0  0  0  0  0  0  0  0
    7.5020  -15.5939   23.6560 O   0  0  0  0  0  0  0  0  0  0  0  0
    5.9570  -11.7688   26.4376 C   0  0  0  0  0  0  0  0  0  0  0  0
    7.3618  -12.3474   26.6780 C   0  0  2  0  0  0  0  0  0  0  0  0
    8.3389  -11.3237   26.2049 C   0  0  0  0  0  0  0  0  0  0  0  0
    7.4186  -13.6369   25.9418 C   0  0  0  0  0  0  0  0  0  0  0  0
    8.7792  -14.2188   25.7433 C   0  0  2  0  0  0  0  0  0  0  0  0
    9.1671  -14.1721   24.3327 N   0  0  0  0  0  0  0  0  0  0  0  0
    8.8168  -15.6338   26.1683 C   0  0  0  0  0  0  0  0  0  0  0  0
    8.4438  -15.9441   27.3398 O   0  0  0  0  0  0  0  0  0  0  0  0
    9.2462  -16.6821   25.3452 O   0  0  0  0  0  0  0  0  0  0  0  0
  2  1  1  1
  3  2  1  0
  4  3  1  0
  5  6  1  0
  5  4  1  0
  6  7  1  0
  8  2  1  0
  8  9  2  0
 11 13  1  0
 11 10  1  6
 12 11  1  0
 13 14  1  6
 14  8  1  0
 15 13  1  0
 16 15  2  0
 18 17  1  6
 18 20  1  0
 19 18  1  0
 21 20  1  6
 21 23  1  0
 21 22  1  0
 22 15  1  0
 23 25  1  0
 24 23  2  0
M  END
$$$$
