KVL.pdb
     RDKit          3D

 25 24  0  0  1  0  0  0  0  0999 V2000
    7.3816  -19.5990   20.7491 N   0  0  0  0  0  0  0  0  0  0  0  0
    7.0984  -18.7326   21.8484 C   0  0  1  0  0  0  0  0  0  0  0  0
    7.1545  -19.3721   23.2005 C   0  0  0  0  0  0  0  0  0  0  0  0
    5.9021  -20.0494   23.6398 C   0  0  0  0  0  0  0  0  0  0  0  0
    6.0585  -21.4657   24.0977 C   0  0  0  0  0  0  0  0  0  0  0  0
    5.0844  -22.3961   23.4027 C   0  0  0  0  0  0  0  0  0  0  0  0
    5.3413  -23.7382   23.8818 N   0  0  0  0  0  0  0  0  0  0  0  0
    7.9052  -17.4870   21.8212 C   0  0  0  0  0  0  0  0  0  0  0  0
    9.1442  -17.5951   21.9335 O   0  0  0  0  0  0  0  0  0  0  0  0
    6.8486  -13.8658   20.0115 C   0  0  0  0  0  0  0  0  0  0  0  0
    7.4009  -13.7521   21.4078 C   0  0  2  0  0  0  0  0  0  0  0  0
    8.2250  -12.5058   21.5995 C   0  0  0  0  0  0  0  0  0  0  0  0
    8.1810  -15.0016   21.7979 C   0  0  2  0  0  0  0  0  0  0  0  0
    7.3568  -16.1880   21.6763 N   0  0  0  0  0  0  0  0  0  0  0  0
    8.6725  -14.8454   23.1904 C   0  0  0  0  0  0  0  0  0  0  0  0
    9.8956  -14.6232   23.3634 O   0  0  0  0  0  0  0  0  0  0  0  0
    7.9291  -11.6918   26.1629 C   0  0  0  0  0  0  0  0  0  0  0  0
    6.8015  -12.7188   25.9637 C   0  0  2  0  0  0  0  0  0  0  0  0
    5.5971  -12.1807   26.6610 C   0  0  0  0  0  0  0  0  0  0  0  0
    7.3028  -14.0068   26.5096 C   0  0  0  0  0  0  0  0  0  0  0  0
    8.3256  -14.7148   25.6838 C   0  0  2  0  0  0  0  0  0  0  0  0
    7.8371  -14.9340   24.3215 N   0  0  0  0  0  0  0  0  0  0  0  0
    8.6474  -16.0374   26.2592 C   0  0  0  0  0  0  0  0  0  0  0  0
    8.1116  -17.0779   25.7711 O   0  0  0  0  0  0  0  0  0  0  0  0
    9.5260  -16.2256   27.3331 O   0  0  0  0  0  0  0  0  0  0  0  0
  2  1  1  6
  3  2  1  0
  4  3  1  0
  5  6  1  0
  5  4  1  0
  6  7  1  0
  8  2  1  0
  8  9  2  0
 11 13  1  0
 11 10  1  6
 12 11  1  0
 13 14  1  1
 14  8  1  0
 15 13  1  0
 16 15  2  0
 18 17  1  1
 18 20  1  0
 19 18  1  0
 21 20  1  1
 21 23  1  0
 21 22  1  0
 22 15  1  0
 23 25  1  0
 24 23  2  0
M  END
$$$$
