WQN.pdb
     RDKit          3D

 32 33  0  0  1  0  0  0  0  0999 V2000
    6.8392  -17.0329   23.3185 N   0  0  0  0  0  0  0  0  0  0  0  0
    7.9776  -16.1372   23.2370 C   0  0  1  0  0  0  0  0  0  0  0  0
    8.4242  -15.8929   24.6666 C   0  0  0  0  0  0  0  0  0  0  0  0
    7.4620  -15.0163   25.3805 C   0  0  0  0  0  0  0  0  0  0  0  0
    6.3548  -15.4165   26.1372 C   0  0  0  0  0  0  0  0  0  0  0  0
    5.7225  -14.3429   26.6265 N   0  0  0  0  0  0  0  0  0  0  0  0
    6.3692  -13.2143   26.2237 C   0  0  0  0  0  0  0  0  0  0  0  0
    6.1077  -11.8849   26.4655 C   0  0  0  0  0  0  0  0  0  0  0  0
    6.9350  -10.9191   25.9300 C   0  0  0  0  0  0  0  0  0  0  0  0
    8.0036  -11.3408   25.1643 C   0  0  0  0  0  0  0  0  0  0  0  0
    8.2622  -12.6730   24.9244 C   0  0  0  0  0  0  0  0  0  0  0  0
    7.4426  -13.6344   25.4547 C   0  0  0  0  0  0  0  0  0  0  0  0
    9.0238  -16.7931   22.4368 C   0  0  0  0  0  0  0  0  0  0  0  0
    9.3198  -17.9991   22.6416 O   0  0  0  0  0  0  0  0  0  0  0  0
   12.8277  -14.1664   17.6389 N   0  0  0  0  0  0  0  0  0  0  0  0
   13.0761  -14.1584   19.0288 C   0  0  0  0  0  0  0  0  0  0  0  0
   14.2059  -13.8408   19.4508 O   0  0  0  0  0  0  0  0  0  0  0  0
   11.9848  -14.5295   19.9714 C   0  0  0  0  0  0  0  0  0  0  0  0
   11.4388  -15.8927   19.6716 C   0  0  0  0  0  0  0  0  0  0  0  0
   11.0100  -16.6470   20.8833 C   0  0  2  0  0  0  0  0  0  0  0  0
    9.7459  -16.1117   21.4056 N   0  0  0  0  0  0  0  0  0  0  0  0
   11.9495  -16.6085   22.0213 C   0  0  0  0  0  0  0  0  0  0  0  0
   11.9574  -15.6148   22.7831 O   0  0  0  0  0  0  0  0  0  0  0  0
   11.7417  -19.8700   25.7636 N   0  0  0  0  0  0  0  0  0  0  0  0
   12.4060  -19.3346   24.6177 C   0  0  0  0  0  0  0  0  0  0  0  0
   12.4297  -20.0599   23.5956 O   0  0  0  0  0  0  0  0  0  0  0  0
   12.9986  -17.9889   24.7400 C   0  0  0  0  0  0  0  0  0  0  0  0
   13.7386  -17.6462   23.4940 C   0  0  2  0  0  0  0  0  0  0  0  0
   12.8660  -17.6415   22.3213 N   0  0  0  0  0  0  0  0  0  0  0  0
   14.8932  -18.5233   23.3136 C   0  0  0  0  0  0  0  0  0  0  0  0
   15.7612  -18.5213   24.2545 O   0  0  0  0  0  0  0  0  0  0  0  0
   15.1591  -19.3487   22.2588 O   0  0  0  0  0  0  0  0  0  0  0  0
  2  1  1  1
  3  2  1  0
  4  3  1  0
  5  4  2  0
  6  7  1  0
  6  5  1  0
  7 12  2  0
  8  7  1  0
  8  9  2  0
  9 10  1  0
 10 11  2  0
 12  4  1  0
 12 11  1  0
 13  2  1  0
 14 13  2  0
 16 17  2  0
 16 15  1  0
 18 16  1  0
 19 18  1  0
 20 19  1  6
 20 21  1  0
 21 13  1  0
 22 20  1  0
 23 22  2  0
 25 27  1  0
 25 24  1  0
 26 25  2  0
 28 27  1  1
 28 30  1  0
 28 29  1  0
 29 22  1  0
 30 32  1  0
 31 30  2  0
M  END
$$$$
