WQN.pdb
     RDKit          3D

 32 33  0  0  1  0  0  0  0  0999 V2000
    6.5786  -17.7487   24.6448 N   0  0  0  0  0  0  0  0  0  0  0  0
    6.9221  -16.4451   24.1084 C   0  0  1  0  0  0  0  0  0  0  0  0
    7.8075  -15.7823   25.1476 C   0  0  0  0  0  0  0  0  0  0  0  0
    7.0380  -14.7996   25.9513 C   0  0  0  0  0  0  0  0  0  0  0  0
    5.9354  -15.0586   26.7733 C   0  0  0  0  0  0  0  0  0  0  0  0
    5.5061  -13.9219   27.3350 N   0  0  0  0  0  0  0  0  0  0  0  0
    6.2880  -12.8878   26.9182 C   0  0  0  0  0  0  0  0  0  0  0  0
    6.2468  -11.5443   27.2138 C   0  0  0  0  0  0  0  0  0  0  0  0
    7.1734  -10.6931   26.6474 C   0  0  0  0  0  0  0  0  0  0  0  0
    8.1132  -11.2403   25.7969 C   0  0  0  0  0  0  0  0  0  0  0  0
    8.1512  -12.5862   25.5033 C   0  0  0  0  0  0  0  0  0  0  0  0
    7.2325  -13.4340   26.0640 C   0  0  0  0  0  0  0  0  0  0  0  0
    7.6244  -16.6429   22.8307 C   0  0  0  0  0  0  0  0  0  0  0  0
    8.3871  -17.6310   22.6697 O   0  0  0  0  0  0  0  0  0  0  0  0
    8.0712  -12.7698   17.2561 N   0  0  0  0  0  0  0  0  0  0  0  0
    8.1654  -14.1736   17.1360 C   0  0  0  0  0  0  0  0  0  0  0  0
    7.7469  -14.7328   16.1028 O   0  0  0  0  0  0  0  0  0  0  0  0
    8.7633  -14.9664   18.2454 C   0  0  0  0  0  0  0  0  0  0  0  0
    7.9106  -14.9193   19.4771 C   0  0  0  0  0  0  0  0  0  0  0  0
    8.3902  -15.8078   20.5732 C   0  0  2  0  0  0  0  0  0  0  0  0
    7.4826  -15.7434   21.7263 N   0  0  0  0  0  0  0  0  0  0  0  0
    9.7272  -15.4881   21.1113 C   0  0  0  0  0  0  0  0  0  0  0  0
    9.8268  -14.9227   22.2240 O   0  0  0  0  0  0  0  0  0  0  0  0
   13.6788  -19.0302   22.3908 N   0  0  0  0  0  0  0  0  0  0  0  0
   13.1789  -17.7307   22.7109 C   0  0  0  0  0  0  0  0  0  0  0  0
   13.8668  -17.0472   23.5051 O   0  0  0  0  0  0  0  0  0  0  0  0
   11.9099  -17.3149   22.0835 C   0  0  0  0  0  0  0  0  0  0  0  0
   12.1611  -16.2112   21.1157 C   0  0  2  0  0  0  0  0  0  0  0  0
   10.9366  -15.7829   20.4422 N   0  0  0  0  0  0  0  0  0  0  0  0
   13.2090  -16.5773   20.1657 C   0  0  0  0  0  0  0  0  0  0  0  0
   14.3984  -16.6539   20.6327 O   0  0  0  0  0  0  0  0  0  0  0  0
   13.0725  -16.8494   18.8346 O   0  0  0  0  0  0  0  0  0  0  0  0
  2  1  1  1
  3  2  1  0
  4  3  1  0
  5  4  2  0
  6  7  1  0
  6  5  1  0
  7 12  2  0
  8  7  1  0
  8  9  2  0
  9 10  1  0
 10 11  2  0
 12  4  1  0
 12 11  1  0
 13  2  1  0
 14 13  2  0
 16 17  2  0
 16 15  1  0
 18 16  1  0
 19 18  1  0
 20 19  1  6
 20 21  1  0
 21 13  1  0
 22 20  1  0
 23 22  2  0
 25 27  1  0
 25 24  1  0
 26 25  2  0
 28 27  1  6
 28 30  1  0
 28 29  1  0
 29 22  1  0
 30 32  1  0
 31 30  2  0
M  END
$$$$
