WQN.pdb
     RDKit          3D

 32 33  0  0  1  0  0  0  0  0999 V2000
    7.6447  -17.0862   23.6361 N   0  0  0  0  0  0  0  0  0  0  0  0
    8.9477  -16.4592   23.7550 C   0  0  1  0  0  0  0  0  0  0  0  0
    9.0046  -15.8686   25.1518 C   0  0  0  0  0  0  0  0  0  0  0  0
    7.7668  -15.1080   25.4571 C   0  0  0  0  0  0  0  0  0  0  0  0
    6.4561  -15.5982   25.4737 C   0  0  0  0  0  0  0  0  0  0  0  0
    5.6038  -14.6157   25.7901 N   0  0  0  0  0  0  0  0  0  0  0  0
    6.2982  -13.4616   25.9911 C   0  0  0  0  0  0  0  0  0  0  0  0
    5.8750  -12.1970   26.3311 C   0  0  0  0  0  0  0  0  0  0  0  0
    6.8010  -11.1844   26.4762 C   0  0  0  0  0  0  0  0  0  0  0  0
    8.1304  -11.4947   26.2698 C   0  0  0  0  0  0  0  0  0  0  0  0
    8.5503  -12.7623   25.9295 C   0  0  0  0  0  0  0  0  0  0  0  0
    7.6333  -13.7699   25.7845 C   0  0  0  0  0  0  0  0  0  0  0  0
    9.9762  -17.4913   23.5503 C   0  0  0  0  0  0  0  0  0  0  0  0
    9.7655  -18.6797   23.9070 O   0  0  0  0  0  0  0  0  0  0  0  0
    8.7425  -19.6172   19.7037 N   0  0  0  0  0  0  0  0  0  0  0  0
    9.8869  -19.3901   18.9084 C   0  0  0  0  0  0  0  0  0  0  0  0
   10.0117  -19.9911   17.8227 O   0  0  0  0  0  0  0  0  0  0  0  0
   10.9289  -18.4357   19.3777 C   0  0  0  0  0  0  0  0  0  0  0  0
   10.5615  -17.8243   20.6958 C   0  0  0  0  0  0  0  0  0  0  0  0
   11.6582  -17.8679   21.7040 C   0  0  2  0  0  0  0  0  0  0  0  0
   11.2436  -17.2073   22.9486 N   0  0  0  0  0  0  0  0  0  0  0  0
   12.9131  -17.1994   21.3071 C   0  0  0  0  0  0  0  0  0  0  0  0
   13.5841  -17.6589   20.3550 O   0  0  0  0  0  0  0  0  0  0  0  0
   13.6128  -13.4257   19.7740 N   0  0  0  0  0  0  0  0  0  0  0  0
   14.7276  -14.2638   20.0835 C   0  0  0  0  0  0  0  0  0  0  0  0
   15.2668  -14.8557   19.1190 O   0  0  0  0  0  0  0  0  0  0  0  0
   15.1393  -14.3561   21.4974 C   0  0  0  0  0  0  0  0  0  0  0  0
   14.8483  -15.7192   22.0217 C   0  0  2  0  0  0  0  0  0  0  0  0
   13.4257  -16.0456   21.9420 N   0  0  0  0  0  0  0  0  0  0  0  0
   15.3720  -15.8812   23.3761 C   0  0  0  0  0  0  0  0  0  0  0  0
   16.6135  -15.6163   23.5411 O   0  0  0  0  0  0  0  0  0  0  0  0
   14.6944  -16.2819   24.4918 O   0  0  0  0  0  0  0  0  0  0  0  0
  2  1  1  1
  3  2  1  0
  4  3  1  0
  5  4  2  0
  6  7  1  0
  6  5  1  0
  7 12  2  0
  8  7  1  0
  8  9  2  0
  9 10  1  0
 10 11  2  0
 12  4  1  0
 12 11  1  0
 13  2  1  0
 14 13  2  0
 16 17  2  0
 16 15  1  0
 18 16  1  0
 19 18  1  0
 20 19  1  6
 20 21  1  0
 21 13  1  0
 22 20  1  0
 23 22  2  0
 25 27  1  0
 25 24  1  0
 26 25  2  0
 28 27  1  1
 28 30  1  0
 28 29  1  0
 29 22  1  0
 30 32  1  0
 31 30  2  0
M  END
$$$$
