WQN.pdb
     RDKit          3D

 32 33  0  0  1  0  0  0  0  0999 V2000
    6.7630  -18.1541   24.3377 N   0  0  0  0  0  0  0  0  0  0  0  0
    6.9952  -16.7597   24.0111 C   0  0  1  0  0  0  0  0  0  0  0  0
    7.8989  -16.2167   25.1027 C   0  0  0  0  0  0  0  0  0  0  0  0
    7.2079  -15.1638   25.8886 C   0  0  0  0  0  0  0  0  0  0  0  0
    6.0927  -15.3238   26.7189 C   0  0  0  0  0  0  0  0  0  0  0  0
    5.7513  -14.1475   27.2588 N   0  0  0  0  0  0  0  0  0  0  0  0
    6.6057  -13.1828   26.8189 C   0  0  0  0  0  0  0  0  0  0  0  0
    6.6655  -11.8342   27.0874 C   0  0  0  0  0  0  0  0  0  0  0  0
    7.6500  -11.0656   26.5013 C   0  0  0  0  0  0  0  0  0  0  0  0
    8.5431  -11.6977   25.6592 C   0  0  0  0  0  0  0  0  0  0  0  0
    8.4800  -13.0484   25.3928 C   0  0  0  0  0  0  0  0  0  0  0  0
    7.5035  -13.8143   25.9732 C   0  0  0  0  0  0  0  0  0  0  0  0
    7.6316  -16.6964   22.6860 C   0  0  0  0  0  0  0  0  0  0  0  0
    8.0450  -17.7458   22.1275 O   0  0  0  0  0  0  0  0  0  0  0  0
    6.6980  -13.0017   17.9699 N   0  0  0  0  0  0  0  0  0  0  0  0
    7.9702  -13.4917   17.6023 C   0  0  0  0  0  0  0  0  0  0  0  0
    8.3058  -13.4939   16.4011 O   0  0  0  0  0  0  0  0  0  0  0  0
    8.8932  -13.9991   18.6546 C   0  0  0  0  0  0  0  0  0  0  0  0
    8.1992  -14.1357   19.9760 C   0  0  0  0  0  0  0  0  0  0  0  0
    8.4464  -15.4410   20.6514 C   0  0  2  0  0  0  0  0  0  0  0  0
    7.8116  -15.4668   21.9757 N   0  0  0  0  0  0  0  0  0  0  0  0
    9.8644  -15.7733   20.8922 C   0  0  0  0  0  0  0  0  0  0  0  0
   10.6411  -15.9105   19.9197 O   0  0  0  0  0  0  0  0  0  0  0  0
   14.5789  -15.9753   22.5238 N   0  0  0  0  0  0  0  0  0  0  0  0
   13.8244  -15.7244   23.7107 C   0  0  0  0  0  0  0  0  0  0  0  0
   14.4566  -15.7574   24.7925 O   0  0  0  0  0  0  0  0  0  0  0  0
   12.3824  -15.4517   23.5569 C   0  0  0  0  0  0  0  0  0  0  0  0
   11.8351  -16.2456   22.4219 C   0  0  2  0  0  0  0  0  0  0  0  0
   10.4241  -15.9523   22.1775 N   0  0  0  0  0  0  0  0  0  0  0  0
   12.0709  -17.6737   22.6211 C   0  0  0  0  0  0  0  0  0  0  0  0
   11.1562  -18.3199   23.2412 O   0  0  0  0  0  0  0  0  0  0  0  0
   13.1529  -18.4056   22.2236 O   0  0  0  0  0  0  0  0  0  0  0  0
  2  1  1  1
  3  2  1  0
  4  3  1  0
  5  4  2  0
  6  7  1  0
  6  5  1  0
  7 12  2  0
  8  7  1  0
  8  9  2  0
  9 10  1  0
 10 11  2  0
 12  4  1  0
 12 11  1  0
 13  2  1  0
 14 13  2  0
 16 17  2  0
 16 15  1  0
 18 16  1  0
 19 18  1  0
 20 19  1  1
 20 21  1  0
 21 13  1  0
 22 20  1  0
 23 22  2  0
 25 27  1  0
 25 24  1  0
 26 25  2  0
 28 27  1  1
 28 30  1  0
 28 29  1  0
 29 22  1  0
 30 32  1  0
 31 30  2  0
M  END
$$$$
