WQN.pdb
     RDKit          3D

 32 33  0  0  1  0  0  0  0  0999 V2000
    6.4339  -18.2244   24.0332 N   0  0  0  0  0  0  0  0  0  0  0  0
    6.8148  -16.8423   23.8096 C   0  0  1  0  0  0  0  0  0  0  0  0
    7.7411  -16.4708   24.9529 C   0  0  0  0  0  0  0  0  0  0  0  0
    7.1730  -15.3592   25.7562 C   0  0  0  0  0  0  0  0  0  0  0  0
    6.0812  -15.4197   26.6297 C   0  0  0  0  0  0  0  0  0  0  0  0
    5.8622  -14.2160   27.1728 N   0  0  0  0  0  0  0  0  0  0  0  0
    6.7778  -13.3297   26.6928 C   0  0  0  0  0  0  0  0  0  0  0  0
    6.9624  -11.9899   26.9481 C   0  0  0  0  0  0  0  0  0  0  0  0
    7.9852  -11.3107   26.3186 C   0  0  0  0  0  0  0  0  0  0  0  0
    8.7880  -12.0207   25.4481 C   0  0  0  0  0  0  0  0  0  0  0  0
    8.6001  -13.3622   25.1951 C   0  0  0  0  0  0  0  0  0  0  0  0
    7.5853  -14.0394   25.8185 C   0  0  0  0  0  0  0  0  0  0  0  0
    7.4876  -16.7551   22.5040 C   0  0  0  0  0  0  0  0  0  0  0  0
    7.9955  -17.7804   21.9797 O   0  0  0  0  0  0  0  0  0  0  0  0
    6.5780  -12.8761   17.8560 N   0  0  0  0  0  0  0  0  0  0  0  0
    7.8299  -13.3950   17.4596 C   0  0  0  0  0  0  0  0  0  0  0  0
    8.1833  -13.3073   16.2667 O   0  0  0  0  0  0  0  0  0  0  0  0
    8.7108  -14.0398   18.4721 C   0  0  0  0  0  0  0  0  0  0  0  0
    8.0191  -14.1786   19.7945 C   0  0  0  0  0  0  0  0  0  0  0  0
    8.2873  -15.4752   20.4786 C   0  0  2  0  0  0  0  0  0  0  0  0
    7.5993  -15.5281   21.7753 N   0  0  0  0  0  0  0  0  0  0  0  0
    9.7056  -15.7541   20.7782 C   0  0  0  0  0  0  0  0  0  0  0  0
   10.5314  -15.8348   19.8404 O   0  0  0  0  0  0  0  0  0  0  0  0
   13.8082  -16.5615   25.2394 N   0  0  0  0  0  0  0  0  0  0  0  0
   13.4230  -15.9701   23.9973 C   0  0  0  0  0  0  0  0  0  0  0  0
   14.3496  -15.6831   23.2035 O   0  0  0  0  0  0  0  0  0  0  0  0
   11.9824  -15.7526   23.7636 C   0  0  0  0  0  0  0  0  0  0  0  0
   11.6208  -16.1908   22.3870 C   0  0  2  0  0  0  0  0  0  0  0  0
   10.2128  -15.9414   22.0839 N   0  0  0  0  0  0  0  0  0  0  0  0
   11.9884  -17.5881   22.1696 C   0  0  0  0  0  0  0  0  0  0  0  0
   11.1901  -18.4670   22.6481 O   0  0  0  0  0  0  0  0  0  0  0  0
   13.0844  -18.0718   21.5145 O   0  0  0  0  0  0  0  0  0  0  0  0
  2  1  1  1
  3  2  1  0
  4  3  1  0
  5  4  2  0
  6  7  1  0
  6  5  1  0
  7 12  2  0
  8  7  1  0
  8  9  2  0
  9 10  1  0
 10 11  2  0
 12  4  1  0
 12 11  1  0
 13  2  1  0
 14 13  2  0
 16 17  2  0
 16 15  1  0
 18 16  1  0
 19 18  1  0
 20 19  1  1
 20 21  1  0
 21 13  1  0
 22 20  1  0
 23 22  2  0
 25 27  1  0
 25 24  1  0
 26 25  2  0
 28 27  1  1
 28 30  1  0
 28 29  1  0
 29 22  1  0
 30 32  1  0
 31 30  2  0
M  END
$$$$
