WQN.pdb
     RDKit          3D

 32 33  0  0  1  0  0  0  0  0999 V2000
    6.3852  -17.5119   23.5704 N   0  0  0  0  0  0  0  0  0  0  0  0
    7.1298  -16.2986   23.2900 C   0  0  1  0  0  0  0  0  0  0  0  0
    8.0174  -16.0608   24.4978 C   0  0  0  0  0  0  0  0  0  0  0  0
    7.3196  -15.2343   25.5145 C   0  0  0  0  0  0  0  0  0  0  0  0
    6.4663  -15.6840   26.5286 C   0  0  0  0  0  0  0  0  0  0  0  0
    6.0247  -14.6459   27.2491 N   0  0  0  0  0  0  0  0  0  0  0  0
    6.5543  -13.4933   26.7538 C   0  0  0  0  0  0  0  0  0  0  0  0
    6.4029  -12.1835   27.1485 C   0  0  0  0  0  0  0  0  0  0  0  0
    7.0639  -11.1846   26.4637 C   0  0  0  0  0  0  0  0  0  0  0  0
    7.8591  -11.5540   25.3973 C   0  0  0  0  0  0  0  0  0  0  0  0
    8.0083  -12.8667   25.0051 C   0  0  0  0  0  0  0  0  0  0  0  0
    7.3532  -13.8609   25.6829 C   0  0  0  0  0  0  0  0  0  0  0  0
    7.9134  -16.5119   22.0631 C   0  0  0  0  0  0  0  0  0  0  0  0
    8.1720  -17.6784   21.6675 O   0  0  0  0  0  0  0  0  0  0  0  0
    8.7346  -13.0508   16.8451 N   0  0  0  0  0  0  0  0  0  0  0  0
    7.5547  -13.4900   17.4844 C   0  0  0  0  0  0  0  0  0  0  0  0
    6.4444  -13.1706   17.0149 O   0  0  0  0  0  0  0  0  0  0  0  0
    7.6533  -14.3288   18.7106 C   0  0  0  0  0  0  0  0  0  0  0  0
    9.0808  -14.5864   19.0878 C   0  0  0  0  0  0  0  0  0  0  0  0
    9.2494  -15.6779   20.0884 C   0  0  2  0  0  0  0  0  0  0  0  0
    8.4135  -15.4300   21.2704 N   0  0  0  0  0  0  0  0  0  0  0  0
   10.6189  -15.8559   20.6099 C   0  0  0  0  0  0  0  0  0  0  0  0
   11.5781  -15.9461   19.8100 O   0  0  0  0  0  0  0  0  0  0  0  0
   14.8395  -15.1651   24.2549 N   0  0  0  0  0  0  0  0  0  0  0  0
   13.8010  -16.1389   24.3746 C   0  0  0  0  0  0  0  0  0  0  0  0
   14.1218  -17.2387   24.8831 O   0  0  0  0  0  0  0  0  0  0  0  0
   12.4573  -15.7651   23.8931 C   0  0  0  0  0  0  0  0  0  0  0  0
   12.2606  -16.2631   22.5035 C   0  0  2  0  0  0  0  0  0  0  0  0
   10.9341  -15.9336   21.9853 N   0  0  0  0  0  0  0  0  0  0  0  0
   12.5424  -17.6941   22.4161 C   0  0  0  0  0  0  0  0  0  0  0  0
   13.6835  -18.0206   21.9365 O   0  0  0  0  0  0  0  0  0  0  0  0
   11.7329  -18.7295   22.7864 O   0  0  0  0  0  0  0  0  0  0  0  0
  2  1  1  1
  3  2  1  0
  4  3  1  0
  5  4  2  0
  6  7  1  0
  6  5  1  0
  7 12  2  0
  8  7  1  0
  8  9  2  0
  9 10  1  0
 10 11  2  0
 12  4  1  0
 12 11  1  0
 13  2  1  0
 14 13  2  0
 16 17  2  0
 16 15  1  0
 18 16  1  0
 19 18  1  0
 20 19  1  6
 20 21  1  0
 21 13  1  0
 22 20  1  0
 23 22  2  0
 25 27  1  0
 25 24  1  0
 26 25  2  0
 28 27  1  1
 28 30  1  0
 28 29  1  0
 29 22  1  0
 30 32  1  0
 31 30  2  0
M  END
$$$$
