WQN.pdb
     RDKit          3D

 32 33  0  0  1  0  0  0  0  0999 V2000
    6.2628  -16.9437   23.5480 N   0  0  0  0  0  0  0  0  0  0  0  0
    7.4001  -16.1168   23.1902 C   0  0  1  0  0  0  0  0  0  0  0  0
    8.2770  -16.0493   24.4270 C   0  0  0  0  0  0  0  0  0  0  0  0
    7.6411  -15.2232   25.4838 C   0  0  0  0  0  0  0  0  0  0  0  0
    6.9944  -15.6790   26.6382 C   0  0  0  0  0  0  0  0  0  0  0  0
    6.5452  -14.6396   27.3520 N   0  0  0  0  0  0  0  0  0  0  0  0
    6.8679  -13.4801   26.7151 C   0  0  0  0  0  0  0  0  0  0  0  0
    6.6281  -12.1663   27.0480 C   0  0  0  0  0  0  0  0  0  0  0  0
    7.0706  -11.1602   26.2138 C   0  0  0  0  0  0  0  0  0  0  0  0
    7.7443  -11.5268   25.0659 C   0  0  0  0  0  0  0  0  0  0  0  0
    7.9826  -12.8434   24.7360 C   0  0  0  0  0  0  0  0  0  0  0  0
    7.5444  -13.8448   25.5621 C   0  0  0  0  0  0  0  0  0  0  0  0
    8.0924  -16.7505   22.0571 C   0  0  0  0  0  0  0  0  0  0  0  0
    8.1687  -18.0043   21.9781 O   0  0  0  0  0  0  0  0  0  0  0  0
    7.0841  -14.0438   17.8761 N   0  0  0  0  0  0  0  0  0  0  0  0
    8.4345  -13.6477   17.9911 C   0  0  0  0  0  0  0  0  0  0  0  0
    8.7459  -12.4563   17.7937 O   0  0  0  0  0  0  0  0  0  0  0  0
    9.4680  -14.6588   18.3467 C   0  0  0  0  0  0  0  0  0  0  0  0
    8.8599  -16.0090   18.5785 C   0  0  0  0  0  0  0  0  0  0  0  0
    9.3057  -16.6585   19.8436 C   0  0  2  0  0  0  0  0  0  0  0  0
    8.7034  -15.9939   21.0068 N   0  0  0  0  0  0  0  0  0  0  0  0
   10.7608  -16.6351   20.0915 C   0  0  0  0  0  0  0  0  0  0  0  0
   11.5352  -17.1913   19.2798 O   0  0  0  0  0  0  0  0  0  0  0  0
   12.7325  -13.3359   19.4684 N   0  0  0  0  0  0  0  0  0  0  0  0
   13.4932  -14.4718   19.8830 C   0  0  0  0  0  0  0  0  0  0  0  0
   14.1072  -15.0922   18.9833 O   0  0  0  0  0  0  0  0  0  0  0  0
   13.4871  -14.8088   21.3195 C   0  0  0  0  0  0  0  0  0  0  0  0
   12.7820  -16.1030   21.5331 C   0  0  2  0  0  0  0  0  0  0  0  0
   11.3593  -16.0125   21.2101 N   0  0  0  0  0  0  0  0  0  0  0  0
   13.0050  -16.6025   22.8879 C   0  0  0  0  0  0  0  0  0  0  0  0
   11.9583  -16.8475   23.5830 O   0  0  0  0  0  0  0  0  0  0  0  0
   14.1996  -16.8413   23.5047 O   0  0  0  0  0  0  0  0  0  0  0  0
  2  1  1  1
  3  2  1  0
  4  3  1  0
  5  4  2  0
  6  7  1  0
  6  5  1  0
  7 12  2  0
  8  7  1  0
  8  9  2  0
  9 10  1  0
 10 11  2  0
 12  4  1  0
 12 11  1  0
 13  2  1  0
 14 13  2  0
 16 17  2  0
 16 15  1  0
 18 16  1  0
 19 18  1  0
 20 19  1  6
 20 21  1  0
 21 13  1  0
 22 20  1  0
 23 22  2  0
 25 27  1  0
 25 24  1  0
 26 25  2  0
 28 27  1  1
 28 30  1  0
 28 29  1  0
 29 22  1  0
 30 32  1  0
 31 30  2  0
M  END
$$$$
