WQN.pdb
     RDKit          3D

 32 33  0  0  1  0  0  0  0  0999 V2000
    7.3470  -16.5956   23.2060 N   0  0  0  0  0  0  0  0  0  0  0  0
    8.5744  -15.8539   23.4259 C   0  0  1  0  0  0  0  0  0  0  0  0
    8.7447  -15.7585   24.9310 C   0  0  0  0  0  0  0  0  0  0  0  0
    7.5920  -15.0590   25.5520 C   0  0  0  0  0  0  0  0  0  0  0  0
    6.4923  -15.6440   26.1901 C   0  0  0  0  0  0  0  0  0  0  0  0
    5.6549  -14.6935   26.6226 N   0  0  0  0  0  0  0  0  0  0  0  0
    6.1534  -13.4689   26.2965 C   0  0  0  0  0  0  0  0  0  0  0  0
    5.6646  -12.2022   26.5222 C   0  0  0  0  0  0  0  0  0  0  0  0
    6.3790  -11.1074   26.0808 C   0  0  0  0  0  0  0  0  0  0  0  0
    7.5703  -11.3399   25.4228 C   0  0  0  0  0  0  0  0  0  0  0  0
    8.0564  -12.6098   25.1987 C   0  0  0  0  0  0  0  0  0  0  0  0
    7.3494  -13.6990   25.6357 C   0  0  0  0  0  0  0  0  0  0  0  0
    9.6785  -16.5911   22.7916 C   0  0  0  0  0  0  0  0  0  0  0  0
    9.4415  -17.5888   22.0619 O   0  0  0  0  0  0  0  0  0  0  0  0
   13.4522  -15.1379   18.6821 N   0  0  0  0  0  0  0  0  0  0  0  0
   12.3779  -14.3991   19.2239 C   0  0  0  0  0  0  0  0  0  0  0  0
   11.9696  -13.3807   18.6309 O   0  0  0  0  0  0  0  0  0  0  0  0
   11.7475  -14.8467   20.4964 C   0  0  0  0  0  0  0  0  0  0  0  0
   11.8559  -16.3312   20.6717 C   0  0  0  0  0  0  0  0  0  0  0  0
   12.0968  -16.7529   22.0807 C   0  0  2  0  0  0  0  0  0  0  0  0
   11.0508  -16.2232   22.9654 N   0  0  0  0  0  0  0  0  0  0  0  0
   13.3722  -16.3002   22.6703 C   0  0  0  0  0  0  0  0  0  0  0  0
   14.4003  -16.2518   21.9571 O   0  0  0  0  0  0  0  0  0  0  0  0
   14.7447  -18.4224   27.0280 N   0  0  0  0  0  0  0  0  0  0  0  0
   13.3962  -18.6107   26.5957 C   0  0  0  0  0  0  0  0  0  0  0  0
   12.7289  -19.4777   27.2074 O   0  0  0  0  0  0  0  0  0  0  0  0
   12.9155  -17.7754   25.4784 C   0  0  0  0  0  0  0  0  0  0  0  0
   13.9686  -16.7976   25.0876 C   0  0  2  0  0  0  0  0  0  0  0  0
   13.5203  -15.9062   24.0193 N   0  0  0  0  0  0  0  0  0  0  0  0
   15.2142  -17.4799   24.7446 C   0  0  0  0  0  0  0  0  0  0  0  0
   15.1886  -18.2187   23.6995 O   0  0  0  0  0  0  0  0  0  0  0  0
   16.4074  -17.4241   25.4063 O   0  0  0  0  0  0  0  0  0  0  0  0
  2  1  1  1
  3  2  1  0
  4  3  1  0
  5  4  2  0
  6  7  1  0
  6  5  1  0
  7 12  2  0
  8  7  1  0
  8  9  2  0
  9 10  1  0
 10 11  2  0
 12  4  1  0
 12 11  1  0
 13  2  1  0
 14 13  2  0
 16 17  2  0
 16 15  1  0
 18 16  1  0
 19 18  1  0
 20 19  1  6
 20 21  1  0
 21 13  1  0
 22 20  1  0
 23 22  2  0
 25 27  1  0
 25 24  1  0
 26 25  2  0
 28 27  1  6
 28 30  1  0
 28 29  1  0
 29 22  1  0
 30 32  1  0
 31 30  2  0
M  END
$$$$
