WQN.pdb
     RDKit          3D

 32 33  0  0  1  0  0  0  0  0999 V2000
    6.8687  -17.1924   23.8622 N   0  0  0  0  0  0  0  0  0  0  0  0
    8.2462  -16.7508   23.9746 C   0  0  1  0  0  0  0  0  0  0  0  0
    8.4271  -16.2982   25.4118 C   0  0  0  0  0  0  0  0  0  0  0  0
    7.3637  -15.3395   25.8040 C   0  0  0  0  0  0  0  0  0  0  0  0
    6.0446  -15.6404   26.1618 C   0  0  0  0  0  0  0  0  0  0  0  0
    5.3803  -14.5146   26.4499 N   0  0  0  0  0  0  0  0  0  0  0  0
    6.2120  -13.4470   26.2984 C   0  0  0  0  0  0  0  0  0  0  0  0
    5.9976  -12.0991   26.4751 C   0  0  0  0  0  0  0  0  0  0  0  0
    7.0286  -11.2099   26.2512 C   0  0  0  0  0  0  0  0  0  0  0  0
    8.2465  -11.7247   25.8539 C   0  0  0  0  0  0  0  0  0  0  0  0
    8.4573  -13.0751   25.6781 C   0  0  0  0  0  0  0  0  0  0  0  0
    7.4356  -13.9606   25.8995 C   0  0  0  0  0  0  0  0  0  0  0  0
    9.1224  -17.8841   23.6387 C   0  0  0  0  0  0  0  0  0  0  0  0
    8.6675  -19.0574   23.6219 O   0  0  0  0  0  0  0  0  0  0  0  0
    9.9201  -19.7895   19.0945 N   0  0  0  0  0  0  0  0  0  0  0  0
   11.2272  -20.1657   19.4736 C   0  0  0  0  0  0  0  0  0  0  0  0
   11.6477  -21.3044   19.1877 O   0  0  0  0  0  0  0  0  0  0  0  0
   12.0852  -19.1967   20.2097 C   0  0  0  0  0  0  0  0  0  0  0  0
   11.2691  -18.2905   21.0810 C   0  0  0  0  0  0  0  0  0  0  0  0
   11.2248  -18.7120   22.5098 C   0  0  2  0  0  0  0  0  0  0  0  0
   10.5081  -17.7186   23.3204 N   0  0  0  0  0  0  0  0  0  0  0  0
   12.5374  -18.8760   23.1649 C   0  0  0  0  0  0  0  0  0  0  0  0
   13.5795  -18.8740   22.4706 O   0  0  0  0  0  0  0  0  0  0  0  0
   15.7274  -17.5577   24.9266 N   0  0  0  0  0  0  0  0  0  0  0  0
   14.8440  -16.5406   24.4513 C   0  0  0  0  0  0  0  0  0  0  0  0
   15.3706  -15.5894   23.8276 O   0  0  0  0  0  0  0  0  0  0  0  0
   13.4049  -16.7004   24.7351 C   0  0  0  0  0  0  0  0  0  0  0  0
   13.1701  -17.9823   25.4557 C   0  0  2  0  0  0  0  0  0  0  0  0
   12.7074  -19.0393   24.5583 N   0  0  0  0  0  0  0  0  0  0  0  0
   12.2645  -17.7886   26.5859 C   0  0  0  0  0  0  0  0  0  0  0  0
   12.7724  -17.2657   27.6382 O   0  0  0  0  0  0  0  0  0  0  0  0
   10.9365  -18.0983   26.6555 O   0  0  0  0  0  0  0  0  0  0  0  0
  2  1  1  1
  3  2  1  0
  4  3  1  0
  5  4  2  0
  6  7  1  0
  6  5  1  0
  7 12  2  0
  8  7  1  0
  8  9  2  0
  9 10  1  0
 10 11  2  0
 12  4  1  0
 12 11  1  0
 13  2  1  0
 14 13  2  0
 16 17  2  0
 16 15  1  0
 18 16  1  0
 19 18  1  0
 20 19  1  6
 20 21  1  0
 21 13  1  0
 22 20  1  0
 23 22  2  0
 25 27  1  0
 25 24  1  0
 26 25  2  0
 28 27  1  6
 28 30  1  0
 28 29  1  0
 29 22  1  0
 30 32  1  0
 31 30  2  0
M  END
$$$$
