WQN.pdb
     RDKit          3D

 32 33  0  0  1  0  0  0  0  0999 V2000
    6.8995  -18.2937   24.3802 N   0  0  0  0  0  0  0  0  0  0  0  0
    7.2942  -17.0071   23.8381 C   0  0  1  0  0  0  0  0  0  0  0  0
    8.0705  -16.3071   24.9382 C   0  0  0  0  0  0  0  0  0  0  0  0
    7.2501  -15.2455   25.5736 C   0  0  0  0  0  0  0  0  0  0  0  0
    6.0784  -15.4158   26.3198 C   0  0  0  0  0  0  0  0  0  0  0  0
    5.6196  -14.2269   26.7293 N   0  0  0  0  0  0  0  0  0  0  0  0
    6.4485  -13.2434   26.2818 C   0  0  0  0  0  0  0  0  0  0  0  0
    6.4017  -11.8771   26.4405 C   0  0  0  0  0  0  0  0  0  0  0  0
    7.3848  -11.0913   25.8749 C   0  0  0  0  0  0  0  0  0  0  0  0
    8.3852  -11.7250   25.1651 C   0  0  0  0  0  0  0  0  0  0  0  0
    8.4286  -13.0935   25.0085 C   0  0  0  0  0  0  0  0  0  0  0  0
    7.4539  -13.8765   25.5688 C   0  0  0  0  0  0  0  0  0  0  0  0
    8.1212  -17.2440   22.6444 C   0  0  0  0  0  0  0  0  0  0  0  0
    8.6412  -18.3725   22.4438 O   0  0  0  0  0  0  0  0  0  0  0  0
    7.5106  -17.9811   17.6039 N   0  0  0  0  0  0  0  0  0  0  0  0
    8.8503  -17.5415   17.5289 C   0  0  0  0  0  0  0  0  0  0  0  0
    9.7283  -18.3128   17.0934 O   0  0  0  0  0  0  0  0  0  0  0  0
    9.1958  -16.1623   17.9711 C   0  0  0  0  0  0  0  0  0  0  0  0
    8.5395  -15.8220   19.2748 C   0  0  0  0  0  0  0  0  0  0  0  0
    9.1369  -16.5210   20.4477 C   0  0  2  0  0  0  0  0  0  0  0  0
    8.3743  -16.2280   21.6684 N   0  0  0  0  0  0  0  0  0  0  0  0
   10.5320  -16.1551   20.7625 C   0  0  0  0  0  0  0  0  0  0  0  0
   11.4156  -16.2731   19.8832 O   0  0  0  0  0  0  0  0  0  0  0  0
   14.2536  -17.0298   24.0530 N   0  0  0  0  0  0  0  0  0  0  0  0
   13.0163  -17.6278   24.4434 C   0  0  0  0  0  0  0  0  0  0  0  0
   13.0785  -18.5160   25.3257 O   0  0  0  0  0  0  0  0  0  0  0  0
   11.7886  -17.1501   23.7788 C   0  0  0  0  0  0  0  0  0  0  0  0
   12.1362  -16.1509   22.7307 C   0  0  2  0  0  0  0  0  0  0  0  0
   10.9538  -15.6674   22.0201 N   0  0  0  0  0  0  0  0  0  0  0  0
   13.1452  -16.6813   21.8167 C   0  0  0  0  0  0  0  0  0  0  0  0
   12.7628  -17.6125   21.0260 O   0  0  0  0  0  0  0  0  0  0  0  0
   14.4520  -16.3018   21.7031 O   0  0  0  0  0  0  0  0  0  0  0  0
  2  1  1  1
  3  2  1  0
  4  3  1  0
  5  4  2  0
  6  7  1  0
  6  5  1  0
  7 12  2  0
  8  7  1  0
  8  9  2  0
  9 10  1  0
 10 11  2  0
 12  4  1  0
 12 11  1  0
 13  2  1  0
 14 13  2  0
 16 17  2  0
 16 15  1  0
 18 16  1  0
 19 18  1  0
 20 19  1  6
 20 21  1  0
 21 13  1  0
 22 20  1  0
 23 22  2  0
 25 27  1  0
 25 24  1  0
 26 25  2  0
 28 27  1  1
 28 30  1  0
 28 29  1  0
 29 22  1  0
 30 32  1  0
 31 30  2  0
M  END
$$$$
