LCF.pdb
     RDKit          3D

 26 26  0  0  1  0  0  0  0  0999 V2000
    9.8785  -13.9914   18.6116 C   0  0  0  0  0  0  0  0  0  0  0  0
    8.9412  -13.7440   19.7573 C   0  0  1  0  0  0  0  0  0  0  0  0
    8.5667  -12.2804   19.8462 C   0  0  0  0  0  0  0  0  0  0  0  0
    7.7974  -14.6764   19.8483 C   0  0  0  0  0  0  0  0  0  0  0  0
    8.0699  -16.1213   20.0150 C   0  0  2  0  0  0  0  0  0  0  0  0
    7.1503  -17.0084   19.3920 N   0  0  0  0  0  0  0  0  0  0  0  0
    8.2751  -16.5367   21.4194 C   0  0  0  0  0  0  0  0  0  0  0  0
    7.3082  -16.4178   22.2104 O   0  0  0  0  0  0  0  0  0  0  0  0
    9.4804  -17.0608   21.9493 N   0  0  0  0  0  0  0  0  0  0  0  0
    9.5564  -17.5367   23.3405 C   0  0  1  0  0  0  0  0  0  0  0  0
   10.2899  -18.8581   23.3833 C   0  0  0  0  0  0  0  0  0  0  0  0
   10.7043  -19.3416   25.0756 S   0  0  0  0  0  0  0  0  0  0  0  0
   10.2413  -16.5238   24.1918 C   0  0  0  0  0  0  0  0  0  0  0  0
   11.2373  -15.9373   23.7425 O   0  0  0  0  0  0  0  0  0  0  0  0
    9.7550  -16.2494   25.4784 N   0  0  0  0  0  0  0  0  0  0  0  0
   10.3896  -15.3413   26.3802 C   0  0  1  0  0  0  0  0  0  0  0  0
    9.9992  -13.9075   26.2262 C   0  0  0  0  0  0  0  0  0  0  0  0
    8.5781  -13.6757   26.5884 C   0  0  0  0  0  0  0  0  0  0  0  0
    8.2367  -12.7553   27.5723 C   0  0  0  0  0  0  0  0  0  0  0  0
    6.9318  -12.5175   27.9307 C   0  0  0  0  0  0  0  0  0  0  0  0
    5.8991  -13.1928   27.3187 C   0  0  0  0  0  0  0  0  0  0  0  0
    6.2188  -14.1091   26.3409 C   0  0  0  0  0  0  0  0  0  0  0  0
    7.5290  -14.3477   25.9813 C   0  0  0  0  0  0  0  0  0  0  0  0
   10.3199  -15.7783   27.8220 C   0  0  0  0  0  0  0  0  0  0  0  0
    9.6796  -16.9254   28.2329 O   0  0  0  0  0  0  0  0  0  0  0  0
   10.8761  -15.0652   28.7084 O   0  0  0  0  0  0  0  0  0  0  0  0
  2  4  1  0
  2  1  1  6
  3  2  1  0
  4  5  1  0
  5  7  1  0
  5  6  1  1
  7  8  2  0
  9 10  1  0
  9  7  1  0
 10 11  1  6
 12 11  1  0
 13 10  1  0
 13 14  2  0
 15 13  1  0
 16 15  1  0
 16 24  1  0
 16 17  1  1
 18 17  1  0
 19 18  2  0
 20 19  1  0
 21 22  1  0
 21 20  2  0
 22 23  2  0
 23 18  1  0
 24 25  1  0
 26 24  2  0
M  END
$$$$
