LCF.pdb
     RDKit          3D

 26 26  0  0  1  0  0  0  0  0999 V2000
    6.8784  -12.0997   19.0191 C   0  0  0  0  0  0  0  0  0  0  0  0
    7.8581  -13.2311   19.1316 C   0  0  1  0  0  0  0  0  0  0  0  0
    9.2810  -12.7320   19.0032 C   0  0  0  0  0  0  0  0  0  0  0  0
    7.6308  -14.1510   20.2664 C   0  0  0  0  0  0  0  0  0  0  0  0
    8.5891  -15.2566   20.4880 C   0  0  2  0  0  0  0  0  0  0  0  0
    8.6501  -16.2465   19.4695 N   0  0  0  0  0  0  0  0  0  0  0  0
    8.4520  -15.9169   21.8041 C   0  0  0  0  0  0  0  0  0  0  0  0
    7.3102  -15.9516   22.3235 O   0  0  0  0  0  0  0  0  0  0  0  0
    9.5094  -16.5171   22.5318 N   0  0  0  0  0  0  0  0  0  0  0  0
    9.2482  -17.2812   23.7630 C   0  0  1  0  0  0  0  0  0  0  0  0
    9.8500  -18.6625   23.6379 C   0  0  0  0  0  0  0  0  0  0  0  0
   10.0599  -19.1495   21.9092 S   0  0  0  0  0  0  0  0  0  0  0  0
    9.8116  -16.5634   24.9407 C   0  0  0  0  0  0  0  0  0  0  0  0
   10.8434  -15.8909   24.7961 O   0  0  0  0  0  0  0  0  0  0  0  0
    9.1733  -16.6569   26.1861 N   0  0  0  0  0  0  0  0  0  0  0  0
    9.7035  -16.0880   27.3844 C   0  0  1  0  0  0  0  0  0  0  0  0
    8.7284  -15.3188   28.2146 C   0  0  0  0  0  0  0  0  0  0  0  0
    8.1420  -14.1766   27.4690 C   0  0  0  0  0  0  0  0  0  0  0  0
    8.8392  -12.9816   27.3364 C   0  0  0  0  0  0  0  0  0  0  0  0
    8.3250  -11.9062   26.6531 C   0  0  0  0  0  0  0  0  0  0  0  0
    7.0810  -11.9745   26.0657 C   0  0  0  0  0  0  0  0  0  0  0  0
    6.3753  -13.1515   26.1870 C   0  0  0  0  0  0  0  0  0  0  0  0
    6.8919  -14.2310   26.8731 C   0  0  0  0  0  0  0  0  0  0  0  0
   10.4845  -17.0695   28.2219 C   0  0  0  0  0  0  0  0  0  0  0  0
   11.3400  -16.6879   29.2304 O   0  0  0  0  0  0  0  0  0  0  0  0
   10.3540  -18.3091   27.9985 O   0  0  0  0  0  0  0  0  0  0  0  0
  2  4  1  0
  2  1  1  1
  3  2  1  0
  4  5  1  0
  5  7  1  0
  5  6  1  6
  7  8  2  0
  9 10  1  0
  9  7  1  0
 10 11  1  6
 12 11  1  0
 13 10  1  0
 13 14  2  0
 15 13  1  0
 16 15  1  0
 16 24  1  0
 16 17  1  1
 18 17  1  0
 19 18  2  0
 20 19  1  0
 21 22  1  0
 21 20  2  0
 22 23  2  0
 23 18  1  0
 24 25  1  0
 26 24  2  0
M  END
$$$$
