LCF.pdb
     RDKit          3D

 26 26  0  0  1  0  0  0  0  0999 V2000
    7.4492  -12.1146   18.7457 C   0  0  0  0  0  0  0  0  0  0  0  0
    7.9241  -13.5139   19.0080 C   0  0  1  0  0  0  0  0  0  0  0  0
    9.4141  -13.6349   18.7726 C   0  0  0  0  0  0  0  0  0  0  0  0
    7.4528  -14.1121   20.2752 C   0  0  0  0  0  0  0  0  0  0  0  0
    7.8850  -15.4856   20.6168 C   0  0  2  0  0  0  0  0  0  0  0  0
    7.5547  -16.4987   19.6759 N   0  0  0  0  0  0  0  0  0  0  0  0
    7.4811  -15.9244   21.9700 C   0  0  0  0  0  0  0  0  0  0  0  0
    6.9728  -15.0681   22.7336 O   0  0  0  0  0  0  0  0  0  0  0  0
    7.6214  -17.2393   22.4791 N   0  0  0  0  0  0  0  0  0  0  0  0
    7.3764  -17.5353   23.9004 C   0  0  1  0  0  0  0  0  0  0  0  0
    7.0196  -18.9960   24.0584 C   0  0  0  0  0  0  0  0  0  0  0  0
    7.0405  -19.5085   25.7923 S   0  0  0  0  0  0  0  0  0  0  0  0
    8.5799  -17.1942   24.7096 C   0  0  0  0  0  0  0  0  0  0  0  0
    9.6985  -17.5282   24.2912 O   0  0  0  0  0  0  0  0  0  0  0  0
    8.4333  -16.5061   25.9230 N   0  0  0  0  0  0  0  0  0  0  0  0
    9.5376  -16.0961   26.7311 C   0  0  1  0  0  0  0  0  0  0  0  0
    9.8253  -14.6301   26.7269 C   0  0  0  0  0  0  0  0  0  0  0  0
    8.5884  -13.8198   26.8609 C   0  0  0  0  0  0  0  0  0  0  0  0
    7.6630  -13.7591   25.8257 C   0  0  0  0  0  0  0  0  0  0  0  0
    6.5091  -13.0190   25.9180 C   0  0  0  0  0  0  0  0  0  0  0  0
    6.2233  -12.2994   27.0572 C   0  0  0  0  0  0  0  0  0  0  0  0
    7.1294  -12.3478   28.0938 C   0  0  0  0  0  0  0  0  0  0  0  0
    8.2877  -13.0910   28.0008 C   0  0  0  0  0  0  0  0  0  0  0  0
    9.4908  -16.6431   28.1358 C   0  0  0  0  0  0  0  0  0  0  0  0
    8.4709  -17.4417   28.6012 O   0  0  0  0  0  0  0  0  0  0  0  0
   10.4315  -16.3638   28.9363 O   0  0  0  0  0  0  0  0  0  0  0  0
  2  4  1  0
  2  1  1  1
  3  2  1  0
  4  5  1  0
  5  7  1  0
  5  6  1  6
  7  8  2  0
  9 10  1  0
  9  7  1  0
 10 11  1  6
 12 11  1  0
 13 10  1  0
 13 14  2  0
 15 13  1  0
 16 15  1  0
 16 24  1  0
 16 17  1  1
 18 17  1  0
 19 18  2  0
 20 19  1  0
 21 22  1  0
 21 20  2  0
 22 23  2  0
 23 18  1  0
 24 25  1  0
 26 24  2  0
M  END
$$$$
