LCF.pdb
     RDKit          3D

 26 26  0  0  1  0  0  0  0  0999 V2000
    7.2313  -12.0618   19.6224 C   0  0  0  0  0  0  0  0  0  0  0  0
    7.9538  -13.3640   19.4363 C   0  0  1  0  0  0  0  0  0  0  0  0
    9.4508  -13.1507   19.3765 C   0  0  0  0  0  0  0  0  0  0  0  0
    7.5253  -14.4565   20.3355 C   0  0  0  0  0  0  0  0  0  0  0  0
    8.1932  -15.7723   20.2236 C   0  0  2  0  0  0  0  0  0  0  0  0
    7.7066  -16.6375   19.2061 N   0  0  0  0  0  0  0  0  0  0  0  0
    8.2758  -16.5154   21.4995 C   0  0  0  0  0  0  0  0  0  0  0  0
    7.2114  -16.9818   21.9730 O   0  0  0  0  0  0  0  0  0  0  0  0
    9.4641  -16.7457   22.2362 N   0  0  0  0  0  0  0  0  0  0  0  0
    9.4280  -17.4057   23.5518 C   0  0  1  0  0  0  0  0  0  0  0  0
    9.9225  -18.8281   23.4176 C   0  0  0  0  0  0  0  0  0  0  0  0
   11.5204  -18.9068   22.5749 S   0  0  0  0  0  0  0  0  0  0  0  0
   10.2586  -16.6469   24.5286 C   0  0  0  0  0  0  0  0  0  0  0  0
   11.3505  -16.1891   24.1595 O   0  0  0  0  0  0  0  0  0  0  0  0
    9.7990  -16.4620   25.8407 N   0  0  0  0  0  0  0  0  0  0  0  0
   10.5153  -15.7150   26.8253 C   0  0  1  0  0  0  0  0  0  0  0  0
   10.5648  -14.2391   26.5993 C   0  0  0  0  0  0  0  0  0  0  0  0
    9.2085  -13.6363   26.5600 C   0  0  0  0  0  0  0  0  0  0  0  0
    8.7129  -12.9304   27.6497 C   0  0  0  0  0  0  0  0  0  0  0  0
    7.4626  -12.3606   27.6454 C   0  0  0  0  0  0  0  0  0  0  0  0
    6.6427  -12.4701   26.5440 C   0  0  0  0  0  0  0  0  0  0  0  0
    7.1176  -13.1665   25.4543 C   0  0  0  0  0  0  0  0  0  0  0  0
    8.3729  -13.7383   25.4591 C   0  0  0  0  0  0  0  0  0  0  0  0
   10.1092  -16.0411   28.2408 C   0  0  0  0  0  0  0  0  0  0  0  0
    9.0297  -16.8362   28.5521 O   0  0  0  0  0  0  0  0  0  0  0  0
   10.7880  -15.5686   29.1997 O   0  0  0  0  0  0  0  0  0  0  0  0
  2  4  1  0
  2  1  1  1
  3  2  1  0
  4  5  1  0
  5  7  1  0
  5  6  1  6
  7  8  2  0
  9 10  1  0
  9  7  1  0
 10 11  1  6
 12 11  1  0
 13 10  1  0
 13 14  2  0
 15 13  1  0
 16 15  1  0
 16 24  1  0
 16 17  1  6
 18 17  1  0
 19 18  2  0
 20 19  1  0
 21 22  1  0
 21 20  2  0
 22 23  2  0
 23 18  1  0
 24 25  1  0
 26 24  2  0
M  END
$$$$
