LCF.pdb
     RDKit          3D

 26 26  0  0  1  0  0  0  0  0999 V2000
    6.6049  -12.7148   19.0614 C   0  0  0  0  0  0  0  0  0  0  0  0
    7.8623  -13.4517   19.4194 C   0  0  1  0  0  0  0  0  0  0  0  0
    9.0713  -12.5483   19.3089 C   0  0  0  0  0  0  0  0  0  0  0  0
    7.7972  -14.2390   20.6691 C   0  0  0  0  0  0  0  0  0  0  0  0
    8.9710  -15.0514   21.0592 C   0  0  2  0  0  0  0  0  0  0  0  0
    9.4664  -15.9497   20.0752 N   0  0  0  0  0  0  0  0  0  0  0  0
    8.8051  -15.7719   22.3399 C   0  0  0  0  0  0  0  0  0  0  0  0
    7.7836  -15.5191   23.0236 O   0  0  0  0  0  0  0  0  0  0  0  0
    9.7094  -16.7296   22.8624 N   0  0  0  0  0  0  0  0  0  0  0  0
    9.4680  -17.3732   24.1645 C   0  0  1  0  0  0  0  0  0  0  0  0
   10.1097  -18.7421   24.1785 C   0  0  0  0  0  0  0  0  0  0  0  0
    9.8456  -19.5914   25.7527 S   0  0  0  0  0  0  0  0  0  0  0  0
   10.0082  -16.5245   25.2634 C   0  0  0  0  0  0  0  0  0  0  0  0
   11.0887  -15.9399   25.0941 O   0  0  0  0  0  0  0  0  0  0  0  0
    9.2942  -16.3992   26.4641 N   0  0  0  0  0  0  0  0  0  0  0  0
    9.8056  -15.7243   27.6146 C   0  0  1  0  0  0  0  0  0  0  0  0
    8.8385  -14.8243   28.3122 C   0  0  0  0  0  0  0  0  0  0  0  0
    8.1985  -13.8640   27.3780 C   0  0  0  0  0  0  0  0  0  0  0  0
    8.8024  -12.6467   27.0863 C   0  0  0  0  0  0  0  0  0  0  0  0
    8.2367  -11.7365   26.2265 C   0  0  0  0  0  0  0  0  0  0  0  0
    7.0322  -12.0015   25.6132 C   0  0  0  0  0  0  0  0  0  0  0  0
    6.4189  -13.2036   25.8906 C   0  0  0  0  0  0  0  0  0  0  0  0
    6.9873  -14.1171   26.7538 C   0  0  0  0  0  0  0  0  0  0  0  0
   10.5048  -16.6400   28.5878 C   0  0  0  0  0  0  0  0  0  0  0  0
   11.2608  -16.1836   29.6436 O   0  0  0  0  0  0  0  0  0  0  0  0
   10.3970  -17.8930   28.4395 O   0  0  0  0  0  0  0  0  0  0  0  0
  2  4  1  0
  2  1  1  1
  3  2  1  0
  4  5  1  0
  5  7  1  0
  5  6  1  6
  7  8  2  0
  9 10  1  0
  9  7  1  0
 10 11  1  6
 12 11  1  0
 13 10  1  0
 13 14  2  0
 15 13  1  0
 16 15  1  0
 16 24  1  0
 16 17  1  1
 18 17  1  0
 19 18  2  0
 20 19  1  0
 21 22  1  0
 21 20  2  0
 22 23  2  0
 23 18  1  0
 24 25  1  0
 26 24  2  0
M  END
$$$$
