LCF.pdb
     RDKit          3D

 26 26  0  0  1  0  0  0  0  0999 V2000
    6.0153  -11.8427   26.6445 C   0  0  0  0  0  0  0  0  0  0  0  0
    5.9546  -12.8068   25.4960 C   0  0  1  0  0  0  0  0  0  0  0  0
    6.0260  -12.0786   24.1713 C   0  0  0  0  0  0  0  0  0  0  0  0
    6.8565  -13.9732   25.6040 C   0  0  0  0  0  0  0  0  0  0  0  0
    6.6440  -15.1224   24.6963 C   0  0  2  0  0  0  0  0  0  0  0  0
    5.5590  -15.9827   25.0179 N   0  0  0  0  0  0  0  0  0  0  0  0
    7.8574  -15.9336   24.4584 C   0  0  0  0  0  0  0  0  0  0  0  0
    8.0501  -16.9269   25.2006 O   0  0  0  0  0  0  0  0  0  0  0  0
    8.8266  -15.6805   23.4561 N   0  0  0  0  0  0  0  0  0  0  0  0
    9.9965  -16.5589   23.2897 C   0  0  1  0  0  0  0  0  0  0  0  0
   10.7016  -16.2219   21.9954 C   0  0  0  0  0  0  0  0  0  0  0  0
   12.0470  -17.3774   21.6432 S   0  0  0  0  0  0  0  0  0  0  0  0
   10.9193  -16.4082   24.4495 C   0  0  0  0  0  0  0  0  0  0  0  0
   11.5724  -15.3602   24.5644 O   0  0  0  0  0  0  0  0  0  0  0  0
   11.0364  -17.4441   25.3878 N   0  0  0  0  0  0  0  0  0  0  0  0
   12.0699  -17.4982   26.3724 C   0  0  1  0  0  0  0  0  0  0  0  0
   11.6153  -17.3486   27.7876 C   0  0  0  0  0  0  0  0  0  0  0  0
   10.9364  -16.0487   28.0195 C   0  0  0  0  0  0  0  0  0  0  0  0
    9.5781  -15.9011   27.7647 C   0  0  0  0  0  0  0  0  0  0  0  0
    8.9202  -14.7123   27.9687 C   0  0  0  0  0  0  0  0  0  0  0  0
    9.5932  -13.6068   28.4403 C   0  0  0  0  0  0  0  0  0  0  0  0
   10.9404  -13.7347   28.6984 C   0  0  0  0  0  0  0  0  0  0  0  0
   11.6006  -14.9284   28.4934 C   0  0  0  0  0  0  0  0  0  0  0  0
   12.9911  -18.6818   26.2131 C   0  0  0  0  0  0  0  0  0  0  0  0
   12.8249  -19.6420   25.2410 O   0  0  0  0  0  0  0  0  0  0  0  0
   13.9715  -18.8090   27.0044 O   0  0  0  0  0  0  0  0  0  0  0  0
  2  4  1  0
  2  1  1  1
  3  2  1  0
  4  5  1  0
  5  7  1  0
  5  6  1  1
  7  8  2  0
  9 10  1  0
  9  7  1  0
 10 11  1  6
 12 11  1  0
 13 10  1  0
 13 14  2  0
 15 13  1  0
 16 15  1  0
 16 24  1  0
 16 17  1  1
 18 17  1  0
 19 18  2  0
 20 19  1  0
 21 22  1  0
 21 20  2  0
 22 23  2  0
 23 18  1  0
 24 25  1  0
 26 24  2  0
M  END
$$$$
