LCF.pdb
     RDKit          3D

 26 26  0  0  1  0  0  0  0  0999 V2000
    9.3094  -13.0974   19.4514 C   0  0  0  0  0  0  0  0  0  0  0  0
    7.9116  -13.6439   19.4491 C   0  0  1  0  0  0  0  0  0  0  0  0
    6.9777  -12.7431   18.6702 C   0  0  0  0  0  0  0  0  0  0  0  0
    7.7971  -15.0800   19.1172 C   0  0  0  0  0  0  0  0  0  0  0  0
    8.4808  -16.0662   19.9831 C   0  0  2  0  0  0  0  0  0  0  0  0
    8.4895  -17.4093   19.5174 N   0  0  0  0  0  0  0  0  0  0  0  0
    8.0350  -16.0403   21.3929 C   0  0  0  0  0  0  0  0  0  0  0  0
    8.2955  -15.0155   22.0685 O   0  0  0  0  0  0  0  0  0  0  0  0
    7.3339  -17.0830   22.0480 N   0  0  0  0  0  0  0  0  0  0  0  0
    7.0178  -17.0024   23.4838 C   0  0  1  0  0  0  0  0  0  0  0  0
    6.2897  -18.2564   23.9122 C   0  0  0  0  0  0  0  0  0  0  0  0
    7.3353  -19.7240   23.7632 S   0  0  0  0  0  0  0  0  0  0  0  0
    8.2675  -16.8203   24.2741 C   0  0  0  0  0  0  0  0  0  0  0  0
    9.3485  -17.1685   23.7759 O   0  0  0  0  0  0  0  0  0  0  0  0
    8.2057  -16.2625   25.5595 N   0  0  0  0  0  0  0  0  0  0  0  0
    9.3576  -16.0370   26.3735 C   0  0  1  0  0  0  0  0  0  0  0  0
    9.6821  -14.6036   26.6418 C   0  0  0  0  0  0  0  0  0  0  0  0
    8.4616  -13.7911   26.8757 C   0  0  0  0  0  0  0  0  0  0  0  0
    7.5340  -13.5936   25.8598 C   0  0  0  0  0  0  0  0  0  0  0  0
    6.3950  -12.8475   26.0436 C   0  0  0  0  0  0  0  0  0  0  0  0
    6.1271  -12.2593   27.2599 C   0  0  0  0  0  0  0  0  0  0  0  0
    7.0357  -12.4444   28.2788 C   0  0  0  0  0  0  0  0  0  0  0  0
    8.1791  -13.1935   28.0939 C   0  0  0  0  0  0  0  0  0  0  0  0
    9.3647  -16.8494   27.6441 C   0  0  0  0  0  0  0  0  0  0  0  0
    8.3143  -17.6486   28.0348 O   0  0  0  0  0  0  0  0  0  0  0  0
   10.3823  -16.8055   28.3967 O   0  0  0  0  0  0  0  0  0  0  0  0
  2  4  1  0
  2  1  1  6
  3  2  1  0
  4  5  1  0
  5  7  1  0
  5  6  1  6
  7  8  2  0
  9 10  1  0
  9  7  1  0
 10 11  1  1
 12 11  1  0
 13 10  1  0
 13 14  2  0
 15 13  1  0
 16 15  1  0
 16 24  1  0
 16 17  1  1
 18 17  1  0
 19 18  2  0
 20 19  1  0
 21 22  1  0
 21 20  2  0
 22 23  2  0
 23 18  1  0
 24 25  1  0
 26 24  2  0
M  END
$$$$
