FDF.pdb
     RDKit          3D

 31 32  0  0  1  0  0  0  0  0999 V2000
    5.9434  -18.0461   21.4515 N   0  0  0  0  0  0  0  0  0  0  0  0
    6.8566  -16.9399   21.5116 C   0  0  1  0  0  0  0  0  0  0  0  0
    6.2424  -15.7096   22.1086 C   0  0  0  0  0  0  0  0  0  0  0  0
    6.9322  -14.4578   21.7691 C   0  0  0  0  0  0  0  0  0  0  0  0
    7.4215  -13.6710   22.7891 C   0  0  0  0  0  0  0  0  0  0  0  0
    8.0848  -12.4690   22.5331 C   0  0  0  0  0  0  0  0  0  0  0  0
    8.2658  -12.0394   21.2327 C   0  0  0  0  0  0  0  0  0  0  0  0
    7.7792  -12.8218   20.2174 C   0  0  0  0  0  0  0  0  0  0  0  0
    7.1178  -14.0213   20.4846 C   0  0  0  0  0  0  0  0  0  0  0  0
    8.0517  -17.2696   22.3682 C   0  0  0  0  0  0  0  0  0  0  0  0
    7.9581  -18.0772   23.3268 O   0  0  0  0  0  0  0  0  0  0  0  0
    9.3274  -16.6866   22.1315 N   0  0  0  0  0  0  0  0  0  0  0  0
   10.5073  -17.0364   22.9084 C   0  0  1  0  0  0  0  0  0  0  0  0
   11.7603  -16.9172   22.1171 C   0  0  0  0  0  0  0  0  0  0  0  0
   12.8837  -17.5158   22.8609 C   0  0  0  0  0  0  0  0  0  0  0  0
   13.7483  -16.8575   23.4884 O   0  0  0  0  0  0  0  0  0  0  0  0
   10.5867  -16.2808   24.1589 C   0  0  0  0  0  0  0  0  0  0  0  0
   11.2862  -15.2438   24.2965 O   0  0  0  0  0  0  0  0  0  0  0  0
   12.9988  -18.8984   22.8723 O   0  0  0  0  0  0  0  0  0  0  0  0
    9.8220  -16.7604   25.2738 N   0  0  0  0  0  0  0  0  0  0  0  0
    9.9723  -16.1025   26.5845 C   0  0  1  0  0  0  0  0  0  0  0  0
    8.6133  -15.7164   27.1100 C   0  0  0  0  0  0  0  0  0  0  0  0
    8.0765  -14.5742   26.3557 C   0  0  0  0  0  0  0  0  0  0  0  0
    8.5532  -13.2986   26.4524 C   0  0  0  0  0  0  0  0  0  0  0  0
    8.0064  -12.2638   25.7016 C   0  0  0  0  0  0  0  0  0  0  0  0
    6.9594  -12.4901   24.8298 C   0  0  0  0  0  0  0  0  0  0  0  0
    6.4797  -13.7929   24.7379 C   0  0  0  0  0  0  0  0  0  0  0  0
    7.0243  -14.8038   25.4805 C   0  0  0  0  0  0  0  0  0  0  0  0
   10.6027  -17.0681   27.4942 C   0  0  0  0  0  0  0  0  0  0  0  0
   10.9936  -16.6872   28.7606 O   0  0  0  0  0  0  0  0  0  0  0  0
   10.8029  -18.2499   27.1556 O   0  0  0  0  0  0  0  0  0  0  0  0
  2  1  1  1
  3  2  1  0
  4  5  2  0
  4  3  1  0
  6  5  1  0
  7  6  2  0
  8  7  1  0
  8  9  2  0
  9  4  1  0
 10 11  2  0
 10  2  1  0
 12 10  1  0
 13 12  1  0
 13 14  1  6
 15 14  1  0
 16 15  2  0
 17 13  1  0
 18 17  2  0
 19 15  1  0
 20 17  1  0
 21 20  1  0
 21 22  1  1
 23 22  1  0
 24 23  2  0
 25 24  1  0
 26 25  2  0
 26 27  1  0
 27 28  2  0
 28 23  1  0
 29 21  1  0
 29 30  1  0
 31 29  2  0
M  END
$$$$
