FDF.pdb
     RDKit          3D

 31 32  0  0  1  0  0  0  0  0999 V2000
    5.9690  -18.5095   23.1920 N   0  0  0  0  0  0  0  0  0  0  0  0
    6.7518  -17.4574   22.6076 C   0  0  1  0  0  0  0  0  0  0  0  0
    6.1279  -16.1048   22.7763 C   0  0  0  0  0  0  0  0  0  0  0  0
    6.6984  -15.0589   21.9167 C   0  0  0  0  0  0  0  0  0  0  0  0
    7.1089  -13.8762   22.4927 C   0  0  0  0  0  0  0  0  0  0  0  0
    7.6574  -12.8424   21.7308 C   0  0  0  0  0  0  0  0  0  0  0  0
    7.8011  -12.9878   20.3645 C   0  0  0  0  0  0  0  0  0  0  0  0
    7.3928  -14.1642   19.7909 C   0  0  0  0  0  0  0  0  0  0  0  0
    6.8459  -15.1910   20.5619 C   0  0  0  0  0  0  0  0  0  0  0  0
    8.1128  -17.3741   23.2491 C   0  0  0  0  0  0  0  0  0  0  0  0
    8.2743  -17.6548   24.4636 O   0  0  0  0  0  0  0  0  0  0  0  0
    9.2647  -16.9777   22.5147 N   0  0  0  0  0  0  0  0  0  0  0  0
   10.6179  -17.1535   23.0208 C   0  0  1  0  0  0  0  0  0  0  0  0
   11.6377  -17.0876   21.9411 C   0  0  0  0  0  0  0  0  0  0  0  0
   12.9515  -17.5050   22.4641 C   0  0  0  0  0  0  0  0  0  0  0  0
   13.8485  -16.7119   22.8400 O   0  0  0  0  0  0  0  0  0  0  0  0
   10.9241  -16.2229   24.1078 C   0  0  0  0  0  0  0  0  0  0  0  0
   11.5740  -15.1579   23.9432 O   0  0  0  0  0  0  0  0  0  0  0  0
   13.2210  -18.8633   22.5492 O   0  0  0  0  0  0  0  0  0  0  0  0
   10.4518  -16.5570   25.4204 N   0  0  0  0  0  0  0  0  0  0  0  0
   11.2178  -16.1055   26.5963 C   0  0  1  0  0  0  0  0  0  0  0  0
   11.0591  -14.6150   26.7555 C   0  0  0  0  0  0  0  0  0  0  0  0
    9.6644  -14.2785   27.0773 C   0  0  0  0  0  0  0  0  0  0  0  0
    9.2117  -14.0059   28.3360 C   0  0  0  0  0  0  0  0  0  0  0  0
    7.8797  -13.6833   28.5710 C   0  0  0  0  0  0  0  0  0  0  0  0
    6.9655  -13.6275   27.5374 C   0  0  0  0  0  0  0  0  0  0  0  0
    7.4355  -13.9071   26.2580 C   0  0  0  0  0  0  0  0  0  0  0  0
    8.7474  -14.2231   26.0371 C   0  0  0  0  0  0  0  0  0  0  0  0
   10.6692  -16.7937   27.7722 C   0  0  0  0  0  0  0  0  0  0  0  0
   11.1937  -16.5655   29.0269 O   0  0  0  0  0  0  0  0  0  0  0  0
    9.7225  -17.5974   27.6760 O   0  0  0  0  0  0  0  0  0  0  0  0
  2  1  1  1
  3  2  1  0
  4  5  2  0
  4  3  1  0
  6  5  1  0
  7  6  2  0
  8  7  1  0
  8  9  2  0
  9  4  1  0
 10 11  2  0
 10  2  1  0
 12 10  1  0
 13 12  1  0
 13 14  1  6
 15 14  1  0
 16 15  2  0
 17 13  1  0
 18 17  2  0
 19 15  1  0
 20 17  1  0
 21 20  1  0
 21 22  1  1
 23 22  1  0
 24 23  2  0
 25 24  1  0
 26 25  2  0
 26 27  1  0
 27 28  2  0
 28 23  1  0
 29 21  1  0
 29 30  1  0
 31 29  2  0
M  END
$$$$
