FDF.pdb
     RDKit          3D

 31 32  0  0  1  0  0  0  0  0999 V2000
    6.4440  -18.2374   21.4752 N   0  0  0  0  0  0  0  0  0  0  0  0
    7.2016  -17.0195   21.5385 C   0  0  1  0  0  0  0  0  0  0  0  0
    6.3465  -15.8142   21.7896 C   0  0  0  0  0  0  0  0  0  0  0  0
    7.0281  -14.5293   21.5823 C   0  0  0  0  0  0  0  0  0  0  0  0
    7.2991  -14.1211   20.2944 C   0  0  0  0  0  0  0  0  0  0  0  0
    7.9458  -12.9118   20.0303 C   0  0  0  0  0  0  0  0  0  0  0  0
    8.3320  -12.0895   21.0710 C   0  0  0  0  0  0  0  0  0  0  0  0
    8.0626  -12.4951   22.3526 C   0  0  0  0  0  0  0  0  0  0  0  0
    7.4157  -13.7057   22.6051 C   0  0  0  0  0  0  0  0  0  0  0  0
    8.2049  -17.0631   22.6621 C   0  0  0  0  0  0  0  0  0  0  0  0
    7.8964  -17.5300   23.7876 O   0  0  0  0  0  0  0  0  0  0  0  0
    9.5336  -16.5820   22.4997 N   0  0  0  0  0  0  0  0  0  0  0  0
   10.6026  -16.8960   23.4362 C   0  0  1  0  0  0  0  0  0  0  0  0
   11.9351  -16.9389   22.7783 C   0  0  0  0  0  0  0  0  0  0  0  0
   12.9300  -17.5245   23.6954 C   0  0  0  0  0  0  0  0  0  0  0  0
   13.8168  -16.8666   24.2917 O   0  0  0  0  0  0  0  0  0  0  0  0
   10.6020  -15.9994   24.5926 C   0  0  0  0  0  0  0  0  0  0  0  0
   11.1031  -14.8452   24.5723 O   0  0  0  0  0  0  0  0  0  0  0  0
   12.8891  -18.8932   23.9188 O   0  0  0  0  0  0  0  0  0  0  0  0
    9.9955  -16.4762   25.8018 N   0  0  0  0  0  0  0  0  0  0  0  0
   10.1938  -15.7204   27.0519 C   0  0  1  0  0  0  0  0  0  0  0  0
    8.8587  -15.4801   27.7092 C   0  0  0  0  0  0  0  0  0  0  0  0
    8.1558  -14.3679   27.0528 C   0  0  0  0  0  0  0  0  0  0  0  0
    8.5689  -13.0675   27.0953 C   0  0  0  0  0  0  0  0  0  0  0  0
    7.8627  -12.0631   26.4425 C   0  0  0  0  0  0  0  0  0  0  0  0
    6.7159  -12.3460   25.7269 C   0  0  0  0  0  0  0  0  0  0  0  0
    6.3021  -13.6739   25.6893 C   0  0  0  0  0  0  0  0  0  0  0  0
    7.0036  -14.6545   26.3345 C   0  0  0  0  0  0  0  0  0  0  0  0
   11.0430  -16.5347   27.9310 C   0  0  0  0  0  0  0  0  0  0  0  0
   11.4456  -17.7962   27.5459 O   0  0  0  0  0  0  0  0  0  0  0  0
   11.4233  -16.1175   29.0412 O   0  0  0  0  0  0  0  0  0  0  0  0
  2  1  1  1
  3  2  1  0
  4  5  2  0
  4  3  1  0
  6  5  1  0
  7  6  2  0
  8  7  1  0
  8  9  2  0
  9  4  1  0
 10 11  2  0
 10  2  1  0
 12 10  1  0
 13 12  1  0
 13 14  1  6
 15 14  1  0
 16 15  2  0
 17 13  1  0
 18 17  2  0
 19 15  1  0
 20 17  1  0
 21 20  1  0
 21 22  1  1
 23 22  1  0
 24 23  2  0
 25 24  1  0
 26 25  2  0
 26 27  1  0
 27 28  2  0
 28 23  1  0
 29 21  1  0
 29 30  1  0
 31 29  2  0
M  END
$$$$
