FDF.pdb
     RDKit          3D

 31 32  0  0  1  0  0  0  0  0999 V2000
    6.2234  -17.9004   22.1550 N   0  0  0  0  0  0  0  0  0  0  0  0
    7.1949  -16.8439   22.1255 C   0  0  1  0  0  0  0  0  0  0  0  0
    6.6365  -15.5266   22.5729 C   0  0  0  0  0  0  0  0  0  0  0  0
    7.1276  -14.3674   21.8157 C   0  0  0  0  0  0  0  0  0  0  0  0
    6.9489  -14.3421   20.4496 C   0  0  0  0  0  0  0  0  0  0  0  0
    7.3942  -13.2705   19.6726 C   0  0  0  0  0  0  0  0  0  0  0  0
    8.0321  -12.1994   20.2677 C   0  0  0  0  0  0  0  0  0  0  0  0
    8.2102  -12.2241   21.6269 C   0  0  0  0  0  0  0  0  0  0  0  0
    7.7612  -13.3001   22.3939 C   0  0  0  0  0  0  0  0  0  0  0  0
    8.3499  -17.1438   23.0458 C   0  0  0  0  0  0  0  0  0  0  0  0
    8.1773  -17.7833   24.1140 O   0  0  0  0  0  0  0  0  0  0  0  0
    9.6749  -16.7201   22.7485 N   0  0  0  0  0  0  0  0  0  0  0  0
   10.8050  -17.0055   23.6201 C   0  0  1  0  0  0  0  0  0  0  0  0
   12.1101  -16.7938   22.9402 C   0  0  0  0  0  0  0  0  0  0  0  0
   12.0404  -17.2884   21.5530 C   0  0  0  0  0  0  0  0  0  0  0  0
   11.7199  -18.4589   21.2339 O   0  0  0  0  0  0  0  0  0  0  0  0
   10.7284  -16.2658   24.8803 C   0  0  0  0  0  0  0  0  0  0  0  0
   11.2202  -15.1184   25.0390 O   0  0  0  0  0  0  0  0  0  0  0  0
   12.3484  -16.4066   20.5271 O   0  0  0  0  0  0  0  0  0  0  0  0
   10.0554  -16.8953   25.9796 N   0  0  0  0  0  0  0  0  0  0  0  0
   10.0147  -16.2107   27.2845 C   0  0  1  0  0  0  0  0  0  0  0  0
    8.5803  -16.0311   27.7115 C   0  0  0  0  0  0  0  0  0  0  0  0
    7.9964  -14.8466   27.0650 C   0  0  0  0  0  0  0  0  0  0  0  0
    6.8105  -14.8478   26.3888 C   0  0  0  0  0  0  0  0  0  0  0  0
    6.3082  -13.6883   25.8084 C   0  0  0  0  0  0  0  0  0  0  0  0
    6.9928  -12.4920   25.8953 C   0  0  0  0  0  0  0  0  0  0  0  0
    8.2005  -12.5001   26.5860 C   0  0  0  0  0  0  0  0  0  0  0  0
    8.6860  -13.6456   27.1535 C   0  0  0  0  0  0  0  0  0  0  0  0
   10.7202  -17.0611   28.2522 C   0  0  0  0  0  0  0  0  0  0  0  0
   11.0808  -16.5674   29.4882 O   0  0  0  0  0  0  0  0  0  0  0  0
   11.0129  -18.2432   27.9912 O   0  0  0  0  0  0  0  0  0  0  0  0
  2  1  1  1
  3  2  1  0
  4  5  2  0
  4  3  1  0
  6  5  1  0
  7  6  2  0
  8  7  1  0
  8  9  2  0
  9  4  1  0
 10 11  2  0
 10  2  1  0
 12 10  1  0
 13 12  1  0
 13 14  1  6
 15 14  1  0
 16 15  2  0
 17 13  1  0
 18 17  2  0
 19 15  1  0
 20 17  1  0
 21 20  1  0
 21 22  1  1
 23 22  1  0
 24 23  2  0
 25 24  1  0
 26 25  2  0
 26 27  1  0
 27 28  2  0
 28 23  1  0
 29 21  1  0
 29 30  1  0
 31 29  2  0
M  END
$$$$
