FDF.pdb
     RDKit          3D

 31 32  0  0  1  0  0  0  0  0999 V2000
    6.2547  -18.0270   22.5205 N   0  0  0  0  0  0  0  0  0  0  0  0
    6.9201  -16.8526   23.0096 C   0  0  1  0  0  0  0  0  0  0  0  0
    6.2322  -16.2444   24.1945 C   0  0  0  0  0  0  0  0  0  0  0  0
    6.5648  -14.8337   24.4347 C   0  0  0  0  0  0  0  0  0  0  0  0
    7.2282  -14.1310   23.4525 C   0  0  0  0  0  0  0  0  0  0  0  0
    7.5746  -12.7885   23.6197 C   0  0  0  0  0  0  0  0  0  0  0  0
    7.2538  -12.1295   24.7907 C   0  0  0  0  0  0  0  0  0  0  0  0
    6.5937  -12.8282   25.7683 C   0  0  0  0  0  0  0  0  0  0  0  0
    6.2524  -14.1697   25.5907 C   0  0  0  0  0  0  0  0  0  0  0  0
    8.3232  -17.1715   23.4575 C   0  0  0  0  0  0  0  0  0  0  0  0
    8.5415  -18.0612   24.3181 O   0  0  0  0  0  0  0  0  0  0  0  0
    9.4525  -16.4857   22.9305 N   0  0  0  0  0  0  0  0  0  0  0  0
   10.8186  -16.9368   23.1506 C   0  0  1  0  0  0  0  0  0  0  0  0
   11.6855  -16.7126   21.9638 C   0  0  0  0  0  0  0  0  0  0  0  0
   13.0148  -17.3077   22.1925 C   0  0  0  0  0  0  0  0  0  0  0  0
   14.0924  -16.6652   22.1659 O   0  0  0  0  0  0  0  0  0  0  0  0
   11.4016  -16.3560   24.3604 C   0  0  0  0  0  0  0  0  0  0  0  0
   12.1617  -15.3530   24.3484 O   0  0  0  0  0  0  0  0  0  0  0  0
   13.0869  -18.6681   22.4552 O   0  0  0  0  0  0  0  0  0  0  0  0
   11.0801  -16.9734   25.6146 N   0  0  0  0  0  0  0  0  0  0  0  0
   11.9832  -16.7796   26.7636 C   0  0  1  0  0  0  0  0  0  0  0  0
   12.0346  -15.3157   27.1190 C   0  0  0  0  0  0  0  0  0  0  0  0
   10.7200  -14.8548   27.5894 C   0  0  0  0  0  0  0  0  0  0  0  0
   10.2168  -15.1111   28.8323 C   0  0  0  0  0  0  0  0  0  0  0  0
    8.9684  -14.6359   29.2187 C   0  0  0  0  0  0  0  0  0  0  0  0
    8.1916  -13.8866   28.3571 C   0  0  0  0  0  0  0  0  0  0  0  0
    8.7122  -13.6306   27.0924 C   0  0  0  0  0  0  0  0  0  0  0  0
    9.9410  -14.1022   26.7219 C   0  0  0  0  0  0  0  0  0  0  0  0
   11.4364  -17.5473   27.8901 C   0  0  0  0  0  0  0  0  0  0  0  0
   10.2787  -18.2818   27.7425 O   0  0  0  0  0  0  0  0  0  0  0  0
   11.9941  -17.5599   29.0037 O   0  0  0  0  0  0  0  0  0  0  0  0
  2  1  1  1
  3  2  1  0
  4  5  2  0
  4  3  1  0
  6  5  1  0
  7  6  2  0
  8  7  1  0
  8  9  2  0
  9  4  1  0
 10 11  2  0
 10  2  1  0
 12 10  1  0
 13 12  1  0
 13 14  1  6
 15 14  1  0
 16 15  2  0
 17 13  1  0
 18 17  2  0
 19 15  1  0
 20 17  1  0
 21 20  1  0
 21 22  1  1
 23 22  1  0
 24 23  2  0
 25 24  1  0
 26 25  2  0
 26 27  1  0
 27 28  2  0
 28 23  1  0
 29 21  1  0
 29 30  1  0
 31 29  2  0
M  END
$$$$
