FDF.pdb
     RDKit          3D

 31 32  0  0  1  0  0  0  0  0999 V2000
    6.3843  -18.2741   21.6039 N   0  0  0  0  0  0  0  0  0  0  0  0
    7.2154  -17.1042   21.5623 C   0  0  1  0  0  0  0  0  0  0  0  0
    6.5185  -15.8766   22.0671 C   0  0  0  0  0  0  0  0  0  0  0  0
    7.0435  -14.6136   21.5307 C   0  0  0  0  0  0  0  0  0  0  0  0
    7.5388  -13.6738   22.4085 C   0  0  0  0  0  0  0  0  0  0  0  0
    8.0500  -12.4531   21.9627 C   0  0  0  0  0  0  0  0  0  0  0  0
    8.0693  -12.1601   20.6128 C   0  0  0  0  0  0  0  0  0  0  0  0
    7.5768  -13.0948   19.7390 C   0  0  0  0  0  0  0  0  0  0  0  0
    7.0681  -14.3116   20.1954 C   0  0  0  0  0  0  0  0  0  0  0  0
    8.4382  -17.2770   22.4259 C   0  0  0  0  0  0  0  0  0  0  0  0
    8.4675  -18.1373   23.3417 O   0  0  0  0  0  0  0  0  0  0  0  0
    9.6030  -16.4810   22.2440 N   0  0  0  0  0  0  0  0  0  0  0  0
   10.8657  -16.7739   22.9057 C   0  0  1  0  0  0  0  0  0  0  0  0
   12.0124  -16.0733   22.2697 C   0  0  0  0  0  0  0  0  0  0  0  0
   12.0904  -16.4308   20.8414 C   0  0  0  0  0  0  0  0  0  0  0  0
   12.0384  -15.6023   19.9003 O   0  0  0  0  0  0  0  0  0  0  0  0
   10.8066  -16.5129   24.3443 C   0  0  0  0  0  0  0  0  0  0  0  0
   11.8205  -16.2469   25.0406 O   0  0  0  0  0  0  0  0  0  0  0  0
   12.2307  -17.7702   20.5083 O   0  0  0  0  0  0  0  0  0  0  0  0
    9.5200  -16.5671   24.9764 N   0  0  0  0  0  0  0  0  0  0  0  0
    9.4379  -16.4956   26.4466 C   0  0  1  0  0  0  0  0  0  0  0  0
    8.0246  -16.1657   26.8539 C   0  0  0  0  0  0  0  0  0  0  0  0
    7.7595  -14.7309   26.6726 C   0  0  0  0  0  0  0  0  0  0  0  0
    8.5862  -13.7365   27.1101 C   0  0  0  0  0  0  0  0  0  0  0  0
    8.2814  -12.3968   26.8963 C   0  0  0  0  0  0  0  0  0  0  0  0
    7.1291  -12.0237   26.2328 C   0  0  0  0  0  0  0  0  0  0  0  0
    6.2923  -13.0436   25.7907 C   0  0  0  0  0  0  0  0  0  0  0  0
    6.6009  -14.3583   26.0057 C   0  0  0  0  0  0  0  0  0  0  0  0
    9.8144  -17.8133   26.9750 C   0  0  0  0  0  0  0  0  0  0  0  0
   10.0229  -17.9939   28.3262 O   0  0  0  0  0  0  0  0  0  0  0  0
    9.9563  -18.8001   26.2286 O   0  0  0  0  0  0  0  0  0  0  0  0
  2  1  1  1
  3  2  1  0
  4  5  2  0
  4  3  1  0
  6  5  1  0
  7  6  2  0
  8  7  1  0
  8  9  2  0
  9  4  1  0
 10 11  2  0
 10  2  1  0
 12 10  1  0
 13 12  1  0
 13 14  1  6
 15 14  1  0
 16 15  2  0
 17 13  1  0
 18 17  2  0
 19 15  1  0
 20 17  1  0
 21 20  1  0
 21 22  1  6
 23 22  1  0
 24 23  2  0
 25 24  1  0
 26 25  2  0
 26 27  1  0
 27 28  2  0
 28 23  1  0
 29 21  1  0
 29 30  1  0
 31 29  2  0
M  END
$$$$
