FDF.pdb
     RDKit          3D

 31 32  0  0  1  0  0  0  0  0999 V2000
    6.0140  -17.3482   24.5822 N   0  0  0  0  0  0  0  0  0  0  0  0
    6.8603  -17.1268   23.4438 C   0  0  1  0  0  0  0  0  0  0  0  0
    6.8233  -15.7093   22.9576 C   0  0  0  0  0  0  0  0  0  0  0  0
    7.3603  -14.7251   23.9070 C   0  0  0  0  0  0  0  0  0  0  0  0
    7.0079  -14.8225   25.2356 C   0  0  0  0  0  0  0  0  0  0  0  0
    7.4826  -13.9176   26.1874 C   0  0  0  0  0  0  0  0  0  0  0  0
    8.3274  -12.8920   25.8094 C   0  0  0  0  0  0  0  0  0  0  0  0
    8.6784  -12.7945   24.4877 C   0  0  0  0  0  0  0  0  0  0  0  0
    8.1981  -13.7044   23.5448 C   0  0  0  0  0  0  0  0  0  0  0  0
    8.3011  -17.4191   23.7745 C   0  0  0  0  0  0  0  0  0  0  0  0
    8.6160  -18.4187   24.4685 O   0  0  0  0  0  0  0  0  0  0  0  0
    9.3589  -16.5840   23.3197 N   0  0  0  0  0  0  0  0  0  0  0  0
   10.7461  -17.0230   23.2833 C   0  0  1  0  0  0  0  0  0  0  0  0
   11.5938  -16.1462   22.4331 C   0  0  0  0  0  0  0  0  0  0  0  0
   12.9075  -16.7779   22.2122 C   0  0  0  0  0  0  0  0  0  0  0  0
   13.0789  -17.8602   21.6007 O   0  0  0  0  0  0  0  0  0  0  0  0
   11.3092  -17.1792   24.6248 C   0  0  0  0  0  0  0  0  0  0  0  0
   12.5037  -16.9035   24.9092 O   0  0  0  0  0  0  0  0  0  0  0  0
   14.0336  -16.1388   22.7108 O   0  0  0  0  0  0  0  0  0  0  0  0
   10.4420  -17.6725   25.6554 N   0  0  0  0  0  0  0  0  0  0  0  0
   10.9445  -17.7558   27.0388 C   0  0  1  0  0  0  0  0  0  0  0  0
    9.8244  -17.4446   27.9983 C   0  0  0  0  0  0  0  0  0  0  0  0
    9.4008  -16.0438   27.8563 C   0  0  0  0  0  0  0  0  0  0  0  0
    8.3645  -15.6316   27.0691 C   0  0  0  0  0  0  0  0  0  0  0  0
    8.0079  -14.2901   26.9876 C   0  0  0  0  0  0  0  0  0  0  0  0
    8.6910  -13.3250   27.7012 C   0  0  0  0  0  0  0  0  0  0  0  0
    9.7459  -13.7540   28.5006 C   0  0  0  0  0  0  0  0  0  0  0  0
   10.0888  -15.0757   28.5742 C   0  0  0  0  0  0  0  0  0  0  0  0
   11.4192  -19.1288   27.2549 C   0  0  0  0  0  0  0  0  0  0  0  0
   12.0423  -19.4784   28.4344 O   0  0  0  0  0  0  0  0  0  0  0  0
   11.2762  -20.0131   26.3895 O   0  0  0  0  0  0  0  0  0  0  0  0
  2  1  1  1
  3  2  1  0
  4  5  2  0
  4  3  1  0
  6  5  1  0
  7  6  2  0
  8  7  1  0
  8  9  2  0
  9  4  1  0
 10 11  2  0
 10  2  1  0
 12 10  1  0
 13 12  1  0
 13 14  1  6
 15 14  1  0
 16 15  2  0
 17 13  1  0
 18 17  2  0
 19 15  1  0
 20 17  1  0
 21 20  1  0
 21 22  1  1
 23 22  1  0
 24 23  2  0
 25 24  1  0
 26 25  2  0
 26 27  1  0
 27 28  2  0
 28 23  1  0
 29 21  1  0
 29 30  1  0
 31 29  2  0
M  END
$$$$
