MVL.pdb
     RDKit          3D

 24 23  0  0  1  0  0  0  0  0999 V2000
   29.1289  -24.8085  -17.6088 C   0  0  0  0  0  0  0  0  0  0  0  0
   28.2805  -23.6509  -16.5195 S   0  0  0  0  0  0  0  0  0  0  0  0
   28.8051  -21.9549  -16.7444 C   0  0  0  0  0  0  0  0  0  0  0  0
   28.1036  -21.0680  -15.7441 C   0  0  0  0  0  0  0  0  0  0  0  0
   26.5992  -21.1721  -15.8285 C   0  0  2  0  0  0  0  0  0  0  0  0
   26.2053  -20.4274  -17.0231 N   0  0  0  0  0  0  0  0  0  0  0  0
   25.9314  -20.6101  -14.6416 C   0  0  0  0  0  0  0  0  0  0  0  0
   25.9295  -19.3759  -14.3665 O   0  0  0  0  0  0  0  0  0  0  0  0
   22.5189  -20.4891  -11.2920 C   0  0  0  0  0  0  0  0  0  0  0  0
   23.1072  -21.1562  -12.5090 C   0  0  1  0  0  0  0  0  0  0  0  0
   22.5282  -20.4870  -13.7399 C   0  0  0  0  0  0  0  0  0  0  0  0
   24.5913  -20.8959  -12.5270 C   0  0  2  0  0  0  0  0  0  0  0  0
   25.2316  -21.4343  -13.7116 N   0  0  0  0  0  0  0  0  0  0  0  0
   25.2825  -21.3418  -11.2887 C   0  0  0  0  0  0  0  0  0  0  0  0
   25.4437  -22.5574  -11.0141 O   0  0  0  0  0  0  0  0  0  0  0  0
   30.0624  -20.0328   -8.2667 C   0  0  0  0  0  0  0  0  0  0  0  0
   28.6568  -20.6270   -7.9095 C   0  0  1  0  0  0  0  0  0  0  0  0
   28.2863  -19.9595   -6.6226 C   0  0  0  0  0  0  0  0  0  0  0  0
   27.7599  -20.4216   -9.0630 C   0  0  0  0  0  0  0  0  0  0  0  0
   26.3588  -20.8740   -9.0415 C   0  0  2  0  0  0  0  0  0  0  0  0
   25.8024  -20.4228  -10.3405 N   0  0  0  0  0  0  0  0  0  0  0  0
   25.5179  -20.2114   -8.0435 C   0  0  0  0  0  0  0  0  0  0  0  0
   25.2585  -20.7682   -6.9592 O   0  0  0  0  0  0  0  0  0  0  0  0
   24.9690  -18.9452   -8.2400 O   0  0  0  0  0  0  0  0  0  0  0  0
  2  1  1  0
  3  2  1  0
  4  3  1  0
  5  7  1  0
  5  4  1  0
  5  6  1  6
  7  8  2  0
 10  9  1  1
 10 11  1  0
 10 12  1  0
 12 13  1  6
 13  7  1  0
 14 12  1  0
 15 14  2  0
 17 16  1  6
 17 19  1  0
 18 17  1  0
 20 19  1  1
 20 21  1  0
 20 22  1  0
 21 14  1  0
 22 24  1  0
 23 22  2  0
M  END
$$$$
