MVL.pdb
     RDKit          3D

 24 23  0  0  1  0  0  0  0  0999 V2000
   15.3480  -22.8291   -0.7236 C   0  0  0  0  0  0  0  0  0  0  0  0
   14.1845  -22.9211   -2.0963 S   0  0  0  0  0  0  0  0  0  0  0  0
   14.4066  -24.3755   -3.1147 C   0  0  0  0  0  0  0  0  0  0  0  0
   15.8359  -24.4469   -3.5958 C   0  0  0  0  0  0  0  0  0  0  0  0
   16.0966  -25.6516   -4.4687 C   0  0  2  0  0  0  0  0  0  0  0  0
   16.2327  -26.7902   -3.5621 N   0  0  0  0  0  0  0  0  0  0  0  0
   17.3189  -25.5032   -5.2777 C   0  0  0  0  0  0  0  0  0  0  0  0
   18.4800  -25.7182   -4.8254 O   0  0  0  0  0  0  0  0  0  0  0  0
   18.3574  -27.3432   -8.1205 C   0  0  0  0  0  0  0  0  0  0  0  0
   18.4443  -25.9305   -8.6391 C   0  0  1  0  0  0  0  0  0  0  0  0
   17.1774  -25.6350   -9.4175 C   0  0  0  0  0  0  0  0  0  0  0  0
   18.4642  -24.9892   -7.4625 C   0  0  2  0  0  0  0  0  0  0  0  0
   17.2714  -25.1019   -6.6454 N   0  0  0  0  0  0  0  0  0  0  0  0
   18.7275  -23.5765   -7.8429 C   0  0  0  0  0  0  0  0  0  0  0  0
   17.8164  -22.7116   -7.8733 O   0  0  0  0  0  0  0  0  0  0  0  0
   23.8841  -20.3508   -8.4008 C   0  0  0  0  0  0  0  0  0  0  0  0
   22.3645  -20.2378   -8.7673 C   0  0  1  0  0  0  0  0  0  0  0  0
   22.3578  -19.8370  -10.2090 C   0  0  0  0  0  0  0  0  0  0  0  0
   21.7065  -21.5104   -8.4141 C   0  0  0  0  0  0  0  0  0  0  0  0
   20.2644  -21.7187   -8.6264 C   0  0  2  0  0  0  0  0  0  0  0  0
   20.0233  -23.1174   -8.1952 N   0  0  0  0  0  0  0  0  0  0  0  0
   19.8440  -21.6997  -10.0282 C   0  0  0  0  0  0  0  0  0  0  0  0
   19.9691  -22.7121  -10.7439 O   0  0  0  0  0  0  0  0  0  0  0  0
   19.2894  -20.5735  -10.6343 O   0  0  0  0  0  0  0  0  0  0  0  0
  2  1  1  0
  3  2  1  0
  4  3  1  0
  5  7  1  0
  5  4  1  0
  5  6  1  1
  7  8  2  0
 10  9  1  1
 10 11  1  0
 10 12  1  0
 12 13  1  6
 13  7  1  0
 14 12  1  0
 15 14  2  0
 17 16  1  6
 17 19  1  0
 18 17  1  0
 20 19  1  6
 20 21  1  0
 20 22  1  0
 21 14  1  0
 22 24  1  0
 23 22  2  0
M  END
$$$$
