MVL.pdb
     RDKit          3D

 24 23  0  0  1  0  0  0  0  0999 V2000
   31.9951  -22.1137  -10.4942 C   0  0  0  0  0  0  0  0  0  0  0  0
   31.8488  -22.6591  -12.2053 S   0  0  0  0  0  0  0  0  0  0  0  0
   31.2138  -21.3928  -13.2987 C   0  0  0  0  0  0  0  0  0  0  0  0
   30.0920  -20.6470  -12.6170 C   0  0  0  0  0  0  0  0  0  0  0  0
   28.8490  -20.5585  -13.4704 C   0  0  2  0  0  0  0  0  0  0  0  0
   29.1675  -19.6383  -14.5605 N   0  0  0  0  0  0  0  0  0  0  0  0
   27.6855  -20.0616  -12.7155 C   0  0  0  0  0  0  0  0  0  0  0  0
   27.5384  -18.8494  -12.3872 O   0  0  0  0  0  0  0  0  0  0  0  0
   23.3408  -20.4698  -10.5492 C   0  0  0  0  0  0  0  0  0  0  0  0
   24.2676  -20.9573  -11.6335 C   0  0  1  0  0  0  0  0  0  0  0  0
   23.9125  -20.2342  -12.9177 C   0  0  0  0  0  0  0  0  0  0  0  0
   25.6748  -20.5520  -11.2782 C   0  0  2  0  0  0  0  0  0  0  0  0
   26.6323  -20.9289  -12.3001 N   0  0  0  0  0  0  0  0  0  0  0  0
   26.1027  -21.0252   -9.9354 C   0  0  0  0  0  0  0  0  0  0  0  0
   26.4857  -22.2048   -9.7333 O   0  0  0  0  0  0  0  0  0  0  0  0
   28.6613  -18.2752   -5.2723 C   0  0  0  0  0  0  0  0  0  0  0  0
   28.0378  -19.6685   -5.6275 C   0  0  1  0  0  0  0  0  0  0  0  0
   27.2840  -20.0640   -4.3969 C   0  0  0  0  0  0  0  0  0  0  0  0
   27.2678  -19.5266   -6.8783 C   0  0  0  0  0  0  0  0  0  0  0  0
   26.5308  -20.6590   -7.4636 C   0  0  2  0  0  0  0  0  0  0  0  0
   26.1048  -20.1746   -8.7995 N   0  0  0  0  0  0  0  0  0  0  0  0
   25.2758  -20.9872   -6.7859 C   0  0  0  0  0  0  0  0  0  0  0  0
   24.2238  -20.3806   -7.0658 O   0  0  0  0  0  0  0  0  0  0  0  0
   25.1825  -21.9768   -5.8086 O   0  0  0  0  0  0  0  0  0  0  0  0
  2  1  1  0
  3  2  1  0
  4  3  1  0
  5  7  1  0
  5  4  1  0
  5  6  1  6
  7  8  2  0
 10  9  1  1
 10 11  1  0
 10 12  1  0
 12 13  1  6
 13  7  1  0
 14 12  1  0
 15 14  2  0
 17 16  1  1
 17 19  1  0
 18 17  1  0
 20 19  1  1
 20 21  1  0
 20 22  1  0
 21 14  1  0
 22 24  1  0
 23 22  2  0
M  END
$$$$
