MVL.pdb
     RDKit          3D

 24 23  0  0  1  0  0  0  0  0999 V2000
   20.8929  -16.3655  -15.2119 C   0  0  0  0  0  0  0  0  0  0  0  0
   20.4453  -17.4846  -16.5512 S   0  0  0  0  0  0  0  0  0  0  0  0
   21.8072  -18.5053  -17.1041 C   0  0  0  0  0  0  0  0  0  0  0  0
   23.0810  -17.6949  -17.1107 C   0  0  0  0  0  0  0  0  0  0  0  0
   24.2771  -18.4947  -17.5698 C   0  0  2  0  0  0  0  0  0  0  0  0
   23.8322  -19.2636  -18.7307 N   0  0  0  0  0  0  0  0  0  0  0  0
   24.7772  -19.4047  -16.5246 C   0  0  0  0  0  0  0  0  0  0  0  0
   24.2564  -20.5302  -16.2781 O   0  0  0  0  0  0  0  0  0  0  0  0
   28.2094  -21.0623  -13.5220 C   0  0  0  0  0  0  0  0  0  0  0  0
   27.8482  -20.0545  -14.5832 C   0  0  1  0  0  0  0  0  0  0  0  0
   28.2744  -20.6115  -15.9272 C   0  0  0  0  0  0  0  0  0  0  0  0
   26.3481  -19.9177  -14.6224 C   0  0  2  0  0  0  0  0  0  0  0  0
   25.8995  -19.0704  -15.7105 N   0  0  0  0  0  0  0  0  0  0  0  0
   25.7618  -19.4881  -13.3256 C   0  0  0  0  0  0  0  0  0  0  0  0
   25.2721  -18.3427  -13.1603 O   0  0  0  0  0  0  0  0  0  0  0  0
   21.7082  -21.5654  -10.4469 C   0  0  0  0  0  0  0  0  0  0  0  0
   22.1383  -20.1975  -11.0795 C   0  0  1  0  0  0  0  0  0  0  0  0
   22.1280  -19.2369   -9.9322 C   0  0  0  0  0  0  0  0  0  0  0  0
   23.4182  -20.3958  -11.7866 C   0  0  0  0  0  0  0  0  0  0  0  0
   24.7114  -20.1676  -11.1206 C   0  0  2  0  0  0  0  0  0  0  0  0
   25.7191  -20.3443  -12.1947 N   0  0  0  0  0  0  0  0  0  0  0  0
   25.0718  -21.1765  -10.1233 C   0  0  0  0  0  0  0  0  0  0  0  0
   25.4106  -22.3237  -10.4725 O   0  0  0  0  0  0  0  0  0  0  0  0
   25.0592  -20.9211   -8.7531 O   0  0  0  0  0  0  0  0  0  0  0  0
  2  1  1  0
  3  2  1  0
  4  3  1  0
  5  7  1  0
  5  4  1  0
  5  6  1  6
  7  8  2  0
 10  9  1  1
 10 11  1  0
 10 12  1  0
 12 13  1  6
 13  7  1  0
 14 12  1  0
 15 14  2  0
 17 16  1  1
 17 19  1  0
 18 17  1  0
 20 19  1  6
 20 21  1  0
 20 22  1  0
 21 14  1  0
 22 24  1  0
 23 22  2  0
M  END
$$$$
