MVL.pdb
     RDKit          3D

 24 23  0  0  1  0  0  0  0  0999 V2000
   21.5996  -16.5203  -15.5806 C   0  0  0  0  0  0  0  0  0  0  0  0
   22.0405  -16.2737  -17.3102 S   0  0  0  0  0  0  0  0  0  0  0  0
   23.4150  -17.2892  -17.8408 C   0  0  0  0  0  0  0  0  0  0  0  0
   23.7265  -18.3185  -16.7812 C   0  0  0  0  0  0  0  0  0  0  0  0
   24.9962  -19.0842  -17.0691 C   0  0  2  0  0  0  0  0  0  0  0  0
   24.7150  -19.9151  -18.2383 N   0  0  0  0  0  0  0  0  0  0  0  0
   25.4085  -19.9314  -15.9365 C   0  0  0  0  0  0  0  0  0  0  0  0
   24.8976  -21.0625  -15.6949 O   0  0  0  0  0  0  0  0  0  0  0  0
   28.5558  -21.2518  -12.4557 C   0  0  0  0  0  0  0  0  0  0  0  0
   28.2801  -20.4232  -13.6844 C   0  0  1  0  0  0  0  0  0  0  0  0
   28.8132  -21.1738  -14.8888 C   0  0  0  0  0  0  0  0  0  0  0  0
   26.7878  -20.3137  -13.8627 C   0  0  2  0  0  0  0  0  0  0  0  0
   26.4274  -19.5249  -15.0251 N   0  0  0  0  0  0  0  0  0  0  0  0
   26.0827  -19.8351  -12.6447 C   0  0  0  0  0  0  0  0  0  0  0  0
   26.2317  -18.6689  -12.2010 O   0  0  0  0  0  0  0  0  0  0  0  0
   21.6638  -18.9948  -10.6548 C   0  0  0  0  0  0  0  0  0  0  0  0
   22.0988  -20.3050   -9.9130 C   0  0  1  0  0  0  0  0  0  0  0  0
   20.8510  -21.1284   -9.8485 C   0  0  0  0  0  0  0  0  0  0  0  0
   23.2549  -20.8801  -10.6272 C   0  0  0  0  0  0  0  0  0  0  0  0
   24.5627  -20.2039  -10.6495 C   0  0  2  0  0  0  0  0  0  0  0  0
   25.1983  -20.6652  -11.9079 N   0  0  0  0  0  0  0  0  0  0  0  0
   25.4907  -20.6333   -9.6024 C   0  0  0  0  0  0  0  0  0  0  0  0
   26.0897  -21.7226   -9.6904 O   0  0  0  0  0  0  0  0  0  0  0  0
   25.7561  -19.8669   -8.4687 O   0  0  0  0  0  0  0  0  0  0  0  0
  2  1  1  0
  3  2  1  0
  4  3  1  0
  5  7  1  0
  5  4  1  0
  5  6  1  6
  7  8  2  0
 10  9  1  1
 10 11  1  0
 10 12  1  0
 12 13  1  6
 13  7  1  0
 14 12  1  0
 15 14  2  0
 17 16  1  6
 17 19  1  0
 18 17  1  0
 20 19  1  1
 20 21  1  0
 20 22  1  0
 21 14  1  0
 22 24  1  0
 23 22  2  0
M  END
$$$$
