MVL.pdb
     RDKit          3D

 24 23  0  0  1  0  0  0  0  0999 V2000
   27.0041  -18.2042   -7.9528 C   0  0  0  0  0  0  0  0  0  0  0  0
   26.0451  -19.5441   -7.2238 S   0  0  0  0  0  0  0  0  0  0  0  0
   25.6379  -20.8380   -8.3910 C   0  0  0  0  0  0  0  0  0  0  0  0
   25.7792  -20.3154   -9.8004 C   0  0  0  0  0  0  0  0  0  0  0  0
   25.5069  -21.3733  -10.8433 C   0  0  2  0  0  0  0  0  0  0  0  0
   26.6933  -22.2265  -10.8780 N   0  0  0  0  0  0  0  0  0  0  0  0
   25.2628  -20.7958  -12.1765 C   0  0  0  0  0  0  0  0  0  0  0  0
   26.1834  -20.5701  -13.0134 O   0  0  0  0  0  0  0  0  0  0  0  0
   22.2093  -20.4284  -15.9458 C   0  0  0  0  0  0  0  0  0  0  0  0
   22.4362  -20.8361  -14.5124 C   0  0  1  0  0  0  0  0  0  0  0  0
   22.7508  -22.3188  -14.4879 C   0  0  0  0  0  0  0  0  0  0  0  0
   23.6593  -20.1209  -13.9994 C   0  0  2  0  0  0  0  0  0  0  0  0
   23.9514  -20.4493  -12.6173 N   0  0  0  0  0  0  0  0  0  0  0  0
   23.6119  -18.6497  -14.2072 C   0  0  0  0  0  0  0  0  0  0  0  0
   22.8752  -17.9008  -13.5176 O   0  0  0  0  0  0  0  0  0  0  0  0
   27.6015  -14.6495  -16.2186 C   0  0  0  0  0  0  0  0  0  0  0  0
   26.0677  -14.7138  -15.9031 C   0  0  1  0  0  0  0  0  0  0  0  0
   25.4158  -14.0825  -17.0928 C   0  0  0  0  0  0  0  0  0  0  0  0
   25.7151  -16.1142  -15.5998 C   0  0  0  0  0  0  0  0  0  0  0  0
   24.3162  -16.5354  -15.4158 C   0  0  2  0  0  0  0  0  0  0  0  0
   24.3949  -18.0005  -15.1968 N   0  0  0  0  0  0  0  0  0  0  0  0
   23.4747  -16.3969  -16.6053 C   0  0  0  0  0  0  0  0  0  0  0  0
   23.5789  -17.1967  -17.5552 O   0  0  0  0  0  0  0  0  0  0  0  0
   22.5260  -15.3852  -16.7446 O   0  0  0  0  0  0  0  0  0  0  0  0
  2  1  1  0
  3  2  1  0
  4  3  1  0
  5  7  1  0
  5  4  1  0
  5  6  1  6
  7  8  2  0
 10  9  1  6
 10 11  1  0
 10 12  1  0
 12 13  1  1
 13  7  1  0
 14 12  1  0
 15 14  2  0
 17 16  1  6
 17 19  1  0
 18 17  1  0
 20 19  1  6
 20 21  1  0
 20 22  1  0
 21 14  1  0
 22 24  1  0
 23 22  2  0
M  END
$$$$
