MVL.pdb
     RDKit          3D

 24 23  0  0  1  0  0  0  0  0999 V2000
   19.9171  -17.7944  -10.6528 C   0  0  0  0  0  0  0  0  0  0  0  0
   19.5441  -18.2729  -12.3494 S   0  0  0  0  0  0  0  0  0  0  0  0
   20.8344  -19.2548  -13.1066 C   0  0  0  0  0  0  0  0  0  0  0  0
   21.7455  -19.8096  -12.0382 C   0  0  0  0  0  0  0  0  0  0  0  0
   22.9378  -20.5384  -12.6112 C   0  0  2  0  0  0  0  0  0  0  0  0
   22.4033  -21.6970  -13.3244 N   0  0  0  0  0  0  0  0  0  0  0  0
   23.8791  -20.9799  -11.5673 C   0  0  0  0  0  0  0  0  0  0  0  0
   23.6865  -22.0012  -10.8471 O   0  0  0  0  0  0  0  0  0  0  0  0
   28.4379  -21.7404  -10.4371 C   0  0  0  0  0  0  0  0  0  0  0  0
   27.3994  -21.1070  -11.3273 C   0  0  1  0  0  0  0  0  0  0  0  0
   27.0168  -22.1128  -12.3951 C   0  0  0  0  0  0  0  0  0  0  0  0
   26.1617  -20.8465  -10.5083 C   0  0  2  0  0  0  0  0  0  0  0  0
   25.0883  -20.2735  -11.2975 N   0  0  0  0  0  0  0  0  0  0  0  0
   26.4229  -20.0420   -9.2858 C   0  0  0  0  0  0  0  0  0  0  0  0
   26.2999  -18.7915   -9.2698 O   0  0  0  0  0  0  0  0  0  0  0  0
   28.0157  -20.9218   -3.6167 C   0  0  0  0  0  0  0  0  0  0  0  0
   26.9847  -20.0079   -4.3638 C   0  0  1  0  0  0  0  0  0  0  0  0
   27.5494  -18.6280   -4.2366 C   0  0  0  0  0  0  0  0  0  0  0  0
   26.7955  -20.5404   -5.7268 C   0  0  0  0  0  0  0  0  0  0  0  0
   27.2860  -19.8183   -6.9126 C   0  0  2  0  0  0  0  0  0  0  0  0
   26.8272  -20.6360   -8.0621 N   0  0  0  0  0  0  0  0  0  0  0  0
   28.7427  -19.7912   -7.0525 C   0  0  0  0  0  0  0  0  0  0  0  0
   29.3575  -20.7783   -7.5004 O   0  0  0  0  0  0  0  0  0  0  0  0
   29.5138  -18.6841   -6.7020 O   0  0  0  0  0  0  0  0  0  0  0  0
  2  1  1  0
  3  2  1  0
  4  3  1  0
  5  7  1  0
  5  4  1  0
  5  6  1  1
  7  8  2  0
 10  9  1  1
 10 11  1  0
 10 12  1  0
 12 13  1  6
 13  7  1  0
 14 12  1  0
 15 14  2  0
 17 16  1  1
 17 19  1  0
 18 17  1  0
 20 19  1  1
 20 21  1  0
 20 22  1  0
 21 14  1  0
 22 24  1  0
 23 22  2  0
M  END
$$$$
