MVL.pdb
     RDKit          3D

 24 23  0  0  1  0  0  0  0  0999 V2000
   27.9652  -19.0267   -6.3222 C   0  0  0  0  0  0  0  0  0  0  0  0
   26.3912  -19.5397   -7.0334 S   0  0  0  0  0  0  0  0  0  0  0  0
   26.5488  -20.8865   -8.2010 C   0  0  0  0  0  0  0  0  0  0  0  0
   26.2266  -20.3952   -9.5917 C   0  0  0  0  0  0  0  0  0  0  0  0
   26.4021  -21.4660  -10.6424 C   0  0  2  0  0  0  0  0  0  0  0  0
   27.8431  -21.6101  -10.8409 N   0  0  0  0  0  0  0  0  0  0  0  0
   25.7511  -21.1130  -11.9160 C   0  0  0  0  0  0  0  0  0  0  0  0
   26.2657  -20.3282  -12.7635 O   0  0  0  0  0  0  0  0  0  0  0  0
   23.1850  -22.6769  -15.6544 C   0  0  0  0  0  0  0  0  0  0  0  0
   23.7338  -22.8863  -14.2661 C   0  0  1  0  0  0  0  0  0  0  0  0
   25.0954  -23.5412  -14.3910 C   0  0  0  0  0  0  0  0  0  0  0  0
   23.9538  -21.5380  -13.6302 C   0  0  2  0  0  0  0  0  0  0  0  0
   24.4786  -21.6426  -12.2823 N   0  0  0  0  0  0  0  0  0  0  0  0
   22.7536  -20.6620  -13.6768 C   0  0  0  0  0  0  0  0  0  0  0  0
   21.8762  -20.6823  -12.7774 O   0  0  0  0  0  0  0  0  0  0  0  0
   21.2487  -15.8810  -17.1853 C   0  0  0  0  0  0  0  0  0  0  0  0
   20.6069  -16.8284  -16.1144 C   0  0  1  0  0  0  0  0  0  0  0  0
   19.3471  -17.3175  -16.7570 C   0  0  0  0  0  0  0  0  0  0  0  0
   21.6096  -17.8404  -15.7302 C   0  0  0  0  0  0  0  0  0  0  0  0
   21.2744  -18.9560  -14.8295 C   0  0  2  0  0  0  0  0  0  0  0  0
   22.5246  -19.7494  -14.7391 N   0  0  0  0  0  0  0  0  0  0  0  0
   20.2909  -19.8989  -15.3641 C   0  0  0  0  0  0  0  0  0  0  0  0
   20.5840  -20.6565  -16.3092 O   0  0  0  0  0  0  0  0  0  0  0  0
   18.9959  -20.0055  -14.8595 O   0  0  0  0  0  0  0  0  0  0  0  0
  2  1  1  0
  3  2  1  0
  4  3  1  0
  5  7  1  0
  5  4  1  0
  5  6  1  6
  7  8  2  0
 10  9  1  6
 10 11  1  0
 10 12  1  0
 12 13  1  1
 13  7  1  0
 14 12  1  0
 15 14  2  0
 17 16  1  6
 17 19  1  0
 18 17  1  0
 20 19  1  6
 20 21  1  0
 20 22  1  0
 21 14  1  0
 22 24  1  0
 23 22  2  0
M  END
$$$$
