RFS.pdb
     RDKit          3D

 29 29  0  0  1  0  0  0  0  0999 V2000
   22.4058  -28.1205  -17.8712 N   0  0  0  0  0  0  0  0  0  0  0  0
   23.7927  -28.3202  -17.6715 C   0  0  0  0  0  0  0  0  0  0  0  0
   24.3957  -29.3177  -18.2403 N   0  0  0  0  0  0  0  0  0  0  0  0
   24.5524  -27.4395  -16.8494 N   0  0  0  0  0  0  0  0  0  0  0  0
   23.9414  -26.2762  -16.2102 C   0  0  0  0  0  0  0  0  0  0  0  0
   24.7542  -25.0567  -16.5653 C   0  0  0  0  0  0  0  0  0  0  0  0
   24.2796  -23.8097  -15.8660 C   0  0  0  0  0  0  0  0  0  0  0  0
   25.1262  -22.6090  -16.2130 C   0  0  2  0  0  0  0  0  0  0  0  0
   26.0870  -23.0341  -17.2093 N   0  0  0  0  0  0  0  0  0  0  0  0
   25.8084  -22.0409  -15.0369 C   0  0  0  0  0  0  0  0  0  0  0  0
   26.9274  -22.5131  -14.7094 O   0  0  0  0  0  0  0  0  0  0  0  0
   25.3869  -29.5329  -18.0655 N   0  0  0  0  0  0  0  0  0  0  0  0
   25.2952  -20.9971  -14.2437 C   0  0  1  0  0  0  0  0  0  0  0  0
   25.9497  -20.5021  -13.0463 C   0  0  0  0  0  0  0  0  0  0  0  0
   26.1387  -19.0225  -13.0625 C   0  0  0  0  0  0  0  0  0  0  0  0
   26.9658  -18.5354  -14.1870 C   0  0  0  0  0  0  0  0  0  0  0  0
   28.2842  -18.7832  -14.3895 C   0  0  0  0  0  0  0  0  0  0  0  0
   28.9334  -18.2492  -15.5069 C   0  0  0  0  0  0  0  0  0  0  0  0
   28.2685  -17.4693  -16.4210 C   0  0  0  0  0  0  0  0  0  0  0  0
   26.9211  -17.2052  -16.2307 C   0  0  0  0  0  0  0  0  0  0  0  0
   26.3082  -17.7389  -15.1299 C   0  0  0  0  0  0  0  0  0  0  0  0
   25.2992  -21.0480  -11.8434 O   0  0  0  0  0  0  0  0  0  0  0  0
   24.1579  -21.5367  -11.9383 O   0  0  0  0  0  0  0  0  0  0  0  0
   26.5904  -19.6971   -8.3350 C   0  0  0  0  0  0  0  0  0  0  0  0
   26.2063  -21.0286   -8.1602 C   0  0  1  0  0  0  0  0  0  0  0  0
   25.3316  -21.3881   -9.3433 N   0  0  0  0  0  0  0  0  0  0  0  0
   25.9462  -21.0268  -10.5995 C   0  0  0  0  0  0  0  0  0  0  0  0
   24.0897  -20.6099   -9.1845 O   0  0  0  0  0  0  0  0  0  0  0  0
   23.2329  -20.8089   -8.1214 O   0  0  0  0  0  0  0  0  0  0  0  0
  1  2  1  0
  2  3  2  0
  4  2  1  0
  4  5  1  0
  6  5  1  0
  7  6  1  0
  8  7  1  0
  8  9  1  6
 10 11  2  0
 10  8  1  0
 12 10  1  0
 13 12  1  0
 13 14  1  1
 15 14  1  0
 15 16  2  0
 17 16  1  0
 18 17  2  0
 19 20  2  0
 19 18  1  0
 20 15  1  0
 21 13  1  0
 21 26  1  0
 22 21  2  0
 23 24  1  0
 25 24  1  6
 25 26  1  0
 25 27  1  0
 27 29  2  0
 27 28  1  0
M  END
$$$$
