RFS.pdb
     RDKit          3D

 29 29  0  0  1  0  0  0  0  0999 V2000
   27.6304  -29.9881  -16.2783 N   0  0  0  0  0  0  0  0  0  0  0  0
   27.8768  -29.0795  -17.3352 C   0  0  0  0  0  0  0  0  0  0  0  0
   28.4373  -29.4908  -18.4301 N   0  0  0  0  0  0  0  0  0  0  0  0
   27.5189  -27.7055  -17.2234 N   0  0  0  0  0  0  0  0  0  0  0  0
   26.8357  -27.1896  -16.0393 C   0  0  0  0  0  0  0  0  0  0  0  0
   25.4456  -26.7639  -16.4398 C   0  0  0  0  0  0  0  0  0  0  0  0
   24.6514  -26.1959  -15.2927 C   0  0  0  0  0  0  0  0  0  0  0  0
   24.1665  -24.7951  -15.5787 C   0  0  2  0  0  0  0  0  0  0  0  0
   25.3287  -23.9316  -15.5884 N   0  0  0  0  0  0  0  0  0  0  0  0
   23.1760  -24.3285  -14.5925 C   0  0  0  0  0  0  0  0  0  0  0  0
   23.5938  -23.8492  -13.5071 O   0  0  0  0  0  0  0  0  0  0  0  0
   28.6314  -28.8589  -19.2191 N   0  0  0  0  0  0  0  0  0  0  0  0
   21.7812  -24.3799  -14.7767 C   0  0  1  0  0  0  0  0  0  0  0  0
   20.8254  -23.8399  -13.8271 C   0  0  0  0  0  0  0  0  0  0  0  0
   20.1676  -22.5937  -14.3169 C   0  0  0  0  0  0  0  0  0  0  0  0
   21.1084  -21.4870  -14.5922 C   0  0  0  0  0  0  0  0  0  0  0  0
   21.6918  -20.6732  -13.6769 C   0  0  0  0  0  0  0  0  0  0  0  0
   22.5653  -19.6638  -14.0933 C   0  0  0  0  0  0  0  0  0  0  0  0
   22.8565  -19.4666  -15.4208 C   0  0  0  0  0  0  0  0  0  0  0  0
   22.2699  -20.2884  -16.3706 C   0  0  0  0  0  0  0  0  0  0  0  0
   21.4187  -21.2687  -15.9383 C   0  0  0  0  0  0  0  0  0  0  0  0
   19.9154  -24.8980  -13.3574 O   0  0  0  0  0  0  0  0  0  0  0  0
   19.2228  -25.5165  -14.1869 O   0  0  0  0  0  0  0  0  0  0  0  0
   19.5767  -25.4671   -9.3420 C   0  0  0  0  0  0  0  0  0  0  0  0
   19.4723  -26.6680  -10.0477 C   0  0  1  0  0  0  0  0  0  0  0  0
   19.0445  -26.3094  -11.4557 N   0  0  0  0  0  0  0  0  0  0  0  0
   19.8215  -25.2180  -11.9954 C   0  0  0  0  0  0  0  0  0  0  0  0
   17.6365  -25.8835  -11.3589 O   0  0  0  0  0  0  0  0  0  0  0  0
   16.6356  -26.7499  -10.9697 O   0  0  0  0  0  0  0  0  0  0  0  0
  1  2  1  0
  2  3  2  0
  4  2  1  0
  4  5  1  0
  6  5  1  0
  7  6  1  0
  8  7  1  0
  8  9  1  1
 10 11  2  0
 10  8  1  0
 12 10  1  0
 13 12  1  0
 13 14  1  1
 15 14  1  0
 15 16  2  0
 17 16  1  0
 18 17  2  0
 19 20  2  0
 19 18  1  0
 20 15  1  0
 21 13  1  0
 21 26  1  0
 22 21  2  0
 23 24  1  0
 25 24  1  6
 25 26  1  0
 25 27  1  0
 27 29  2  0
 27 28  1  0
M  END
$$$$
