RFS.pdb
     RDKit          3D

 29 29  0  0  1  0  0  0  0  0999 V2000
   25.7093  -21.4379  -21.3534 N   0  0  0  0  0  0  0  0  0  0  0  0
   24.6152  -20.9163  -20.6225 C   0  0  0  0  0  0  0  0  0  0  0  0
   23.6451  -20.3174  -21.2408 N   0  0  0  0  0  0  0  0  0  0  0  0
   24.5535  -21.0350  -19.2045 N   0  0  0  0  0  0  0  0  0  0  0  0
   23.6337  -20.2231  -18.4108 C   0  0  0  0  0  0  0  0  0  0  0  0
   23.9665  -20.4152  -16.9527 C   0  0  0  0  0  0  0  0  0  0  0  0
   24.9159  -19.3721  -16.4239 C   0  0  0  0  0  0  0  0  0  0  0  0
   26.2626  -19.9576  -16.0740 C   0  0  2  0  0  0  0  0  0  0  0  0
   26.5113  -21.0452  -16.9970 N   0  0  0  0  0  0  0  0  0  0  0  0
   26.3277  -20.4294  -14.6796 C   0  0  0  0  0  0  0  0  0  0  0  0
   25.6721  -21.4559  -14.3649 O   0  0  0  0  0  0  0  0  0  0  0  0
   22.8658  -19.8706  -20.7383 N   0  0  0  0  0  0  0  0  0  0  0  0
   27.0776  -19.8099  -13.6617 C   0  0  1  0  0  0  0  0  0  0  0  0
   27.0198  -20.2070  -12.2667 C   0  0  0  0  0  0  0  0  0  0  0  0
   28.0048  -19.4757  -11.4180 C   0  0  0  0  0  0  0  0  0  0  0  0
   27.8995  -19.7834   -9.9758 C   0  0  0  0  0  0  0  0  0  0  0  0
   27.1480  -19.1231   -9.0595 C   0  0  0  0  0  0  0  0  0  0  0  0
   27.1518  -19.5345   -7.7231 C   0  0  0  0  0  0  0  0  0  0  0  0
   27.9043  -20.6031   -7.3014 C   0  0  0  0  0  0  0  0  0  0  0  0
   28.6786  -21.2901   -8.2234 C   0  0  0  0  0  0  0  0  0  0  0  0
   28.6580  -20.8684   -9.5249 C   0  0  0  0  0  0  0  0  0  0  0  0
   25.6281  -20.1898  -11.7859 O   0  0  0  0  0  0  0  0  0  0  0  0
   25.0117  -19.1087  -11.7472 O   0  0  0  0  0  0  0  0  0  0  0  0
   22.0521  -22.8083  -11.8079 C   0  0  0  0  0  0  0  0  0  0  0  0
   23.0912  -22.8388  -10.8751 C   0  0  2  0  0  0  0  0  0  0  0  0
   23.6620  -21.4372  -10.8135 N   0  0  0  0  0  0  0  0  0  0  0  0
   24.9909  -21.3695  -11.3756 C   0  0  0  0  0  0  0  0  0  0  0  0
   23.7365  -21.0889   -9.3830 O   0  0  0  0  0  0  0  0  0  0  0  0
   22.6058  -20.9488   -8.6047 O   0  0  0  0  0  0  0  0  0  0  0  0
  1  2  1  0
  2  3  2  0
  4  2  1  0
  4  5  1  0
  6  5  1  0
  7  6  1  0
  8  7  1  0
  8  9  1  6
 10 11  2  0
 10  8  1  0
 12 10  1  0
 13 12  1  0
 13 14  1  1
 15 14  1  0
 15 16  2  0
 17 16  1  0
 18 17  2  0
 19 20  2  0
 19 18  1  0
 20 15  1  0
 21 13  1  0
 21 26  1  0
 22 21  2  0
 23 24  1  0
 25 24  1  6
 25 26  1  0
 25 27  1  0
 27 29  2  0
 27 28  1  0
M  END
$$$$
