RFS.pdb
     RDKit          3D

 29 29  0  0  1  0  0  0  0  0999 V2000
   46.1600  -11.3717   -5.2177 N   0  0  0  0  0  0  0  0  0  0  0  0
   47.1319  -11.8113   -6.1481 C   0  0  0  0  0  0  0  0  0  0  0  0
   48.3889  -11.8048   -5.8290 N   0  0  0  0  0  0  0  0  0  0  0  0
   46.7569  -12.2670   -7.4444 N   0  0  0  0  0  0  0  0  0  0  0  0
   45.3568  -12.4892   -7.7989 C   0  0  0  0  0  0  0  0  0  0  0  0
   44.8019  -11.2091   -8.3708 C   0  0  0  0  0  0  0  0  0  0  0  0
   43.3782  -11.3450   -8.8437 C   0  0  0  0  0  0  0  0  0  0  0  0
   42.4052  -10.6604   -7.9144 C   0  0  2  0  0  0  0  0  0  0  0  0
   42.2119  -11.5334   -6.7756 N   0  0  0  0  0  0  0  0  0  0  0  0
   41.1189  -10.3588   -8.5669 C   0  0  0  0  0  0  0  0  0  0  0  0
   40.5666  -11.2628   -9.2452 O   0  0  0  0  0  0  0  0  0  0  0  0
   49.1287  -12.0414   -6.5045 N   0  0  0  0  0  0  0  0  0  0  0  0
   40.4545   -9.1201   -8.4868 C   0  0  1  0  0  0  0  0  0  0  0  0
   39.2280   -8.8189   -9.2024 C   0  0  0  0  0  0  0  0  0  0  0  0
   38.0201   -8.8862   -8.3295 C   0  0  0  0  0  0  0  0  0  0  0  0
   37.6035  -10.2626   -7.9866 C   0  0  0  0  0  0  0  0  0  0  0  0
   37.7583  -10.8812   -6.7892 C   0  0  0  0  0  0  0  0  0  0  0  0
   37.3105  -12.1945   -6.6164 C   0  0  0  0  0  0  0  0  0  0  0  0
   36.7091  -12.8898   -7.6366 C   0  0  0  0  0  0  0  0  0  0  0  0
   36.5422  -12.2741   -8.8673 C   0  0  0  0  0  0  0  0  0  0  0  0
   36.9886  -10.9888   -9.0116 C   0  0  0  0  0  0  0  0  0  0  0  0
   39.3811   -7.5801   -9.9836 O   0  0  0  0  0  0  0  0  0  0  0  0
   39.8771   -6.5759   -9.4396 O   0  0  0  0  0  0  0  0  0  0  0  0
   38.7816   -5.4458  -14.2994 C   0  0  0  0  0  0  0  0  0  0  0  0
   38.4891   -6.5801  -13.5386 C   0  0  2  0  0  0  0  0  0  0  0  0
   39.0785   -6.3455  -12.1633 N   0  0  0  0  0  0  0  0  0  0  0  0
   38.9800   -7.5182  -11.3257 C   0  0  0  0  0  0  0  0  0  0  0  0
   38.2816   -5.2639  -11.5564 O   0  0  0  0  0  0  0  0  0  0  0  0
   37.0195   -5.4846  -11.0443 O   0  0  0  0  0  0  0  0  0  0  0  0
  1  2  1  0
  2  3  2  0
  4  2  1  0
  4  5  1  0
  6  5  1  0
  7  6  1  0
  8  7  1  0
  8  9  1  1
 10 11  2  0
 10  8  1  0
 12 10  1  0
 13 12  1  0
 13 14  1  6
 15 14  1  0
 15 16  2  0
 17 16  1  0
 18 17  2  0
 19 20  2  0
 19 18  1  0
 20 15  1  0
 21 13  1  0
 21 26  1  0
 22 21  2  0
 23 24  1  0
 25 24  1  6
 25 26  1  0
 25 27  1  0
 27 29  2  0
 27 28  1  0
M  END
$$$$
