RFS.pdb
     RDKit          3D

 29 29  0  0  1  0  0  0  0  0999 V2000
   17.1165  -15.6421  -16.7990 N   0  0  0  0  0  0  0  0  0  0  0  0
   17.6068  -15.5586  -18.1241 C   0  0  0  0  0  0  0  0  0  0  0  0
   17.1983  -16.3987  -19.0238 N   0  0  0  0  0  0  0  0  0  0  0  0
   18.5511  -14.5601  -18.4981 N   0  0  0  0  0  0  0  0  0  0  0  0
   19.0468  -13.5804  -17.5340 C   0  0  0  0  0  0  0  0  0  0  0  0
   19.9933  -12.6480  -18.2472 C   0  0  0  0  0  0  0  0  0  0  0  0
   20.5906  -11.6071  -17.3367 C   0  0  0  0  0  0  0  0  0  0  0  0
   22.0923  -11.5318  -17.4712 C   0  0  2  0  0  0  0  0  0  0  0  0
   22.6248  -12.8165  -17.0681 N   0  0  0  0  0  0  0  0  0  0  0  0
   22.6774  -10.4463  -16.6645 C   0  0  0  0  0  0  0  0  0  0  0  0
   22.7445  -10.5981  -15.4176 O   0  0  0  0  0  0  0  0  0  0  0  0
   17.5903  -16.4187  -19.9754 N   0  0  0  0  0  0  0  0  0  0  0  0
   23.1724   -9.2382  -17.1914 C   0  0  1  0  0  0  0  0  0  0  0  0
   23.7511   -8.1846  -16.3778 C   0  0  0  0  0  0  0  0  0  0  0  0
   25.2172   -8.0236  -16.6009 C   0  0  0  0  0  0  0  0  0  0  0  0
   25.9942   -9.2660  -16.4042 C   0  0  0  0  0  0  0  0  0  0  0  0
   26.4216  -10.1157  -17.3715 C   0  0  0  0  0  0  0  0  0  0  0  0
   27.1510  -11.2581  -17.0277 C   0  0  0  0  0  0  0  0  0  0  0  0
   27.4536  -11.5524  -15.7209 C   0  0  0  0  0  0  0  0  0  0  0  0
   27.0252  -10.6957  -14.7187 C   0  0  0  0  0  0  0  0  0  0  0  0
   26.3133   -9.5846  -15.0804 C   0  0  0  0  0  0  0  0  0  0  0  0
   22.9510   -6.9533  -16.4883 O   0  0  0  0  0  0  0  0  0  0  0  0
   22.8587   -6.3855  -17.5924 O   0  0  0  0  0  0  0  0  0  0  0  0
   20.9944   -5.7253  -13.1619 C   0  0  0  0  0  0  0  0  0  0  0  0
   20.4166   -5.2274  -14.3321 C   0  0  1  0  0  0  0  0  0  0  0  0
   21.5092   -5.2036  -15.3807 N   0  0  0  0  0  0  0  0  0  0  0  0
   22.2933   -6.4166  -15.3722 C   0  0  0  0  0  0  0  0  0  0  0  0
   22.3868   -4.0720  -15.0307 O   0  0  0  0  0  0  0  0  0  0  0  0
   21.9317   -2.7695  -15.0210 O   0  0  0  0  0  0  0  0  0  0  0  0
  1  2  1  0
  2  3  2  0
  4  2  1  0
  4  5  1  0
  6  5  1  0
  7  6  1  0
  8  7  1  0
  8  9  1  1
 10 11  2  0
 10  8  1  0
 12 10  1  0
 13 12  1  0
 13 14  1  1
 15 14  1  0
 15 16  2  0
 17 16  1  0
 18 17  2  0
 19 20  2  0
 19 18  1  0
 20 15  1  0
 21 13  1  0
 21 26  1  0
 22 21  2  0
 23 24  1  0
 25 24  1  6
 25 26  1  0
 25 27  1  0
 27 29  2  0
 27 28  1  0
M  END
$$$$
