FAR.pdb
     RDKit          3D

 28 28  0  0  1  0  0  0  0  0999 V2000
    6.5205  -16.2541   25.6240 N   0  0  0  0  0  0  0  0  0  0  0  0
    6.7399  -15.1484   24.7198 C   0  0  1  0  0  0  0  0  0  0  0  0
    7.7515  -14.2210   25.3681 C   0  0  0  0  0  0  0  0  0  0  0  0
    7.0847  -13.0519   25.9973 C   0  0  0  0  0  0  0  0  0  0  0  0
    6.5943  -12.0134   25.2323 C   0  0  0  0  0  0  0  0  0  0  0  0
    5.9747  -10.9294   25.8434 C   0  0  0  0  0  0  0  0  0  0  0  0
    5.8257  -10.8454   27.2110 C   0  0  0  0  0  0  0  0  0  0  0  0
    6.3153  -11.8821   27.9741 C   0  0  0  0  0  0  0  0  0  0  0  0
    6.9381  -12.9725   27.3658 C   0  0  0  0  0  0  0  0  0  0  0  0
    7.3568  -15.6886   23.4827 C   0  0  0  0  0  0  0  0  0  0  0  0
    7.9619  -16.8108   23.5244 O   0  0  0  0  0  0  0  0  0  0  0  0
    7.8476  -14.7309   19.8486 C   0  0  0  0  0  0  0  0  0  0  0  0
    8.0713  -15.5333   21.0989 C   0  0  2  0  0  0  0  0  0  0  0  0
    7.3279  -15.0434   22.2270 N   0  0  0  0  0  0  0  0  0  0  0  0
    9.5317  -15.6399   21.3968 C   0  0  0  0  0  0  0  0  0  0  0  0
    9.9737  -15.0185   22.3712 O   0  0  0  0  0  0  0  0  0  0  0  0
   14.2808  -20.8807   23.6563 N   0  0  0  0  0  0  0  0  0  0  0  0
   13.2652  -21.3172   24.5510 C   0  0  0  0  0  0  0  0  0  0  0  0
   13.5100  -22.3750   25.2560 N   0  0  0  0  0  0  0  0  0  0  0  0
   12.0418  -20.6085   24.6522 N   0  0  0  0  0  0  0  0  0  0  0  0
   11.2431  -20.3800   23.4817 C   0  0  0  0  0  0  0  0  0  0  0  0
   11.8485  -19.3494   22.5550 C   0  0  0  0  0  0  0  0  0  0  0  0
   10.8177  -18.3572   22.0734 C   0  0  0  0  0  0  0  0  0  0  0  0
   11.3895  -17.3328   21.1328 C   0  0  2  0  0  0  0  0  0  0  0  0
   10.4230  -16.4136   20.6197 N   0  0  0  0  0  0  0  0  0  0  0  0
   12.2245  -17.9419   20.0714 C   0  0  0  0  0  0  0  0  0  0  0  0
   11.7293  -18.5367   18.9252 O   0  0  0  0  0  0  0  0  0  0  0  0
   13.4719  -17.9254   20.2065 O   0  0  0  0  0  0  0  0  0  0  0  0
  2  3  1  0
  2  1  1  1
  4  9  2  0
  4  3  1  0
  5  4  1  0
  6  7  1  0
  6  5  2  0
  7  8  2  0
  8  9  1  0
 10 11  2  0
 10  2  1  0
 13 12  1  6
 13 14  1  0
 14 10  1  0
 15 13  1  0
 16 15  2  0
 17 18  1  0
 18 19  2  0
 20 21  1  0
 20 18  1  0
 21 22  1  0
 22 23  1  0
 24 23  1  6
 24 25  1  0
 25 15  1  0
 26 24  1  0
 27 26  1  0
 28 26  2  0
M  END
$$$$
