FAR.pdb
     RDKit          3D

 28 28  0  0  1  0  0  0  0  0999 V2000
    5.8494  -17.0823   25.3615 N   0  0  0  0  0  0  0  0  0  0  0  0
    6.7295  -16.0432   24.8779 C   0  0  1  0  0  0  0  0  0  0  0  0
    7.3881  -15.4024   26.0859 C   0  0  0  0  0  0  0  0  0  0  0  0
    7.0371  -13.9626   26.1904 C   0  0  0  0  0  0  0  0  0  0  0  0
    5.8464  -13.5580   26.7583 C   0  0  0  0  0  0  0  0  0  0  0  0
    5.5392  -12.2050   26.8446 C   0  0  0  0  0  0  0  0  0  0  0  0
    6.3918  -11.2284   26.3769 C   0  0  0  0  0  0  0  0  0  0  0  0
    7.5802  -11.6326   25.8102 C   0  0  0  0  0  0  0  0  0  0  0  0
    7.8934  -12.9893   25.7211 C   0  0  0  0  0  0  0  0  0  0  0  0
    7.7983  -16.6896   24.0761 C   0  0  0  0  0  0  0  0  0  0  0  0
    8.2689  -17.8139   24.4526 O   0  0  0  0  0  0  0  0  0  0  0  0
    9.8375  -16.0604   20.9441 C   0  0  0  0  0  0  0  0  0  0  0  0
    9.4482  -16.7722   22.2086 C   0  0  2  0  0  0  0  0  0  0  0  0
    8.3529  -16.1463   22.8967 N   0  0  0  0  0  0  0  0  0  0  0  0
   10.6373  -16.9480   23.0962 C   0  0  0  0  0  0  0  0  0  0  0  0
   11.3997  -15.9850   23.2453 O   0  0  0  0  0  0  0  0  0  0  0  0
   13.6755  -20.8727   30.6110 N   0  0  0  0  0  0  0  0  0  0  0  0
   12.6416  -20.3067   29.8153 C   0  0  0  0  0  0  0  0  0  0  0  0
   11.5873  -21.0295   29.6106 N   0  0  0  0  0  0  0  0  0  0  0  0
   12.7792  -19.0023   29.2778 N   0  0  0  0  0  0  0  0  0  0  0  0
   13.2817  -18.8219   27.9455 C   0  0  0  0  0  0  0  0  0  0  0  0
   12.3885  -19.4455   26.8962 C   0  0  0  0  0  0  0  0  0  0  0  0
   11.6366  -18.3993   26.1094 C   0  0  0  0  0  0  0  0  0  0  0  0
   12.0247  -18.3717   24.6569 C   0  0  2  0  0  0  0  0  0  0  0  0
   10.9267  -18.1574   23.7675 N   0  0  0  0  0  0  0  0  0  0  0  0
   12.8593  -19.5334   24.2713 C   0  0  0  0  0  0  0  0  0  0  0  0
   12.3973  -20.6395   23.5816 O   0  0  0  0  0  0  0  0  0  0  0  0
   14.0742  -19.5293   24.5852 O   0  0  0  0  0  0  0  0  0  0  0  0
  2  3  1  0
  2  1  1  1
  4  9  2  0
  4  3  1  0
  5  4  1  0
  6  7  1  0
  6  5  2  0
  7  8  2  0
  8  9  1  0
 10 11  2  0
 10  2  1  0
 13 12  1  6
 13 14  1  0
 14 10  1  0
 15 13  1  0
 16 15  2  0
 17 18  1  0
 18 19  2  0
 20 21  1  0
 20 18  1  0
 21 22  1  0
 22 23  1  0
 24 23  1  1
 24 25  1  0
 25 15  1  0
 26 24  1  0
 27 26  1  0
 28 26  2  0
M  END
$$$$
