FAR.pdb
     RDKit          3D

 28 28  0  0  1  0  0  0  0  0999 V2000
    6.0824  -17.0983   25.2677 N   0  0  0  0  0  0  0  0  0  0  0  0
    6.8751  -16.0428   24.6796 C   0  0  1  0  0  0  0  0  0  0  0  0
    7.5587  -15.2987   25.8122 C   0  0  0  0  0  0  0  0  0  0  0  0
    7.0424  -13.9110   25.9341 C   0  0  0  0  0  0  0  0  0  0  0  0
    5.9345  -13.6273   26.7062 C   0  0  0  0  0  0  0  0  0  0  0  0
    5.4692  -12.3211   26.8047 C   0  0  0  0  0  0  0  0  0  0  0  0
    6.0805  -11.2737   26.1499 C   0  0  0  0  0  0  0  0  0  0  0  0
    7.1863  -11.5573   25.3794 C   0  0  0  0  0  0  0  0  0  0  0  0
    7.6575  -12.8666   25.2771 C   0  0  0  0  0  0  0  0  0  0  0  0
    7.9353  -16.6756   23.8560 C   0  0  0  0  0  0  0  0  0  0  0  0
    8.4657  -17.7667   24.2505 O   0  0  0  0  0  0  0  0  0  0  0  0
    9.7368  -16.1464   20.5657 C   0  0  0  0  0  0  0  0  0  0  0  0
    9.4713  -16.7931   21.8956 C   0  0  2  0  0  0  0  0  0  0  0  0
    8.4189  -16.1538   22.6363 N   0  0  0  0  0  0  0  0  0  0  0  0
   10.7331  -16.8907   22.6900 C   0  0  0  0  0  0  0  0  0  0  0  0
   11.2847  -15.8390   23.0376 O   0  0  0  0  0  0  0  0  0  0  0  0
   11.2793  -15.5771   28.0091 N   0  0  0  0  0  0  0  0  0  0  0  0
   11.3350  -16.6165   28.9782 C   0  0  0  0  0  0  0  0  0  0  0  0
   10.5431  -16.5203   29.9977 N   0  0  0  0  0  0  0  0  0  0  0  0
   12.2281  -17.7052   28.8155 N   0  0  0  0  0  0  0  0  0  0  0  0
   12.0715  -18.6058   27.7089 C   0  0  0  0  0  0  0  0  0  0  0  0
   12.4241  -17.9678   26.3837 C   0  0  0  0  0  0  0  0  0  0  0  0
   12.1726  -18.9057   25.2278 C   0  0  0  0  0  0  0  0  0  0  0  0
   12.4688  -18.2788   23.8935 C   0  0  2  0  0  0  0  0  0  0  0  0
   11.3194  -18.1225   23.0586 N   0  0  0  0  0  0  0  0  0  0  0  0
   13.6003  -18.9348   23.1979 C   0  0  0  0  0  0  0  0  0  0  0  0
   13.5411  -19.4568   21.9185 O   0  0  0  0  0  0  0  0  0  0  0  0
   14.6979  -19.0319   23.7982 O   0  0  0  0  0  0  0  0  0  0  0  0
  2  3  1  0
  2  1  1  1
  4  9  2  0
  4  3  1  0
  5  4  1  0
  6  7  1  0
  6  5  2  0
  7  8  2  0
  8  9  1  0
 10 11  2  0
 10  2  1  0
 13 12  1  6
 13 14  1  0
 14 10  1  0
 15 13  1  0
 16 15  2  0
 17 18  1  0
 18 19  2  0
 20 21  1  0
 20 18  1  0
 21 22  1  0
 22 23  1  0
 24 23  1  1
 24 25  1  0
 25 15  1  0
 26 24  1  0
 27 26  1  0
 28 26  2  0
M  END
$$$$
