FAR.pdb
     RDKit          3D

 28 28  0  0  1  0  0  0  0  0999 V2000
    5.8890  -17.2272   24.8997 N   0  0  0  0  0  0  0  0  0  0  0  0
    6.8990  -16.2054   24.7449 C   0  0  1  0  0  0  0  0  0  0  0  0
    7.1950  -15.6422   26.1229 C   0  0  0  0  0  0  0  0  0  0  0  0
    7.0945  -14.1599   26.1321 C   0  0  0  0  0  0  0  0  0  0  0  0
    5.9055  -13.5275   26.4323 C   0  0  0  0  0  0  0  0  0  0  0  0
    5.8353  -12.1391   26.4340 C   0  0  0  0  0  0  0  0  0  0  0  0
    6.9266  -11.3495   26.1423 C   0  0  0  0  0  0  0  0  0  0  0  0
    8.1131  -11.9812   25.8428 C   0  0  0  0  0  0  0  0  0  0  0  0
    8.1891  -13.3744   25.8396 C   0  0  0  0  0  0  0  0  0  0  0  0
    8.1370  -16.8607   24.2542 C   0  0  0  0  0  0  0  0  0  0  0  0
    8.4509  -18.0152   24.6968 O   0  0  0  0  0  0  0  0  0  0  0  0
   10.9279  -16.2777   21.7645 C   0  0  0  0  0  0  0  0  0  0  0  0
   10.2475  -16.9397   22.9290 C   0  0  2  0  0  0  0  0  0  0  0  0
    9.0214  -16.2945   23.3101 N   0  0  0  0  0  0  0  0  0  0  0  0
   11.1911  -17.0694   24.0804 C   0  0  0  0  0  0  0  0  0  0  0  0
   11.2328  -16.1481   24.9052 O   0  0  0  0  0  0  0  0  0  0  0  0
   14.2796  -21.1423   30.0160 N   0  0  0  0  0  0  0  0  0  0  0  0
   13.0438  -20.8018   30.6320 C   0  0  0  0  0  0  0  0  0  0  0  0
   13.0097  -20.7887   31.9261 N   0  0  0  0  0  0  0  0  0  0  0  0
   11.9075  -20.4923   29.8432 N   0  0  0  0  0  0  0  0  0  0  0  0
   11.8812  -20.8399   28.4509 C   0  0  0  0  0  0  0  0  0  0  0  0
   12.6830  -19.8840   27.5962 C   0  0  0  0  0  0  0  0  0  0  0  0
   11.9001  -19.4207   26.3914 C   0  0  0  0  0  0  0  0  0  0  0  0
   12.7025  -18.5328   25.4809 C   0  0  2  0  0  0  0  0  0  0  0  0
   12.0315  -18.1902   24.2665 N   0  0  0  0  0  0  0  0  0  0  0  0
   14.0745  -19.0441   25.2558 C   0  0  0  0  0  0  0  0  0  0  0  0
   15.1612  -18.7627   26.0637 O   0  0  0  0  0  0  0  0  0  0  0  0
   14.2827  -19.7869   24.2662 O   0  0  0  0  0  0  0  0  0  0  0  0
  2  3  1  0
  2  1  1  1
  4  9  2  0
  4  3  1  0
  5  4  1  0
  6  7  1  0
  6  5  2  0
  7  8  2  0
  8  9  1  0
 10 11  2  0
 10  2  1  0
 13 12  1  6
 13 14  1  0
 14 10  1  0
 15 13  1  0
 16 15  2  0
 17 18  1  0
 18 19  2  0
 20 21  1  0
 20 18  1  0
 21 22  1  0
 22 23  1  0
 24 23  1  6
 24 25  1  0
 25 15  1  0
 26 24  1  0
 27 26  1  0
 28 26  2  0
M  END
$$$$
