FAR.pdb
     RDKit          3D

 28 28  0  0  1  0  0  0  0  0999 V2000
    7.7188  -17.2675   21.3886 N   0  0  0  0  0  0  0  0  0  0  0  0
    9.1123  -16.8911   21.4572 C   0  0  1  0  0  0  0  0  0  0  0  0
    9.3782  -15.9129   20.3275 C   0  0  0  0  0  0  0  0  0  0  0  0
    8.3507  -14.8404   20.2906 C   0  0  0  0  0  0  0  0  0  0  0  0
    8.6775  -13.5295   20.5710 C   0  0  0  0  0  0  0  0  0  0  0  0
    7.6989  -12.5430   20.5308 C   0  0  0  0  0  0  0  0  0  0  0  0
    6.3870  -12.8242   20.2157 C   0  0  0  0  0  0  0  0  0  0  0  0
    6.0612  -14.1328   19.9359 C   0  0  0  0  0  0  0  0  0  0  0  0
    7.0395  -15.1268   19.9748 C   0  0  0  0  0  0  0  0  0  0  0  0
    9.3249  -16.1669   22.7352 C   0  0  0  0  0  0  0  0  0  0  0  0
   10.5027  -15.7955   23.0549 O   0  0  0  0  0  0  0  0  0  0  0  0
    7.4299  -14.6527   25.6128 C   0  0  0  0  0  0  0  0  0  0  0  0
    8.5842  -15.3781   24.9815 C   0  0  2  0  0  0  0  0  0  0  0  0
    8.3007  -15.8462   23.6528 N   0  0  0  0  0  0  0  0  0  0  0  0
    9.0582  -16.4804   25.8721 C   0  0  0  0  0  0  0  0  0  0  0  0
    8.3037  -16.8648   26.7743 O   0  0  0  0  0  0  0  0  0  0  0  0
    7.3560  -21.8402   28.7550 N   0  0  0  0  0  0  0  0  0  0  0  0
    6.6658  -21.7373   27.5158 C   0  0  0  0  0  0  0  0  0  0  0  0
    5.3746  -21.6551   27.5609 N   0  0  0  0  0  0  0  0  0  0  0  0
    7.3811  -21.7265   26.2921 N   0  0  0  0  0  0  0  0  0  0  0  0
    8.7651  -21.3465   26.2705 C   0  0  0  0  0  0  0  0  0  0  0  0
    8.9679  -19.9074   25.8518 C   0  0  0  0  0  0  0  0  0  0  0  0
   10.4327  -19.5543   25.7574 C   0  0  0  0  0  0  0  0  0  0  0  0
   10.7644  -18.2562   26.4401 C   0  0  2  0  0  0  0  0  0  0  0  0
   10.3213  -17.0980   25.7298 N   0  0  0  0  0  0  0  0  0  0  0  0
   12.1881  -18.1752   26.8419 C   0  0  0  0  0  0  0  0  0  0  0  0
   12.6706  -18.4979   28.0972 O   0  0  0  0  0  0  0  0  0  0  0  0
   13.0290  -17.7880   25.9950 O   0  0  0  0  0  0  0  0  0  0  0  0
  2  3  1  0
  2  1  1  1
  4  9  2  0
  4  3  1  0
  5  4  1  0
  6  7  1  0
  6  5  2  0
  7  8  2  0
  8  9  1  0
 10 11  2  0
 10  2  1  0
 13 12  1  1
 13 14  1  0
 14 10  1  0
 15 13  1  0
 16 15  2  0
 17 18  1  0
 18 19  2  0
 20 21  1  0
 20 18  1  0
 21 22  1  0
 22 23  1  0
 24 23  1  6
 24 25  1  0
 25 15  1  0
 26 24  1  0
 27 26  1  0
 28 26  2  0
M  END
$$$$
