FAR.pdb
     RDKit          3D

 28 28  0  0  1  0  0  0  0  0999 V2000
    6.0185  -16.4647   25.2677 N   0  0  0  0  0  0  0  0  0  0  0  0
    6.5439  -15.3124   24.5718 C   0  0  1  0  0  0  0  0  0  0  0  0
    7.4784  -14.5893   25.5245 C   0  0  0  0  0  0  0  0  0  0  0  0
    6.9000  -13.2945   25.9673 C   0  0  0  0  0  0  0  0  0  0  0  0
    7.0379  -12.1533   25.2039 C   0  0  0  0  0  0  0  0  0  0  0  0
    6.4886  -10.9527   25.6390 C   0  0  0  0  0  0  0  0  0  0  0  0
    5.7967  -10.8509   26.8266 C   0  0  0  0  0  0  0  0  0  0  0  0
    5.6593  -11.9901   27.5883 C   0  0  0  0  0  0  0  0  0  0  0  0
    6.2086  -13.1977   27.1562 C   0  0  0  0  0  0  0  0  0  0  0  0
    7.3586  -15.8024   23.4320 C   0  0  0  0  0  0  0  0  0  0  0  0
    8.2059  -16.7362   23.6249 O   0  0  0  0  0  0  0  0  0  0  0  0
    8.1733  -14.6935   19.9147 C   0  0  0  0  0  0  0  0  0  0  0  0
    8.2761  -15.5784   21.1245 C   0  0  2  0  0  0  0  0  0  0  0  0
    7.2700  -15.3051   22.1133 N   0  0  0  0  0  0  0  0  0  0  0  0
    9.6541  -15.5190   21.6993 C   0  0  0  0  0  0  0  0  0  0  0  0
   10.1350  -14.4055   21.9441 O   0  0  0  0  0  0  0  0  0  0  0  0
   11.4742  -17.6859   29.0958 N   0  0  0  0  0  0  0  0  0  0  0  0
   10.9287  -18.7521   28.3289 C   0  0  0  0  0  0  0  0  0  0  0  0
   10.6467  -19.8495   28.9551 N   0  0  0  0  0  0  0  0  0  0  0  0
   10.7098  -18.5991   26.9369 N   0  0  0  0  0  0  0  0  0  0  0  0
   11.3902  -17.5650   26.2104 C   0  0  0  0  0  0  0  0  0  0  0  0
   11.1265  -17.6276   24.7225 C   0  0  0  0  0  0  0  0  0  0  0  0
   11.8358  -16.5194   23.9823 C   0  0  0  0  0  0  0  0  0  0  0  0
   11.7590  -16.6740   22.4885 C   0  0  2  0  0  0  0  0  0  0  0  0
   10.4260  -16.6706   21.9733 N   0  0  0  0  0  0  0  0  0  0  0  0
   12.5638  -17.8156   21.9950 C   0  0  0  0  0  0  0  0  0  0  0  0
   12.0611  -18.8719   21.2572 O   0  0  0  0  0  0  0  0  0  0  0  0
   13.7909  -17.8414   22.2561 O   0  0  0  0  0  0  0  0  0  0  0  0
  2  3  1  0
  2  1  1  1
  4  9  2  0
  4  3  1  0
  5  4  1  0
  6  7  1  0
  6  5  2  0
  7  8  2  0
  8  9  1  0
 10 11  2  0
 10  2  1  0
 13 12  1  6
 13 14  1  0
 14 10  1  0
 15 13  1  0
 16 15  2  0
 17 18  1  0
 18 19  2  0
 20 21  1  0
 20 18  1  0
 21 22  1  0
 22 23  1  0
 24 23  1  1
 24 25  1  0
 25 15  1  0
 26 24  1  0
 27 26  1  0
 28 26  2  0
M  END
$$$$
