SAM.pdb
     RDKit          3D

 20 19  0  0  1  0  0  0  0  0999 V2000
   37.3122   -6.5971   -9.3881 O   0  0  0  0  0  0  0  0  0  0  0  0
   37.4186   -5.2227   -9.5851 C   0  0  0  0  0  0  0  0  0  0  0  0
   38.6374   -4.9149  -10.4660 C   0  0  2  0  0  0  0  0  0  0  0  0
   39.8125   -5.2486   -9.7038 N   0  0  0  0  0  0  0  0  0  0  0  0
   38.5578   -3.4554  -10.7616 C   0  0  0  0  0  0  0  0  0  0  0  0
   38.9377   -2.6590   -9.8720 O   0  0  0  0  0  0  0  0  0  0  0  0
   38.0411   -1.2057  -13.6672 C   0  0  0  0  0  0  0  0  0  0  0  0
   38.0697   -1.4823  -12.1709 C   0  0  2  0  0  0  0  0  0  0  0  0
   38.0820   -2.9255  -11.9780 N   0  0  0  0  0  0  0  0  0  0  0  0
   36.8753   -0.9002  -11.5226 C   0  0  0  0  0  0  0  0  0  0  0  0
   35.8451   -1.5975  -11.3832 O   0  0  0  0  0  0  0  0  0  0  0  0
   34.1563    4.7287   -6.7439 C   0  0  0  0  0  0  0  0  0  0  0  0
   35.5716    4.1186   -7.6953 S   0  0  0  0  0  0  0  0  0  0  0  0
   34.9723    2.7038   -8.6931 C   0  0  0  0  0  0  0  0  0  0  0  0
   36.0865    2.0976   -9.4823 C   0  0  0  0  0  0  0  0  0  0  0  0
   35.6537    0.9581  -10.3453 C   0  0  2  0  0  0  0  0  0  0  0  0
   36.8224    0.4283  -11.0380 N   0  0  0  0  0  0  0  0  0  0  0  0
   34.6178    1.2669  -11.3290 C   0  0  0  0  0  0  0  0  0  0  0  0
   34.9485    1.5084  -12.5144 O   0  0  0  0  0  0  0  0  0  0  0  0
   33.2533    1.3195  -11.0656 O   0  0  0  0  0  0  0  0  0  0  0  0
  2  1  1  0
  3  2  1  0
  3  5  1  0
  3  4  1  1
  5  6  2  0
  8  7  1  6
  9  8  1  0
  9  5  1  0
 10  8  1  0
 10 11  2  0
 12 13  1  0
 14 13  1  0
 14 15  1  0
 16 15  1  6
 16 17  1  0
 16 18  1  0
 17 10  1  0
 18 19  2  0
 18 20  1  0
M  END
$$$$
