SAM.pdb
     RDKit          3D

 20 19  0  0  1  0  0  0  0  0999 V2000
   15.8401  -11.6757  -14.6329 O   0  0  0  0  0  0  0  0  0  0  0  0
   16.8873  -10.8332  -14.9970 C   0  0  0  0  0  0  0  0  0  0  0  0
   16.6026  -10.2110  -16.3711 C   0  0  2  0  0  0  0  0  0  0  0  0
   16.9411  -11.1954  -17.3659 N   0  0  0  0  0  0  0  0  0  0  0  0
   17.4791   -9.0074  -16.4536 C   0  0  0  0  0  0  0  0  0  0  0  0
   18.6049   -9.1419  -16.9869 O   0  0  0  0  0  0  0  0  0  0  0  0
   17.2647   -5.3332  -15.8292 C   0  0  0  0  0  0  0  0  0  0  0  0
   18.0208   -6.6122  -16.1587 C   0  0  2  0  0  0  0  0  0  0  0  0
   17.1140   -7.7354  -15.9683 N   0  0  0  0  0  0  0  0  0  0  0  0
   19.1911   -6.7560  -15.2667 C   0  0  0  0  0  0  0  0  0  0  0  0
   19.2122   -7.6748  -14.4167 O   0  0  0  0  0  0  0  0  0  0  0  0
   25.5014   -9.8975  -14.2372 C   0  0  0  0  0  0  0  0  0  0  0  0
   23.8980   -9.5644  -15.0108 S   0  0  0  0  0  0  0  0  0  0  0  0
   23.3680   -7.9048  -14.4442 C   0  0  0  0  0  0  0  0  0  0  0  0
   22.0534   -7.5299  -15.0469 C   0  0  0  0  0  0  0  0  0  0  0  0
   21.5517   -6.1963  -14.5993 C   0  0  2  0  0  0  0  0  0  0  0  0
   20.3163   -5.8993  -15.3147 N   0  0  0  0  0  0  0  0  0  0  0  0
   22.4801   -5.0806  -14.7708 C   0  0  0  0  0  0  0  0  0  0  0  0
   23.2262   -4.7501  -13.8184 O   0  0  0  0  0  0  0  0  0  0  0  0
   22.6194   -4.3254  -15.9302 O   0  0  0  0  0  0  0  0  0  0  0  0
  2  1  1  0
  3  2  1  0
  3  5  1  0
  3  4  1  6
  5  6  2  0
  8  7  1  1
  9  8  1  0
  9  5  1  0
 10  8  1  0
 10 11  2  0
 12 13  1  0
 14 13  1  0
 14 15  1  0
 16 15  1  6
 16 17  1  0
 16 18  1  0
 17 10  1  0
 18 19  2  0
 18 20  1  0
M  END
$$$$
