SAM.pdb
     RDKit          3D

 20 19  0  0  1  0  0  0  0  0999 V2000
   28.8720  -21.3030  -10.9171 O   0  0  0  0  0  0  0  0  0  0  0  0
   28.1312  -21.0856  -12.0759 C   0  0  0  0  0  0  0  0  0  0  0  0
   26.8459  -20.3178  -11.7370 C   0  0  2  0  0  0  0  0  0  0  0  0
   26.1512  -21.0703  -10.7249 N   0  0  0  0  0  0  0  0  0  0  0  0
   26.0745  -20.2488  -13.0114 C   0  0  0  0  0  0  0  0  0  0  0  0
   26.6549  -19.7832  -14.0195 O   0  0  0  0  0  0  0  0  0  0  0  0
   22.8996  -21.4671  -14.4884 C   0  0  0  0  0  0  0  0  0  0  0  0
   24.0451  -20.4683  -14.4081 C   0  0  2  0  0  0  0  0  0  0  0  0
   24.7376  -20.6752  -13.1440 N   0  0  0  0  0  0  0  0  0  0  0  0
   23.5217  -19.0871  -14.4725 C   0  0  0  0  0  0  0  0  0  0  0  0
   23.4183  -18.4147  -13.4217 O   0  0  0  0  0  0  0  0  0  0  0  0
   26.7573  -12.9114  -15.6030 C   0  0  0  0  0  0  0  0  0  0  0  0
   26.5998  -14.7001  -15.3658 S   0  0  0  0  0  0  0  0  0  0  0  0
   24.8721  -15.1426  -15.7847 C   0  0  0  0  0  0  0  0  0  0  0  0
   24.6304  -16.6025  -15.5790 C   0  0  0  0  0  0  0  0  0  0  0  0
   23.2293  -17.0225  -15.8808 C   0  0  2  0  0  0  0  0  0  0  0  0
   23.1205  -18.4622  -15.6771 N   0  0  0  0  0  0  0  0  0  0  0  0
   22.7445  -16.6939  -17.2199 C   0  0  0  0  0  0  0  0  0  0  0  0
   23.1041  -17.3980  -18.1934 O   0  0  0  0  0  0  0  0  0  0  0  0
   21.8925  -15.6385  -17.5267 O   0  0  0  0  0  0  0  0  0  0  0  0
  2  1  1  0
  3  2  1  0
  3  5  1  0
  3  4  1  1
  5  6  2  0
  8  7  1  1
  9  8  1  0
  9  5  1  0
 10  8  1  0
 10 11  2  0
 12 13  1  0
 14 13  1  0
 14 15  1  0
 16 15  1  6
 16 17  1  0
 16 18  1  0
 17 10  1  0
 18 19  2  0
 18 20  1  0
M  END
$$$$
