SAM.pdb
     RDKit          3D

 20 19  0  0  1  0  0  0  0  0999 V2000
   16.9094  -12.6944  -16.5938 O   0  0  0  0  0  0  0  0  0  0  0  0
   17.9847  -11.8114  -16.6492 C   0  0  0  0  0  0  0  0  0  0  0  0
   18.3824  -11.5648  -18.1112 C   0  0  2  0  0  0  0  0  0  0  0  0
   19.1819  -12.6856  -18.5328 N   0  0  0  0  0  0  0  0  0  0  0  0
   19.1610  -10.2930  -18.1039 C   0  0  0  0  0  0  0  0  0  0  0  0
   20.3298  -10.3278  -17.6539 O   0  0  0  0  0  0  0  0  0  0  0  0
   18.8204   -6.7902  -19.3627 C   0  0  0  0  0  0  0  0  0  0  0  0
   19.5356   -7.9004  -18.6062 C   0  0  2  0  0  0  0  0  0  0  0  0
   18.6585   -9.0621  -18.5720 N   0  0  0  0  0  0  0  0  0  0  0  0
   19.8410   -7.4622  -17.2276 C   0  0  0  0  0  0  0  0  0  0  0  0
   18.9803   -7.6007  -16.3292 O   0  0  0  0  0  0  0  0  0  0  0  0
   23.0492  -11.3995  -13.7395 C   0  0  0  0  0  0  0  0  0  0  0  0
   23.6308   -9.7361  -14.1584 S   0  0  0  0  0  0  0  0  0  0  0  0
   22.1579   -8.7665  -14.6552 C   0  0  0  0  0  0  0  0  0  0  0  0
   22.5366   -7.3663  -15.0126 C   0  0  0  0  0  0  0  0  0  0  0  0
   21.3824   -6.5350  -15.4681 C   0  0  2  0  0  0  0  0  0  0  0  0
   21.0754   -6.8819  -16.8507 N   0  0  0  0  0  0  0  0  0  0  0  0
   21.5669   -5.0884  -15.3709 C   0  0  0  0  0  0  0  0  0  0  0  0
   21.7154   -4.4161  -16.4191 O   0  0  0  0  0  0  0  0  0  0  0  0
   21.5936   -4.3623  -14.1852 O   0  0  0  0  0  0  0  0  0  0  0  0
  2  1  1  0
  3  2  1  0
  3  5  1  0
  3  4  1  1
  5  6  2  0
  8  7  1  6
  9  8  1  0
  9  5  1  0
 10  8  1  0
 10 11  2  0
 12 13  1  0
 14 13  1  0
 14 15  1  0
 16 15  1  6
 16 17  1  0
 16 18  1  0
 17 10  1  0
 18 19  2  0
 18 20  1  0
M  END
$$$$
