SAM.pdb
     RDKit          3D

 20 19  0  0  1  0  0  0  0  0999 V2000
   15.2111  -10.6922  -16.3117 O   0  0  0  0  0  0  0  0  0  0  0  0
   15.4261  -10.4095  -14.9653 C   0  0  0  0  0  0  0  0  0  0  0  0
   16.8630  -10.7845  -14.5765 C   0  0  2  0  0  0  0  0  0  0  0  0
   16.8991  -12.2124  -14.3945 N   0  0  0  0  0  0  0  0  0  0  0  0
   17.1372  -10.0514  -13.3072 C   0  0  0  0  0  0  0  0  0  0  0  0
   16.5030  -10.3997  -12.2843 O   0  0  0  0  0  0  0  0  0  0  0  0
   19.5563   -7.5117  -12.0182 C   0  0  0  0  0  0  0  0  0  0  0  0
   18.3616   -8.4444  -11.8803 C   0  0  2  0  0  0  0  0  0  0  0  0
   18.0640   -8.9954  -13.1949 N   0  0  0  0  0  0  0  0  0  0  0  0
   17.1900   -7.6993  -11.3723 C   0  0  0  0  0  0  0  0  0  0  0  0
   16.4187   -7.1335  -12.1797 O   0  0  0  0  0  0  0  0  0  0  0  0
   11.4426   -7.0931   -6.2222 C   0  0  0  0  0  0  0  0  0  0  0  0
   12.7526   -8.0850   -6.9841 S   0  0  0  0  0  0  0  0  0  0  0  0
   13.7983   -6.9329   -7.9514 C   0  0  0  0  0  0  0  0  0  0  0  0
   14.9501   -7.6524   -8.5737 C   0  0  0  0  0  0  0  0  0  0  0  0
   15.7389   -6.8079   -9.5200 C   0  0  2  0  0  0  0  0  0  0  0  0
   16.8784   -7.5827   -9.9969 N   0  0  0  0  0  0  0  0  0  0  0  0
   16.2199   -5.5364   -8.9834 C   0  0  0  0  0  0  0  0  0  0  0  0
   17.3877   -5.4624   -8.5321 O   0  0  0  0  0  0  0  0  0  0  0  0
   15.4797   -4.3606   -8.9244 O   0  0  0  0  0  0  0  0  0  0  0  0
  2  1  1  0
  3  2  1  0
  3  5  1  0
  3  4  1  1
  5  6  2  0
  8  7  1  6
  9  8  1  0
  9  5  1  0
 10  8  1  0
 10 11  2  0
 12 13  1  0
 14 13  1  0
 14 15  1  0
 16 15  1  1
 16 17  1  0
 16 18  1  0
 17 10  1  0
 18 19  2  0
 18 20  1  0
M  END
$$$$
