SAM.pdb
     RDKit          3D

 20 19  0  0  1  0  0  0  0  0999 V2000
   16.0000  -12.1741  -14.2900 O   0  0  0  0  0  0  0  0  0  0  0  0
   16.9604  -11.2686  -14.7334 C   0  0  0  0  0  0  0  0  0  0  0  0
   16.4179  -10.4780  -15.9321 C   0  0  2  0  0  0  0  0  0  0  0  0
   16.4773  -11.3452  -17.0799 N   0  0  0  0  0  0  0  0  0  0  0  0
   17.3201   -9.2991  -16.0740 C   0  0  0  0  0  0  0  0  0  0  0  0
   18.4307   -9.4783  -16.6257 O   0  0  0  0  0  0  0  0  0  0  0  0
   17.2025   -5.6018  -15.5679 C   0  0  0  0  0  0  0  0  0  0  0  0
   17.9197   -6.9074  -15.8795 C   0  0  2  0  0  0  0  0  0  0  0  0
   16.9952   -8.0031  -15.6249 N   0  0  0  0  0  0  0  0  0  0  0  0
   19.1143   -7.0497  -15.0201 C   0  0  0  0  0  0  0  0  0  0  0  0
   18.9996   -7.5513  -13.8789 O   0  0  0  0  0  0  0  0  0  0  0  0
   26.2213   -9.6611  -14.3415 C   0  0  0  0  0  0  0  0  0  0  0  0
   24.7330   -9.4102  -15.3428 S   0  0  0  0  0  0  0  0  0  0  0  0
   23.7388   -8.1197  -14.5047 C   0  0  0  0  0  0  0  0  0  0  0  0
   22.4369   -7.9095  -15.2065 C   0  0  0  0  0  0  0  0  0  0  0  0
   21.5837   -6.8579  -14.5766 C   0  0  2  0  0  0  0  0  0  0  0  0
   20.4110   -6.6447  -15.4165 N   0  0  0  0  0  0  0  0  0  0  0  0
   22.2368   -5.5725  -14.3371 C   0  0  0  0  0  0  0  0  0  0  0  0
   22.2211   -4.6984  -15.2363 O   0  0  0  0  0  0  0  0  0  0  0  0
   22.8960   -5.2149  -13.1660 O   0  0  0  0  0  0  0  0  0  0  0  0
  2  1  1  0
  3  2  1  0
  3  5  1  0
  3  4  1  6
  5  6  2  0
  8  7  1  1
  9  8  1  0
  9  5  1  0
 10  8  1  0
 10 11  2  0
 12 13  1  0
 14 13  1  0
 14 15  1  0
 16 15  1  6
 16 17  1  0
 16 18  1  0
 17 10  1  0
 18 19  2  0
 18 20  1  0
M  END
$$$$
