SAM.pdb
     RDKit          3D

 20 19  0  0  1  0  0  0  0  0999 V2000
   15.5087  -12.4824  -15.1479 O   0  0  0  0  0  0  0  0  0  0  0  0
   16.7404  -11.9651  -15.5406 C   0  0  0  0  0  0  0  0  0  0  0  0
   16.7837  -11.8240  -17.0686 C   0  0  2  0  0  0  0  0  0  0  0  0
   16.9993  -13.1387  -17.6146 N   0  0  0  0  0  0  0  0  0  0  0  0
   17.9241  -10.9060  -17.3524 C   0  0  0  0  0  0  0  0  0  0  0  0
   19.0709  -11.4059  -17.4229 O   0  0  0  0  0  0  0  0  0  0  0  0
   18.4215   -7.3623  -18.4199 C   0  0  0  0  0  0  0  0  0  0  0  0
   18.9207   -8.7463  -18.0305 C   0  0  2  0  0  0  0  0  0  0  0  0
   17.7847   -9.5166  -17.5445 N   0  0  0  0  0  0  0  0  0  0  0  0
   19.9441   -8.6384  -16.9690 C   0  0  0  0  0  0  0  0  0  0  0  0
   19.5895   -8.6001  -15.7691 O   0  0  0  0  0  0  0  0  0  0  0  0
   27.2988  -10.4990  -15.0519 C   0  0  0  0  0  0  0  0  0  0  0  0
   26.0928  -10.3026  -16.3889 S   0  0  0  0  0  0  0  0  0  0  0  0
   24.6162   -9.4994  -15.6603 C   0  0  0  0  0  0  0  0  0  0  0  0
   23.5276   -9.3639  -16.6743 C   0  0  0  0  0  0  0  0  0  0  0  0
   22.3291   -8.6311  -16.1671 C   0  0  2  0  0  0  0  0  0  0  0  0
   21.3333   -8.5742  -17.2307 N   0  0  0  0  0  0  0  0  0  0  0  0
   22.5763   -7.2774  -15.6746 C   0  0  0  0  0  0  0  0  0  0  0  0
   22.5230   -6.3132  -16.4748 O   0  0  0  0  0  0  0  0  0  0  0  0
   22.8748   -6.9464  -14.3573 O   0  0  0  0  0  0  0  0  0  0  0  0
  2  1  1  0
  3  2  1  0
  3  5  1  0
  3  4  1  6
  5  6  2  0
  8  7  1  1
  9  8  1  0
  9  5  1  0
 10  8  1  0
 10 11  2  0
 12 13  1  0
 14 13  1  0
 14 15  1  0
 16 15  1  6
 16 17  1  0
 16 18  1  0
 17 10  1  0
 18 19  2  0
 18 20  1  0
M  END
$$$$
