SAM.pdb
     RDKit          3D

 20 19  0  0  1  0  0  0  0  0999 V2000
   10.8597  -11.8052  -14.4366 O   0  0  0  0  0  0  0  0  0  0  0  0
   11.8997  -11.7478  -13.5124 C   0  0  0  0  0  0  0  0  0  0  0  0
   13.0559  -12.6469  -13.9717 C   0  0  2  0  0  0  0  0  0  0  0  0
   12.9030  -13.9150  -13.3072 N   0  0  0  0  0  0  0  0  0  0  0  0
   14.3010  -11.9416  -13.5519 C   0  0  0  0  0  0  0  0  0  0  0  0
   14.6815  -12.0865  -12.3669 O   0  0  0  0  0  0  0  0  0  0  0  0
   17.0389   -9.8987  -15.0583 C   0  0  0  0  0  0  0  0  0  0  0  0
   16.2439  -10.4471  -13.8821 C   0  0  2  0  0  0  0  0  0  0  0  0
   15.0684  -11.1264  -14.4083 N   0  0  0  0  0  0  0  0  0  0  0  0
   15.8279   -9.3439  -12.9901 C   0  0  0  0  0  0  0  0  0  0  0  0
   14.7585   -8.7341  -13.2172 O   0  0  0  0  0  0  0  0  0  0  0  0
   13.3802   -8.8161   -7.8027 C   0  0  0  0  0  0  0  0  0  0  0  0
   13.9478   -7.1440   -8.2055 S   0  0  0  0  0  0  0  0  0  0  0  0
   15.7295   -7.2702   -8.6127 C   0  0  0  0  0  0  0  0  0  0  0  0
   15.9709   -8.3434   -9.6236 C   0  0  0  0  0  0  0  0  0  0  0  0
   16.1542   -7.8237  -11.0117 C   0  0  2  0  0  0  0  0  0  0  0  0
   16.5813   -8.9237  -11.8683 N   0  0  0  0  0  0  0  0  0  0  0  0
   17.0980   -6.7168  -11.1537 C   0  0  0  0  0  0  0  0  0  0  0  0
   18.2970   -6.9629  -11.4272 O   0  0  0  0  0  0  0  0  0  0  0  0
   16.7810   -5.3705  -11.0098 O   0  0  0  0  0  0  0  0  0  0  0  0
  2  1  1  0
  3  2  1  0
  3  5  1  0
  3  4  1  1
  5  6  2  0
  8  7  1  6
  9  8  1  0
  9  5  1  0
 10  8  1  0
 10 11  2  0
 12 13  1  0
 14 13  1  0
 14 15  1  0
 16 15  1  1
 16 17  1  0
 16 18  1  0
 17 10  1  0
 18 19  2  0
 18 20  1  0
M  END
$$$$
