CSA.pdb
     RDKit          3D

 18 17  0  0  1  0  0  0  0  0999 V2000
    9.8703  -15.0050   14.3427 N   0  0  0  0  0  0  0  0  0  0  0  0
    9.0693  -15.5738   15.4070 C   0  0  1  0  0  0  0  0  0  0  0  0
    9.2276  -17.0864   15.3375 C   0  0  0  0  0  0  0  0  0  0  0  0
    8.3070  -17.8149   16.7228 S   0  0  0  0  0  0  0  0  0  0  0  0
    9.5323  -15.0810   16.7452 C   0  0  0  0  0  0  0  0  0  0  0  0
   10.7407  -15.0928   17.0451 O   0  0  0  0  0  0  0  0  0  0  0  0
    6.8509  -14.1010   19.8681 O   0  0  0  0  0  0  0  0  0  0  0  0
    7.9780  -13.3099   19.7130 C   0  0  0  0  0  0  0  0  0  0  0  0
    9.0506  -14.1206   19.0016 C   0  0  2  0  0  0  0  0  0  0  0  0
    8.6170  -14.5830   17.7212 N   0  0  0  0  0  0  0  0  0  0  0  0
    9.4710  -15.2689   19.8817 C   0  0  0  0  0  0  0  0  0  0  0  0
    9.0293  -16.4150   19.7031 O   0  0  0  0  0  0  0  0  0  0  0  0
   11.9164  -15.7180   22.7518 C   0  0  0  0  0  0  0  0  0  0  0  0
   10.7344  -16.0493   21.9183 C   0  0  2  0  0  0  0  0  0  0  0  0
   10.3887  -15.0636   20.9430 N   0  0  0  0  0  0  0  0  0  0  0  0
    9.5539  -16.2213   22.8074 C   0  0  0  0  0  0  0  0  0  0  0  0
    8.5635  -15.4186   22.7599 O   0  0  0  0  0  0  0  0  0  0  0  0
    9.4469  -17.2479   23.7351 O   0  0  0  0  0  0  0  0  0  0  0  0
  2  1  1  6
  2  3  1  0
  4  3  1  0
  5  2  1  0
  6  5  2  0
  7  8  1  0
  9  8  1  1
  9 10  1  0
 10  5  1  0
 11 15  1  0
 11  9  1  0
 12 11  2  0
 14 13  1  1
 14 15  1  0
 14 16  1  0
 16 18  1  0
 17 16  2  0
M  END
$$$$
