CSA.pdb
     RDKit          3D

 18 17  0  0  1  0  0  0  0  0999 V2000
    8.5173  -12.9948   18.1424 N   0  0  0  0  0  0  0  0  0  0  0  0
    7.9810  -14.0780   18.9404 C   0  0  1  0  0  0  0  0  0  0  0  0
    8.2863  -15.3774   18.2083 C   0  0  0  0  0  0  0  0  0  0  0  0
    6.9669  -15.6650   16.9942 S   0  0  0  0  0  0  0  0  0  0  0  0
    8.6157  -14.1053   20.2985 C   0  0  0  0  0  0  0  0  0  0  0  0
    9.8062  -13.7743   20.4521 O   0  0  0  0  0  0  0  0  0  0  0  0
    6.5794  -15.6482   23.6548 O   0  0  0  0  0  0  0  0  0  0  0  0
    7.5152  -14.6504   23.8759 C   0  0  0  0  0  0  0  0  0  0  0  0
    8.5195  -14.6600   22.7335 C   0  0  2  0  0  0  0  0  0  0  0  0
    7.8897  -14.5076   21.4601 N   0  0  0  0  0  0  0  0  0  0  0  0
    9.3277  -15.9301   22.7930 C   0  0  0  0  0  0  0  0  0  0  0  0
    9.3657  -16.7170   21.8341 O   0  0  0  0  0  0  0  0  0  0  0  0
   12.2109  -17.2894   23.3389 C   0  0  0  0  0  0  0  0  0  0  0  0
   10.9285  -17.3926   24.0780 C   0  0  2  0  0  0  0  0  0  0  0  0
   10.0693  -16.2571   23.9565 N   0  0  0  0  0  0  0  0  0  0  0  0
   11.2226  -17.5687   25.5259 C   0  0  0  0  0  0  0  0  0  0  0  0
   10.7389  -16.7787   26.4032 O   0  0  0  0  0  0  0  0  0  0  0  0
   12.0290  -18.5856   26.0173 O   0  0  0  0  0  0  0  0  0  0  0  0
  2  1  1  6
  2  3  1  0
  4  3  1  0
  5  2  1  0
  6  5  2  0
  7  8  1  0
  9  8  1  1
  9 10  1  0
 10  5  1  0
 11 15  1  0
 11  9  1  0
 12 11  2  0
 14 13  1  6
 14 15  1  0
 14 16  1  0
 16 18  1  0
 17 16  2  0
M  END
$$$$
