CSA.pdb
     RDKit          3D

 18 17  0  0  1  0  0  0  0  0999 V2000
    7.3073  -15.3118   19.8933 N   0  0  0  0  0  0  0  0  0  0  0  0
    8.1860  -14.6167   20.8112 C   0  0  1  0  0  0  0  0  0  0  0  0
    7.7595  -13.1554   20.8313 C   0  0  0  0  0  0  0  0  0  0  0  0
    8.4250  -12.3522   19.3448 S   0  0  0  0  0  0  0  0  0  0  0  0
    8.0776  -15.1909   22.1920 C   0  0  0  0  0  0  0  0  0  0  0  0
    6.9725  -15.2841   22.7581 O   0  0  0  0  0  0  0  0  0  0  0  0
   10.9917  -17.6562   23.7800 O   0  0  0  0  0  0  0  0  0  0  0  0
    9.6674  -17.6907   24.1865 C   0  0  0  0  0  0  0  0  0  0  0  0
    9.1195  -16.2717   24.1900 C   0  0  2  0  0  0  0  0  0  0  0  0
    9.2243  -15.6498   22.9079 N   0  0  0  0  0  0  0  0  0  0  0  0
    9.8318  -15.4668   25.2457 C   0  0  0  0  0  0  0  0  0  0  0  0
   10.9787  -15.0301   25.0607 O   0  0  0  0  0  0  0  0  0  0  0  0
    8.8835  -13.5472   28.2852 C   0  0  0  0  0  0  0  0  0  0  0  0
    9.8028  -14.4531   27.5532 C   0  0  2  0  0  0  0  0  0  0  0  0
    9.2017  -15.1879   26.4850 N   0  0  0  0  0  0  0  0  0  0  0  0
   10.3605  -15.4460   28.5108 C   0  0  0  0  0  0  0  0  0  0  0  0
   10.0943  -16.6896   28.4091 O   0  0  0  0  0  0  0  0  0  0  0  0
   11.1946  -15.0977   29.5638 O   0  0  0  0  0  0  0  0  0  0  0  0
  2  1  1  6
  2  3  1  0
  4  3  1  0
  5  2  1  0
  6  5  2  0
  7  8  1  0
  9  8  1  6
  9 10  1  0
 10  5  1  0
 11 15  1  0
 11  9  1  0
 12 11  2  0
 14 13  1  1
 14 15  1  0
 14 16  1  0
 16 18  1  0
 17 16  2  0
M  END
$$$$
