CSA.pdb
     RDKit          3D

 18 17  0  0  1  0  0  0  0  0999 V2000
   11.2059  -18.2324   15.9645 N   0  0  0  0  0  0  0  0  0  0  0  0
   10.3993  -18.4207   17.1527 C   0  0  1  0  0  0  0  0  0  0  0  0
   10.0089  -19.8910   17.2097 C   0  0  0  0  0  0  0  0  0  0  0  0
    8.5100  -20.1166   16.2097 S   0  0  0  0  0  0  0  0  0  0  0  0
   11.1718  -18.0577   18.3854 C   0  0  0  0  0  0  0  0  0  0  0  0
   12.4016  -17.8690   18.3339 O   0  0  0  0  0  0  0  0  0  0  0  0
    9.3256  -17.5997   22.1821 O   0  0  0  0  0  0  0  0  0  0  0  0
   10.4473  -16.8522   21.8606 C   0  0  0  0  0  0  0  0  0  0  0  0
   11.2750  -17.6245   20.8445 C   0  0  2  0  0  0  0  0  0  0  0  0
   10.5370  -17.9146   19.6561 N   0  0  0  0  0  0  0  0  0  0  0  0
   11.7961  -18.8854   21.4836 C   0  0  0  0  0  0  0  0  0  0  0  0
   11.1443  -19.9412   21.4547 O   0  0  0  0  0  0  0  0  0  0  0  0
   15.1208  -20.1512   22.5628 C   0  0  0  0  0  0  0  0  0  0  0  0
   13.6506  -20.0474   22.7339 C   0  0  2  0  0  0  0  0  0  0  0  0
   13.0540  -18.8936   22.1380 N   0  0  0  0  0  0  0  0  0  0  0  0
   13.3393  -20.0022   24.1881 C   0  0  0  0  0  0  0  0  0  0  0  0
   12.8317  -18.9632   24.7271 O   0  0  0  0  0  0  0  0  0  0  0  0
   13.5741  -21.0667   25.0470 O   0  0  0  0  0  0  0  0  0  0  0  0
  2  1  1  6
  2  3  1  0
  4  3  1  0
  5  2  1  0
  6  5  2  0
  7  8  1  0
  9  8  1  1
  9 10  1  0
 10  5  1  0
 11 15  1  0
 11  9  1  0
 12 11  2  0
 14 13  1  1
 14 15  1  0
 14 16  1  0
 16 18  1  0
 17 16  2  0
M  END
$$$$
