CSA.pdb
     RDKit          3D

 18 17  0  0  1  0  0  0  0  0999 V2000
    7.6826  -15.1095   19.2430 N   0  0  0  0  0  0  0  0  0  0  0  0
    8.3266  -14.4334   20.3503 C   0  0  1  0  0  0  0  0  0  0  0  0
    7.8787  -12.9787   20.3182 C   0  0  0  0  0  0  0  0  0  0  0  0
    8.8761  -12.1078   19.0756 S   0  0  0  0  0  0  0  0  0  0  0  0
    7.9304  -15.0526   21.6570 C   0  0  0  0  0  0  0  0  0  0  0  0
    6.9152  -15.7688   21.7407 O   0  0  0  0  0  0  0  0  0  0  0  0
    8.8367  -17.9078   24.8070 O   0  0  0  0  0  0  0  0  0  0  0  0
    8.8792  -17.1579   23.6424 C   0  0  0  0  0  0  0  0  0  0  0  0
    8.5691  -15.7081   23.9826 C   0  0  2  0  0  0  0  0  0  0  0  0
    8.6921  -14.8494   22.8473 N   0  0  0  0  0  0  0  0  0  0  0  0
    9.4669  -15.2583   25.1057 C   0  0  0  0  0  0  0  0  0  0  0  0
   10.7010  -15.2341   24.9759 O   0  0  0  0  0  0  0  0  0  0  0  0
    8.9781  -13.3224   28.2702 C   0  0  0  0  0  0  0  0  0  0  0  0
    9.6782  -14.3344   27.4412 C   0  0  2  0  0  0  0  0  0  0  0  0
    8.9167  -14.8490   26.3468 N   0  0  0  0  0  0  0  0  0  0  0  0
   10.0450  -15.4899   28.3037 C   0  0  0  0  0  0  0  0  0  0  0  0
    9.5072  -16.6357   28.1438 O   0  0  0  0  0  0  0  0  0  0  0  0
   10.9809  -15.4064   29.3250 O   0  0  0  0  0  0  0  0  0  0  0  0
  2  1  1  6
  2  3  1  0
  4  3  1  0
  5  2  1  0
  6  5  2  0
  7  8  1  0
  9  8  1  6
  9 10  1  0
 10  5  1  0
 11 15  1  0
 11  9  1  0
 12 11  2  0
 14 13  1  1
 14 15  1  0
 14 16  1  0
 16 18  1  0
 17 16  2  0
M  END
$$$$
