CSA.pdb
     RDKit          3D

 18 17  0  0  1  0  0  0  0  0999 V2000
    9.0127  -16.6428   16.8615 N   0  0  0  0  0  0  0  0  0  0  0  0
    8.2950  -16.8287   18.1058 C   0  0  1  0  0  0  0  0  0  0  0  0
    7.9793  -18.3127   18.2320 C   0  0  0  0  0  0  0  0  0  0  0  0
    7.0062  -18.5564   19.7457 S   0  0  0  0  0  0  0  0  0  0  0  0
    9.1281  -16.3911   19.2731 C   0  0  0  0  0  0  0  0  0  0  0  0
   10.3638  -16.5443   19.2668 O   0  0  0  0  0  0  0  0  0  0  0  0
    7.5142  -15.1909   23.0207 O   0  0  0  0  0  0  0  0  0  0  0  0
    8.5443  -14.4420   22.4746 C   0  0  0  0  0  0  0  0  0  0  0  0
    9.3387  -15.3235   21.5229 C   0  0  2  0  0  0  0  0  0  0  0  0
    8.5461  -15.7870   20.4282 N   0  0  0  0  0  0  0  0  0  0  0  0
    9.9327  -16.4752   22.2914 C   0  0  0  0  0  0  0  0  0  0  0  0
    9.3300  -17.5539   22.4069 O   0  0  0  0  0  0  0  0  0  0  0  0
   13.3544  -17.3298   23.5797 C   0  0  0  0  0  0  0  0  0  0  0  0
   11.8726  -17.4009   23.6077 C   0  0  2  0  0  0  0  0  0  0  0  0
   11.2050  -16.3508   22.9050 N   0  0  0  0  0  0  0  0  0  0  0  0
   11.4166  -17.3424   25.0228 C   0  0  0  0  0  0  0  0  0  0  0  0
   11.7963  -18.2079   25.8797 O   0  0  0  0  0  0  0  0  0  0  0  0
   10.5616  -16.3606   25.5036 O   0  0  0  0  0  0  0  0  0  0  0  0
  2  1  1  6
  2  3  1  0
  4  3  1  0
  5  2  1  0
  6  5  2  0
  7  8  1  0
  9  8  1  1
  9 10  1  0
 10  5  1  0
 11 15  1  0
 11  9  1  0
 12 11  2  0
 14 13  1  1
 14 15  1  0
 14 16  1  0
 16 18  1  0
 17 16  2  0
M  END
$$$$
