CSA.pdb
     RDKit          3D

 18 17  0  0  1  0  0  0  0  0999 V2000
   11.9804  -17.6601   17.0022 N   0  0  0  0  0  0  0  0  0  0  0  0
   11.7983  -18.2765   18.3003 C   0  0  1  0  0  0  0  0  0  0  0  0
   12.7366  -19.4732   18.3718 C   0  0  0  0  0  0  0  0  0  0  0  0
   11.7637  -20.9735   18.0554 S   0  0  0  0  0  0  0  0  0  0  0  0
   12.1287  -17.3124   19.4000 C   0  0  0  0  0  0  0  0  0  0  0  0
   13.0991  -16.5387   19.2987 O   0  0  0  0  0  0  0  0  0  0  0  0
    9.9962  -17.1675   23.0973 O   0  0  0  0  0  0  0  0  0  0  0  0
   10.4406  -15.9992   22.4992 C   0  0  0  0  0  0  0  0  0  0  0  0
   11.6575  -16.3195   21.6445 C   0  0  2  0  0  0  0  0  0  0  0  0
   11.3531  -17.2416   20.5965 N   0  0  0  0  0  0  0  0  0  0  0  0
   12.7607  -16.8426   22.5271 C   0  0  0  0  0  0  0  0  0  0  0  0
   12.8787  -18.0553   22.7633 O   0  0  0  0  0  0  0  0  0  0  0  0
   15.8551  -15.3445   24.1152 C   0  0  0  0  0  0  0  0  0  0  0  0
   14.7795  -16.3539   23.9548 C   0  0  2  0  0  0  0  0  0  0  0  0
   13.6969  -15.9530   23.1125 N   0  0  0  0  0  0  0  0  0  0  0  0
   14.2057  -16.6596   25.2930 C   0  0  0  0  0  0  0  0  0  0  0  0
   14.9187  -17.1656   26.2221 O   0  0  0  0  0  0  0  0  0  0  0  0
   12.8785  -16.4210   25.6211 O   0  0  0  0  0  0  0  0  0  0  0  0
  2  1  1  6
  2  3  1  0
  4  3  1  0
  5  2  1  0
  6  5  2  0
  7  8  1  0
  9  8  1  1
  9 10  1  0
 10  5  1  0
 11 15  1  0
 11  9  1  0
 12 11  2  0
 14 13  1  1
 14 15  1  0
 14 16  1  0
 16 18  1  0
 17 16  2  0
M  END
$$$$
