CSA.pdb
     RDKit          3D

 18 17  0  0  1  0  0  0  0  0999 V2000
    7.0418  -15.0778   19.6219 N   0  0  0  0  0  0  0  0  0  0  0  0
    7.9768  -14.4449   20.5292 C   0  0  1  0  0  0  0  0  0  0  0  0
    7.7018  -12.9480   20.4954 C   0  0  0  0  0  0  0  0  0  0  0  0
    8.5426  -12.2519   19.0442 S   0  0  0  0  0  0  0  0  0  0  0  0
    7.7950  -14.9579   21.9263 C   0  0  0  0  0  0  0  0  0  0  0  0
    6.6813  -14.9133   22.4814 O   0  0  0  0  0  0  0  0  0  0  0  0
   10.3869  -17.6727   23.6625 O   0  0  0  0  0  0  0  0  0  0  0  0
    9.0692  -17.5187   24.0627 C   0  0  0  0  0  0  0  0  0  0  0  0
    8.7037  -16.0441   23.9855 C   0  0  2  0  0  0  0  0  0  0  0  0
    8.8794  -15.5129   22.6708 N   0  0  0  0  0  0  0  0  0  0  0  0
    9.5164  -15.2772   24.9960 C   0  0  0  0  0  0  0  0  0  0  0  0
   10.6750  -14.9084   24.7473 O   0  0  0  0  0  0  0  0  0  0  0  0
    8.8439  -13.2271   28.0040 C   0  0  0  0  0  0  0  0  0  0  0  0
    9.6618  -14.2361   27.2868 C   0  0  2  0  0  0  0  0  0  0  0  0
    8.9704  -14.9571   26.2649 N   0  0  0  0  0  0  0  0  0  0  0  0
   10.1603  -15.2355   28.2698 C   0  0  0  0  0  0  0  0  0  0  0  0
   10.8641  -14.8856   29.2747 O   0  0  0  0  0  0  0  0  0  0  0  0
    9.9006  -16.5949   28.1665 O   0  0  0  0  0  0  0  0  0  0  0  0
  2  1  1  6
  2  3  1  0
  4  3  1  0
  5  2  1  0
  6  5  2  0
  7  8  1  0
  9  8  1  6
  9 10  1  0
 10  5  1  0
 11 15  1  0
 11  9  1  0
 12 11  2  0
 14 13  1  1
 14 15  1  0
 14 16  1  0
 16 18  1  0
 17 16  2  0
M  END
$$$$
