PYV.pdb
     RDKit          3D

 27 28  0  0  1  0  0  0  0  0999 V2000
   10.1919  -18.2693   20.3456 N   0  0  0  0  0  0  0  0  0  0  0  0
   10.2946  -18.6863   18.9385 C   0  0  0  0  0  0  0  0  0  0  0  0
    9.8530  -17.5026   18.1215 C   0  0  0  0  0  0  0  0  0  0  0  0
    9.6278  -16.4012   19.1438 C   0  0  0  0  0  0  0  0  0  0  0  0
   10.5554  -16.8888   20.2611 C   0  0  1  0  0  0  0  0  0  0  0  0
   10.3515  -16.1391   21.5096 C   0  0  0  0  0  0  0  0  0  0  0  0
   11.1597  -15.2120   21.7739 O   0  0  0  0  0  0  0  0  0  0  0  0
    5.9624  -11.3735   27.4555 O   0  0  0  0  0  0  0  0  0  0  0  0
    6.3625  -12.2968   26.4725 C   0  0  0  0  0  0  0  0  0  0  0  0
    6.1706  -13.6469   26.6406 C   0  0  0  0  0  0  0  0  0  0  0  0
    6.5693  -14.5398   25.6655 C   0  0  0  0  0  0  0  0  0  0  0  0
    7.1661  -14.1126   24.5047 C   0  0  0  0  0  0  0  0  0  0  0  0
    7.5766  -15.1133   23.4974 C   0  0  0  0  0  0  0  0  0  0  0  0
    9.0317  -15.4583   23.5504 C   0  0  2  0  0  0  0  0  0  0  0  0
    9.3137  -16.3797   22.4402 N   0  0  0  0  0  0  0  0  0  0  0  0
    9.4623  -16.0631   24.8412 C   0  0  0  0  0  0  0  0  0  0  0  0
    9.5789  -17.3131   24.9284 O   0  0  0  0  0  0  0  0  0  0  0  0
    7.3641  -12.7657   24.3239 C   0  0  0  0  0  0  0  0  0  0  0  0
    6.9610  -11.8736   25.3076 C   0  0  0  0  0  0  0  0  0  0  0  0
   11.6086  -13.6909   27.6169 C   0  0  0  0  0  0  0  0  0  0  0  0
   10.8282  -14.8474   28.1429 C   0  0  1  0  0  0  0  0  0  0  0  0
    9.5764  -14.4039   28.8542 C   0  0  0  0  0  0  0  0  0  0  0  0
   10.4963  -15.8676   27.0770 C   0  0  2  0  0  0  0  0  0  0  0  0
    9.7509  -15.2943   25.9896 N   0  0  0  0  0  0  0  0  0  0  0  0
    9.6931  -16.9919   27.6404 C   0  0  0  0  0  0  0  0  0  0  0  0
    8.4421  -17.0884   27.4072 O   0  0  0  0  0  0  0  0  0  0  0  0
   10.2832  -17.9633   28.4330 O   0  0  0  0  0  0  0  0  0  0  0  0
  1  2  1  0
  3  2  1  0
  4  5  1  0
  4  3  1  0
  5  1  1  0
  5  6  1  1
  7  6  2  0
  8  9  1  0
  9 19  2  0
 10 11  2  0
 10  9  1  0
 11 12  1  0
 12 13  1  0
 12 18  2  0
 14 13  1  1
 14 15  1  0
 15  6  1  0
 16 14  1  0
 17 16  2  0
 19 18  1  0
 21 23  1  0
 21 20  1  6
 22 21  1  0
 23 25  1  0
 23 24  1  6
 24 16  1  0
 25 27  1  0
 26 25  2  0
M  END
$$$$
