PYV.pdb
     RDKit          3D

 27 28  0  0  1  0  0  0  0  0999 V2000
    7.0036  -14.8019   20.2457 N   0  0  0  0  0  0  0  0  0  0  0  0
    6.4223  -14.2108   19.0303 C   0  0  0  0  0  0  0  0  0  0  0  0
    6.8398  -12.7654   19.0312 C   0  0  0  0  0  0  0  0  0  0  0  0
    7.7655  -12.6405   20.2298 C   0  0  0  0  0  0  0  0  0  0  0  0
    8.2411  -14.0922   20.3442 C   0  0  1  0  0  0  0  0  0  0  0  0
    8.9706  -14.3330   21.5981 C   0  0  0  0  0  0  0  0  0  0  0  0
   10.2179  -14.1686   21.5901 O   0  0  0  0  0  0  0  0  0  0  0  0
   10.7257  -15.1807   30.2857 O   0  0  0  0  0  0  0  0  0  0  0  0
   10.1155  -15.0342   29.0267 C   0  0  0  0  0  0  0  0  0  0  0  0
   10.0804  -13.8186   28.3872 C   0  0  0  0  0  0  0  0  0  0  0  0
    9.4772  -13.6922   27.1514 C   0  0  0  0  0  0  0  0  0  0  0  0
    8.8969  -14.7678   26.5248 C   0  0  0  0  0  0  0  0  0  0  0  0
    8.2617  -14.5734   25.2045 C   0  0  0  0  0  0  0  0  0  0  0  0
    9.1602  -14.8939   24.0516 C   0  0  2  0  0  0  0  0  0  0  0  0
    8.3775  -14.7366   22.8172 N   0  0  0  0  0  0  0  0  0  0  0  0
    9.7560  -16.2573   24.1111 C   0  0  0  0  0  0  0  0  0  0  0  0
    9.0207  -17.2608   23.9216 O   0  0  0  0  0  0  0  0  0  0  0  0
    8.9249  -15.9887   27.1529 C   0  0  0  0  0  0  0  0  0  0  0  0
    9.5326  -16.1090   28.3948 C   0  0  0  0  0  0  0  0  0  0  0  0
   13.6584  -19.1640   23.5832 C   0  0  0  0  0  0  0  0  0  0  0  0
   12.9755  -17.8403   23.5163 C   0  0  1  0  0  0  0  0  0  0  0  0
   12.7650  -17.3876   22.0949 C   0  0  0  0  0  0  0  0  0  0  0  0
   11.6693  -17.8121   24.2780 C   0  0  2  0  0  0  0  0  0  0  0  0
   11.1245  -16.4851   24.3732 N   0  0  0  0  0  0  0  0  0  0  0  0
   11.8438  -18.3361   25.6641 C   0  0  0  0  0  0  0  0  0  0  0  0
   12.0454  -17.5461   26.6459 O   0  0  0  0  0  0  0  0  0  0  0  0
   11.7918  -19.6962   25.9246 O   0  0  0  0  0  0  0  0  0  0  0  0
  1  2  1  0
  3  2  1  0
  4  5  1  0
  4  3  1  0
  5  1  1  0
  5  6  1  1
  7  6  2  0
  8  9  1  0
  9 19  2  0
 10 11  2  0
 10  9  1  0
 11 12  1  0
 12 13  1  0
 12 18  2  0
 14 13  1  1
 14 15  1  0
 15  6  1  0
 16 14  1  0
 17 16  2  0
 19 18  1  0
 21 23  1  0
 21 20  1  6
 22 21  1  0
 23 25  1  0
 23 24  1  1
 24 16  1  0
 25 27  1  0
 26 25  2  0
M  END
$$$$
