PYV.pdb
     RDKit          3D

 27 28  0  0  1  0  0  0  0  0999 V2000
    9.7632  -18.1566   20.1891 N   0  0  0  0  0  0  0  0  0  0  0  0
    9.9968  -18.6045   18.8074 C   0  0  0  0  0  0  0  0  0  0  0  0
   10.0330  -17.3569   17.9673 C   0  0  0  0  0  0  0  0  0  0  0  0
    9.9308  -16.2219   18.9723 C   0  0  0  0  0  0  0  0  0  0  0  0
   10.4867  -16.9235   20.2154 C   0  0  1  0  0  0  0  0  0  0  0  0
   10.2724  -16.1301   21.4349 C   0  0  0  0  0  0  0  0  0  0  0  0
   11.0233  -15.1393   21.6276 O   0  0  0  0  0  0  0  0  0  0  0  0
    5.8005  -11.4142   27.3564 O   0  0  0  0  0  0  0  0  0  0  0  0
    6.2219  -12.3575   26.4017 C   0  0  0  0  0  0  0  0  0  0  0  0
    6.7834  -11.9658   25.2103 C   0  0  0  0  0  0  0  0  0  0  0  0
    7.1918  -12.9051   24.2840 C   0  0  0  0  0  0  0  0  0  0  0  0
    7.0519  -14.2508   24.5197 C   0  0  0  0  0  0  0  0  0  0  0  0
    7.5026  -15.2112   23.4906 C   0  0  0  0  0  0  0  0  0  0  0  0
    8.9805  -15.4451   23.4920 C   0  0  2  0  0  0  0  0  0  0  0  0
    9.2843  -16.3948   22.4118 N   0  0  0  0  0  0  0  0  0  0  0  0
    9.5101  -15.9546   24.7872 C   0  0  0  0  0  0  0  0  0  0  0  0
    9.9168  -17.1431   24.8627 O   0  0  0  0  0  0  0  0  0  0  0  0
    6.4921  -14.6561   25.7065 C   0  0  0  0  0  0  0  0  0  0  0  0
    6.0838  -13.7072   26.6333 C   0  0  0  0  0  0  0  0  0  0  0  0
   11.1875  -15.0033   29.3661 C   0  0  0  0  0  0  0  0  0  0  0  0
   10.3585  -14.5813   28.2008 C   0  0  1  0  0  0  0  0  0  0  0  0
   10.7736  -13.2319   27.6750 C   0  0  0  0  0  0  0  0  0  0  0  0
   10.3477  -15.6020   27.0850 C   0  0  2  0  0  0  0  0  0  0  0  0
    9.5804  -15.1604   25.9523 N   0  0  0  0  0  0  0  0  0  0  0  0
    9.7750  -16.8994   27.5486 C   0  0  0  0  0  0  0  0  0  0  0  0
    8.5207  -17.1256   27.4841 O   0  0  0  0  0  0  0  0  0  0  0  0
   10.5894  -17.8959   28.0624 O   0  0  0  0  0  0  0  0  0  0  0  0
  1  2  1  0
  3  2  1  0
  4  5  1  0
  4  3  1  0
  5  1  1  0
  5  6  1  1
  7  6  2  0
  8  9  1  0
  9 19  2  0
 10 11  2  0
 10  9  1  0
 11 12  1  0
 12 13  1  0
 12 18  2  0
 14 13  1  1
 14 15  1  0
 15  6  1  0
 16 14  1  0
 17 16  2  0
 19 18  1  0
 21 23  1  0
 21 20  1  1
 22 21  1  0
 23 25  1  0
 23 24  1  6
 24 16  1  0
 25 27  1  0
 26 25  2  0
M  END
$$$$
