PYV.pdb
     RDKit          3D

 27 28  0  0  1  0  0  0  0  0999 V2000
    8.3511  -17.4730   19.1732 N   0  0  0  0  0  0  0  0  0  0  0  0
    8.1228  -17.5531   17.7220 C   0  0  0  0  0  0  0  0  0  0  0  0
    7.7591  -16.1611   17.2817 C   0  0  0  0  0  0  0  0  0  0  0  0
    7.9212  -15.3148   18.5332 C   0  0  0  0  0  0  0  0  0  0  0  0
    8.9331  -16.1728   19.2990 C   0  0  1  0  0  0  0  0  0  0  0  0
    9.0940  -15.7215   20.6893 C   0  0  0  0  0  0  0  0  0  0  0  0
   10.2647  -15.5554   21.1186 O   0  0  0  0  0  0  0  0  0  0  0  0
    7.1793  -12.1684   28.6437 O   0  0  0  0  0  0  0  0  0  0  0  0
    7.1405  -12.6635   27.3276 C   0  0  0  0  0  0  0  0  0  0  0  0
    7.7058  -11.9679   26.2861 C   0  0  0  0  0  0  0  0  0  0  0  0
    7.6588  -12.4683   24.9998 C   0  0  0  0  0  0  0  0  0  0  0  0
    7.0509  -13.6676   24.7201 C   0  0  0  0  0  0  0  0  0  0  0  0
    7.0267  -14.1525   23.3241 C   0  0  0  0  0  0  0  0  0  0  0  0
    8.2603  -14.8996   22.9252 C   0  0  2  0  0  0  0  0  0  0  0  0
    8.0313  -15.4585   21.5850 N   0  0  0  0  0  0  0  0  0  0  0  0
    8.6443  -15.9815   23.8736 C   0  0  0  0  0  0  0  0  0  0  0  0
    7.9569  -17.0347   23.9192 O   0  0  0  0  0  0  0  0  0  0  0  0
    6.4818  -14.3731   25.7518 C   0  0  0  0  0  0  0  0  0  0  0  0
    6.5324  -13.8647   27.0422 C   0  0  0  0  0  0  0  0  0  0  0  0
   12.2768  -18.2844   26.1943 C   0  0  0  0  0  0  0  0  0  0  0  0
   11.7401  -17.1920   25.3331 C   0  0  1  0  0  0  0  0  0  0  0  0
   12.1588  -17.3530   23.8949 C   0  0  0  0  0  0  0  0  0  0  0  0
   10.2379  -17.0477   25.4323 C   0  0  2  0  0  0  0  0  0  0  0  0
    9.7569  -15.8847   24.7373 N   0  0  0  0  0  0  0  0  0  0  0  0
    9.8005  -16.9446   26.8551 C   0  0  0  0  0  0  0  0  0  0  0  0
    9.7440  -15.8149   27.4461 O   0  0  0  0  0  0  0  0  0  0  0  0
    9.4432  -18.0732   27.5753 O   0  0  0  0  0  0  0  0  0  0  0  0
  1  2  1  0
  3  2  1  0
  4  5  1  0
  4  3  1  0
  5  1  1  0
  5  6  1  1
  7  6  2  0
  8  9  1  0
  9 19  2  0
 10 11  2  0
 10  9  1  0
 11 12  1  0
 12 13  1  0
 12 18  2  0
 14 13  1  1
 14 15  1  0
 15  6  1  0
 16 14  1  0
 17 16  2  0
 19 18  1  0
 21 23  1  0
 21 20  1  1
 22 21  1  0
 23 25  1  0
 23 24  1  6
 24 16  1  0
 25 27  1  0
 26 25  2  0
M  END
$$$$
