PYV.pdb
     RDKit          3D

 27 28  0  0  1  0  0  0  0  0999 V2000
    7.0791  -14.9888   19.4346 N   0  0  0  0  0  0  0  0  0  0  0  0
    6.7678  -14.5971   18.0511 C   0  0  0  0  0  0  0  0  0  0  0  0
    7.0238  -13.1167   17.9713 C   0  0  0  0  0  0  0  0  0  0  0  0
    7.5987  -12.7591   19.3316 C   0  0  0  0  0  0  0  0  0  0  0  0
    8.1735  -14.1197   19.7376 C   0  0  1  0  0  0  0  0  0  0  0  0
    8.5826  -14.1429   21.1500 C   0  0  0  0  0  0  0  0  0  0  0  0
    9.7932  -13.9233   21.4120 O   0  0  0  0  0  0  0  0  0  0  0  0
    8.2105  -13.6954   30.0262 O   0  0  0  0  0  0  0  0  0  0  0  0
    7.9228  -13.7216   28.6495 C   0  0  0  0  0  0  0  0  0  0  0  0
    7.4826  -14.8683   28.0337 C   0  0  0  0  0  0  0  0  0  0  0  0
    7.2046  -14.8768   26.6810 C   0  0  0  0  0  0  0  0  0  0  0  0
    7.3573  -13.7493   25.9118 C   0  0  0  0  0  0  0  0  0  0  0  0
    7.0491  -13.8174   24.4680 C   0  0  0  0  0  0  0  0  0  0  0  0
    8.1812  -14.3303   23.6346 C   0  0  2  0  0  0  0  0  0  0  0  0
    7.7180  -14.3939   22.2410 N   0  0  0  0  0  0  0  0  0  0  0  0
    8.6946  -15.6599   24.0660 C   0  0  0  0  0  0  0  0  0  0  0  0
    7.9832  -16.6829   23.8892 O   0  0  0  0  0  0  0  0  0  0  0  0
    7.7968  -12.5962   26.5147 C   0  0  0  0  0  0  0  0  0  0  0  0
    8.0743  -12.5944   27.8745 C   0  0  0  0  0  0  0  0  0  0  0  0
   12.4601  -18.6585   24.6977 C   0  0  0  0  0  0  0  0  0  0  0  0
   11.8496  -17.3499   24.3262 C   0  0  1  0  0  0  0  0  0  0  0  0
   11.8194  -17.1474   22.8337 C   0  0  0  0  0  0  0  0  0  0  0  0
   10.4694  -17.1559   24.9132 C   0  0  2  0  0  0  0  0  0  0  0  0
    9.9576  -15.8342   24.6722 N   0  0  0  0  0  0  0  0  0  0  0  0
   10.4755  -17.3829   26.3879 C   0  0  0  0  0  0  0  0  0  0  0  0
   10.5988  -16.4089   27.2032 O   0  0  0  0  0  0  0  0  0  0  0  0
   10.3475  -18.6585   26.9139 O   0  0  0  0  0  0  0  0  0  0  0  0
  1  2  1  0
  3  2  1  0
  4  5  1  0
  4  3  1  0
  5  1  1  0
  5  6  1  1
  7  6  2  0
  8  9  1  0
  9 19  2  0
 10 11  2  0
 10  9  1  0
 11 12  1  0
 12 13  1  0
 12 18  2  0
 14 13  1  1
 14 15  1  0
 15  6  1  0
 16 14  1  0
 17 16  2  0
 19 18  1  0
 21 23  1  0
 21 20  1  6
 22 21  1  0
 23 25  1  0
 23 24  1  1
 24 16  1  0
 25 27  1  0
 26 25  2  0
M  END
$$$$
