PYV.pdb
     RDKit          3D

 27 28  0  0  1  0  0  0  0  0999 V2000
    7.8109  -17.3612   19.2181 N   0  0  0  0  0  0  0  0  0  0  0  0
    7.6353  -17.5037   17.7644 C   0  0  0  0  0  0  0  0  0  0  0  0
    7.7553  -16.1166   17.1940 C   0  0  0  0  0  0  0  0  0  0  0  0
    8.1218  -15.2486   18.3861 C   0  0  0  0  0  0  0  0  0  0  0  0
    8.7710  -16.3037   19.2872 C   0  0  1  0  0  0  0  0  0  0  0  0
    9.0040  -15.7952   20.6472 C   0  0  0  0  0  0  0  0  0  0  0  0
   10.1752  -15.4498   20.9499 O   0  0  0  0  0  0  0  0  0  0  0  0
    7.2976  -12.2223   28.6425 O   0  0  0  0  0  0  0  0  0  0  0  0
    7.2389  -12.7294   27.3318 C   0  0  0  0  0  0  0  0  0  0  0  0
    6.6138  -13.9212   27.0546 C   0  0  0  0  0  0  0  0  0  0  0  0
    6.5651  -14.4048   25.7619 C   0  0  0  0  0  0  0  0  0  0  0  0
    7.1348  -13.7171   24.7185 C   0  0  0  0  0  0  0  0  0  0  0  0
    7.0561  -14.2844   23.3560 C   0  0  0  0  0  0  0  0  0  0  0  0
    8.2865  -15.0289   22.9423 C   0  0  2  0  0  0  0  0  0  0  0  0
    8.0105  -15.6636   21.6454 N   0  0  0  0  0  0  0  0  0  0  0  0
    8.7343  -16.0507   23.9288 C   0  0  0  0  0  0  0  0  0  0  0  0
    8.0639  -17.1062   24.0712 O   0  0  0  0  0  0  0  0  0  0  0  0
    7.7629  -12.5245   24.9816 C   0  0  0  0  0  0  0  0  0  0  0  0
    7.8083  -12.0440   26.2828 C   0  0  0  0  0  0  0  0  0  0  0  0
   12.4920  -18.1445   26.2714 C   0  0  0  0  0  0  0  0  0  0  0  0
   11.9155  -17.1126   25.3626 C   0  0  1  0  0  0  0  0  0  0  0  0
   12.3232  -17.3349   23.9294 C   0  0  0  0  0  0  0  0  0  0  0  0
   10.4111  -17.0048   25.4727 C   0  0  2  0  0  0  0  0  0  0  0  0
    9.8899  -15.8934   24.7244 N   0  0  0  0  0  0  0  0  0  0  0  0
    9.9864  -16.8398   26.8935 C   0  0  0  0  0  0  0  0  0  0  0  0
    9.6917  -15.6903   27.3631 O   0  0  0  0  0  0  0  0  0  0  0  0
    9.9000  -17.9307   27.7437 O   0  0  0  0  0  0  0  0  0  0  0  0
  1  2  1  0
  3  2  1  0
  4  5  1  0
  4  3  1  0
  5  1  1  0
  5  6  1  1
  7  6  2  0
  8  9  1  0
  9 19  2  0
 10 11  2  0
 10  9  1  0
 11 12  1  0
 12 13  1  0
 12 18  2  0
 14 13  1  1
 14 15  1  0
 15  6  1  0
 16 14  1  0
 17 16  2  0
 19 18  1  0
 21 23  1  0
 21 20  1  1
 22 21  1  0
 23 25  1  0
 23 24  1  6
 24 16  1  0
 25 27  1  0
 26 25  2  0
M  END
$$$$
