PYV.pdb
     RDKit          3D

 27 28  0  0  1  0  0  0  0  0999 V2000
    9.8028  -18.1169   20.1945 N   0  0  0  0  0  0  0  0  0  0  0  0
   10.0228  -18.5014   18.7916 C   0  0  0  0  0  0  0  0  0  0  0  0
   10.0392  -17.2176   18.0071 C   0  0  0  0  0  0  0  0  0  0  0  0
    9.9409  -16.1290   19.0626 C   0  0  0  0  0  0  0  0  0  0  0  0
   10.5173  -16.8803   20.2667 C   0  0  1  0  0  0  0  0  0  0  0  0
   10.3121  -16.1434   21.5226 C   0  0  0  0  0  0  0  0  0  0  0  0
   11.1413  -15.2437   21.8151 O   0  0  0  0  0  0  0  0  0  0  0  0
    5.9073  -11.3973   27.4890 O   0  0  0  0  0  0  0  0  0  0  0  0
    6.3067  -12.3138   26.4993 C   0  0  0  0  0  0  0  0  0  0  0  0
    6.0444  -13.6569   26.6224 C   0  0  0  0  0  0  0  0  0  0  0  0
    6.4435  -14.5432   25.6414 C   0  0  0  0  0  0  0  0  0  0  0  0
    7.1103  -14.1162   24.5192 C   0  0  0  0  0  0  0  0  0  0  0  0
    7.5175  -15.1098   23.5037 C   0  0  0  0  0  0  0  0  0  0  0  0
    8.9732  -15.4532   23.5477 C   0  0  2  0  0  0  0  0  0  0  0  0
    9.2512  -16.3678   22.4309 N   0  0  0  0  0  0  0  0  0  0  0  0
    9.4109  -16.0648   24.8330 C   0  0  0  0  0  0  0  0  0  0  0  0
    9.5214  -17.3157   24.9149 O   0  0  0  0  0  0  0  0  0  0  0  0
    7.3789  -12.7762   24.3837 C   0  0  0  0  0  0  0  0  0  0  0  0
    6.9751  -11.8907   25.3731 C   0  0  0  0  0  0  0  0  0  0  0  0
   11.5492  -13.6876   27.5452 C   0  0  0  0  0  0  0  0  0  0  0  0
   10.8337  -14.8652   28.1147 C   0  0  1  0  0  0  0  0  0  0  0  0
    9.6239  -14.4554   28.9135 C   0  0  0  0  0  0  0  0  0  0  0  0
   10.4527  -15.8866   27.0665 C   0  0  2  0  0  0  0  0  0  0  0  0
    9.7127  -15.3015   25.9816 N   0  0  0  0  0  0  0  0  0  0  0  0
    9.6194  -16.9756   27.6547 C   0  0  0  0  0  0  0  0  0  0  0  0
    8.3703  -17.0560   27.4056 O   0  0  0  0  0  0  0  0  0  0  0  0
   10.1786  -17.9308   28.4884 O   0  0  0  0  0  0  0  0  0  0  0  0
  1  2  1  0
  3  2  1  0
  4  5  1  0
  4  3  1  0
  5  1  1  0
  5  6  1  1
  7  6  2  0
  8  9  1  0
  9 19  2  0
 10 11  2  0
 10  9  1  0
 11 12  1  0
 12 13  1  0
 12 18  2  0
 14 13  1  1
 14 15  1  0
 15  6  1  0
 16 14  1  0
 17 16  2  0
 19 18  1  0
 21 23  1  0
 21 20  1  6
 22 21  1  0
 23 25  1  0
 23 24  1  6
 24 16  1  0
 25 27  1  0
 26 25  2  0
M  END
$$$$
