PYV.pdb
     RDKit          3D

 27 28  0  0  1  0  0  0  0  0999 V2000
    7.9483  -15.5280   18.6119 N   0  0  0  0  0  0  0  0  0  0  0  0
    7.7616  -15.1664   17.1981 C   0  0  0  0  0  0  0  0  0  0  0  0
    7.6612  -13.6656   17.1634 C   0  0  0  0  0  0  0  0  0  0  0  0
    7.9229  -13.2364   18.5973 C   0  0  0  0  0  0  0  0  0  0  0  0
    8.7423  -14.4361   19.0831 C   0  0  1  0  0  0  0  0  0  0  0  0
    8.9292  -14.4181   20.5416 C   0  0  0  0  0  0  0  0  0  0  0  0
   10.1056  -14.3345   20.9796 O   0  0  0  0  0  0  0  0  0  0  0  0
    7.2833  -12.8884   29.1458 O   0  0  0  0  0  0  0  0  0  0  0  0
    7.1904  -13.0948   27.7575 C   0  0  0  0  0  0  0  0  0  0  0  0
    7.5996  -12.1346   26.8639 C   0  0  0  0  0  0  0  0  0  0  0  0
    7.5015  -12.3534   25.5039 C   0  0  0  0  0  0  0  0  0  0  0  0
    6.9961  -13.5278   25.0025 C   0  0  0  0  0  0  0  0  0  0  0  0
    6.9103  -13.7059   23.5378 C   0  0  0  0  0  0  0  0  0  0  0  0
    8.1318  -14.3248   22.9344 C   0  0  2  0  0  0  0  0  0  0  0  0
    7.8859  -14.4878   21.4942 N   0  0  0  0  0  0  0  0  0  0  0  0
    8.5096  -15.6311   23.5415 C   0  0  0  0  0  0  0  0  0  0  0  0
    7.8003  -16.6454   23.3138 O   0  0  0  0  0  0  0  0  0  0  0  0
    6.5833  -14.4961   25.8847 C   0  0  0  0  0  0  0  0  0  0  0  0
    6.6846  -14.2700   27.2502 C   0  0  0  0  0  0  0  0  0  0  0  0
   11.9507  -18.6788   25.1317 C   0  0  0  0  0  0  0  0  0  0  0  0
   11.5001  -17.3720   24.5729 C   0  0  1  0  0  0  0  0  0  0  0  0
   11.8220  -17.2468   23.1065 C   0  0  0  0  0  0  0  0  0  0  0  0
   10.0320  -17.1021   24.8158 C   0  0  2  0  0  0  0  0  0  0  0  0
    9.6398  -15.7921   24.3720 N   0  0  0  0  0  0  0  0  0  0  0  0
    9.6975  -17.2137   26.2657 C   0  0  0  0  0  0  0  0  0  0  0  0
    9.8398  -16.2189   27.0523 O   0  0  0  0  0  0  0  0  0  0  0  0
    9.2228  -18.4013   26.7991 O   0  0  0  0  0  0  0  0  0  0  0  0
  1  2  1  0
  3  2  1  0
  4  5  1  0
  4  3  1  0
  5  1  1  0
  5  6  1  1
  7  6  2  0
  8  9  1  0
  9 19  2  0
 10 11  2  0
 10  9  1  0
 11 12  1  0
 12 13  1  0
 12 18  2  0
 14 13  1  1
 14 15  1  0
 15  6  1  0
 16 14  1  0
 17 16  2  0
 19 18  1  0
 21 23  1  0
 21 20  1  6
 22 21  1  0
 23 25  1  0
 23 24  1  1
 24 16  1  0
 25 27  1  0
 26 25  2  0
M  END
$$$$
