PYV.pdb
     RDKit          3D

 27 28  0  0  1  0  0  0  0  0999 V2000
    8.2531  -13.7930   18.7260 N   0  0  0  0  0  0  0  0  0  0  0  0
    7.6388  -13.3406   17.4681 C   0  0  0  0  0  0  0  0  0  0  0  0
    8.6451  -13.6295   16.3875 C   0  0  0  0  0  0  0  0  0  0  0  0
    9.7671  -14.3633   17.1028 C   0  0  0  0  0  0  0  0  0  0  0  0
    8.9872  -14.9396   18.2887 C   0  0  1  0  0  0  0  0  0  0  0  0
    9.8813  -15.5032   19.3113 C   0  0  0  0  0  0  0  0  0  0  0  0
    9.9602  -16.7560   19.3930 O   0  0  0  0  0  0  0  0  0  0  0  0
   15.6781  -15.6206   16.3821 O   0  0  0  0  0  0  0  0  0  0  0  0
   14.9746  -15.3922   17.5786 C   0  0  0  0  0  0  0  0  0  0  0  0
   14.9070  -16.3503   18.5612 C   0  0  0  0  0  0  0  0  0  0  0  0
   14.2120  -16.1097   19.7301 C   0  0  0  0  0  0  0  0  0  0  0  0
   13.5704  -14.9152   19.9484 C   0  0  0  0  0  0  0  0  0  0  0  0
   12.8379  -14.7143   21.2163 C   0  0  0  0  0  0  0  0  0  0  0  0
   11.4957  -15.3752   21.2470 C   0  0  2  0  0  0  0  0  0  0  0  0
   10.6624  -14.7439   20.2135 N   0  0  0  0  0  0  0  0  0  0  0  0
   10.8162  -15.3012   22.5700 C   0  0  0  0  0  0  0  0  0  0  0  0
   10.9032  -14.2458   23.2501 O   0  0  0  0  0  0  0  0  0  0  0  0
   13.6299  -13.9489   18.9744 C   0  0  0  0  0  0  0  0  0  0  0  0
   14.3300  -14.1969   17.8020 C   0  0  0  0  0  0  0  0  0  0  0  0
    7.0460  -16.0493   25.3500 C   0  0  0  0  0  0  0  0  0  0  0  0
    7.8330  -16.1766   24.0900 C   0  0  1  0  0  0  0  0  0  0  0  0
    7.4721  -15.1078   23.0915 C   0  0  0  0  0  0  0  0  0  0  0  0
    9.3265  -16.1944   24.3274 C   0  0  2  0  0  0  0  0  0  0  0  0
   10.0682  -16.3705   23.1085 N   0  0  0  0  0  0  0  0  0  0  0  0
    9.7096  -17.2945   25.2598 C   0  0  0  0  0  0  0  0  0  0  0  0
   10.2073  -18.3850   24.8218 O   0  0  0  0  0  0  0  0  0  0  0  0
    9.5356  -17.1630   26.6282 O   0  0  0  0  0  0  0  0  0  0  0  0
  1  2  1  0
  3  2  1  0
  4  5  1  0
  4  3  1  0
  5  1  1  0
  5  6  1  1
  7  6  2  0
  8  9  1  0
  9 19  2  0
 10 11  2  0
 10  9  1  0
 11 12  1  0
 12 13  1  0
 12 18  2  0
 14 13  1  1
 14 15  1  0
 15  6  1  0
 16 14  1  0
 17 16  2  0
 19 18  1  0
 21 23  1  0
 21 20  1  1
 22 21  1  0
 23 25  1  0
 23 24  1  6
 24 16  1  0
 25 27  1  0
 26 25  2  0
M  END
$$$$
