MPQ.pdb
     RDKit          3D

 25 25  0  0  1  0  0  0  0  0999 V2000
   20.6910  -23.7938  -15.7188 C   0  0  0  0  0  0  0  0  0  0  0  0
   19.6275  -23.5672  -14.2921 S   0  0  0  0  0  0  0  0  0  0  0  0
   20.1426  -22.1818  -13.2506 C   0  0  0  0  0  0  0  0  0  0  0  0
   21.6054  -21.8504  -13.4584 C   0  0  0  0  0  0  0  0  0  0  0  0
   21.8567  -20.3653  -13.2348 C   0  0  2  0  0  0  0  0  0  0  0  0
   21.1122  -19.6288  -14.1818 N   0  0  0  0  0  0  0  0  0  0  0  0
   23.2812  -20.0593  -13.0986 C   0  0  0  0  0  0  0  0  0  0  0  0
   23.6784  -19.2012  -13.9711 O   0  0  0  0  0  0  0  0  0  0  0  0
   24.1929  -20.5914  -12.1538 N   0  0  0  0  0  0  0  0  0  0  0  0
   24.0845  -21.6025  -11.1444 C   0  0  0  0  0  0  0  0  0  0  0  0
   24.5685  -20.8380   -9.9256 C   0  0  0  0  0  0  0  0  0  0  0  0
   25.7292  -20.0768  -10.5319 C   0  0  0  0  0  0  0  0  0  0  0  0
   25.5654  -20.1472  -12.0356 C   0  0  1  0  0  0  0  0  0  0  0  0
   26.5105  -21.0982  -12.6755 C   0  0  0  0  0  0  0  0  0  0  0  0
   26.8007  -22.1729  -12.1013 O   0  0  0  0  0  0  0  0  0  0  0  0
   24.8689  -24.8086  -14.4790 N   0  0  0  0  0  0  0  0  0  0  0  0
   25.2026  -24.6174  -15.8690 C   0  0  0  0  0  0  0  0  0  0  0  0
   25.1114  -25.6186  -16.5942 O   0  0  0  0  0  0  0  0  0  0  0  0
   25.6305  -23.2991  -16.4009 C   0  0  0  0  0  0  0  0  0  0  0  0
   25.6914  -22.3291  -15.2649 C   0  0  0  0  0  0  0  0  0  0  0  0
   27.0783  -21.7675  -15.0490 C   0  0  2  0  0  0  0  0  0  0  0  0
   27.1135  -20.8430  -13.9333 N   0  0  0  0  0  0  0  0  0  0  0  0
   27.6661  -21.1622  -16.2483 C   0  0  0  0  0  0  0  0  0  0  0  0
   27.2517  -19.9117  -16.6556 O   0  0  0  0  0  0  0  0  0  0  0  0
   28.5410  -21.7514  -16.9208 O   0  0  0  0  0  0  0  0  0  0  0  0
  2  1  1  0
  3  2  1  0
  4  3  1  0
  4  5  1  0
  5  7  1  0
  5  6  1  6
  7  8  2  0
  9 13  1  0
  9  7  1  0
 10  9  1  0
 11 10  1  0
 11 12  1  0
 12 13  1  0
 14 15  2  0
 13 14  1  1
 16 17  1  0
 17 18  2  0
 19 17  1  0
 19 20  1  0
 21 20  1  6
 21 22  1  0
 21 23  1  0
 22 14  1  0
 23 25  2  0
 23 24  1  0
M  END
$$$$
