MPQ.pdb
     RDKit          3D

 25 25  0  0  1  0  0  0  0  0999 V2000
   18.5086  -14.8581  -20.5595 C   0  0  0  0  0  0  0  0  0  0  0  0
   19.2809  -14.4046  -22.1138 S   0  0  0  0  0  0  0  0  0  0  0  0
   21.0754  -14.6256  -22.0920 C   0  0  0  0  0  0  0  0  0  0  0  0
   21.7433  -13.6207  -21.1773 C   0  0  0  0  0  0  0  0  0  0  0  0
   23.2452  -13.8644  -21.1171 C   0  0  2  0  0  0  0  0  0  0  0  0
   23.4769  -15.1664  -20.6226 N   0  0  0  0  0  0  0  0  0  0  0  0
   23.9608  -12.7560  -20.4840 C   0  0  0  0  0  0  0  0  0  0  0  0
   24.2972  -13.0255  -19.2717 O   0  0  0  0  0  0  0  0  0  0  0  0
   24.2899  -11.5017  -21.0544 N   0  0  0  0  0  0  0  0  0  0  0  0
   24.0434  -10.9092  -22.3354 C   0  0  0  0  0  0  0  0  0  0  0  0
   25.4527  -10.5183  -22.7418 C   0  0  0  0  0  0  0  0  0  0  0  0
   25.9743   -9.9905  -21.4214 C   0  0  0  0  0  0  0  0  0  0  0  0
   25.0234  -10.4741  -20.3467 C   0  0  1  0  0  0  0  0  0  0  0  0
   24.1262   -9.4019  -19.8444 C   0  0  0  0  0  0  0  0  0  0  0  0
   22.9069   -9.4218  -20.1309 O   0  0  0  0  0  0  0  0  0  0  0  0
   20.9532   -8.4550  -14.1177 N   0  0  0  0  0  0  0  0  0  0  0  0
   21.2594   -8.6719  -15.5102 C   0  0  0  0  0  0  0  0  0  0  0  0
   20.8168   -9.7168  -16.0093 O   0  0  0  0  0  0  0  0  0  0  0  0
   22.0578   -7.7013  -16.3004 C   0  0  0  0  0  0  0  0  0  0  0  0
   22.9451   -8.4659  -17.2295 C   0  0  0  0  0  0  0  0  0  0  0  0
   23.7489   -7.5679  -18.1421 C   0  0  2  0  0  0  0  0  0  0  0  0
   24.5930   -8.3330  -19.0380 N   0  0  0  0  0  0  0  0  0  0  0  0
   24.5280   -6.5473  -17.4338 C   0  0  0  0  0  0  0  0  0  0  0  0
   25.9056   -6.5893  -17.4743 O   0  0  0  0  0  0  0  0  0  0  0  0
   23.9757   -5.6301  -16.7868 O   0  0  0  0  0  0  0  0  0  0  0  0
  2  1  1  0
  3  2  1  0
  4  3  1  0
  4  5  1  0
  5  7  1  0
  5  6  1  1
  7  8  2  0
  9 13  1  0
  9  7  1  0
 10  9  1  0
 11 10  1  0
 11 12  1  0
 12 13  1  0
 14 15  2  0
 13 14  1  6
 16 17  1  0
 17 18  2  0
 19 17  1  0
 19 20  1  0
 21 20  1  1
 21 22  1  0
 21 23  1  0
 22 14  1  0
 23 25  2  0
 23 24  1  0
M  END
$$$$
