MPQ.pdb
     RDKit          3D

 25 25  0  0  1  0  0  0  0  0999 V2000
   26.5872  -19.2146   -7.6191 C   0  0  0  0  0  0  0  0  0  0  0  0
   26.4747  -20.8661   -8.3102 S   0  0  0  0  0  0  0  0  0  0  0  0
   26.7041  -20.8891  -10.1037 C   0  0  0  0  0  0  0  0  0  0  0  0
   25.5038  -21.4892  -10.8051 C   0  0  0  0  0  0  0  0  0  0  0  0
   24.7604  -20.4260  -11.6022 C   0  0  2  0  0  0  0  0  0  0  0  0
   23.3910  -20.4746  -11.2619 N   0  0  0  0  0  0  0  0  0  0  0  0
   25.1124  -20.4519  -13.0224 C   0  0  0  0  0  0  0  0  0  0  0  0
   24.1117  -20.7742  -13.7642 O   0  0  0  0  0  0  0  0  0  0  0  0
   26.3727  -20.1718  -13.6056 N   0  0  0  0  0  0  0  0  0  0  0  0
   27.6578  -19.8480  -13.0611 C   0  0  0  0  0  0  0  0  0  0  0  0
   27.9668  -18.5645  -13.8103 C   0  0  0  0  0  0  0  0  0  0  0  0
   27.4737  -18.9375  -15.1930 C   0  0  0  0  0  0  0  0  0  0  0  0
   26.6044  -20.1672  -15.0343 C   0  0  1  0  0  0  0  0  0  0  0  0
   27.2763  -21.4119  -15.4886 C   0  0  0  0  0  0  0  0  0  0  0  0
   28.0363  -22.0321  -14.7098 O   0  0  0  0  0  0  0  0  0  0  0  0
   23.0603  -24.7574  -15.3306 N   0  0  0  0  0  0  0  0  0  0  0  0
   24.2908  -25.4809  -15.1251 C   0  0  0  0  0  0  0  0  0  0  0  0
   24.1782  -26.6328  -14.6810 O   0  0  0  0  0  0  0  0  0  0  0  0
   25.6152  -24.8820  -15.4272 C   0  0  0  0  0  0  0  0  0  0  0  0
   25.4003  -23.4898  -15.9278 C   0  0  0  0  0  0  0  0  0  0  0  0
   26.3165  -23.1331  -17.0761 C   0  0  2  0  0  0  0  0  0  0  0  0
   27.0949  -21.9443  -16.7903 N   0  0  0  0  0  0  0  0  0  0  0  0
   25.6303  -23.0111  -18.3662 C   0  0  0  0  0  0  0  0  0  0  0  0
   25.7252  -24.0308  -19.2895 O   0  0  0  0  0  0  0  0  0  0  0  0
   24.9544  -21.9998  -18.6584 O   0  0  0  0  0  0  0  0  0  0  0  0
  2  1  1  0
  3  2  1  0
  4  3  1  0
  4  5  1  0
  5  7  1  0
  5  6  1  6
  7  8  2  0
  9 13  1  0
  9  7  1  0
 10  9  1  0
 11 10  1  0
 11 12  1  0
 12 13  1  0
 14 15  2  0
 13 14  1  1
 16 17  1  0
 17 18  2  0
 19 17  1  0
 19 20  1  0
 21 20  1  1
 21 22  1  0
 21 23  1  0
 22 14  1  0
 23 25  2  0
 23 24  1  0
M  END
$$$$
