MPQ.pdb
     RDKit          3D

 25 25  0  0  1  0  0  0  0  0999 V2000
   23.9152  -22.4768   -8.7137 C   0  0  0  0  0  0  0  0  0  0  0  0
   24.6203  -20.8844   -8.2834 S   0  0  0  0  0  0  0  0  0  0  0  0
   26.0488  -20.4546   -9.3054 C   0  0  0  0  0  0  0  0  0  0  0  0
   25.7873  -20.7455  -10.7681 C   0  0  0  0  0  0  0  0  0  0  0  0
   25.0010  -19.6101  -11.4094 C   0  0  2  0  0  0  0  0  0  0  0  0
   23.6390  -19.7455  -11.0630 N   0  0  0  0  0  0  0  0  0  0  0  0
   25.3320  -19.4377  -12.8244 C   0  0  0  0  0  0  0  0  0  0  0  0
   24.3488  -18.9506  -13.4964 O   0  0  0  0  0  0  0  0  0  0  0  0
   26.5567  -19.7411  -13.4686 N   0  0  0  0  0  0  0  0  0  0  0  0
   27.6928  -20.5318  -13.0985 C   0  0  0  0  0  0  0  0  0  0  0  0
   28.8119  -19.5237  -13.2866 C   0  0  0  0  0  0  0  0  0  0  0  0
   28.3634  -18.8645  -14.5744 C   0  0  0  0  0  0  0  0  0  0  0  0
   26.9109  -19.2403  -14.7796 C   0  0  1  0  0  0  0  0  0  0  0  0
   26.7245  -20.2710  -15.8332 C   0  0  0  0  0  0  0  0  0  0  0  0
   27.5390  -21.2173  -15.9333 O   0  0  0  0  0  0  0  0  0  0  0  0
   23.0391  -24.3251  -14.9984 N   0  0  0  0  0  0  0  0  0  0  0  0
   22.5862  -22.9708  -14.7967 C   0  0  0  0  0  0  0  0  0  0  0  0
   21.5616  -22.8350  -14.1121 O   0  0  0  0  0  0  0  0  0  0  0  0
   23.3042  -21.8071  -15.3746 C   0  0  0  0  0  0  0  0  0  0  0  0
   24.5233  -22.3078  -16.0804 C   0  0  0  0  0  0  0  0  0  0  0  0
   24.9458  -21.4138  -17.2239 C   0  0  2  0  0  0  0  0  0  0  0  0
   25.6447  -20.2351  -16.7517 N   0  0  0  0  0  0  0  0  0  0  0  0
   23.8490  -21.0454  -18.1249 C   0  0  0  0  0  0  0  0  0  0  0  0
   23.1919  -22.0259  -18.8377 O   0  0  0  0  0  0  0  0  0  0  0  0
   23.4873  -19.8566  -18.2686 O   0  0  0  0  0  0  0  0  0  0  0  0
  2  1  1  0
  3  2  1  0
  4  3  1  0
  4  5  1  0
  5  7  1  0
  5  6  1  6
  7  8  2  0
  9 13  1  0
  9  7  1  0
 10  9  1  0
 11 10  1  0
 11 12  1  0
 12 13  1  0
 14 15  2  0
 13 14  1  6
 16 17  1  0
 17 18  2  0
 19 17  1  0
 19 20  1  0
 21 20  1  1
 21 22  1  0
 21 23  1  0
 22 14  1  0
 23 25  2  0
 23 24  1  0
M  END
$$$$
