MPQ.pdb
     RDKit          3D

 25 25  0  0  1  0  0  0  0  0999 V2000
   20.2504  -14.9221  -19.6563 C   0  0  0  0  0  0  0  0  0  0  0  0
   21.2380  -13.4916  -19.2135 S   0  0  0  0  0  0  0  0  0  0  0  0
   23.0144  -13.8237  -19.2762 C   0  0  0  0  0  0  0  0  0  0  0  0
   23.3470  -15.1631  -18.6532 C   0  0  0  0  0  0  0  0  0  0  0  0
   24.8442  -15.4310  -18.7230 C   0  0  2  0  0  0  0  0  0  0  0  0
   25.2423  -15.4482  -20.0775 N   0  0  0  0  0  0  0  0  0  0  0  0
   25.2449  -16.5574  -17.8791 C   0  0  0  0  0  0  0  0  0  0  0  0
   25.5705  -17.5911  -18.5727 O   0  0  0  0  0  0  0  0  0  0  0  0
   25.2998  -16.6006  -16.4642 N   0  0  0  0  0  0  0  0  0  0  0  0
   24.9634  -15.6589  -15.4381 C   0  0  0  0  0  0  0  0  0  0  0  0
   26.2598  -15.6257  -14.6491 C   0  0  0  0  0  0  0  0  0  0  0  0
   26.6109  -17.0991  -14.6509 C   0  0  0  0  0  0  0  0  0  0  0  0
   25.7626  -17.7533  -15.7211 C   0  0  1  0  0  0  0  0  0  0  0  0
   24.6330  -18.5396  -15.1620 C   0  0  0  0  0  0  0  0  0  0  0  0
   23.5680  -17.9633  -14.8417 O   0  0  0  0  0  0  0  0  0  0  0  0
   24.5207  -24.8835  -14.5877 N   0  0  0  0  0  0  0  0  0  0  0  0
   23.2548  -24.4905  -14.0192 C   0  0  0  0  0  0  0  0  0  0  0  0
   22.5436  -25.4085  -13.5853 O   0  0  0  0  0  0  0  0  0  0  0  0
   22.8277  -23.0701  -13.9570 C   0  0  0  0  0  0  0  0  0  0  0  0
   23.9422  -22.2191  -14.4755 C   0  0  0  0  0  0  0  0  0  0  0  0
   23.6061  -20.7452  -14.4655 C   0  0  2  0  0  0  0  0  0  0  0  0
   24.7030  -19.9428  -14.9692 N   0  0  0  0  0  0  0  0  0  0  0  0
   23.1511  -20.2497  -13.1625 C   0  0  0  0  0  0  0  0  0  0  0  0
   21.8050  -20.2509  -12.8634 O   0  0  0  0  0  0  0  0  0  0  0  0
   23.9546  -19.8213  -12.3049 O   0  0  0  0  0  0  0  0  0  0  0  0
  2  1  1  0
  3  2  1  0
  4  3  1  0
  4  5  1  0
  5  7  1  0
  5  6  1  6
  7  8  2  0
  9 13  1  0
  9  7  1  0
 10  9  1  0
 11 10  1  0
 11 12  1  0
 12 13  1  0
 14 15  2  0
 13 14  1  1
 16 17  1  0
 17 18  2  0
 19 17  1  0
 19 20  1  0
 21 20  1  1
 21 22  1  0
 21 23  1  0
 22 14  1  0
 23 25  2  0
 23 24  1  0
M  END
$$$$
