MPQ.pdb
     RDKit          3D

 25 25  0  0  1  0  0  0  0  0999 V2000
   23.7565  -10.7239  -13.8771 C   0  0  0  0  0  0  0  0  0  0  0  0
   22.5472   -9.4202  -13.6416 S   0  0  0  0  0  0  0  0  0  0  0  0
   20.8452  -10.0278  -13.7021 C   0  0  0  0  0  0  0  0  0  0  0  0
   19.8527   -8.9131  -13.4466 C   0  0  0  0  0  0  0  0  0  0  0  0
   18.4276   -9.4490  -13.4618 C   0  0  2  0  0  0  0  0  0  0  0  0
   18.2163  -10.1501  -14.6689 N   0  0  0  0  0  0  0  0  0  0  0  0
   17.4486   -8.4288  -13.0843 C   0  0  0  0  0  0  0  0  0  0  0  0
   16.7260   -8.0576  -14.0821 O   0  0  0  0  0  0  0  0  0  0  0  0
   17.2457   -7.8577  -11.8039 N   0  0  0  0  0  0  0  0  0  0  0  0
   17.8569   -8.0685  -10.5253 C   0  0  0  0  0  0  0  0  0  0  0  0
   16.6340   -8.3449   -9.6696 C   0  0  0  0  0  0  0  0  0  0  0  0
   15.6815   -7.3046  -10.2218 C   0  0  0  0  0  0  0  0  0  0  0  0
   16.2609   -6.8308  -11.5382 C   0  0  1  0  0  0  0  0  0  0  0  0
   16.8796   -5.4834  -11.4452 C   0  0  0  0  0  0  0  0  0  0  0  0
   17.7040   -5.2354  -10.5353 O   0  0  0  0  0  0  0  0  0  0  0  0
   20.9270   -4.0836  -14.6968 N   0  0  0  0  0  0  0  0  0  0  0  0
   20.7146   -2.7279  -14.2530 C   0  0  0  0  0  0  0  0  0  0  0  0
   21.5995   -1.9122  -14.5502 O   0  0  0  0  0  0  0  0  0  0  0  0
   19.5075   -2.3317  -13.4850 C   0  0  0  0  0  0  0  0  0  0  0  0
   18.6848   -3.5547  -13.2350 C   0  0  0  0  0  0  0  0  0  0  0  0
   17.3862   -3.2507  -12.5232 C   0  0  2  0  0  0  0  0  0  0  0  0
   16.5758   -4.4408  -12.3570 N   0  0  0  0  0  0  0  0  0  0  0  0
   16.6097   -2.1715  -13.1417 C   0  0  0  0  0  0  0  0  0  0  0  0
   17.0767   -0.8753  -13.0858 O   0  0  0  0  0  0  0  0  0  0  0  0
   15.5251   -2.3925  -13.7245 O   0  0  0  0  0  0  0  0  0  0  0  0
  2  1  1  0
  3  2  1  0
  4  3  1  0
  4  5  1  0
  5  7  1  0
  5  6  1  6
  7  8  2  0
  9 13  1  0
  9  7  1  0
 10  9  1  0
 11 10  1  0
 11 12  1  0
 12 13  1  0
 14 15  2  0
 13 14  1  1
 16 17  1  0
 17 18  2  0
 19 17  1  0
 19 20  1  0
 21 20  1  6
 21 22  1  0
 21 23  1  0
 22 14  1  0
 23 25  2  0
 23 24  1  0
M  END
$$$$
