HRA.pdb
     RDKit          3D

 27 27  0  0  1  0  0  0  0  0999 V2000
   25.0474  -21.4618   -9.5512 N   0  0  0  0  0  0  0  0  0  0  0  0
   25.8782  -20.4846  -10.2006 C   0  0  1  0  0  0  0  0  0  0  0  0
   27.3101  -20.5045   -9.7191 C   0  0  0  0  0  0  0  0  0  0  0  0
   27.3887  -20.1010   -8.2928 C   0  0  0  0  0  0  0  0  0  0  0  0
   26.3732  -19.7411   -7.4361 C   0  0  0  0  0  0  0  0  0  0  0  0
   26.8850  -19.4460   -6.2225 N   0  0  0  0  0  0  0  0  0  0  0  0
   28.2162  -19.6195   -6.3155 C   0  0  0  0  0  0  0  0  0  0  0  0
   28.5225  -20.0196   -7.5809 N   0  0  0  0  0  0  0  0  0  0  0  0
   25.7903  -20.6769  -11.6635 C   0  0  0  0  0  0  0  0  0  0  0  0
   26.3528  -21.6609  -12.1965 O   0  0  0  0  0  0  0  0  0  0  0  0
   20.1119  -18.9303  -15.8406 N   0  0  0  0  0  0  0  0  0  0  0  0
   20.5223  -20.2719  -16.0694 C   0  0  0  0  0  0  0  0  0  0  0  0
   20.4193  -20.7751  -17.2547 N   0  0  0  0  0  0  0  0  0  0  0  0
   21.0451  -21.0802  -15.0303 N   0  0  0  0  0  0  0  0  0  0  0  0
   21.1452  -20.6639  -13.6490 C   0  0  0  0  0  0  0  0  0  0  0  0
   22.5836  -20.5542  -13.2015 C   0  0  0  0  0  0  0  0  0  0  0  0
   23.4667  -19.9261  -14.2203 C   0  0  0  0  0  0  0  0  0  0  0  0
   24.9209  -19.9239  -13.8587 C   0  0  2  0  0  0  0  0  0  0  0  0
   25.0575  -19.7207  -12.4238 N   0  0  0  0  0  0  0  0  0  0  0  0
   25.5334  -18.7358  -14.5590 C   0  0  0  0  0  0  0  0  0  0  0  0
   25.1987  -17.5594  -14.2682 O   0  0  0  0  0  0  0  0  0  0  0  0
   20.7239  -21.7346  -17.5068 C   0  0  0  0  0  0  0  0  0  0  0  0
   28.4707  -18.1772  -16.7374 C   0  0  1  0  0  0  0  0  0  0  0  0
   27.1311  -17.7454  -16.2007 N   0  0  0  0  0  0  0  0  0  0  0  0
   26.5125  -18.9020  -15.5743 C   0  0  0  0  0  0  0  0  0  0  0  0
   26.2376  -17.2617  -17.2864 O   0  0  0  0  0  0  0  0  0  0  0  0
   26.2938  -16.0785  -17.6946 O   0  0  0  0  0  0  0  0  0  0  0  0
  2  1  1  1
  2  3  1  0
  4  3  1  0
  5  4  2  0
  6  7  1  0
  6  5  1  0
  7  8  2  0
  8  4  1  0
  9 19  1  0
  9  2  1  0
 10  9  2  0
 11 12  1  0
 12 14  1  0
 13 12  2  0
 14 15  1  0
 16 15  1  0
 18 17  1  1
 17 16  1  0
 18 19  1  0
 20 18  1  0
 21 20  2  0
 23 22  1  1
 23 25  1  0
 23 24  1  0
 24 20  1  0
 25 27  1  0
 26 25  2  0
M  END
$$$$
