HRA.pdb
     RDKit          3D

 27 27  0  0  1  0  0  0  0  0999 V2000
   15.9653  -24.3640   -5.8281 N   0  0  0  0  0  0  0  0  0  0  0  0
   15.1052  -24.9316   -4.8257 C   0  0  1  0  0  0  0  0  0  0  0  0
   15.1657  -26.4403   -4.7726 C   0  0  0  0  0  0  0  0  0  0  0  0
   14.7324  -27.0278   -6.0650 C   0  0  0  0  0  0  0  0  0  0  0  0
   15.4786  -27.7022   -7.0046 C   0  0  0  0  0  0  0  0  0  0  0  0
   14.6888  -28.0669   -8.0366 N   0  0  0  0  0  0  0  0  0  0  0  0
   13.4515  -27.6239   -7.7474 C   0  0  0  0  0  0  0  0  0  0  0  0
   13.4796  -26.9893   -6.5425 N   0  0  0  0  0  0  0  0  0  0  0  0
   15.4285  -24.3247   -3.5173 C   0  0  0  0  0  0  0  0  0  0  0  0
   16.6244  -24.1283   -3.2012 O   0  0  0  0  0  0  0  0  0  0  0  0
   10.2365  -19.8452    2.4172 N   0  0  0  0  0  0  0  0  0  0  0  0
   11.5791  -19.8954    2.8813 C   0  0  0  0  0  0  0  0  0  0  0  0
   11.8851  -19.3353    4.0045 N   0  0  0  0  0  0  0  0  0  0  0  0
   12.5997  -20.5459    2.1453 N   0  0  0  0  0  0  0  0  0  0  0  0
   12.3929  -21.1982    0.8712 C   0  0  0  0  0  0  0  0  0  0  0  0
   13.6729  -21.7939    0.3345 C   0  0  0  0  0  0  0  0  0  0  0  0
   13.4950  -22.4817   -0.9723 C   0  0  0  0  0  0  0  0  0  0  0  0
   14.6519  -23.3430   -1.3784 C   0  0  2  0  0  0  0  0  0  0  0  0
   14.3507  -23.9807   -2.6517 N   0  0  0  0  0  0  0  0  0  0  0  0
   14.7687  -24.4232   -0.3312 C   0  0  0  0  0  0  0  0  0  0  0  0
   13.9122  -25.3385   -0.2354 O   0  0  0  0  0  0  0  0  0  0  0  0
   12.8372  -19.3438    4.4172 C   0  0  0  0  0  0  0  0  0  0  0  0
   16.9729  -26.4351    1.2959 C   0  0  1  0  0  0  0  0  0  0  0  0
   15.8997  -25.4385    1.6483 N   0  0  0  0  0  0  0  0  0  0  0  0
   15.8520  -24.4467    0.5868 C   0  0  0  0  0  0  0  0  0  0  0  0
   16.1974  -24.7452    2.9297 O   0  0  0  0  0  0  0  0  0  0  0  0
   16.2292  -25.3714    4.0144 O   0  0  0  0  0  0  0  0  0  0  0  0
  2  1  1  6
  2  3  1  0
  4  3  1  0
  5  4  2  0
  6  7  1  0
  6  5  1  0
  7  8  2  0
  8  4  1  0
  9 19  1  0
  9  2  1  0
 10  9  2  0
 11 12  1  0
 12 14  1  0
 13 12  2  0
 14 15  1  0
 16 15  1  0
 18 17  1  1
 17 16  1  0
 18 19  1  0
 20 18  1  0
 21 20  2  0
 23 22  1  6
 23 25  1  0
 23 24  1  0
 24 20  1  0
 25 27  1  0
 26 25  2  0
M  END
$$$$
