HRA.pdb
     RDKit          3D

 27 27  0  0  1  0  0  0  0  0999 V2000
   26.2190  -23.1889  -16.5442 N   0  0  0  0  0  0  0  0  0  0  0  0
   26.9971  -24.3742  -16.7817 C   0  0  1  0  0  0  0  0  0  0  0  0
   26.4946  -25.1941  -17.9469 C   0  0  0  0  0  0  0  0  0  0  0  0
   25.0942  -25.6289  -17.7162 C   0  0  0  0  0  0  0  0  0  0  0  0
   23.9376  -25.1808  -18.3129 C   0  0  0  0  0  0  0  0  0  0  0  0
   22.8777  -25.8469  -17.8082 N   0  0  0  0  0  0  0  0  0  0  0  0
   23.3654  -26.7100  -16.8983 C   0  0  0  0  0  0  0  0  0  0  0  0
   24.7197  -26.5757  -16.8431 N   0  0  0  0  0  0  0  0  0  0  0  0
   28.4143  -23.9907  -16.9535 C   0  0  0  0  0  0  0  0  0  0  0  0
   28.7016  -22.8817  -17.4597 O   0  0  0  0  0  0  0  0  0  0  0  0
   35.8681  -25.9616  -12.3695 N   0  0  0  0  0  0  0  0  0  0  0  0
   36.2334  -25.6247  -13.7013 C   0  0  0  0  0  0  0  0  0  0  0  0
   37.4772  -25.6614  -14.0482 N   0  0  0  0  0  0  0  0  0  0  0  0
   35.2686  -25.2478  -14.6675 N   0  0  0  0  0  0  0  0  0  0  0  0
   33.8512  -25.5072  -14.5446 C   0  0  0  0  0  0  0  0  0  0  0  0
   33.0985  -25.0973  -15.7883 C   0  0  0  0  0  0  0  0  0  0  0  0
   31.6326  -25.3281  -15.6874 C   0  0  0  0  0  0  0  0  0  0  0  0
   30.8146  -24.5316  -16.6578 C   0  0  2  0  0  0  0  0  0  0  0  0
   29.4153  -24.9116  -16.5301 N   0  0  0  0  0  0  0  0  0  0  0  0
   31.2821  -24.9279  -18.0368 C   0  0  0  0  0  0  0  0  0  0  0  0
   30.8055  -25.9301  -18.6276 O   0  0  0  0  0  0  0  0  0  0  0  0
   37.8172  -25.4765  -15.0111 C   0  0  0  0  0  0  0  0  0  0  0  0
   31.1930  -24.5667  -20.8144 C   0  0  2  0  0  0  0  0  0  0  0  0
   32.5277  -24.4044  -20.1352 N   0  0  0  0  0  0  0  0  0  0  0  0
   32.2794  -24.1828  -18.7202 C   0  0  0  0  0  0  0  0  0  0  0  0
   33.2756  -23.2367  -20.6721 O   0  0  0  0  0  0  0  0  0  0  0  0
   33.5593  -22.2571  -19.9442 O   0  0  0  0  0  0  0  0  0  0  0  0
  2  1  1  6
  2  3  1  0
  4  3  1  0
  5  4  2  0
  6  7  1  0
  6  5  1  0
  7  8  2  0
  8  4  1  0
  9 19  1  0
  9  2  1  0
 10  9  2  0
 11 12  1  0
 12 14  1  0
 13 12  2  0
 14 15  1  0
 16 15  1  0
 18 17  1  1
 17 16  1  0
 18 19  1  0
 20 18  1  0
 21 20  2  0
 23 22  1  1
 23 25  1  0
 23 24  1  0
 24 20  1  0
 25 27  1  0
 26 25  2  0
M  END
$$$$
