HRA.pdb
     RDKit          3D

 27 27  0  0  1  0  0  0  0  0999 V2000
   27.7758  -22.9961  -11.9164 N   0  0  0  0  0  0  0  0  0  0  0  0
   27.4459  -21.6134  -11.7016 C   0  0  1  0  0  0  0  0  0  0  0  0
   28.6188  -20.6824  -11.9015 C   0  0  0  0  0  0  0  0  0  0  0  0
   29.7114  -21.0044  -10.9499 C   0  0  0  0  0  0  0  0  0  0  0  0
   29.8219  -22.0690  -10.0843 C   0  0  0  0  0  0  0  0  0  0  0  0
   30.9798  -21.9781   -9.3967 N   0  0  0  0  0  0  0  0  0  0  0  0
   31.5949  -20.8616   -9.8279 C   0  0  0  0  0  0  0  0  0  0  0  0
   30.8188  -20.2678  -10.7768 N   0  0  0  0  0  0  0  0  0  0  0  0
   26.3062  -21.2520  -12.5706 C   0  0  0  0  0  0  0  0  0  0  0  0
   26.4049  -21.3824  -13.8123 O   0  0  0  0  0  0  0  0  0  0  0  0
   18.4341  -18.3974  -11.6186 N   0  0  0  0  0  0  0  0  0  0  0  0
   18.1216  -19.6598  -12.1926 C   0  0  0  0  0  0  0  0  0  0  0  0
   17.0476  -19.7888  -12.8988 N   0  0  0  0  0  0  0  0  0  0  0  0
   18.9578  -20.7890  -12.0134 N   0  0  0  0  0  0  0  0  0  0  0  0
   20.2482  -20.7494  -11.3619 C   0  0  0  0  0  0  0  0  0  0  0  0
   21.3799  -20.8349  -12.3584 C   0  0  0  0  0  0  0  0  0  0  0  0
   22.7235  -20.8153  -11.7206 C   0  0  0  0  0  0  0  0  0  0  0  0
   23.8664  -20.8335  -12.6895 C   0  0  2  0  0  0  0  0  0  0  0  0
   25.1200  -20.7611  -11.9531 N   0  0  0  0  0  0  0  0  0  0  0  0
   23.7408  -19.5810  -13.5219 C   0  0  0  0  0  0  0  0  0  0  0  0
   23.6410  -18.4470  -12.9886 O   0  0  0  0  0  0  0  0  0  0  0  0
   16.7302  -20.6852  -13.3146 C   0  0  0  0  0  0  0  0  0  0  0  0
   24.5783  -18.4525  -16.8366 C   0  0  1  0  0  0  0  0  0  0  0  0
   23.5605  -18.4251  -15.7264 N   0  0  0  0  0  0  0  0  0  0  0  0
   23.7307  -19.6363  -14.9409 C   0  0  0  0  0  0  0  0  0  0  0  0
   22.1722  -18.3984  -16.2584 O   0  0  0  0  0  0  0  0  0  0  0  0
   21.4105  -19.3855  -16.1348 O   0  0  0  0  0  0  0  0  0  0  0  0
  2  1  1  6
  2  3  1  0
  4  3  1  0
  5  4  2  0
  6  7  1  0
  6  5  1  0
  7  8  2  0
  8  4  1  0
  9 19  1  0
  9  2  1  0
 10  9  2  0
 11 12  1  0
 12 14  1  0
 13 12  2  0
 14 15  1  0
 16 15  1  0
 18 17  1  1
 17 16  1  0
 18 19  1  0
 20 18  1  0
 21 20  2  0
 23 22  1  1
 23 25  1  0
 23 24  1  0
 24 20  1  0
 25 27  1  0
 26 25  2  0
M  END
$$$$
