HRA.pdb
     RDKit          3D

 27 27  0  0  1  0  0  0  0  0999 V2000
   21.5277  -10.6725  -15.7085 N   0  0  0  0  0  0  0  0  0  0  0  0
   21.7952   -9.4363  -15.0252 C   0  0  1  0  0  0  0  0  0  0  0  0
   23.0096   -8.7116  -15.5566 C   0  0  0  0  0  0  0  0  0  0  0  0
   24.2225   -9.5577  -15.4278 C   0  0  0  0  0  0  0  0  0  0  0  0
   24.7472  -10.1561  -14.3047 C   0  0  0  0  0  0  0  0  0  0  0  0
   25.8651  -10.8375  -14.6325 N   0  0  0  0  0  0  0  0  0  0  0  0
   26.0428  -10.6687  -15.9556 C   0  0  0  0  0  0  0  0  0  0  0  0
   25.0385   -9.8865  -16.4402 N   0  0  0  0  0  0  0  0  0  0  0  0
   20.5857   -8.5882  -15.0776 C   0  0  0  0  0  0  0  0  0  0  0  0
   19.9346   -8.4985  -16.1438 O   0  0  0  0  0  0  0  0  0  0  0  0
   15.5814   -7.8539   -8.0969 N   0  0  0  0  0  0  0  0  0  0  0  0
   15.1407   -8.6182   -9.2114 C   0  0  0  0  0  0  0  0  0  0  0  0
   14.1498   -9.4350   -9.0705 N   0  0  0  0  0  0  0  0  0  0  0  0
   15.7585   -8.5110  -10.4815 N   0  0  0  0  0  0  0  0  0  0  0  0
   16.8702   -7.6331  -10.7729 C   0  0  0  0  0  0  0  0  0  0  0  0
   17.3220   -7.7615  -12.2084 C   0  0  0  0  0  0  0  0  0  0  0  0
   18.4831   -6.8916  -12.5361 C   0  0  0  0  0  0  0  0  0  0  0  0
   19.0069   -7.0613  -13.9297 C   0  0  2  0  0  0  0  0  0  0  0  0
   20.2003   -7.8941  -13.8949 N   0  0  0  0  0  0  0  0  0  0  0  0
   19.4102   -5.6870  -14.4048 C   0  0  0  0  0  0  0  0  0  0  0  0
   20.3020   -5.0253  -13.8154 O   0  0  0  0  0  0  0  0  0  0  0  0
   13.7271   -9.9750   -9.8494 C   0  0  0  0  0  0  0  0  0  0  0  0
   18.6364   -3.5878  -17.3907 C   0  0  1  0  0  0  0  0  0  0  0  0
   19.2621   -3.8056  -16.0379 N   0  0  0  0  0  0  0  0  0  0  0  0
   18.7968   -5.0884  -15.5372 C   0  0  0  0  0  0  0  0  0  0  0  0
   18.8598   -2.7479  -15.0732 O   0  0  0  0  0  0  0  0  0  0  0  0
   17.9344   -2.9379  -14.2501 O   0  0  0  0  0  0  0  0  0  0  0  0
  2  1  1  6
  2  3  1  0
  4  3  1  0
  5  4  2  0
  6  7  1  0
  6  5  1  0
  7  8  2  0
  8  4  1  0
  9 19  1  0
  9  2  1  0
 10  9  2  0
 11 12  1  0
 12 14  1  0
 13 12  2  0
 14 15  1  0
 16 15  1  0
 18 17  1  1
 17 16  1  0
 18 19  1  0
 20 18  1  0
 21 20  2  0
 23 22  1  6
 23 25  1  0
 23 24  1  0
 24 20  1  0
 25 27  1  0
 26 25  2  0
M  END
$$$$
