HRA.pdb
     RDKit          3D

 27 27  0  0  1  0  0  0  0  0999 V2000
   18.9337   -9.9903  -15.6616 N   0  0  0  0  0  0  0  0  0  0  0  0
   19.0073   -8.8561  -14.7812 C   0  0  1  0  0  0  0  0  0  0  0  0
   20.2893   -8.0701  -14.9270 C   0  0  0  0  0  0  0  0  0  0  0  0
   21.4638   -8.9192  -14.6062 C   0  0  0  0  0  0  0  0  0  0  0  0
   22.4641   -9.3664  -15.4393 C   0  0  0  0  0  0  0  0  0  0  0  0
   23.3397  -10.1161  -14.7372 N   0  0  0  0  0  0  0  0  0  0  0  0
   22.8923  -10.1403  -13.4684 C   0  0  0  0  0  0  0  0  0  0  0  0
   21.7461   -9.4087  -13.3898 N   0  0  0  0  0  0  0  0  0  0  0  0
   17.8171   -8.0059  -14.9944 C   0  0  0  0  0  0  0  0  0  0  0  0
   17.4207   -7.7715  -16.1592 O   0  0  0  0  0  0  0  0  0  0  0  0
   11.4238   -8.8931   -9.4130 N   0  0  0  0  0  0  0  0  0  0  0  0
   11.6248   -9.6925  -10.5711 C   0  0  0  0  0  0  0  0  0  0  0  0
   10.8583  -10.7108  -10.7818 N   0  0  0  0  0  0  0  0  0  0  0  0
   12.6468   -9.4047  -11.5087 N   0  0  0  0  0  0  0  0  0  0  0  0
   13.3928   -8.1663  -11.5432 C   0  0  0  0  0  0  0  0  0  0  0  0
   14.2929   -8.0899  -12.7536 C   0  0  0  0  0  0  0  0  0  0  0  0
   15.0770   -6.8277  -12.8206 C   0  0  0  0  0  0  0  0  0  0  0  0
   15.9389   -6.7011  -14.0398 C   0  0  2  0  0  0  0  0  0  0  0  0
   17.1556   -7.4771  -13.8490 N   0  0  0  0  0  0  0  0  0  0  0  0
   16.3244   -5.2457  -14.1412 C   0  0  0  0  0  0  0  0  0  0  0  0
   17.1811   -4.7395  -13.3729 O   0  0  0  0  0  0  0  0  0  0  0  0
   10.9783  -11.3745  -11.5706 C   0  0  0  0  0  0  0  0  0  0  0  0
   15.5217   -2.4304  -16.4594 C   0  0  1  0  0  0  0  0  0  0  0  0
   16.1216   -2.9938  -15.1977 N   0  0  0  0  0  0  0  0  0  0  0  0
   15.7332   -4.3917  -15.1097 C   0  0  0  0  0  0  0  0  0  0  0  0
   15.6183   -2.2866  -13.9903 O   0  0  0  0  0  0  0  0  0  0  0  0
   14.6734   -2.7524  -13.3120 O   0  0  0  0  0  0  0  0  0  0  0  0
  2  1  1  6
  2  3  1  0
  4  3  1  0
  5  4  2  0
  6  7  1  0
  6  5  1  0
  7  8  2  0
  8  4  1  0
  9 19  1  0
  9  2  1  0
 10  9  2  0
 11 12  1  0
 12 14  1  0
 13 12  2  0
 14 15  1  0
 16 15  1  0
 18 17  1  1
 17 16  1  0
 18 19  1  0
 20 18  1  0
 21 20  2  0
 23 22  1  6
 23 25  1  0
 23 24  1  0
 24 20  1  0
 25 27  1  0
 26 25  2  0
M  END
$$$$
