HRA.pdb
     RDKit          3D

 27 27  0  0  1  0  0  0  0  0999 V2000
   21.1558  -20.5060  -14.0944 N   0  0  0  0  0  0  0  0  0  0  0  0
   21.2464  -19.3051  -14.8795 C   0  0  1  0  0  0  0  0  0  0  0  0
   20.0192  -18.4300  -14.7748 C   0  0  0  0  0  0  0  0  0  0  0  0
   18.8233  -19.1410  -15.2921 C   0  0  0  0  0  0  0  0  0  0  0  0
   17.7005  -19.5569  -14.6131 C   0  0  0  0  0  0  0  0  0  0  0  0
   16.8523  -20.1674  -15.4672 N   0  0  0  0  0  0  0  0  0  0  0  0
   17.4388  -20.1355  -16.6779 C   0  0  0  0  0  0  0  0  0  0  0  0
   18.6429  -19.5082  -16.5694 N   0  0  0  0  0  0  0  0  0  0  0  0
   22.4734  -18.5745  -14.4979 C   0  0  0  0  0  0  0  0  0  0  0  0
   22.7469  -18.4078  -13.2871 O   0  0  0  0  0  0  0  0  0  0  0  0
   28.9396  -22.2053  -17.0995 N   0  0  0  0  0  0  0  0  0  0  0  0
   27.8040  -22.6299  -16.3575 C   0  0  0  0  0  0  0  0  0  0  0  0
   27.6887  -23.8735  -16.0273 N   0  0  0  0  0  0  0  0  0  0  0  0
   26.7873  -21.7249  -15.9654 N   0  0  0  0  0  0  0  0  0  0  0  0
   26.8142  -20.3048  -16.2377 C   0  0  0  0  0  0  0  0  0  0  0  0
   25.6571  -19.5885  -15.5825 C   0  0  0  0  0  0  0  0  0  0  0  0
   25.7097  -18.1121  -15.7555 C   0  0  0  0  0  0  0  0  0  0  0  0
   24.5364  -17.3812  -15.1773 C   0  0  2  0  0  0  0  0  0  0  0  0
   23.3115  -18.0799  -15.5382 N   0  0  0  0  0  0  0  0  0  0  0  0
   24.5114  -16.0240  -15.8366 C   0  0  0  0  0  0  0  0  0  0  0  0
   24.1025  -15.8758  -17.0161 O   0  0  0  0  0  0  0  0  0  0  0  0
   26.8557  -24.2742  -15.5555 C   0  0  0  0  0  0  0  0  0  0  0  0
   25.6969  -13.6056  -17.0398 C   0  0  1  0  0  0  0  0  0  0  0  0
   24.8713  -13.5550  -15.7809 N   0  0  0  0  0  0  0  0  0  0  0  0
   24.9494  -14.8615  -15.1485 C   0  0  0  0  0  0  0  0  0  0  0  0
   23.4444  -13.2570  -16.0748 O   0  0  0  0  0  0  0  0  0  0  0  0
   22.5485  -14.1096  -15.8741 O   0  0  0  0  0  0  0  0  0  0  0  0
  2  1  1  1
  2  3  1  0
  4  3  1  0
  5  4  2  0
  6  7  1  0
  6  5  1  0
  7  8  2  0
  8  4  1  0
  9 19  1  0
  9  2  1  0
 10  9  2  0
 11 12  1  0
 12 14  1  0
 13 12  2  0
 14 15  1  0
 16 15  1  0
 18 17  1  6
 17 16  1  0
 18 19  1  0
 20 18  1  0
 21 20  2  0
 23 22  1  1
 23 25  1  0
 23 24  1  0
 24 20  1  0
 25 27  1  0
 26 25  2  0
M  END
$$$$
