CRS.pdb
     RDKit          3D

 24 23  0  0  1  0  0  0  0  0999 V2000
   18.8302  -22.1428  -12.2393 N   0  0  0  0  0  0  0  0  0  0  0  0
   19.0800  -22.4138  -13.6751 C   0  0  1  0  0  0  0  0  0  0  0  0
   17.8480  -22.0933  -14.4492 C   0  0  0  0  0  0  0  0  0  0  0  0
   16.9521  -23.5980  -14.8571 S   0  0  0  0  0  0  0  0  0  0  0  0
   20.2987  -21.6830  -14.0812 C   0  0  0  0  0  0  0  0  0  0  0  0
   20.2975  -20.3926  -14.0183 O   0  0  0  0  0  0  0  0  0  0  0  0
   26.0462  -25.1710  -15.4907 N   0  0  0  0  0  0  0  0  0  0  0  0
   26.6033  -24.2776  -16.4394 C   0  0  0  0  0  0  0  0  0  0  0  0
   27.0008  -24.6698  -17.6007 N   0  0  0  0  0  0  0  0  0  0  0  0
   26.7525  -22.8728  -16.1454 N   0  0  0  0  0  0  0  0  0  0  0  0
   26.3279  -22.3275  -14.8887 C   0  0  0  0  0  0  0  0  0  0  0  0
   25.1418  -21.3915  -15.1377 C   0  0  0  0  0  0  0  0  0  0  0  0
   23.9285  -22.1342  -14.7086 C   0  0  0  0  0  0  0  0  0  0  0  0
   22.6406  -21.3791  -14.9533 C   0  0  2  0  0  0  0  0  0  0  0  0
   21.5092  -22.2361  -14.5415 N   0  0  0  0  0  0  0  0  0  0  0  0
   22.5590  -20.9673  -16.3448 C   0  0  0  0  0  0  0  0  0  0  0  0
   22.1926  -21.7654  -17.2277 O   0  0  0  0  0  0  0  0  0  0  0  0
   27.4751  -24.0287  -18.2646 O   0  0  0  0  0  0  0  0  0  0  0  0
   21.6495  -17.2020  -17.4628 C   0  0  0  0  0  0  0  0  0  0  0  0
   22.6369  -17.7639  -18.2857 C   0  0  2  0  0  0  0  0  0  0  0  0
   22.7374  -19.2477  -18.1090 N   0  0  0  0  0  0  0  0  0  0  0  0
   22.8901  -19.6580  -16.7374 C   0  0  0  0  0  0  0  0  0  0  0  0
   23.9049  -19.7166  -18.9015 O   0  0  0  0  0  0  0  0  0  0  0  0
   24.8856  -20.2795  -18.3505 O   0  0  0  0  0  0  0  0  0  0  0  0
  2  5  1  0
  2  1  1  1
  3  2  1  0
  4  3  1  0
  5  6  2  0
  7  8  1  0
  8  9  2  0
  8 10  1  0
 10 11  1  0
 11 12  1  0
 12 13  1  0
 14 13  1  6
 15 14  1  0
 15  5  1  0
 16 17  2  0
 16 14  1  0
 18 19  1  0
 20 19  1  1
 20 22  1  0
 20 21  1  0
 21 16  1  0
 22 24  1  0
 23 22  2  0
M  END
$$$$
