CRS.pdb
     RDKit          3D

 24 23  0  0  1  0  0  0  0  0999 V2000
   28.6209  -21.8393   -9.1645 N   0  0  0  0  0  0  0  0  0  0  0  0
   27.4086  -20.9862   -9.1486 C   0  0  1  0  0  0  0  0  0  0  0  0
   27.8071  -19.5855   -8.8339 C   0  0  0  0  0  0  0  0  0  0  0  0
   26.6498  -18.8483   -7.6719 S   0  0  0  0  0  0  0  0  0  0  0  0
   26.6902  -21.1750  -10.4263 C   0  0  0  0  0  0  0  0  0  0  0  0
   27.3189  -21.7161  -11.4168 O   0  0  0  0  0  0  0  0  0  0  0  0
   20.0110  -21.2870  -10.6171 N   0  0  0  0  0  0  0  0  0  0  0  0
   19.6988  -21.8914  -11.8604 C   0  0  0  0  0  0  0  0  0  0  0  0
   18.8714  -22.8747  -11.9571 N   0  0  0  0  0  0  0  0  0  0  0  0
   20.2992  -21.4285  -13.0881 N   0  0  0  0  0  0  0  0  0  0  0  0
   21.1874  -20.3026  -13.1026 C   0  0  0  0  0  0  0  0  0  0  0  0
   22.6168  -20.8102  -13.3129 C   0  0  0  0  0  0  0  0  0  0  0  0
   23.3190  -20.6252  -12.0166 C   0  0  0  0  0  0  0  0  0  0  0  0
   24.7665  -21.0642  -12.0463 C   0  0  2  0  0  0  0  0  0  0  0  0
   25.3546  -20.8310  -10.7108 N   0  0  0  0  0  0  0  0  0  0  0  0
   25.4784  -20.3687  -13.1055 C   0  0  0  0  0  0  0  0  0  0  0  0
   25.6857  -19.1426  -13.0388 O   0  0  0  0  0  0  0  0  0  0  0  0
   18.5807  -23.2597  -12.8758 O   0  0  0  0  0  0  0  0  0  0  0  0
   28.1903  -20.5121  -17.1231 C   0  0  0  0  0  0  0  0  0  0  0  0
   27.4854  -21.2395  -16.1526 C   0  0  2  0  0  0  0  0  0  0  0  0
   26.6587  -20.3507  -15.2753 N   0  0  0  0  0  0  0  0  0  0  0  0
   25.9547  -21.0562  -14.2362 C   0  0  0  0  0  0  0  0  0  0  0  0
   25.6826  -19.6426  -16.1452 O   0  0  0  0  0  0  0  0  0  0  0  0
   24.5918  -20.1763  -16.4734 O   0  0  0  0  0  0  0  0  0  0  0  0
  2  5  1  0
  2  1  1  6
  3  2  1  0
  4  3  1  0
  5  6  2  0
  7  8  1  0
  8  9  2  0
  8 10  1  0
 10 11  1  0
 11 12  1  0
 12 13  1  0
 14 13  1  1
 15 14  1  0
 15  5  1  0
 16 17  2  0
 16 14  1  0
 18 19  1  0
 20 19  1  1
 20 22  1  0
 20 21  1  0
 21 16  1  0
 22 24  1  0
 23 22  2  0
M  END
$$$$
