CRS.pdb
     RDKit          3D

 24 23  0  0  1  0  0  0  0  0999 V2000
   15.9807  -10.6196  -11.1979 N   0  0  0  0  0  0  0  0  0  0  0  0
   15.9520   -9.6253  -12.2970 C   0  0  1  0  0  0  0  0  0  0  0  0
   15.2206   -8.4129  -11.8333 C   0  0  0  0  0  0  0  0  0  0  0  0
   13.4778   -8.7837  -11.5916 S   0  0  0  0  0  0  0  0  0  0  0  0
   17.3385   -9.3993  -12.7560 C   0  0  0  0  0  0  0  0  0  0  0  0
   18.2709   -9.2694  -11.8712 O   0  0  0  0  0  0  0  0  0  0  0  0
   21.9702  -11.7160  -19.8201 N   0  0  0  0  0  0  0  0  0  0  0  0
   21.5776  -12.2919  -18.5861 C   0  0  0  0  0  0  0  0  0  0  0  0
   21.4789  -13.5665  -18.4239 N   0  0  0  0  0  0  0  0  0  0  0  0
   21.2672  -11.4687  -17.4424 N   0  0  0  0  0  0  0  0  0  0  0  0
   21.0449  -10.0586  -17.5801 C   0  0  0  0  0  0  0  0  0  0  0  0
   20.9299   -9.4430  -16.1827 C   0  0  0  0  0  0  0  0  0  0  0  0
   19.5252   -9.6570  -15.7482 C   0  0  0  0  0  0  0  0  0  0  0  0
   19.2097   -9.0430  -14.4019 C   0  0  2  0  0  0  0  0  0  0  0  0
   17.7905   -9.3085  -14.0866 N   0  0  0  0  0  0  0  0  0  0  0  0
   19.5300   -7.6254  -14.4114 C   0  0  0  0  0  0  0  0  0  0  0  0
   18.7032   -6.7855  -14.8136 O   0  0  0  0  0  0  0  0  0  0  0  0
   21.1642  -13.9836  -17.5274 O   0  0  0  0  0  0  0  0  0  0  0  0
   22.4006   -3.9897  -12.9944 C   0  0  0  0  0  0  0  0  0  0  0  0
   22.2323   -5.3793  -13.0866 C   0  0  2  0  0  0  0  0  0  0  0  0
   21.0680   -5.7475  -13.9538 N   0  0  0  0  0  0  0  0  0  0  0  0
   20.7800   -7.1582  -13.9675 C   0  0  0  0  0  0  0  0  0  0  0  0
   21.3734   -5.2887  -15.3349 O   0  0  0  0  0  0  0  0  0  0  0  0
   22.0283   -6.0074  -16.1329 O   0  0  0  0  0  0  0  0  0  0  0  0
  2  5  1  0
  2  1  1  1
  3  2  1  0
  4  3  1  0
  5  6  2  0
  7  8  1  0
  8  9  2  0
  8 10  1  0
 10 11  1  0
 11 12  1  0
 12 13  1  0
 14 13  1  6
 15 14  1  0
 15  5  1  0
 16 17  2  0
 16 14  1  0
 18 19  1  0
 20 19  1  1
 20 22  1  0
 20 21  1  0
 21 16  1  0
 22 24  1  0
 23 22  2  0
M  END
$$$$
