CRS.pdb
     RDKit          3D

 24 23  0  0  1  0  0  0  0  0999 V2000
   28.5277  -21.4013  -17.1173 N   0  0  0  0  0  0  0  0  0  0  0  0
   27.9715  -20.2955  -16.3016 C   0  0  1  0  0  0  0  0  0  0  0  0
   27.5046  -19.2114  -17.2107 C   0  0  0  0  0  0  0  0  0  0  0  0
   28.9067  -18.3280  -17.9084 S   0  0  0  0  0  0  0  0  0  0  0  0
   26.9472  -20.8556  -15.3953 C   0  0  0  0  0  0  0  0  0  0  0  0
   26.1590  -21.7756  -15.8441 O   0  0  0  0  0  0  0  0  0  0  0  0
   22.1702  -19.7105   -9.4743 N   0  0  0  0  0  0  0  0  0  0  0  0
   22.5974  -20.7580   -8.6205 C   0  0  0  0  0  0  0  0  0  0  0  0
   21.8106  -21.3055   -7.7592 N   0  0  0  0  0  0  0  0  0  0  0  0
   23.9471  -21.2649   -8.6771 N   0  0  0  0  0  0  0  0  0  0  0  0
   24.9168  -20.6984   -9.5691 C   0  0  0  0  0  0  0  0  0  0  0  0
   24.5921  -21.1510  -10.9956 C   0  0  0  0  0  0  0  0  0  0  0  0
   25.7072  -20.6664  -11.8498 C   0  0  0  0  0  0  0  0  0  0  0  0
   25.5417  -21.0142  -13.3128 C   0  0  2  0  0  0  0  0  0  0  0  0
   26.7154  -20.5036  -14.0517 N   0  0  0  0  0  0  0  0  0  0  0  0
   24.2849  -20.4835  -13.8140 C   0  0  0  0  0  0  0  0  0  0  0  0
   24.1115  -19.2563  -13.9346 O   0  0  0  0  0  0  0  0  0  0  0  0
   22.1342  -22.0538   -7.1172 O   0  0  0  0  0  0  0  0  0  0  0  0
   20.5238  -20.7897  -16.6312 C   0  0  0  0  0  0  0  0  0  0  0  0
   21.6874  -21.3611  -16.0953 C   0  0  2  0  0  0  0  0  0  0  0  0
   22.0199  -20.7984  -14.7477 N   0  0  0  0  0  0  0  0  0  0  0  0
   23.2277  -21.3366  -14.1779 C   0  0  0  0  0  0  0  0  0  0  0  0
   20.8733  -21.0854  -13.8455 O   0  0  0  0  0  0  0  0  0  0  0  0
   20.9308  -22.0026  -12.9866 O   0  0  0  0  0  0  0  0  0  0  0  0
  2  5  1  0
  2  1  1  6
  3  2  1  0
  4  3  1  0
  5  6  2  0
  7  8  1  0
  8  9  2  0
  8 10  1  0
 10 11  1  0
 11 12  1  0
 12 13  1  0
 14 13  1  1
 15 14  1  0
 15  5  1  0
 16 17  2  0
 16 14  1  0
 18 19  1  0
 20 19  1  6
 20 22  1  0
 20 21  1  0
 21 16  1  0
 22 24  1  0
 23 22  2  0
M  END
$$$$
