CRS.pdb
     RDKit          3D

 24 23  0  0  1  0  0  0  0  0999 V2000
   17.7828  -20.7672  -14.3002 N   0  0  0  0  0  0  0  0  0  0  0  0
   18.3343  -20.4256  -15.6332 C   0  0  1  0  0  0  0  0  0  0  0  0
   17.2453  -19.8563  -16.4756 C   0  0  0  0  0  0  0  0  0  0  0  0
   16.1991  -21.1680  -17.1222 S   0  0  0  0  0  0  0  0  0  0  0  0
   19.5139  -19.5565  -15.4398 C   0  0  0  0  0  0  0  0  0  0  0  0
   19.4104  -18.5372  -14.6528 O   0  0  0  0  0  0  0  0  0  0  0  0
   26.4060  -22.0682  -12.5069 N   0  0  0  0  0  0  0  0  0  0  0  0
   25.2269  -22.2437  -13.2734 C   0  0  0  0  0  0  0  0  0  0  0  0
   24.7553  -23.4107  -13.5500 N   0  0  0  0  0  0  0  0  0  0  0  0
   24.4923  -21.1118  -13.7844 N   0  0  0  0  0  0  0  0  0  0  0  0
   24.9518  -19.7701  -13.5711 C   0  0  0  0  0  0  0  0  0  0  0  0
   24.0709  -18.8167  -14.3837 C   0  0  0  0  0  0  0  0  0  0  0  0
   22.8992  -19.6130  -14.8317 C   0  0  0  0  0  0  0  0  0  0  0  0
   21.9112  -18.8199  -15.6586 C   0  0  2  0  0  0  0  0  0  0  0  0
   20.7867  -19.7068  -16.0233 N   0  0  0  0  0  0  0  0  0  0  0  0
   22.5755  -18.2458  -16.8168 C   0  0  0  0  0  0  0  0  0  0  0  0
   22.9058  -18.9584  -17.7832 O   0  0  0  0  0  0  0  0  0  0  0  0
   23.8884  -23.5352  -14.1066 O   0  0  0  0  0  0  0  0  0  0  0  0
   22.1987  -14.2430  -18.0791 C   0  0  0  0  0  0  0  0  0  0  0  0
   23.4831  -14.8069  -18.0689 C   0  0  2  0  0  0  0  0  0  0  0  0
   23.4391  -16.3039  -18.0756 N   0  0  0  0  0  0  0  0  0  0  0  0
   22.8654  -16.8713  -16.8830 C   0  0  0  0  0  0  0  0  0  0  0  0
   24.8335  -16.7938  -18.2385 O   0  0  0  0  0  0  0  0  0  0  0  0
   25.4198  -17.4164  -17.3161 O   0  0  0  0  0  0  0  0  0  0  0  0
  2  5  1  0
  2  1  1  1
  3  2  1  0
  4  3  1  0
  5  6  2  0
  7  8  1  0
  8  9  2  0
  8 10  1  0
 10 11  1  0
 11 12  1  0
 12 13  1  0
 14 13  1  6
 15 14  1  0
 15  5  1  0
 16 17  2  0
 16 14  1  0
 18 19  1  0
 20 19  1  6
 20 22  1  0
 20 21  1  0
 21 16  1  0
 22 24  1  0
 23 22  2  0
M  END
$$$$
