CRS.pdb
     RDKit          3D

 24 23  0  0  1  0  0  0  0  0999 V2000
   20.7525  -10.9169  -14.9232 N   0  0  0  0  0  0  0  0  0  0  0  0
   21.1585   -9.8436  -13.9848 C   0  0  1  0  0  0  0  0  0  0  0  0
   22.4257   -9.2295  -14.4714 C   0  0  0  0  0  0  0  0  0  0  0  0
   23.8144  -10.3318  -14.1719 S   0  0  0  0  0  0  0  0  0  0  0  0
   20.0204   -8.9154  -13.8192 C   0  0  0  0  0  0  0  0  0  0  0  0
   19.2577   -8.6825  -14.8356 O   0  0  0  0  0  0  0  0  0  0  0  0
   14.9482   -7.0315   -7.1263 N   0  0  0  0  0  0  0  0  0  0  0  0
   14.6487   -7.7696   -8.2985 C   0  0  0  0  0  0  0  0  0  0  0  0
   13.8236   -8.7595   -8.2942 N   0  0  0  0  0  0  0  0  0  0  0  0
   15.2601   -7.4431   -9.5640 N   0  0  0  0  0  0  0  0  0  0  0  0
   16.2903   -6.4496   -9.6572 C   0  0  0  0  0  0  0  0  0  0  0  0
   16.7463   -6.3536  -11.1159 C   0  0  0  0  0  0  0  0  0  0  0  0
   17.9088   -7.2693  -11.2495 C   0  0  0  0  0  0  0  0  0  0  0  0
   18.5073   -7.2861  -12.6388 C   0  0  2  0  0  0  0  0  0  0  0  0
   19.6446   -8.2297  -12.6480 N   0  0  0  0  0  0  0  0  0  0  0  0
   18.8874   -5.9406  -13.0359 C   0  0  0  0  0  0  0  0  0  0  0  0
   19.8964   -5.3924  -12.5539 O   0  0  0  0  0  0  0  0  0  0  0  0
   13.5524   -9.2526   -9.1661 O   0  0  0  0  0  0  0  0  0  0  0  0
   18.3703   -4.5393  -16.6983 C   0  0  0  0  0  0  0  0  0  0  0  0
   19.1539   -3.8610  -15.7530 C   0  0  1  0  0  0  0  0  0  0  0  0
   18.5440   -3.9006  -14.3857 N   0  0  0  0  0  0  0  0  0  0  0  0
   18.1303   -5.2171  -13.9746 C   0  0  0  0  0  0  0  0  0  0  0  0
   17.3693   -2.9890  -14.3910 O   0  0  0  0  0  0  0  0  0  0  0  0
   16.2019   -3.4258  -14.2212 O   0  0  0  0  0  0  0  0  0  0  0  0
  2  5  1  0
  2  1  1  6
  3  2  1  0
  4  3  1  0
  5  6  2  0
  7  8  1  0
  8  9  2  0
  8 10  1  0
 10 11  1  0
 11 12  1  0
 12 13  1  0
 14 13  1  1
 15 14  1  0
 15  5  1  0
 16 17  2  0
 16 14  1  0
 18 19  1  0
 20 19  1  1
 20 22  1  0
 20 21  1  0
 21 16  1  0
 22 24  1  0
 23 22  2  0
M  END
$$$$
