CRS.pdb
     RDKit          3D

 24 23  0  0  1  0  0  0  0  0999 V2000
   25.8367  -19.7787   -8.4325 N   0  0  0  0  0  0  0  0  0  0  0  0
   25.0879  -20.7886   -9.2180 C   0  0  1  0  0  0  0  0  0  0  0  0
   23.6624  -20.7783   -8.7850 C   0  0  0  0  0  0  0  0  0  0  0  0
   23.5053  -21.4445   -7.1223 S   0  0  0  0  0  0  0  0  0  0  0  0
   25.3221  -20.5281  -10.6539 C   0  0  0  0  0  0  0  0  0  0  0  0
   25.2024  -19.3186  -11.0919 O   0  0  0  0  0  0  0  0  0  0  0  0
   26.3573  -25.0195  -16.4479 N   0  0  0  0  0  0  0  0  0  0  0  0
   26.6623  -24.0910  -17.4743 C   0  0  0  0  0  0  0  0  0  0  0  0
   26.2734  -24.2606  -18.6911 N   0  0  0  0  0  0  0  0  0  0  0  0
   27.4301  -22.9003  -17.2010 N   0  0  0  0  0  0  0  0  0  0  0  0
   27.7825  -22.5349  -15.8597 C   0  0  0  0  0  0  0  0  0  0  0  0
   26.6662  -21.6600  -15.2821 C   0  0  0  0  0  0  0  0  0  0  0  0
   26.6287  -21.9424  -13.8238 C   0  0  0  0  0  0  0  0  0  0  0  0
   25.5803  -21.1435  -13.0812 C   0  0  2  0  0  0  0  0  0  0  0  0
   25.6771  -21.4662  -11.6423 N   0  0  0  0  0  0  0  0  0  0  0  0
   24.2627  -21.4130  -13.6324 C   0  0  0  0  0  0  0  0  0  0  0  0
   23.6870  -22.4953  -13.4137 O   0  0  0  0  0  0  0  0  0  0  0  0
   26.5182  -23.5906  -19.4446 O   0  0  0  0  0  0  0  0  0  0  0  0
   22.1149  -18.3478  -15.3054 C   0  0  0  0  0  0  0  0  0  0  0  0
   21.3948  -19.4928  -14.9333 C   0  0  1  0  0  0  0  0  0  0  0  0
   22.2608  -20.7143  -14.8995 N   0  0  0  0  0  0  0  0  0  0  0  0
   23.5978  -20.4628  -14.4279 C   0  0  0  0  0  0  0  0  0  0  0  0
   22.3155  -21.2648  -16.2797 O   0  0  0  0  0  0  0  0  0  0  0  0
   21.2724  -21.6334  -16.8784 O   0  0  0  0  0  0  0  0  0  0  0  0
  2  5  1  0
  2  1  1  1
  3  2  1  0
  4  3  1  0
  5  6  2  0
  7  8  1  0
  8  9  2  0
  8 10  1  0
 10 11  1  0
 11 12  1  0
 12 13  1  0
 14 13  1  6
 15 14  1  0
 15  5  1  0
 16 17  2  0
 16 14  1  0
 18 19  1  0
 20 19  1  1
 20 22  1  0
 20 21  1  0
 21 16  1  0
 22 24  1  0
 23 22  2  0
M  END
$$$$
