CRS.pdb
     RDKit          3D

 24 23  0  0  1  0  0  0  0  0999 V2000
   20.5383  -19.5924  -15.1889 N   0  0  0  0  0  0  0  0  0  0  0  0
   21.4558  -18.6971  -15.9333 C   0  0  1  0  0  0  0  0  0  0  0  0
   20.8545  -17.3356  -16.0001 C   0  0  0  0  0  0  0  0  0  0  0  0
   19.2001  -17.4124  -16.7004 S   0  0  0  0  0  0  0  0  0  0  0  0
   22.7922  -18.7759  -15.3071 C   0  0  0  0  0  0  0  0  0  0  0  0
   23.6045  -17.7819  -15.4529 O   0  0  0  0  0  0  0  0  0  0  0  0
   24.4541  -20.9917   -7.7201 N   0  0  0  0  0  0  0  0  0  0  0  0
   23.6619  -21.0942   -8.8908 C   0  0  0  0  0  0  0  0  0  0  0  0
   22.3970  -21.3363   -8.8447 N   0  0  0  0  0  0  0  0  0  0  0  0
   24.2414  -20.9303  -10.2021 N   0  0  0  0  0  0  0  0  0  0  0  0
   25.6293  -20.6080  -10.3662 C   0  0  0  0  0  0  0  0  0  0  0  0
   25.9054  -20.3798  -11.8550 C   0  0  0  0  0  0  0  0  0  0  0  0
   24.5787  -20.2179  -12.5042 C   0  0  0  0  0  0  0  0  0  0  0  0
   24.6633  -19.7682  -13.9462 C   0  0  2  0  0  0  0  0  0  0  0  0
   23.3109  -19.8356  -14.5384 N   0  0  0  0  0  0  0  0  0  0  0  0
   25.6350  -20.5749  -14.6655 C   0  0  0  0  0  0  0  0  0  0  0  0
   25.3400  -21.7104  -15.0829 O   0  0  0  0  0  0  0  0  0  0  0  0
   21.8210  -21.4152   -9.7042 O   0  0  0  0  0  0  0  0  0  0  0  0
   28.9426  -22.9969  -16.0121 C   0  0  0  0  0  0  0  0  0  0  0  0
   28.0223  -22.2835  -15.2300 C   0  0  2  0  0  0  0  0  0  0  0  0
   27.8554  -20.8732  -15.7057 N   0  0  0  0  0  0  0  0  0  0  0  0
   26.9355  -20.1000  -14.9126 C   0  0  0  0  0  0  0  0  0  0  0  0
   27.3760  -20.9272  -17.1123 O   0  0  0  0  0  0  0  0  0  0  0  0
   26.2654  -21.4400  -17.4053 O   0  0  0  0  0  0  0  0  0  0  0  0
  2  5  1  0
  2  1  1  1
  3  2  1  0
  4  3  1  0
  5  6  2  0
  7  8  1  0
  8  9  2  0
  8 10  1  0
 10 11  1  0
 11 12  1  0
 12 13  1  0
 14 13  1  1
 15 14  1  0
 15  5  1  0
 16 17  2  0
 16 14  1  0
 18 19  1  0
 20 19  1  1
 20 22  1  0
 20 21  1  0
 21 16  1  0
 22 24  1  0
 23 22  2  0
M  END
$$$$
