QCE.pdb
     RDKit          3D

 25 24  0  0  1  0  0  0  0  0999 V2000
    8.4623  -12.2841   18.3410 N   0  0  0  0  0  0  0  0  0  0  0  0
    7.7344  -13.4131   17.8984 C   0  0  0  0  0  0  0  0  0  0  0  0
    7.6979  -13.6568   16.6733 O   0  0  0  0  0  0  0  0  0  0  0  0
    7.0409  -14.2759   18.8575 C   0  0  0  0  0  0  0  0  0  0  0  0
    7.1605  -13.8904   20.2911 C   0  0  0  0  0  0  0  0  0  0  0  0
    7.7350  -14.9370   21.1997 C   0  0  2  0  0  0  0  0  0  0  0  0
    6.8926  -16.1074   21.1720 N   0  0  0  0  0  0  0  0  0  0  0  0
    7.9061  -14.3370   22.5292 C   0  0  0  0  0  0  0  0  0  0  0  0
    7.6577  -13.1051   22.6466 O   0  0  0  0  0  0  0  0  0  0  0  0
    8.3273  -15.0022   23.7051 N   0  0  0  0  0  0  0  0  0  0  0  0
    8.7663  -14.2742   24.8872 C   0  0  1  0  0  0  0  0  0  0  0  0
    7.6235  -13.3947   25.3124 C   0  0  0  0  0  0  0  0  0  0  0  0
    6.5778  -14.1633   26.5564 S   0  0  0  0  0  0  0  0  0  0  0  0
    9.2256  -15.1984   25.9437 C   0  0  0  0  0  0  0  0  0  0  0  0
    8.6223  -16.2655   26.1722 O   0  0  0  0  0  0  0  0  0  0  0  0
   10.3855  -14.9158   26.7594 N   0  0  0  0  0  0  0  0  0  0  0  0
   11.0699  -15.9701   27.5062 C   0  0  1  0  0  0  0  0  0  0  0  0
   12.5231  -15.9350   27.0894 C   0  0  0  0  0  0  0  0  0  0  0  0
   12.7383  -16.3477   25.6482 C   0  0  0  0  0  0  0  0  0  0  0  0
   14.1966  -16.2806   25.3441 C   0  0  0  0  0  0  0  0  0  0  0  0
   14.9784  -15.8734   26.2597 O   0  0  0  0  0  0  0  0  0  0  0  0
   10.8913  -15.7781   28.9590 C   0  0  0  0  0  0  0  0  0  0  0  0
   10.4050  -14.6870   29.3720 O   0  0  0  0  0  0  0  0  0  0  0  0
   14.6963  -16.6475   24.1160 O   0  0  0  0  0  0  0  0  0  0  0  0
   11.2275  -16.7331   29.8988 O   0  0  0  0  0  0  0  0  0  0  0  0
  2  4  1  0
  2  1  1  0
  3  2  2  0
  5  4  1  0
  5  6  1  0
  6  7  1  1
  8  6  1  0
  9  8  2  0
 10  8  1  0
 11 10  1  0
 11 14  1  0
 11 12  1  1
 13 12  1  0
 14 16  1  0
 15 14  2  0
 16 17  1  0
 17 18  1  1
 17 22  1  0
 19 20  1  0
 19 18  1  0
 20 24  1  0
 21 20  2  0
 22 23  2  0
 22 25  1  0
M  END
$$$$
