QCE.pdb
     RDKit          3D

 25 24  0  0  1  0  0  0  0  0999 V2000
   14.3887  -20.2160   17.4418 N   0  0  0  0  0  0  0  0  0  0  0  0
   13.5655  -19.7596   16.3861 C   0  0  0  0  0  0  0  0  0  0  0  0
   13.7486  -20.2272   15.2417 O   0  0  0  0  0  0  0  0  0  0  0  0
   12.5219  -18.7619   16.6324 C   0  0  0  0  0  0  0  0  0  0  0  0
   12.3143  -18.3683   18.0537 C   0  0  0  0  0  0  0  0  0  0  0  0
   11.1804  -17.4189   18.3061 C   0  0  2  0  0  0  0  0  0  0  0  0
   10.9648  -16.6102   17.1314 N   0  0  0  0  0  0  0  0  0  0  0  0
   11.4894  -16.6591   19.5243 C   0  0  0  0  0  0  0  0  0  0  0  0
   12.2227  -15.6390   19.4020 O   0  0  0  0  0  0  0  0  0  0  0  0
   11.0484  -16.9554   20.8358 N   0  0  0  0  0  0  0  0  0  0  0  0
   11.4549  -16.1581   21.9843 C   0  0  1  0  0  0  0  0  0  0  0  0
   10.2003  -15.6140   22.6089 C   0  0  0  0  0  0  0  0  0  0  0  0
    9.0975  -16.9060   23.1972 S   0  0  0  0  0  0  0  0  0  0  0  0
   12.2845  -16.9482   22.9163 C   0  0  0  0  0  0  0  0  0  0  0  0
   12.1377  -18.1822   23.0207 O   0  0  0  0  0  0  0  0  0  0  0  0
   13.2978  -16.3379   23.7479 N   0  0  0  0  0  0  0  0  0  0  0  0
   14.1120  -17.1316   24.6669 C   0  0  1  0  0  0  0  0  0  0  0  0
   15.4484  -16.4342   24.7884 C   0  0  0  0  0  0  0  0  0  0  0  0
   16.1979  -16.3526   23.4750 C   0  0  0  0  0  0  0  0  0  0  0  0
   17.5118  -15.6894   23.7145 C   0  0  0  0  0  0  0  0  0  0  0  0
   18.3515  -16.2825   24.4619 O   0  0  0  0  0  0  0  0  0  0  0  0
   13.4303  -17.2827   25.9676 C   0  0  0  0  0  0  0  0  0  0  0  0
   12.3942  -16.5949   26.1936 O   0  0  0  0  0  0  0  0  0  0  0  0
   17.8217  -14.4743   23.1488 O   0  0  0  0  0  0  0  0  0  0  0  0
   13.8649  -18.1418   26.9582 O   0  0  0  0  0  0  0  0  0  0  0  0
  2  4  1  0
  2  1  1  0
  3  2  2  0
  5  4  1  0
  5  6  1  0
  6  7  1  6
  8  6  1  0
  9  8  2  0
 10  8  1  0
 11 10  1  0
 11 14  1  0
 11 12  1  1
 13 12  1  0
 14 16  1  0
 15 14  2  0
 16 17  1  0
 17 18  1  1
 17 22  1  0
 19 20  1  0
 19 18  1  0
 20 24  1  0
 21 20  2  0
 22 23  2  0
 22 25  1  0
M  END
$$$$
