QCE.pdb
     RDKit          3D

 25 24  0  0  1  0  0  0  0  0999 V2000
    5.5058  -18.3027   23.6243 N   0  0  0  0  0  0  0  0  0  0  0  0
    5.3954  -18.3807   22.2164 C   0  0  0  0  0  0  0  0  0  0  0  0
    4.4249  -18.9977   21.7273 O   0  0  0  0  0  0  0  0  0  0  0  0
    6.3973  -17.7503   21.3539 C   0  0  0  0  0  0  0  0  0  0  0  0
    7.4830  -17.0039   22.0483 C   0  0  0  0  0  0  0  0  0  0  0  0
    7.5768  -15.5420   21.7240 C   0  0  2  0  0  0  0  0  0  0  0  0
    8.3853  -15.3664   20.5426 N   0  0  0  0  0  0  0  0  0  0  0  0
    8.0758  -14.8454   22.9167 C   0  0  0  0  0  0  0  0  0  0  0  0
    9.3181  -14.8872   23.1364 O   0  0  0  0  0  0  0  0  0  0  0  0
    7.3010  -14.1260   23.8572 N   0  0  0  0  0  0  0  0  0  0  0  0
    7.8588  -13.6571   25.1178 C   0  0  1  0  0  0  0  0  0  0  0  0
    6.8146  -12.7918   25.7666 C   0  0  0  0  0  0  0  0  0  0  0  0
    7.2237  -12.3585   27.4627 S   0  0  0  0  0  0  0  0  0  0  0  0
    8.2970  -14.7875   25.9613 C   0  0  0  0  0  0  0  0  0  0  0  0
    7.5422  -15.7547   26.1842 O   0  0  0  0  0  0  0  0  0  0  0  0
    9.6094  -14.8296   26.5667 N   0  0  0  0  0  0  0  0  0  0  0  0
   10.0112  -15.9276   27.4445 C   0  0  1  0  0  0  0  0  0  0  0  0
   11.3708  -16.3942   26.9748 C   0  0  0  0  0  0  0  0  0  0  0  0
   11.4304  -16.6449   25.4824 C   0  0  0  0  0  0  0  0  0  0  0  0
   12.8086  -17.0893   25.1268 C   0  0  0  0  0  0  0  0  0  0  0  0
   13.6619  -17.1931   26.0631 O   0  0  0  0  0  0  0  0  0  0  0  0
   10.0170  -15.4905   28.8546 C   0  0  0  0  0  0  0  0  0  0  0  0
   10.3041  -16.3343   29.7507 O   0  0  0  0  0  0  0  0  0  0  0  0
   13.1607  -17.3844   23.8300 O   0  0  0  0  0  0  0  0  0  0  0  0
    9.7250  -14.2000   29.2514 O   0  0  0  0  0  0  0  0  0  0  0  0
  2  4  1  0
  2  1  1  0
  3  2  2  0
  5  4  1  0
  5  6  1  0
  6  7  1  6
  8  6  1  0
  9  8  2  0
 10  8  1  0
 11 10  1  0
 11 14  1  0
 11 12  1  1
 13 12  1  0
 14 16  1  0
 15 14  2  0
 16 17  1  0
 17 18  1  6
 17 22  1  0
 19 20  1  0
 19 18  1  0
 20 24  1  0
 21 20  2  0
 22 23  2  0
 22 25  1  0
M  END
$$$$
