QCE.pdb
     RDKit          3D

 25 24  0  0  1  0  0  0  0  0999 V2000
    6.3156  -17.9049   19.8969 N   0  0  0  0  0  0  0  0  0  0  0  0
    7.1790  -17.1711   19.0505 C   0  0  0  0  0  0  0  0  0  0  0  0
    7.6791  -17.7494   18.0619 O   0  0  0  0  0  0  0  0  0  0  0  0
    7.4774  -15.7643   19.3287 C   0  0  0  0  0  0  0  0  0  0  0  0
    6.7587  -15.1584   20.4838 C   0  0  0  0  0  0  0  0  0  0  0  0
    7.0843  -13.7222   20.7709 C   0  0  2  0  0  0  0  0  0  0  0  0
    7.8965  -13.1944   19.7022 N   0  0  0  0  0  0  0  0  0  0  0  0
    7.7036  -13.6561   22.1008 C   0  0  0  0  0  0  0  0  0  0  0  0
    8.9574  -13.7879   22.1647 O   0  0  0  0  0  0  0  0  0  0  0  0
    7.0346  -13.4603   23.3322 N   0  0  0  0  0  0  0  0  0  0  0  0
    7.7469  -13.4420   24.6021 C   0  0  1  0  0  0  0  0  0  0  0  0
    6.8697  -12.7226   25.5886 C   0  0  0  0  0  0  0  0  0  0  0  0
    7.5110  -12.7851   27.2669 S   0  0  0  0  0  0  0  0  0  0  0  0
    8.1174  -14.8072   25.0264 C   0  0  0  0  0  0  0  0  0  0  0  0
    7.2665  -15.7171   25.0820 O   0  0  0  0  0  0  0  0  0  0  0  0
    9.4712  -15.1549   25.3964 N   0  0  0  0  0  0  0  0  0  0  0  0
    9.8135  -16.4949   25.8709 C   0  0  1  0  0  0  0  0  0  0  0  0
   11.0261  -16.9449   25.0872 C   0  0  0  0  0  0  0  0  0  0  0  0
   11.5751  -18.2767   25.5545 C   0  0  0  0  0  0  0  0  0  0  0  0
   12.7487  -18.6342   24.7068 C   0  0  0  0  0  0  0  0  0  0  0  0
   13.7156  -17.8112   24.6495 O   0  0  0  0  0  0  0  0  0  0  0  0
   10.0507  -16.4856   27.3279 C   0  0  0  0  0  0  0  0  0  0  0  0
    9.8812  -17.5566   27.9776 O   0  0  0  0  0  0  0  0  0  0  0  0
   12.7995  -19.8159   24.0044 O   0  0  0  0  0  0  0  0  0  0  0  0
   10.4522  -15.3629   28.0255 O   0  0  0  0  0  0  0  0  0  0  0  0
  2  4  1  0
  2  1  1  0
  3  2  2  0
  5  4  1  0
  5  6  1  0
  6  7  1  6
  8  6  1  0
  9  8  2  0
 10  8  1  0
 11 10  1  0
 11 14  1  0
 11 12  1  1
 13 12  1  0
 14 16  1  0
 15 14  2  0
 16 17  1  0
 17 18  1  6
 17 22  1  0
 19 20  1  0
 19 18  1  0
 20 24  1  0
 21 20  2  0
 22 23  2  0
 22 25  1  0
M  END
$$$$
