QCE.pdb
     RDKit          3D

 25 24  0  0  1  0  0  0  0  0999 V2000
    5.1902  -19.3422   23.5436 N   0  0  0  0  0  0  0  0  0  0  0  0
    5.2557  -18.9644   22.1823 C   0  0  0  0  0  0  0  0  0  0  0  0
    4.5542  -19.5865   21.3559 O   0  0  0  0  0  0  0  0  0  0  0  0
    6.1264  -17.8674   21.7540 C   0  0  0  0  0  0  0  0  0  0  0  0
    6.8736  -17.1645   22.8337 C   0  0  0  0  0  0  0  0  0  0  0  0
    7.6636  -15.9643   22.4020 C   0  0  2  0  0  0  0  0  0  0  0  0
    8.4137  -16.2890   21.2137 N   0  0  0  0  0  0  0  0  0  0  0  0
    8.4805  -15.5269   23.5415 C   0  0  0  0  0  0  0  0  0  0  0  0
    9.6723  -15.9396   23.5938 O   0  0  0  0  0  0  0  0  0  0  0  0
    8.0664  -14.6840   24.5999 N   0  0  0  0  0  0  0  0  0  0  0  0
    8.8825  -14.4818   25.7887 C   0  0  1  0  0  0  0  0  0  0  0  0
    8.2038  -13.4243   26.6140 C   0  0  0  0  0  0  0  0  0  0  0  0
    9.0382  -13.1170   28.1764 S   0  0  0  0  0  0  0  0  0  0  0  0
    9.0947  -15.7512   26.5131 C   0  0  0  0  0  0  0  0  0  0  0  0
    8.1644  -16.5671   26.6680 O   0  0  0  0  0  0  0  0  0  0  0  0
   10.3780  -16.1087   27.0752 N   0  0  0  0  0  0  0  0  0  0  0  0
   10.5625  -17.3453   27.8332 C   0  0  1  0  0  0  0  0  0  0  0  0
   11.3863  -18.2742   26.9698 C   0  0  0  0  0  0  0  0  0  0  0  0
   11.6502  -19.6149   27.6229 C   0  0  0  0  0  0  0  0  0  0  0  0
   12.4725  -20.4447   26.6962 C   0  0  0  0  0  0  0  0  0  0  0  0
   11.8663  -21.2343   25.9059 O   0  0  0  0  0  0  0  0  0  0  0  0
   11.1995  -17.0668   29.1355 C   0  0  0  0  0  0  0  0  0  0  0  0
   11.3626  -18.0210   29.9482 O   0  0  0  0  0  0  0  0  0  0  0  0
   13.8459  -20.3674   26.6829 O   0  0  0  0  0  0  0  0  0  0  0  0
   11.6316  -15.8114   29.5171 O   0  0  0  0  0  0  0  0  0  0  0  0
  2  4  1  0
  2  1  1  0
  3  2  2  0
  5  4  1  0
  5  6  1  0
  6  7  1  6
  8  6  1  0
  9  8  2  0
 10  8  1  0
 11 10  1  0
 11 14  1  0
 11 12  1  1
 13 12  1  0
 14 16  1  0
 15 14  2  0
 16 17  1  0
 17 18  1  6
 17 22  1  0
 19 20  1  0
 19 18  1  0
 20 24  1  0
 21 20  2  0
 22 23  2  0
 22 25  1  0
M  END
$$$$
