QCE.pdb
     RDKit          3D

 25 24  0  0  1  0  0  0  0  0999 V2000
    5.6475  -17.6492   18.6888 N   0  0  0  0  0  0  0  0  0  0  0  0
    6.2615  -17.9699   19.9219 C   0  0  0  0  0  0  0  0  0  0  0  0
    5.5363  -18.3297   20.8740 O   0  0  0  0  0  0  0  0  0  0  0  0
    7.7154  -17.8822   20.0759 C   0  0  0  0  0  0  0  0  0  0  0  0
    8.2041  -17.1040   21.2479 C   0  0  0  0  0  0  0  0  0  0  0  0
    8.0272  -15.6167   21.1599 C   0  0  2  0  0  0  0  0  0  0  0  0
    8.7788  -15.1124   20.0369 N   0  0  0  0  0  0  0  0  0  0  0  0
    8.4026  -15.0391   22.4570 C   0  0  0  0  0  0  0  0  0  0  0  0
    9.6345  -14.9223   22.7059 O   0  0  0  0  0  0  0  0  0  0  0  0
    7.5181  -14.5971   23.4692 N   0  0  0  0  0  0  0  0  0  0  0  0
    7.9978  -14.1340   24.7637 C   0  0  1  0  0  0  0  0  0  0  0  0
    6.8573  -13.4088   25.4222 C   0  0  0  0  0  0  0  0  0  0  0  0
    7.1936  -12.9933   27.1386 S   0  0  0  0  0  0  0  0  0  0  0  0
    8.5297  -15.2529   25.5677 C   0  0  0  0  0  0  0  0  0  0  0  0
    7.8321  -16.2567   25.8145 O   0  0  0  0  0  0  0  0  0  0  0  0
    9.8719  -15.2415   26.1053 N   0  0  0  0  0  0  0  0  0  0  0  0
   10.3574  -16.3149   26.9711 C   0  0  1  0  0  0  0  0  0  0  0  0
   11.7544  -16.6601   26.5062 C   0  0  0  0  0  0  0  0  0  0  0  0
   11.7804  -17.3295   25.1479 C   0  0  0  0  0  0  0  0  0  0  0  0
   13.2005  -17.5514   24.7511 C   0  0  0  0  0  0  0  0  0  0  0  0
   13.4321  -17.9714   23.5741 O   0  0  0  0  0  0  0  0  0  0  0  0
   10.3170  -15.8993   28.3871 C   0  0  0  0  0  0  0  0  0  0  0  0
   10.6837  -16.7233   29.2726 O   0  0  0  0  0  0  0  0  0  0  0  0
   14.2396  -17.3109   25.6201 O   0  0  0  0  0  0  0  0  0  0  0  0
    9.8986  -14.6494   28.8006 O   0  0  0  0  0  0  0  0  0  0  0  0
  2  4  1  0
  2  1  1  0
  3  2  2  0
  5  4  1  0
  5  6  1  0
  6  7  1  6
  8  6  1  0
  9  8  2  0
 10  8  1  0
 11 10  1  0
 11 14  1  0
 11 12  1  1
 13 12  1  0
 14 16  1  0
 15 14  2  0
 16 17  1  0
 17 18  1  6
 17 22  1  0
 19 20  1  0
 19 18  1  0
 20 24  1  0
 21 20  2  0
 22 23  2  0
 22 25  1  0
M  END
$$$$
