QCE.pdb
     RDKit          3D

 25 24  0  0  1  0  0  0  0  0999 V2000
   12.9804  -18.2086   17.4869 N   0  0  0  0  0  0  0  0  0  0  0  0
   11.7285  -17.8017   16.9697 C   0  0  0  0  0  0  0  0  0  0  0  0
   11.5301  -17.9011   15.7398 O   0  0  0  0  0  0  0  0  0  0  0  0
   10.6894  -17.2770   17.8587 C   0  0  0  0  0  0  0  0  0  0  0  0
   11.0350  -17.2168   19.3061 C   0  0  0  0  0  0  0  0  0  0  0  0
   10.0338  -17.8313   20.2394 C   0  0  2  0  0  0  0  0  0  0  0  0
    8.7058  -17.6318   19.7130 N   0  0  0  0  0  0  0  0  0  0  0  0
   10.2542  -17.2643   21.5761 C   0  0  0  0  0  0  0  0  0  0  0  0
   11.4482  -17.1546   21.9705 O   0  0  0  0  0  0  0  0  0  0  0  0
    9.2573  -16.8256   22.4793 N   0  0  0  0  0  0  0  0  0  0  0  0
    9.5704  -16.4532   23.8517 C   0  0  1  0  0  0  0  0  0  0  0  0
    8.3613  -15.7512   24.4043 C   0  0  0  0  0  0  0  0  0  0  0  0
    6.9130  -16.8133   24.4815 S   0  0  0  0  0  0  0  0  0  0  0  0
    9.9839  -17.6296   24.6432 C   0  0  0  0  0  0  0  0  0  0  0  0
    9.5909  -18.7753   24.3467 O   0  0  0  0  0  0  0  0  0  0  0  0
   10.8556  -17.5143   25.7911 N   0  0  0  0  0  0  0  0  0  0  0  0
   11.2364  -18.6836   26.5819 C   0  0  1  0  0  0  0  0  0  0  0  0
   12.6449  -19.0535   26.1739 C   0  0  0  0  0  0  0  0  0  0  0  0
   13.1838  -20.2556   26.9209 C   0  0  0  0  0  0  0  0  0  0  0  0
   14.5541  -20.5574   26.4162 C   0  0  0  0  0  0  0  0  0  0  0  0
   14.6834  -20.8653   25.1899 O   0  0  0  0  0  0  0  0  0  0  0  0
   11.1207  -18.3954   28.0251 C   0  0  0  0  0  0  0  0  0  0  0  0
   10.9045  -17.2051   28.3912 O   0  0  0  0  0  0  0  0  0  0  0  0
   15.6550  -20.5057   27.2395 O   0  0  0  0  0  0  0  0  0  0  0  0
   11.2351  -19.3625   29.0048 O   0  0  0  0  0  0  0  0  0  0  0  0
  2  4  1  0
  2  1  1  0
  3  2  2  0
  5  4  1  0
  5  6  1  0
  6  7  1  6
  8  6  1  0
  9  8  2  0
 10  8  1  0
 11 10  1  0
 11 14  1  0
 11 12  1  1
 13 12  1  0
 14 16  1  0
 15 14  2  0
 16 17  1  0
 17 18  1  1
 17 22  1  0
 19 20  1  0
 19 18  1  0
 20 24  1  0
 21 20  2  0
 22 23  2  0
 22 25  1  0
M  END
$$$$
