HEM.pdb
     RDKit          3D

 28 28  0  0  1  0  0  0  0  0999 V2000
   21.0136  -13.6427  -18.0080 N   0  0  0  0  0  0  0  0  0  0  0  0
   20.7791  -12.2634  -18.3949 C   0  0  1  0  0  0  0  0  0  0  0  0
   19.2734  -12.0783  -18.4463 C   0  0  0  0  0  0  0  0  0  0  0  0
   18.7825  -12.9222  -19.5673 C   0  0  0  0  0  0  0  0  0  0  0  0
   18.1625  -14.1472  -19.4234 C   0  0  0  0  0  0  0  0  0  0  0  0
   17.8505  -14.6494  -20.6252 N   0  0  0  0  0  0  0  0  0  0  0  0
   18.2650  -13.7587  -21.5294 C   0  0  0  0  0  0  0  0  0  0  0  0
   18.8409  -12.6915  -20.8911 N   0  0  0  0  0  0  0  0  0  0  0  0
   21.4496  -11.3188  -17.4653 C   0  0  0  0  0  0  0  0  0  0  0  0
   21.4636  -11.5815  -16.2360 O   0  0  0  0  0  0  0  0  0  0  0  0
   22.0334  -10.1699  -18.0338 N   0  0  0  0  0  0  0  0  0  0  0  0
   22.6256   -9.1567  -17.2190 C   0  0  1  0  0  0  0  0  0  0  0  0
   23.5642   -8.2290  -17.9185 C   0  0  0  0  0  0  0  0  0  0  0  0
   24.2597   -7.2469  -17.0478 C   0  0  0  0  0  0  0  0  0  0  0  0
   25.1873   -6.3346  -17.7190 C   0  0  0  0  0  0  0  0  0  0  0  0
   26.3191   -6.7287  -18.1556 O   0  0  0  0  0  0  0  0  0  0  0  0
   21.5531   -8.3776  -16.5169 C   0  0  0  0  0  0  0  0  0  0  0  0
   20.5705   -7.8915  -17.1341 O   0  0  0  0  0  0  0  0  0  0  0  0
   24.8343   -4.9880  -17.8930 O   0  0  0  0  0  0  0  0  0  0  0  0
   16.8851   -8.2368  -10.3412 C   0  0  0  0  0  0  0  0  0  0  0  0
   18.1360   -8.8995  -11.4107 S   0  0  0  0  0  0  0  0  0  0  0  0
   18.9202   -7.7698  -12.5416 C   0  0  0  0  0  0  0  0  0  0  0  0
   19.9209   -8.3726  -13.4705 C   0  0  0  0  0  0  0  0  0  0  0  0
   20.6085   -7.4324  -14.3912 C   0  0  2  0  0  0  0  0  0  0  0  0
   21.6395   -8.1782  -15.1263 N   0  0  0  0  0  0  0  0  0  0  0  0
   21.2383   -6.2868  -13.6650 C   0  0  0  0  0  0  0  0  0  0  0  0
   20.4970   -5.3231  -13.2538 O   0  0  0  0  0  0  0  0  0  0  0  0
   22.5711   -6.1689  -13.3924 O   0  0  0  0  0  0  0  0  0  0  0  0
  2  9  1  0
  2  1  1  1
  3  2  1  0
  4  8  1  0
  4  3  1  0
  5  4  2  0
  6  5  1  0
  6  7  1  0
  7  8  2  0
  9 11  1  0
 10  9  2  0
 11 12  1  0
 12 13  1  6
 13 14  1  0
 15 14  1  0
 15 19  1  0
 16 15  2  0
 17 18  2  0
 17 12  1  0
 20 21  1  0
 21 22  1  0
 22 23  1  0
 24 23  1  1
 24 26  1  0
 24 25  1  0
 25 17  1  0
 26 28  1  0
 27 26  2  0
M  END
$$$$
