HEM.pdb
     RDKit          3D

 28 28  0  0  1  0  0  0  0  0999 V2000
   21.3836  -22.4841  -13.6619 N   0  0  0  0  0  0  0  0  0  0  0  0
   21.6293  -21.0661  -13.4718 C   0  0  1  0  0  0  0  0  0  0  0  0
   22.3530  -20.9262  -12.1450 C   0  0  0  0  0  0  0  0  0  0  0  0
   21.4751  -21.5464  -11.1180 C   0  0  0  0  0  0  0  0  0  0  0  0
   20.2001  -22.0222  -11.3493 C   0  0  0  0  0  0  0  0  0  0  0  0
   19.6787  -22.5114  -10.2168 N   0  0  0  0  0  0  0  0  0  0  0  0
   20.6066  -22.3516   -9.2702 C   0  0  0  0  0  0  0  0  0  0  0  0
   21.7167  -21.7582   -9.8119 N   0  0  0  0  0  0  0  0  0  0  0  0
   22.3881  -20.4904  -14.6115 C   0  0  0  0  0  0  0  0  0  0  0  0
   23.0057  -21.2656  -15.3849 O   0  0  0  0  0  0  0  0  0  0  0  0
   22.3663  -19.0890  -14.7503 N   0  0  0  0  0  0  0  0  0  0  0  0
   23.0250  -18.4398  -15.8392 C   0  0  1  0  0  0  0  0  0  0  0  0
   22.3069  -17.2688  -16.4258 C   0  0  0  0  0  0  0  0  0  0  0  0
   21.5099  -17.5535  -17.6464 C   0  0  0  0  0  0  0  0  0  0  0  0
   21.7249  -16.6531  -18.7805 C   0  0  0  0  0  0  0  0  0  0  0  0
   21.6278  -15.3869  -18.6607 O   0  0  0  0  0  0  0  0  0  0  0  0
   24.4137  -18.0455  -15.4311 C   0  0  0  0  0  0  0  0  0  0  0  0
   24.6369  -17.0300  -14.7229 O   0  0  0  0  0  0  0  0  0  0  0  0
   22.0467  -17.1841  -20.0386 O   0  0  0  0  0  0  0  0  0  0  0  0
   26.1461  -22.3348  -10.7967 C   0  0  0  0  0  0  0  0  0  0  0  0
   26.1811  -20.5781  -11.0430 S   0  0  0  0  0  0  0  0  0  0  0  0
   26.9276  -19.9830  -12.5458 C   0  0  0  0  0  0  0  0  0  0  0  0
   25.9790  -19.5649  -13.6196 C   0  0  0  0  0  0  0  0  0  0  0  0
   26.5873  -19.1949  -14.9224 C   0  0  2  0  0  0  0  0  0  0  0  0
   25.5067  -18.8281  -15.8483 N   0  0  0  0  0  0  0  0  0  0  0  0
   27.3944  -20.3094  -15.5080 C   0  0  0  0  0  0  0  0  0  0  0  0
   26.7896  -21.2865  -16.0799 O   0  0  0  0  0  0  0  0  0  0  0  0
   28.7576  -20.3849  -15.4879 O   0  0  0  0  0  0  0  0  0  0  0  0
  2  9  1  0
  2  1  1  6
  3  2  1  0
  4  8  1  0
  4  3  1  0
  5  4  2  0
  6  5  1  0
  6  7  1  0
  7  8  2  0
  9 11  1  0
 10  9  2  0
 11 12  1  0
 12 13  1  1
 13 14  1  0
 15 14  1  0
 15 19  1  0
 16 15  2  0
 17 18  2  0
 17 12  1  0
 20 21  1  0
 21 22  1  0
 22 23  1  0
 24 23  1  1
 24 26  1  0
 24 25  1  0
 25 17  1  0
 26 28  1  0
 27 26  2  0
M  END
$$$$
