HEM.pdb
     RDKit          3D

 28 28  0  0  1  0  0  0  0  0999 V2000
   17.2205  -11.5936  -17.8471 N   0  0  0  0  0  0  0  0  0  0  0  0
   18.0596  -11.1790  -16.7375 C   0  0  1  0  0  0  0  0  0  0  0  0
   19.2278  -12.1471  -16.6929 C   0  0  0  0  0  0  0  0  0  0  0  0
   18.6604  -13.4776  -16.3496 C   0  0  0  0  0  0  0  0  0  0  0  0
   18.3393  -13.8959  -15.0738 C   0  0  0  0  0  0  0  0  0  0  0  0
   17.8578  -15.1453  -15.1065 N   0  0  0  0  0  0  0  0  0  0  0  0
   17.8696  -15.5246  -16.3866 C   0  0  0  0  0  0  0  0  0  0  0  0
   18.3620  -14.5074  -17.1617 N   0  0  0  0  0  0  0  0  0  0  0  0
   18.4835   -9.7625  -16.8790 C   0  0  0  0  0  0  0  0  0  0  0  0
   19.1549   -9.4260  -17.8872 O   0  0  0  0  0  0  0  0  0  0  0  0
   18.0997   -8.8757  -15.8542 N   0  0  0  0  0  0  0  0  0  0  0  0
   18.4011   -7.4811  -15.9267 C   0  0  1  0  0  0  0  0  0  0  0  0
   17.3444   -6.5618  -15.4080 C   0  0  0  0  0  0  0  0  0  0  0  0
   17.6120   -5.1123  -15.5909 C   0  0  0  0  0  0  0  0  0  0  0  0
   16.5531   -4.2015  -15.1524 C   0  0  0  0  0  0  0  0  0  0  0  0
   15.4907   -4.6278  -14.5897 O   0  0  0  0  0  0  0  0  0  0  0  0
   19.7082   -7.2073  -15.2434 C   0  0  0  0  0  0  0  0  0  0  0  0
   20.0053   -7.7319  -14.1393 O   0  0  0  0  0  0  0  0  0  0  0  0
   16.6979   -2.8201  -15.3505 O   0  0  0  0  0  0  0  0  0  0  0  0
   25.6847   -7.4614  -18.2511 C   0  0  0  0  0  0  0  0  0  0  0  0
   25.5604   -5.9435  -17.3410 S   0  0  0  0  0  0  0  0  0  0  0  0
   24.3824   -5.8899  -16.0071 C   0  0  0  0  0  0  0  0  0  0  0  0
   22.9596   -6.1299  -16.3886 C   0  0  0  0  0  0  0  0  0  0  0  0
   21.9749   -6.1279  -15.2774 C   0  0  2  0  0  0  0  0  0  0  0  0
   20.6366   -6.3385  -15.8468 N   0  0  0  0  0  0  0  0  0  0  0  0
   21.9963   -4.8484  -14.5035 C   0  0  0  0  0  0  0  0  0  0  0  0
   21.2611   -3.8703  -14.8911 O   0  0  0  0  0  0  0  0  0  0  0  0
   22.7508   -4.6189  -13.3888 O   0  0  0  0  0  0  0  0  0  0  0  0
  2  9  1  0
  2  1  1  6
  3  2  1  0
  4  8  1  0
  4  3  1  0
  5  4  2  0
  6  5  1  0
  6  7  1  0
  7  8  2  0
  9 11  1  0
 10  9  2  0
 11 12  1  0
 12 13  1  1
 13 14  1  0
 15 14  1  0
 15 19  1  0
 16 15  2  0
 17 18  2  0
 17 12  1  0
 20 21  1  0
 21 22  1  0
 22 23  1  0
 24 23  1  6
 24 26  1  0
 24 25  1  0
 25 17  1  0
 26 28  1  0
 27 26  2  0
M  END
$$$$
