HEM.pdb
     RDKit          3D

 28 28  0  0  1  0  0  0  0  0999 V2000
   26.0706  -15.9436  -18.0032 N   0  0  0  0  0  0  0  0  0  0  0  0
   26.5040  -17.0239  -17.1357 C   0  0  1  0  0  0  0  0  0  0  0  0
   27.8381  -16.5994  -16.5493 C   0  0  0  0  0  0  0  0  0  0  0  0
   28.8154  -16.6144  -17.6695 C   0  0  0  0  0  0  0  0  0  0  0  0
   29.3891  -15.4931  -18.2345 C   0  0  0  0  0  0  0  0  0  0  0  0
   30.2184  -15.8493  -19.2241 N   0  0  0  0  0  0  0  0  0  0  0  0
   30.1777  -17.1820  -19.2940 C   0  0  0  0  0  0  0  0  0  0  0  0
   29.3174  -17.6649  -18.3429 N   0  0  0  0  0  0  0  0  0  0  0  0
   25.4842  -17.3289  -16.0999 C   0  0  0  0  0  0  0  0  0  0  0  0
   25.0893  -16.4052  -15.3441 O   0  0  0  0  0  0  0  0  0  0  0  0
   25.0213  -18.6574  -16.0313 N   0  0  0  0  0  0  0  0  0  0  0  0
   24.2831  -19.1297  -14.9030 C   0  0  1  0  0  0  0  0  0  0  0  0
   23.0418  -19.8990  -15.2164 C   0  0  0  0  0  0  0  0  0  0  0  0
   22.2654  -20.3668  -14.0398 C   0  0  0  0  0  0  0  0  0  0  0  0
   20.8740  -19.9176  -13.9662 C   0  0  0  0  0  0  0  0  0  0  0  0
   20.2022  -19.6378  -15.0138 O   0  0  0  0  0  0  0  0  0  0  0  0
   25.1801  -19.9341  -14.0092 C   0  0  0  0  0  0  0  0  0  0  0  0
   25.9499  -20.8204  -14.4614 O   0  0  0  0  0  0  0  0  0  0  0  0
   20.2507  -19.7869  -12.7162 O   0  0  0  0  0  0  0  0  0  0  0  0
   25.5702  -20.7894   -6.4199 C   0  0  0  0  0  0  0  0  0  0  0  0
   26.4670  -19.8513   -7.6297 S   0  0  0  0  0  0  0  0  0  0  0  0
   26.6322  -20.5650   -9.2525 C   0  0  0  0  0  0  0  0  0  0  0  0
   25.8800  -19.8771  -10.3427 C   0  0  0  0  0  0  0  0  0  0  0  0
   26.0589  -20.4284  -11.7096 C   0  0  2  0  0  0  0  0  0  0  0  0
   25.1673  -19.6984  -12.6216 N   0  0  0  0  0  0  0  0  0  0  0  0
   25.7561  -21.8915  -11.7748 C   0  0  0  0  0  0  0  0  0  0  0  0
   26.6434  -22.7321  -11.3832 O   0  0  0  0  0  0  0  0  0  0  0  0
   24.5863  -22.4306  -12.2279 O   0  0  0  0  0  0  0  0  0  0  0  0
  2  9  1  0
  2  1  1  6
  3  2  1  0
  4  8  1  0
  4  3  1  0
  5  4  2  0
  6  5  1  0
  6  7  1  0
  7  8  2  0
  9 11  1  0
 10  9  2  0
 11 12  1  0
 12 13  1  6
 13 14  1  0
 15 14  1  0
 15 19  1  0
 16 15  2  0
 17 18  2  0
 17 12  1  0
 20 21  1  0
 21 22  1  0
 22 23  1  0
 24 23  1  1
 24 26  1  0
 24 25  1  0
 25 17  1  0
 26 28  1  0
 27 26  2  0
M  END
$$$$
