HEM.pdb
     RDKit          3D

 28 28  0  0  1  0  0  0  0  0999 V2000
   25.3755  -20.6475  -15.1630 N   0  0  0  0  0  0  0  0  0  0  0  0
   24.0741  -20.6739  -15.8056 C   0  0  1  0  0  0  0  0  0  0  0  0
   24.1754  -21.6687  -16.9475 C   0  0  0  0  0  0  0  0  0  0  0  0
   25.1884  -21.1267  -17.8909 C   0  0  0  0  0  0  0  0  0  0  0  0
   24.9182  -20.2585  -18.9296 C   0  0  0  0  0  0  0  0  0  0  0  0
   26.0454  -19.9685  -19.5923 N   0  0  0  0  0  0  0  0  0  0  0  0
   27.0268  -20.6419  -18.9874 C   0  0  0  0  0  0  0  0  0  0  0  0
   26.5123  -21.3591  -17.9391 N   0  0  0  0  0  0  0  0  0  0  0  0
   22.9987  -21.0078  -14.8371 C   0  0  0  0  0  0  0  0  0  0  0  0
   23.2289  -21.8601  -13.9421 O   0  0  0  0  0  0  0  0  0  0  0  0
   21.7700  -20.3366  -14.9908 N   0  0  0  0  0  0  0  0  0  0  0  0
   20.7082  -20.5056  -14.0501 C   0  0  1  0  0  0  0  0  0  0  0  0
   19.7285  -19.3811  -13.9696 C   0  0  0  0  0  0  0  0  0  0  0  0
   20.2159  -18.1563  -13.2852 C   0  0  0  0  0  0  0  0  0  0  0  0
   19.2238  -17.1020  -13.0673 C   0  0  0  0  0  0  0  0  0  0  0  0
   18.7995  -16.8097  -11.9005 O   0  0  0  0  0  0  0  0  0  0  0  0
   19.9941  -21.7978  -14.3163 C   0  0  0  0  0  0  0  0  0  0  0  0
   19.7273  -22.1832  -15.4837 O   0  0  0  0  0  0  0  0  0  0  0  0
   18.7178  -16.3863  -14.1627 O   0  0  0  0  0  0  0  0  0  0  0  0
   21.7881  -27.9411  -11.7597 C   0  0  0  0  0  0  0  0  0  0  0  0
   21.1753  -26.2764  -11.7924 S   0  0  0  0  0  0  0  0  0  0  0  0
   19.4513  -26.0525  -12.1765 C   0  0  0  0  0  0  0  0  0  0  0  0
   18.9586  -24.6438  -12.1487 C   0  0  0  0  0  0  0  0  0  0  0  0
   18.9734  -23.9199  -13.4449 C   0  0  2  0  0  0  0  0  0  0  0  0
   19.6062  -22.6104  -13.2345 N   0  0  0  0  0  0  0  0  0  0  0  0
   17.5993  -23.7303  -14.0039 C   0  0  0  0  0  0  0  0  0  0  0  0
   16.8926  -22.7365  -13.6035 O   0  0  0  0  0  0  0  0  0  0  0  0
   17.0100  -24.5437  -14.9288 O   0  0  0  0  0  0  0  0  0  0  0  0
  2  9  1  0
  2  1  1  1
  3  2  1  0
  4  8  1  0
  4  3  1  0
  5  4  2  0
  6  5  1  0
  6  7  1  0
  7  8  2  0
  9 11  1  0
 10  9  2  0
 11 12  1  0
 12 13  1  6
 13 14  1  0
 15 14  1  0
 15 19  1  0
 16 15  2  0
 17 18  2  0
 17 12  1  0
 20 21  1  0
 21 22  1  0
 22 23  1  0
 24 23  1  1
 24 26  1  0
 24 25  1  0
 25 17  1  0
 26 28  1  0
 27 26  2  0
M  END
$$$$
