HEM.pdb
     RDKit          3D

 28 28  0  0  1  0  0  0  0  0999 V2000
   15.4338  -10.2393  -14.5671 N   0  0  0  0  0  0  0  0  0  0  0  0
   16.8493  -10.0525  -14.3045 C   0  0  1  0  0  0  0  0  0  0  0  0
   17.5873  -10.5574  -15.5310 C   0  0  0  0  0  0  0  0  0  0  0  0
   17.4512  -12.0377  -15.5259 C   0  0  0  0  0  0  0  0  0  0  0  0
   18.4635  -12.9246  -15.2190 C   0  0  0  0  0  0  0  0  0  0  0  0
   18.0170  -14.1838  -15.3141 N   0  0  0  0  0  0  0  0  0  0  0  0
   16.7346  -14.1066  -15.6776 C   0  0  0  0  0  0  0  0  0  0  0  0
   16.3744  -12.7913  -15.8119 N   0  0  0  0  0  0  0  0  0  0  0  0
   17.1579   -8.6358  -13.9823 C   0  0  0  0  0  0  0  0  0  0  0  0
   16.8110   -7.7383  -14.7913 O   0  0  0  0  0  0  0  0  0  0  0  0
   17.8329   -8.3890  -12.7710 N   0  0  0  0  0  0  0  0  0  0  0  0
   18.1896   -7.0632  -12.3760 C   0  0  1  0  0  0  0  0  0  0  0  0
   18.0516   -6.7616  -10.9196 C   0  0  0  0  0  0  0  0  0  0  0  0
   16.6666   -6.5044  -10.4485 C   0  0  0  0  0  0  0  0  0  0  0  0
   16.5163   -6.2047   -9.0234 C   0  0  0  0  0  0  0  0  0  0  0  0
   17.4936   -6.3027   -8.2097 O   0  0  0  0  0  0  0  0  0  0  0  0
   19.5814   -6.7513  -12.8408 C   0  0  0  0  0  0  0  0  0  0  0  0
   20.5402   -7.5431  -12.6508 O   0  0  0  0  0  0  0  0  0  0  0  0
   15.2691   -5.7979   -8.5262 O   0  0  0  0  0  0  0  0  0  0  0  0
   24.0195   -4.6603  -18.7279 C   0  0  0  0  0  0  0  0  0  0  0  0
   22.5018   -5.0593  -17.9002 S   0  0  0  0  0  0  0  0  0  0  0  0
   22.4630   -4.8569  -16.1317 C   0  0  0  0  0  0  0  0  0  0  0  0
   21.1825   -5.2336  -15.4640 C   0  0  0  0  0  0  0  0  0  0  0  0
   21.1794   -5.1851  -13.9800 C   0  0  2  0  0  0  0  0  0  0  0  0
   19.8327   -5.5388  -13.5099 N   0  0  0  0  0  0  0  0  0  0  0  0
   21.5566   -3.8362  -13.4563 C   0  0  0  0  0  0  0  0  0  0  0  0
   22.7854   -3.5957  -13.1740 O   0  0  0  0  0  0  0  0  0  0  0  0
   20.6858   -2.8061  -13.2435 O   0  0  0  0  0  0  0  0  0  0  0  0
  2  9  1  0
  2  1  1  6
  3  2  1  0
  4  8  1  0
  4  3  1  0
  5  4  2  0
  6  5  1  0
  6  7  1  0
  7  8  2  0
  9 11  1  0
 10  9  2  0
 11 12  1  0
 12 13  1  1
 13 14  1  0
 15 14  1  0
 15 19  1  0
 16 15  2  0
 17 18  2  0
 17 12  1  0
 20 21  1  0
 21 22  1  0
 22 23  1  0
 24 23  1  6
 24 26  1  0
 24 25  1  0
 25 17  1  0
 26 28  1  0
 27 26  2  0
M  END
$$$$
