NLY.pdb
     RDKit          3D

 29 29  0  0  1  0  0  0  0  0999 V2000
   25.1516  -12.7252  -15.7824 N   0  0  0  0  0  0  0  0  0  0  0  0
   23.7975  -12.5469  -16.2644 C   0  0  0  0  0  0  0  0  0  0  0  0
   23.1561  -13.5578  -16.5786 O   0  0  0  0  0  0  0  0  0  0  0  0
   23.2859  -11.1644  -16.3431 C   0  0  0  0  0  0  0  0  0  0  0  0
   22.2466  -10.9806  -17.4246 C   0  0  2  0  0  0  0  0  0  0  0  0
   23.0304  -10.9509  -18.6812 N   0  0  0  0  0  0  0  0  0  0  0  0
   21.5990   -9.6233  -17.3111 C   0  0  0  0  0  0  0  0  0  0  0  0
   22.2459   -8.5652  -17.6355 O   0  0  0  0  0  0  0  0  0  0  0  0
   17.9801   -7.2650  -19.2687 C   0  0  0  0  0  0  0  0  0  0  0  0
   17.6160   -8.3626  -18.3266 C   0  0  2  0  0  0  0  0  0  0  0  0
   16.1260   -8.5702  -18.4075 C   0  0  0  0  0  0  0  0  0  0  0  0
   18.1562   -8.2928  -16.9630 C   0  0  0  0  0  0  0  0  0  0  0  0
   19.6131   -8.2525  -16.7404 C   0  0  2  0  0  0  0  0  0  0  0  0
   20.2717   -9.5214  -16.8443 N   0  0  0  0  0  0  0  0  0  0  0  0
   20.0562   -7.4857  -15.5366 C   0  0  0  0  0  0  0  0  0  0  0  0
   19.8116   -7.8865  -14.3678 O   0  0  0  0  0  0  0  0  0  0  0  0
   26.5216   -6.5171  -18.1762 O   0  0  0  0  0  0  0  0  0  0  0  0
   25.5758   -6.3872  -17.1747 C   0  0  0  0  0  0  0  0  0  0  0  0
   25.1387   -5.1790  -16.6821 C   0  0  0  0  0  0  0  0  0  0  0  0
   24.1919   -5.1359  -15.6822 C   0  0  0  0  0  0  0  0  0  0  0  0
   23.6394   -6.2979  -15.1295 C   0  0  0  0  0  0  0  0  0  0  0  0
   22.6350   -6.2439  -14.0494 C   0  0  0  0  0  0  0  0  0  0  0  0
   21.3266   -5.6371  -14.4354 C   0  0  2  0  0  0  0  0  0  0  0  0
   20.7773   -6.2648  -15.6395 N   0  0  0  0  0  0  0  0  0  0  0  0
   21.5075   -4.2034  -14.7383 C   0  0  0  0  0  0  0  0  0  0  0  0
   21.2073   -3.6592  -16.0013 O   0  0  0  0  0  0  0  0  0  0  0  0
   24.1090   -7.4802  -15.6553 C   0  0  0  0  0  0  0  0  0  0  0  0
   25.0527   -7.5555  -16.6531 C   0  0  0  0  0  0  0  0  0  0  0  0
   21.9404   -3.3531  -13.9053 O   0  0  0  0  0  0  0  0  0  0  0  0
  1  2  1  0
  2  3  2  0
  4  5  1  0
  4  2  1  0
  5  6  1  6
  7  5  1  0
  7  8  2  0
 10  9  1  1
 11 10  1  0
 12 10  1  0
 13 12  1  1
 13 14  1  0
 14  7  1  0
 15 24  1  0
 15 13  1  0
 16 15  2  0
 18 17  1  0
 18 28  2  0
 19 18  1  0
 20 19  2  0
 20 21  1  0
 21 27  2  0
 22 21  1  0
 23 22  1  6
 23 24  1  0
 23 25  1  0
 25 26  1  0
 27 28  1  0
 29 25  2  0
M  END
$$$$
