NLY.pdb
     RDKit          3D

 29 29  0  0  1  0  0  0  0  0999 V2000
   19.4540  -11.8473  -21.6340 N   0  0  0  0  0  0  0  0  0  0  0  0
   19.8064  -10.6858  -20.8436 C   0  0  0  0  0  0  0  0  0  0  0  0
   19.7739   -9.5779  -21.3947 O   0  0  0  0  0  0  0  0  0  0  0  0
   20.1788  -10.9167  -19.4339 C   0  0  0  0  0  0  0  0  0  0  0  0
   20.8051   -9.7053  -18.7831 C   0  0  2  0  0  0  0  0  0  0  0  0
   22.2063   -9.7177  -19.2635 N   0  0  0  0  0  0  0  0  0  0  0  0
   20.8809   -9.8875  -17.2880 C   0  0  0  0  0  0  0  0  0  0  0  0
   19.8103   -9.9957  -16.5912 O   0  0  0  0  0  0  0  0  0  0  0  0
   22.4587  -13.2763  -15.0522 C   0  0  0  0  0  0  0  0  0  0  0  0
   23.5646  -12.3110  -15.3170 C   0  0  2  0  0  0  0  0  0  0  0  0
   24.8631  -12.9765  -14.9417 C   0  0  0  0  0  0  0  0  0  0  0  0
   23.4046  -10.9414  -14.8124 C   0  0  0  0  0  0  0  0  0  0  0  0
   22.2565  -10.1204  -15.2380 C   0  0  2  0  0  0  0  0  0  0  0  0
   22.1406   -9.9389  -16.6552 N   0  0  0  0  0  0  0  0  0  0  0  0
   22.0724   -8.8397  -14.4900 C   0  0  0  0  0  0  0  0  0  0  0  0
   21.9612   -8.8144  -13.2356 O   0  0  0  0  0  0  0  0  0  0  0  0
   23.5112   -3.4768  -19.8883 O   0  0  0  0  0  0  0  0  0  0  0  0
   23.3203   -3.8962  -18.5836 C   0  0  0  0  0  0  0  0  0  0  0  0
   22.4574   -3.2898  -17.6996 C   0  0  0  0  0  0  0  0  0  0  0  0
   22.3249   -3.7702  -16.4152 C   0  0  0  0  0  0  0  0  0  0  0  0
   23.0483   -4.8779  -15.9563 C   0  0  0  0  0  0  0  0  0  0  0  0
   22.9107   -5.3788  -14.5748 C   0  0  0  0  0  0  0  0  0  0  0  0
   21.8033   -6.3585  -14.3674 C   0  0  2  0  0  0  0  0  0  0  0  0
   22.0135   -7.5805  -15.1472 N   0  0  0  0  0  0  0  0  0  0  0  0
   20.5240   -5.7732  -14.8154 C   0  0  0  0  0  0  0  0  0  0  0  0
   19.7657   -6.3360  -15.8593 O   0  0  0  0  0  0  0  0  0  0  0  0
   23.8975   -5.4485  -16.8773 C   0  0  0  0  0  0  0  0  0  0  0  0
   24.0513   -4.9923  -18.1657 C   0  0  0  0  0  0  0  0  0  0  0  0
   20.0059   -4.7335  -14.3106 O   0  0  0  0  0  0  0  0  0  0  0  0
  1  2  1  0
  2  3  2  0
  4  5  1  0
  4  2  1  0
  5  6  1  6
  7  5  1  0
  7  8  2  0
 10  9  1  1
 11 10  1  0
 12 10  1  0
 13 12  1  6
 13 14  1  0
 14  7  1  0
 15 24  1  0
 15 13  1  0
 16 15  2  0
 18 17  1  0
 18 28  2  0
 19 18  1  0
 20 19  2  0
 20 21  1  0
 21 27  2  0
 22 21  1  0
 23 22  1  6
 23 24  1  0
 23 25  1  0
 25 26  1  0
 27 28  1  0
 29 25  2  0
M  END
$$$$
