NLY.pdb
     RDKit          3D

 29 29  0  0  1  0  0  0  0  0999 V2000
   12.3989  -19.0131    6.4801 N   0  0  0  0  0  0  0  0  0  0  0  0
   12.9668  -17.6807    6.4872 C   0  0  0  0  0  0  0  0  0  0  0  0
   12.1888  -16.7192    6.5368 O   0  0  0  0  0  0  0  0  0  0  0  0
   14.4382  -17.5741    6.4345 C   0  0  0  0  0  0  0  0  0  0  0  0
   14.9425  -17.0120    5.1256 C   0  0  2  0  0  0  0  0  0  0  0  0
   14.7813  -18.1274    4.1643 N   0  0  0  0  0  0  0  0  0  0  0  0
   16.4247  -16.7441    5.2008 C   0  0  0  0  0  0  0  0  0  0  0  0
   17.2511  -17.4739    4.5469 O   0  0  0  0  0  0  0  0  0  0  0  0
   18.6291  -13.5610    3.4874 C   0  0  0  0  0  0  0  0  0  0  0  0
   18.1722  -13.1269    4.8394 C   0  0  2  0  0  0  0  0  0  0  0  0
   18.4245  -11.6468    4.9629 C   0  0  0  0  0  0  0  0  0  0  0  0
   18.6087  -13.9258    5.9915 C   0  0  0  0  0  0  0  0  0  0  0  0
   18.2979  -15.3653    6.0603 C   0  0  2  0  0  0  0  0  0  0  0  0
   16.9013  -15.6817    5.9971 N   0  0  0  0  0  0  0  0  0  0  0  0
   18.9974  -16.1206    7.1436 C   0  0  0  0  0  0  0  0  0  0  0  0
   20.2537  -16.1440    7.2311 O   0  0  0  0  0  0  0  0  0  0  0  0
   21.8901  -11.9713   10.9446 O   0  0  0  0  0  0  0  0  0  0  0  0
   21.1983  -13.1658   10.8506 C   0  0  0  0  0  0  0  0  0  0  0  0
   21.7898  -14.4055   10.9341 C   0  0  0  0  0  0  0  0  0  0  0  0
   21.0284  -15.5490   10.8306 C   0  0  0  0  0  0  0  0  0  0  0  0
   19.6419  -15.5054   10.6390 C   0  0  0  0  0  0  0  0  0  0  0  0
   18.8347  -16.7348   10.5159 C   0  0  0  0  0  0  0  0  0  0  0  0
   19.0185  -17.4839    9.2376 C   0  0  2  0  0  0  0  0  0  0  0  0
   18.2892  -16.8530    8.1351 N   0  0  0  0  0  0  0  0  0  0  0  0
   18.4898  -18.8553    9.3783 C   0  0  0  0  0  0  0  0  0  0  0  0
   18.8948  -19.7130   10.4184 O   0  0  0  0  0  0  0  0  0  0  0  0
   19.0982  -14.2432   10.5617 C   0  0  0  0  0  0  0  0  0  0  0  0
   19.8314  -13.0838   10.6615 C   0  0  0  0  0  0  0  0  0  0  0  0
   17.6423  -19.3714    8.5912 O   0  0  0  0  0  0  0  0  0  0  0  0
  1  2  1  0
  2  3  2  0
  4  5  1  0
  4  2  1  0
  5  6  1  6
  7  5  1  0
  7  8  2  0
 10  9  1  6
 11 10  1  0
 12 10  1  0
 13 12  1  1
 13 14  1  0
 14  7  1  0
 15 24  1  0
 15 13  1  0
 16 15  2  0
 18 17  1  0
 18 28  2  0
 19 18  1  0
 20 19  2  0
 20 21  1  0
 21 27  2  0
 22 21  1  0
 23 22  1  1
 23 24  1  0
 23 25  1  0
 25 26  1  0
 27 28  1  0
 29 25  2  0
M  END
$$$$
