NLY.pdb
     RDKit          3D

 29 29  0  0  1  0  0  0  0  0999 V2000
   21.1115  -24.1281  -18.3045 N   0  0  0  0  0  0  0  0  0  0  0  0
   22.5359  -24.3814  -18.2352 C   0  0  0  0  0  0  0  0  0  0  0  0
   23.2981  -23.5497  -18.7446 O   0  0  0  0  0  0  0  0  0  0  0  0
   22.9689  -25.6196  -17.5580 C   0  0  0  0  0  0  0  0  0  0  0  0
   21.8150  -26.4272  -17.0106 C   0  0  2  0  0  0  0  0  0  0  0  0
   20.7068  -25.4504  -16.9008 N   0  0  0  0  0  0  0  0  0  0  0  0
   22.1066  -26.8791  -15.6017 C   0  0  0  0  0  0  0  0  0  0  0  0
   22.8400  -26.1662  -14.8290 O   0  0  0  0  0  0  0  0  0  0  0  0
   21.3540  -28.1030  -10.7016 C   0  0  0  0  0  0  0  0  0  0  0  0
   20.3519  -27.4372  -11.5834 C   0  0  2  0  0  0  0  0  0  0  0  0
   19.0134  -28.0836  -11.3378 C   0  0  0  0  0  0  0  0  0  0  0  0
   20.7031  -27.2637  -12.9986 C   0  0  0  0  0  0  0  0  0  0  0  0
   21.3876  -28.3428  -13.7337 C   0  0  2  0  0  0  0  0  0  0  0  0
   21.5664  -28.0956  -15.1342 N   0  0  0  0  0  0  0  0  0  0  0  0
   20.8793  -29.7226  -13.4663 C   0  0  0  0  0  0  0  0  0  0  0  0
   19.8108  -30.1470  -13.9809 O   0  0  0  0  0  0  0  0  0  0  0  0
   24.4089  -31.5613   -7.0060 O   0  0  0  0  0  0  0  0  0  0  0  0
   23.8381  -31.9242   -8.2130 C   0  0  0  0  0  0  0  0  0  0  0  0
   22.7407  -32.7464   -8.3281 C   0  0  0  0  0  0  0  0  0  0  0  0
   22.2325  -33.0600   -9.5696 C   0  0  0  0  0  0  0  0  0  0  0  0
   22.7977  -32.5661  -10.7519 C   0  0  0  0  0  0  0  0  0  0  0  0
   22.2554  -32.9170  -12.0790 C   0  0  0  0  0  0  0  0  0  0  0  0
   21.1510  -32.0357  -12.5613 C   0  0  2  0  0  0  0  0  0  0  0  0
   21.5691  -30.6331  -12.6202 N   0  0  0  0  0  0  0  0  0  0  0  0
   20.0073  -32.1082  -11.6303 C   0  0  0  0  0  0  0  0  0  0  0  0
   19.5972  -31.0054  -10.8576 O   0  0  0  0  0  0  0  0  0  0  0  0
   23.8927  -31.7491  -10.5839 C   0  0  0  0  0  0  0  0  0  0  0  0
   24.4228  -31.4180   -9.3587 C   0  0  0  0  0  0  0  0  0  0  0  0
   19.3079  -33.1483  -11.4479 O   0  0  0  0  0  0  0  0  0  0  0  0
  1  2  1  0
  2  3  2  0
  4  5  1  0
  4  2  1  0
  5  6  1  1
  7  5  1  0
  7  8  2  0
 10  9  1  6
 11 10  1  0
 12 10  1  0
 13 12  1  6
 13 14  1  0
 14  7  1  0
 15 24  1  0
 15 13  1  0
 16 15  2  0
 18 17  1  0
 18 28  2  0
 19 18  1  0
 20 19  2  0
 20 21  1  0
 21 27  2  0
 22 21  1  0
 23 22  1  1
 23 24  1  0
 23 25  1  0
 25 26  1  0
 27 28  1  0
 29 25  2  0
M  END
$$$$
