NLY.pdb
     RDKit          3D

 29 29  0  0  1  0  0  0  0  0999 V2000
   29.7772  -24.9989  -17.4847 N   0  0  0  0  0  0  0  0  0  0  0  0
   30.4463  -24.1638  -16.5086 C   0  0  0  0  0  0  0  0  0  0  0  0
   31.5556  -24.5280  -16.0972 O   0  0  0  0  0  0  0  0  0  0  0  0
   29.7480  -22.9363  -16.0788 C   0  0  0  0  0  0  0  0  0  0  0  0
   28.3763  -22.7910  -16.6959 C   0  0  2  0  0  0  0  0  0  0  0  0
   28.6483  -22.4280  -18.1061 N   0  0  0  0  0  0  0  0  0  0  0  0
   27.6500  -21.6115  -16.0998 C   0  0  0  0  0  0  0  0  0  0  0  0
   27.2457  -21.6439  -14.8837 O   0  0  0  0  0  0  0  0  0  0  0  0
   27.0177  -15.5184  -16.7740 C   0  0  0  0  0  0  0  0  0  0  0  0
   26.4900  -16.8209  -16.2739 C   0  0  2  0  0  0  0  0  0  0  0  0
   26.2028  -16.6726  -14.8024 C   0  0  0  0  0  0  0  0  0  0  0  0
   27.2280  -18.0367  -16.6392 C   0  0  0  0  0  0  0  0  0  0  0  0
   26.6396  -19.3664  -16.3958 C   0  0  2  0  0  0  0  0  0  0  0  0
   27.4159  -20.4658  -16.8890 N   0  0  0  0  0  0  0  0  0  0  0  0
   25.1920  -19.4996  -16.7423 C   0  0  0  0  0  0  0  0  0  0  0  0
   24.7838  -19.4131  -17.9308 O   0  0  0  0  0  0  0  0  0  0  0  0
   16.3806  -20.6654  -16.0801 O   0  0  0  0  0  0  0  0  0  0  0  0
   17.7519  -20.6620  -15.8954 C   0  0  0  0  0  0  0  0  0  0  0  0
   18.6393  -21.3247  -16.7120 C   0  0  0  0  0  0  0  0  0  0  0  0
   19.9925  -21.2709  -16.4590 C   0  0  0  0  0  0  0  0  0  0  0  0
   20.5199  -20.5525  -15.3788 C   0  0  0  0  0  0  0  0  0  0  0  0
   21.9698  -20.5102  -15.1065 C   0  0  0  0  0  0  0  0  0  0  0  0
   22.7861  -19.8163  -16.1463 C   0  0  2  0  0  0  0  0  0  0  0  0
   24.1953  -19.7317  -15.7556 N   0  0  0  0  0  0  0  0  0  0  0  0
   22.3020  -18.4329  -16.3247 C   0  0  0  0  0  0  0  0  0  0  0  0
   21.5230  -18.0470  -17.4319 O   0  0  0  0  0  0  0  0  0  0  0  0
   19.5923  -19.9078  -14.5921 C   0  0  0  0  0  0  0  0  0  0  0  0
   18.2362  -19.9426  -14.8190 C   0  0  0  0  0  0  0  0  0  0  0  0
   22.5403  -17.4895  -15.5139 O   0  0  0  0  0  0  0  0  0  0  0  0
  1  2  1  0
  2  3  2  0
  4  5  1  0
  4  2  1  0
  5  6  1  6
  7  5  1  0
  7  8  2  0
 10  9  1  1
 11 10  1  0
 12 10  1  0
 13 12  1  6
 13 14  1  0
 14  7  1  0
 15 24  1  0
 15 13  1  0
 16 15  2  0
 18 17  1  0
 18 28  2  0
 19 18  1  0
 20 19  2  0
 20 21  1  0
 21 27  2  0
 22 21  1  0
 23 22  1  1
 23 24  1  0
 23 25  1  0
 25 26  1  0
 27 28  1  0
 29 25  2  0
M  END
$$$$
