NLY.pdb
     RDKit          3D

 29 29  0  0  1  0  0  0  0  0999 V2000
   29.4293  -19.8842  -17.1429 N   0  0  0  0  0  0  0  0  0  0  0  0
   28.1392  -20.0173  -17.7878 C   0  0  0  0  0  0  0  0  0  0  0  0
   28.0905  -19.8919  -19.0183 O   0  0  0  0  0  0  0  0  0  0  0  0
   26.9768  -20.2939  -16.9209 C   0  0  0  0  0  0  0  0  0  0  0  0
   27.2919  -21.2587  -15.8015 C   0  0  2  0  0  0  0  0  0  0  0  0
   27.4088  -22.5726  -16.4756 N   0  0  0  0  0  0  0  0  0  0  0  0
   26.1184  -21.3809  -14.8621 C   0  0  0  0  0  0  0  0  0  0  0  0
   25.1381  -22.1573  -15.1441 O   0  0  0  0  0  0  0  0  0  0  0  0
   25.3451  -22.3473  -10.1634 C   0  0  0  0  0  0  0  0  0  0  0  0
   25.9246  -21.0005  -10.4380 C   0  0  2  0  0  0  0  0  0  0  0  0
   26.1999  -20.3338   -9.1153 C   0  0  0  0  0  0  0  0  0  0  0  0
   25.2392  -20.1557  -11.4242 C   0  0  0  0  0  0  0  0  0  0  0  0
   24.9740  -20.6627  -12.7829 C   0  0  2  0  0  0  0  0  0  0  0  0
   26.1031  -20.6340  -13.6654 N   0  0  0  0  0  0  0  0  0  0  0  0
   23.7373  -20.1334  -13.4341 C   0  0  0  0  0  0  0  0  0  0  0  0
   23.7056  -18.9938  -13.9698 O   0  0  0  0  0  0  0  0  0  0  0  0
   16.6718  -18.5525  -18.2065 O   0  0  0  0  0  0  0  0  0  0  0  0
   17.8293  -18.9659  -17.5711 C   0  0  0  0  0  0  0  0  0  0  0  0
   18.9417  -18.1726  -17.4072 C   0  0  0  0  0  0  0  0  0  0  0  0
   20.0563  -18.6608  -16.7613 C   0  0  0  0  0  0  0  0  0  0  0  0
   20.1098  -19.9634  -16.2501 C   0  0  0  0  0  0  0  0  0  0  0  0
   21.3124  -20.4837  -15.5708 C   0  0  0  0  0  0  0  0  0  0  0  0
   21.3316  -20.2932  -14.0901 C   0  0  2  0  0  0  0  0  0  0  0  0
   22.5299  -20.8819  -13.4878 N   0  0  0  0  0  0  0  0  0  0  0  0
   20.1660  -20.9652  -13.4819 C   0  0  0  0  0  0  0  0  0  0  0  0
   18.9507  -20.2947  -13.2475 O   0  0  0  0  0  0  0  0  0  0  0  0
   18.9733  -20.7167  -16.4395 C   0  0  0  0  0  0  0  0  0  0  0  0
   17.8457  -20.2578  -17.0795 C   0  0  0  0  0  0  0  0  0  0  0  0
   20.1566  -22.1801  -13.1239 O   0  0  0  0  0  0  0  0  0  0  0  0
  1  2  1  0
  2  3  2  0
  4  5  1  0
  4  2  1  0
  5  6  1  6
  7  5  1  0
  7  8  2  0
 10  9  1  1
 11 10  1  0
 12 10  1  0
 13 12  1  1
 13 14  1  0
 14  7  1  0
 15 24  1  0
 15 13  1  0
 16 15  2  0
 18 17  1  0
 18 28  2  0
 19 18  1  0
 20 19  2  0
 20 21  1  0
 21 27  2  0
 22 21  1  0
 23 22  1  6
 23 24  1  0
 23 25  1  0
 25 26  1  0
 27 28  1  0
 29 25  2  0
M  END
$$$$
