GWE.pdb
     RDKit          3D

 28 29  0  0  1  0  0  0  0  0999 V2000
   25.5249  -25.1614  -15.8382 N   0  0  0  0  0  0  0  0  0  0  0  0
   25.1463  -23.7876  -16.1017 C   0  0  0  0  0  0  0  0  0  0  0  0
   24.2061  -23.2939  -15.0336 C   0  0  0  0  0  0  0  0  0  0  0  0
   23.9770  -24.0408  -14.0820 O   0  0  0  0  0  0  0  0  0  0  0  0
   23.6031  -22.0347  -15.1006 N   0  0  0  0  0  0  0  0  0  0  0  0
   22.7209  -21.5023  -14.1629 C   0  0  1  0  0  0  0  0  0  0  0  0
   23.0875  -20.2364  -13.4261 C   0  0  0  0  0  0  0  0  0  0  0  0
   24.1757  -20.4209  -12.4473 C   0  0  0  0  0  0  0  0  0  0  0  0
   25.5307  -20.5183  -12.6317 C   0  0  0  0  0  0  0  0  0  0  0  0
   26.1561  -20.6752  -11.4257 N   0  0  0  0  0  0  0  0  0  0  0  0
   25.2505  -20.6824  -10.4604 C   0  0  0  0  0  0  0  0  0  0  0  0
   25.2824  -20.8005   -9.0706 C   0  0  0  0  0  0  0  0  0  0  0  0
   24.1312  -20.7639   -8.3129 C   0  0  0  0  0  0  0  0  0  0  0  0
   22.9036  -20.6079   -8.9126 C   0  0  0  0  0  0  0  0  0  0  0  0
   22.8805  -20.4906  -10.3052 C   0  0  0  0  0  0  0  0  0  0  0  0
   24.0348  -20.5291  -11.0510 C   0  0  0  0  0  0  0  0  0  0  0  0
   21.2716  -21.5675  -14.4850 C   0  0  0  0  0  0  0  0  0  0  0  0
   20.8299  -21.1518  -15.5908 O   0  0  0  0  0  0  0  0  0  0  0  0
   20.3348  -22.1007  -13.5569 N   0  0  0  0  0  0  0  0  0  0  0  0
   18.9143  -22.2117  -13.7557 C   0  0  1  0  0  0  0  0  0  0  0  0
   18.2702  -23.1885  -12.8433 C   0  0  0  0  0  0  0  0  0  0  0  0
   16.7816  -23.2880  -13.0406 C   0  0  0  0  0  0  0  0  0  0  0  0
   16.4546  -24.4289  -13.9762 C   0  0  0  0  0  0  0  0  0  0  0  0
   16.9141  -25.5781  -13.7616 O   0  0  0  0  0  0  0  0  0  0  0  0
   18.3177  -20.8644  -13.7994 C   0  0  0  0  0  0  0  0  0  0  0  0
   17.3110  -20.4743  -14.6642 O   0  0  0  0  0  0  0  0  0  0  0  0
   15.6489  -24.1929  -15.0634 O   0  0  0  0  0  0  0  0  0  0  0  0
   18.7281  -19.9789  -13.0109 O   0  0  0  0  0  0  0  0  0  0  0  0
  1  2  1  0
  3  4  2  0
  3  2  1  0
  5  3  1  0
  6  5  1  0
  6  7  1  6
  8  7  1  0
  9  8  2  0
 10 11  1  0
 10  9  1  0
 11 16  2  0
 12 11  1  0
 12 13  2  0
 13 14  1  0
 14 15  2  0
 16  8  1  0
 16 15  1  0
 17 19  1  0
 17  6  1  0
 18 17  2  0
 20 25  1  0
 20 19  1  0
 20 21  1  1
 22 21  1  0
 23 22  1  0
 24 23  2  0
 25 26  1  0
 27 23  1  0
 28 25  2  0
M  END
$$$$
