GWE.pdb
     RDKit          3D

 28 29  0  0  1  0  0  0  0  0999 V2000
   28.3098  -22.5153  -15.5104 N   0  0  0  0  0  0  0  0  0  0  0  0
   28.5709  -21.3588  -14.6769 C   0  0  0  0  0  0  0  0  0  0  0  0
   27.8037  -21.4656  -13.3853 C   0  0  0  0  0  0  0  0  0  0  0  0
   26.7316  -22.0708  -13.4039 O   0  0  0  0  0  0  0  0  0  0  0  0
   28.2739  -20.9040  -12.1947 N   0  0  0  0  0  0  0  0  0  0  0  0
   27.5474  -20.7707  -11.0135 C   0  0  1  0  0  0  0  0  0  0  0  0
   28.2427  -20.3046   -9.7569 C   0  0  0  0  0  0  0  0  0  0  0  0
   27.3910  -20.3738   -8.5544 C   0  0  0  0  0  0  0  0  0  0  0  0
   26.0899  -20.7804   -8.4083 C   0  0  0  0  0  0  0  0  0  0  0  0
   25.7143  -20.6824   -7.0971 N   0  0  0  0  0  0  0  0  0  0  0  0
   26.7309  -20.2250   -6.3834 C   0  0  0  0  0  0  0  0  0  0  0  0
   26.9451  -19.9308   -5.0364 C   0  0  0  0  0  0  0  0  0  0  0  0
   28.1574  -19.4580   -4.5811 C   0  0  0  0  0  0  0  0  0  0  0  0
   29.2030  -19.2605   -5.4521 C   0  0  0  0  0  0  0  0  0  0  0  0
   28.9800  -19.5574   -6.7995 C   0  0  0  0  0  0  0  0  0  0  0  0
   27.7666  -20.0279   -7.2428 C   0  0  0  0  0  0  0  0  0  0  0  0
   26.1665  -20.2333  -11.1262 C   0  0  0  0  0  0  0  0  0  0  0  0
   25.9541  -18.9928  -11.2083 O   0  0  0  0  0  0  0  0  0  0  0  0
   25.0388  -21.1001  -11.1450 N   0  0  0  0  0  0  0  0  0  0  0  0
   23.7849  -20.8452  -11.8026 C   0  0  1  0  0  0  0  0  0  0  0  0
   23.3492  -21.9572  -12.6831 C   0  0  0  0  0  0  0  0  0  0  0  0
   22.0434  -21.6823  -13.3789 C   0  0  0  0  0  0  0  0  0  0  0  0
   21.6722  -22.8452  -14.2699 C   0  0  0  0  0  0  0  0  0  0  0  0
   22.4151  -23.8557  -14.3379 O   0  0  0  0  0  0  0  0  0  0  0  0
   22.8004  -20.3677  -10.8148 C   0  0  0  0  0  0  0  0  0  0  0  0
   21.8469  -19.3953  -11.0569 O   0  0  0  0  0  0  0  0  0  0  0  0
   20.5128  -22.7825  -15.0038 O   0  0  0  0  0  0  0  0  0  0  0  0
   22.7969  -20.8541   -9.6582 O   0  0  0  0  0  0  0  0  0  0  0  0
  1  2  1  0
  3  4  2  0
  3  2  1  0
  5  3  1  0
  6  5  1  0
  6  7  1  1
  8  7  1  0
  9  8  2  0
 10 11  1  0
 10  9  1  0
 11 16  2  0
 12 11  1  0
 12 13  2  0
 13 14  1  0
 14 15  2  0
 16  8  1  0
 16 15  1  0
 17 19  1  0
 17  6  1  0
 18 17  2  0
 20 25  1  0
 20 19  1  0
 20 21  1  1
 22 21  1  0
 23 22  1  0
 24 23  2  0
 25 26  1  0
 27 23  1  0
 28 25  2  0
M  END
$$$$
