GWE.pdb
     RDKit          3D

 28 29  0  0  1  0  0  0  0  0999 V2000
   18.6807  -12.9793  -14.9882 N   0  0  0  0  0  0  0  0  0  0  0  0
   19.8675  -12.2528  -15.3930 C   0  0  0  0  0  0  0  0  0  0  0  0
   19.6411  -10.7701  -15.2554 C   0  0  0  0  0  0  0  0  0  0  0  0
   18.6645  -10.2841  -15.8266 O   0  0  0  0  0  0  0  0  0  0  0  0
   20.4978   -9.9551  -14.5101 N   0  0  0  0  0  0  0  0  0  0  0  0
   20.4130   -8.5689  -14.3996 C   0  0  1  0  0  0  0  0  0  0  0  0
   20.4379   -7.9250  -13.0341 C   0  0  0  0  0  0  0  0  0  0  0  0
   19.3444   -8.3756  -12.1524 C   0  0  0  0  0  0  0  0  0  0  0  0
   19.3772   -9.1366  -11.0126 C   0  0  0  0  0  0  0  0  0  0  0  0
   18.1113   -9.2955  -10.5203 N   0  0  0  0  0  0  0  0  0  0  0  0
   17.2539   -8.6607  -11.3039 C   0  0  0  0  0  0  0  0  0  0  0  0
   15.8723   -8.4664  -11.3112 C   0  0  0  0  0  0  0  0  0  0  0  0
   15.2492   -7.7251  -12.2924 C   0  0  0  0  0  0  0  0  0  0  0  0
   15.9805   -7.1488  -13.3044 C   0  0  0  0  0  0  0  0  0  0  0  0
   17.3638   -7.3484  -13.2897 C   0  0  0  0  0  0  0  0  0  0  0  0
   17.9747   -8.0902  -12.3065 C   0  0  0  0  0  0  0  0  0  0  0  0
   21.1396   -7.7640  -15.4158 C   0  0  0  0  0  0  0  0  0  0  0  0
   22.3905   -7.8557  -15.5477 O   0  0  0  0  0  0  0  0  0  0  0  0
   20.4483   -6.8637  -16.2731 N   0  0  0  0  0  0  0  0  0  0  0  0
   21.0422   -6.0359  -17.2888 C   0  0  1  0  0  0  0  0  0  0  0  0
   20.9262   -6.6088  -18.6526 C   0  0  0  0  0  0  0  0  0  0  0  0
   19.5038   -6.7009  -19.1351 C   0  0  0  0  0  0  0  0  0  0  0  0
   19.3155   -7.9472  -19.9690 C   0  0  0  0  0  0  0  0  0  0  0  0
   20.2945   -8.6883  -20.2337 O   0  0  0  0  0  0  0  0  0  0  0  0
   20.5814   -4.6458  -17.1210 C   0  0  0  0  0  0  0  0  0  0  0  0
   21.0494   -3.5656  -17.8473 O   0  0  0  0  0  0  0  0  0  0  0  0
   18.0608   -8.2586  -20.4332 O   0  0  0  0  0  0  0  0  0  0  0  0
   19.7022   -4.3833  -16.2651 O   0  0  0  0  0  0  0  0  0  0  0  0
  1  2  1  0
  3  4  2  0
  3  2  1  0
  5  3  1  0
  6  5  1  0
  6  7  1  1
  8  7  1  0
  9  8  2  0
 10 11  1  0
 10  9  1  0
 11 16  2  0
 12 11  1  0
 12 13  2  0
 13 14  1  0
 14 15  2  0
 16  8  1  0
 16 15  1  0
 17 19  1  0
 17  6  1  0
 18 17  2  0
 20 25  1  0
 20 19  1  0
 20 21  1  6
 22 21  1  0
 23 22  1  0
 24 23  2  0
 25 26  1  0
 27 23  1  0
 28 25  2  0
M  END
$$$$
