GWE.pdb
     RDKit          3D

 28 29  0  0  1  0  0  0  0  0999 V2000
   29.6528  -21.5095  -13.9430 N   0  0  0  0  0  0  0  0  0  0  0  0
   28.7957  -20.4024  -13.5689 C   0  0  0  0  0  0  0  0  0  0  0  0
   27.6544  -20.8936  -12.7177 C   0  0  0  0  0  0  0  0  0  0  0  0
   26.9582  -21.8058  -13.1638 O   0  0  0  0  0  0  0  0  0  0  0  0
   27.3770  -20.3466  -11.4617 N   0  0  0  0  0  0  0  0  0  0  0  0
   26.2850  -20.6647  -10.6571 C   0  0  1  0  0  0  0  0  0  0  0  0
   26.3628  -20.4354   -9.1667 C   0  0  0  0  0  0  0  0  0  0  0  0
   27.6972  -20.7072   -8.5997 C   0  0  0  0  0  0  0  0  0  0  0  0
   28.7705  -21.3742   -9.1314 C   0  0  0  0  0  0  0  0  0  0  0  0
   29.8095  -21.3712   -8.2423 N   0  0  0  0  0  0  0  0  0  0  0  0
   29.4470  -20.7219   -7.1473 C   0  0  0  0  0  0  0  0  0  0  0  0
   30.0606  -20.3974   -5.9370 C   0  0  0  0  0  0  0  0  0  0  0  0
   29.4033  -19.6806   -4.9598 C   0  0  0  0  0  0  0  0  0  0  0  0
   28.1084  -19.2598   -5.1524 C   0  0  0  0  0  0  0  0  0  0  0  0
   27.5011  -19.5893   -6.3674 C   0  0  0  0  0  0  0  0  0  0  0  0
   28.1659  -20.3051   -7.3348 C   0  0  0  0  0  0  0  0  0  0  0  0
   24.9346  -20.3706  -11.2030 C   0  0  0  0  0  0  0  0  0  0  0  0
   24.5728  -19.1870  -11.4459 O   0  0  0  0  0  0  0  0  0  0  0  0
   24.0053  -21.4141  -11.4696 N   0  0  0  0  0  0  0  0  0  0  0  0
   22.7286  -21.2672  -12.1161 C   0  0  1  0  0  0  0  0  0  0  0  0
   22.3939  -22.3994  -13.0148 C   0  0  0  0  0  0  0  0  0  0  0  0
   21.0261  -22.2797  -13.6309 C   0  0  0  0  0  0  0  0  0  0  0  0
   21.0834  -21.4051  -14.8621 C   0  0  0  0  0  0  0  0  0  0  0  0
   21.9499  -21.6110  -15.7478 O   0  0  0  0  0  0  0  0  0  0  0  0
   21.7101  -20.9027  -11.1147 C   0  0  0  0  0  0  0  0  0  0  0  0
   20.6017  -20.1144  -11.3666 O   0  0  0  0  0  0  0  0  0  0  0  0
   20.1763  -20.3828  -14.9995 O   0  0  0  0  0  0  0  0  0  0  0  0
   21.8234  -21.3175   -9.9359 O   0  0  0  0  0  0  0  0  0  0  0  0
  1  2  1  0
  3  4  2  0
  3  2  1  0
  5  3  1  0
  6  5  1  0
  6  7  1  1
  8  7  1  0
  9  8  2  0
 10 11  1  0
 10  9  1  0
 11 16  2  0
 12 11  1  0
 12 13  2  0
 13 14  1  0
 14 15  2  0
 16  8  1  0
 16 15  1  0
 17 19  1  0
 17  6  1  0
 18 17  2  0
 20 25  1  0
 20 19  1  0
 20 21  1  1
 22 21  1  0
 23 22  1  0
 24 23  2  0
 25 26  1  0
 27 23  1  0
 28 25  2  0
M  END
$$$$
