GWE.pdb
     RDKit          3D

 28 29  0  0  1  0  0  0  0  0999 V2000
   28.9216  -19.1669  -15.7576 N   0  0  0  0  0  0  0  0  0  0  0  0
   28.5164  -18.9689  -14.3804 C   0  0  0  0  0  0  0  0  0  0  0  0
   27.4186  -19.9344  -14.0179 C   0  0  0  0  0  0  0  0  0  0  0  0
   26.6277  -20.2613  -14.9031 O   0  0  0  0  0  0  0  0  0  0  0  0
   27.2837  -20.4534  -12.7271 N   0  0  0  0  0  0  0  0  0  0  0  0
   26.2128  -21.2135  -12.2619 C   0  0  1  0  0  0  0  0  0  0  0  0
   26.3333  -21.9497  -10.9491 C   0  0  0  0  0  0  0  0  0  0  0  0
   26.4119  -21.0546   -9.7792 C   0  0  0  0  0  0  0  0  0  0  0  0
   25.4771  -20.2068   -9.2435 C   0  0  0  0  0  0  0  0  0  0  0  0
   25.9924  -19.5780   -8.1439 N   0  0  0  0  0  0  0  0  0  0  0  0
   27.2344  -19.9903   -7.9456 C   0  0  0  0  0  0  0  0  0  0  0  0
   28.2330  -19.7180   -7.0100 C   0  0  0  0  0  0  0  0  0  0  0  0
   29.4659  -20.3325   -7.0652 C   0  0  0  0  0  0  0  0  0  0  0  0
   29.7501  -21.2427   -8.0561 C   0  0  0  0  0  0  0  0  0  0  0  0
   28.7444  -21.5096   -8.9893 C   0  0  0  0  0  0  0  0  0  0  0  0
   27.5186  -20.8903   -8.9250 C   0  0  0  0  0  0  0  0  0  0  0  0
   24.8493  -20.6629  -12.4765 C   0  0  0  0  0  0  0  0  0  0  0  0
   24.5648  -19.4790  -12.1477 O   0  0  0  0  0  0  0  0  0  0  0  0
   23.8201  -21.4529  -13.0597 N   0  0  0  0  0  0  0  0  0  0  0  0
   22.5231  -20.9856  -13.4708 C   0  0  1  0  0  0  0  0  0  0  0  0
   22.3551  -20.9463  -14.9446 C   0  0  0  0  0  0  0  0  0  0  0  0
   22.8724  -19.6762  -15.5640 C   0  0  0  0  0  0  0  0  0  0  0  0
   22.6202  -19.6823  -17.0542 C   0  0  0  0  0  0  0  0  0  0  0  0
   22.9664  -18.7034  -17.7610 O   0  0  0  0  0  0  0  0  0  0  0  0
   21.4805  -21.6995  -12.7116 C   0  0  0  0  0  0  0  0  0  0  0  0
   20.3303  -21.1171  -12.2103 O   0  0  0  0  0  0  0  0  0  0  0  0
   22.0078  -20.7714  -17.6248 O   0  0  0  0  0  0  0  0  0  0  0  0
   21.6114  -22.9260  -12.4817 O   0  0  0  0  0  0  0  0  0  0  0  0
  1  2  1  0
  3  4  2  0
  3  2  1  0
  5  3  1  0
  6  5  1  0
  6  7  1  1
  8  7  1  0
  9  8  2  0
 10 11  1  0
 10  9  1  0
 11 16  2  0
 12 11  1  0
 12 13  2  0
 13 14  1  0
 14 15  2  0
 16  8  1  0
 16 15  1  0
 17 19  1  0
 17  6  1  0
 18 17  2  0
 20 25  1  0
 20 19  1  0
 20 21  1  6
 22 21  1  0
 23 22  1  0
 24 23  2  0
 25 26  1  0
 27 23  1  0
 28 25  2  0
M  END
$$$$
