GWE.pdb
     RDKit          3D

 28 29  0  0  1  0  0  0  0  0999 V2000
   30.2420  -21.6270  -12.9949 N   0  0  0  0  0  0  0  0  0  0  0  0
   29.9377  -20.9257  -11.7637 C   0  0  0  0  0  0  0  0  0  0  0  0
   28.5212  -21.2119  -11.3394 C   0  0  0  0  0  0  0  0  0  0  0  0
   27.7740  -21.7456  -12.1597 O   0  0  0  0  0  0  0  0  0  0  0  0
   28.0500  -20.8907  -10.0632 N   0  0  0  0  0  0  0  0  0  0  0  0
   26.7599  -21.1188   -9.5892 C   0  0  1  0  0  0  0  0  0  0  0  0
   26.5251  -21.2728   -8.1056 C   0  0  0  0  0  0  0  0  0  0  0  0
   27.0572  -20.1520   -7.3075 C   0  0  0  0  0  0  0  0  0  0  0  0
   26.9418  -18.7980   -7.4882 C   0  0  0  0  0  0  0  0  0  0  0  0
   27.5957  -18.1356   -6.4863 N   0  0  0  0  0  0  0  0  0  0  0  0
   28.1335  -19.0163   -5.6573 C   0  0  0  0  0  0  0  0  0  0  0  0
   28.8899  -18.9445   -4.4872 C   0  0  0  0  0  0  0  0  0  0  0  0
   29.3120  -20.0780   -3.8256 C   0  0  0  0  0  0  0  0  0  0  0  0
   28.9955  -21.3271   -4.3059 C   0  0  0  0  0  0  0  0  0  0  0  0
   28.2376  -21.3901   -5.4786 C   0  0  0  0  0  0  0  0  0  0  0  0
   27.8226  -20.2531   -6.1305 C   0  0  0  0  0  0  0  0  0  0  0  0
   25.6536  -20.3900  -10.2625 C   0  0  0  0  0  0  0  0  0  0  0  0
   25.5758  -19.1321  -10.2126 O   0  0  0  0  0  0  0  0  0  0  0  0
   24.6460  -21.0868  -10.9853 N   0  0  0  0  0  0  0  0  0  0  0  0
   23.6673  -20.4958  -11.8585 C   0  0  1  0  0  0  0  0  0  0  0  0
   23.7078  -21.0417  -13.2376 C   0  0  0  0  0  0  0  0  0  0  0  0
   22.6661  -20.4398  -14.1416 C   0  0  0  0  0  0  0  0  0  0  0  0
   23.3161  -19.8780  -15.3849 C   0  0  0  0  0  0  0  0  0  0  0  0
   24.5123  -20.1502  -15.6546 O   0  0  0  0  0  0  0  0  0  0  0  0
   22.3520  -20.4949  -11.1929 C   0  0  0  0  0  0  0  0  0  0  0  0
   21.9284  -21.4437  -10.2798 O   0  0  0  0  0  0  0  0  0  0  0  0
   22.5822  -19.0666  -16.2155 O   0  0  0  0  0  0  0  0  0  0  0  0
   21.5284  -19.5836  -11.4490 O   0  0  0  0  0  0  0  0  0  0  0  0
  1  2  1  0
  3  4  2  0
  3  2  1  0
  5  3  1  0
  6  5  1  0
  6  7  1  1
  8  7  1  0
  9  8  2  0
 10 11  1  0
 10  9  1  0
 11 16  2  0
 12 11  1  0
 12 13  2  0
 13 14  1  0
 14 15  2  0
 16  8  1  0
 16 15  1  0
 17 19  1  0
 17  6  1  0
 18 17  2  0
 20 25  1  0
 20 19  1  0
 20 21  1  6
 22 21  1  0
 23 22  1  0
 24 23  2  0
 25 26  1  0
 27 23  1  0
 28 25  2  0
M  END
$$$$
