GWE.pdb
     RDKit          3D

 28 29  0  0  1  0  0  0  0  0999 V2000
   28.6517  -21.0127  -14.1372 N   0  0  0  0  0  0  0  0  0  0  0  0
   28.4662  -20.1560  -12.9831 C   0  0  0  0  0  0  0  0  0  0  0  0
   27.3742  -20.7019  -12.1010 C   0  0  0  0  0  0  0  0  0  0  0  0
   26.6579  -21.5919  -12.5602 O   0  0  0  0  0  0  0  0  0  0  0  0
   27.1634  -20.2288  -10.8028 N   0  0  0  0  0  0  0  0  0  0  0  0
   26.0896  -20.5593   -9.9790 C   0  0  1  0  0  0  0  0  0  0  0  0
   26.2284  -20.4277   -8.4812 C   0  0  0  0  0  0  0  0  0  0  0  0
   27.5910  -20.7087   -7.9909 C   0  0  0  0  0  0  0  0  0  0  0  0
   28.6352  -21.3630   -8.5918 C   0  0  0  0  0  0  0  0  0  0  0  0
   29.7196  -21.3762   -7.7588 N   0  0  0  0  0  0  0  0  0  0  0  0
   29.4149  -20.7499   -6.6333 C   0  0  0  0  0  0  0  0  0  0  0  0
   30.0912  -20.4489   -5.4506 C   0  0  0  0  0  0  0  0  0  0  0  0
   29.4859  -19.7533   -4.4258 C   0  0  0  0  0  0  0  0  0  0  0  0
   28.1824  -19.3308   -4.5413 C   0  0  0  0  0  0  0  0  0  0  0  0
   27.5121  -19.6366   -5.7291 C   0  0  0  0  0  0  0  0  0  0  0  0
   28.1254  -20.3316   -6.7445 C   0  0  0  0  0  0  0  0  0  0  0  0
   24.7324  -20.1847  -10.4545 C   0  0  0  0  0  0  0  0  0  0  0  0
   24.2702  -19.0272  -10.2615 O   0  0  0  0  0  0  0  0  0  0  0  0
   23.9099  -21.1190  -11.1428 N   0  0  0  0  0  0  0  0  0  0  0  0
   22.8279  -20.7992  -12.0353 C   0  0  1  0  0  0  0  0  0  0  0  0
   23.0065  -21.3615  -13.3968 C   0  0  0  0  0  0  0  0  0  0  0  0
   21.8291  -21.1085  -14.2991 C   0  0  0  0  0  0  0  0  0  0  0  0
   22.2472  -20.2577  -15.4762 C   0  0  0  0  0  0  0  0  0  0  0  0
   22.8576  -20.7715  -16.4463 O   0  0  0  0  0  0  0  0  0  0  0  0
   21.5430  -21.0855  -11.3719 C   0  0  0  0  0  0  0  0  0  0  0  0
   20.3322  -20.5111  -11.7145 O   0  0  0  0  0  0  0  0  0  0  0  0
   21.9513  -18.9164  -15.4710 O   0  0  0  0  0  0  0  0  0  0  0  0
   21.5050  -21.9037  -10.4214 O   0  0  0  0  0  0  0  0  0  0  0  0
  1  2  1  0
  3  4  2  0
  3  2  1  0
  5  3  1  0
  6  5  1  0
  6  7  1  1
  8  7  1  0
  9  8  2  0
 10 11  1  0
 10  9  1  0
 11 16  2  0
 12 11  1  0
 12 13  2  0
 13 14  1  0
 14 15  2  0
 16  8  1  0
 16 15  1  0
 17 19  1  0
 17  6  1  0
 18 17  2  0
 20 25  1  0
 20 19  1  0
 20 21  1  6
 22 21  1  0
 23 22  1  0
 24 23  2  0
 25 26  1  0
 27 23  1  0
 28 25  2  0
M  END
$$$$
