QDN.pdb
     RDKit          3D

 26 25  0  0  1  0  0  0  0  0999 V2000
   13.9127  -12.8776  -12.5334 N   0  0  0  0  0  0  0  0  0  0  0  0
   14.7056  -13.5876  -11.5638 C   0  0  0  0  0  0  0  0  0  0  0  0
   14.6260  -14.8191  -11.5828 O   0  0  0  0  0  0  0  0  0  0  0  0
   15.5181  -12.7511  -10.6638 C   0  0  0  0  0  0  0  0  0  0  0  0
   15.3794  -11.2862  -10.8528 C   0  0  0  0  0  0  0  0  0  0  0  0
   14.6790  -10.6379   -9.6940 C   0  0  2  0  0  0  0  0  0  0  0  0
   13.2823  -11.0853   -9.6365 N   0  0  0  0  0  0  0  0  0  0  0  0
   14.6609   -9.1679   -9.8804 C   0  0  0  0  0  0  0  0  0  0  0  0
   13.8759   -8.6706  -10.7205 O   0  0  0  0  0  0  0  0  0  0  0  0
   15.5116   -8.2921   -9.1321 N   0  0  0  0  0  0  0  0  0  0  0  0
   15.5024   -6.9018   -9.4337 C   0  0  1  0  0  0  0  0  0  0  0  0
   15.4926   -6.0772   -8.1773 C   0  0  0  0  0  0  0  0  0  0  0  0
   15.3308   -4.6462   -8.4863 C   0  0  0  0  0  0  0  0  0  0  0  0
   14.7270   -4.2635   -9.5051 O   0  0  0  0  0  0  0  0  0  0  0  0
   16.5965   -6.4739  -10.3178 C   0  0  0  0  0  0  0  0  0  0  0  0
   17.8147   -6.5987  -10.1172 O   0  0  0  0  0  0  0  0  0  0  0  0
   15.8600   -3.6609   -7.6287 O   0  0  0  0  0  0  0  0  0  0  0  0
   17.8775   -6.1067  -16.1077 N   0  0  0  0  0  0  0  0  0  0  0  0
   18.1471   -5.9863  -14.6947 C   0  0  0  0  0  0  0  0  0  0  0  0
   19.2977   -5.5737  -14.4187 O   0  0  0  0  0  0  0  0  0  0  0  0
   17.1094   -6.3368  -13.7067 C   0  0  0  0  0  0  0  0  0  0  0  0
   17.1621   -5.4100  -12.5206 C   0  0  2  0  0  0  0  0  0  0  0  0
   16.1942   -5.8399  -11.5537 N   0  0  0  0  0  0  0  0  0  0  0  0
   16.8916   -3.9934  -12.8717 C   0  0  0  0  0  0  0  0  0  0  0  0
   17.9603   -3.1268  -13.0451 O   0  0  0  0  0  0  0  0  0  0  0  0
   15.7352   -3.5222  -13.0242 O   0  0  0  0  0  0  0  0  0  0  0  0
  2  1  1  0
  2  3  2  0
  4  5  1  0
  4  2  1  0
  5  6  1  0
  6  7  1  6
  8  6  1  0
  8 10  1  0
  9  8  2  0
 11 10  1  0
 11 12  1  1
 13 14  2  0
 13 12  1  0
 15 11  1  0
 16 15  2  0
 17 13  1  0
 18 19  1  0
 19 21  1  0
 20 19  2  0
 22 21  1  6
 22 24  1  0
 22 23  1  0
 23 15  1  0
 24 25  1  0
 26 24  2  0
M  END
$$$$
