QDN.pdb
     RDKit          3D

 26 25  0  0  1  0  0  0  0  0999 V2000
   26.0572  -21.9494  -12.0291 N   0  0  0  0  0  0  0  0  0  0  0  0
   27.3658  -21.9174  -12.6288 C   0  0  0  0  0  0  0  0  0  0  0  0
   28.3202  -22.1462  -11.8805 O   0  0  0  0  0  0  0  0  0  0  0  0
   27.4034  -21.6131  -14.0696 C   0  0  0  0  0  0  0  0  0  0  0  0
   26.0818  -21.4795  -14.7301 C   0  0  0  0  0  0  0  0  0  0  0  0
   25.6707  -20.0424  -14.8701 C   0  0  2  0  0  0  0  0  0  0  0  0
   26.0052  -19.3024  -13.6475 N   0  0  0  0  0  0  0  0  0  0  0  0
   24.2016  -19.9581  -15.0452 C   0  0  0  0  0  0  0  0  0  0  0  0
   23.6794  -20.4716  -16.0615 O   0  0  0  0  0  0  0  0  0  0  0  0
   23.3542  -19.3082  -14.0911 N   0  0  0  0  0  0  0  0  0  0  0  0
   21.9542  -19.2563  -14.3384 C   0  0  1  0  0  0  0  0  0  0  0  0
   21.1770  -19.3071  -13.0531 C   0  0  0  0  0  0  0  0  0  0  0  0
   21.1863  -20.6655  -12.4838 C   0  0  0  0  0  0  0  0  0  0  0  0
   21.2662  -20.8576  -11.2567 O   0  0  0  0  0  0  0  0  0  0  0  0
   21.5314  -18.1030  -15.1464 C   0  0  0  0  0  0  0  0  0  0  0  0
   21.8294  -16.9120  -14.9663 O   0  0  0  0  0  0  0  0  0  0  0  0
   21.1042  -21.7966  -13.3207 O   0  0  0  0  0  0  0  0  0  0  0  0
   21.0990  -16.2183  -20.5762 N   0  0  0  0  0  0  0  0  0  0  0  0
   20.8284  -16.0972  -19.1634 C   0  0  0  0  0  0  0  0  0  0  0  0
   20.2286  -15.0465  -18.8375 O   0  0  0  0  0  0  0  0  0  0  0  0
   21.2503  -17.1600  -18.2315 C   0  0  0  0  0  0  0  0  0  0  0  0
   20.2164  -17.3738  -17.1571 C   0  0  2  0  0  0  0  0  0  0  0  0
   20.6750  -18.4046  -16.2720 N   0  0  0  0  0  0  0  0  0  0  0  0
   18.8866  -17.7587  -17.6923 C   0  0  0  0  0  0  0  0  0  0  0  0
   18.5058  -19.0917  -17.6546 O   0  0  0  0  0  0  0  0  0  0  0  0
   18.0704  -16.9386  -18.1859 O   0  0  0  0  0  0  0  0  0  0  0  0
  2  1  1  0
  2  3  2  0
  4  5  1  0
  4  2  1  0
  5  6  1  0
  6  7  1  1
  8  6  1  0
  8 10  1  0
  9  8  2  0
 11 10  1  0
 11 12  1  1
 13 14  2  0
 13 12  1  0
 15 11  1  0
 16 15  2  0
 17 13  1  0
 18 19  1  0
 19 21  1  0
 20 19  2  0
 22 21  1  6
 22 24  1  0
 22 23  1  0
 23 15  1  0
 24 25  1  0
 26 24  2  0
M  END
$$$$
