QDN.pdb
     RDKit          3D

 26 25  0  0  1  0  0  0  0  0999 V2000
   17.2682  -14.7750  -14.1092 N   0  0  0  0  0  0  0  0  0  0  0  0
   16.1053  -14.4785  -14.9045 C   0  0  0  0  0  0  0  0  0  0  0  0
   15.1907  -15.3066  -14.8726 O   0  0  0  0  0  0  0  0  0  0  0  0
   16.1518  -13.2163  -15.6625 C   0  0  0  0  0  0  0  0  0  0  0  0
   17.3658  -12.3893  -15.4546 C   0  0  0  0  0  0  0  0  0  0  0  0
   17.3066  -11.1062  -16.2316 C   0  0  2  0  0  0  0  0  0  0  0  0
   17.1697  -11.3920  -17.6647 N   0  0  0  0  0  0  0  0  0  0  0  0
   18.5720  -10.3557  -16.0534 C   0  0  0  0  0  0  0  0  0  0  0  0
   18.8720   -9.9305  -14.9139 O   0  0  0  0  0  0  0  0  0  0  0  0
   19.4673  -10.0979  -17.1408 N   0  0  0  0  0  0  0  0  0  0  0  0
   20.6520   -9.3502  -16.8931 C   0  0  1  0  0  0  0  0  0  0  0  0
   21.7043   -9.6496  -17.9235 C   0  0  0  0  0  0  0  0  0  0  0  0
   22.9861   -9.0170  -17.5683 C   0  0  0  0  0  0  0  0  0  0  0  0
   23.1238   -8.3704  -16.5137 O   0  0  0  0  0  0  0  0  0  0  0  0
   20.4340   -7.8997  -16.7913 C   0  0  0  0  0  0  0  0  0  0  0  0
   19.9353   -7.1547  -17.6492 O   0  0  0  0  0  0  0  0  0  0  0  0
   24.1032   -9.1274  -18.4205 O   0  0  0  0  0  0  0  0  0  0  0  0
   20.0438   -3.2736  -14.7309 N   0  0  0  0  0  0  0  0  0  0  0  0
   18.9689   -4.2324  -14.6360 C   0  0  0  0  0  0  0  0  0  0  0  0
   17.8602   -3.7405  -14.3212 O   0  0  0  0  0  0  0  0  0  0  0  0
   19.2211   -5.6615  -14.9005 C   0  0  0  0  0  0  0  0  0  0  0  0
   20.6542   -5.8881  -15.3051 C   0  0  2  0  0  0  0  0  0  0  0  0
   20.8506   -7.2874  -15.5492 N   0  0  0  0  0  0  0  0  0  0  0  0
   21.6299   -5.4390  -14.2808 C   0  0  0  0  0  0  0  0  0  0  0  0
   21.8424   -4.0801  -14.1033 O   0  0  0  0  0  0  0  0  0  0  0  0
   22.2868   -6.2264  -13.5519 O   0  0  0  0  0  0  0  0  0  0  0  0
  2  1  1  0
  2  3  2  0
  4  5  1  0
  4  2  1  0
  5  6  1  0
  6  7  1  6
  8  6  1  0
  8 10  1  0
  9  8  2  0
 11 10  1  0
 11 12  1  6
 13 14  2  0
 13 12  1  0
 15 11  1  0
 16 15  2  0
 17 13  1  0
 18 19  1  0
 19 21  1  0
 20 19  2  0
 22 21  1  1
 22 24  1  0
 22 23  1  0
 23 15  1  0
 24 25  1  0
 26 24  2  0
M  END
$$$$
