QDN.pdb
     RDKit          3D

 26 25  0  0  1  0  0  0  0  0999 V2000
   12.2478  -13.3688   -9.5981 N   0  0  0  0  0  0  0  0  0  0  0  0
   12.7796  -14.3558  -10.5014 C   0  0  0  0  0  0  0  0  0  0  0  0
   12.0182  -15.2705  -10.8280 O   0  0  0  0  0  0  0  0  0  0  0  0
   14.1752  -14.1503  -10.9259 C   0  0  0  0  0  0  0  0  0  0  0  0
   14.8473  -12.9555  -10.3589 C   0  0  0  0  0  0  0  0  0  0  0  0
   14.3357  -11.6842  -10.9717 C   0  0  2  0  0  0  0  0  0  0  0  0
   14.4898  -11.7317  -12.4306 N   0  0  0  0  0  0  0  0  0  0  0  0
   15.1367  -10.5369  -10.4836 C   0  0  0  0  0  0  0  0  0  0  0  0
   15.2598  -10.3619   -9.2494 O   0  0  0  0  0  0  0  0  0  0  0  0
   15.7774   -9.6176  -11.3753 N   0  0  0  0  0  0  0  0  0  0  0  0
   16.4135   -8.4658  -10.8345 C   0  0  1  0  0  0  0  0  0  0  0  0
   17.4652   -7.9405  -11.7708 C   0  0  0  0  0  0  0  0  0  0  0  0
   18.1849   -6.8036  -11.1719 C   0  0  0  0  0  0  0  0  0  0  0  0
   17.9125   -5.6274  -11.4742 O   0  0  0  0  0  0  0  0  0  0  0  0
   15.4842   -7.3916  -10.4548 C   0  0  0  0  0  0  0  0  0  0  0  0
   14.5649   -6.9184  -11.1410 O   0  0  0  0  0  0  0  0  0  0  0  0
   19.2120   -7.0178  -10.2308 O   0  0  0  0  0  0  0  0  0  0  0  0
   12.4446   -4.8877   -6.9299 N   0  0  0  0  0  0  0  0  0  0  0  0
   13.8258   -4.9747   -6.5195 C   0  0  0  0  0  0  0  0  0  0  0  0
   14.1642   -4.1351   -5.6530 O   0  0  0  0  0  0  0  0  0  0  0  0
   14.7149   -5.9923   -7.1109 C   0  0  0  0  0  0  0  0  0  0  0  0
   14.7820   -5.8421   -8.6082 C   0  0  2  0  0  0  0  0  0  0  0  0
   15.6734   -6.8349   -9.1335 N   0  0  0  0  0  0  0  0  0  0  0  0
   15.2489   -4.5016   -9.0420 C   0  0  0  0  0  0  0  0  0  0  0  0
   16.4931   -4.3841   -9.6433 O   0  0  0  0  0  0  0  0  0  0  0  0
   14.5762   -3.4487   -8.8960 O   0  0  0  0  0  0  0  0  0  0  0  0
  2  1  1  0
  2  3  2  0
  4  5  1  0
  4  2  1  0
  5  6  1  0
  6  7  1  6
  8  6  1  0
  8 10  1  0
  9  8  2  0
 11 10  1  0
 11 12  1  6
 13 14  2  0
 13 12  1  0
 15 11  1  0
 16 15  2  0
 17 13  1  0
 18 19  1  0
 19 21  1  0
 20 19  2  0
 22 21  1  1
 22 24  1  0
 22 23  1  0
 23 15  1  0
 24 25  1  0
 26 24  2  0
M  END
$$$$
