QDN.pdb
     RDKit          3D

 26 25  0  0  1  0  0  0  0  0999 V2000
   28.5181  -19.2114  -19.2042 N   0  0  0  0  0  0  0  0  0  0  0  0
   29.3362  -20.3953  -19.1597 C   0  0  0  0  0  0  0  0  0  0  0  0
   30.4110  -20.3449  -19.7642 O   0  0  0  0  0  0  0  0  0  0  0  0
   28.7853  -21.5267  -18.3940 C   0  0  0  0  0  0  0  0  0  0  0  0
   27.4602  -21.2922  -17.7696 C   0  0  0  0  0  0  0  0  0  0  0  0
   27.5802  -20.5626  -16.4631 C   0  0  2  0  0  0  0  0  0  0  0  0
   28.8073  -20.9718  -15.7696 N   0  0  0  0  0  0  0  0  0  0  0  0
   26.4409  -20.9196  -15.5853 C   0  0  0  0  0  0  0  0  0  0  0  0
   25.4543  -21.5125  -16.0796 O   0  0  0  0  0  0  0  0  0  0  0  0
   26.4270  -20.6100  -14.1872 N   0  0  0  0  0  0  0  0  0  0  0  0
   25.2413  -20.8561  -13.4406 C   0  0  1  0  0  0  0  0  0  0  0  0
   25.4815  -20.6681  -11.9691 C   0  0  0  0  0  0  0  0  0  0  0  0
   24.3758  -21.2335  -11.1772 C   0  0  0  0  0  0  0  0  0  0  0  0
   23.4103  -21.8023  -11.7188 O   0  0  0  0  0  0  0  0  0  0  0  0
   24.0840  -20.0603  -13.8757 C   0  0  0  0  0  0  0  0  0  0  0  0
   23.9824  -18.8236  -13.8762 O   0  0  0  0  0  0  0  0  0  0  0  0
   24.3801  -21.1453   -9.7705 O   0  0  0  0  0  0  0  0  0  0  0  0
   19.7398  -18.8402  -16.1493 N   0  0  0  0  0  0  0  0  0  0  0  0
   20.4910  -19.7954  -16.9286 C   0  0  0  0  0  0  0  0  0  0  0  0
   20.0911  -19.9326  -18.1082 O   0  0  0  0  0  0  0  0  0  0  0  0
   21.6267  -20.5183  -16.3258 C   0  0  0  0  0  0  0  0  0  0  0  0
   21.7812  -20.1589  -14.8713 C   0  0  2  0  0  0  0  0  0  0  0  0
   22.9466  -20.8147  -14.3536 N   0  0  0  0  0  0  0  0  0  0  0  0
   20.6091  -20.5427  -14.0455 C   0  0  0  0  0  0  0  0  0  0  0  0
   20.6936  -21.6671  -13.2380 O   0  0  0  0  0  0  0  0  0  0  0  0
   19.5267  -19.9018  -14.0319 O   0  0  0  0  0  0  0  0  0  0  0  0
  2  1  1  0
  2  3  2  0
  4  5  1  0
  4  2  1  0
  5  6  1  0
  6  7  1  1
  8  6  1  0
  8 10  1  0
  9  8  2  0
 11 10  1  0
 11 12  1  1
 13 14  2  0
 13 12  1  0
 15 11  1  0
 16 15  2  0
 17 13  1  0
 18 19  1  0
 19 21  1  0
 20 19  2  0
 22 21  1  6
 22 24  1  0
 22 23  1  0
 23 15  1  0
 24 25  1  0
 26 24  2  0
M  END
$$$$
