QDN.pdb
     RDKit          3D

 26 25  0  0  1  0  0  0  0  0999 V2000
   14.5880  -11.0802  -17.9492 N   0  0  0  0  0  0  0  0  0  0  0  0
   14.4785  -11.3112  -16.5323 C   0  0  0  0  0  0  0  0  0  0  0  0
   13.3353  -11.3743  -16.0714 O   0  0  0  0  0  0  0  0  0  0  0  0
   15.7520  -11.4439  -15.8041 C   0  0  0  0  0  0  0  0  0  0  0  0
   16.9773  -11.2379  -16.6148 C   0  0  0  0  0  0  0  0  0  0  0  0
   18.2238  -11.4245  -15.7993 C   0  0  2  0  0  0  0  0  0  0  0  0
   17.8839  -11.9654  -14.4779 N   0  0  0  0  0  0  0  0  0  0  0  0
   18.8785  -10.1131  -15.5808 C   0  0  0  0  0  0  0  0  0  0  0  0
   18.5837   -9.4483  -14.5609 O   0  0  0  0  0  0  0  0  0  0  0  0
   19.8393   -9.5764  -16.4970 N   0  0  0  0  0  0  0  0  0  0  0  0
   20.4215   -8.3087  -16.2179 C   0  0  1  0  0  0  0  0  0  0  0  0
   21.8506   -8.2579  -16.6802 C   0  0  0  0  0  0  0  0  0  0  0  0
   22.6596   -9.2897  -16.0092 C   0  0  0  0  0  0  0  0  0  0  0  0
   22.6105   -9.4574  -14.7769 O   0  0  0  0  0  0  0  0  0  0  0  0
   19.6670   -7.1705  -16.7627 C   0  0  0  0  0  0  0  0  0  0  0  0
   19.0775   -7.1150  -17.8533 O   0  0  0  0  0  0  0  0  0  0  0  0
   23.5201  -10.1239  -16.7508 O   0  0  0  0  0  0  0  0  0  0  0  0
   15.4853   -3.3828  -15.6939 N   0  0  0  0  0  0  0  0  0  0  0  0
   16.9192   -3.4573  -15.8429 C   0  0  0  0  0  0  0  0  0  0  0  0
   17.4553   -2.3988  -16.2457 O   0  0  0  0  0  0  0  0  0  0  0  0
   17.6357   -4.7080  -15.5297 C   0  0  0  0  0  0  0  0  0  0  0  0
   18.9035   -4.8171  -16.3357 C   0  0  2  0  0  0  0  0  0  0  0  0
   19.6136   -5.9932  -15.9247 N   0  0  0  0  0  0  0  0  0  0  0  0
   19.7965   -3.6412  -16.1845 C   0  0  0  0  0  0  0  0  0  0  0  0
   20.8881   -3.7297  -15.3337 O   0  0  0  0  0  0  0  0  0  0  0  0
   19.6225   -2.5520  -16.7894 O   0  0  0  0  0  0  0  0  0  0  0  0
  2  1  1  0
  2  3  2  0
  4  5  1  0
  4  2  1  0
  5  6  1  0
  6  7  1  1
  8  6  1  0
  8 10  1  0
  9  8  2  0
 11 10  1  0
 11 12  1  6
 13 14  2  0
 13 12  1  0
 15 11  1  0
 16 15  2  0
 17 13  1  0
 18 19  1  0
 19 21  1  0
 20 19  2  0
 22 21  1  1
 22 24  1  0
 22 23  1  0
 23 15  1  0
 24 25  1  0
 26 24  2  0
M  END
$$$$
