QDN.pdb
     RDKit          3D

 26 25  0  0  1  0  0  0  0  0999 V2000
   15.8213  -15.4424  -14.6985 N   0  0  0  0  0  0  0  0  0  0  0  0
   16.0402  -15.2984  -16.1142 C   0  0  0  0  0  0  0  0  0  0  0  0
   16.4215  -16.3052  -16.7177 O   0  0  0  0  0  0  0  0  0  0  0  0
   15.7810  -13.9591  -16.6700 C   0  0  0  0  0  0  0  0  0  0  0  0
   16.9853  -13.1744  -17.0371 C   0  0  0  0  0  0  0  0  0  0  0  0
   17.6026  -12.5079  -15.8420 C   0  0  2  0  0  0  0  0  0  0  0  0
   16.8205  -12.8109  -14.6374 N   0  0  0  0  0  0  0  0  0  0  0  0
   17.5777  -11.0371  -16.0221 C   0  0  0  0  0  0  0  0  0  0  0  0
   18.1685  -10.5344  -17.0056 O   0  0  0  0  0  0  0  0  0  0  0  0
   16.9001  -10.1667  -15.1089 N   0  0  0  0  0  0  0  0  0  0  0  0
   16.9316   -8.7641  -15.3449 C   0  0  1  0  0  0  0  0  0  0  0  0
   15.5623   -8.1618  -15.2000 C   0  0  0  0  0  0  0  0  0  0  0  0
   15.5428   -6.7718  -15.6868 C   0  0  0  0  0  0  0  0  0  0  0  0
   15.5460   -5.8060  -14.9017 O   0  0  0  0  0  0  0  0  0  0  0  0
   17.9005   -8.0383  -14.5106 C   0  0  0  0  0  0  0  0  0  0  0  0
   18.3263   -8.3721  -13.3938 O   0  0  0  0  0  0  0  0  0  0  0  0
   15.5197   -6.4939  -17.0683 O   0  0  0  0  0  0  0  0  0  0  0  0
   23.2091   -7.1363  -15.3388 N   0  0  0  0  0  0  0  0  0  0  0  0
   22.0669   -6.7952  -14.5246 C   0  0  0  0  0  0  0  0  0  0  0  0
   22.3255   -6.0445  -13.5553 O   0  0  0  0  0  0  0  0  0  0  0  0
   20.7303   -7.3210  -14.8605 C   0  0  0  0  0  0  0  0  0  0  0  0
   19.6730   -6.2666  -14.6626 C   0  0  2  0  0  0  0  0  0  0  0  0
   18.4048   -6.8015  -15.0648 N   0  0  0  0  0  0  0  0  0  0  0  0
   19.9341   -5.0239  -15.4311 C   0  0  0  0  0  0  0  0  0  0  0  0
   20.6414   -3.9949  -14.8274 O   0  0  0  0  0  0  0  0  0  0  0  0
   19.5480   -4.8426  -16.6145 O   0  0  0  0  0  0  0  0  0  0  0  0
  2  1  1  0
  2  3  2  0
  4  5  1  0
  4  2  1  0
  5  6  1  0
  6  7  1  1
  8  6  1  0
  8 10  1  0
  9  8  2  0
 11 10  1  0
 11 12  1  1
 13 14  2  0
 13 12  1  0
 15 11  1  0
 16 15  2  0
 17 13  1  0
 18 19  1  0
 19 21  1  0
 20 19  2  0
 22 21  1  6
 22 24  1  0
 22 23  1  0
 23 15  1  0
 24 25  1  0
 26 24  2  0
M  END
$$$$
