QDN.pdb
     RDKit          3D

 26 25  0  0  1  0  0  0  0  0999 V2000
   21.3686  -15.5901  -17.5563 N   0  0  0  0  0  0  0  0  0  0  0  0
   21.4004  -14.3962  -18.3603 C   0  0  0  0  0  0  0  0  0  0  0  0
   22.5166  -13.9738  -18.6749 O   0  0  0  0  0  0  0  0  0  0  0  0
   20.0890  -13.8232  -18.7093 C   0  0  0  0  0  0  0  0  0  0  0  0
   19.9596  -12.3578  -18.5181 C   0  0  0  0  0  0  0  0  0  0  0  0
   20.2036  -11.9574  -17.0920 C   0  0  2  0  0  0  0  0  0  0  0  0
   19.3478  -12.7437  -16.1955 N   0  0  0  0  0  0  0  0  0  0  0  0
   19.8423  -10.5325  -16.9045 C   0  0  0  0  0  0  0  0  0  0  0  0
   20.3735   -9.6682  -17.6394 O   0  0  0  0  0  0  0  0  0  0  0  0
   18.9044  -10.1063  -15.9098 N   0  0  0  0  0  0  0  0  0  0  0  0
   18.5229   -8.7364  -15.8671 C   0  0  1  0  0  0  0  0  0  0  0  0
   17.0802   -8.5902  -15.4723 C   0  0  0  0  0  0  0  0  0  0  0  0
   16.2069   -9.3710  -16.3650 C   0  0  0  0  0  0  0  0  0  0  0  0
   16.0432   -9.0543  -17.5575 O   0  0  0  0  0  0  0  0  0  0  0  0
   19.3757   -7.9042  -15.0058 C   0  0  0  0  0  0  0  0  0  0  0  0
   19.8163   -8.1940  -13.8825 O   0  0  0  0  0  0  0  0  0  0  0  0
   15.5256  -10.5095  -15.8894 O   0  0  0  0  0  0  0  0  0  0  0  0
   22.2541   -3.8330  -13.7097 N   0  0  0  0  0  0  0  0  0  0  0  0
   22.7173   -4.5163  -14.8938 C   0  0  0  0  0  0  0  0  0  0  0  0
   23.8669   -4.1865  -15.2677 O   0  0  0  0  0  0  0  0  0  0  0  0
   21.8581   -5.5115  -15.5625 C   0  0  0  0  0  0  0  0  0  0  0  0
   20.5707   -5.7052  -14.8050 C   0  0  2  0  0  0  0  0  0  0  0  0
   19.7330   -6.6083  -15.5391 N   0  0  0  0  0  0  0  0  0  0  0  0
   19.8283   -4.4400  -14.5789 C   0  0  0  0  0  0  0  0  0  0  0  0
   20.1391   -3.6656  -13.4712 O   0  0  0  0  0  0  0  0  0  0  0  0
   18.9203   -4.0194  -15.3413 O   0  0  0  0  0  0  0  0  0  0  0  0
  2  1  1  0
  2  3  2  0
  4  5  1  0
  4  2  1  0
  5  6  1  0
  6  7  1  1
  8  6  1  0
  8 10  1  0
  9  8  2  0
 11 10  1  0
 11 12  1  1
 13 14  2  0
 13 12  1  0
 15 11  1  0
 16 15  2  0
 17 13  1  0
 18 19  1  0
 19 21  1  0
 20 19  2  0
 22 21  1  6
 22 24  1  0
 22 23  1  0
 23 15  1  0
 24 25  1  0
 26 24  2  0
M  END
$$$$
