QDN.pdb
     RDKit          3D

 26 25  0  0  1  0  0  0  0  0999 V2000
   18.1864  -15.2896  -16.0142 N   0  0  0  0  0  0  0  0  0  0  0  0
   16.7694  -15.5428  -15.9853 C   0  0  0  0  0  0  0  0  0  0  0  0
   16.3955  -16.6319  -16.4294 O   0  0  0  0  0  0  0  0  0  0  0  0
   15.9367  -14.4639  -15.4263 C   0  0  0  0  0  0  0  0  0  0  0  0
   16.6722  -13.2595  -14.9688 C   0  0  0  0  0  0  0  0  0  0  0  0
   16.5552  -12.1284  -15.9489 C   0  0  2  0  0  0  0  0  0  0  0  0
   17.2043  -12.4906  -17.2145 N   0  0  0  0  0  0  0  0  0  0  0  0
   17.2587  -10.9356  -15.4213 C   0  0  0  0  0  0  0  0  0  0  0  0
   16.8369  -10.3944  -14.3732 O   0  0  0  0  0  0  0  0  0  0  0  0
   18.4075  -10.3773  -16.0687 N   0  0  0  0  0  0  0  0  0  0  0  0
   19.0024   -9.2060  -15.5228 C   0  0  1  0  0  0  0  0  0  0  0  0
   20.4999   -9.3279  -15.4872 C   0  0  0  0  0  0  0  0  0  0  0  0
   21.1052   -8.1922  -14.7708 C   0  0  0  0  0  0  0  0  0  0  0  0
   20.4067   -7.3321  -14.2038 O   0  0  0  0  0  0  0  0  0  0  0  0
   18.6066   -7.9623  -16.1998 C   0  0  0  0  0  0  0  0  0  0  0  0
   18.6477   -7.7259  -17.4173 O   0  0  0  0  0  0  0  0  0  0  0  0
   22.5056   -8.0463  -14.7066 O   0  0  0  0  0  0  0  0  0  0  0  0
   16.6659   -3.2254  -16.6676 N   0  0  0  0  0  0  0  0  0  0  0  0
   16.0094   -3.8713  -15.5561 C   0  0  0  0  0  0  0  0  0  0  0  0
   15.0408   -3.2327  -15.0825 O   0  0  0  0  0  0  0  0  0  0  0  0
   16.4889   -5.1770  -15.0654 C   0  0  0  0  0  0  0  0  0  0  0  0
   17.6623   -5.6582  -15.8781 C   0  0  2  0  0  0  0  0  0  0  0  0
   18.1167   -6.9075  -15.3404 N   0  0  0  0  0  0  0  0  0  0  0  0
   18.7971   -4.7016  -15.8915 C   0  0  0  0  0  0  0  0  0  0  0  0
   19.8934   -4.9459  -15.0779 O   0  0  0  0  0  0  0  0  0  0  0  0
   18.8273   -3.6666  -16.6059 O   0  0  0  0  0  0  0  0  0  0  0  0
  2  1  1  0
  2  3  2  0
  4  5  1  0
  4  2  1  0
  5  6  1  0
  6  7  1  6
  8  6  1  0
  8 10  1  0
  9  8  2  0
 11 10  1  0
 11 12  1  6
 13 14  2  0
 13 12  1  0
 15 11  1  0
 16 15  2  0
 17 13  1  0
 18 19  1  0
 19 21  1  0
 20 19  2  0
 22 21  1  1
 22 24  1  0
 22 23  1  0
 23 15  1  0
 24 25  1  0
 26 24  2  0
M  END
$$$$
