NFY.pdb
     RDKit          3D

 32 33  0  0  1  0  0  0  0  0999 V2000
    2.5507  -20.1857   19.9031 N   0  0  0  0  0  0  0  0  0  0  0  0
    2.6092  -19.7660   21.2470 C   0  0  0  0  0  0  0  0  0  0  0  0
    2.0807  -20.4383   22.1534 O   0  0  0  0  0  0  0  0  0  0  0  0
    3.3067  -18.5112   21.5889 C   0  0  0  0  0  0  0  0  0  0  0  0
    4.6045  -18.8720   22.2586 C   0  0  2  0  0  0  0  0  0  0  0  0
    4.4228  -19.5828   23.4862 N   0  0  0  0  0  0  0  0  0  0  0  0
    5.3369  -17.6045   22.5138 C   0  0  0  0  0  0  0  0  0  0  0  0
    5.5494  -16.7689   21.5890 O   0  0  0  0  0  0  0  0  0  0  0  0
    5.8029  -17.3274   23.8078 N   0  0  0  0  0  0  0  0  0  0  0  0
    6.5733  -16.1257   24.1694 C   0  0  1  0  0  0  0  0  0  0  0  0
    6.3024  -15.9394   25.6197 C   0  0  0  0  0  0  0  0  0  0  0  0
    6.7166  -14.7006   26.2439 C   0  0  0  0  0  0  0  0  0  0  0  0
    5.9854  -13.5325   26.2964 C   0  0  0  0  0  0  0  0  0  0  0  0
    6.4384  -12.3951   26.9249 C   0  0  0  0  0  0  0  0  0  0  0  0
    7.6783  -12.3868   27.5423 C   0  0  0  0  0  0  0  0  0  0  0  0
    8.4198  -13.5410   27.4998 C   0  0  0  0  0  0  0  0  0  0  0  0
    7.9599  -14.6774   26.8684 C   0  0  0  0  0  0  0  0  0  0  0  0
    7.9829  -16.4240   23.8232 C   0  0  0  0  0  0  0  0  0  0  0  0
    8.4463  -17.6176   23.8486 O   0  0  0  0  0  0  0  0  0  0  0  0
    7.0341  -13.3376   17.9836 O   0  0  0  0  0  0  0  0  0  0  0  0
    7.9167  -13.6219   18.9897 C   0  0  0  0  0  0  0  0  0  0  0  0
    8.0339  -12.8333   20.1120 C   0  0  0  0  0  0  0  0  0  0  0  0
    8.9553  -13.2185   21.0570 C   0  0  0  0  0  0  0  0  0  0  0  0
    9.7604  -14.3323   20.9520 C   0  0  0  0  0  0  0  0  0  0  0  0
   10.7471  -14.7152   21.9841 C   0  0  0  0  0  0  0  0  0  0  0  0
   10.2441  -15.7888   22.8844 C   0  0  2  0  0  0  0  0  0  0  0  0
    8.9331  -15.4367   23.4368 N   0  0  0  0  0  0  0  0  0  0  0  0
   11.1386  -16.2044   23.9632 C   0  0  0  0  0  0  0  0  0  0  0  0
   10.7858  -16.0556   25.1839 O   0  0  0  0  0  0  0  0  0  0  0  0
    9.6309  -15.1139   19.8199 C   0  0  0  0  0  0  0  0  0  0  0  0
    8.7165  -14.7514   18.8589 C   0  0  0  0  0  0  0  0  0  0  0  0
   12.3855  -16.7695   23.7918 O   0  0  0  0  0  0  0  0  0  0  0  0
  1  2  1  0
  2  3  2  0
  4  5  1  0
  4  2  1  0
  5  6  1  1
  7  9  1  0
  7  5  1  0
  8  7  2  0
 10  9  1  0
 10 11  1  1
 11 12  1  0
 12 17  1  0
 12 13  2  0
 13 14  1  0
 14 15  2  0
 16 15  1  0
 17 16  2  0
 18 27  1  0
 18 10  1  0
 19 18  2  0
 20 21  1  0
 21 31  2  0
 22 21  1  0
 22 23  2  0
 23 24  1  0
 24 30  2  0
 24 25  1  0
 26 25  1  1
 26 28  1  0
 26 27  1  0
 28 32  1  0
 29 28  2  0
 31 30  1  0
M  END
$$$$
