NFY.pdb
     RDKit          3D

 32 33  0  0  1  0  0  0  0  0999 V2000
   11.0143  -17.9043   16.1261 N   0  0  0  0  0  0  0  0  0  0  0  0
    9.8273  -17.5537   16.7997 C   0  0  0  0  0  0  0  0  0  0  0  0
    8.7400  -18.0857   16.5041 O   0  0  0  0  0  0  0  0  0  0  0  0
    9.8701  -16.5410   17.8724 C   0  0  0  0  0  0  0  0  0  0  0  0
    9.7044  -17.2535   19.1869 C   0  0  2  0  0  0  0  0  0  0  0  0
    8.4434  -17.9171   19.3094 N   0  0  0  0  0  0  0  0  0  0  0  0
    9.8452  -16.2366   20.2611 C   0  0  0  0  0  0  0  0  0  0  0  0
   10.8463  -15.4659   20.3114 O   0  0  0  0  0  0  0  0  0  0  0  0
    8.8469  -16.1276   21.2408 N   0  0  0  0  0  0  0  0  0  0  0  0
    8.9120  -15.2076   22.3887 C   0  0  1  0  0  0  0  0  0  0  0  0
    7.4928  -14.8503   22.6530 C   0  0  0  0  0  0  0  0  0  0  0  0
    7.1958  -14.0050   23.7901 C   0  0  0  0  0  0  0  0  0  0  0  0
    7.4879  -12.6619   23.9028 C   0  0  0  0  0  0  0  0  0  0  0  0
    7.1582  -11.9161   25.0115 C   0  0  0  0  0  0  0  0  0  0  0  0
    6.5042  -12.5072   26.0798 C   0  0  0  0  0  0  0  0  0  0  0  0
    6.2057  -13.8435   25.9846 C   0  0  0  0  0  0  0  0  0  0  0  0
    6.5387  -14.5851   24.8708 C   0  0  0  0  0  0  0  0  0  0  0  0
    9.5880  -15.9555   23.4747 C   0  0  0  0  0  0  0  0  0  0  0  0
    9.3126  -17.1813   23.7231 O   0  0  0  0  0  0  0  0  0  0  0  0
   11.0948  -16.3727   32.0390 O   0  0  0  0  0  0  0  0  0  0  0  0
   11.0561  -16.0247   30.7163 C   0  0  0  0  0  0  0  0  0  0  0  0
   11.7781  -16.6968   29.7560 C   0  0  0  0  0  0  0  0  0  0  0  0
   11.6599  -16.2568   28.4587 C   0  0  0  0  0  0  0  0  0  0  0  0
   10.8728  -15.1964   28.0640 C   0  0  0  0  0  0  0  0  0  0  0  0
   10.7731  -14.7438   26.6602 C   0  0  0  0  0  0  0  0  0  0  0  0
   10.8017  -15.8745   25.6924 C   0  0  2  0  0  0  0  0  0  0  0  0
   10.5853  -15.3973   24.3238 N   0  0  0  0  0  0  0  0  0  0  0  0
    9.9032  -16.9929   25.9728 C   0  0  0  0  0  0  0  0  0  0  0  0
   10.3524  -18.0546   26.5276 O   0  0  0  0  0  0  0  0  0  0  0  0
   10.1541  -14.5321   29.0394 C   0  0  0  0  0  0  0  0  0  0  0  0
   10.2540  -14.9517   30.3451 C   0  0  0  0  0  0  0  0  0  0  0  0
    8.5538  -17.0224   25.6874 O   0  0  0  0  0  0  0  0  0  0  0  0
  1  2  1  0
  2  3  2  0
  4  5  1  0
  4  2  1  0
  5  6  1  6
  7  9  1  0
  7  5  1  0
  8  7  2  0
 10  9  1  0
 10 11  1  1
 11 12  1  0
 12 17  1  0
 12 13  2  0
 13 14  1  0
 14 15  2  0
 16 15  1  0
 17 16  2  0
 18 27  1  0
 18 10  1  0
 19 18  2  0
 20 21  1  0
 21 31  2  0
 22 21  1  0
 22 23  2  0
 23 24  1  0
 24 30  2  0
 24 25  1  0
 26 25  1  1
 26 28  1  0
 26 27  1  0
 28 32  1  0
 29 28  2  0
 31 30  1  0
M  END
$$$$
