NFY.pdb
     RDKit          3D

 32 33  0  0  1  0  0  0  0  0999 V2000
    9.9773  -19.2597   17.8710 N   0  0  0  0  0  0  0  0  0  0  0  0
   10.3076  -17.9710   17.4066 C   0  0  0  0  0  0  0  0  0  0  0  0
   10.7076  -17.7915   16.2402 O   0  0  0  0  0  0  0  0  0  0  0  0
   10.1786  -16.8141   18.3140 C   0  0  0  0  0  0  0  0  0  0  0  0
    9.8508  -17.3375   19.6857 C   0  0  2  0  0  0  0  0  0  0  0  0
    8.5574  -17.9435   19.7597 N   0  0  0  0  0  0  0  0  0  0  0  0
    9.9235  -16.1888   20.6255 C   0  0  0  0  0  0  0  0  0  0  0  0
   10.9538  -15.4592   20.6953 O   0  0  0  0  0  0  0  0  0  0  0  0
    8.8267  -15.9062   21.4532 N   0  0  0  0  0  0  0  0  0  0  0  0
    8.8135  -14.8460   22.4751 C   0  0  1  0  0  0  0  0  0  0  0  0
    7.3899  -14.7608   22.8965 C   0  0  0  0  0  0  0  0  0  0  0  0
    7.0504  -13.8927   24.0042 C   0  0  0  0  0  0  0  0  0  0  0  0
    6.4266  -14.2733   25.1737 C   0  0  0  0  0  0  0  0  0  0  0  0
    6.1506  -13.3921   26.1942 C   0  0  0  0  0  0  0  0  0  0  0  0
    6.5002  -12.0571   26.0760 C   0  0  0  0  0  0  0  0  0  0  0  0
    7.1219  -11.6607   24.9184 C   0  0  0  0  0  0  0  0  0  0  0  0
    7.3958  -12.5488   23.8996 C   0  0  0  0  0  0  0  0  0  0  0  0
    9.7594  -15.2820   23.5291 C   0  0  0  0  0  0  0  0  0  0  0  0
   10.9701  -14.8660   23.5639 O   0  0  0  0  0  0  0  0  0  0  0  0
   11.7489  -16.1140   32.0032 O   0  0  0  0  0  0  0  0  0  0  0  0
   11.1451  -15.9915   30.7815 C   0  0  0  0  0  0  0  0  0  0  0  0
   11.0362  -14.7831   30.1310 C   0  0  0  0  0  0  0  0  0  0  0  0
   10.4089  -14.7826   28.9074 C   0  0  0  0  0  0  0  0  0  0  0  0
    9.8879  -15.9039   28.2983 C   0  0  0  0  0  0  0  0  0  0  0  0
    9.2126  -15.8681   26.9837 C   0  0  0  0  0  0  0  0  0  0  0  0
   10.1337  -16.1908   25.8598 C   0  0  2  0  0  0  0  0  0  0  0  0
    9.4204  -16.1813   24.5795 N   0  0  0  0  0  0  0  0  0  0  0  0
   10.9048  -17.4263   25.9857 C   0  0  0  0  0  0  0  0  0  0  0  0
   12.0263  -17.4239   26.6014 O   0  0  0  0  0  0  0  0  0  0  0  0
   10.0051  -17.1093   28.9636 C   0  0  0  0  0  0  0  0  0  0  0  0
   10.6283  -17.1381   30.1891 C   0  0  0  0  0  0  0  0  0  0  0  0
   10.5286  -18.6555   25.4849 O   0  0  0  0  0  0  0  0  0  0  0  0
  1  2  1  0
  2  3  2  0
  4  5  1  0
  4  2  1  0
  5  6  1  6
  7  9  1  0
  7  5  1  0
  8  7  2  0
 10  9  1  0
 10 11  1  1
 11 12  1  0
 12 17  1  0
 12 13  2  0
 13 14  1  0
 14 15  2  0
 16 15  1  0
 17 16  2  0
 18 27  1  0
 18 10  1  0
 19 18  2  0
 20 21  1  0
 21 31  2  0
 22 21  1  0
 22 23  2  0
 23 24  1  0
 24 30  2  0
 24 25  1  0
 26 25  1  1
 26 28  1  0
 26 27  1  0
 28 32  1  0
 29 28  2  0
 31 30  1  0
M  END
$$$$
