NFY.pdb
     RDKit          3D

 32 33  0  0  1  0  0  0  0  0999 V2000
    5.9553  -21.9952   21.2191 N   0  0  0  0  0  0  0  0  0  0  0  0
    7.2615  -21.4736   21.3056 C   0  0  0  0  0  0  0  0  0  0  0  0
    8.2479  -22.1511   20.9582 O   0  0  0  0  0  0  0  0  0  0  0  0
    7.4669  -20.1038   21.8150 C   0  0  0  0  0  0  0  0  0  0  0  0
    6.1216  -19.5428   22.1868 C   0  0  2  0  0  0  0  0  0  0  0  0
    5.1223  -19.7769   21.1908 N   0  0  0  0  0  0  0  0  0  0  0  0
    6.2945  -18.0815   22.3935 C   0  0  0  0  0  0  0  0  0  0  0  0
    6.3016  -17.2749   21.4199 O   0  0  0  0  0  0  0  0  0  0  0  0
    6.4528  -17.5846   23.6959 N   0  0  0  0  0  0  0  0  0  0  0  0
    6.7303  -16.1740   24.0145 C   0  0  1  0  0  0  0  0  0  0  0  0
    6.8217  -16.1446   25.4986 C   0  0  0  0  0  0  0  0  0  0  0  0
    6.9752  -14.8627   26.1537 C   0  0  0  0  0  0  0  0  0  0  0  0
    6.0099  -13.8836   26.2606 C   0  0  0  0  0  0  0  0  0  0  0  0
    6.2234  -12.6924   26.9159 C   0  0  0  0  0  0  0  0  0  0  0  0
    7.4492  -12.4312   27.5055 C   0  0  0  0  0  0  0  0  0  0  0  0
    8.4218  -13.3949   27.4088 C   0  0  0  0  0  0  0  0  0  0  0  0
    8.2014  -14.5865   26.7508 C   0  0  0  0  0  0  0  0  0  0  0  0
    7.9810  -15.8310   23.2976 C   0  0  0  0  0  0  0  0  0  0  0  0
    8.0136  -14.9262   22.3919 O   0  0  0  0  0  0  0  0  0  0  0  0
    7.4353  -13.3609   18.1898 O   0  0  0  0  0  0  0  0  0  0  0  0
    8.0932  -13.5801   19.3693 C   0  0  0  0  0  0  0  0  0  0  0  0
    7.6021  -13.1439   20.5792 C   0  0  0  0  0  0  0  0  0  0  0  0
    8.3507  -13.4226   21.6984 C   0  0  0  0  0  0  0  0  0  0  0  0
    9.5490  -14.1036   21.6848 C   0  0  0  0  0  0  0  0  0  0  0  0
   10.3335  -14.3812   22.9066 C   0  0  0  0  0  0  0  0  0  0  0  0
   10.5064  -15.8387   23.1552 C   0  0  2  0  0  0  0  0  0  0  0  0
    9.2357  -16.4577   23.5427 N   0  0  0  0  0  0  0  0  0  0  0  0
   11.5497  -16.2165   24.1068 C   0  0  0  0  0  0  0  0  0  0  0  0
   11.2467  -16.8584   25.1712 O   0  0  0  0  0  0  0  0  0  0  0  0
   10.0286  -14.5351   20.4629 C   0  0  0  0  0  0  0  0  0  0  0  0
    9.2995  -14.2698   19.3275 C   0  0  0  0  0  0  0  0  0  0  0  0
   12.8939  -15.9391   23.9678 O   0  0  0  0  0  0  0  0  0  0  0  0
  1  2  1  0
  2  3  2  0
  4  5  1  0
  4  2  1  0
  5  6  1  6
  7  9  1  0
  7  5  1  0
  8  7  2  0
 10  9  1  0
 10 11  1  1
 11 12  1  0
 12 17  1  0
 12 13  2  0
 13 14  1  0
 14 15  2  0
 16 15  1  0
 17 16  2  0
 18 27  1  0
 18 10  1  0
 19 18  2  0
 20 21  1  0
 21 31  2  0
 22 21  1  0
 22 23  2  0
 23 24  1  0
 24 30  2  0
 24 25  1  0
 26 25  1  1
 26 28  1  0
 26 27  1  0
 28 32  1  0
 29 28  2  0
 31 30  1  0
M  END
$$$$
