NFY.pdb
     RDKit          3D

 32 33  0  0  1  0  0  0  0  0999 V2000
   12.5011  -19.8540   18.3065 N   0  0  0  0  0  0  0  0  0  0  0  0
   11.9496  -18.7014   17.7126 C   0  0  0  0  0  0  0  0  0  0  0  0
   12.0555  -18.4965   16.4880 O   0  0  0  0  0  0  0  0  0  0  0  0
   11.2348  -17.7201   18.5518 C   0  0  0  0  0  0  0  0  0  0  0  0
   11.2974  -18.1986   19.9766 C   0  0  2  0  0  0  0  0  0  0  0  0
   10.3963  -19.2761   20.2458 N   0  0  0  0  0  0  0  0  0  0  0  0
   10.9705  -17.0390   20.8465 C   0  0  0  0  0  0  0  0  0  0  0  0
   11.6504  -15.9738   20.8070 O   0  0  0  0  0  0  0  0  0  0  0  0
    9.8847  -17.1263   21.7306 N   0  0  0  0  0  0  0  0  0  0  0  0
    9.4568  -16.0373   22.6245 C   0  0  1  0  0  0  0  0  0  0  0  0
    8.0426  -15.7827   22.2411 C   0  0  0  0  0  0  0  0  0  0  0  0
    7.7323  -14.5640   21.5239 C   0  0  0  0  0  0  0  0  0  0  0  0
    7.1270  -14.4800   20.2876 C   0  0  0  0  0  0  0  0  0  0  0  0
    6.8466  -13.2810   19.6729 C   0  0  0  0  0  0  0  0  0  0  0  0
    7.1727  -12.0866   20.2937 C   0  0  0  0  0  0  0  0  0  0  0  0
    7.7759  -12.1514   21.5248 C   0  0  0  0  0  0  0  0  0  0  0  0
    8.0541  -13.3562   22.1353 C   0  0  0  0  0  0  0  0  0  0  0  0
    9.6567  -16.5383   24.0046 C   0  0  0  0  0  0  0  0  0  0  0  0
    9.6697  -17.7904   24.2730 O   0  0  0  0  0  0  0  0  0  0  0  0
    6.4733  -10.6965   26.2775 O   0  0  0  0  0  0  0  0  0  0  0  0
    6.8428  -12.0069   26.4137 C   0  0  0  0  0  0  0  0  0  0  0  0
    5.9848  -13.0471   26.1361 C   0  0  0  0  0  0  0  0  0  0  0  0
    6.4675  -14.3229   26.3097 C   0  0  0  0  0  0  0  0  0  0  0  0
    7.7423  -14.6220   26.7398 C   0  0  0  0  0  0  0  0  0  0  0  0
    8.2284  -16.0061   26.9230 C   0  0  0  0  0  0  0  0  0  0  0  0
    9.6481  -16.1722   26.5074 C   0  0  2  0  0  0  0  0  0  0  0  0
    9.8509  -15.6963   25.1362 N   0  0  0  0  0  0  0  0  0  0  0  0
   10.2158  -17.5112   26.6539 C   0  0  0  0  0  0  0  0  0  0  0  0
    9.5768  -18.5311   26.2201 O   0  0  0  0  0  0  0  0  0  0  0  0
    8.5916  -13.5672   27.0142 C   0  0  0  0  0  0  0  0  0  0  0  0
    8.1343  -12.2809   26.8488 C   0  0  0  0  0  0  0  0  0  0  0  0
   11.4302  -17.8026   27.2401 O   0  0  0  0  0  0  0  0  0  0  0  0
  1  2  1  0
  2  3  2  0
  4  5  1  0
  4  2  1  0
  5  6  1  6
  7  9  1  0
  7  5  1  0
  8  7  2  0
 10  9  1  0
 10 11  1  1
 11 12  1  0
 12 17  1  0
 12 13  2  0
 13 14  1  0
 14 15  2  0
 16 15  1  0
 17 16  2  0
 18 27  1  0
 18 10  1  0
 19 18  2  0
 20 21  1  0
 21 31  2  0
 22 21  1  0
 22 23  2  0
 23 24  1  0
 24 30  2  0
 24 25  1  0
 26 25  1  6
 26 28  1  0
 26 27  1  0
 28 32  1  0
 29 28  2  0
 31 30  1  0
M  END
$$$$
