NFY.pdb
     RDKit          3D

 32 33  0  0  1  0  0  0  0  0999 V2000
   13.9843  -19.1399   15.0917 N   0  0  0  0  0  0  0  0  0  0  0  0
   13.5216  -18.3802   13.9989 C   0  0  0  0  0  0  0  0  0  0  0  0
   13.7008  -18.7650   12.8273 O   0  0  0  0  0  0  0  0  0  0  0  0
   12.8131  -17.1087   14.2431 C   0  0  0  0  0  0  0  0  0  0  0  0
   11.5831  -17.4137   15.0535 C   0  0  2  0  0  0  0  0  0  0  0  0
   10.3939  -17.4839   14.2621 N   0  0  0  0  0  0  0  0  0  0  0  0
   11.4480  -16.3402   16.0720 C   0  0  0  0  0  0  0  0  0  0  0  0
   12.3903  -15.5296   16.3034 O   0  0  0  0  0  0  0  0  0  0  0  0
   10.2501  -16.2219   16.7926 N   0  0  0  0  0  0  0  0  0  0  0  0
   10.0321  -15.2542   17.8809 C   0  0  1  0  0  0  0  0  0  0  0  0
    8.5551  -15.0896   17.9346 C   0  0  0  0  0  0  0  0  0  0  0  0
    7.9838  -14.3571   19.0450 C   0  0  0  0  0  0  0  0  0  0  0  0
    7.2989  -14.9010   20.1113 C   0  0  0  0  0  0  0  0  0  0  0  0
    6.7975  -14.1409   21.1431 C   0  0  0  0  0  0  0  0  0  0  0  0
    6.9692  -12.7665   21.1437 C   0  0  0  0  0  0  0  0  0  0  0  0
    7.6486  -12.2081   20.0899 C   0  0  0  0  0  0  0  0  0  0  0  0
    8.1487  -12.9755   19.0591 C   0  0  0  0  0  0  0  0  0  0  0  0
   10.6454  -15.8530   19.0897 C   0  0  0  0  0  0  0  0  0  0  0  0
   10.6396  -17.1172   19.2941 O   0  0  0  0  0  0  0  0  0  0  0  0
   16.8629  -14.3364   17.4892 O   0  0  0  0  0  0  0  0  0  0  0  0
   15.9227  -14.4505   18.4767 C   0  0  0  0  0  0  0  0  0  0  0  0
   14.7580  -13.7165   18.4738 C   0  0  0  0  0  0  0  0  0  0  0  0
   13.8873  -13.9158   19.5191 C   0  0  0  0  0  0  0  0  0  0  0  0
   14.1054  -14.7945   20.5584 C   0  0  0  0  0  0  0  0  0  0  0  0
   13.1510  -14.9803   21.6720 C   0  0  0  0  0  0  0  0  0  0  0  0
   11.9357  -15.7360   21.2622 C   0  0  2  0  0  0  0  0  0  0  0  0
   11.2860  -15.0987   20.1134 N   0  0  0  0  0  0  0  0  0  0  0  0
   10.9471  -15.9935   22.3077 C   0  0  0  0  0  0  0  0  0  0  0  0
   11.2705  -16.6675   23.3459 O   0  0  0  0  0  0  0  0  0  0  0  0
   15.2788  -15.5240   20.5471 C   0  0  0  0  0  0  0  0  0  0  0  0
   16.1673  -15.3442   19.5130 C   0  0  0  0  0  0  0  0  0  0  0  0
    9.6367  -15.5624   22.2896 O   0  0  0  0  0  0  0  0  0  0  0  0
  1  2  1  0
  2  3  2  0
  4  5  1  0
  4  2  1  0
  5  6  1  6
  7  9  1  0
  7  5  1  0
  8  7  2  0
 10  9  1  0
 10 11  1  1
 11 12  1  0
 12 17  1  0
 12 13  2  0
 13 14  1  0
 14 15  2  0
 16 15  1  0
 17 16  2  0
 18 27  1  0
 18 10  1  0
 19 18  2  0
 20 21  1  0
 21 31  2  0
 22 21  1  0
 22 23  2  0
 23 24  1  0
 24 30  2  0
 24 25  1  0
 26 25  1  1
 26 28  1  0
 26 27  1  0
 28 32  1  0
 29 28  2  0
 31 30  1  0
M  END
$$$$
