NFY.pdb
     RDKit          3D

 32 33  0  0  1  0  0  0  0  0999 V2000
    9.9718  -18.2786   17.2068 N   0  0  0  0  0  0  0  0  0  0  0  0
   11.0286  -17.3484   17.2654 C   0  0  0  0  0  0  0  0  0  0  0  0
   11.8428  -17.2415   16.3282 O   0  0  0  0  0  0  0  0  0  0  0  0
   11.1755  -16.4862   18.4542 C   0  0  0  0  0  0  0  0  0  0  0  0
   10.1763  -16.9426   19.4819 C   0  0  2  0  0  0  0  0  0  0  0  0
    8.8336  -16.9583   18.9896 N   0  0  0  0  0  0  0  0  0  0  0  0
   10.2780  -16.0156   20.6388 C   0  0  0  0  0  0  0  0  0  0  0  0
   11.3995  -15.6297   21.0768 O   0  0  0  0  0  0  0  0  0  0  0  0
    9.1059  -15.5576   21.2589 N   0  0  0  0  0  0  0  0  0  0  0  0
    9.0555  -14.9960   22.6191 C   0  0  1  0  0  0  0  0  0  0  0  0
    7.6410  -14.5689   22.7872 C   0  0  0  0  0  0  0  0  0  0  0  0
    7.2856  -13.8134   23.9699 C   0  0  0  0  0  0  0  0  0  0  0  0
    7.6012  -12.4938   24.2168 C   0  0  0  0  0  0  0  0  0  0  0  0
    7.2129  -11.8341   25.3605 C   0  0  0  0  0  0  0  0  0  0  0  0
    6.4720  -12.4930   26.3276 C   0  0  0  0  0  0  0  0  0  0  0  0
    6.1489  -13.8071   26.0983 C   0  0  0  0  0  0  0  0  0  0  0  0
    6.5410  -14.4623   24.9501 C   0  0  0  0  0  0  0  0  0  0  0  0
    9.5001  -16.0801   23.5262 C   0  0  0  0  0  0  0  0  0  0  0  0
   10.6487  -16.6333   23.4050 O   0  0  0  0  0  0  0  0  0  0  0  0
   11.8345  -16.0283   31.7131 O   0  0  0  0  0  0  0  0  0  0  0  0
   11.3681  -15.9501   30.4292 C   0  0  0  0  0  0  0  0  0  0  0  0
   11.8580  -16.7448   29.4174 C   0  0  0  0  0  0  0  0  0  0  0  0
   11.3120  -16.5772   28.1666 C   0  0  0  0  0  0  0  0  0  0  0  0
   10.3163  -15.6730   27.8657 C   0  0  0  0  0  0  0  0  0  0  0  0
    9.7552  -15.5126   26.5074 C   0  0  0  0  0  0  0  0  0  0  0  0
    9.2577  -16.7959   25.9401 C   0  0  2  0  0  0  0  0  0  0  0  0
    8.7129  -16.5965   24.5943 N   0  0  0  0  0  0  0  0  0  0  0  0
    8.2986  -17.5386   26.7556 C   0  0  0  0  0  0  0  0  0  0  0  0
    7.0434  -17.3312   26.6201 O   0  0  0  0  0  0  0  0  0  0  0  0
    9.8349  -14.8826   28.8918 C   0  0  0  0  0  0  0  0  0  0  0  0
   10.3634  -15.0300   30.1528 C   0  0  0  0  0  0  0  0  0  0  0  0
    8.6237  -18.4877   27.7027 O   0  0  0  0  0  0  0  0  0  0  0  0
  1  2  1  0
  2  3  2  0
  4  5  1  0
  4  2  1  0
  5  6  1  6
  7  9  1  0
  7  5  1  0
  8  7  2  0
 10  9  1  0
 10 11  1  1
 11 12  1  0
 12 17  1  0
 12 13  2  0
 13 14  1  0
 14 15  2  0
 16 15  1  0
 17 16  2  0
 18 27  1  0
 18 10  1  0
 19 18  2  0
 20 21  1  0
 21 31  2  0
 22 21  1  0
 22 23  2  0
 23 24  1  0
 24 30  2  0
 24 25  1  0
 26 25  1  1
 26 28  1  0
 26 27  1  0
 28 32  1  0
 29 28  2  0
 31 30  1  0
M  END
$$$$
