IWQ.pdb
     RDKit          3D

 32 33  0  0  1  0  0  0  0  0999 V2000
    6.4886  -12.6639   18.9107 C   0  0  0  0  0  0  0  0  0  0  0  0
    6.8440  -14.0899   19.2760 C   0  0  0  0  0  0  0  0  0  0  0  0
    7.9015  -14.0625   20.3209 C   0  0  2  0  0  0  0  0  0  0  0  0
    9.0558  -13.2173   19.8571 C   0  0  0  0  0  0  0  0  0  0  0  0
    8.3385  -15.4245   20.7947 C   0  0  2  0  0  0  0  0  0  0  0  0
    7.1319  -16.2198   20.9455 N   0  0  0  0  0  0  0  0  0  0  0  0
    9.1552  -15.3998   21.9993 C   0  0  0  0  0  0  0  0  0  0  0  0
   10.2900  -14.8822   21.9907 O   0  0  0  0  0  0  0  0  0  0  0  0
    8.6781  -15.9624   23.2043 N   0  0  0  0  0  0  0  0  0  0  0  0
    9.4295  -15.9497   24.4414 C   0  0  1  0  0  0  0  0  0  0  0  0
    8.5393  -16.2601   25.6099 C   0  0  0  0  0  0  0  0  0  0  0  0
    7.3962  -15.3154   25.6852 C   0  0  0  0  0  0  0  0  0  0  0  0
    6.0593  -15.5346   25.4305 C   0  0  0  0  0  0  0  0  0  0  0  0
    5.3666  -14.3911   25.6238 N   0  0  0  0  0  0  0  0  0  0  0  0
    6.2043  -13.4072   26.0024 C   0  0  0  0  0  0  0  0  0  0  0  0
    5.9749  -12.0851   26.3113 C   0  0  0  0  0  0  0  0  0  0  0  0
    7.0606  -11.3204   26.6707 C   0  0  0  0  0  0  0  0  0  0  0  0
    8.3453  -11.8688   26.7191 C   0  0  0  0  0  0  0  0  0  0  0  0
    8.5305  -13.1896   26.4040 C   0  0  0  0  0  0  0  0  0  0  0  0
    7.4757  -13.9738   26.0442 C   0  0  0  0  0  0  0  0  0  0  0  0
   10.5014  -17.0010   24.3912 C   0  0  0  0  0  0  0  0  0  0  0  0
   10.1978  -18.2172   24.3097 O   0  0  0  0  0  0  0  0  0  0  0  0
   17.7462  -17.7196   22.8464 N   0  0  0  0  0  0  0  0  0  0  0  0
   16.4459  -17.0904   22.8300 C   0  0  0  0  0  0  0  0  0  0  0  0
   16.3720  -15.9501   22.3128 O   0  0  0  0  0  0  0  0  0  0  0  0
   15.3261  -17.8472   23.4209 C   0  0  0  0  0  0  0  0  0  0  0  0
   14.1362  -16.9757   23.6427 C   0  0  0  0  0  0  0  0  0  0  0  0
   12.9562  -17.6421   24.2900 C   0  0  2  0  0  0  0  0  0  0  0  0
   11.8671  -16.6693   24.4336 N   0  0  0  0  0  0  0  0  0  0  0  0
   13.3122  -18.2213   25.6074 C   0  0  0  0  0  0  0  0  0  0  0  0
   14.0368  -19.3857   25.7043 O   0  0  0  0  0  0  0  0  0  0  0  0
   12.9429  -17.6343   26.6423 O   0  0  0  0  0  0  0  0  0  0  0  0
  2  1  1  0
  3  4  1  6
  3  2  1  0
  5  3  1  0
  5  6  1  1
  7  5  1  0
  7  8  2  0
  9  7  1  0
 10  9  1  0
 10 11  1  1
 12 11  1  0
 13 12  2  0
 14 13  1  0
 15 14  1  0
 15 20  2  0
 16 15  1  0
 17 16  2  0
 17 18  1  0
 18 19  2  0
 19 20  1  0
 20 12  1  0
 21 10  1  0
 22 21  2  0
 23 24  1  0
 24 25  2  0
 24 26  1  0
 26 27  1  0
 28 29  1  0
 28 27  1  1
 29 21  1  0
 30 28  1  0
 31 30  1  0
 32 30  2  0
M  END
$$$$
