IWQ.pdb
     RDKit          3D

 32 33  0  0  1  0  0  0  0  0999 V2000
    8.2254  -13.8123   16.3778 C   0  0  0  0  0  0  0  0  0  0  0  0
    6.9232  -13.8140   17.1510 C   0  0  0  0  0  0  0  0  0  0  0  0
    7.2183  -13.5164   18.5777 C   0  0  2  0  0  0  0  0  0  0  0  0
    7.8308  -12.1481   18.6978 C   0  0  0  0  0  0  0  0  0  0  0  0
    8.0325  -14.5754   19.2748 C   0  0  2  0  0  0  0  0  0  0  0  0
    7.4241  -15.8529   18.9450 N   0  0  0  0  0  0  0  0  0  0  0  0
    8.1728  -14.3677   20.7087 C   0  0  0  0  0  0  0  0  0  0  0  0
    8.2822  -13.2179   21.1795 O   0  0  0  0  0  0  0  0  0  0  0  0
    8.1877  -15.4661   21.5971 N   0  0  0  0  0  0  0  0  0  0  0  0
    8.3897  -15.3333   23.0243 C   0  0  1  0  0  0  0  0  0  0  0  0
    7.1636  -15.7588   23.7790 C   0  0  0  0  0  0  0  0  0  0  0  0
    7.2766  -15.4320   25.2230 C   0  0  0  0  0  0  0  0  0  0  0  0
    7.4849  -16.2695   26.2979 C   0  0  0  0  0  0  0  0  0  0  0  0
    7.5204  -15.5455   27.4378 N   0  0  0  0  0  0  0  0  0  0  0  0
    7.3410  -14.2408   27.1569 C   0  0  0  0  0  0  0  0  0  0  0  0
    7.2990  -13.1317   27.9717 C   0  0  0  0  0  0  0  0  0  0  0  0
    7.0967  -11.9108   27.3708 C   0  0  0  0  0  0  0  0  0  0  0  0
    6.9403  -11.8052   25.9859 C   0  0  0  0  0  0  0  0  0  0  0  0
    6.9887  -12.9341   25.2105 C   0  0  0  0  0  0  0  0  0  0  0  0
    7.1876  -14.1583   25.7752 C   0  0  0  0  0  0  0  0  0  0  0  0
    9.5235  -16.2185   23.4576 C   0  0  0  0  0  0  0  0  0  0  0  0
    9.3940  -17.4679   23.4534 O   0  0  0  0  0  0  0  0  0  0  0  0
   15.1364  -15.9119   22.5728 N   0  0  0  0  0  0  0  0  0  0  0  0
   15.2614  -16.6610   23.8018 C   0  0  0  0  0  0  0  0  0  0  0  0
   16.1332  -17.5623   23.8327 O   0  0  0  0  0  0  0  0  0  0  0  0
   14.3541  -16.2958   24.9060 C   0  0  0  0  0  0  0  0  0  0  0  0
   13.1214  -15.6260   24.3996 C   0  0  0  0  0  0  0  0  0  0  0  0
   11.9110  -16.5059   24.2730 C   0  0  2  0  0  0  0  0  0  0  0  0
   10.7563  -15.6903   23.8796 N   0  0  0  0  0  0  0  0  0  0  0  0
   11.6292  -17.2304   25.5353 C   0  0  0  0  0  0  0  0  0  0  0  0
   12.0067  -18.5412   25.7069 O   0  0  0  0  0  0  0  0  0  0  0  0
   11.0379  -16.6314   26.4536 O   0  0  0  0  0  0  0  0  0  0  0  0
  2  1  1  0
  3  4  1  6
  3  2  1  0
  5  3  1  0
  5  6  1  1
  7  5  1  0
  7  8  2  0
  9  7  1  0
 10  9  1  0
 10 11  1  1
 12 11  1  0
 13 12  2  0
 14 13  1  0
 15 14  1  0
 15 20  2  0
 16 15  1  0
 17 16  2  0
 17 18  1  0
 18 19  2  0
 19 20  1  0
 20 12  1  0
 21 10  1  0
 22 21  2  0
 23 24  1  0
 24 25  2  0
 24 26  1  0
 26 27  1  0
 28 29  1  0
 28 27  1  1
 29 21  1  0
 30 28  1  0
 31 30  1  0
 32 30  2  0
M  END
$$$$
