IWQ.pdb
     RDKit          3D

 32 33  0  0  1  0  0  0  0  0999 V2000
    7.5114  -19.0700   16.2285 C   0  0  0  0  0  0  0  0  0  0  0  0
    7.2462  -19.3831   17.6862 C   0  0  0  0  0  0  0  0  0  0  0  0
    8.1946  -18.5982   18.5201 C   0  0  2  0  0  0  0  0  0  0  0  0
    9.5996  -18.8007   18.0233 C   0  0  0  0  0  0  0  0  0  0  0  0
    8.0660  -18.8444   20.0011 C   0  0  2  0  0  0  0  0  0  0  0  0
    6.6685  -19.1523   20.2522 N   0  0  0  0  0  0  0  0  0  0  0  0
    8.5642  -17.7557   20.8289 C   0  0  0  0  0  0  0  0  0  0  0  0
    9.7493  -17.3771   20.7402 O   0  0  0  0  0  0  0  0  0  0  0  0
    7.7140  -17.1051   21.7508 N   0  0  0  0  0  0  0  0  0  0  0  0
    8.1595  -16.0534   22.6400 C   0  0  1  0  0  0  0  0  0  0  0  0
    6.9911  -15.2832   23.1837 C   0  0  0  0  0  0  0  0  0  0  0  0
    7.4383  -14.1387   24.0173 C   0  0  0  0  0  0  0  0  0  0  0  0
    8.4929  -13.2723   23.8238 C   0  0  0  0  0  0  0  0  0  0  0  0
    8.5347  -12.3751   24.8329 N   0  0  0  0  0  0  0  0  0  0  0  0
    7.5341  -12.6163   25.7012 C   0  0  0  0  0  0  0  0  0  0  0  0
    7.1688  -11.9824   26.8677 C   0  0  0  0  0  0  0  0  0  0  0  0
    6.0763  -12.4764   27.5423 C   0  0  0  0  0  0  0  0  0  0  0  0
    5.3676  -13.5796   27.0584 C   0  0  0  0  0  0  0  0  0  0  0  0
    5.7643  -14.1818   25.8930 C   0  0  0  0  0  0  0  0  0  0  0  0
    6.8422  -13.7165   25.2012 C   0  0  0  0  0  0  0  0  0  0  0  0
    8.8926  -16.6550   23.8051 C   0  0  0  0  0  0  0  0  0  0  0  0
    8.4234  -17.6529   24.4067 O   0  0  0  0  0  0  0  0  0  0  0  0
   14.9696  -16.4527   24.0783 N   0  0  0  0  0  0  0  0  0  0  0  0
   14.2717  -17.5760   23.4969 C   0  0  0  0  0  0  0  0  0  0  0  0
   14.9173  -18.2949   22.6970 O   0  0  0  0  0  0  0  0  0  0  0  0
   12.8664  -17.7745   23.8987 C   0  0  0  0  0  0  0  0  0  0  0  0
   12.4046  -16.6944   24.8178 C   0  0  0  0  0  0  0  0  0  0  0  0
   10.9715  -16.7860   25.2573 C   0  0  2  0  0  0  0  0  0  0  0  0
   10.1151  -16.1314   24.2615 N   0  0  0  0  0  0  0  0  0  0  0  0
   10.7713  -16.1779   26.5943 C   0  0  0  0  0  0  0  0  0  0  0  0
   10.6988  -16.9520   27.7283 O   0  0  0  0  0  0  0  0  0  0  0  0
   10.6679  -14.9396   26.6828 O   0  0  0  0  0  0  0  0  0  0  0  0
  2  1  1  0
  3  4  1  6
  3  2  1  0
  5  3  1  0
  5  6  1  6
  7  5  1  0
  7  8  2  0
  9  7  1  0
 10  9  1  0
 10 11  1  1
 12 11  1  0
 13 12  2  0
 14 13  1  0
 15 14  1  0
 15 20  2  0
 16 15  1  0
 17 16  2  0
 17 18  1  0
 18 19  2  0
 19 20  1  0
 20 12  1  0
 21 10  1  0
 22 21  2  0
 23 24  1  0
 24 25  2  0
 24 26  1  0
 26 27  1  0
 28 29  1  0
 28 27  1  6
 29 21  1  0
 30 28  1  0
 31 30  1  0
 32 30  2  0
M  END
$$$$
