TGW.pdb
     RDKit          3D

 26 27  0  0  1  0  0  0  0  0999 V2000
   27.2141  -17.5563  -16.8394 C   0  0  0  0  0  0  0  0  0  0  0  0
   25.7194  -17.7077  -16.8026 C   0  0  1  0  0  0  0  0  0  0  0  0
   25.1486  -17.6910  -18.0847 O   0  0  0  0  0  0  0  0  0  0  0  0
   25.2724  -18.9173  -16.0066 C   0  0  2  0  0  0  0  0  0  0  0  0
   23.8326  -19.0085  -16.1639 N   0  0  0  0  0  0  0  0  0  0  0  0
   25.5823  -18.8193  -14.5806 C   0  0  0  0  0  0  0  0  0  0  0  0
   24.8263  -18.1782  -13.7774 O   0  0  0  0  0  0  0  0  0  0  0  0
   26.7292  -19.4163  -13.9720 N   0  0  0  0  0  0  0  0  0  0  0  0
   27.0024  -19.2862  -12.5734 C   0  0  0  0  0  0  0  0  0  0  0  0
   26.3936  -20.3314  -11.7346 C   0  0  0  0  0  0  0  0  0  0  0  0
   25.6963  -21.2758  -12.1785 O   0  0  0  0  0  0  0  0  0  0  0  0
   26.6107  -20.2652  -10.3366 N   0  0  0  0  0  0  0  0  0  0  0  0
   26.0590  -21.2640   -9.4204 C   0  0  1  0  0  0  0  0  0  0  0  0
   27.1150  -21.5888   -8.4312 C   0  0  0  0  0  0  0  0  0  0  0  0
   27.3780  -20.4829   -7.5036 C   0  0  0  0  0  0  0  0  0  0  0  0
   26.9127  -19.1827   -7.6783 C   0  0  0  0  0  0  0  0  0  0  0  0
   27.3666  -18.4430   -6.6818 N   0  0  0  0  0  0  0  0  0  0  0  0
   28.1182  -19.1645   -5.8312 C   0  0  0  0  0  0  0  0  0  0  0  0
   28.7775  -18.8678   -4.6721 C   0  0  0  0  0  0  0  0  0  0  0  0
   29.4569  -19.8604   -4.0092 C   0  0  0  0  0  0  0  0  0  0  0  0
   29.4799  -21.1530   -4.5019 C   0  0  0  0  0  0  0  0  0  0  0  0
   28.8110  -21.4331   -5.6708 C   0  0  0  0  0  0  0  0  0  0  0  0
   28.1327  -20.4506   -6.3376 C   0  0  0  0  0  0  0  0  0  0  0  0
   24.7930  -20.7402   -8.9107 C   0  0  0  0  0  0  0  0  0  0  0  0
   23.9345  -21.5323   -8.1170 O   0  0  0  0  0  0  0  0  0  0  0  0
   24.3628  -19.5795   -9.1213 O   0  0  0  0  0  0  0  0  0  0  0  0
  2  1  1  6
  3  2  1  0
  4  2  1  0
  4  5  1  1
  6  4  1  0
  7  6  2  0
  8  6  1  0
  9  8  1  0
 10  9  1  0
 10 12  1  0
 11 10  2  0
 13 12  1  0
 13 14  1  1
 15 14  1  0
 15 16  2  0
 17 16  1  0
 18 17  1  0
 19 18  2  0
 20 19  1  0
 21 20  2  0
 21 22  1  0
 22 23  2  0
 23 18  1  0
 23 15  1  0
 24 25  1  0
 24 13  1  0
 26 24  2  0
M  END
$$$$
