TGW.pdb
     RDKit          3D

 26 27  0  0  1  0  0  0  0  0999 V2000
   26.4085  -21.9285  -19.0646 C   0  0  0  0  0  0  0  0  0  0  0  0
   26.5801  -21.3319  -17.6960 C   0  0  1  0  0  0  0  0  0  0  0  0
   25.8231  -20.1627  -17.5236 O   0  0  0  0  0  0  0  0  0  0  0  0
   26.3271  -22.3313  -16.5852 C   0  0  2  0  0  0  0  0  0  0  0  0
   24.9015  -22.6026  -16.5881 N   0  0  0  0  0  0  0  0  0  0  0  0
   26.7067  -21.8358  -15.2625 C   0  0  0  0  0  0  0  0  0  0  0  0
   27.5362  -22.4678  -14.5275 O   0  0  0  0  0  0  0  0  0  0  0  0
   26.1974  -20.6310  -14.6871 N   0  0  0  0  0  0  0  0  0  0  0  0
   26.6604  -20.1348  -13.4273 C   0  0  0  0  0  0  0  0  0  0  0  0
   26.0613  -20.7947  -12.2559 C   0  0  0  0  0  0  0  0  0  0  0  0
   25.0558  -21.5442  -12.3052 O   0  0  0  0  0  0  0  0  0  0  0  0
   26.6602  -20.5679  -10.9927 N   0  0  0  0  0  0  0  0  0  0  0  0
   26.2522  -21.3098   -9.7992 C   0  0  1  0  0  0  0  0  0  0  0  0
   27.4492  -21.4527   -8.9356 C   0  0  0  0  0  0  0  0  0  0  0  0
   27.5347  -20.4044   -7.9125 C   0  0  0  0  0  0  0  0  0  0  0  0
   26.9048  -19.1663   -8.0012 C   0  0  0  0  0  0  0  0  0  0  0  0
   27.2264  -18.4606   -6.9312 N   0  0  0  0  0  0  0  0  0  0  0  0
   28.0426  -19.1469   -6.1116 C   0  0  0  0  0  0  0  0  0  0  0  0
   28.6222  -18.8656   -4.9069 C   0  0  0  0  0  0  0  0  0  0  0  0
   29.4086  -19.8133   -4.2989 C   0  0  0  0  0  0  0  0  0  0  0  0
   29.6188  -21.0453   -4.8923 C   0  0  0  0  0  0  0  0  0  0  0  0
   29.0279  -21.3106   -6.1057 C   0  0  0  0  0  0  0  0  0  0  0  0
   28.2439  -20.3725   -6.7184 C   0  0  0  0  0  0  0  0  0  0  0  0
   25.0887  -20.6280   -9.2350 C   0  0  0  0  0  0  0  0  0  0  0  0
   24.2301  -21.2731   -8.3179 O   0  0  0  0  0  0  0  0  0  0  0  0
   24.7530  -19.4477   -9.5011 O   0  0  0  0  0  0  0  0  0  0  0  0
  2  1  1  6
  3  2  1  0
  4  2  1  0
  4  5  1  1
  6  4  1  0
  7  6  2  0
  8  6  1  0
  9  8  1  0
 10  9  1  0
 10 12  1  0
 11 10  2  0
 13 12  1  0
 13 14  1  1
 15 14  1  0
 15 16  2  0
 17 16  1  0
 18 17  1  0
 19 18  2  0
 20 19  1  0
 21 20  2  0
 21 22  1  0
 22 23  2  0
 23 18  1  0
 23 15  1  0
 24 25  1  0
 24 13  1  0
 26 24  2  0
M  END
$$$$
