TGW.pdb
     RDKit          3D

 26 27  0  0  1  0  0  0  0  0999 V2000
   29.0653  -23.3808  -18.0970 C   0  0  0  0  0  0  0  0  0  0  0  0
   28.7757  -22.3911  -17.0039 C   0  0  1  0  0  0  0  0  0  0  0  0
   29.4133  -21.1588  -17.2156 O   0  0  0  0  0  0  0  0  0  0  0  0
   27.2919  -22.2169  -16.7491 C   0  0  2  0  0  0  0  0  0  0  0  0
   26.7121  -21.7339  -17.9887 N   0  0  0  0  0  0  0  0  0  0  0  0
   26.9953  -21.2555  -15.6876 C   0  0  0  0  0  0  0  0  0  0  0  0
   27.0848  -19.9981  -15.8838 O   0  0  0  0  0  0  0  0  0  0  0  0
   26.5888  -21.6258  -14.3685 N   0  0  0  0  0  0  0  0  0  0  0  0
   26.3120  -20.6526  -13.3566 C   0  0  0  0  0  0  0  0  0  0  0  0
   25.8419  -21.2176  -12.0813 C   0  0  0  0  0  0  0  0  0  0  0  0
   25.6400  -22.4403  -11.8825 O   0  0  0  0  0  0  0  0  0  0  0  0
   25.6033  -20.3216  -11.0108 N   0  0  0  0  0  0  0  0  0  0  0  0
   25.0422  -20.7716   -9.7364 C   0  0  1  0  0  0  0  0  0  0  0  0
   25.6066  -19.9052   -8.6733 C   0  0  0  0  0  0  0  0  0  0  0  0
   26.9665  -20.2989   -8.2879 C   0  0  0  0  0  0  0  0  0  0  0  0
   27.7856  -21.1358   -9.0404 C   0  0  0  0  0  0  0  0  0  0  0  0
   28.9183  -21.3079   -8.3818 N   0  0  0  0  0  0  0  0  0  0  0  0
   28.9223  -20.6342   -7.2178 C   0  0  0  0  0  0  0  0  0  0  0  0
   29.8423  -20.4839   -6.2191 C   0  0  0  0  0  0  0  0  0  0  0  0
   29.5431  -19.6885   -5.1402 C   0  0  0  0  0  0  0  0  0  0  0  0
   28.3238  -19.0402   -5.0553 C   0  0  0  0  0  0  0  0  0  0  0  0
   27.4095  -19.2038   -6.0698 C   0  0  0  0  0  0  0  0  0  0  0  0
   27.6989  -19.9946   -7.1473 C   0  0  0  0  0  0  0  0  0  0  0  0
   23.5881  -20.8018   -9.8832 C   0  0  0  0  0  0  0  0  0  0  0  0
   22.7664  -21.4605   -8.9424 O   0  0  0  0  0  0  0  0  0  0  0  0
   22.9532  -20.2652  -10.8243 O   0  0  0  0  0  0  0  0  0  0  0  0
  2  1  1  6
  3  2  1  0
  4  2  1  0
  4  5  1  6
  6  4  1  0
  7  6  2  0
  8  6  1  0
  9  8  1  0
 10  9  1  0
 10 12  1  0
 11 10  2  0
 13 12  1  0
 13 14  1  1
 15 14  1  0
 15 16  2  0
 17 16  1  0
 18 17  1  0
 19 18  2  0
 20 19  1  0
 21 20  2  0
 21 22  1  0
 22 23  2  0
 23 18  1  0
 23 15  1  0
 24 25  1  0
 24 13  1  0
 26 24  2  0
M  END
$$$$
