TGW.pdb
     RDKit          3D

 26 27  0  0  1  0  0  0  0  0999 V2000
   17.5162  -22.8719    5.9076 C   0  0  0  0  0  0  0  0  0  0  0  0
   16.2880  -23.5163    6.4863 C   0  0  1  0  0  0  0  0  0  0  0  0
   16.5363  -24.8159    6.9546 O   0  0  0  0  0  0  0  0  0  0  0  0
   15.6188  -22.6593    7.5419 C   0  0  2  0  0  0  0  0  0  0  0  0
   14.4785  -23.4143    8.0274 N   0  0  0  0  0  0  0  0  0  0  0  0
   15.1454  -21.3737    7.0298 C   0  0  0  0  0  0  0  0  0  0  0  0
   13.9534  -21.2263    6.5997 O   0  0  0  0  0  0  0  0  0  0  0  0
   15.9525  -20.1961    6.9657 N   0  0  0  0  0  0  0  0  0  0  0  0
   15.4628  -18.9673    6.4198 C   0  0  0  0  0  0  0  0  0  0  0  0
   16.4689  -17.8963    6.3329 C   0  0  0  0  0  0  0  0  0  0  0  0
   17.6163  -17.9630    6.8370 O   0  0  0  0  0  0  0  0  0  0  0  0
   16.1170  -16.7155    5.6346 N   0  0  0  0  0  0  0  0  0  0  0  0
   17.0691  -15.6223    5.4354 C   0  0  1  0  0  0  0  0  0  0  0  0
   16.7655  -15.0043    4.1220 C   0  0  0  0  0  0  0  0  0  0  0  0
   17.8491  -14.1394    3.6419 C   0  0  0  0  0  0  0  0  0  0  0  0
   17.9467  -12.7776    3.9129 C   0  0  0  0  0  0  0  0  0  0  0  0
   19.0172  -12.3084    3.2963 N   0  0  0  0  0  0  0  0  0  0  0  0
   19.6610  -13.2740    2.6168 C   0  0  0  0  0  0  0  0  0  0  0  0
   20.7954  -13.2946    1.8558 C   0  0  0  0  0  0  0  0  0  0  0  0
   21.2131  -14.4787    1.2993 C   0  0  0  0  0  0  0  0  0  0  0  0
   20.4991  -15.6465    1.5011 C   0  0  0  0  0  0  0  0  0  0  0  0
   19.3589  -15.6065    2.2695 C   0  0  0  0  0  0  0  0  0  0  0  0
   18.9354  -14.4317    2.8267 C   0  0  0  0  0  0  0  0  0  0  0  0
   17.0059  -14.7644    6.6173 C   0  0  0  0  0  0  0  0  0  0  0  0
   15.7905  -14.5399    7.3004 O   0  0  0  0  0  0  0  0  0  0  0  0
   17.9890  -14.1669    7.1205 O   0  0  0  0  0  0  0  0  0  0  0  0
  2  1  1  1
  3  2  1  0
  4  2  1  0
  4  5  1  6
  6  4  1  0
  7  6  2  0
  8  6  1  0
  9  8  1  0
 10  9  1  0
 10 12  1  0
 11 10  2  0
 13 12  1  0
 13 14  1  6
 15 14  1  0
 15 16  2  0
 17 16  1  0
 18 17  1  0
 19 18  2  0
 20 19  1  0
 21 20  2  0
 21 22  1  0
 22 23  2  0
 23 18  1  0
 23 15  1  0
 24 25  1  0
 24 13  1  0
 26 24  2  0
M  END
$$$$
