TGW.pdb
     RDKit          3D

 26 27  0  0  1  0  0  0  0  0999 V2000
   25.8423  -23.0909  -19.1680 C   0  0  0  0  0  0  0  0  0  0  0  0
   25.8888  -22.6217  -17.7410 C   0  0  1  0  0  0  0  0  0  0  0  0
   25.4063  -23.5879  -16.8445 O   0  0  0  0  0  0  0  0  0  0  0  0
   27.2583  -22.1158  -17.3348 C   0  0  2  0  0  0  0  0  0  0  0  0
   28.1858  -23.2108  -17.5507 N   0  0  0  0  0  0  0  0  0  0  0  0
   27.3330  -21.7086  -15.9320 C   0  0  0  0  0  0  0  0  0  0  0  0
   28.0386  -22.3543  -15.0878 O   0  0  0  0  0  0  0  0  0  0  0  0
   26.6413  -20.5805  -15.3924 N   0  0  0  0  0  0  0  0  0  0  0  0
   26.7701  -20.1943  -14.0205 C   0  0  0  0  0  0  0  0  0  0  0  0
   25.8305  -20.8663  -13.1083 C   0  0  0  0  0  0  0  0  0  0  0  0
   25.1562  -21.8807  -13.4109 O   0  0  0  0  0  0  0  0  0  0  0  0
   25.6796  -20.3321  -11.8054 N   0  0  0  0  0  0  0  0  0  0  0  0
   24.7857  -20.9401  -10.8192 C   0  0  1  0  0  0  0  0  0  0  0  0
   25.1968  -20.4440   -9.4835 C   0  0  0  0  0  0  0  0  0  0  0  0
   26.6339  -20.6098   -9.2382 C   0  0  0  0  0  0  0  0  0  0  0  0
   27.5030  -21.2890  -10.0873 C   0  0  0  0  0  0  0  0  0  0  0  0
   28.7070  -21.2777   -9.5426 N   0  0  0  0  0  0  0  0  0  0  0  0
   28.7126  -20.6270   -8.3656 C   0  0  0  0  0  0  0  0  0  0  0  0
   29.6876  -20.3375   -7.4535 C   0  0  0  0  0  0  0  0  0  0  0  0
   29.3673  -19.6164   -6.3294 C   0  0  0  0  0  0  0  0  0  0  0  0
   28.0718  -19.1818   -6.1126 C   0  0  0  0  0  0  0  0  0  0  0  0
   27.1030  -19.4833   -7.0413 C   0  0  0  0  0  0  0  0  0  0  0  0
   27.4131  -20.2015   -8.1630 C   0  0  0  0  0  0  0  0  0  0  0  0
   23.4136  -20.6731  -11.2469 C   0  0  0  0  0  0  0  0  0  0  0  0
   22.3165  -21.3438  -10.6632 O   0  0  0  0  0  0  0  0  0  0  0  0
   23.0901  -19.8526  -12.1407 O   0  0  0  0  0  0  0  0  0  0  0  0
  2  1  1  6
  3  2  1  0
  4  2  1  0
  4  5  1  1
  6  4  1  0
  7  6  2  0
  8  6  1  0
  9  8  1  0
 10  9  1  0
 10 12  1  0
 11 10  2  0
 13 12  1  0
 13 14  1  1
 15 14  1  0
 15 16  2  0
 17 16  1  0
 18 17  1  0
 19 18  2  0
 20 19  1  0
 21 20  2  0
 21 22  1  0
 22 23  2  0
 23 18  1  0
 23 15  1  0
 24 25  1  0
 24 13  1  0
 26 24  2  0
M  END
$$$$
