TGW.pdb
     RDKit          3D

 26 27  0  0  1  0  0  0  0  0999 V2000
   15.7504  -23.9456    1.8875 C   0  0  0  0  0  0  0  0  0  0  0  0
   15.6936  -22.6557    2.6566 C   0  0  1  0  0  0  0  0  0  0  0  0
   16.9569  -22.0602    2.7957 O   0  0  0  0  0  0  0  0  0  0  0  0
   14.6752  -21.6835    2.0960 C   0  0  2  0  0  0  0  0  0  0  0  0
   15.1029  -21.3675    0.7458 N   0  0  0  0  0  0  0  0  0  0  0  0
   14.5797  -20.4400    2.8600 C   0  0  0  0  0  0  0  0  0  0  0  0
   13.5492  -19.6914    2.7875 O   0  0  0  0  0  0  0  0  0  0  0  0
   15.6040  -19.9617    3.7342 N   0  0  0  0  0  0  0  0  0  0  0  0
   15.4813  -18.7259    4.4452 C   0  0  0  0  0  0  0  0  0  0  0  0
   16.6911  -18.3247    5.1815 C   0  0  0  0  0  0  0  0  0  0  0  0
   17.7715  -18.9633    5.1657 O   0  0  0  0  0  0  0  0  0  0  0  0
   16.6295  -17.1411    5.9567 N   0  0  0  0  0  0  0  0  0  0  0  0
   17.7462  -16.7089    6.7980 C   0  0  1  0  0  0  0  0  0  0  0  0
   17.4449  -15.3329    7.2615 C   0  0  0  0  0  0  0  0  0  0  0  0
   17.8342  -14.3106    6.2836 C   0  0  0  0  0  0  0  0  0  0  0  0
   17.0569  -13.9289    5.1938 C   0  0  0  0  0  0  0  0  0  0  0  0
   17.7257  -13.0197    4.5065 N   0  0  0  0  0  0  0  0  0  0  0  0
   18.9202  -12.7553    5.0652 C   0  0  0  0  0  0  0  0  0  0  0  0
   19.9403  -11.9033    4.7496 C   0  0  0  0  0  0  0  0  0  0  0  0
   21.0504  -11.8516    5.5565 C   0  0  0  0  0  0  0  0  0  0  0  0
   21.1453  -12.6510    6.6818 C   0  0  0  0  0  0  0  0  0  0  0  0
   20.1088  -13.5034    6.9835 C   0  0  0  0  0  0  0  0  0  0  0  0
   19.0002  -13.5618    6.1850 C   0  0  0  0  0  0  0  0  0  0  0  0
   17.9509  -17.7364    7.8175 C   0  0  0  0  0  0  0  0  0  0  0  0
   19.2453  -18.0866    8.2606 O   0  0  0  0  0  0  0  0  0  0  0  0
   17.0307  -18.3822    8.3766 O   0  0  0  0  0  0  0  0  0  0  0  0
  2  1  1  6
  3  2  1  0
  4  2  1  0
  4  5  1  6
  6  4  1  0
  7  6  2  0
  8  6  1  0
  9  8  1  0
 10  9  1  0
 10 12  1  0
 11 10  2  0
 13 12  1  0
 13 14  1  1
 15 14  1  0
 15 16  2  0
 17 16  1  0
 18 17  1  0
 19 18  2  0
 20 19  1  0
 21 20  2  0
 21 22  1  0
 22 23  2  0
 23 18  1  0
 23 15  1  0
 24 25  1  0
 24 13  1  0
 26 24  2  0
M  END
$$$$
