TGW.pdb
     RDKit          3D

 26 27  0  0  1  0  0  0  0  0999 V2000
   29.0933  -18.2422  -20.0839 C   0  0  0  0  0  0  0  0  0  0  0  0
   29.1831  -18.4358  -18.5963 C   0  0  1  0  0  0  0  0  0  0  0  0
   29.6412  -17.2862  -17.9342 O   0  0  0  0  0  0  0  0  0  0  0  0
   27.8919  -18.9517  -17.9935 C   0  0  2  0  0  0  0  0  0  0  0  0
   26.9082  -17.8971  -18.1553 N   0  0  0  0  0  0  0  0  0  0  0  0
   28.0043  -19.2729  -16.5711 C   0  0  0  0  0  0  0  0  0  0  0  0
   28.6250  -20.3130  -16.1703 O   0  0  0  0  0  0  0  0  0  0  0  0
   27.4445  -18.4732  -15.5274 N   0  0  0  0  0  0  0  0  0  0  0  0
   27.5184  -18.8584  -14.1512 C   0  0  0  0  0  0  0  0  0  0  0  0
   26.6169  -19.9608  -13.7786 C   0  0  0  0  0  0  0  0  0  0  0  0
   25.8080  -20.5084  -14.5667 O   0  0  0  0  0  0  0  0  0  0  0  0
   26.6679  -20.4325  -12.4442 N   0  0  0  0  0  0  0  0  0  0  0  0
   25.8191  -21.5301  -11.9792 C   0  0  1  0  0  0  0  0  0  0  0  0
   26.4609  -22.1058  -10.7726 C   0  0  0  0  0  0  0  0  0  0  0  0
   26.4885  -21.1661   -9.6461 C   0  0  0  0  0  0  0  0  0  0  0  0
   25.4296  -20.3365   -9.2882 C   0  0  0  0  0  0  0  0  0  0  0  0
   25.8103  -19.5996   -8.2595 N   0  0  0  0  0  0  0  0  0  0  0  0
   27.0733  -19.8782   -7.8904 C   0  0  0  0  0  0  0  0  0  0  0  0
   27.8908  -19.4106   -6.9009 C   0  0  0  0  0  0  0  0  0  0  0  0
   29.1559  -19.9288   -6.7697 C   0  0  0  0  0  0  0  0  0  0  0  0
   29.6087  -20.9161   -7.6266 C   0  0  0  0  0  0  0  0  0  0  0  0
   28.7720  -21.3742   -8.6176 C   0  0  0  0  0  0  0  0  0  0  0  0
   27.5111  -20.8632   -8.7558 C   0  0  0  0  0  0  0  0  0  0  0  0
   24.4618  -21.0060  -11.8384 C   0  0  0  0  0  0  0  0  0  0  0  0
   23.3365  -21.8587  -11.8660 O   0  0  0  0  0  0  0  0  0  0  0  0
   24.1760  -19.7929  -11.6850 O   0  0  0  0  0  0  0  0  0  0  0  0
  2  1  1  6
  3  2  1  0
  4  2  1  0
  4  5  1  1
  6  4  1  0
  7  6  2  0
  8  6  1  0
  9  8  1  0
 10  9  1  0
 10 12  1  0
 11 10  2  0
 13 12  1  0
 13 14  1  1
 15 14  1  0
 15 16  2  0
 17 16  1  0
 18 17  1  0
 19 18  2  0
 20 19  1  0
 21 20  2  0
 21 22  1  0
 22 23  2  0
 23 18  1  0
 23 15  1  0
 24 25  1  0
 24 13  1  0
 26 24  2  0
M  END
$$$$
