HSH.pdb
     RDKit          3D

 27 28  0  0  1  0  0  0  0  0999 V2000
   10.4692  -17.8723   14.9235 N   0  0  0  0  0  0  0  0  0  0  0  0
   11.7330  -17.9529   15.6106 C   0  0  1  0  0  0  0  0  0  0  0  0
   12.6473  -16.8551   15.1652 C   0  0  0  0  0  0  0  0  0  0  0  0
   13.1719  -17.2201   13.8228 C   0  0  0  0  0  0  0  0  0  0  0  0
   14.2267  -18.0477   13.5094 C   0  0  0  0  0  0  0  0  0  0  0  0
   14.3837  -18.1204   12.1751 N   0  0  0  0  0  0  0  0  0  0  0  0
   13.4240  -17.3356   11.6526 C   0  0  0  0  0  0  0  0  0  0  0  0
   12.6800  -16.7819   12.6403 N   0  0  0  0  0  0  0  0  0  0  0  0
   11.4720  -17.9272   17.0730 C   0  0  0  0  0  0  0  0  0  0  0  0
   10.7905  -17.0159   17.6202 O   0  0  0  0  0  0  0  0  0  0  0  0
   12.9068  -20.9613   19.6343 O   0  0  0  0  0  0  0  0  0  0  0  0
   11.7413  -20.2836   20.0017 C   0  0  0  0  0  0  0  0  0  0  0  0
   11.7712  -18.9381   19.3626 C   0  0  2  0  0  0  0  0  0  0  0  0
   11.9778  -18.9362   17.9556 N   0  0  0  0  0  0  0  0  0  0  0  0
   12.7555  -18.0342   20.0564 C   0  0  0  0  0  0  0  0  0  0  0  0
   13.8624  -17.7529   19.5429 O   0  0  0  0  0  0  0  0  0  0  0  0
   12.4634  -17.4646   21.3245 N   0  0  0  0  0  0  0  0  0  0  0  0
   13.4434  -16.6980   22.0903 C   0  0  1  0  0  0  0  0  0  0  0  0
   13.0602  -15.2630   22.1930 C   0  0  0  0  0  0  0  0  0  0  0  0
   12.9959  -14.6134   20.8703 C   0  0  0  0  0  0  0  0  0  0  0  0
   14.0044  -13.9711   20.1445 C   0  0  0  0  0  0  0  0  0  0  0  0
   13.5026  -13.4992   18.9864 N   0  0  0  0  0  0  0  0  0  0  0  0
   12.2050  -13.8261   18.9615 C   0  0  0  0  0  0  0  0  0  0  0  0
   11.8950  -14.4918   20.0833 N   0  0  0  0  0  0  0  0  0  0  0  0
   13.7326  -17.3317   23.3859 C   0  0  0  0  0  0  0  0  0  0  0  0
   14.7417  -16.8882   24.1933 O   0  0  0  0  0  0  0  0  0  0  0  0
   13.0323  -18.3036   23.7511 O   0  0  0  0  0  0  0  0  0  0  0  0
  2  1  1  6
  3  2  1  0
  3  4  1  0
  4  8  1  0
  5  4  2  0
  5  6  1  0
  6  7  1  0
  8  7  2  0
  9  2  1  0
  9 10  2  0
 11 12  1  0
 13 12  1  1
 13 15  1  0
 13 14  1  0
 14  9  1  0
 15 17  1  0
 16 15  2  0
 17 18  1  0
 18 19  1  1
 19 20  1  0
 20 21  2  0
 20 24  1  0
 21 22  1  0
 22 23  1  0
 24 23  2  0
 25 26  1  0
 25 18  1  0
 27 25  2  0
M  END
$$$$
