HSH.pdb
     RDKit          3D

 27 28  0  0  1  0  0  0  0  0999 V2000
   12.4177  -18.0899   14.0846 N   0  0  0  0  0  0  0  0  0  0  0  0
   12.0905  -16.7765   14.5786 C   0  0  1  0  0  0  0  0  0  0  0  0
   11.0562  -16.1290   13.7123 C   0  0  0  0  0  0  0  0  0  0  0  0
   11.6370  -15.9756   12.3523 C   0  0  0  0  0  0  0  0  0  0  0  0
   12.5325  -15.0310   11.9029 C   0  0  0  0  0  0  0  0  0  0  0  0
   12.8128  -15.2337   10.6027 N   0  0  0  0  0  0  0  0  0  0  0  0
   12.0903  -16.3084   10.2380 C   0  0  0  0  0  0  0  0  0  0  0  0
   11.3711  -16.7702   11.2892 N   0  0  0  0  0  0  0  0  0  0  0  0
   11.6579  -16.9045   15.9942 C   0  0  0  0  0  0  0  0  0  0  0  0
   11.2822  -15.9108   16.6767 O   0  0  0  0  0  0  0  0  0  0  0  0
   12.1191  -20.4821   18.1572 O   0  0  0  0  0  0  0  0  0  0  0  0
   10.9632  -19.7475   18.4345 C   0  0  0  0  0  0  0  0  0  0  0  0
   11.2037  -18.3376   18.0174 C   0  0  2  0  0  0  0  0  0  0  0  0
   11.6399  -18.1651   16.6750 N   0  0  0  0  0  0  0  0  0  0  0  0
   12.1273  -17.6411   18.9814 C   0  0  0  0  0  0  0  0  0  0  0  0
   13.3306  -17.4340   18.7034 O   0  0  0  0  0  0  0  0  0  0  0  0
   11.6657  -17.1912   20.2472 N   0  0  0  0  0  0  0  0  0  0  0  0
   12.5325  -16.5139   21.2087 C   0  0  1  0  0  0  0  0  0  0  0  0
   11.9755  -15.1950   21.6172 C   0  0  0  0  0  0  0  0  0  0  0  0
   11.6845  -14.3353   20.4545 C   0  0  0  0  0  0  0  0  0  0  0  0
   12.4676  -14.0693   19.3265 C   0  0  0  0  0  0  0  0  0  0  0  0
   11.8225  -13.2067   18.5169 N   0  0  0  0  0  0  0  0  0  0  0  0
   10.6537  -12.9210   19.1031 C   0  0  0  0  0  0  0  0  0  0  0  0
   10.5641  -13.5914   20.2609 N   0  0  0  0  0  0  0  0  0  0  0  0
   12.8762  -17.3912   22.3383 C   0  0  0  0  0  0  0  0  0  0  0  0
   13.7850  -17.0175   23.2877 O   0  0  0  0  0  0  0  0  0  0  0  0
   12.3184  -18.5092   22.4246 O   0  0  0  0  0  0  0  0  0  0  0  0
  2  1  1  6
  3  2  1  0
  3  4  1  0
  4  8  1  0
  5  4  2  0
  5  6  1  0
  6  7  1  0
  8  7  2  0
  9  2  1  0
  9 10  2  0
 11 12  1  0
 13 12  1  1
 13 15  1  0
 13 14  1  0
 14  9  1  0
 15 17  1  0
 16 15  2  0
 17 18  1  0
 18 19  1  1
 19 20  1  0
 20 21  2  0
 20 24  1  0
 21 22  1  0
 22 23  1  0
 24 23  2  0
 25 26  1  0
 25 18  1  0
 27 25  2  0
M  END
$$$$
