HSH.pdb
     RDKit          3D

 27 28  0  0  1  0  0  0  0  0999 V2000
    5.5798  -15.8610   20.4183 N   0  0  0  0  0  0  0  0  0  0  0  0
    6.9031  -15.5859   20.9173 C   0  0  1  0  0  0  0  0  0  0  0  0
    7.3127  -14.1856   20.5842 C   0  0  0  0  0  0  0  0  0  0  0  0
    7.3854  -14.0757   19.1034 C   0  0  0  0  0  0  0  0  0  0  0  0
    7.1741  -15.0549   18.1586 C   0  0  0  0  0  0  0  0  0  0  0  0
    7.3355  -14.5530   16.9208 N   0  0  0  0  0  0  0  0  0  0  0  0
    7.6488  -13.2559   17.0921 C   0  0  0  0  0  0  0  0  0  0  0  0
    7.6830  -12.9508   18.4117 N   0  0  0  0  0  0  0  0  0  0  0  0
    6.9173  -15.8581   22.3779 C   0  0  0  0  0  0  0  0  0  0  0  0
    6.5594  -14.9956   23.2278 O   0  0  0  0  0  0  0  0  0  0  0  0
    6.8187  -19.6121   23.9740 O   0  0  0  0  0  0  0  0  0  0  0  0
    6.6175  -18.5113   24.8110 C   0  0  0  0  0  0  0  0  0  0  0  0
    7.4579  -17.3899   24.3052 C   0  0  2  0  0  0  0  0  0  0  0  0
    7.3386  -17.1180   22.9145 N   0  0  0  0  0  0  0  0  0  0  0  0
    8.8991  -17.5767   24.6995 C   0  0  0  0  0  0  0  0  0  0  0  0
    9.8204  -17.5438   23.8522 O   0  0  0  0  0  0  0  0  0  0  0  0
    9.2682  -17.7983   26.0532 N   0  0  0  0  0  0  0  0  0  0  0  0
   10.6467  -18.0549   26.4638 C   0  0  1  0  0  0  0  0  0  0  0  0
   11.5319  -16.8933   26.1743 C   0  0  0  0  0  0  0  0  0  0  0  0
   11.9069  -16.8275   24.7492 C   0  0  0  0  0  0  0  0  0  0  0  0
   11.5825  -17.6970   23.7028 C   0  0  0  0  0  0  0  0  0  0  0  0
   12.1549  -17.2691   22.5605 N   0  0  0  0  0  0  0  0  0  0  0  0
   12.8318  -16.1533   22.8574 C   0  0  0  0  0  0  0  0  0  0  0  0
   12.6884  -15.8832   24.1629 N   0  0  0  0  0  0  0  0  0  0  0  0
   10.7174  -18.5256   27.8556 C   0  0  0  0  0  0  0  0  0  0  0  0
   11.7507  -19.3012   28.3002 O   0  0  0  0  0  0  0  0  0  0  0  0
    9.8022  -18.2043   28.6477 O   0  0  0  0  0  0  0  0  0  0  0  0
  2  1  1  1
  3  2  1  0
  3  4  1  0
  4  8  1  0
  5  4  2  0
  5  6  1  0
  6  7  1  0
  8  7  2  0
  9  2  1  0
  9 10  2  0
 11 12  1  0
 13 12  1  6
 13 15  1  0
 13 14  1  0
 14  9  1  0
 15 17  1  0
 16 15  2  0
 17 18  1  0
 18 19  1  1
 19 20  1  0
 20 21  2  0
 20 24  1  0
 21 22  1  0
 22 23  1  0
 24 23  2  0
 25 26  1  0
 25 18  1  0
 27 25  2  0
M  END
$$$$
