HSH.pdb
     RDKit          3D

 27 28  0  0  1  0  0  0  0  0999 V2000
    8.2368  -16.9552   14.6599 N   0  0  0  0  0  0  0  0  0  0  0  0
    9.2806  -16.1588   15.2536 C   0  0  1  0  0  0  0  0  0  0  0  0
    8.8911  -14.7141   15.2821 C   0  0  0  0  0  0  0  0  0  0  0  0
    8.7632  -14.2523   13.8747 C   0  0  0  0  0  0  0  0  0  0  0  0
    7.8953  -13.3192   13.3531 C   0  0  0  0  0  0  0  0  0  0  0  0
    8.0957  -13.1826   12.0297 N   0  0  0  0  0  0  0  0  0  0  0  0
    9.0921  -14.0330   11.7229 C   0  0  0  0  0  0  0  0  0  0  0  0
    9.5080  -14.6898   12.8325 N   0  0  0  0  0  0  0  0  0  0  0  0
    9.5722  -16.7035   16.6048 C   0  0  0  0  0  0  0  0  0  0  0  0
    8.6579  -17.0478   17.4045 O   0  0  0  0  0  0  0  0  0  0  0  0
   13.5285  -17.2925   17.9244 O   0  0  0  0  0  0  0  0  0  0  0  0
   12.5405  -18.1488   18.4179 C   0  0  0  0  0  0  0  0  0  0  0  0
   11.2363  -17.4316   18.3524 C   0  0  2  0  0  0  0  0  0  0  0  0
   10.9112  -16.8725   17.0859 N   0  0  0  0  0  0  0  0  0  0  0  0
   11.1343  -16.3988   19.4434 C   0  0  0  0  0  0  0  0  0  0  0  0
   11.5284  -15.2227   19.2721 O   0  0  0  0  0  0  0  0  0  0  0  0
   10.5848  -16.7221   20.7128 N   0  0  0  0  0  0  0  0  0  0  0  0
   10.4880  -15.7524   21.8013 C   0  0  1  0  0  0  0  0  0  0  0  0
    9.0902  -15.2755   21.9900 C   0  0  0  0  0  0  0  0  0  0  0  0
    8.6623  -14.3772   20.9012 C   0  0  0  0  0  0  0  0  0  0  0  0
    9.3992  -13.8667   19.8275 C   0  0  0  0  0  0  0  0  0  0  0  0
    8.6176  -13.0638   19.0791 N   0  0  0  0  0  0  0  0  0  0  0  0
    7.4076  -13.0536   19.6511 C   0  0  0  0  0  0  0  0  0  0  0  0
    7.4266  -13.8358   20.7400 N   0  0  0  0  0  0  0  0  0  0  0  0
   11.1168  -16.2565   23.0318 C   0  0  0  0  0  0  0  0  0  0  0  0
   11.5868  -17.5360   23.1264 O   0  0  0  0  0  0  0  0  0  0  0  0
   11.2191  -15.4875   24.0150 O   0  0  0  0  0  0  0  0  0  0  0  0
  2  1  1  1
  3  2  1  0
  3  4  1  0
  4  8  1  0
  5  4  2  0
  5  6  1  0
  6  7  1  0
  8  7  2  0
  9  2  1  0
  9 10  2  0
 11 12  1  0
 13 12  1  6
 13 15  1  0
 13 14  1  0
 14  9  1  0
 15 17  1  0
 16 15  2  0
 17 18  1  0
 18 19  1  1
 19 20  1  0
 20 21  2  0
 20 24  1  0
 21 22  1  0
 22 23  1  0
 24 23  2  0
 25 26  1  0
 25 18  1  0
 27 25  2  0
M  END
$$$$
