HSH.pdb
     RDKit          3D

 27 28  0  0  1  0  0  0  0  0999 V2000
    9.5904  -16.4270   17.8665 N   0  0  0  0  0  0  0  0  0  0  0  0
    9.0369  -15.6322   18.9333 C   0  0  1  0  0  0  0  0  0  0  0  0
    7.6877  -15.1067   18.5550 C   0  0  0  0  0  0  0  0  0  0  0  0
    7.8497  -14.2886   17.3242 C   0  0  0  0  0  0  0  0  0  0  0  0
    8.3548  -13.0136   17.2014 C   0  0  0  0  0  0  0  0  0  0  0  0
    8.3333  -12.6241   15.9138 N   0  0  0  0  0  0  0  0  0  0  0  0
    7.8130  -13.6589   15.2293 C   0  0  0  0  0  0  0  0  0  0  0  0
    7.5143  -14.6771   16.0717 N   0  0  0  0  0  0  0  0  0  0  0  0
    9.0073  -16.4609   20.1661 C   0  0  0  0  0  0  0  0  0  0  0  0
    7.9323  -16.7317   20.7705 O   0  0  0  0  0  0  0  0  0  0  0  0
   12.3141  -18.6852   21.4670 O   0  0  0  0  0  0  0  0  0  0  0  0
   11.0263  -19.0198   21.8940 C   0  0  0  0  0  0  0  0  0  0  0  0
   10.2202  -17.7680   21.9475 C   0  0  2  0  0  0  0  0  0  0  0  0
   10.1982  -17.0055   20.7474 N   0  0  0  0  0  0  0  0  0  0  0  0
   10.6237  -16.9177   23.1229 C   0  0  0  0  0  0  0  0  0  0  0  0
   11.4623  -15.9950   23.0077 O   0  0  0  0  0  0  0  0  0  0  0  0
   10.0653  -17.1318   24.4114 N   0  0  0  0  0  0  0  0  0  0  0  0
   10.5565  -16.4519   25.6076 C   0  0  1  0  0  0  0  0  0  0  0  0
    9.4605  -16.1920   26.5814 C   0  0  0  0  0  0  0  0  0  0  0  0
    9.9250  -15.4002   27.7360 C   0  0  0  0  0  0  0  0  0  0  0  0
   11.1137  -14.6819   27.9019 C   0  0  0  0  0  0  0  0  0  0  0  0
   11.1397  -14.1204   29.1265 N   0  0  0  0  0  0  0  0  0  0  0  0
   10.0000  -14.4646   29.7380 C   0  0  0  0  0  0  0  0  0  0  0  0
    9.2693  -15.2291   28.9136 N   0  0  0  0  0  0  0  0  0  0  0  0
   11.7158  -17.1474   26.1872 C   0  0  0  0  0  0  0  0  0  0  0  0
   12.8388  -16.4723   26.5748 O   0  0  0  0  0  0  0  0  0  0  0  0
   11.6657  -18.3912   26.3244 O   0  0  0  0  0  0  0  0  0  0  0  0
  2  1  1  6
  3  2  1  0
  3  4  1  0
  4  8  1  0
  5  4  2  0
  5  6  1  0
  6  7  1  0
  8  7  2  0
  9  2  1  0
  9 10  2  0
 11 12  1  0
 13 12  1  6
 13 15  1  0
 13 14  1  0
 14  9  1  0
 15 17  1  0
 16 15  2  0
 17 18  1  0
 18 19  1  1
 19 20  1  0
 20 21  2  0
 20 24  1  0
 21 22  1  0
 22 23  1  0
 24 23  2  0
 25 26  1  0
 25 18  1  0
 27 25  2  0
M  END
$$$$
