HSH.pdb
     RDKit          3D

 27 28  0  0  1  0  0  0  0  0999 V2000
    7.4704  -20.7426   20.2795 N   0  0  0  0  0  0  0  0  0  0  0  0
    6.5545  -20.3183   21.3077 C   0  0  1  0  0  0  0  0  0  0  0  0
    5.6609  -21.4467   21.7174 C   0  0  0  0  0  0  0  0  0  0  0  0
    4.8883  -21.8696   20.5197 C   0  0  0  0  0  0  0  0  0  0  0  0
    4.7040  -23.1400   20.0217 C   0  0  0  0  0  0  0  0  0  0  0  0
    3.9375  -23.1025   18.9165 N   0  0  0  0  0  0  0  0  0  0  0  0
    3.6417  -21.8044   18.7229 C   0  0  0  0  0  0  0  0  0  0  0  0
    4.2116  -21.0433   19.6880 N   0  0  0  0  0  0  0  0  0  0  0  0
    7.3449  -19.7695   22.4396 C   0  0  0  0  0  0  0  0  0  0  0  0
    8.4612  -20.2522   22.7789 O   0  0  0  0  0  0  0  0  0  0  0  0
    5.8765  -16.7377   25.0817 O   0  0  0  0  0  0  0  0  0  0  0  0
    7.2219  -16.7225   24.7043 C   0  0  0  0  0  0  0  0  0  0  0  0
    7.6065  -18.1091   24.3180 C   0  0  2  0  0  0  0  0  0  0  0  0
    6.8897  -18.6564   23.2185 N   0  0  0  0  0  0  0  0  0  0  0  0
    7.5620  -19.0314   25.5074 C   0  0  0  0  0  0  0  0  0  0  0  0
    6.6619  -19.8923   25.6365 O   0  0  0  0  0  0  0  0  0  0  0  0
    8.5438  -18.9586   26.5314 N   0  0  0  0  0  0  0  0  0  0  0  0
    8.7724  -20.0421   27.4845 C   0  0  1  0  0  0  0  0  0  0  0  0
    9.0071  -21.3406   26.7948 C   0  0  0  0  0  0  0  0  0  0  0  0
    9.2130  -22.4439   27.7519 C   0  0  0  0  0  0  0  0  0  0  0  0
    8.3244  -22.9916   28.6829 C   0  0  0  0  0  0  0  0  0  0  0  0
    8.9351  -23.9757   29.3716 N   0  0  0  0  0  0  0  0  0  0  0  0
   10.1848  -24.0640   28.9008 C   0  0  0  0  0  0  0  0  0  0  0  0
   10.3583  -23.1522   27.9330 N   0  0  0  0  0  0  0  0  0  0  0  0
    9.8128  -19.6907   28.4631 C   0  0  0  0  0  0  0  0  0  0  0  0
    9.8110  -20.2039   29.7294 O   0  0  0  0  0  0  0  0  0  0  0  0
   10.7200  -18.8984   28.1200 O   0  0  0  0  0  0  0  0  0  0  0  0
  2  1  1  6
  3  2  1  0
  3  4  1  0
  4  8  1  0
  5  4  2  0
  5  6  1  0
  6  7  1  0
  8  7  2  0
  9  2  1  0
  9 10  2  0
 11 12  1  0
 13 12  1  1
 13 15  1  0
 13 14  1  0
 14  9  1  0
 15 17  1  0
 16 15  2  0
 17 18  1  0
 18 19  1  6
 19 20  1  0
 20 21  2  0
 20 24  1  0
 21 22  1  0
 22 23  1  0
 24 23  2  0
 25 26  1  0
 25 18  1  0
 27 25  2  0
M  END
$$$$
