HSH.pdb
     RDKit          3D

 27 28  0  0  1  0  0  0  0  0999 V2000
   14.6967  -13.2919   16.7246 N   0  0  0  0  0  0  0  0  0  0  0  0
   15.7284  -14.0249   17.4133 C   0  0  1  0  0  0  0  0  0  0  0  0
   16.9763  -13.2059   17.5205 C   0  0  0  0  0  0  0  0  0  0  0  0
   17.5695  -13.1052   16.1610 C   0  0  0  0  0  0  0  0  0  0  0  0
   18.1177  -12.0035   15.5431 C   0  0  0  0  0  0  0  0  0  0  0  0
   18.5471  -12.3247   14.3092 N   0  0  0  0  0  0  0  0  0  0  0  0
   18.2665  -13.6314   14.1551 C   0  0  0  0  0  0  0  0  0  0  0  0
   17.6728  -14.1196   15.2707 N   0  0  0  0  0  0  0  0  0  0  0  0
   15.1992  -14.4442   18.7367 C   0  0  0  0  0  0  0  0  0  0  0  0
   14.7268  -13.6178   19.5663 O   0  0  0  0  0  0  0  0  0  0  0  0
   14.1593  -18.3601   19.5972 O   0  0  0  0  0  0  0  0  0  0  0  0
   13.6906  -17.3166   20.3998 C   0  0  0  0  0  0  0  0  0  0  0  0
   14.7347  -16.2543   20.4283 C   0  0  2  0  0  0  0  0  0  0  0  0
   15.1916  -15.8144   19.1555 N   0  0  0  0  0  0  0  0  0  0  0  0
   15.8880  -16.6563   21.3091 C   0  0  0  0  0  0  0  0  0  0  0  0
   16.8061  -17.3974   20.8899 O   0  0  0  0  0  0  0  0  0  0  0  0
   15.9773  -16.2076   22.6539 N   0  0  0  0  0  0  0  0  0  0  0  0
   17.0103  -16.6752   23.5753 C   0  0  1  0  0  0  0  0  0  0  0  0
   17.5642  -15.5602   24.3918 C   0  0  0  0  0  0  0  0  0  0  0  0
   18.4105  -14.6569   23.5896 C   0  0  0  0  0  0  0  0  0  0  0  0
   18.8170  -14.7692   22.2559 C   0  0  0  0  0  0  0  0  0  0  0  0
   19.6062  -13.7266   21.9307 N   0  0  0  0  0  0  0  0  0  0  0  0
   19.7089  -12.9593   23.0225 C   0  0  0  0  0  0  0  0  0  0  0  0
   18.9974  -13.5086   24.0175 N   0  0  0  0  0  0  0  0  0  0  0  0
   16.5464  -17.8225   24.3703 C   0  0  0  0  0  0  0  0  0  0  0  0
   15.2482  -18.2470   24.3297 O   0  0  0  0  0  0  0  0  0  0  0  0
   17.3680  -18.4200   25.1026 O   0  0  0  0  0  0  0  0  0  0  0  0
  2  1  1  1
  3  2  1  0
  3  4  1  0
  4  8  1  0
  5  4  2  0
  5  6  1  0
  6  7  1  0
  8  7  2  0
  9  2  1  0
  9 10  2  0
 11 12  1  0
 13 12  1  6
 13 15  1  0
 13 14  1  0
 14  9  1  0
 15 17  1  0
 16 15  2  0
 17 18  1  0
 18 19  1  1
 19 20  1  0
 20 21  2  0
 20 24  1  0
 21 22  1  0
 22 23  1  0
 24 23  2  0
 25 26  1  0
 25 18  1  0
 27 25  2  0
M  END
$$$$
