HSH.pdb
     RDKit          3D

 27 28  0  0  1  0  0  0  0  0999 V2000
    8.9869  -18.8915   18.2157 N   0  0  0  0  0  0  0  0  0  0  0  0
    9.0760  -17.5095   17.8178 C   0  0  1  0  0  0  0  0  0  0  0  0
    8.2631  -17.2610   16.5861 C   0  0  0  0  0  0  0  0  0  0  0  0
    8.8970  -18.0076   15.4676 C   0  0  0  0  0  0  0  0  0  0  0  0
   10.1974  -17.9416   15.0196 C   0  0  0  0  0  0  0  0  0  0  0  0
   10.3771  -18.7776   13.9809 N   0  0  0  0  0  0  0  0  0  0  0  0
    9.1853  -19.3682   13.7787 C   0  0  0  0  0  0  0  0  0  0  0  0
    8.2764  -18.9112   14.6734 N   0  0  0  0  0  0  0  0  0  0  0  0
    8.6553  -16.6651   18.9656 C   0  0  0  0  0  0  0  0  0  0  0  0
    8.5073  -15.4153   18.8644 O   0  0  0  0  0  0  0  0  0  0  0  0
    6.4714  -17.9494   22.1188 O   0  0  0  0  0  0  0  0  0  0  0  0
    6.7273  -16.5846   21.9617 C   0  0  0  0  0  0  0  0  0  0  0  0
    8.1050  -16.4354   21.4147 C   0  0  2  0  0  0  0  0  0  0  0  0
    8.3907  -17.2166   20.2613 N   0  0  0  0  0  0  0  0  0  0  0  0
    9.1375  -16.6560   22.4883 C   0  0  0  0  0  0  0  0  0  0  0  0
    9.7661  -17.7350   22.5820 O   0  0  0  0  0  0  0  0  0  0  0  0
    9.4378  -15.6439   23.4387 N   0  0  0  0  0  0  0  0  0  0  0  0
    9.4045  -15.8795   24.8802 C   0  0  1  0  0  0  0  0  0  0  0  0
    8.0166  -15.8168   25.4156 C   0  0  0  0  0  0  0  0  0  0  0  0
    7.5114  -14.4324   25.4771 C   0  0  0  0  0  0  0  0  0  0  0  0
    8.1609  -13.2335   25.1652 C   0  0  0  0  0  0  0  0  0  0  0  0
    7.3312  -12.1949   25.3857 N   0  0  0  0  0  0  0  0  0  0  0  0
    6.1759  -12.7055   25.8283 C   0  0  0  0  0  0  0  0  0  0  0  0
    6.2759  -14.0413   25.8855 N   0  0  0  0  0  0  0  0  0  0  0  0
   10.1286  -17.1070   25.2442 C   0  0  0  0  0  0  0  0  0  0  0  0
   10.5276  -18.0122   24.3017 O   0  0  0  0  0  0  0  0  0  0  0  0
   10.3810  -17.3222   26.4518 O   0  0  0  0  0  0  0  0  0  0  0  0
  2  1  1  1
  3  2  1  0
  3  4  1  0
  4  8  1  0
  5  4  2  0
  5  6  1  0
  6  7  1  0
  8  7  2  0
  9  2  1  0
  9 10  2  0
 11 12  1  0
 13 12  1  1
 13 15  1  0
 13 14  1  0
 14  9  1  0
 15 17  1  0
 16 15  2  0
 17 18  1  0
 18 19  1  6
 19 20  1  0
 20 21  2  0
 20 24  1  0
 21 22  1  0
 22 23  1  0
 24 23  2  0
 25 26  1  0
 25 18  1  0
 27 25  2  0
M  END
$$$$
