HSH.pdb
     RDKit          3D

 27 28  0  0  1  0  0  0  0  0999 V2000
   10.5951  -22.9357   22.1055 N   0  0  0  0  0  0  0  0  0  0  0  0
   11.7164  -22.5013   22.8991 C   0  0  1  0  0  0  0  0  0  0  0  0
   11.9946  -21.0488   22.6700 C   0  0  0  0  0  0  0  0  0  0  0  0
   12.3970  -20.8841   21.2483 C   0  0  0  0  0  0  0  0  0  0  0  0
   13.6267  -21.1122   20.6724 C   0  0  0  0  0  0  0  0  0  0  0  0
   13.5828  -20.8444   19.3546 N   0  0  0  0  0  0  0  0  0  0  0  0
   12.3216  -20.4475   19.1058 C   0  0  0  0  0  0  0  0  0  0  0  0
   11.5894  -20.4663   20.2456 N   0  0  0  0  0  0  0  0  0  0  0  0
   11.4305  -22.8154   24.3229 C   0  0  0  0  0  0  0  0  0  0  0  0
   10.3950  -22.3957   24.9109 O   0  0  0  0  0  0  0  0  0  0  0  0
   14.0606  -25.1674   26.6237 O   0  0  0  0  0  0  0  0  0  0  0  0
   12.6959  -25.2604   26.9094 C   0  0  0  0  0  0  0  0  0  0  0  0
   12.0458  -23.9965   26.4629 C   0  0  2  0  0  0  0  0  0  0  0  0
   12.3130  -23.6153   25.1193 N   0  0  0  0  0  0  0  0  0  0  0  0
   12.3468  -22.8703   27.4161 C   0  0  0  0  0  0  0  0  0  0  0  0
   13.2994  -22.0817   27.2196 O   0  0  0  0  0  0  0  0  0  0  0  0
   11.5577  -22.6600   28.5784 N   0  0  0  0  0  0  0  0  0  0  0  0
   11.7914  -21.5520   29.5015 C   0  0  1  0  0  0  0  0  0  0  0  0
   10.5511  -20.7632   29.7387 C   0  0  0  0  0  0  0  0  0  0  0  0
   10.0234  -20.1773   28.4921 C   0  0  0  0  0  0  0  0  0  0  0  0
   10.6880  -19.4480   27.5008 C   0  0  0  0  0  0  0  0  0  0  0  0
    9.8156  -19.0841   26.5405 N   0  0  0  0  0  0  0  0  0  0  0  0
    8.6186  -19.5638   26.8987 C   0  0  0  0  0  0  0  0  0  0  0  0
    8.7347  -20.2180   28.0634 N   0  0  0  0  0  0  0  0  0  0  0  0
   12.4537  -22.0057   30.7340 C   0  0  0  0  0  0  0  0  0  0  0  0
   12.8023  -21.1326   31.7256 O   0  0  0  0  0  0  0  0  0  0  0  0
   12.7030  -23.2254   30.8704 O   0  0  0  0  0  0  0  0  0  0  0  0
  2  1  1  6
  3  2  1  0
  3  4  1  0
  4  8  1  0
  5  4  2  0
  5  6  1  0
  6  7  1  0
  8  7  2  0
  9  2  1  0
  9 10  2  0
 11 12  1  0
 13 12  1  1
 13 15  1  0
 13 14  1  0
 14  9  1  0
 15 17  1  0
 16 15  2  0
 17 18  1  0
 18 19  1  1
 19 20  1  0
 20 21  2  0
 20 24  1  0
 21 22  1  0
 22 23  1  0
 24 23  2  0
 25 26  1  0
 25 18  1  0
 27 25  2  0
M  END
$$$$
