HSH.pdb
     RDKit          3D

 27 28  0  0  1  0  0  0  0  0999 V2000
   10.9866  -16.3378   12.6791 N   0  0  0  0  0  0  0  0  0  0  0  0
   10.6330  -16.8602   13.9745 C   0  0  1  0  0  0  0  0  0  0  0  0
   11.3126  -18.1709   14.2189 C   0  0  0  0  0  0  0  0  0  0  0  0
   10.5914  -19.2076   13.4344 C   0  0  0  0  0  0  0  0  0  0  0  0
    9.3318  -19.7220   13.6455 C   0  0  0  0  0  0  0  0  0  0  0  0
    9.0414  -20.6460   12.7116 N   0  0  0  0  0  0  0  0  0  0  0  0
   10.1229  -20.7095   11.9140 C   0  0  0  0  0  0  0  0  0  0  0  0
   11.0727  -19.8422   12.3398 N   0  0  0  0  0  0  0  0  0  0  0  0
   10.9694  -15.8374   14.9982 C   0  0  0  0  0  0  0  0  0  0  0  0
   12.0617  -15.2041   14.9848 O   0  0  0  0  0  0  0  0  0  0  0  0
    8.6652  -15.3644   18.4999 O   0  0  0  0  0  0  0  0  0  0  0  0
    9.2526  -14.2045   17.9879 C   0  0  0  0  0  0  0  0  0  0  0  0
   10.3968  -14.6113   17.1248 C   0  0  2  0  0  0  0  0  0  0  0  0
   10.0744  -15.5048   16.0665 N   0  0  0  0  0  0  0  0  0  0  0  0
   11.5353  -15.1425   17.9550 C   0  0  0  0  0  0  0  0  0  0  0  0
   11.6943  -16.3706   18.1408 O   0  0  0  0  0  0  0  0  0  0  0  0
   12.4749  -14.2663   18.5608 N   0  0  0  0  0  0  0  0  0  0  0  0
   13.6460  -14.7465   19.2904 C   0  0  1  0  0  0  0  0  0  0  0  0
   14.7068  -13.7052   19.3740 C   0  0  0  0  0  0  0  0  0  0  0  0
   15.9248  -14.2106   20.0349 C   0  0  0  0  0  0  0  0  0  0  0  0
   16.1697  -15.4601   20.6138 C   0  0  0  0  0  0  0  0  0  0  0  0
   17.4159  -15.4891   21.1253 N   0  0  0  0  0  0  0  0  0  0  0  0
   17.9643  -14.2921   20.8851 C   0  0  0  0  0  0  0  0  0  0  0  0
   17.0797  -13.5230   20.2341 N   0  0  0  0  0  0  0  0  0  0  0  0
   13.2735  -15.3233   20.5913 C   0  0  0  0  0  0  0  0  0  0  0  0
   14.1542  -16.0647   21.3272 O   0  0  0  0  0  0  0  0  0  0  0  0
   12.1165  -15.1268   21.0285 O   0  0  0  0  0  0  0  0  0  0  0  0
  2  1  1  6
  3  2  1  0
  3  4  1  0
  4  8  1  0
  5  4  2  0
  5  6  1  0
  6  7  1  0
  8  7  2  0
  9  2  1  0
  9 10  2  0
 11 12  1  0
 13 12  1  1
 13 15  1  0
 13 14  1  0
 14  9  1  0
 15 17  1  0
 16 15  2  0
 17 18  1  0
 18 19  1  1
 19 20  1  0
 20 21  2  0
 20 24  1  0
 21 22  1  0
 22 23  1  0
 24 23  2  0
 25 26  1  0
 25 18  1  0
 27 25  2  0
M  END
$$$$
