HSH.pdb
     RDKit          3D

 27 28  0  0  1  0  0  0  0  0999 V2000
   10.5636  -17.8910   18.2495 N   0  0  0  0  0  0  0  0  0  0  0  0
    9.5392  -18.2528   19.1959 C   0  0  1  0  0  0  0  0  0  0  0  0
    9.9265  -19.4880   19.9469 C   0  0  0  0  0  0  0  0  0  0  0  0
    9.4313  -20.6594   19.1770 C   0  0  0  0  0  0  0  0  0  0  0  0
   10.1313  -21.4858   18.3267 C   0  0  0  0  0  0  0  0  0  0  0  0
    9.3203  -22.4342   17.8235 N   0  0  0  0  0  0  0  0  0  0  0  0
    8.1094  -22.1999   18.3609 C   0  0  0  0  0  0  0  0  0  0  0  0
    8.1605  -21.1257   19.1848 N   0  0  0  0  0  0  0  0  0  0  0  0
    9.2951  -17.0896   20.0873 C   0  0  0  0  0  0  0  0  0  0  0  0
   10.2121  -16.2843   20.4110 O   0  0  0  0  0  0  0  0  0  0  0  0
    5.5128  -16.3605   21.8963 O   0  0  0  0  0  0  0  0  0  0  0  0
    6.3228  -15.2696   21.5698 C   0  0  0  0  0  0  0  0  0  0  0  0
    7.7360  -15.7400   21.5369 C   0  0  2  0  0  0  0  0  0  0  0  0
    8.0020  -16.8080   20.6365 N   0  0  0  0  0  0  0  0  0  0  0  0
    8.2281  -16.0638   22.9227 C   0  0  0  0  0  0  0  0  0  0  0  0
    8.4631  -17.2418   23.2767 O   0  0  0  0  0  0  0  0  0  0  0  0
    8.4448  -15.0406   23.8838 N   0  0  0  0  0  0  0  0  0  0  0  0
    8.8036  -15.3239   25.2714 C   0  0  1  0  0  0  0  0  0  0  0  0
    9.0547  -14.0740   26.0405 C   0  0  0  0  0  0  0  0  0  0  0  0
    9.3732  -14.3508   27.4539 C   0  0  0  0  0  0  0  0  0  0  0  0
    8.5674  -14.9009   28.4562 C   0  0  0  0  0  0  0  0  0  0  0  0
    9.2548  -14.9575   29.6138 N   0  0  0  0  0  0  0  0  0  0  0  0
   10.4723  -14.4581   29.3695 C   0  0  0  0  0  0  0  0  0  0  0  0
   10.5505  -14.0936   28.0815 N   0  0  0  0  0  0  0  0  0  0  0  0
    7.8339  -16.2295   25.9064 C   0  0  0  0  0  0  0  0  0  0  0  0
    8.2243  -17.1928   26.7933 O   0  0  0  0  0  0  0  0  0  0  0  0
    6.6205  -16.1095   25.6207 O   0  0  0  0  0  0  0  0  0  0  0  0
  2  1  1  6
  3  2  1  0
  3  4  1  0
  4  8  1  0
  5  4  2  0
  5  6  1  0
  6  7  1  0
  8  7  2  0
  9  2  1  0
  9 10  2  0
 11 12  1  0
 13 12  1  1
 13 15  1  0
 13 14  1  0
 14  9  1  0
 15 17  1  0
 16 15  2  0
 17 18  1  0
 18 19  1  1
 19 20  1  0
 20 21  2  0
 20 24  1  0
 21 22  1  0
 22 23  1  0
 24 23  2  0
 25 26  1  0
 25 18  1  0
 27 25  2  0
M  END
$$$$
