MRA.pdb
     RDKit          3D

 25 24  0  0  1  0  0  0  0  0999 V2000
   17.0991  -22.2973    1.9365 C   0  0  0  0  0  0  0  0  0  0  0  0
   15.3234  -22.3111    1.5391 S   0  0  0  0  0  0  0  0  0  0  0  0
   14.8665  -23.8460    0.7408 C   0  0  0  0  0  0  0  0  0  0  0  0
   15.9455  -24.3285   -0.1670 C   0  0  0  0  0  0  0  0  0  0  0  0
   16.2064  -25.8113   -0.1110 C   0  0  2  0  0  0  0  0  0  0  0  0
   16.8412  -26.2362    1.0922 N   0  0  0  0  0  0  0  0  0  0  0  0
   16.9639  -26.1945   -1.3334 C   0  0  0  0  0  0  0  0  0  0  0  0
   18.1994  -25.9899   -1.3491 O   0  0  0  0  0  0  0  0  0  0  0  0
   15.0811  -32.2690   -7.1202 N   0  0  0  0  0  0  0  0  0  0  0  0
   14.6528  -30.9332   -7.3644 C   0  0  0  0  0  0  0  0  0  0  0  0
   13.6266  -30.7133   -8.1317 N   0  0  0  0  0  0  0  0  0  0  0  0
   15.3531  -29.8700   -6.7650 N   0  0  0  0  0  0  0  0  0  0  0  0
   16.6203  -30.2445   -6.0371 C   0  0  0  0  0  0  0  0  0  0  0  0
   17.1123  -28.9822   -5.4468 C   0  0  0  0  0  0  0  0  0  0  0  0
   16.6245  -28.4346   -4.1841 C   0  0  0  0  0  0  0  0  0  0  0  0
   17.1927  -27.1845   -3.6648 C   0  0  2  0  0  0  0  0  0  0  0  0
   16.3655  -26.7732   -2.4696 N   0  0  0  0  0  0  0  0  0  0  0  0
   16.9807  -26.0560   -4.6047 C   0  0  0  0  0  0  0  0  0  0  0  0
   15.9856  -25.3297   -4.7104 O   0  0  0  0  0  0  0  0  0  0  0  0
   13.3540  -29.7363   -8.3510 C   0  0  0  0  0  0  0  0  0  0  0  0
   19.2088  -24.4639   -7.2128 C   0  0  1  0  0  0  0  0  0  0  0  0
   17.8769  -24.6304   -6.4886 N   0  0  0  0  0  0  0  0  0  0  0  0
   18.0383  -25.7231   -5.5332 C   0  0  0  0  0  0  0  0  0  0  0  0
   16.8751  -25.0330   -7.4846 O   0  0  0  0  0  0  0  0  0  0  0  0
   16.3647  -24.0862   -8.3748 O   0  0  0  0  0  0  0  0  0  0  0  0
  1  2  1  0
  2  3  1  0
  4  3  1  0
  5  4  1  0
  5  6  1  1
  7 17  1  0
  7  5  1  0
  8  7  2  0
  9 10  1  0
 10 12  1  0
 10 11  2  0
 12 13  1  0
 14 15  1  0
 14 13  1  0
 16 15  1  6
 16 17  1  0
 18 22  1  0
 18 16  1  0
 19 18  2  0
 21 20  1  1
 21 23  1  0
 21 22  1  0
 23 24  1  0
 25 23  2  0
M  END
$$$$
