MRA.pdb
     RDKit          3D

 25 24  0  0  1  0  0  0  0  0999 V2000
   22.4290  -11.8763    7.8575 C   0  0  0  0  0  0  0  0  0  0  0  0
   21.3774  -10.5007    7.2977 S   0  0  0  0  0  0  0  0  0  0  0  0
   20.1319  -11.0830    6.1525 C   0  0  0  0  0  0  0  0  0  0  0  0
   19.3628  -12.2260    6.7211 C   0  0  0  0  0  0  0  0  0  0  0  0
   18.4214  -12.8999    5.7570 C   0  0  2  0  0  0  0  0  0  0  0  0
   17.3351  -12.0742    5.3455 N   0  0  0  0  0  0  0  0  0  0  0  0
   17.9769  -14.1835    6.3649 C   0  0  0  0  0  0  0  0  0  0  0  0
   17.2890  -14.1331    7.4103 O   0  0  0  0  0  0  0  0  0  0  0  0
   16.0179  -21.7704    2.8882 N   0  0  0  0  0  0  0  0  0  0  0  0
   15.7120  -20.3818    2.8123 C   0  0  0  0  0  0  0  0  0  0  0  0
   14.9820  -19.9330    1.8345 N   0  0  0  0  0  0  0  0  0  0  0  0
   16.2083  -19.5168    3.8051 N   0  0  0  0  0  0  0  0  0  0  0  0
   16.9834  -20.1724    4.9211 C   0  0  0  0  0  0  0  0  0  0  0  0
   17.2570  -19.0886    5.8877 C   0  0  0  0  0  0  0  0  0  0  0  0
   17.5871  -17.7205    5.4982 C   0  0  0  0  0  0  0  0  0  0  0  0
   17.8778  -16.7193    6.5318 C   0  0  2  0  0  0  0  0  0  0  0  0
   18.2886  -15.4475    5.8276 N   0  0  0  0  0  0  0  0  0  0  0  0
   19.0974  -17.0673    7.3020 C   0  0  0  0  0  0  0  0  0  0  0  0
   20.2716  -17.0573    6.9144 O   0  0  0  0  0  0  0  0  0  0  0  0
   14.6726  -18.9425    1.8423 C   0  0  0  0  0  0  0  0  0  0  0  0
   19.6513  -17.8177   10.9546 C   0  0  1  0  0  0  0  0  0  0  0  0
   20.1208  -17.7646    9.5045 N   0  0  0  0  0  0  0  0  0  0  0  0
   18.9495  -17.4752    8.6816 C   0  0  0  0  0  0  0  0  0  0  0  0
   20.6168  -19.1003    9.1472 O   0  0  0  0  0  0  0  0  0  0  0  0
   21.9285  -19.4590    9.4632 O   0  0  0  0  0  0  0  0  0  0  0  0
  1  2  1  0
  2  3  1  0
  4  3  1  0
  5  4  1  0
  5  6  1  1
  7 17  1  0
  7  5  1  0
  8  7  2  0
  9 10  1  0
 10 12  1  0
 10 11  2  0
 12 13  1  0
 14 15  1  0
 14 13  1  0
 16 15  1  6
 16 17  1  0
 18 22  1  0
 18 16  1  0
 19 18  2  0
 21 20  1  1
 21 23  1  0
 21 22  1  0
 23 24  1  0
 25 23  2  0
M  END
$$$$
