MRA.pdb
     RDKit          3D

 25 24  0  0  1  0  0  0  0  0999 V2000
   32.1453  -24.4616  -11.1258 C   0  0  0  0  0  0  0  0  0  0  0  0
   32.6056  -22.8798  -10.3528 S   0  0  0  0  0  0  0  0  0  0  0  0
   31.9205  -21.5050  -11.2707 C   0  0  0  0  0  0  0  0  0  0  0  0
   30.6264  -21.8714  -11.9128 C   0  0  0  0  0  0  0  0  0  0  0  0
   29.9968  -20.7806  -12.7396 C   0  0  2  0  0  0  0  0  0  0  0  0
   30.3291  -19.4657  -12.3018 N   0  0  0  0  0  0  0  0  0  0  0  0
   28.5292  -21.0233  -12.7858 C   0  0  0  0  0  0  0  0  0  0  0  0
   28.1238  -22.0835  -13.3153 O   0  0  0  0  0  0  0  0  0  0  0  0
   21.5988  -20.8975   -9.8157 N   0  0  0  0  0  0  0  0  0  0  0  0
   22.2066  -21.5983   -8.7353 C   0  0  0  0  0  0  0  0  0  0  0  0
   21.5669  -22.5687   -8.1527 N   0  0  0  0  0  0  0  0  0  0  0  0
   23.4973  -21.2245   -8.3175 N   0  0  0  0  0  0  0  0  0  0  0  0
   24.0971  -20.0325   -9.0213 C   0  0  0  0  0  0  0  0  0  0  0  0
   24.7601  -20.5870  -10.2199 C   0  0  0  0  0  0  0  0  0  0  0  0
   25.4454  -19.7696  -11.2172 C   0  0  0  0  0  0  0  0  0  0  0  0
   26.0962  -20.4143  -12.3644 C   0  0  2  0  0  0  0  0  0  0  0  0
   27.5758  -20.1258  -12.2669 N   0  0  0  0  0  0  0  0  0  0  0  0
   25.7255  -19.7580  -13.6427 C   0  0  0  0  0  0  0  0  0  0  0  0
   26.0239  -18.6224  -14.0302 O   0  0  0  0  0  0  0  0  0  0  0  0
   21.9995  -23.0497   -7.3413 C   0  0  0  0  0  0  0  0  0  0  0  0
   24.8704  -20.7259  -16.9794 C   0  0  1  0  0  0  0  0  0  0  0  0
   24.4250  -19.8584  -15.8067 N   0  0  0  0  0  0  0  0  0  0  0  0
   24.9157  -20.4951  -14.5874 C   0  0  0  0  0  0  0  0  0  0  0  0
   22.9565  -19.8715  -15.7749 O   0  0  0  0  0  0  0  0  0  0  0  0
   22.2367  -19.1662  -16.7412 O   0  0  0  0  0  0  0  0  0  0  0  0
  1  2  1  0
  2  3  1  0
  4  3  1  0
  5  4  1  0
  5  6  1  1
  7 17  1  0
  7  5  1  0
  8  7  2  0
  9 10  1  0
 10 12  1  0
 10 11  2  0
 12 13  1  0
 14 15  1  0
 14 13  1  0
 16 15  1  1
 16 17  1  0
 18 22  1  0
 18 16  1  0
 19 18  2  0
 21 20  1  6
 21 23  1  0
 21 22  1  0
 23 24  1  0
 25 23  2  0
M  END
$$$$
