MRA.pdb
     RDKit          3D

 25 24  0  0  1  0  0  0  0  0999 V2000
   27.4941  -19.3616   -3.8392 C   0  0  0  0  0  0  0  0  0  0  0  0
   28.8394  -18.9843   -5.0050 S   0  0  0  0  0  0  0  0  0  0  0  0
   28.8269  -20.1327   -6.3772 C   0  0  0  0  0  0  0  0  0  0  0  0
   27.6929  -19.8588   -7.3047 C   0  0  0  0  0  0  0  0  0  0  0  0
   27.5532  -20.8362   -8.4426 C   0  0  2  0  0  0  0  0  0  0  0  0
   28.7842  -21.1343   -9.0962 N   0  0  0  0  0  0  0  0  0  0  0  0
   26.5130  -20.3186   -9.3725 C   0  0  0  0  0  0  0  0  0  0  0  0
   26.5483  -19.1048   -9.6791 O   0  0  0  0  0  0  0  0  0  0  0  0
   25.2459  -23.4160  -16.0874 N   0  0  0  0  0  0  0  0  0  0  0  0
   24.2246  -22.4739  -16.3991 C   0  0  0  0  0  0  0  0  0  0  0  0
   23.2579  -22.8099  -17.2009 N   0  0  0  0  0  0  0  0  0  0  0  0
   24.2817  -21.1891  -15.8280 N   0  0  0  0  0  0  0  0  0  0  0  0
   25.2687  -21.0138  -14.7006 C   0  0  0  0  0  0  0  0  0  0  0  0
   24.6927  -21.7636  -13.5650 C   0  0  0  0  0  0  0  0  0  0  0  0
   25.2707  -21.7725  -12.2240 C   0  0  0  0  0  0  0  0  0  0  0  0
   24.8483  -20.7657  -11.2425 C   0  0  2  0  0  0  0  0  0  0  0  0
   25.4943  -21.1200   -9.9237 N   0  0  0  0  0  0  0  0  0  0  0  0
   23.4018  -20.8792  -10.9313 C   0  0  0  0  0  0  0  0  0  0  0  0
   22.8422  -21.7071  -10.2031 O   0  0  0  0  0  0  0  0  0  0  0  0
   22.4691  -22.1527  -17.3520 C   0  0  0  0  0  0  0  0  0  0  0  0
   20.4107  -18.7888  -11.9189 C   0  0  1  0  0  0  0  0  0  0  0  0
   21.0522  -20.0241  -11.2957 N   0  0  0  0  0  0  0  0  0  0  0  0
   22.4908  -19.9277  -11.5282 C   0  0  0  0  0  0  0  0  0  0  0  0
   20.5465  -21.2005  -12.0155 O   0  0  0  0  0  0  0  0  0  0  0  0
   19.2876  -21.7160  -11.7013 O   0  0  0  0  0  0  0  0  0  0  0  0
  1  2  1  0
  2  3  1  0
  4  3  1  0
  5  4  1  0
  5  6  1  6
  7 17  1  0
  7  5  1  0
  8  7  2  0
  9 10  1  0
 10 12  1  0
 10 11  2  0
 12 13  1  0
 14 15  1  0
 14 13  1  0
 16 15  1  6
 16 17  1  0
 18 22  1  0
 18 16  1  0
 19 18  2  0
 21 20  1  1
 21 23  1  0
 21 22  1  0
 23 24  1  0
 25 23  2  0
M  END
$$$$
