MRA.pdb
     RDKit          3D

 25 24  0  0  1  0  0  0  0  0999 V2000
   11.8031  -26.1992  -12.7295 C   0  0  0  0  0  0  0  0  0  0  0  0
   13.3908  -25.3293  -12.9134 S   0  0  0  0  0  0  0  0  0  0  0  0
   13.5358  -24.0170  -11.7056 C   0  0  0  0  0  0  0  0  0  0  0  0
   14.7535  -23.1913  -11.9438 C   0  0  0  0  0  0  0  0  0  0  0  0
   16.0369  -23.7897  -11.4293 C   0  0  2  0  0  0  0  0  0  0  0  0
   16.2319  -23.6096  -10.0290 N   0  0  0  0  0  0  0  0  0  0  0  0
   17.1587  -23.2510  -12.2454 C   0  0  0  0  0  0  0  0  0  0  0  0
   17.5439  -22.0812  -12.0180 O   0  0  0  0  0  0  0  0  0  0  0  0
   24.9085  -25.8108  -15.5487 N   0  0  0  0  0  0  0  0  0  0  0  0
   24.9139  -24.5248  -14.9374 C   0  0  0  0  0  0  0  0  0  0  0  0
   25.9999  -23.8099  -14.9449 N   0  0  0  0  0  0  0  0  0  0  0  0
   23.7349  -24.0492  -14.3341 N   0  0  0  0  0  0  0  0  0  0  0  0
   22.5702  -25.0079  -14.3205 C   0  0  0  0  0  0  0  0  0  0  0  0
   21.3732  -24.1615  -14.5063 C   0  0  0  0  0  0  0  0  0  0  0  0
   20.1202  -24.3611  -13.7834 C   0  0  0  0  0  0  0  0  0  0  0  0
   19.0071  -23.4250  -13.9836 C   0  0  2  0  0  0  0  0  0  0  0  0
   17.8074  -23.9859  -13.2569 N   0  0  0  0  0  0  0  0  0  0  0  0
   18.5499  -23.4135  -15.3953 C   0  0  0  0  0  0  0  0  0  0  0  0
   18.0457  -24.3403  -16.0400 O   0  0  0  0  0  0  0  0  0  0  0  0
   25.9579  -22.8158  -14.6501 C   0  0  0  0  0  0  0  0  0  0  0  0
   18.1844  -20.6668  -17.9441 C   0  0  1  0  0  0  0  0  0  0  0  0
   18.3006  -22.1389  -17.5627 N   0  0  0  0  0  0  0  0  0  0  0  0
   18.6889  -22.1913  -16.1558 C   0  0  0  0  0  0  0  0  0  0  0  0
   19.3857  -22.7224  -18.3626 O   0  0  0  0  0  0  0  0  0  0  0  0
   19.1408  -23.1144  -19.6801 O   0  0  0  0  0  0  0  0  0  0  0  0
  1  2  1  0
  2  3  1  0
  4  3  1  0
  5  4  1  0
  5  6  1  1
  7 17  1  0
  7  5  1  0
  8  7  2  0
  9 10  1  0
 10 12  1  0
 10 11  2  0
 12 13  1  0
 14 15  1  0
 14 13  1  0
 16 15  1  6
 16 17  1  0
 18 22  1  0
 18 16  1  0
 19 18  2  0
 21 20  1  1
 21 23  1  0
 21 22  1  0
 23 24  1  0
 25 23  2  0
M  END
$$$$
