MRA.pdb
     RDKit          3D

 25 24  0  0  1  0  0  0  0  0999 V2000
   30.7161  -21.1574  -10.2438 C   0  0  0  0  0  0  0  0  0  0  0  0
   28.9036  -21.1671  -10.4053 S   0  0  0  0  0  0  0  0  0  0  0  0
   28.4056  -22.0449  -11.8829 C   0  0  0  0  0  0  0  0  0  0  0  0
   26.9222  -22.0734  -12.0240 C   0  0  0  0  0  0  0  0  0  0  0  0
   26.2774  -20.7263  -12.2223 C   0  0  2  0  0  0  0  0  0  0  0  0
   26.5601  -19.7968  -11.1797 N   0  0  0  0  0  0  0  0  0  0  0  0
   24.8192  -20.9375  -12.4319 C   0  0  0  0  0  0  0  0  0  0  0  0
   24.4626  -21.7450  -13.3203 O   0  0  0  0  0  0  0  0  0  0  0  0
   18.9873  -21.7095   -8.9292 N   0  0  0  0  0  0  0  0  0  0  0  0
   19.7481  -22.4664   -7.9934 C   0  0  0  0  0  0  0  0  0  0  0  0
   19.3151  -23.6259   -7.5954 N   0  0  0  0  0  0  0  0  0  0  0  0
   20.9630  -21.9412   -7.5155 N   0  0  0  0  0  0  0  0  0  0  0  0
   21.3691  -20.6031   -8.0818 C   0  0  0  0  0  0  0  0  0  0  0  0
   22.0074  -20.9118   -9.3783 C   0  0  0  0  0  0  0  0  0  0  0  0
   21.6667  -20.2397  -10.6290 C   0  0  0  0  0  0  0  0  0  0  0  0
   22.3608  -20.6116  -11.8681 C   0  0  2  0  0  0  0  0  0  0  0  0
   23.8228  -20.2784  -11.6857 N   0  0  0  0  0  0  0  0  0  0  0  0
   21.9704  -19.7326  -12.9981 C   0  0  0  0  0  0  0  0  0  0  0  0
   22.2642  -18.5447  -13.1754 O   0  0  0  0  0  0  0  0  0  0  0  0
   19.8447  -24.1465   -6.8705 C   0  0  0  0  0  0  0  0  0  0  0  0
   21.3285  -20.0990  -16.4379 C   0  0  1  0  0  0  0  0  0  0  0  0
   20.7336  -19.4647  -15.1851 N   0  0  0  0  0  0  0  0  0  0  0  0
   21.1444  -20.2850  -14.0488 C   0  0  0  0  0  0  0  0  0  0  0  0
   19.2709  -19.5362  -15.3006 O   0  0  0  0  0  0  0  0  0  0  0  0
   18.6073  -18.7110  -16.2105 O   0  0  0  0  0  0  0  0  0  0  0  0
  1  2  1  0
  2  3  1  0
  4  3  1  0
  5  4  1  0
  5  6  1  1
  7 17  1  0
  7  5  1  0
  8  7  2  0
  9 10  1  0
 10 12  1  0
 10 11  2  0
 12 13  1  0
 14 15  1  0
 14 13  1  0
 16 15  1  1
 16 17  1  0
 18 22  1  0
 18 16  1  0
 19 18  2  0
 21 20  1  1
 21 23  1  0
 21 22  1  0
 23 24  1  0
 25 23  2  0
M  END
$$$$
