MRA.pdb
     RDKit          3D

 25 24  0  0  1  0  0  0  0  0999 V2000
   26.4015  -19.8040   -6.3400 C   0  0  0  0  0  0  0  0  0  0  0  0
   28.2136  -19.8543   -6.4995 S   0  0  0  0  0  0  0  0  0  0  0  0
   28.7034  -21.0043   -7.7799 C   0  0  0  0  0  0  0  0  0  0  0  0
   28.1195  -20.6299   -9.0990 C   0  0  0  0  0  0  0  0  0  0  0  0
   28.3772  -21.6144  -10.2099 C   0  0  2  0  0  0  0  0  0  0  0  0
   29.7548  -21.9371  -10.3811 N   0  0  0  0  0  0  0  0  0  0  0  0
   27.7459  -21.0882  -11.4505 C   0  0  0  0  0  0  0  0  0  0  0  0
   28.4360  -20.3587  -12.1990 O   0  0  0  0  0  0  0  0  0  0  0  0
   19.4311  -21.8892  -13.3792 N   0  0  0  0  0  0  0  0  0  0  0  0
   19.9317  -21.3153  -12.1760 C   0  0  0  0  0  0  0  0  0  0  0  0
   19.1053  -20.8192  -11.3035 N   0  0  0  0  0  0  0  0  0  0  0  0
   21.3210  -21.2976  -11.9530 N   0  0  0  0  0  0  0  0  0  0  0  0
   22.1773  -21.7753  -13.0996 C   0  0  0  0  0  0  0  0  0  0  0  0
   23.5659  -21.7007  -12.5997 C   0  0  0  0  0  0  0  0  0  0  0  0
   24.7367  -22.0244  -13.4101 C   0  0  0  0  0  0  0  0  0  0  0  0
   25.9660  -21.2357  -13.2611 C   0  0  2  0  0  0  0  0  0  0  0  0
   26.4171  -21.3669  -11.8254 N   0  0  0  0  0  0  0  0  0  0  0  0
   25.6996  -19.7808  -13.3814 C   0  0  0  0  0  0  0  0  0  0  0  0
   25.1060  -19.0467  -12.5829 O   0  0  0  0  0  0  0  0  0  0  0  0
   19.4784  -20.3718  -10.4447 C   0  0  0  0  0  0  0  0  0  0  0  0
   27.0105  -17.0646  -15.5497 C   0  0  2  0  0  0  0  0  0  0  0  0
   25.8477  -17.6809  -14.7788 N   0  0  0  0  0  0  0  0  0  0  0  0
   26.1720  -19.0878  -14.5596 C   0  0  0  0  0  0  0  0  0  0  0  0
   24.6570  -17.6103  -15.6362 O   0  0  0  0  0  0  0  0  0  0  0  0
   23.9191  -16.4268  -15.7000 O   0  0  0  0  0  0  0  0  0  0  0  0
  1  2  1  0
  2  3  1  0
  4  3  1  0
  5  4  1  0
  5  6  1  6
  7 17  1  0
  7  5  1  0
  8  7  2  0
  9 10  1  0
 10 12  1  0
 10 11  2  0
 12 13  1  0
 14 15  1  0
 14 13  1  0
 16 15  1  1
 16 17  1  0
 18 22  1  0
 18 16  1  0
 19 18  2  0
 21 20  1  1
 21 23  1  0
 21 22  1  0
 23 24  1  0
 25 23  2  0
M  END
$$$$
