ISE.pdb
     RDKit          3D

 24 23  0  0  1  0  0  0  0  0999 V2000
   20.7446  -19.3169  -16.1288 C   0  0  0  0  0  0  0  0  0  0  0  0
   22.0524  -19.9949  -15.6899 C   0  0  0  0  0  0  0  0  0  0  0  0
   21.8299  -20.8312  -14.4771 C   0  0  2  0  0  0  0  0  0  0  0  0
   20.9112  -22.0064  -14.7287 C   0  0  0  0  0  0  0  0  0  0  0  0
   21.3835  -20.1100  -13.2566 C   0  0  2  0  0  0  0  0  0  0  0  0
   22.2618  -18.9739  -13.0376 N   0  0  0  0  0  0  0  0  0  0  0  0
   21.3356  -20.9933  -12.0674 C   0  0  0  0  0  0  0  0  0  0  0  0
   20.6856  -22.0646  -12.0037 O   0  0  0  0  0  0  0  0  0  0  0  0
   24.1967  -20.8319   -8.9615 O   0  0  0  0  0  0  0  0  0  0  0  0
   22.8690  -20.9251   -8.5629 C   0  0  0  0  0  0  0  0  0  0  0  0
   21.9772  -21.4475   -9.6657 C   0  0  2  0  0  0  0  0  0  0  0  0
   22.0627  -20.6584  -10.8674 N   0  0  0  0  0  0  0  0  0  0  0  0
   20.5939  -21.5939   -9.1731 C   0  0  0  0  0  0  0  0  0  0  0  0
   19.7771  -20.6500   -9.2822 O   0  0  0  0  0  0  0  0  0  0  0  0
   20.1936  -22.8128   -8.5735 N   0  0  0  0  0  0  0  0  0  0  0  0
   18.8161  -23.0428   -8.0991 C   0  0  1  0  0  0  0  0  0  0  0  0
   18.0769  -23.6136   -9.2557 C   0  0  0  0  0  0  0  0  0  0  0  0
   16.6349  -23.8973   -9.1162 C   0  0  0  0  0  0  0  0  0  0  0  0
   15.9011  -24.5600  -10.1785 C   0  0  0  0  0  0  0  0  0  0  0  0
   16.3878  -24.9653  -11.2207 O   0  0  0  0  0  0  0  0  0  0  0  0
   18.7735  -23.8117   -6.8895 C   0  0  0  0  0  0  0  0  0  0  0  0
   17.5934  -23.8407   -6.1250 O   0  0  0  0  0  0  0  0  0  0  0  0
   14.5054  -24.7633  -10.0139 O   0  0  0  0  0  0  0  0  0  0  0  0
   19.7397  -24.4985   -6.4246 O   0  0  0  0  0  0  0  0  0  0  0  0
  1  2  1  0
  3  2  1  0
  3  5  1  0
  3  4  1  6
  5  6  1  1
  7  5  1  0
  7 12  1  0
  8  7  2  0
 10  9  1  0
 11 10  1  1
 11 12  1  0
 11 13  1  0
 13 14  2  0
 13 15  1  0
 15 16  1  0
 16 17  1  6
 16 21  1  0
 17 18  1  0
 18 19  1  0
 19 23  1  0
 19 20  2  0
 21 22  1  0
 24 21  2  0
M  END
$$$$
