ISE.pdb
     RDKit          3D

 24 23  0  0  1  0  0  0  0  0999 V2000
   26.0924  -14.2542  -15.5937 C   0  0  0  0  0  0  0  0  0  0  0  0
   24.5579  -14.2982  -15.6730 C   0  0  0  0  0  0  0  0  0  0  0  0
   24.0015  -12.9286  -15.8590 C   0  0  2  0  0  0  0  0  0  0  0  0
   24.4556  -11.9554  -14.7936 C   0  0  0  0  0  0  0  0  0  0  0  0
   22.5262  -12.8360  -16.0138 C   0  0  2  0  0  0  0  0  0  0  0  0
   22.1039  -13.7760  -17.0376 N   0  0  0  0  0  0  0  0  0  0  0  0
   22.0793  -11.4582  -16.3277 C   0  0  0  0  0  0  0  0  0  0  0  0
   22.2984  -10.8702  -17.4143 O   0  0  0  0  0  0  0  0  0  0  0  0
   18.9917   -9.6219  -14.0777 O   0  0  0  0  0  0  0  0  0  0  0  0
   19.2977   -9.3155  -15.3978 C   0  0  0  0  0  0  0  0  0  0  0  0
   20.7821   -9.3909  -15.6722 C   0  0  2  0  0  0  0  0  0  0  0  0
   21.3371  -10.6835  -15.3635 N   0  0  0  0  0  0  0  0  0  0  0  0
   21.4815   -8.2878  -14.9857 C   0  0  0  0  0  0  0  0  0  0  0  0
   22.0595   -8.4848  -13.8916 O   0  0  0  0  0  0  0  0  0  0  0  0
   21.4955   -6.9994  -15.5735 N   0  0  0  0  0  0  0  0  0  0  0  0
   22.1510   -5.8460  -14.9289 C   0  0  1  0  0  0  0  0  0  0  0  0
   22.0888   -4.7372  -15.9173 C   0  0  0  0  0  0  0  0  0  0  0  0
   22.7197   -3.4445  -15.5858 C   0  0  0  0  0  0  0  0  0  0  0  0
   22.6571   -2.3276  -16.5104 C   0  0  0  0  0  0  0  0  0  0  0  0
   22.1746   -2.3692  -17.6297 O   0  0  0  0  0  0  0  0  0  0  0  0
   21.6071   -5.5593  -13.6335 C   0  0  0  0  0  0  0  0  0  0  0  0
   22.4359   -5.0147  -12.6362 O   0  0  0  0  0  0  0  0  0  0  0  0
   23.1936   -1.0780  -16.1015 O   0  0  0  0  0  0  0  0  0  0  0  0
   20.3979   -5.7573  -13.2873 O   0  0  0  0  0  0  0  0  0  0  0  0
  1  2  1  0
  3  2  1  0
  3  5  1  0
  3  4  1  1
  5  6  1  6
  7  5  1  0
  7 12  1  0
  8  7  2  0
 10  9  1  0
 11 10  1  1
 11 12  1  0
 11 13  1  0
 13 14  2  0
 13 15  1  0
 15 16  1  0
 16 17  1  6
 16 21  1  0
 17 18  1  0
 18 19  1  0
 19 23  1  0
 19 20  2  0
 21 22  1  0
 24 21  2  0
M  END
$$$$
