ISE.pdb
     RDKit          3D

 24 23  0  0  1  0  0  0  0  0999 V2000
   18.8834  -15.0311  -16.2226 C   0  0  0  0  0  0  0  0  0  0  0  0
   18.9144  -13.8168  -17.1647 C   0  0  0  0  0  0  0  0  0  0  0  0
   19.6718  -12.6918  -16.5477 C   0  0  2  0  0  0  0  0  0  0  0  0
   19.1105  -12.2636  -15.2098 C   0  0  0  0  0  0  0  0  0  0  0  0
   19.8764  -11.4930  -17.4020 C   0  0  2  0  0  0  0  0  0  0  0  0
   20.4676  -11.9118  -18.6611 N   0  0  0  0  0  0  0  0  0  0  0  0
   20.7035  -10.4607  -16.7335 C   0  0  0  0  0  0  0  0  0  0  0  0
   20.3275   -9.7742  -15.7529 O   0  0  0  0  0  0  0  0  0  0  0  0
   25.0480   -8.1529  -16.5432 O   0  0  0  0  0  0  0  0  0  0  0  0
   24.2627   -9.1276  -17.1459 C   0  0  0  0  0  0  0  0  0  0  0  0
   22.8455   -9.1244  -16.6206 C   0  0  2  0  0  0  0  0  0  0  0  0
   22.0415  -10.1747  -17.1904 N   0  0  0  0  0  0  0  0  0  0  0  0
   22.2449   -7.7871  -16.7892 C   0  0  0  0  0  0  0  0  0  0  0  0
   21.8813   -7.3917  -17.9211 O   0  0  0  0  0  0  0  0  0  0  0  0
   22.0815   -6.9497  -15.6588 N   0  0  0  0  0  0  0  0  0  0  0  0
   21.4803   -5.6061  -15.7536 C   0  0  1  0  0  0  0  0  0  0  0  0
   20.1039   -5.7363  -15.2072 C   0  0  0  0  0  0  0  0  0  0  0  0
   19.2286   -4.5480  -15.1773 C   0  0  0  0  0  0  0  0  0  0  0  0
   17.9037   -4.6148  -14.5889 C   0  0  0  0  0  0  0  0  0  0  0  0
   17.3949   -5.6177  -14.1171 O   0  0  0  0  0  0  0  0  0  0  0  0
   22.2989   -4.5951  -15.1504 C   0  0  0  0  0  0  0  0  0  0  0  0
   22.2195   -3.2690  -15.6122 O   0  0  0  0  0  0  0  0  0  0  0  0
   17.1193   -3.4316  -14.5484 O   0  0  0  0  0  0  0  0  0  0  0  0
   23.1215   -4.7911  -14.1985 O   0  0  0  0  0  0  0  0  0  0  0  0
  1  2  1  0
  3  2  1  0
  3  5  1  0
  3  4  1  1
  5  6  1  6
  7  5  1  0
  7 12  1  0
  8  7  2  0
 10  9  1  0
 11 10  1  6
 11 12  1  0
 11 13  1  0
 13 14  2  0
 13 15  1  0
 15 16  1  0
 16 17  1  1
 16 21  1  0
 17 18  1  0
 18 19  1  0
 19 23  1  0
 19 20  2  0
 21 22  1  0
 24 21  2  0
M  END
$$$$
