ISE.pdb
     RDKit          3D

 24 23  0  0  1  0  0  0  0  0999 V2000
   46.6168  -12.8362   -7.3982 C   0  0  0  0  0  0  0  0  0  0  0  0
   45.8785  -11.7380   -6.6160 C   0  0  0  0  0  0  0  0  0  0  0  0
   44.5475  -11.4622   -7.2262 C   0  0  2  0  0  0  0  0  0  0  0  0
   44.6094  -11.2872   -8.7275 C   0  0  0  0  0  0  0  0  0  0  0  0
   43.7734  -10.3415   -6.6315 C   0  0  2  0  0  0  0  0  0  0  0  0
   43.5952  -10.5977   -5.2128 N   0  0  0  0  0  0  0  0  0  0  0  0
   42.4726  -10.1339   -7.3108 C   0  0  0  0  0  0  0  0  0  0  0  0
   42.3423   -9.6781   -8.4725 O   0  0  0  0  0  0  0  0  0  0  0  0
   38.7901  -10.9133   -5.2549 O   0  0  0  0  0  0  0  0  0  0  0  0
   38.8418  -11.0195   -6.6391 C   0  0  0  0  0  0  0  0  0  0  0  0
   39.9470  -10.1785   -7.2355 C   0  0  2  0  0  0  0  0  0  0  0  0
   41.2324  -10.4568   -6.6486 N   0  0  0  0  0  0  0  0  0  0  0  0
   39.5862   -8.7490   -7.1743 C   0  0  0  0  0  0  0  0  0  0  0  0
   39.3078   -8.2101   -6.0779 O   0  0  0  0  0  0  0  0  0  0  0  0
   39.5561   -7.9867   -8.3675 N   0  0  0  0  0  0  0  0  0  0  0  0
   39.0775   -6.5919   -8.3998 C   0  0  1  0  0  0  0  0  0  0  0  0
   40.2416   -5.7527   -8.0116 C   0  0  0  0  0  0  0  0  0  0  0  0
   40.0935   -4.2840   -7.9952 C   0  0  0  0  0  0  0  0  0  0  0  0
   41.1966   -3.4297   -7.5960 C   0  0  0  0  0  0  0  0  0  0  0  0
   41.6297   -2.4929   -8.2457 O   0  0  0  0  0  0  0  0  0  0  0  0
   38.4524   -6.2551   -9.6456 C   0  0  0  0  0  0  0  0  0  0  0  0
   38.5504   -7.1400  -10.7344 O   0  0  0  0  0  0  0  0  0  0  0  0
   41.8378   -3.6857   -6.3550 O   0  0  0  0  0  0  0  0  0  0  0  0
   37.7902   -5.1906   -9.8678 O   0  0  0  0  0  0  0  0  0  0  0  0
  1  2  1  0
  3  2  1  0
  3  5  1  0
  3  4  1  6
  5  6  1  1
  7  5  1  0
  7 12  1  0
  8  7  2  0
 10  9  1  0
 11 10  1  1
 11 12  1  0
 11 13  1  0
 13 14  2  0
 13 15  1  0
 15 16  1  0
 16 17  1  6
 16 21  1  0
 17 18  1  0
 18 19  1  0
 19 23  1  0
 19 20  2  0
 21 22  1  0
 24 21  2  0
M  END
$$$$
