ALC.pdb
     RDKit          3D

 20 19  0  0  1  0  0  0  0  0999 V2000
    7.6802  -13.2254   20.3923 C   0  0  0  0  0  0  0  0  0  0  0  0
    7.8259  -14.5939   21.0627 C   0  0  2  0  0  0  0  0  0  0  0  0
    6.4932  -15.1578   21.1468 N   0  0  0  0  0  0  0  0  0  0  0  0
    8.3650  -14.3453   22.4224 C   0  0  0  0  0  0  0  0  0  0  0  0
    9.5743  -14.0154   22.5498 O   0  0  0  0  0  0  0  0  0  0  0  0
    5.4768  -12.1834   26.6714 C   0  0  0  0  0  0  0  0  0  0  0  0
    6.6070  -12.4810   25.7021 C   0  0  1  0  0  0  0  0  0  0  0  0
    7.7707  -11.4920   25.9771 C   0  0  0  0  0  0  0  0  0  0  0  0
    7.0917  -13.8710   25.9120 C   0  0  0  0  0  0  0  0  0  0  0  0
    8.1451  -14.2783   24.9360 C   0  0  2  0  0  0  0  0  0  0  0  0
    7.5796  -14.4614   23.5994 N   0  0  0  0  0  0  0  0  0  0  0  0
    8.8747  -15.4554   25.3885 C   0  0  0  0  0  0  0  0  0  0  0  0
    9.0908  -15.6643   26.6024 O   0  0  0  0  0  0  0  0  0  0  0  0
    9.3945  -16.4510   24.4964 N   0  0  0  0  0  0  0  0  0  0  0  0
   10.0807  -17.6042   25.0171 C   0  0  1  0  0  0  0  0  0  0  0  0
    9.7393  -18.8590   24.2351 C   0  0  0  0  0  0  0  0  0  0  0  0
   10.0017  -18.6091   22.4686 S   0  0  0  0  0  0  0  0  0  0  0  0
   11.5477  -17.3776   25.0549 C   0  0  0  0  0  0  0  0  0  0  0  0
   12.3415  -18.1682   25.6183 O   0  0  0  0  0  0  0  0  0  0  0  0
   12.0497  -16.2464   24.4414 O   0  0  0  0  0  0  0  0  0  0  0  0
  2  1  1  6
  2  4  1  0
  3  2  1  0
  4  5  2  0
  7  6  1  1
  7  9  1  0
  8  7  1  0
 10  9  1  1
 10 12  1  0
 11 10  1  0
 11  4  1  0
 12 13  2  0
 12 14  1  0
 14 15  1  0
 15 18  1  0
 15 16  1  6
 17 16  1  0
 18 19  2  0
 18 20  1  0
M  END
$$$$
