ALC.pdb
     RDKit          3D

 20 19  0  0  1  0  0  0  0  0999 V2000
    6.9467  -17.8325   21.0834 C   0  0  0  0  0  0  0  0  0  0  0  0
    7.2485  -16.3502   20.8492 C   0  0  2  0  0  0  0  0  0  0  0  0
    8.2267  -16.2906   19.7811 N   0  0  0  0  0  0  0  0  0  0  0  0
    7.8329  -15.8314   22.1103 C   0  0  0  0  0  0  0  0  0  0  0  0
    9.0577  -16.0187   22.3392 O   0  0  0  0  0  0  0  0  0  0  0  0
    6.4159  -11.7428   26.5329 C   0  0  0  0  0  0  0  0  0  0  0  0
    7.4216  -12.7195   25.9499 C   0  0  1  0  0  0  0  0  0  0  0  0
    7.9596  -13.6203   27.0933 C   0  0  0  0  0  0  0  0  0  0  0  0
    6.7551  -13.5741   24.9318 C   0  0  0  0  0  0  0  0  0  0  0  0
    7.6877  -14.5339   24.2705 C   0  0  2  0  0  0  0  0  0  0  0  0
    7.0746  -15.1274   23.0824 N   0  0  0  0  0  0  0  0  0  0  0  0
    8.1714  -15.5452   25.2011 C   0  0  0  0  0  0  0  0  0  0  0  0
    7.3895  -16.3390   25.7687 O   0  0  0  0  0  0  0  0  0  0  0  0
    9.5565  -15.7096   25.5355 N   0  0  0  0  0  0  0  0  0  0  0  0
   10.0041  -16.9020   26.2060 C   0  0  1  0  0  0  0  0  0  0  0  0
   10.6260  -17.8896   25.2363 C   0  0  0  0  0  0  0  0  0  0  0  0
   10.6171  -19.5580   25.9210 S   0  0  0  0  0  0  0  0  0  0  0  0
   10.9406  -16.5712   27.3099 C   0  0  0  0  0  0  0  0  0  0  0  0
   11.3496  -15.4054   27.5255 O   0  0  0  0  0  0  0  0  0  0  0  0
   11.3738  -17.5963   28.1280 O   0  0  0  0  0  0  0  0  0  0  0  0
  2  1  1  1
  2  4  1  0
  3  2  1  0
  4  5  2  0
  7  6  1  1
  7  9  1  0
  8  7  1  0
 10  9  1  1
 10 12  1  0
 11 10  1  0
 11  4  1  0
 12 13  2  0
 12 14  1  0
 14 15  1  0
 15 18  1  0
 15 16  1  6
 17 16  1  0
 18 19  2  0
 18 20  1  0
M  END
$$$$
