ALC.pdb
     RDKit          3D

 20 19  0  0  1  0  0  0  0  0999 V2000
    7.1554  -17.5290   21.1062 C   0  0  0  0  0  0  0  0  0  0  0  0
    7.3577  -16.0238   20.9139 C   0  0  2  0  0  0  0  0  0  0  0  0
    8.3118  -15.8690   19.8336 N   0  0  0  0  0  0  0  0  0  0  0  0
    7.9290  -15.5069   22.1817 C   0  0  0  0  0  0  0  0  0  0  0  0
    9.1765  -15.5510   22.3530 O   0  0  0  0  0  0  0  0  0  0  0  0
    8.4417  -12.0960   26.1600 C   0  0  0  0  0  0  0  0  0  0  0  0
    7.3129  -13.0605   26.4777 C   0  0  1  0  0  0  0  0  0  0  0  0
    6.1980  -12.2892   27.2327 C   0  0  0  0  0  0  0  0  0  0  0  0
    6.7535  -13.6080   25.2135 C   0  0  0  0  0  0  0  0  0  0  0  0
    7.7118  -14.4867   24.4802 C   0  0  2  0  0  0  0  0  0  0  0  0
    7.1336  -14.9593   23.2224 N   0  0  0  0  0  0  0  0  0  0  0  0
    8.1839  -15.5847   25.3134 C   0  0  0  0  0  0  0  0  0  0  0  0
    7.3932  -16.4194   25.8050 O   0  0  0  0  0  0  0  0  0  0  0  0
    9.5669  -15.7938   25.6314 N   0  0  0  0  0  0  0  0  0  0  0  0
    9.9701  -16.9490   26.3894 C   0  0  1  0  0  0  0  0  0  0  0  0
   11.2811  -17.5212   25.8830 C   0  0  0  0  0  0  0  0  0  0  0  0
   11.5680  -17.0529   24.1653 S   0  0  0  0  0  0  0  0  0  0  0  0
   10.0460  -16.6337   27.8385 C   0  0  0  0  0  0  0  0  0  0  0  0
    9.8997  -15.4721   28.2882 O   0  0  0  0  0  0  0  0  0  0  0  0
   10.2883  -17.6690   28.7202 O   0  0  0  0  0  0  0  0  0  0  0  0
  2  1  1  1
  2  4  1  0
  3  2  1  0
  4  5  2  0
  7  6  1  6
  7  9  1  0
  8  7  1  0
 10  9  1  1
 10 12  1  0
 11 10  1  0
 11  4  1  0
 12 13  2  0
 12 14  1  0
 14 15  1  0
 15 18  1  0
 15 16  1  6
 17 16  1  0
 18 19  2  0
 18 20  1  0
M  END
$$$$
