ALC.pdb
     RDKit          3D

 20 19  0  0  1  0  0  0  0  0999 V2000
    7.3682  -16.6974   20.8979 C   0  0  0  0  0  0  0  0  0  0  0  0
    7.5688  -15.1969   21.1251 C   0  0  2  0  0  0  0  0  0  0  0  0
    8.5511  -14.7587   20.1535 N   0  0  0  0  0  0  0  0  0  0  0  0
    8.1030  -15.0435   22.5006 C   0  0  0  0  0  0  0  0  0  0  0  0
    9.3396  -15.1860   22.6957 O   0  0  0  0  0  0  0  0  0  0  0  0
    5.6428  -11.8842   26.5168 C   0  0  0  0  0  0  0  0  0  0  0  0
    6.6765  -12.4781   25.5765 C   0  0  1  0  0  0  0  0  0  0  0  0
    8.0286  -11.7506   25.8012 C   0  0  0  0  0  0  0  0  0  0  0  0
    6.8487  -13.9249   25.8736 C   0  0  0  0  0  0  0  0  0  0  0  0
    7.8284  -14.5966   24.9696 C   0  0  2  0  0  0  0  0  0  0  0  0
    7.2835  -14.7412   23.6198 N   0  0  0  0  0  0  0  0  0  0  0  0
    8.2840  -15.8680   25.5161 C   0  0  0  0  0  0  0  0  0  0  0  0
    7.5241  -16.8584   25.5888 O   0  0  0  0  0  0  0  0  0  0  0  0
    9.6150  -16.0832   26.0055 N   0  0  0  0  0  0  0  0  0  0  0  0
   10.0074  -17.3791   26.4938 C   0  0  1  0  0  0  0  0  0  0  0  0
   11.2449  -17.8941   25.7824 C   0  0  0  0  0  0  0  0  0  0  0  0
   11.4403  -17.1023   24.1739 S   0  0  0  0  0  0  0  0  0  0  0  0
   10.2050  -17.3550   27.9653 C   0  0  0  0  0  0  0  0  0  0  0  0
   10.0741  -16.3125   28.6500 O   0  0  0  0  0  0  0  0  0  0  0  0
   10.5469  -18.5345   28.5976 O   0  0  0  0  0  0  0  0  0  0  0  0
  2  1  1  6
  2  4  1  0
  3  2  1  0
  4  5  2  0
  7  6  1  1
  7  9  1  0
  8  7  1  0
 10  9  1  1
 10 12  1  0
 11 10  1  0
 11  4  1  0
 12 13  2  0
 12 14  1  0
 14 15  1  0
 15 18  1  0
 15 16  1  6
 17 16  1  0
 18 19  2  0
 18 20  1  0
M  END
$$$$
