ALC.pdb
     RDKit          3D

 20 19  0  0  1  0  0  0  0  0999 V2000
    7.3133  -16.6627   20.9787 C   0  0  0  0  0  0  0  0  0  0  0  0
    7.4615  -15.1593   21.2263 C   0  0  2  0  0  0  0  0  0  0  0  0
    8.3526  -14.6565   20.1995 N   0  0  0  0  0  0  0  0  0  0  0  0
    8.0835  -15.0088   22.5648 C   0  0  0  0  0  0  0  0  0  0  0  0
    9.3395  -15.0332   22.6616 O   0  0  0  0  0  0  0  0  0  0  0  0
    5.7952  -12.0570   26.7824 C   0  0  0  0  0  0  0  0  0  0  0  0
    6.8038  -12.6019   25.7868 C   0  0  1  0  0  0  0  0  0  0  0  0
    8.1463  -11.8470   25.9760 C   0  0  0  0  0  0  0  0  0  0  0  0
    7.0221  -14.0509   26.0399 C   0  0  0  0  0  0  0  0  0  0  0  0
    7.9596  -14.6817   25.0646 C   0  0  2  0  0  0  0  0  0  0  0  0
    7.3279  -14.8368   23.7543 N   0  0  0  0  0  0  0  0  0  0  0  0
    8.4958  -15.9398   25.5669 C   0  0  0  0  0  0  0  0  0  0  0  0
    7.7497  -16.9038   25.8460 O   0  0  0  0  0  0  0  0  0  0  0  0
    9.8956  -16.1709   25.7782 N   0  0  0  0  0  0  0  0  0  0  0  0
   10.3516  -17.4321   26.3009 C   0  0  1  0  0  0  0  0  0  0  0  0
   11.7465  -17.7706   25.8086 C   0  0  0  0  0  0  0  0  0  0  0  0
   11.8689  -17.5572   24.0221 S   0  0  0  0  0  0  0  0  0  0  0  0
   10.2876  -17.4469   27.7844 C   0  0  0  0  0  0  0  0  0  0  0  0
    9.8970  -16.4624   28.4560 O   0  0  0  0  0  0  0  0  0  0  0  0
   10.6763  -18.5969   28.4433 O   0  0  0  0  0  0  0  0  0  0  0  0
  2  1  1  6
  2  4  1  0
  3  2  1  0
  4  5  2  0
  7  6  1  1
  7  9  1  0
  8  7  1  0
 10  9  1  1
 10 12  1  0
 11 10  1  0
 11  4  1  0
 12 13  2  0
 12 14  1  0
 14 15  1  0
 15 18  1  0
 15 16  1  1
 17 16  1  0
 18 19  2  0
 18 20  1  0
M  END
$$$$
