ALC.pdb
     RDKit          3D

 20 19  0  0  1  0  0  0  0  0999 V2000
    7.2533  -19.1052   25.4198 C   0  0  0  0  0  0  0  0  0  0  0  0
    6.6760  -18.2984   24.2540 C   0  0  2  0  0  0  0  0  0  0  0  0
    6.8409  -19.1119   23.0656 N   0  0  0  0  0  0  0  0  0  0  0  0
    7.4908  -17.0631   24.1479 C   0  0  0  0  0  0  0  0  0  0  0  0
    8.5933  -17.1082   23.5398 O   0  0  0  0  0  0  0  0  0  0  0  0
    7.4127  -11.8172   26.7491 C   0  0  0  0  0  0  0  0  0  0  0  0
    6.8319  -13.1525   26.3189 C   0  0  1  0  0  0  0  0  0  0  0  0
    5.2922  -13.1083   26.5069 C   0  0  0  0  0  0  0  0  0  0  0  0
    7.1387  -13.3911   24.8836 C   0  0  0  0  0  0  0  0  0  0  0  0
    7.9376  -14.6307   24.6530 C   0  0  2  0  0  0  0  0  0  0  0  0
    7.0873  -15.8200   24.7024 N   0  0  0  0  0  0  0  0  0  0  0  0
    9.0657  -14.7249   25.5702 C   0  0  0  0  0  0  0  0  0  0  0  0
    9.9195  -13.8149   25.6524 O   0  0  0  0  0  0  0  0  0  0  0  0
    9.2848  -15.8468   26.4365 N   0  0  0  0  0  0  0  0  0  0  0  0
   10.2714  -15.7740   27.4820 C   0  0  1  0  0  0  0  0  0  0  0  0
    9.9873  -14.6331   28.4413 C   0  0  0  0  0  0  0  0  0  0  0  0
   11.1160  -14.6766   29.8471 S   0  0  0  0  0  0  0  0  0  0  0  0
   10.3781  -17.0677   28.2031 C   0  0  0  0  0  0  0  0  0  0  0  0
    9.5046  -17.9639   28.1206 O   0  0  0  0  0  0  0  0  0  0  0  0
   11.4888  -17.2842   28.9951 O   0  0  0  0  0  0  0  0  0  0  0  0
  2  1  1  1
  2  4  1  0
  3  2  1  0
  4  5  2  0
  7  6  1  6
  7  9  1  0
  8  7  1  0
 10  9  1  1
 10 12  1  0
 11 10  1  0
 11  4  1  0
 12 13  2  0
 12 14  1  0
 14 15  1  0
 15 18  1  0
 15 16  1  1
 17 16  1  0
 18 19  2  0
 18 20  1  0
M  END
$$$$
