ALC.pdb
     RDKit          3D

 20 19  0  0  1  0  0  0  0  0999 V2000
    7.7317  -20.0521   20.5005 C   0  0  0  0  0  0  0  0  0  0  0  0
    7.4273  -18.8243   19.6384 C   0  0  2  0  0  0  0  0  0  0  0  0
    7.7390  -19.1909   18.2711 N   0  0  0  0  0  0  0  0  0  0  0  0
    8.3350  -17.7455   20.1005 C   0  0  0  0  0  0  0  0  0  0  0  0
    9.5794  -17.8975   19.9742 O   0  0  0  0  0  0  0  0  0  0  0  0
    7.5670  -13.9590   18.9925 C   0  0  0  0  0  0  0  0  0  0  0  0
    8.1311  -13.2826   20.2293 C   0  0  1  0  0  0  0  0  0  0  0  0
    7.2822  -12.0204   20.5362 C   0  0  0  0  0  0  0  0  0  0  0  0
    8.0531  -14.2130   21.3865 C   0  0  0  0  0  0  0  0  0  0  0  0
    8.7796  -15.4966   21.1569 C   0  0  2  0  0  0  0  0  0  0  0  0
    7.8680  -16.5383   20.6838 N   0  0  0  0  0  0  0  0  0  0  0  0
    9.5242  -15.9146   22.3374 C   0  0  0  0  0  0  0  0  0  0  0  0
    8.9448  -16.3573   23.3533 O   0  0  0  0  0  0  0  0  0  0  0  0
   10.9543  -15.8536   22.4289 N   0  0  0  0  0  0  0  0  0  0  0  0
   11.6357  -16.4526   23.5463 C   0  0  1  0  0  0  0  0  0  0  0  0
   11.2500  -17.9096   23.7216 C   0  0  0  0  0  0  0  0  0  0  0  0
   12.1006  -18.6360   25.1362 S   0  0  0  0  0  0  0  0  0  0  0  0
   13.1069  -16.2986   23.4162 C   0  0  0  0  0  0  0  0  0  0  0  0
   13.6671  -16.0340   22.3258 O   0  0  0  0  0  0  0  0  0  0  0  0
   13.8825  -16.4550   24.5484 O   0  0  0  0  0  0  0  0  0  0  0  0
  2  1  1  1
  2  4  1  0
  3  2  1  0
  4  5  2  0
  7  6  1  6
  7  9  1  0
  8  7  1  0
 10  9  1  1
 10 12  1  0
 11 10  1  0
 11  4  1  0
 12 13  2  0
 12 14  1  0
 14 15  1  0
 15 18  1  0
 15 16  1  6
 17 16  1  0
 18 19  2  0
 18 20  1  0
M  END
$$$$
