ALC.pdb
     RDKit          3D

 20 19  0  0  1  0  0  0  0  0999 V2000
    6.9038  -15.3117   20.1746 C   0  0  0  0  0  0  0  0  0  0  0  0
    7.1650  -13.8990   20.7033 C   0  0  2  0  0  0  0  0  0  0  0  0
    8.0900  -13.2751   19.7781 N   0  0  0  0  0  0  0  0  0  0  0  0
    7.7983  -14.0548   22.0359 C   0  0  0  0  0  0  0  0  0  0  0  0
    9.0494  -14.1862   22.1068 O   0  0  0  0  0  0  0  0  0  0  0  0
    5.5222  -11.9650   26.7024 C   0  0  0  0  0  0  0  0  0  0  0  0
    6.5354  -12.3184   25.6282 C   0  0  1  0  0  0  0  0  0  0  0  0
    7.8566  -11.5595   25.9225 C   0  0  0  0  0  0  0  0  0  0  0  0
    6.8003  -13.7814   25.6538 C   0  0  0  0  0  0  0  0  0  0  0  0
    7.6997  -14.2338   24.5518 C   0  0  2  0  0  0  0  0  0  0  0  0
    7.0589  -14.0635   23.2479 N   0  0  0  0  0  0  0  0  0  0  0  0
    8.1647  -15.5988   24.7599 C   0  0  0  0  0  0  0  0  0  0  0  0
    7.5437  -16.5794   24.2946 O   0  0  0  0  0  0  0  0  0  0  0  0
    9.3493  -15.9228   25.5009 N   0  0  0  0  0  0  0  0  0  0  0  0
   10.0832  -17.1253   25.2056 C   0  0  1  0  0  0  0  0  0  0  0  0
   10.6600  -17.0988   23.8023 C   0  0  0  0  0  0  0  0  0  0  0  0
   11.6283  -18.5845   23.4752 S   0  0  0  0  0  0  0  0  0  0  0  0
   11.1437  -17.3627   26.2176 C   0  0  0  0  0  0  0  0  0  0  0  0
   11.8712  -16.4445   26.6654 O   0  0  0  0  0  0  0  0  0  0  0  0
   11.3293  -18.6513   26.6790 O   0  0  0  0  0  0  0  0  0  0  0  0
  2  1  1  6
  2  4  1  0
  3  2  1  0
  4  5  2  0
  7  6  1  1
  7  9  1  0
  8  7  1  0
 10  9  1  1
 10 12  1  0
 11 10  1  0
 11  4  1  0
 12 13  2  0
 12 14  1  0
 14 15  1  0
 15 18  1  0
 15 16  1  6
 17 16  1  0
 18 19  2  0
 18 20  1  0
M  END
$$$$
