ALC.pdb
     RDKit          3D

 20 19  0  0  1  0  0  0  0  0999 V2000
    8.0262  -19.6563   18.4286 C   0  0  0  0  0  0  0  0  0  0  0  0
    8.1566  -18.2479   17.8430 C   0  0  2  0  0  0  0  0  0  0  0  0
    8.9648  -18.3704   16.6459 N   0  0  0  0  0  0  0  0  0  0  0  0
    8.8637  -17.4296   18.8585 C   0  0  0  0  0  0  0  0  0  0  0  0
   10.1083  -17.5684   18.9970 O   0  0  0  0  0  0  0  0  0  0  0  0
    6.7497  -12.5421   20.3952 C   0  0  0  0  0  0  0  0  0  0  0  0
    7.7848  -13.5578   19.9453 C   0  0  1  0  0  0  0  0  0  0  0  0
    9.0766  -12.8022   19.5349 C   0  0  0  0  0  0  0  0  0  0  0  0
    8.0987  -14.4813   21.0677 C   0  0  0  0  0  0  0  0  0  0  0  0
    8.9246  -15.6524   20.6499 C   0  0  2  0  0  0  0  0  0  0  0  0
    8.2027  -16.4884   19.6909 N   0  0  0  0  0  0  0  0  0  0  0  0
    9.3972  -16.4167   21.7967 C   0  0  0  0  0  0  0  0  0  0  0  0
    8.6325  -17.1651   22.4439 O   0  0  0  0  0  0  0  0  0  0  0  0
   10.7514  -16.3741   22.2676 N   0  0  0  0  0  0  0  0  0  0  0  0
   11.1682  -17.2206   23.3546 C   0  0  1  0  0  0  0  0  0  0  0  0
   12.1207  -18.3050   22.8861 C   0  0  0  0  0  0  0  0  0  0  0  0
   13.5378  -17.5918   22.0286 S   0  0  0  0  0  0  0  0  0  0  0  0
   11.7651  -16.4195   24.4532 C   0  0  0  0  0  0  0  0  0  0  0  0
   11.9177  -15.1768   24.3805 O   0  0  0  0  0  0  0  0  0  0  0  0
   12.1660  -17.0789   25.5988 O   0  0  0  0  0  0  0  0  0  0  0  0
  2  1  1  1
  2  4  1  0
  3  2  1  0
  4  5  2  0
  7  6  1  1
  7  9  1  0
  8  7  1  0
 10  9  1  1
 10 12  1  0
 11 10  1  0
 11  4  1  0
 12 13  2  0
 12 14  1  0
 14 15  1  0
 15 18  1  0
 15 16  1  6
 17 16  1  0
 18 19  2  0
 18 20  1  0
M  END
$$$$
