EEP.pdb
     RDKit          3D

 26 26  0  0  1  0  0  0  0  0999 V2000
    7.4630  -14.1435   18.9659 N   0  0  0  0  0  0  0  0  0  0  0  0
    8.4655  -14.1482   20.0333 C   0  0  1  0  0  0  0  0  0  0  0  0
    9.1478  -12.8230   19.9940 C   0  0  0  0  0  0  0  0  0  0  0  0
   10.2542  -12.7063   19.0136 C   0  0  0  0  0  0  0  0  0  0  0  0
   11.2267  -13.8016   19.0432 C   0  0  0  0  0  0  0  0  0  0  0  0
   12.0306  -13.8154   20.0369 O   0  0  0  0  0  0  0  0  0  0  0  0
    7.7974  -14.4366   21.3009 C   0  0  0  0  0  0  0  0  0  0  0  0
    6.7095  -13.8874   21.6077 O   0  0  0  0  0  0  0  0  0  0  0  0
   11.3632  -14.8042   18.1243 O   0  0  0  0  0  0  0  0  0  0  0  0
    8.3503  -15.3488   22.2370 N   0  0  0  0  0  0  0  0  0  0  0  0
    7.7764  -15.5398   23.5611 C   0  0  1  0  0  0  0  0  0  0  0  0
    7.6148  -17.0134   23.8301 C   0  0  0  0  0  0  0  0  0  0  0  0
    7.1662  -17.2782   25.2289 C   0  0  0  0  0  0  0  0  0  0  0  0
    7.0731  -18.7588   25.4904 C   0  0  0  0  0  0  0  0  0  0  0  0
    6.2013  -19.1698   26.2634 O   0  0  0  0  0  0  0  0  0  0  0  0
    8.3627  -14.7716   24.6352 C   0  0  0  0  0  0  0  0  0  0  0  0
    9.6673  -14.6779   24.6438 O   0  0  0  0  0  0  0  0  0  0  0  0
    7.9492  -19.5961   24.8692 O   0  0  0  0  0  0  0  0  0  0  0  0
    7.7632  -14.0815   25.7099 N   0  0  0  0  0  0  0  0  0  0  0  0
    6.3413  -14.1031   25.9895 C   0  0  0  0  0  0  0  0  0  0  0  0
    6.0667  -12.8380   26.7327 C   0  0  0  0  0  0  0  0  0  0  0  0
    7.3847  -12.1984   27.0215 C   0  0  0  0  0  0  0  0  0  0  0  0
    8.3940  -13.2924   26.7020 C   0  0  1  0  0  0  0  0  0  0  0  0
    8.7542  -14.0302   27.9344 C   0  0  0  0  0  0  0  0  0  0  0  0
    9.4314  -13.5838   28.8681 O   0  0  0  0  0  0  0  0  0  0  0  0
    8.2860  -15.3393   28.0440 O   0  0  0  0  0  0  0  0  0  0  0  0
  2  1  1  6
  2  7  1  0
  3  2  1  0
  3  4  1  0
  4  5  1  0
  5  9  1  0
  5  6  2  0
  7  8  2  0
 10  7  1  0
 10 11  1  0
 11 16  1  0
 11 12  1  1
 12 13  1  0
 13 14  1  0
 14 18  1  0
 14 15  2  0
 16 17  2  0
 19 23  1  0
 19 16  1  0
 20 19  1  0
 21 20  1  0
 21 22  1  0
 22 23  1  0
 23 24  1  1
 24 26  1  0
 25 24  2  0
M  END
$$$$
