EEP.pdb
     RDKit          3D

 26 26  0  0  1  0  0  0  0  0999 V2000
    9.4610  -19.7687   15.8820 N   0  0  0  0  0  0  0  0  0  0  0  0
    9.3128  -18.3236   15.6969 C   0  0  1  0  0  0  0  0  0  0  0  0
    8.7579  -18.1157   14.3286 C   0  0  0  0  0  0  0  0  0  0  0  0
    8.5940  -16.7006   13.9171 C   0  0  0  0  0  0  0  0  0  0  0  0
    8.0068  -16.5052   12.5892 C   0  0  0  0  0  0  0  0  0  0  0  0
    7.0566  -15.6536   12.5123 O   0  0  0  0  0  0  0  0  0  0  0  0
    8.4679  -17.7993   16.7681 C   0  0  0  0  0  0  0  0  0  0  0  0
    7.2196  -17.9430   16.7475 O   0  0  0  0  0  0  0  0  0  0  0  0
    8.3670  -17.1351   11.4309 O   0  0  0  0  0  0  0  0  0  0  0  0
    9.0229  -17.1064   17.8753 N   0  0  0  0  0  0  0  0  0  0  0  0
    8.2455  -16.8100   19.0698 C   0  0  1  0  0  0  0  0  0  0  0  0
    7.5831  -18.0701   19.5629 C   0  0  0  0  0  0  0  0  0  0  0  0
    8.5819  -19.1100   19.9489 C   0  0  0  0  0  0  0  0  0  0  0  0
    7.9121  -20.2611   20.6526 C   0  0  0  0  0  0  0  0  0  0  0  0
    8.2454  -20.5199   21.8138 O   0  0  0  0  0  0  0  0  0  0  0  0
    8.8980  -16.0125   20.0826 C   0  0  0  0  0  0  0  0  0  0  0  0
   10.1795  -16.2134   20.2506 O   0  0  0  0  0  0  0  0  0  0  0  0
    6.9631  -20.9789   19.9901 O   0  0  0  0  0  0  0  0  0  0  0  0
    8.3867  -15.0239   20.9498 N   0  0  0  0  0  0  0  0  0  0  0  0
    6.9768  -14.7140   21.0774 C   0  0  0  0  0  0  0  0  0  0  0  0
    6.9257  -13.3000   21.5532 C   0  0  0  0  0  0  0  0  0  0  0  0
    8.3265  -12.8853   21.8622 C   0  0  0  0  0  0  0  0  0  0  0  0
    9.1017  -14.1956   21.8484 C   0  0  1  0  0  0  0  0  0  0  0  0
    9.2147  -14.7361   23.2224 C   0  0  0  0  0  0  0  0  0  0  0  0
    8.5539  -15.6749   23.6826 O   0  0  0  0  0  0  0  0  0  0  0  0
   10.1478  -14.1297   24.0628 O   0  0  0  0  0  0  0  0  0  0  0  0
  2  1  1  1
  2  7  1  0
  3  2  1  0
  3  4  1  0
  4  5  1  0
  5  9  1  0
  5  6  2  0
  7  8  2  0
 10  7  1  0
 10 11  1  0
 11 16  1  0
 11 12  1  1
 12 13  1  0
 13 14  1  0
 14 18  1  0
 14 15  2  0
 16 17  2  0
 19 23  1  0
 19 16  1  0
 20 19  1  0
 21 20  1  0
 21 22  1  0
 22 23  1  0
 23 24  1  1
 24 26  1  0
 25 24  2  0
M  END
$$$$
