EEP.pdb
     RDKit          3D

 26 26  0  0  1  0  0  0  0  0999 V2000
    9.1657  -17.3495   16.1463 N   0  0  0  0  0  0  0  0  0  0  0  0
    7.9364  -16.7792   16.7015 C   0  0  1  0  0  0  0  0  0  0  0  0
    6.8028  -17.3360   15.9088 C   0  0  0  0  0  0  0  0  0  0  0  0
    6.6851  -18.8141   15.9194 C   0  0  0  0  0  0  0  0  0  0  0  0
    6.0640  -19.3950   14.7264 C   0  0  0  0  0  0  0  0  0  0  0  0
    5.7192  -20.6230   14.8111 O   0  0  0  0  0  0  0  0  0  0  0  0
    7.8773  -17.0941   18.1275 C   0  0  0  0  0  0  0  0  0  0  0  0
    6.8088  -16.9811   18.7794 O   0  0  0  0  0  0  0  0  0  0  0  0
    5.8162  -18.7644   13.5394 O   0  0  0  0  0  0  0  0  0  0  0  0
    9.0243  -17.5404   18.8340 N   0  0  0  0  0  0  0  0  0  0  0  0
    8.9958  -17.8043   20.2654 C   0  0  1  0  0  0  0  0  0  0  0  0
    9.7341  -19.0856   20.5541 C   0  0  0  0  0  0  0  0  0  0  0  0
    9.6961  -19.4353   22.0047 C   0  0  0  0  0  0  0  0  0  0  0  0
   10.4955  -20.6829   22.2760 C   0  0  0  0  0  0  0  0  0  0  0  0
   10.1168  -21.7485   21.7787 O   0  0  0  0  0  0  0  0  0  0  0  0
    9.3143  -16.6934   21.1325 C   0  0  0  0  0  0  0  0  0  0  0  0
   10.4322  -16.0604   20.8868 O   0  0  0  0  0  0  0  0  0  0  0  0
   11.6070  -20.5985   23.0583 O   0  0  0  0  0  0  0  0  0  0  0  0
    8.6144  -16.1500   22.2306 N   0  0  0  0  0  0  0  0  0  0  0  0
    7.4064  -16.7290   22.7836 C   0  0  0  0  0  0  0  0  0  0  0  0
    6.6898  -15.5948   23.4381 C   0  0  0  0  0  0  0  0  0  0  0  0
    7.6016  -14.4129   23.3994 C   0  0  0  0  0  0  0  0  0  0  0  0
    8.9447  -15.0067   22.9978 C   0  0  1  0  0  0  0  0  0  0  0  0
    9.7577  -15.2909   24.2024 C   0  0  0  0  0  0  0  0  0  0  0  0
    9.9759  -16.4130   24.6746 O   0  0  0  0  0  0  0  0  0  0  0  0
   10.3218  -14.1947   24.8541 O   0  0  0  0  0  0  0  0  0  0  0  0
  2  1  1  6
  2  7  1  0
  3  2  1  0
  3  4  1  0
  4  5  1  0
  5  9  1  0
  5  6  2  0
  7  8  2  0
 10  7  1  0
 10 11  1  0
 11 16  1  0
 11 12  1  6
 12 13  1  0
 13 14  1  0
 14 18  1  0
 14 15  2  0
 16 17  2  0
 19 23  1  0
 19 16  1  0
 20 19  1  0
 21 20  1  0
 21 22  1  0
 22 23  1  0
 23 24  1  1
 24 26  1  0
 25 24  2  0
M  END
$$$$
