EEP.pdb
     RDKit          3D

 26 26  0  0  1  0  0  0  0  0999 V2000
    8.3887  -12.8332   19.3137 N   0  0  0  0  0  0  0  0  0  0  0  0
    8.5164  -14.2118   19.7908 C   0  0  1  0  0  0  0  0  0  0  0  0
    9.9425  -14.6054   19.6042 C   0  0  0  0  0  0  0  0  0  0  0  0
   10.9400  -13.5638   19.9493 C   0  0  0  0  0  0  0  0  0  0  0  0
   12.3379  -13.9533   19.7473 C   0  0  0  0  0  0  0  0  0  0  0  0
   13.2173  -13.0779   20.0547 O   0  0  0  0  0  0  0  0  0  0  0  0
    8.0590  -14.2708   21.1777 C   0  0  0  0  0  0  0  0  0  0  0  0
    7.8169  -13.2259   21.8326 O   0  0  0  0  0  0  0  0  0  0  0  0
   12.7968  -15.1478   19.2673 O   0  0  0  0  0  0  0  0  0  0  0  0
    7.8696  -15.5109   21.8413 N   0  0  0  0  0  0  0  0  0  0  0  0
    7.3887  -15.5875   23.2132 C   0  0  1  0  0  0  0  0  0  0  0  0
    6.9771  -17.0035   23.5223 C   0  0  0  0  0  0  0  0  0  0  0  0
    6.5487  -17.1612   24.9434 C   0  0  0  0  0  0  0  0  0  0  0  0
    6.3399  -18.6141   25.2819 C   0  0  0  0  0  0  0  0  0  0  0  0
    6.8497  -19.0605   26.3149 O   0  0  0  0  0  0  0  0  0  0  0  0
    8.2011  -14.9419   24.2184 C   0  0  0  0  0  0  0  0  0  0  0  0
    9.4975  -15.0260   24.0664 O   0  0  0  0  0  0  0  0  0  0  0  0
    5.5984  -19.3885   24.4421 O   0  0  0  0  0  0  0  0  0  0  0  0
    7.8372  -14.2129   25.3704 N   0  0  0  0  0  0  0  0  0  0  0  0
    6.4660  -13.9454   25.7559 C   0  0  0  0  0  0  0  0  0  0  0  0
    6.5243  -12.7042   26.5832 C   0  0  0  0  0  0  0  0  0  0  0  0
    7.9664  -12.3859   26.8040 C   0  0  0  0  0  0  0  0  0  0  0  0
    8.6876  -13.6481   26.3517 C   0  0  1  0  0  0  0  0  0  0  0  0
    8.9528  -14.5282   27.5127 C   0  0  0  0  0  0  0  0  0  0  0  0
    8.3950  -15.6087   27.7384 O   0  0  0  0  0  0  0  0  0  0  0  0
    9.9148  -14.0947   28.4245 O   0  0  0  0  0  0  0  0  0  0  0  0
  2  1  1  1
  2  7  1  0
  3  2  1  0
  3  4  1  0
  4  5  1  0
  5  9  1  0
  5  6  2  0
  7  8  2  0
 10  7  1  0
 10 11  1  0
 11 16  1  0
 11 12  1  1
 12 13  1  0
 13 14  1  0
 14 18  1  0
 14 15  2  0
 16 17  2  0
 19 23  1  0
 19 16  1  0
 20 19  1  0
 21 20  1  0
 21 22  1  0
 22 23  1  0
 23 24  1  1
 24 26  1  0
 25 24  2  0
M  END
$$$$
