EEP.pdb
     RDKit          3D

 26 26  0  0  1  0  0  0  0  0999 V2000
   11.6107  -16.2749   20.4020 N   0  0  0  0  0  0  0  0  0  0  0  0
   10.8458  -17.0714   21.3638 C   0  0  1  0  0  0  0  0  0  0  0  0
   11.6238  -18.3193   21.6103 C   0  0  0  0  0  0  0  0  0  0  0  0
   13.0950  -18.1876   21.4796 C   0  0  0  0  0  0  0  0  0  0  0  0
   13.8421  -19.4429   21.5917 C   0  0  0  0  0  0  0  0  0  0  0  0
   13.5047  -20.2162   22.5520 O   0  0  0  0  0  0  0  0  0  0  0  0
   10.6176  -16.2655   22.5616 C   0  0  0  0  0  0  0  0  0  0  0  0
   11.5411  -15.5913   23.0831 O   0  0  0  0  0  0  0  0  0  0  0  0
   14.8562  -19.8706   20.7814 O   0  0  0  0  0  0  0  0  0  0  0  0
    9.3437  -16.2116   23.1846 N   0  0  0  0  0  0  0  0  0  0  0  0
    9.1044  -15.4274   24.3875 C   0  0  1  0  0  0  0  0  0  0  0  0
    7.6217  -15.2372   24.5758 C   0  0  0  0  0  0  0  0  0  0  0  0
    7.3155  -14.3946   25.7692 C   0  0  0  0  0  0  0  0  0  0  0  0
    5.8284  -14.2222   25.9359 C   0  0  0  0  0  0  0  0  0  0  0  0
    5.1050  -15.2212   25.8653 O   0  0  0  0  0  0  0  0  0  0  0  0
    9.8367  -15.8198   25.5695 C   0  0  0  0  0  0  0  0  0  0  0  0
   10.4965  -16.9472   25.5023 O   0  0  0  0  0  0  0  0  0  0  0  0
    5.3284  -12.9752   26.1586 O   0  0  0  0  0  0  0  0  0  0  0  0
    9.9740  -15.1860   26.8226 N   0  0  0  0  0  0  0  0  0  0  0  0
    9.2060  -14.0258   27.2281 C   0  0  0  0  0  0  0  0  0  0  0  0
   10.0441  -13.3372   28.2536 C   0  0  0  0  0  0  0  0  0  0  0  0
   11.2074  -14.2268   28.5455 C   0  0  0  0  0  0  0  0  0  0  0  0
   10.8216  -15.5492   27.8971 C   0  0  1  0  0  0  0  0  0  0  0  0
   10.1949  -16.4440   28.8967 C   0  0  0  0  0  0  0  0  0  0  0  0
    9.0005  -16.7636   28.9273 O   0  0  0  0  0  0  0  0  0  0  0  0
   11.0291  -16.9668   29.8843 O   0  0  0  0  0  0  0  0  0  0  0  0
  2  1  1  6
  2  7  1  0
  3  2  1  0
  3  4  1  0
  4  5  1  0
  5  9  1  0
  5  6  2  0
  7  8  2  0
 10  7  1  0
 10 11  1  0
 11 16  1  0
 11 12  1  1
 12 13  1  0
 13 14  1  0
 14 18  1  0
 14 15  2  0
 16 17  2  0
 19 23  1  0
 19 16  1  0
 20 19  1  0
 21 20  1  0
 21 22  1  0
 22 23  1  0
 23 24  1  1
 24 26  1  0
 25 24  2  0
M  END
$$$$
