EEP.pdb
     RDKit          3D

 26 26  0  0  1  0  0  0  0  0999 V2000
    9.9145  -15.4450   19.9698 N   0  0  0  0  0  0  0  0  0  0  0  0
    9.1207  -14.2370   20.2042 C   0  0  1  0  0  0  0  0  0  0  0  0
    8.2314  -14.0653   19.0197 C   0  0  0  0  0  0  0  0  0  0  0  0
    8.9195  -14.0389   17.7064 C   0  0  0  0  0  0  0  0  0  0  0  0
    8.0404  -13.8499   16.5497 C   0  0  0  0  0  0  0  0  0  0  0  0
    7.4685  -12.7105   16.4560 O   0  0  0  0  0  0  0  0  0  0  0  0
    8.4048  -14.3862   21.4696 C   0  0  0  0  0  0  0  0  0  0  0  0
    7.6674  -13.4720   21.9167 O   0  0  0  0  0  0  0  0  0  0  0  0
    7.7696  -14.7597   15.5663 O   0  0  0  0  0  0  0  0  0  0  0  0
    8.5133  -15.5697   22.2451 N   0  0  0  0  0  0  0  0  0  0  0  0
    7.8829  -15.6983   23.5510 C   0  0  1  0  0  0  0  0  0  0  0  0
    7.6427  -17.1551   23.8510 C   0  0  0  0  0  0  0  0  0  0  0  0
    7.0650  -17.3554   25.2127 C   0  0  0  0  0  0  0  0  0  0  0  0
    6.8883  -18.8216   25.5093 C   0  0  0  0  0  0  0  0  0  0  0  0
    7.8883  -19.5470   25.5258 O   0  0  0  0  0  0  0  0  0  0  0  0
    8.4648  -14.9290   24.6266 C   0  0  0  0  0  0  0  0  0  0  0  0
    9.7698  -14.9399   24.7151 O   0  0  0  0  0  0  0  0  0  0  0  0
    5.6366  -19.3013   25.7494 O   0  0  0  0  0  0  0  0  0  0  0  0
    7.8607  -14.1422   25.6300 N   0  0  0  0  0  0  0  0  0  0  0  0
    6.4281  -13.9718   25.7681 C   0  0  0  0  0  0  0  0  0  0  0  0
    6.2524  -12.6650   26.4678 C   0  0  0  0  0  0  0  0  0  0  0  0
    7.6092  -12.1963   26.8790 C   0  0  0  0  0  0  0  0  0  0  0  0
    8.4914  -13.4197   26.6717 C   0  0  1  0  0  0  0  0  0  0  0  0
    8.6302  -14.1698   27.9409 C   0  0  0  0  0  0  0  0  0  0  0  0
    9.2611  -13.7910   28.9350 O   0  0  0  0  0  0  0  0  0  0  0  0
    7.9925  -15.4078   28.0135 O   0  0  0  0  0  0  0  0  0  0  0  0
  2  1  1  6
  2  7  1  0
  3  2  1  0
  3  4  1  0
  4  5  1  0
  5  9  1  0
  5  6  2  0
  7  8  2  0
 10  7  1  0
 10 11  1  0
 11 16  1  0
 11 12  1  1
 12 13  1  0
 13 14  1  0
 14 18  1  0
 14 15  2  0
 16 17  2  0
 19 23  1  0
 19 16  1  0
 20 19  1  0
 21 20  1  0
 21 22  1  0
 22 23  1  0
 23 24  1  1
 24 26  1  0
 25 24  2  0
M  END
$$$$
