EEP.pdb
     RDKit          3D

 26 26  0  0  1  0  0  0  0  0999 V2000
    9.2538  -13.2189   18.5996 N   0  0  0  0  0  0  0  0  0  0  0  0
    9.1992  -14.5052   19.2973 C   0  0  1  0  0  0  0  0  0  0  0  0
   10.6049  -14.9819   19.4397 C   0  0  0  0  0  0  0  0  0  0  0  0
   11.5644  -13.9832   19.9696 C   0  0  0  0  0  0  0  0  0  0  0  0
   12.9079  -14.4992   20.2439 C   0  0  0  0  0  0  0  0  0  0  0  0
   13.8825  -13.7859   19.8249 O   0  0  0  0  0  0  0  0  0  0  0  0
    8.5022  -14.3185   20.5683 C   0  0  0  0  0  0  0  0  0  0  0  0
    8.4288  -13.1895   21.1154 O   0  0  0  0  0  0  0  0  0  0  0  0
   13.2258  -15.6569   20.8972 O   0  0  0  0  0  0  0  0  0  0  0  0
    7.8798  -15.4049   21.2365 N   0  0  0  0  0  0  0  0  0  0  0  0
    7.2819  -15.2602   22.5559 C   0  0  1  0  0  0  0  0  0  0  0  0
    6.3197  -16.3940   22.7978 C   0  0  0  0  0  0  0  0  0  0  0  0
    5.2901  -16.4899   21.7213 C   0  0  0  0  0  0  0  0  0  0  0  0
    4.5241  -17.7826   21.8263 C   0  0  0  0  0  0  0  0  0  0  0  0
    4.7786  -18.6883   21.0255 O   0  0  0  0  0  0  0  0  0  0  0  0
    8.1852  -14.9673   23.6448 C   0  0  0  0  0  0  0  0  0  0  0  0
    9.4314  -15.3311   23.4858 O   0  0  0  0  0  0  0  0  0  0  0  0
    3.5779  -17.9133   22.7971 O   0  0  0  0  0  0  0  0  0  0  0  0
    7.9589  -14.3387   24.8876 N   0  0  0  0  0  0  0  0  0  0  0  0
    6.6762  -13.8047   25.2997 C   0  0  0  0  0  0  0  0  0  0  0  0
    6.9944  -12.7409   26.2973 C   0  0  0  0  0  0  0  0  0  0  0  0
    8.4608  -12.8132   26.5699 C   0  0  0  0  0  0  0  0  0  0  0  0
    8.8789  -14.1368   25.9448 C   0  0  1  0  0  0  0  0  0  0  0  0
    8.8805  -15.2068   26.9685 C   0  0  0  0  0  0  0  0  0  0  0  0
    8.0539  -16.1230   27.0526 O   0  0  0  0  0  0  0  0  0  0  0  0
    9.9043  -15.1713   27.9147 O   0  0  0  0  0  0  0  0  0  0  0  0
  2  1  1  1
  2  7  1  0
  3  2  1  0
  3  4  1  0
  4  5  1  0
  5  9  1  0
  5  6  2  0
  7  8  2  0
 10  7  1  0
 10 11  1  0
 11 16  1  0
 11 12  1  1
 12 13  1  0
 13 14  1  0
 14 18  1  0
 14 15  2  0
 16 17  2  0
 19 23  1  0
 19 16  1  0
 20 19  1  0
 21 20  1  0
 21 22  1  0
 22 23  1  0
 23 24  1  1
 24 26  1  0
 25 24  2  0
M  END
$$$$
