RHY.pdb
     RDKit          3D

 34 35  0  0  1  0  0  0  0  0999 V2000
    8.6777  -12.0910   18.7304 N   0  0  0  0  0  0  0  0  0  0  0  0
    8.4460  -13.3035   18.0348 C   0  0  0  0  0  0  0  0  0  0  0  0
    8.4536  -13.2686   16.7376 N   0  0  0  0  0  0  0  0  0  0  0  0
    8.2031  -14.5320   18.6967 N   0  0  0  0  0  0  0  0  0  0  0  0
    8.1408  -14.6717   20.1270 C   0  0  0  0  0  0  0  0  0  0  0  0
    6.8033  -14.4736   20.7345 C   0  0  0  0  0  0  0  0  0  0  0  0
    6.4799  -15.1224   22.0129 C   0  0  0  0  0  0  0  0  0  0  0  0
    6.5099  -16.6064   22.0663 C   0  0  2  0  0  0  0  0  0  0  0  0
    5.5002  -17.3369   21.4133 N   0  0  0  0  0  0  0  0  0  0  0  0
    6.6003  -17.1023   23.4880 C   0  0  0  0  0  0  0  0  0  0  0  0
    5.6002  -17.0561   24.2348 O   0  0  0  0  0  0  0  0  0  0  0  0
    8.3392  -14.1258   16.1849 N   0  0  0  0  0  0  0  0  0  0  0  0
    7.8226  -17.6148   23.9620 C   0  0  2  0  0  0  0  0  0  0  0  0
    7.9285  -18.0604   25.3854 C   0  0  0  0  0  0  0  0  0  0  0  0
    8.4078  -19.4688   25.4019 C   0  0  0  0  0  0  0  0  0  0  0  0
    8.6236  -20.0523   26.7244 C   0  0  0  0  0  0  0  0  0  0  0  0
    8.3524  -19.4336   27.9262 N   0  0  0  0  0  0  0  0  0  0  0  0
    8.6736  -20.2771   28.9115 C   0  0  0  0  0  0  0  0  0  0  0  0
    9.1342  -21.3964   28.3631 N   0  0  0  0  0  0  0  0  0  0  0  0
    9.1066  -21.2659   27.0160 C   0  0  0  0  0  0  0  0  0  0  0  0
    8.8666  -17.1531   26.0445 O   0  0  0  0  0  0  0  0  0  0  0  0
    9.9511  -16.7937   25.4569 O   0  0  0  0  0  0  0  0  0  0  0  0
    5.9794  -11.5501   24.8055 C   0  0  0  0  0  0  0  0  0  0  0  0
    6.7127  -12.2716   25.7052 C   0  0  0  0  0  0  0  0  0  0  0  0
    6.0805  -13.1809   26.5453 C   0  0  0  0  0  0  0  0  0  0  0  0
    6.8024  -13.9203   27.4614 C   0  0  0  0  0  0  0  0  0  0  0  0
    8.1874  -13.7699   27.5639 C   0  0  0  0  0  0  0  0  0  0  0  0
    8.9902  -14.5464   28.5442 C   0  0  2  0  0  0  0  0  0  0  0  0
    9.7351  -15.7082   27.8953 N   0  0  0  0  0  0  0  0  0  0  0  0
    8.6988  -16.5837   27.3369 C   0  0  0  0  0  0  0  0  0  0  0  0
   10.5237  -16.4173   28.8896 O   0  0  0  0  0  0  0  0  0  0  0  0
   10.2538  -17.7323   29.2145 C   0  0  0  0  0  0  0  0  0  0  0  0
    8.8053  -12.8707   26.7311 C   0  0  0  0  0  0  0  0  0  0  0  0
    8.0654  -12.1503   25.8315 O   0  0  0  0  0  0  0  0  0  0  0  0
  1  2  1  0
  2  3  2  0
  4  2  1  0
  4  5  1  0
  6  7  1  0
  6  5  1  0
  8  9  1  1
  8  7  1  0
 10  8  1  0
 11 10  2  0
 12 10  1  0
 13 12  1  0
 13 14  1  6
 15 14  1  0
 16 15  2  0
 17 16  1  0
 18 17  1  0
 18 19  2  0
 19 15  1  0
 20 13  1  0
 20 29  1  0
 21 20  2  0
 22 23  1  0
 23 33  2  0
 24 25  2  0
 24 23  1  0
 25 26  1  0
 26 27  1  0
 26 32  2  0
 28 27  1  6
 28 30  1  0
 28 29  1  0
 30 31  1  0
 33 32  1  0
 34 30  2  0
M  END
$$$$
