RHY.pdb
     RDKit          3D

 34 35  0  0  1  0  0  0  0  0999 V2000
    6.4302  -13.9694   13.4923 N   0  0  0  0  0  0  0  0  0  0  0  0
    7.1840  -12.7774   13.6285 C   0  0  0  0  0  0  0  0  0  0  0  0
    6.8834  -11.7791   12.8558 N   0  0  0  0  0  0  0  0  0  0  0  0
    8.2424  -12.6426   14.5600 N   0  0  0  0  0  0  0  0  0  0  0  0
    8.4985  -13.5792   15.6214 C   0  0  0  0  0  0  0  0  0  0  0  0
    7.7575  -13.3398   16.8826 C   0  0  0  0  0  0  0  0  0  0  0  0
    7.8111  -14.3377   17.9602 C   0  0  0  0  0  0  0  0  0  0  0  0
    8.8966  -15.3505   17.9162 C   0  0  2  0  0  0  0  0  0  0  0  0
    8.9560  -16.2458   16.8324 N   0  0  0  0  0  0  0  0  0  0  0  0
    8.9474  -16.1557   19.1907 C   0  0  0  0  0  0  0  0  0  0  0  0
    7.8974  -16.6176   19.6849 O   0  0  0  0  0  0  0  0  0  0  0  0
    7.4112  -10.8999   12.8984 N   0  0  0  0  0  0  0  0  0  0  0  0
   10.1890  -16.3781   19.8155 C   0  0  1  0  0  0  0  0  0  0  0  0
   10.2921  -17.4052   20.8973 C   0  0  0  0  0  0  0  0  0  0  0  0
   11.3347  -18.3930   20.5087 C   0  0  0  0  0  0  0  0  0  0  0  0
   11.5936  -19.4586   21.4749 C   0  0  0  0  0  0  0  0  0  0  0  0
   10.6422  -20.2970   22.0161 N   0  0  0  0  0  0  0  0  0  0  0  0
   11.2560  -21.1404   22.8512 C   0  0  0  0  0  0  0  0  0  0  0  0
   12.5537  -20.8545   22.8469 N   0  0  0  0  0  0  0  0  0  0  0  0
   12.7698  -19.8196   22.0016 C   0  0  0  0  0  0  0  0  0  0  0  0
   10.6408  -16.6930   22.1256 O   0  0  0  0  0  0  0  0  0  0  0  0
   11.5335  -15.7692   22.1151 O   0  0  0  0  0  0  0  0  0  0  0  0
   10.9654  -13.8366   30.5023 C   0  0  0  0  0  0  0  0  0  0  0  0
   10.5876  -14.3511   29.2938 C   0  0  0  0  0  0  0  0  0  0  0  0
   10.5338  -15.7282   29.1122 C   0  0  0  0  0  0  0  0  0  0  0  0
   10.1545  -16.2691   27.8995 C   0  0  0  0  0  0  0  0  0  0  0  0
    9.8160  -15.4417   26.8261 C   0  0  0  0  0  0  0  0  0  0  0  0
    9.4106  -15.9942   25.5074 C   0  0  1  0  0  0  0  0  0  0  0  0
   10.6022  -16.2342   24.5865 N   0  0  0  0  0  0  0  0  0  0  0  0
   10.0618  -16.9163   23.4054 C   0  0  0  0  0  0  0  0  0  0  0  0
   11.5911  -17.0671   25.2513 O   0  0  0  0  0  0  0  0  0  0  0  0
   12.7164  -16.5177   25.8339 C   0  0  0  0  0  0  0  0  0  0  0  0
    9.8709  -14.0830   27.0124 C   0  0  0  0  0  0  0  0  0  0  0  0
   10.2503  -13.5730   28.2255 O   0  0  0  0  0  0  0  0  0  0  0  0
  1  2  1  0
  2  3  2  0
  4  2  1  0
  4  5  1  0
  6  7  1  0
  6  5  1  0
  8  9  1  6
  8  7  1  0
 10  8  1  0
 11 10  2  0
 12 10  1  0
 13 12  1  0
 13 14  1  6
 15 14  1  0
 16 15  2  0
 17 16  1  0
 18 17  1  0
 18 19  2  0
 19 15  1  0
 20 13  1  0
 20 29  1  0
 21 20  2  0
 22 23  1  0
 23 33  2  0
 24 25  2  0
 24 23  1  0
 25 26  1  0
 26 27  1  0
 26 32  2  0
 28 27  1  6
 28 30  1  0
 28 29  1  0
 30 31  1  0
 33 32  1  0
 34 30  2  0
M  END
$$$$
