RHY.pdb
     RDKit          3D

 34 35  0  0  1  0  0  0  0  0999 V2000
    7.4674  -12.8684   14.5666 N   0  0  0  0  0  0  0  0  0  0  0  0
    7.8127  -14.1867   14.1788 C   0  0  0  0  0  0  0  0  0  0  0  0
    8.0115  -14.4144   12.9168 N   0  0  0  0  0  0  0  0  0  0  0  0
    7.9397  -15.2497   15.1063 N   0  0  0  0  0  0  0  0  0  0  0  0
    7.6324  -15.1309   16.5065 C   0  0  0  0  0  0  0  0  0  0  0  0
    8.6414  -14.4209   17.3281 C   0  0  0  0  0  0  0  0  0  0  0  0
    9.8261  -15.1433   17.8126 C   0  0  0  0  0  0  0  0  0  0  0  0
    9.6627  -16.0373   18.9874 C   0  0  2  0  0  0  0  0  0  0  0  0
    8.6528  -17.0168   18.9689 N   0  0  0  0  0  0  0  0  0  0  0  0
    9.5224  -15.2456   20.2637 C   0  0  0  0  0  0  0  0  0  0  0  0
   10.1230  -14.1587   20.3985 O   0  0  0  0  0  0  0  0  0  0  0  0
    8.3668  -15.3211   12.5925 N   0  0  0  0  0  0  0  0  0  0  0  0
    8.7102  -15.7460   21.2986 C   0  0  1  0  0  0  0  0  0  0  0  0
    8.6119  -14.9897   22.5847 C   0  0  0  0  0  0  0  0  0  0  0  0
    7.1990  -15.0350   23.0490 C   0  0  0  0  0  0  0  0  0  0  0  0
    6.9228  -14.3580   24.3145 C   0  0  0  0  0  0  0  0  0  0  0  0
    7.1976  -13.0356   24.5915 N   0  0  0  0  0  0  0  0  0  0  0  0
    6.8008  -12.7800   25.8415 C   0  0  0  0  0  0  0  0  0  0  0  0
    6.2900  -13.8969   26.3491 N   0  0  0  0  0  0  0  0  0  0  0  0
    6.3615  -14.8736   25.4146 C   0  0  0  0  0  0  0  0  0  0  0  0
    9.5212  -15.6384   23.5281 O   0  0  0  0  0  0  0  0  0  0  0  0
    9.7533  -16.8996   23.4506 O   0  0  0  0  0  0  0  0  0  0  0  0
   10.8448  -15.9370   31.8640 C   0  0  0  0  0  0  0  0  0  0  0  0
   11.0564  -15.6444   30.5458 C   0  0  0  0  0  0  0  0  0  0  0  0
   11.8219  -16.4980   29.7599 C   0  0  0  0  0  0  0  0  0  0  0  0
   12.0481  -16.2215   28.4259 C   0  0  0  0  0  0  0  0  0  0  0  0
   11.5110  -15.0747   27.8360 C   0  0  0  0  0  0  0  0  0  0  0  0
   11.7425  -14.7470   26.4051 C   0  0  1  0  0  0  0  0  0  0  0  0
   11.1023  -15.7630   25.4651 N   0  0  0  0  0  0  0  0  0  0  0  0
   10.2257  -14.9891   24.5793 C   0  0  0  0  0  0  0  0  0  0  0  0
   10.3336  -16.7354   26.2247 O   0  0  0  0  0  0  0  0  0  0  0  0
    8.9754  -16.5802   26.4216 C   0  0  0  0  0  0  0  0  0  0  0  0
   10.7559  -14.2365   28.6177 C   0  0  0  0  0  0  0  0  0  0  0  0
   10.5471  -14.5347   29.9380 O   0  0  0  0  0  0  0  0  0  0  0  0
  1  2  1  0
  2  3  2  0
  4  2  1  0
  4  5  1  0
  6  7  1  0
  6  5  1  0
  8  9  1  6
  8  7  1  0
 10  8  1  0
 11 10  2  0
 12 10  1  0
 13 12  1  0
 13 14  1  1
 15 14  1  0
 16 15  2  0
 17 16  1  0
 18 17  1  0
 18 19  2  0
 19 15  1  0
 20 13  1  0
 20 29  1  0
 21 20  2  0
 22 23  1  0
 23 33  2  0
 24 25  2  0
 24 23  1  0
 25 26  1  0
 26 27  1  0
 26 32  2  0
 28 27  1  6
 28 30  1  0
 28 29  1  0
 30 31  1  0
 33 32  1  0
 34 30  2  0
M  END
$$$$
