RHY.pdb
     RDKit          3D

 34 35  0  0  1  0  0  0  0  0999 V2000
   12.9131  -19.8541   17.8787 N   0  0  0  0  0  0  0  0  0  0  0  0
   13.5393  -19.3787   16.6999 C   0  0  0  0  0  0  0  0  0  0  0  0
   14.6384  -19.9564   16.3227 N   0  0  0  0  0  0  0  0  0  0  0  0
   13.0184  -18.3065   15.9348 N   0  0  0  0  0  0  0  0  0  0  0  0
   11.7572  -17.6695   16.2047 C   0  0  0  0  0  0  0  0  0  0  0  0
   10.8096  -18.4472   17.0379 C   0  0  0  0  0  0  0  0  0  0  0  0
   10.4141  -17.9393   18.3591 C   0  0  0  0  0  0  0  0  0  0  0  0
    9.2598  -17.0072   18.4283 C   0  0  2  0  0  0  0  0  0  0  0  0
    9.0217  -16.1291   17.3551 N   0  0  0  0  0  0  0  0  0  0  0  0
    9.2859  -16.1954   19.6994 C   0  0  0  0  0  0  0  0  0  0  0  0
    9.7000  -15.0171   19.6844 O   0  0  0  0  0  0  0  0  0  0  0  0
   15.1545  -19.6250   15.4997 N   0  0  0  0  0  0  0  0  0  0  0  0
    8.8407  -16.7808   20.8995 C   0  0  1  0  0  0  0  0  0  0  0  0
    8.7917  -15.9544   22.1447 C   0  0  0  0  0  0  0  0  0  0  0  0
    7.3811  -15.8967   22.6144 C   0  0  0  0  0  0  0  0  0  0  0  0
    7.1488  -15.1345   23.8396 C   0  0  0  0  0  0  0  0  0  0  0  0
    6.7626  -15.6658   25.0518 N   0  0  0  0  0  0  0  0  0  0  0  0
    6.6567  -14.6652   25.9310 C   0  0  0  0  0  0  0  0  0  0  0  0
    6.9634  -13.5329   25.3069 N   0  0  0  0  0  0  0  0  0  0  0  0
    7.2677  -13.8135   24.0181 C   0  0  0  0  0  0  0  0  0  0  0  0
    9.6687  -16.6028   23.1182 O   0  0  0  0  0  0  0  0  0  0  0  0
    9.3340  -17.7195   23.6581 O   0  0  0  0  0  0  0  0  0  0  0  0
   10.2798  -14.2048   31.0814 C   0  0  0  0  0  0  0  0  0  0  0  0
   10.2125  -14.4280   29.7347 C   0  0  0  0  0  0  0  0  0  0  0  0
   10.0218  -13.3619   28.8634 C   0  0  0  0  0  0  0  0  0  0  0  0
    9.9510  -13.5651   27.4992 C   0  0  0  0  0  0  0  0  0  0  0  0
   10.0697  -14.8499   26.9642 C   0  0  0  0  0  0  0  0  0  0  0  0
    9.9910  -15.1008   25.5015 C   0  0  1  0  0  0  0  0  0  0  0  0
   11.1828  -15.8989   24.9836 N   0  0  0  0  0  0  0  0  0  0  0  0
   10.9298  -16.1104   23.5541 C   0  0  0  0  0  0  0  0  0  0  0  0
   11.2767  -17.1711   25.6809 O   0  0  0  0  0  0  0  0  0  0  0  0
   10.2732  -18.1155   25.5883 C   0  0  0  0  0  0  0  0  0  0  0  0
   10.2582  -15.8980   27.8302 C   0  0  0  0  0  0  0  0  0  0  0  0
   10.3249  -15.6684   29.1787 O   0  0  0  0  0  0  0  0  0  0  0  0
  1  2  1  0
  2  3  2  0
  4  2  1  0
  4  5  1  0
  6  7  1  0
  6  5  1  0
  8  9  1  6
  8  7  1  0
 10  8  1  0
 11 10  2  0
 12 10  1  0
 13 12  1  0
 13 14  1  1
 15 14  1  0
 16 15  2  0
 17 16  1  0
 18 17  1  0
 18 19  2  0
 19 15  1  0
 20 13  1  0
 20 29  1  0
 21 20  2  0
 22 23  1  0
 23 33  2  0
 24 25  2  0
 24 23  1  0
 25 26  1  0
 26 27  1  0
 26 32  2  0
 28 27  1  6
 28 30  1  0
 28 29  1  0
 30 31  1  0
 33 32  1  0
 34 30  2  0
M  END
$$$$
