RHY.pdb
     RDKit          3D

 34 35  0  0  1  0  0  0  0  0999 V2000
   16.1478  -13.7455   18.5978 N   0  0  0  0  0  0  0  0  0  0  0  0
   15.6161  -14.7206   17.7179 C   0  0  0  0  0  0  0  0  0  0  0  0
   16.4249  -15.6232   17.2541 N   0  0  0  0  0  0  0  0  0  0  0  0
   14.2546  -14.7394   17.3278 N   0  0  0  0  0  0  0  0  0  0  0  0
   13.2663  -13.8211   17.8274 C   0  0  0  0  0  0  0  0  0  0  0  0
   13.0650  -13.8298   19.2958 C   0  0  0  0  0  0  0  0  0  0  0  0
   11.7135  -14.0077   19.8453 C   0  0  0  0  0  0  0  0  0  0  0  0
   11.2133  -15.3947   20.0246 C   0  0  2  0  0  0  0  0  0  0  0  0
   10.8025  -16.1271   18.8957 N   0  0  0  0  0  0  0  0  0  0  0  0
   10.1049  -15.4501   21.0463 C   0  0  0  0  0  0  0  0  0  0  0  0
    9.2661  -14.5272   21.1146 O   0  0  0  0  0  0  0  0  0  0  0  0
   16.0864  -16.3688   16.6354 N   0  0  0  0  0  0  0  0  0  0  0  0
   10.0287  -16.5507   21.9205 C   0  0  2  0  0  0  0  0  0  0  0  0
    8.9244  -16.6131   22.9267 C   0  0  0  0  0  0  0  0  0  0  0  0
    8.1314  -17.8471   22.6771 C   0  0  0  0  0  0  0  0  0  0  0  0
    7.5829  -17.9897   21.3299 C   0  0  0  0  0  0  0  0  0  0  0  0
    6.8441  -17.0368   20.6615 N   0  0  0  0  0  0  0  0  0  0  0  0
    6.5251  -17.5242   19.4589 C   0  0  0  0  0  0  0  0  0  0  0  0
    7.0399  -18.7451   19.3584 N   0  0  0  0  0  0  0  0  0  0  0  0
    7.6931  -19.0393   20.5069 C   0  0  0  0  0  0  0  0  0  0  0  0
    9.5538  -16.6221   24.2463 O   0  0  0  0  0  0  0  0  0  0  0  0
   10.4073  -17.5304   24.5576 O   0  0  0  0  0  0  0  0  0  0  0  0
    6.0973  -10.3670   26.6623 C   0  0  0  0  0  0  0  0  0  0  0  0
    6.4057  -11.6984   26.6482 C   0  0  0  0  0  0  0  0  0  0  0  0
    5.3981  -12.6424   26.4867 C   0  0  0  0  0  0  0  0  0  0  0  0
    5.6877  -13.9925   26.4694 C   0  0  0  0  0  0  0  0  0  0  0  0
    7.0031  -14.4400   26.6143 C   0  0  0  0  0  0  0  0  0  0  0  0
    7.3449  -15.8862   26.6064 C   0  0  2  0  0  0  0  0  0  0  0  0
    8.8507  -16.1276   26.5976 N   0  0  0  0  0  0  0  0  0  0  0  0
    9.3188  -15.6766   25.2825 C   0  0  0  0  0  0  0  0  0  0  0  0
    9.1339  -17.5412   26.7851 O   0  0  0  0  0  0  0  0  0  0  0  0
    9.4011  -18.0592   28.0372 C   0  0  0  0  0  0  0  0  0  0  0  0
    7.9931  -13.5026   26.7730 C   0  0  0  0  0  0  0  0  0  0  0  0
    7.6781  -12.1698   26.7864 O   0  0  0  0  0  0  0  0  0  0  0  0
  1  2  1  0
  2  3  2  0
  4  2  1  0
  4  5  1  0
  6  7  1  0
  6  5  1  0
  8  9  1  6
  8  7  1  0
 10  8  1  0
 11 10  2  0
 12 10  1  0
 13 12  1  0
 13 14  1  6
 15 14  1  0
 16 15  2  0
 17 16  1  0
 18 17  1  0
 18 19  2  0
 19 15  1  0
 20 13  1  0
 20 29  1  0
 21 20  2  0
 22 23  1  0
 23 33  2  0
 24 25  2  0
 24 23  1  0
 25 26  1  0
 26 27  1  0
 26 32  2  0
 28 27  1  1
 28 30  1  0
 28 29  1  0
 30 31  1  0
 33 32  1  0
 34 30  2  0
M  END
$$$$
