RHY.pdb
     RDKit          3D

 34 35  0  0  1  0  0  0  0  0999 V2000
   15.3556  -19.1683   14.5549 N   0  0  0  0  0  0  0  0  0  0  0  0
   16.0316  -19.5412   15.7430 C   0  0  0  0  0  0  0  0  0  0  0  0
   17.2633  -19.9364   15.6405 N   0  0  0  0  0  0  0  0  0  0  0  0
   15.4162  -19.5046   17.0183 N   0  0  0  0  0  0  0  0  0  0  0  0
   14.1398  -18.8922   17.2735 C   0  0  0  0  0  0  0  0  0  0  0  0
   14.1433  -17.4128   17.3641 C   0  0  0  0  0  0  0  0  0  0  0  0
   13.7239  -16.7578   18.6111 C   0  0  0  0  0  0  0  0  0  0  0  0
   12.5527  -17.3196   19.3314 C   0  0  2  0  0  0  0  0  0  0  0  0
   11.5956  -18.0594   18.6128 N   0  0  0  0  0  0  0  0  0  0  0  0
   11.8276  -16.2537   20.1147 C   0  0  0  0  0  0  0  0  0  0  0  0
   12.4006  -15.1796   20.3942 O   0  0  0  0  0  0  0  0  0  0  0  0
   17.8305  -20.1218   16.4756 N   0  0  0  0  0  0  0  0  0  0  0  0
   10.5017  -16.4843   20.5271 C   0  0  1  0  0  0  0  0  0  0  0  0
    9.8075  -15.4626   21.3697 C   0  0  0  0  0  0  0  0  0  0  0  0
    8.3524  -15.5114   21.0628 C   0  0  0  0  0  0  0  0  0  0  0  0
    7.9125  -14.6952   19.9330 C   0  0  0  0  0  0  0  0  0  0  0  0
    8.7127  -13.8444   19.2005 N   0  0  0  0  0  0  0  0  0  0  0  0
    7.9614  -13.2790   18.2512 C   0  0  0  0  0  0  0  0  0  0  0  0
    6.7241  -13.7491   18.3693 N   0  0  0  0  0  0  0  0  0  0  0  0
    6.6858  -14.6221   19.4030 C   0  0  0  0  0  0  0  0  0  0  0  0
   10.0865  -15.8030   22.7639 O   0  0  0  0  0  0  0  0  0  0  0  0
   10.6985  -16.8928   23.0611 O   0  0  0  0  0  0  0  0  0  0  0  0
   10.6431  -15.5558   31.6177 C   0  0  0  0  0  0  0  0  0  0  0  0
   10.3492  -15.2909   30.3095 C   0  0  0  0  0  0  0  0  0  0  0  0
    9.4924  -16.1304   29.6071 C   0  0  0  0  0  0  0  0  0  0  0  0
    9.1819  -15.8810   28.2848 C   0  0  0  0  0  0  0  0  0  0  0  0
    9.7239  -14.7768   27.6227 C   0  0  0  0  0  0  0  0  0  0  0  0
    9.4138  -14.4863   26.1987 C   0  0  2  0  0  0  0  0  0  0  0  0
   10.0790  -15.4738   25.2457 N   0  0  0  0  0  0  0  0  0  0  0  0
    9.7429  -15.0115   23.8946 C   0  0  0  0  0  0  0  0  0  0  0  0
    9.5639  -16.8144   25.4714 O   0  0  0  0  0  0  0  0  0  0  0  0
   10.2986  -17.7581   26.1622 C   0  0  0  0  0  0  0  0  0  0  0  0
   10.5688  -13.9519   28.3223 C   0  0  0  0  0  0  0  0  0  0  0  0
   10.8598  -14.2223   29.6330 O   0  0  0  0  0  0  0  0  0  0  0  0
  1  2  1  0
  2  3  2  0
  4  2  1  0
  4  5  1  0
  6  7  1  0
  6  5  1  0
  8  9  1  6
  8  7  1  0
 10  8  1  0
 11 10  2  0
 12 10  1  0
 13 12  1  0
 13 14  1  6
 15 14  1  0
 16 15  2  0
 17 16  1  0
 18 17  1  0
 18 19  2  0
 19 15  1  0
 20 13  1  0
 20 29  1  0
 21 20  2  0
 22 23  1  0
 23 33  2  0
 24 25  2  0
 24 23  1  0
 25 26  1  0
 26 27  1  0
 26 32  2  0
 28 27  1  6
 28 30  1  0
 28 29  1  0
 30 31  1  0
 33 32  1  0
 34 30  2  0
M  END
$$$$
