ATE.pdb
     RDKit          3D

 22 21  0  0  1  0  0  0  0  0999 V2000
   17.6504  -13.6004  -16.6186 C   0  0  0  0  0  0  0  0  0  0  0  0
   17.6861  -12.5673  -15.4868 C   0  0  2  0  0  0  0  0  0  0  0  0
   16.4597  -12.7479  -14.7432 N   0  0  0  0  0  0  0  0  0  0  0  0
   17.7738  -11.2172  -16.0977 C   0  0  0  0  0  0  0  0  0  0  0  0
   18.6466  -10.9562  -16.9919 O   0  0  0  0  0  0  0  0  0  0  0  0
   14.7038   -9.6452  -17.5843 C   0  0  0  0  0  0  0  0  0  0  0  0
   15.2961   -8.6324  -16.6309 C   0  0  1  0  0  0  0  0  0  0  0  0
   14.6463   -8.9142  -15.3937 O   0  0  0  0  0  0  0  0  0  0  0  0
   16.7567   -8.9467  -16.3548 C   0  0  2  0  0  0  0  0  0  0  0  0
   16.8609  -10.2236  -15.6608 N   0  0  0  0  0  0  0  0  0  0  0  0
   17.4567   -7.9431  -15.5554 C   0  0  0  0  0  0  0  0  0  0  0  0
   17.4257   -8.1017  -14.2765 O   0  0  0  0  0  0  0  0  0  0  0  0
   18.1619   -6.8232  -16.0141 N   0  0  0  0  0  0  0  0  0  0  0  0
   18.8203   -5.8561  -15.0976 C   0  0  1  0  0  0  0  0  0  0  0  0
   20.2502   -5.7423  -15.4394 C   0  0  0  0  0  0  0  0  0  0  0  0
   21.0761   -4.7765  -14.6703 C   0  0  0  0  0  0  0  0  0  0  0  0
   22.1668   -5.3619  -13.8831 C   0  0  0  0  0  0  0  0  0  0  0  0
   22.7998   -6.3826  -14.3422 O   0  0  0  0  0  0  0  0  0  0  0  0
   18.0761   -4.6160  -15.0675 C   0  0  0  0  0  0  0  0  0  0  0  0
   17.3487   -4.1967  -16.0215 O   0  0  0  0  0  0  0  0  0  0  0  0
   22.5905   -4.8995  -12.6504 O   0  0  0  0  0  0  0  0  0  0  0  0
   18.0997   -3.7508  -13.9470 O   0  0  0  0  0  0  0  0  0  0  0  0
  2  4  1  0
  2  1  1  6
  2  3  1  0
  4  5  2  0
  7  6  1  6
  7  9  1  0
  8  7  1  0
  9 11  1  0
  9 10  1  1
 10  4  1  0
 11 12  2  0
 11 13  1  0
 13 14  1  0
 14 15  1  6
 15 16  1  0
 16 17  1  0
 17 21  1  0
 18 17  2  0
 19 14  1  0
 20 19  2  0
 22 19  1  0
M  END
$$$$
