ATE.pdb
     RDKit          3D

 22 21  0  0  1  0  0  0  0  0999 V2000
   24.6483  -11.8498  -16.0828 C   0  0  0  0  0  0  0  0  0  0  0  0
   23.1625  -12.2233  -16.1274 C   0  0  2  0  0  0  0  0  0  0  0  0
   23.0462  -13.2799  -17.1071 N   0  0  0  0  0  0  0  0  0  0  0  0
   22.3948  -11.0143  -16.5179 C   0  0  0  0  0  0  0  0  0  0  0  0
   22.4204  -10.5791  -17.7177 O   0  0  0  0  0  0  0  0  0  0  0  0
   18.7567  -10.6179  -16.0429 C   0  0  0  0  0  0  0  0  0  0  0  0
   19.3864   -9.4313  -15.3495 C   0  0  1  0  0  0  0  0  0  0  0  0
   19.5701   -9.8825  -14.0097 O   0  0  0  0  0  0  0  0  0  0  0  0
   20.8013   -9.2042  -15.8544 C   0  0  2  0  0  0  0  0  0  0  0  0
   21.6312  -10.3546  -15.5213 N   0  0  0  0  0  0  0  0  0  0  0  0
   21.4551   -8.0102  -15.3227 C   0  0  0  0  0  0  0  0  0  0  0  0
   22.4219   -8.2044  -14.4925 O   0  0  0  0  0  0  0  0  0  0  0  0
   21.1565   -6.6719  -15.6087 N   0  0  0  0  0  0  0  0  0  0  0  0
   21.9525   -5.5374  -15.0718 C   0  0  1  0  0  0  0  0  0  0  0  0
   21.6861   -4.3240  -15.8662 C   0  0  0  0  0  0  0  0  0  0  0  0
   22.3956   -3.0745  -15.4895 C   0  0  0  0  0  0  0  0  0  0  0  0
   22.0470   -1.8863  -16.2761 C   0  0  0  0  0  0  0  0  0  0  0  0
   21.2109   -1.9945  -17.2468 O   0  0  0  0  0  0  0  0  0  0  0  0
   21.7459   -5.4179  -13.6451 C   0  0  0  0  0  0  0  0  0  0  0  0
   20.7031   -5.8181  -13.0388 O   0  0  0  0  0  0  0  0  0  0  0  0
   22.5530   -0.6173  -16.0605 O   0  0  0  0  0  0  0  0  0  0  0  0
   22.7112   -4.8319  -12.7910 O   0  0  0  0  0  0  0  0  0  0  0  0
  2  4  1  0
  2  1  1  6
  2  3  1  0
  4  5  2  0
  7  6  1  6
  7  9  1  0
  8  7  1  0
  9 11  1  0
  9 10  1  1
 10  4  1  0
 11 12  2  0
 11 13  1  0
 13 14  1  0
 14 15  1  6
 15 16  1  0
 16 17  1  0
 17 21  1  0
 18 17  2  0
 19 14  1  0
 20 19  2  0
 22 19  1  0
M  END
$$$$
