ATE.pdb
     RDKit          3D

 22 21  0  0  1  0  0  0  0  0999 V2000
   18.2502  -10.3890  -18.4675 C   0  0  0  0  0  0  0  0  0  0  0  0
   19.3152  -11.2548  -17.7853 C   0  0  2  0  0  0  0  0  0  0  0  0
   18.6742  -12.5165  -17.4900 N   0  0  0  0  0  0  0  0  0  0  0  0
   19.7597  -10.5541  -16.5544 C   0  0  0  0  0  0  0  0  0  0  0  0
   19.0772  -10.6207  -15.4778 O   0  0  0  0  0  0  0  0  0  0  0  0
   22.7771  -11.2234  -14.7632 C   0  0  0  0  0  0  0  0  0  0  0  0
   22.8793   -9.7545  -15.1058 C   0  0  1  0  0  0  0  0  0  0  0  0
   23.5395   -9.7484  -16.3693 O   0  0  0  0  0  0  0  0  0  0  0  0
   21.5067   -9.1782  -15.4094 C   0  0  2  0  0  0  0  0  0  0  0  0
   20.9645   -9.8076  -16.6065 N   0  0  0  0  0  0  0  0  0  0  0  0
   21.4835   -7.7312  -15.6136 C   0  0  0  0  0  0  0  0  0  0  0  0
   21.8673   -7.3064  -16.7685 O   0  0  0  0  0  0  0  0  0  0  0  0
   21.0914   -6.7443  -14.7002 N   0  0  0  0  0  0  0  0  0  0  0  0
   21.1794   -5.2910  -14.9988 C   0  0  1  0  0  0  0  0  0  0  0  0
   19.8437   -4.6778  -14.8794 C   0  0  0  0  0  0  0  0  0  0  0  0
   18.8324   -5.0021  -15.9180 C   0  0  0  0  0  0  0  0  0  0  0  0
   17.4368   -4.7477  -15.5444 C   0  0  0  0  0  0  0  0  0  0  0  0
   16.5072   -5.4911  -16.0307 O   0  0  0  0  0  0  0  0  0  0  0  0
   22.2273   -4.6846  -14.2073 C   0  0  0  0  0  0  0  0  0  0  0  0
   22.7527   -5.2253  -13.1841 O   0  0  0  0  0  0  0  0  0  0  0  0
   17.0162   -3.7471  -14.6873 O   0  0  0  0  0  0  0  0  0  0  0  0
   22.7632   -3.4111  -14.5164 O   0  0  0  0  0  0  0  0  0  0  0  0
  2  4  1  0
  2  1  1  1
  2  3  1  0
  4  5  2  0
  7  6  1  6
  7  9  1  0
  8  7  1  0
  9 11  1  0
  9 10  1  6
 10  4  1  0
 11 12  2  0
 11 13  1  0
 13 14  1  0
 14 15  1  1
 15 16  1  0
 16 17  1  0
 17 21  1  0
 18 17  2  0
 19 14  1  0
 20 19  2  0
 22 19  1  0
M  END
$$$$
