ATE.pdb
     RDKit          3D

 22 21  0  0  1  0  0  0  0  0999 V2000
   16.3422   -9.6503  -16.3479 C   0  0  0  0  0  0  0  0  0  0  0  0
   17.5192  -10.6305  -16.2908 C   0  0  2  0  0  0  0  0  0  0  0  0
   17.0227  -11.8110  -15.6203 N   0  0  0  0  0  0  0  0  0  0  0  0
   18.6218   -9.9834  -15.5364 C   0  0  0  0  0  0  0  0  0  0  0  0
   18.4235   -9.4929  -14.3747 O   0  0  0  0  0  0  0  0  0  0  0  0
   23.5211   -9.5806  -15.1405 C   0  0  0  0  0  0  0  0  0  0  0  0
   22.2912  -10.2004  -15.7638 C   0  0  1  0  0  0  0  0  0  0  0  0
   22.1246  -11.4180  -15.0413 O   0  0  0  0  0  0  0  0  0  0  0  0
   21.0502   -9.3968  -15.4140 C   0  0  2  0  0  0  0  0  0  0  0  0
   19.9032   -9.9244  -16.1414 N   0  0  0  0  0  0  0  0  0  0  0  0
   21.1465   -7.9675  -15.7037 C   0  0  0  0  0  0  0  0  0  0  0  0
   21.1831   -7.6334  -16.9482 O   0  0  0  0  0  0  0  0  0  0  0  0
   21.2035   -6.9103  -14.7866 N   0  0  0  0  0  0  0  0  0  0  0  0
   21.3808   -5.4941  -15.2011 C   0  0  1  0  0  0  0  0  0  0  0  0
   20.0636   -4.8838  -15.4597 C   0  0  0  0  0  0  0  0  0  0  0  0
   19.1889   -4.5937  -14.2947 C   0  0  0  0  0  0  0  0  0  0  0  0
   17.9410   -3.8856  -14.6002 C   0  0  0  0  0  0  0  0  0  0  0  0
   16.8515   -4.5550  -14.7344 O   0  0  0  0  0  0  0  0  0  0  0  0
   22.2240   -4.8013  -14.2516 C   0  0  0  0  0  0  0  0  0  0  0  0
   22.5343   -5.2575  -13.1068 O   0  0  0  0  0  0  0  0  0  0  0  0
   17.8264   -2.5168  -14.7621 O   0  0  0  0  0  0  0  0  0  0  0  0
   22.7834   -3.5305  -14.5286 O   0  0  0  0  0  0  0  0  0  0  0  0
  2  4  1  0
  2  1  1  1
  2  3  1  0
  4  5  2  0
  7  6  1  1
  7  9  1  0
  8  7  1  0
  9 11  1  0
  9 10  1  6
 10  4  1  0
 11 12  2  0
 11 13  1  0
 13 14  1  0
 14 15  1  1
 15 16  1  0
 16 17  1  0
 17 21  1  0
 18 17  2  0
 19 14  1  0
 20 19  2  0
 22 19  1  0
M  END
$$$$
