ATE.pdb
     RDKit          3D

 22 21  0  0  1  0  0  0  0  0999 V2000
   24.1353  -10.9800  -15.6351 C   0  0  0  0  0  0  0  0  0  0  0  0
   22.6536  -11.3250  -15.4482 C   0  0  2  0  0  0  0  0  0  0  0  0
   22.3563  -12.3485  -16.4247 N   0  0  0  0  0  0  0  0  0  0  0  0
   21.8607  -10.0908  -15.6754 C   0  0  0  0  0  0  0  0  0  0  0  0
   21.6688   -9.6410  -16.8546 O   0  0  0  0  0  0  0  0  0  0  0  0
   18.3846   -9.5723  -14.1882 C   0  0  0  0  0  0  0  0  0  0  0  0
   19.2502   -8.4025  -13.7787 C   0  0  1  0  0  0  0  0  0  0  0  0
   19.8220   -8.8232  -12.5424 O   0  0  0  0  0  0  0  0  0  0  0  0
   20.4459   -8.2699  -14.7065 C   0  0  2  0  0  0  0  0  0  0  0  0
   21.3214   -9.4235  -14.5461 N   0  0  0  0  0  0  0  0  0  0  0  0
   21.2482   -7.0657  -14.5004 C   0  0  0  0  0  0  0  0  0  0  0  0
   22.3069   -7.1960  -13.7768 O   0  0  0  0  0  0  0  0  0  0  0  0
   21.0041   -5.7793  -14.9980 N   0  0  0  0  0  0  0  0  0  0  0  0
   21.9179   -4.6338  -14.7496 C   0  0  1  0  0  0  0  0  0  0  0  0
   21.8825   -3.7118  -15.8999 C   0  0  0  0  0  0  0  0  0  0  0  0
   22.6599   -2.4496  -15.8057 C   0  0  0  0  0  0  0  0  0  0  0  0
   22.5379   -1.5435  -16.9529 C   0  0  0  0  0  0  0  0  0  0  0  0
   21.8978   -1.9309  -17.9985 O   0  0  0  0  0  0  0  0  0  0  0  0
   21.6365   -4.0458  -13.4583 C   0  0  0  0  0  0  0  0  0  0  0  0
   20.5231   -4.1492  -12.8543 O   0  0  0  0  0  0  0  0  0  0  0  0
   23.0667   -0.2669  -17.0136 O   0  0  0  0  0  0  0  0  0  0  0  0
   22.6012   -3.2910  -12.7483 O   0  0  0  0  0  0  0  0  0  0  0  0
  2  4  1  0
  2  1  1  6
  2  3  1  0
  4  5  2  0
  7  6  1  6
  7  9  1  0
  8  7  1  0
  9 11  1  0
  9 10  1  1
 10  4  1  0
 11 12  2  0
 11 13  1  0
 13 14  1  0
 14 15  1  6
 15 16  1  0
 16 17  1  0
 17 21  1  0
 18 17  2  0
 19 14  1  0
 20 19  2  0
 22 19  1  0
M  END
$$$$
