LSQ.pdb
     RDKit          3D

 24 23  0  0  1  0  0  0  0  0999 V2000
    6.3241  -12.6054   26.0550 C   0  0  0  0  0  0  0  0  0  0  0  0
    7.3996  -13.3228   26.7971 C   0  0  2  0  0  0  0  0  0  0  0  0
    8.5146  -12.3486   27.1717 C   0  0  0  0  0  0  0  0  0  0  0  0
    7.9408  -14.5613   26.1890 C   0  0  0  0  0  0  0  0  0  0  0  0
    7.0137  -15.5365   25.5877 C   0  0  2  0  0  0  0  0  0  0  0  0
    6.8334  -16.5814   26.6247 N   0  0  0  0  0  0  0  0  0  0  0  0
    7.3420  -16.1431   24.3084 C   0  0  0  0  0  0  0  0  0  0  0  0
    7.9125  -17.2543   24.1889 O   0  0  0  0  0  0  0  0  0  0  0  0
    7.2780  -15.4837   19.4352 O   0  0  0  0  0  0  0  0  0  0  0  0
    7.0919  -14.9746   20.7277 C   0  0  0  0  0  0  0  0  0  0  0  0
    7.3650  -16.0661   21.7726 C   0  0  2  0  0  0  0  0  0  0  0  0
    7.0342  -15.5075   23.0449 N   0  0  0  0  0  0  0  0  0  0  0  0
    8.7591  -16.5304   21.6749 C   0  0  0  0  0  0  0  0  0  0  0  0
    8.9891  -17.6140   21.0824 O   0  0  0  0  0  0  0  0  0  0  0  0
   12.9805  -13.8727   18.8413 N   0  0  0  0  0  0  0  0  0  0  0  0
   13.8036  -14.8295   19.4645 C   0  0  0  0  0  0  0  0  0  0  0  0
   14.9490  -15.0367   18.9993 O   0  0  0  0  0  0  0  0  0  0  0  0
   13.3150  -15.5830   20.6606 C   0  0  0  0  0  0  0  0  0  0  0  0
   11.8591  -15.3474   20.9012 C   0  0  0  0  0  0  0  0  0  0  0  0
   11.2513  -16.2407   21.9282 C   0  0  2  0  0  0  0  0  0  0  0  0
    9.8632  -15.8204   22.2144 N   0  0  0  0  0  0  0  0  0  0  0  0
   12.0046  -16.1301   23.1942 C   0  0  0  0  0  0  0  0  0  0  0  0
   13.3219  -16.6252   23.2337 O   0  0  0  0  0  0  0  0  0  0  0  0
   11.5498  -15.6181   24.2577 O   0  0  0  0  0  0  0  0  0  0  0  0
  2  1  1  6
  2  3  1  0
  4  5  1  0
  4  2  1  0
  5  7  1  0
  5  6  1  1
  7  8  2  0
 10  9  1  0
 11 10  1  6
 12 11  1  0
 12  7  1  0
 13 11  1  0
 13 14  2  0
 16 15  1  0
 16 17  2  0
 18 16  1  0
 19 18  1  0
 20 21  1  0
 20 19  1  6
 21 13  1  0
 22 20  1  0
 23 22  1  0
 24 22  2  0
M  END
$$$$
