LSQ.pdb
     RDKit          3D

 24 23  0  0  1  0  0  0  0  0999 V2000
    9.6469  -13.0614   18.9823 C   0  0  0  0  0  0  0  0  0  0  0  0
    8.2185  -13.2531   19.3631 C   0  0  2  0  0  0  0  0  0  0  0  0
    7.5850  -11.9071   19.7083 C   0  0  0  0  0  0  0  0  0  0  0  0
    7.9165  -14.2763   20.3918 C   0  0  0  0  0  0  0  0  0  0  0  0
    8.4320  -15.6466   20.2220 C   0  0  2  0  0  0  0  0  0  0  0  0
    7.5536  -16.2606   19.1967 N   0  0  0  0  0  0  0  0  0  0  0  0
    8.5461  -16.5181   21.3795 C   0  0  0  0  0  0  0  0  0  0  0  0
    7.5666  -16.9013   22.0638 O   0  0  0  0  0  0  0  0  0  0  0  0
   11.8855  -18.9927   22.1463 O   0  0  0  0  0  0  0  0  0  0  0  0
   10.5625  -19.1637   22.5764 C   0  0  0  0  0  0  0  0  0  0  0  0
    9.9724  -17.8192   23.0256 C   0  0  2  0  0  0  0  0  0  0  0  0
    9.8182  -17.0254   21.8481 N   0  0  0  0  0  0  0  0  0  0  0  0
   10.8320  -17.1995   24.0482 C   0  0  0  0  0  0  0  0  0  0  0  0
   12.0635  -17.4468   24.0250 O   0  0  0  0  0  0  0  0  0  0  0  0
    6.2364  -17.3900   24.4053 N   0  0  0  0  0  0  0  0  0  0  0  0
    6.9007  -16.2801   24.9603 C   0  0  0  0  0  0  0  0  0  0  0  0
    6.9654  -15.2194   24.2954 O   0  0  0  0  0  0  0  0  0  0  0  0
    7.5168  -16.3701   26.3202 C   0  0  0  0  0  0  0  0  0  0  0  0
    8.5921  -17.4068   26.3686 C   0  0  0  0  0  0  0  0  0  0  0  0
    9.9775  -16.8575   26.3960 C   0  0  2  0  0  0  0  0  0  0  0  0
   10.3466  -16.3346   25.0634 N   0  0  0  0  0  0  0  0  0  0  0  0
   10.9354  -17.9356   26.7163 C   0  0  0  0  0  0  0  0  0  0  0  0
   11.4965  -18.6687   25.6534 O   0  0  0  0  0  0  0  0  0  0  0  0
   11.2933  -18.2533   27.8871 O   0  0  0  0  0  0  0  0  0  0  0  0
  2  1  1  1
  2  3  1  0
  4  5  1  0
  4  2  1  0
  5  7  1  0
  5  6  1  6
  7  8  2  0
 10  9  1  0
 11 10  1  6
 12 11  1  0
 12  7  1  0
 13 11  1  0
 13 14  2  0
 16 15  1  0
 16 17  2  0
 18 16  1  0
 19 18  1  0
 20 21  1  0
 20 19  1  6
 21 13  1  0
 22 20  1  0
 23 22  1  0
 24 22  2  0
M  END
$$$$
