LSQ.pdb
     RDKit          3D

 24 23  0  0  1  0  0  0  0  0999 V2000
    9.4823  -13.1373   19.4535 C   0  0  0  0  0  0  0  0  0  0  0  0
    8.0178  -13.3451   19.6388 C   0  0  2  0  0  0  0  0  0  0  0  0
    7.3574  -12.0414   20.0821 C   0  0  0  0  0  0  0  0  0  0  0  0
    7.5906  -14.4859   20.4830 C   0  0  0  0  0  0  0  0  0  0  0  0
    8.1819  -15.8163   20.2541 C   0  0  2  0  0  0  0  0  0  0  0  0
    7.2049  -16.5252   19.3923 N   0  0  0  0  0  0  0  0  0  0  0  0
    8.5482  -16.6434   21.3917 C   0  0  0  0  0  0  0  0  0  0  0  0
    7.8015  -16.8398   22.3809 O   0  0  0  0  0  0  0  0  0  0  0  0
   12.4839  -18.2900   21.7521 O   0  0  0  0  0  0  0  0  0  0  0  0
   11.3517  -19.0238   22.1319 C   0  0  0  0  0  0  0  0  0  0  0  0
   10.2442  -18.0776   22.6177 C   0  0  2  0  0  0  0  0  0  0  0  0
    9.8242  -17.3207   21.4815 N   0  0  0  0  0  0  0  0  0  0  0  0
   10.7323  -17.2489   23.7329 C   0  0  0  0  0  0  0  0  0  0  0  0
   11.3751  -16.2032   23.4651 O   0  0  0  0  0  0  0  0  0  0  0  0
    8.3464  -13.6497   27.2595 N   0  0  0  0  0  0  0  0  0  0  0  0
    9.5496  -13.7201   27.9867 C   0  0  0  0  0  0  0  0  0  0  0  0
    9.7506  -12.8908   28.9049 O   0  0  0  0  0  0  0  0  0  0  0  0
   10.5670  -14.7682   27.6651 C   0  0  0  0  0  0  0  0  0  0  0  0
   10.1244  -15.6336   26.5302 C   0  0  0  0  0  0  0  0  0  0  0  0
   11.0805  -16.7203   26.1739 C   0  0  2  0  0  0  0  0  0  0  0  0
   10.5172  -17.5652   25.0996 N   0  0  0  0  0  0  0  0  0  0  0  0
   11.2971  -17.5973   27.3428 C   0  0  0  0  0  0  0  0  0  0  0  0
   12.1381  -17.1399   28.3751 O   0  0  0  0  0  0  0  0  0  0  0  0
   10.7777  -18.7415   27.4878 O   0  0  0  0  0  0  0  0  0  0  0  0
  2  1  1  1
  2  3  1  0
  4  5  1  0
  4  2  1  0
  5  7  1  0
  5  6  1  6
  7  8  2  0
 10  9  1  0
 11 10  1  6
 12 11  1  0
 12  7  1  0
 13 11  1  0
 13 14  2  0
 16 15  1  0
 16 17  2  0
 18 16  1  0
 19 18  1  0
 20 21  1  0
 20 19  1  1
 21 13  1  0
 22 20  1  0
 23 22  1  0
 24 22  2  0
M  END
$$$$
