LSQ.pdb
     RDKit          3D

 24 23  0  0  1  0  0  0  0  0999 V2000
    9.2180  -12.2457   19.1322 C   0  0  0  0  0  0  0  0  0  0  0  0
    8.1663  -13.3021   19.1208 C   0  0  2  0  0  0  0  0  0  0  0  0
    6.7852  -12.6625   18.9951 C   0  0  0  0  0  0  0  0  0  0  0  0
    8.2010  -14.3132   20.2038 C   0  0  0  0  0  0  0  0  0  0  0  0
    9.4767  -14.9712   20.5381 C   0  0  2  0  0  0  0  0  0  0  0  0
    9.8390  -15.7412   19.3234 N   0  0  0  0  0  0  0  0  0  0  0  0
    9.5599  -15.8163   21.7176 C   0  0  0  0  0  0  0  0  0  0  0  0
    9.1378  -15.4779   22.8498 O   0  0  0  0  0  0  0  0  0  0  0  0
   12.3115  -18.9481   22.1060 O   0  0  0  0  0  0  0  0  0  0  0  0
   10.9712  -19.2631   22.3686 C   0  0  0  0  0  0  0  0  0  0  0  0
   10.2093  -18.0080   22.8183 C   0  0  2  0  0  0  0  0  0  0  0  0
   10.1452  -17.1398   21.6859 N   0  0  0  0  0  0  0  0  0  0  0  0
   10.8651  -17.4040   23.9903 C   0  0  0  0  0  0  0  0  0  0  0  0
   11.7606  -16.5441   23.7982 O   0  0  0  0  0  0  0  0  0  0  0  0
    9.8755  -13.1627   29.4659 N   0  0  0  0  0  0  0  0  0  0  0  0
    9.7686  -13.8805   28.2598 C   0  0  0  0  0  0  0  0  0  0  0  0
    8.8809  -13.5527   27.4377 O   0  0  0  0  0  0  0  0  0  0  0  0
   10.7005  -15.0137   27.9693 C   0  0  0  0  0  0  0  0  0  0  0  0
   10.2101  -15.8506   26.8325 C   0  0  0  0  0  0  0  0  0  0  0  0
   11.1115  -16.9791   26.4638 C   0  0  2  0  0  0  0  0  0  0  0  0
   10.5420  -17.7392   25.3310 N   0  0  0  0  0  0  0  0  0  0  0  0
   11.2254  -17.9179   27.5987 C   0  0  0  0  0  0  0  0  0  0  0  0
   10.6368  -19.1908   27.4749 O   0  0  0  0  0  0  0  0  0  0  0  0
   11.8188  -17.6612   28.6858 O   0  0  0  0  0  0  0  0  0  0  0  0
  2  1  1  1
  2  3  1  0
  4  5  1  0
  4  2  1  0
  5  7  1  0
  5  6  1  6
  7  8  2  0
 10  9  1  0
 11 10  1  6
 12 11  1  0
 12  7  1  0
 13 11  1  0
 13 14  2  0
 16 15  1  0
 16 17  2  0
 18 16  1  0
 19 18  1  0
 20 21  1  0
 20 19  1  1
 21 13  1  0
 22 20  1  0
 23 22  1  0
 24 22  2  0
M  END
$$$$
