LSQ.pdb
     RDKit          3D

 24 23  0  0  1  0  0  0  0  0999 V2000
    8.9440  -13.1339   21.1246 C   0  0  0  0  0  0  0  0  0  0  0  0
    7.9933  -13.3273   19.9928 C   0  0  2  0  0  0  0  0  0  0  0  0
    7.0000  -12.1684   19.9415 C   0  0  0  0  0  0  0  0  0  0  0  0
    7.3069  -14.6370   19.8926 C   0  0  0  0  0  0  0  0  0  0  0  0
    8.0678  -15.8735   20.1462 C   0  0  2  0  0  0  0  0  0  0  0  0
    7.3702  -16.9192   19.3590 N   0  0  0  0  0  0  0  0  0  0  0  0
    8.2734  -16.3210   21.5136 C   0  0  0  0  0  0  0  0  0  0  0  0
    7.3437  -16.4947   22.3383 O   0  0  0  0  0  0  0  0  0  0  0  0
   12.2217  -16.8962   23.1360 O   0  0  0  0  0  0  0  0  0  0  0  0
   11.1562  -17.7640   23.4122 C   0  0  0  0  0  0  0  0  0  0  0  0
    9.8280  -16.9937   23.4024 C   0  0  2  0  0  0  0  0  0  0  0  0
    9.5874  -16.6087   22.0480 N   0  0  0  0  0  0  0  0  0  0  0  0
    9.8883  -15.8583   24.3382 C   0  0  0  0  0  0  0  0  0  0  0  0
   10.3203  -14.7567   23.9160 O   0  0  0  0  0  0  0  0  0  0  0  0
    5.9946  -12.4194   26.1111 N   0  0  0  0  0  0  0  0  0  0  0  0
    6.9319  -11.9771   27.0635 C   0  0  0  0  0  0  0  0  0  0  0  0
    6.6920  -10.9279   27.7060 O   0  0  0  0  0  0  0  0  0  0  0  0
    8.1905  -12.7495   27.3008 C   0  0  0  0  0  0  0  0  0  0  0  0
    8.2768  -13.9465   26.4104 C   0  0  0  0  0  0  0  0  0  0  0  0
    9.5236  -14.7472   26.5724 C   0  0  2  0  0  0  0  0  0  0  0  0
    9.4844  -15.9373   25.6964 N   0  0  0  0  0  0  0  0  0  0  0  0
    9.6241  -15.2382   27.9621 C   0  0  0  0  0  0  0  0  0  0  0  0
   10.0823  -14.3498   28.9535 O   0  0  0  0  0  0  0  0  0  0  0  0
    9.3260  -16.4103   28.3326 O   0  0  0  0  0  0  0  0  0  0  0  0
  2  1  1  1
  2  3  1  0
  4  5  1  0
  4  2  1  0
  5  7  1  0
  5  6  1  6
  7  8  2  0
 10  9  1  0
 11 10  1  6
 12 11  1  0
 12  7  1  0
 13 11  1  0
 13 14  2  0
 16 15  1  0
 16 17  2  0
 18 16  1  0
 19 18  1  0
 20 21  1  0
 20 19  1  1
 21 13  1  0
 22 20  1  0
 23 22  1  0
 24 22  2  0
M  END
$$$$
