LSQ.pdb
     RDKit          3D

 24 23  0  0  1  0  0  0  0  0999 V2000
    9.4317  -13.1383   18.9558 C   0  0  0  0  0  0  0  0  0  0  0  0
    7.9833  -13.3927   19.1999 C   0  0  2  0  0  0  0  0  0  0  0  0
    7.1676  -12.1524   18.8411 C   0  0  0  0  0  0  0  0  0  0  0  0
    7.5978  -13.9326   20.5252 C   0  0  0  0  0  0  0  0  0  0  0  0
    8.2641  -15.1448   21.0339 C   0  0  2  0  0  0  0  0  0  0  0  0
    8.0162  -16.1790   20.0001 N   0  0  0  0  0  0  0  0  0  0  0  0
    7.9203  -15.6525   22.3516 C   0  0  0  0  0  0  0  0  0  0  0  0
    7.9624  -14.9618   23.3984 O   0  0  0  0  0  0  0  0  0  0  0  0
    7.8111  -19.8099   23.1586 O   0  0  0  0  0  0  0  0  0  0  0  0
    6.7607  -19.0143   23.6365 C   0  0  0  0  0  0  0  0  0  0  0  0
    7.2455  -17.5751   23.8631 C   0  0  2  0  0  0  0  0  0  0  0  0
    7.4936  -17.0180   22.5715 N   0  0  0  0  0  0  0  0  0  0  0  0
    8.4229  -17.5653   24.7476 C   0  0  0  0  0  0  0  0  0  0  0  0
    9.5649  -17.5525   24.2240 O   0  0  0  0  0  0  0  0  0  0  0  0
   10.9240  -14.4761   30.8596 N   0  0  0  0  0  0  0  0  0  0  0  0
   10.1738  -14.6965   29.6892 C   0  0  0  0  0  0  0  0  0  0  0  0
    9.2630  -13.8876   29.3935 O   0  0  0  0  0  0  0  0  0  0  0  0
   10.4625  -15.8768   28.8171 C   0  0  0  0  0  0  0  0  0  0  0  0
    9.3484  -16.1345   27.8550 C   0  0  0  0  0  0  0  0  0  0  0  0
    9.5411  -17.3378   26.9964 C   0  0  2  0  0  0  0  0  0  0  0  0
    8.3413  -17.5695   26.1644 N   0  0  0  0  0  0  0  0  0  0  0  0
    9.7141  -18.5341   27.8456 C   0  0  0  0  0  0  0  0  0  0  0  0
    8.6378  -19.4344   27.9595 O   0  0  0  0  0  0  0  0  0  0  0  0
   10.7687  -18.8136   28.4857 O   0  0  0  0  0  0  0  0  0  0  0  0
  2  1  1  1
  2  3  1  0
  4  5  1  0
  4  2  1  0
  5  7  1  0
  5  6  1  6
  7  8  2  0
 10  9  1  0
 11 10  1  6
 12 11  1  0
 12  7  1  0
 13 11  1  0
 13 14  2  0
 16 15  1  0
 16 17  2  0
 18 16  1  0
 19 18  1  0
 20 21  1  0
 20 19  1  1
 21 13  1  0
 22 20  1  0
 23 22  1  0
 24 22  2  0
M  END
$$$$
