LSQ.pdb
     RDKit          3D

 24 23  0  0  1  0  0  0  0  0999 V2000
    7.7737  -20.6715   16.9684 C   0  0  0  0  0  0  0  0  0  0  0  0
    9.2141  -20.8284   17.3186 C   0  0  2  0  0  0  0  0  0  0  0  0
    9.4795  -22.2487   17.8134 C   0  0  0  0  0  0  0  0  0  0  0  0
    9.8123  -19.8170   18.2218 C   0  0  0  0  0  0  0  0  0  0  0  0
    9.6318  -18.3849   17.9243 C   0  0  2  0  0  0  0  0  0  0  0  0
   10.3871  -18.1579   16.6682 N   0  0  0  0  0  0  0  0  0  0  0  0
    9.9980  -17.3937   18.9221 C   0  0  0  0  0  0  0  0  0  0  0  0
   11.1507  -16.9111   19.0363 O   0  0  0  0  0  0  0  0  0  0  0  0
    7.3229  -16.4478   22.0525 O   0  0  0  0  0  0  0  0  0  0  0  0
    8.0760  -15.4098   21.4869 C   0  0  0  0  0  0  0  0  0  0  0  0
    9.3960  -15.9570   20.9247 C   0  0  2  0  0  0  0  0  0  0  0  0
    9.0501  -16.8714   19.8833 N   0  0  0  0  0  0  0  0  0  0  0  0
   10.1984  -16.5624   22.0009 C   0  0  0  0  0  0  0  0  0  0  0  0
   10.0658  -17.7909   22.2280 O   0  0  0  0  0  0  0  0  0  0  0  0
   15.1778  -17.6931   22.1555 N   0  0  0  0  0  0  0  0  0  0  0  0
   15.1094  -16.6973   23.1479 C   0  0  0  0  0  0  0  0  0  0  0  0
   15.9379  -16.7229   24.0883 O   0  0  0  0  0  0  0  0  0  0  0  0
   14.0646  -15.6295   23.0768 C   0  0  0  0  0  0  0  0  0  0  0  0
   13.0988  -15.7294   24.2128 C   0  0  0  0  0  0  0  0  0  0  0  0
   11.8557  -16.4903   23.9003 C   0  0  2  0  0  0  0  0  0  0  0  0
   11.1175  -15.8341   22.8003 N   0  0  0  0  0  0  0  0  0  0  0  0
   10.9628  -16.4923   25.0772 C   0  0  0  0  0  0  0  0  0  0  0  0
   11.3797  -17.1823   26.2314 O   0  0  0  0  0  0  0  0  0  0  0  0
    9.8389  -15.9140   25.1266 O   0  0  0  0  0  0  0  0  0  0  0  0
  2  1  1  1
  2  3  1  0
  4  5  1  0
  4  2  1  0
  5  7  1  0
  5  6  1  6
  7  8  2  0
 10  9  1  0
 11 10  1  1
 12 11  1  0
 12  7  1  0
 13 11  1  0
 13 14  2  0
 16 15  1  0
 16 17  2  0
 18 16  1  0
 19 18  1  0
 20 21  1  0
 20 19  1  1
 21 13  1  0
 22 20  1  0
 23 22  1  0
 24 22  2  0
M  END
$$$$
