DYK.pdb
     RDKit          3D

 30 30  0  0  1  0  0  0  0  0999 V2000
    8.7432  -17.5195   19.3308 N   0  0  0  0  0  0  0  0  0  0  0  0
   10.0740  -17.3553   19.8748 C   0  0  1  0  0  0  0  0  0  0  0  0
   10.9354  -16.7552   18.8018 C   0  0  0  0  0  0  0  0  0  0  0  0
   11.0791  -17.7287   17.7095 C   0  0  0  0  0  0  0  0  0  0  0  0
   10.5109  -18.8329   17.7670 O   0  0  0  0  0  0  0  0  0  0  0  0
   10.0002  -16.5442   21.0898 C   0  0  0  0  0  0  0  0  0  0  0  0
   11.0483  -16.3461   21.7976 O   0  0  0  0  0  0  0  0  0  0  0  0
   11.8506  -17.4129   16.6135 O   0  0  0  0  0  0  0  0  0  0  0  0
    6.6033  -11.7394   27.8008 O   0  0  0  0  0  0  0  0  0  0  0  0
    6.8343  -12.3634   26.5947 C   0  0  0  0  0  0  0  0  0  0  0  0
    6.1980  -13.5370   26.3146 C   0  0  0  0  0  0  0  0  0  0  0  0
    6.4160  -14.1880   25.0989 C   0  0  0  0  0  0  0  0  0  0  0  0
    7.2686  -13.6779   24.1516 C   0  0  0  0  0  0  0  0  0  0  0  0
    7.5058  -14.3670   22.8721 C   0  0  0  0  0  0  0  0  0  0  0  0
    8.7434  -15.1915   22.8008 C   0  0  2  0  0  0  0  0  0  0  0  0
    8.8240  -15.9446   21.5557 N   0  0  0  0  0  0  0  0  0  0  0  0
    8.7556  -16.1755   23.9400 C   0  0  0  0  0  0  0  0  0  0  0  0
    7.8481  -17.0435   24.0281 O   0  0  0  0  0  0  0  0  0  0  0  0
    7.9031  -12.4773   24.4684 C   0  0  0  0  0  0  0  0  0  0  0  0
    7.6990  -11.8238   25.6608 C   0  0  0  0  0  0  0  0  0  0  0  0
    9.7676  -16.1499   24.9219 N   0  0  0  0  0  0  0  0  0  0  0  0
    9.9943  -17.0716   25.9980 C   0  0  1  0  0  0  0  0  0  0  0  0
   11.0092  -18.1452   25.6413 C   0  0  0  0  0  0  0  0  0  0  0  0
   11.0791  -19.1221   26.7694 C   0  0  0  0  0  0  0  0  0  0  0  0
   12.0766  -20.2057   26.4554 C   0  0  0  0  0  0  0  0  0  0  0  0
   11.6003  -21.5156   26.9889 C   0  0  0  0  0  0  0  0  0  0  0  0
   12.4383  -22.6012   26.4846 N   0  0  0  0  0  0  0  0  0  0  0  0
   10.2568  -16.4264   27.2871 C   0  0  0  0  0  0  0  0  0  0  0  0
    9.7625  -16.9448   28.3199 O   0  0  0  0  0  0  0  0  0  0  0  0
   11.0168  -15.2777   27.4458 O   0  0  0  0  0  0  0  0  0  0  0  0
  2  1  1  6
  3  2  1  0
  4  3  1  0
  5  4  2  0
  6  2  1  0
  6  7  2  0
  8  4  1  0
  9 10  1  0
 10 11  2  0
 11 12  1  0
 13 12  2  0
 13 14  1  0
 15 14  1  6
 15 16  1  0
 16  6  1  0
 17 15  1  0
 17 18  2  0
 19 13  1  0
 20 10  1  0
 20 19  2  0
 21 17  1  0
 22 21  1  0
 22 28  1  0
 22 23  1  6
 24 23  1  0
 25 24  1  0
 26 25  1  0
 27 26  1  0
 28 29  2  0
 28 30  1  0
M  END
$$$$
