DYK.pdb
     RDKit          3D

 30 30  0  0  1  0  0  0  0  0999 V2000
   10.5447  -18.3126   19.9831 N   0  0  0  0  0  0  0  0  0  0  0  0
   11.5959  -17.3239   20.0897 C   0  0  1  0  0  0  0  0  0  0  0  0
   11.7711  -16.6955   18.7377 C   0  0  0  0  0  0  0  0  0  0  0  0
   12.2901  -17.7089   17.8076 C   0  0  0  0  0  0  0  0  0  0  0  0
   13.3783  -18.2693   18.0250 O   0  0  0  0  0  0  0  0  0  0  0  0
   11.2513  -16.3670   21.1410 C   0  0  0  0  0  0  0  0  0  0  0  0
   12.0595  -15.4210   21.4422 O   0  0  0  0  0  0  0  0  0  0  0  0
   11.5631  -18.0392   16.6859 O   0  0  0  0  0  0  0  0  0  0  0  0
    6.8552  -13.1873   17.4439 O   0  0  0  0  0  0  0  0  0  0  0  0
    7.2025  -13.6022   18.7106 C   0  0  0  0  0  0  0  0  0  0  0  0
    6.9280  -14.8816   19.0957 C   0  0  0  0  0  0  0  0  0  0  0  0
    7.2705  -15.3252   20.3744 C   0  0  0  0  0  0  0  0  0  0  0  0
    7.8885  -14.5004   21.2812 C   0  0  0  0  0  0  0  0  0  0  0  0
    8.2435  -14.9640   22.6331 C   0  0  0  0  0  0  0  0  0  0  0  0
    9.6605  -15.3793   22.8234 C   0  0  2  0  0  0  0  0  0  0  0  0
   10.0578  -16.4089   21.8716 N   0  0  0  0  0  0  0  0  0  0  0  0
    9.8367  -15.9367   24.2107 C   0  0  0  0  0  0  0  0  0  0  0  0
    9.2680  -15.3805   25.1864 O   0  0  0  0  0  0  0  0  0  0  0  0
    8.1553  -13.1992   20.8568 C   0  0  0  0  0  0  0  0  0  0  0  0
    7.8246  -12.7472   19.6011 C   0  0  0  0  0  0  0  0  0  0  0  0
   10.6307  -17.0777   24.4484 N   0  0  0  0  0  0  0  0  0  0  0  0
   10.7933  -17.8169   25.6675 C   0  0  1  0  0  0  0  0  0  0  0  0
   10.2996  -19.2494   25.5504 C   0  0  0  0  0  0  0  0  0  0  0  0
   10.5062  -19.9289   26.8647 C   0  0  0  0  0  0  0  0  0  0  0  0
   10.1216  -21.3813   26.7634 C   0  0  0  0  0  0  0  0  0  0  0  0
   10.1802  -22.0255   28.1083 C   0  0  0  0  0  0  0  0  0  0  0  0
    9.9837  -23.4683   27.9863 N   0  0  0  0  0  0  0  0  0  0  0  0
   12.1317  -17.7075   26.2542 C   0  0  0  0  0  0  0  0  0  0  0  0
   12.3186  -18.1965   27.3968 O   0  0  0  0  0  0  0  0  0  0  0  0
   13.2106  -17.0987   25.6317 O   0  0  0  0  0  0  0  0  0  0  0  0
  2  1  1  6
  3  2  1  0
  4  3  1  0
  5  4  2  0
  6  2  1  0
  6  7  2  0
  8  4  1  0
  9 10  1  0
 10 11  2  0
 11 12  1  0
 13 12  2  0
 13 14  1  0
 15 14  1  6
 15 16  1  0
 16  6  1  0
 17 15  1  0
 17 18  2  0
 19 13  1  0
 20 10  1  0
 20 19  2  0
 21 17  1  0
 22 21  1  0
 22 28  1  0
 22 23  1  6
 24 23  1  0
 25 24  1  0
 26 25  1  0
 27 26  1  0
 28 29  2  0
 28 30  1  0
M  END
$$$$
