DYK.pdb
     RDKit          3D

 30 30  0  0  1  0  0  0  0  0999 V2000
    9.5885  -18.4522   20.4120 N   0  0  0  0  0  0  0  0  0  0  0  0
   10.7671  -17.6716   20.7212 C   0  0  1  0  0  0  0  0  0  0  0  0
   11.2072  -16.9890   19.4587 C   0  0  0  0  0  0  0  0  0  0  0  0
   11.3513  -17.9983   18.3995 C   0  0  0  0  0  0  0  0  0  0  0  0
   11.2842  -17.6726   17.2016 O   0  0  0  0  0  0  0  0  0  0  0  0
   10.4588  -16.7463   21.8114 C   0  0  0  0  0  0  0  0  0  0  0  0
   11.3645  -15.9677   22.2720 O   0  0  0  0  0  0  0  0  0  0  0  0
   11.5624  -19.3159   18.7391 O   0  0  0  0  0  0  0  0  0  0  0  0
    7.5302  -12.5106   18.0483 O   0  0  0  0  0  0  0  0  0  0  0  0
    7.5817  -13.0756   19.3036 C   0  0  0  0  0  0  0  0  0  0  0  0
    6.9020  -14.2331   19.5459 C   0  0  0  0  0  0  0  0  0  0  0  0
    6.9391  -14.8246   20.8100 C   0  0  0  0  0  0  0  0  0  0  0  0
    7.6519  -14.2701   21.8440 C   0  0  0  0  0  0  0  0  0  0  0  0
    7.6859  -14.8883   23.1800 C   0  0  0  0  0  0  0  0  0  0  0  0
    8.8930  -15.7048   23.4847 C   0  0  2  0  0  0  0  0  0  0  0  0
    9.1988  -16.6438   22.4130 N   0  0  0  0  0  0  0  0  0  0  0  0
    8.6567  -16.4971   24.7428 C   0  0  0  0  0  0  0  0  0  0  0  0
    7.5915  -17.1541   24.8789 O   0  0  0  0  0  0  0  0  0  0  0  0
    8.3354  -13.0875   21.5637 C   0  0  0  0  0  0  0  0  0  0  0  0
    8.3092  -12.4926   20.3243 C   0  0  0  0  0  0  0  0  0  0  0  0
    9.6075  -16.5228   25.7840 N   0  0  0  0  0  0  0  0  0  0  0  0
   10.0271  -17.6365   26.5857 C   0  0  1  0  0  0  0  0  0  0  0  0
   10.4248  -18.8404   25.7477 C   0  0  0  0  0  0  0  0  0  0  0  0
   10.7477  -19.9710   26.6693 C   0  0  0  0  0  0  0  0  0  0  0  0
   11.2488  -21.1535   25.8830 C   0  0  0  0  0  0  0  0  0  0  0  0
   11.6048  -22.2723   26.8044 C   0  0  0  0  0  0  0  0  0  0  0  0
   12.2024  -23.3742   26.0536 N   0  0  0  0  0  0  0  0  0  0  0  0
   11.0125  -17.2903   27.6136 C   0  0  0  0  0  0  0  0  0  0  0  0
   10.8755  -17.7924   28.7576 O   0  0  0  0  0  0  0  0  0  0  0  0
   12.0905  -16.4429   27.4090 O   0  0  0  0  0  0  0  0  0  0  0  0
  2  1  1  6
  3  2  1  0
  4  3  1  0
  5  4  2  0
  6  2  1  0
  6  7  2  0
  8  4  1  0
  9 10  1  0
 10 11  2  0
 11 12  1  0
 13 12  2  0
 13 14  1  0
 15 14  1  6
 15 16  1  0
 16  6  1  0
 17 15  1  0
 17 18  2  0
 19 13  1  0
 20 10  1  0
 20 19  2  0
 21 17  1  0
 22 21  1  0
 22 28  1  0
 22 23  1  6
 24 23  1  0
 25 24  1  0
 26 25  1  0
 27 26  1  0
 28 29  2  0
 28 30  1  0
M  END
$$$$
