DYK.pdb
     RDKit          3D

 30 30  0  0  1  0  0  0  0  0999 V2000
   11.5221  -15.9847   23.2043 N   0  0  0  0  0  0  0  0  0  0  0  0
   11.4257  -17.2018   23.9812 C   0  0  1  0  0  0  0  0  0  0  0  0
   12.5436  -17.1940   24.9831 C   0  0  0  0  0  0  0  0  0  0  0  0
   13.8250  -17.1603   24.2634 C   0  0  0  0  0  0  0  0  0  0  0  0
   14.8880  -17.4264   24.8506 O   0  0  0  0  0  0  0  0  0  0  0  0
   10.0963  -17.2822   24.5861 C   0  0  0  0  0  0  0  0  0  0  0  0
    9.7475  -18.3259   25.2401 O   0  0  0  0  0  0  0  0  0  0  0  0
   13.8464  -16.8308   22.9266 O   0  0  0  0  0  0  0  0  0  0  0  0
   10.9845  -14.8893   30.6508 O   0  0  0  0  0  0  0  0  0  0  0  0
   10.1720  -14.9666   29.5413 C   0  0  0  0  0  0  0  0  0  0  0  0
   10.0814  -13.8960   28.7009 C   0  0  0  0  0  0  0  0  0  0  0  0
    9.2645  -13.9506   27.5700 C   0  0  0  0  0  0  0  0  0  0  0  0
    8.5306  -15.0700   27.2652 C   0  0  0  0  0  0  0  0  0  0  0  0
    7.6625  -15.1267   26.0771 C   0  0  0  0  0  0  0  0  0  0  0  0
    7.8557  -16.3069   25.1902 C   0  0  2  0  0  0  0  0  0  0  0  0
    9.1389  -16.2644   24.5007 N   0  0  0  0  0  0  0  0  0  0  0  0
    6.7695  -16.3331   24.1483 C   0  0  0  0  0  0  0  0  0  0  0  0
    5.5646  -16.2249   24.4963 O   0  0  0  0  0  0  0  0  0  0  0  0
    8.6453  -16.1467   28.1437 C   0  0  0  0  0  0  0  0  0  0  0  0
    9.4453  -16.1088   29.2614 C   0  0  0  0  0  0  0  0  0  0  0  0
    7.0696  -16.4775   22.7779 N   0  0  0  0  0  0  0  0  0  0  0  0
    6.1642  -16.5996   21.6713 C   0  0  1  0  0  0  0  0  0  0  0  0
    6.7752  -16.1239   20.3637 C   0  0  0  0  0  0  0  0  0  0  0  0
    7.3407  -14.7575   20.5763 C   0  0  0  0  0  0  0  0  0  0  0  0
    8.0009  -14.2678   19.3146 C   0  0  0  0  0  0  0  0  0  0  0  0
    8.6723  -12.9575   19.5589 C   0  0  0  0  0  0  0  0  0  0  0  0
    9.2916  -12.4701   18.3285 N   0  0  0  0  0  0  0  0  0  0  0  0
    5.5226  -17.9132   21.5713 C   0  0  0  0  0  0  0  0  0  0  0  0
    5.9963  -18.8567   22.2534 O   0  0  0  0  0  0  0  0  0  0  0  0
    4.4235  -18.1874   20.7719 O   0  0  0  0  0  0  0  0  0  0  0  0
  2  1  1  1
  3  2  1  0
  4  3  1  0
  5  4  2  0
  6  2  1  0
  6  7  2  0
  8  4  1  0
  9 10  1  0
 10 11  2  0
 11 12  1  0
 13 12  2  0
 13 14  1  0
 15 14  1  1
 15 16  1  0
 16  6  1  0
 17 15  1  0
 17 18  2  0
 19 13  1  0
 20 10  1  0
 20 19  2  0
 21 17  1  0
 22 21  1  0
 22 28  1  0
 22 23  1  6
 24 23  1  0
 25 24  1  0
 26 25  1  0
 27 26  1  0
 28 29  2  0
 28 30  1  0
M  END
$$$$
