DYK.pdb
     RDKit          3D

 30 30  0  0  1  0  0  0  0  0999 V2000
    9.5865  -17.5275   20.0234 N   0  0  0  0  0  0  0  0  0  0  0  0
   10.7270  -17.5335   20.9140 C   0  0  1  0  0  0  0  0  0  0  0  0
   11.9294  -17.1130   20.1196 C   0  0  0  0  0  0  0  0  0  0  0  0
   12.0562  -17.9940   18.9495 C   0  0  0  0  0  0  0  0  0  0  0  0
   11.8246  -19.2116   19.0459 O   0  0  0  0  0  0  0  0  0  0  0  0
   10.4479  -16.6667   22.0588 C   0  0  0  0  0  0  0  0  0  0  0  0
   11.3323  -16.4945   22.9680 O   0  0  0  0  0  0  0  0  0  0  0  0
   12.4353  -17.4641   17.7364 O   0  0  0  0  0  0  0  0  0  0  0  0
    6.1547  -11.2531   27.6998 O   0  0  0  0  0  0  0  0  0  0  0  0
    6.5557  -11.9834   26.6029 C   0  0  0  0  0  0  0  0  0  0  0  0
    5.9310  -13.1619   26.3175 C   0  0  0  0  0  0  0  0  0  0  0  0
    6.3197  -13.9196   25.2111 C   0  0  0  0  0  0  0  0  0  0  0  0
    7.3329  -13.5122   24.3793 C   0  0  0  0  0  0  0  0  0  0  0  0
    7.7495  -14.3137   23.2164 C   0  0  0  0  0  0  0  0  0  0  0  0
    8.9374  -15.1868   23.4243 C   0  0  2  0  0  0  0  0  0  0  0  0
    9.2393  -15.9845   22.2426 N   0  0  0  0  0  0  0  0  0  0  0  0
    8.6710  -16.1309   24.5662 C   0  0  0  0  0  0  0  0  0  0  0  0
    7.7306  -16.9638   24.4842 O   0  0  0  0  0  0  0  0  0  0  0  0
    7.9509  -12.3036   24.6983 C   0  0  0  0  0  0  0  0  0  0  0  0
    7.5798  -11.5457   25.7839 C   0  0  0  0  0  0  0  0  0  0  0  0
    9.4554  -16.1063   25.7379 N   0  0  0  0  0  0  0  0  0  0  0  0
    9.6630  -17.1521   26.6982 C   0  0  1  0  0  0  0  0  0  0  0  0
   10.0360  -18.4742   26.0481 C   0  0  0  0  0  0  0  0  0  0  0  0
   10.0737  -19.5270   27.1075 C   0  0  0  0  0  0  0  0  0  0  0  0
   10.4357  -20.8577   26.5027 C   0  0  0  0  0  0  0  0  0  0  0  0
   10.4566  -21.9145   27.5564 C   0  0  0  0  0  0  0  0  0  0  0  0
   10.7835  -23.2104   26.9657 N   0  0  0  0  0  0  0  0  0  0  0  0
   10.5480  -16.7758   27.8039 C   0  0  0  0  0  0  0  0  0  0  0  0
   10.2003  -17.0845   28.9716 O   0  0  0  0  0  0  0  0  0  0  0  0
   11.7482  -16.0993   27.6489 O   0  0  0  0  0  0  0  0  0  0  0  0
  2  1  1  6
  3  2  1  0
  4  3  1  0
  5  4  2  0
  6  2  1  0
  6  7  2  0
  8  4  1  0
  9 10  1  0
 10 11  2  0
 11 12  1  0
 13 12  2  0
 13 14  1  0
 15 14  1  6
 15 16  1  0
 16  6  1  0
 17 15  1  0
 17 18  2  0
 19 13  1  0
 20 10  1  0
 20 19  2  0
 21 17  1  0
 22 21  1  0
 22 28  1  0
 22 23  1  6
 24 23  1  0
 25 24  1  0
 26 25  1  0
 27 26  1  0
 28 29  2  0
 28 30  1  0
M  END
$$$$
