DYK.pdb
     RDKit          3D

 30 30  0  0  1  0  0  0  0  0999 V2000
    8.9809  -18.6287   20.2534 N   0  0  0  0  0  0  0  0  0  0  0  0
   10.3016  -18.0492   20.3713 C   0  0  1  0  0  0  0  0  0  0  0  0
   10.6389  -17.4091   19.0559 C   0  0  0  0  0  0  0  0  0  0  0  0
   10.9947  -18.4621   18.0937 C   0  0  0  0  0  0  0  0  0  0  0  0
   10.4074  -19.5577   18.1084 O   0  0  0  0  0  0  0  0  0  0  0  0
   10.3191  -17.1174   21.4987 C   0  0  0  0  0  0  0  0  0  0  0  0
   11.3729  -16.4385   21.7580 O   0  0  0  0  0  0  0  0  0  0  0  0
   11.9878  -18.2311   17.1683 O   0  0  0  0  0  0  0  0  0  0  0  0
    7.4666  -12.1746   18.5823 O   0  0  0  0  0  0  0  0  0  0  0  0
    7.6052  -12.8794   19.7576 C   0  0  0  0  0  0  0  0  0  0  0  0
    8.5668  -12.5095   20.6516 C   0  0  0  0  0  0  0  0  0  0  0  0
    8.7264  -13.2084   21.8496 C   0  0  0  0  0  0  0  0  0  0  0  0
    7.9315  -14.2812   22.1688 C   0  0  0  0  0  0  0  0  0  0  0  0
    8.1034  -15.0245   23.4284 C   0  0  0  0  0  0  0  0  0  0  0  0
    9.2515  -15.9715   23.4694 C   0  0  2  0  0  0  0  0  0  0  0  0
    9.2278  -16.9034   22.3491 N   0  0  0  0  0  0  0  0  0  0  0  0
    9.1932  -16.7738   24.7419 C   0  0  0  0  0  0  0  0  0  0  0  0
    8.0821  -17.0053   25.2864 O   0  0  0  0  0  0  0  0  0  0  0  0
    6.9585  -14.6337   21.2344 C   0  0  0  0  0  0  0  0  0  0  0  0
    6.7884  -13.9556   20.0504 C   0  0  0  0  0  0  0  0  0  0  0  0
   10.3633  -17.2780   25.3464 N   0  0  0  0  0  0  0  0  0  0  0  0
   10.4837  -18.0963   26.5190 C   0  0  1  0  0  0  0  0  0  0  0  0
   11.2562  -19.3786   26.2576 C   0  0  0  0  0  0  0  0  0  0  0  0
   10.5371  -20.1564   25.2040 C   0  0  0  0  0  0  0  0  0  0  0  0
   11.3220  -21.3903   24.8444 C   0  0  0  0  0  0  0  0  0  0  0  0
   10.7100  -22.0645   23.6619 C   0  0  0  0  0  0  0  0  0  0  0  0
   11.5216  -23.2104   23.2577 N   0  0  0  0  0  0  0  0  0  0  0  0
   10.9441  -17.3697   27.7054 C   0  0  0  0  0  0  0  0  0  0  0  0
   11.5856  -16.3026   27.5338 O   0  0  0  0  0  0  0  0  0  0  0  0
   10.7193  -17.7813   29.0101 O   0  0  0  0  0  0  0  0  0  0  0  0
  2  1  1  6
  3  2  1  0
  4  3  1  0
  5  4  2  0
  6  2  1  0
  6  7  2  0
  8  4  1  0
  9 10  1  0
 10 11  2  0
 11 12  1  0
 13 12  2  0
 13 14  1  0
 15 14  1  6
 15 16  1  0
 16  6  1  0
 17 15  1  0
 17 18  2  0
 19 13  1  0
 20 10  1  0
 20 19  2  0
 21 17  1  0
 22 21  1  0
 22 28  1  0
 22 23  1  6
 24 23  1  0
 25 24  1  0
 26 25  1  0
 27 26  1  0
 28 29  2  0
 28 30  1  0
M  END
$$$$
