DYK.pdb
     RDKit          3D

 30 30  0  0  1  0  0  0  0  0999 V2000
    9.1194  -18.9230   18.5253 N   0  0  0  0  0  0  0  0  0  0  0  0
   10.2636  -18.0465   18.3969 C   0  0  1  0  0  0  0  0  0  0  0  0
    9.9726  -17.0742   17.2908 C   0  0  0  0  0  0  0  0  0  0  0  0
    9.8695  -17.8138   16.0244 C   0  0  0  0  0  0  0  0  0  0  0  0
    9.9046  -19.0565   16.0126 O   0  0  0  0  0  0  0  0  0  0  0  0
   10.5265  -17.4069   19.6860 C   0  0  0  0  0  0  0  0  0  0  0  0
   11.5319  -16.6270   19.8257 O   0  0  0  0  0  0  0  0  0  0  0  0
    9.7329  -17.1224   14.8415 O   0  0  0  0  0  0  0  0  0  0  0  0
    7.0087  -11.9918   19.0182 O   0  0  0  0  0  0  0  0  0  0  0  0
    7.4390  -12.9874   19.8673 C   0  0  0  0  0  0  0  0  0  0  0  0
    6.7433  -14.1588   19.9336 C   0  0  0  0  0  0  0  0  0  0  0  0
    7.1599  -15.1826   20.7865 C   0  0  0  0  0  0  0  0  0  0  0  0
    8.2716  -15.0503   21.5810 C   0  0  0  0  0  0  0  0  0  0  0  0
    8.7082  -16.1259   22.4870 C   0  0  0  0  0  0  0  0  0  0  0  0
    9.9316  -16.8655   22.0712 C   0  0  2  0  0  0  0  0  0  0  0  0
    9.7307  -17.5904   20.8230 N   0  0  0  0  0  0  0  0  0  0  0  0
   10.2977  -17.8655   23.1352 C   0  0  0  0  0  0  0  0  0  0  0  0
    9.5493  -18.8547   23.3496 O   0  0  0  0  0  0  0  0  0  0  0  0
    8.9604  -13.8413   21.4898 C   0  0  0  0  0  0  0  0  0  0  0  0
    8.5633  -12.8237   20.6549 C   0  0  0  0  0  0  0  0  0  0  0  0
   11.4696  -17.7215   23.9064 N   0  0  0  0  0  0  0  0  0  0  0  0
   11.9426  -18.5491   24.9791 C   0  0  1  0  0  0  0  0  0  0  0  0
   13.4596  -18.6244   25.0312 C   0  0  0  0  0  0  0  0  0  0  0  0
   13.9651  -18.9186   23.6565 C   0  0  0  0  0  0  0  0  0  0  0  0
   15.4705  -18.9554   23.6548 C   0  0  0  0  0  0  0  0  0  0  0  0
   15.9799  -19.1628   22.2674 C   0  0  0  0  0  0  0  0  0  0  0  0
   17.4320  -19.0036   22.2334 N   0  0  0  0  0  0  0  0  0  0  0  0
   11.3287  -18.2491   26.2754 C   0  0  0  0  0  0  0  0  0  0  0  0
   10.8483  -17.1011   26.4512 O   0  0  0  0  0  0  0  0  0  0  0  0
   11.2415  -19.1496   27.3259 O   0  0  0  0  0  0  0  0  0  0  0  0
  2  1  1  1
  3  2  1  0
  4  3  1  0
  5  4  2  0
  6  2  1  0
  6  7  2  0
  8  4  1  0
  9 10  1  0
 10 11  2  0
 11 12  1  0
 13 12  2  0
 13 14  1  0
 15 14  1  1
 15 16  1  0
 16  6  1  0
 17 15  1  0
 17 18  2  0
 19 13  1  0
 20 10  1  0
 20 19  2  0
 21 17  1  0
 22 21  1  0
 22 28  1  0
 22 23  1  1
 24 23  1  0
 25 24  1  0
 26 25  1  0
 27 26  1  0
 28 29  2  0
 28 30  1  0
M  END
$$$$
