DYK.pdb
     RDKit          3D

 30 30  0  0  1  0  0  0  0  0999 V2000
    9.1941  -17.0080   20.4619 N   0  0  0  0  0  0  0  0  0  0  0  0
   10.6372  -16.9533   20.5542 C   0  0  1  0  0  0  0  0  0  0  0  0
   11.1340  -16.0838   19.4357 C   0  0  0  0  0  0  0  0  0  0  0  0
   10.8377  -16.7429   18.1555 C   0  0  0  0  0  0  0  0  0  0  0  0
    9.7367  -16.5826   17.6009 O   0  0  0  0  0  0  0  0  0  0  0  0
   11.0164  -16.4734   21.8829 C   0  0  0  0  0  0  0  0  0  0  0  0
   12.2349  -16.1750   22.1374 O   0  0  0  0  0  0  0  0  0  0  0  0
   11.7895  -17.5450   17.5665 O   0  0  0  0  0  0  0  0  0  0  0  0
   10.4163  -15.1553   30.6928 O   0  0  0  0  0  0  0  0  0  0  0  0
   10.1766  -15.2222   29.3381 C   0  0  0  0  0  0  0  0  0  0  0  0
    9.6480  -16.3618   28.8065 C   0  0  0  0  0  0  0  0  0  0  0  0
    9.3961  -16.4533   27.4363 C   0  0  0  0  0  0  0  0  0  0  0  0
    9.6680  -15.4129   26.5830 C   0  0  0  0  0  0  0  0  0  0  0  0
    9.4104  -15.5104   25.1364 C   0  0  0  0  0  0  0  0  0  0  0  0
   10.5198  -16.0724   24.3179 C   0  0  2  0  0  0  0  0  0  0  0  0
   10.1121  -16.3093   22.9390 N   0  0  0  0  0  0  0  0  0  0  0  0
   10.9583  -17.3874   24.9049 C   0  0  0  0  0  0  0  0  0  0  0  0
   10.1361  -18.3358   25.0014 O   0  0  0  0  0  0  0  0  0  0  0  0
   10.2075  -14.2626   27.1575 C   0  0  0  0  0  0  0  0  0  0  0  0
   10.4612  -14.1565   28.5047 C   0  0  0  0  0  0  0  0  0  0  0  0
   12.2801  -17.5868   25.3544 N   0  0  0  0  0  0  0  0  0  0  0  0
   12.8305  -18.7200   26.0415 C   0  0  1  0  0  0  0  0  0  0  0  0
   13.8621  -19.4619   25.2078 C   0  0  0  0  0  0  0  0  0  0  0  0
   13.3901  -19.4928   23.7907 C   0  0  0  0  0  0  0  0  0  0  0  0
   14.1943  -20.4893   22.9983 C   0  0  0  0  0  0  0  0  0  0  0  0
   14.7765  -19.8372   21.7887 C   0  0  0  0  0  0  0  0  0  0  0  0
   15.6179  -20.7839   21.0600 N   0  0  0  0  0  0  0  0  0  0  0  0
   13.2838  -18.4257   27.4035 C   0  0  0  0  0  0  0  0  0  0  0  0
   13.6189  -19.3899   28.1369 O   0  0  0  0  0  0  0  0  0  0  0  0
   13.3686  -17.1504   27.9407 O   0  0  0  0  0  0  0  0  0  0  0  0
  2  1  1  1
  3  2  1  0
  4  3  1  0
  5  4  2  0
  6  2  1  0
  6  7  2  0
  8  4  1  0
  9 10  1  0
 10 11  2  0
 11 12  1  0
 13 12  2  0
 13 14  1  0
 15 14  1  1
 15 16  1  0
 16  6  1  0
 17 15  1  0
 17 18  2  0
 19 13  1  0
 20 10  1  0
 20 19  2  0
 21 17  1  0
 22 21  1  0
 22 28  1  0
 22 23  1  6
 24 23  1  0
 25 24  1  0
 26 25  1  0
 27 26  1  0
 28 29  2  0
 28 30  1  0
M  END
$$$$
