DYK.pdb
     RDKit          3D

 30 30  0  0  1  0  0  0  0  0999 V2000
   10.5374  -17.3214   19.3032 N   0  0  0  0  0  0  0  0  0  0  0  0
    9.3159  -17.5078   20.0563 C   0  0  1  0  0  0  0  0  0  0  0  0
    9.1484  -18.9799   20.2981 C   0  0  0  0  0  0  0  0  0  0  0  0
    8.8120  -19.6342   19.0253 C   0  0  0  0  0  0  0  0  0  0  0  0
    8.7035  -18.9687   17.9808 O   0  0  0  0  0  0  0  0  0  0  0  0
    9.3822  -16.7155   21.2840 C   0  0  0  0  0  0  0  0  0  0  0  0
   10.4982  -16.5591   21.8912 O   0  0  0  0  0  0  0  0  0  0  0  0
    8.6155  -20.9966   18.9914 O   0  0  0  0  0  0  0  0  0  0  0  0
    7.0525  -11.2832   27.9581 O   0  0  0  0  0  0  0  0  0  0  0  0
    7.0953  -12.0245   26.7980 C   0  0  0  0  0  0  0  0  0  0  0  0
    6.3106  -13.1342   26.6824 C   0  0  0  0  0  0  0  0  0  0  0  0
    6.3367  -13.9015   25.5163 C   0  0  0  0  0  0  0  0  0  0  0  0
    7.1434  -13.5723   24.4554 C   0  0  0  0  0  0  0  0  0  0  0  0
    7.1781  -14.3847   23.2278 C   0  0  0  0  0  0  0  0  0  0  0  0
    8.3494  -15.2927   23.0855 C   0  0  2  0  0  0  0  0  0  0  0  0
    8.2740  -16.0907   21.8684 N   0  0  0  0  0  0  0  0  0  0  0  0
    8.3961  -16.2366   24.2573 C   0  0  0  0  0  0  0  0  0  0  0  0
    7.4238  -17.0035   24.4834 O   0  0  0  0  0  0  0  0  0  0  0  0
    7.9329  -12.4327   24.6052 C   0  0  0  0  0  0  0  0  0  0  0  0
    7.9186  -11.6664   25.7468 C   0  0  0  0  0  0  0  0  0  0  0  0
    9.5124  -16.2844   25.1178 N   0  0  0  0  0  0  0  0  0  0  0  0
    9.7335  -17.1372   26.2505 C   0  0  1  0  0  0  0  0  0  0  0  0
   10.7867  -18.1997   25.9828 C   0  0  0  0  0  0  0  0  0  0  0  0
   10.2562  -19.1408   24.9509 C   0  0  0  0  0  0  0  0  0  0  0  0
   11.3015  -20.1656   24.5980 C   0  0  0  0  0  0  0  0  0  0  0  0
   10.7540  -21.1420   23.6109 C   0  0  0  0  0  0  0  0  0  0  0  0
   11.7779  -22.1180   23.2447 N   0  0  0  0  0  0  0  0  0  0  0  0
    9.9421  -16.4130   27.5072 C   0  0  0  0  0  0  0  0  0  0  0  0
   10.4049  -15.2459   27.4479 O   0  0  0  0  0  0  0  0  0  0  0  0
    9.6624  -16.9299   28.7629 O   0  0  0  0  0  0  0  0  0  0  0  0
  2  1  1  1
  3  2  1  0
  4  3  1  0
  5  4  2  0
  6  2  1  0
  6  7  2  0
  8  4  1  0
  9 10  1  0
 10 11  2  0
 11 12  1  0
 13 12  2  0
 13 14  1  0
 15 14  1  1
 15 16  1  0
 16  6  1  0
 17 15  1  0
 17 18  2  0
 19 13  1  0
 20 10  1  0
 20 19  2  0
 21 17  1  0
 22 21  1  0
 22 28  1  0
 22 23  1  6
 24 23  1  0
 25 24  1  0
 26 25  1  0
 27 26  1  0
 28 29  2  0
 28 30  1  0
M  END
$$$$
