RKV.pdb
     RDKit          3D

 28 27  0  0  1  0  0  0  0  0999 V2000
   24.1806  -10.0574  -15.3525 N   0  0  0  0  0  0  0  0  0  0  0  0
   23.3548   -8.9902  -15.7636 C   0  0  0  0  0  0  0  0  0  0  0  0
   23.6610   -8.2149  -16.7616 N   0  0  0  0  0  0  0  0  0  0  0  0
   22.1135   -8.6883  -15.0991 N   0  0  0  0  0  0  0  0  0  0  0  0
   21.4528   -9.5338  -14.1813 C   0  0  0  0  0  0  0  0  0  0  0  0
   20.1339   -9.1392  -13.6452 C   0  0  0  0  0  0  0  0  0  0  0  0
   19.5517  -10.0710  -12.6415 C   0  0  0  0  0  0  0  0  0  0  0  0
   18.2853  -10.6985  -13.1316 C   0  0  2  0  0  0  0  0  0  0  0  0
   18.2490  -10.5011  -14.5825 N   0  0  0  0  0  0  0  0  0  0  0  0
   17.1640   -9.8723  -12.5214 C   0  0  0  0  0  0  0  0  0  0  0  0
   16.8235   -8.7704  -13.0121 O   0  0  0  0  0  0  0  0  0  0  0  0
   22.9658   -7.4745  -17.0200 N   0  0  0  0  0  0  0  0  0  0  0  0
   16.4796  -10.3423  -11.3769 C   0  0  1  0  0  0  0  0  0  0  0  0
   15.3725   -9.5274  -10.8263 C   0  0  0  0  0  0  0  0  0  0  0  0
   14.4217  -10.4518  -10.0991 C   0  0  0  0  0  0  0  0  0  0  0  0
   13.2903  -10.8698  -10.9573 C   0  0  0  0  0  0  0  0  0  0  0  0
   12.3634  -11.8572  -10.2683 C   0  0  0  0  0  0  0  0  0  0  0  0
   11.2504  -12.3066  -11.1737 N   0  0  0  0  0  0  0  0  0  0  0  0
   10.4915  -13.3255  -10.4713 C   0  0  0  0  0  0  0  0  0  0  0  0
   16.0205   -8.5244   -9.9672 O   0  0  0  0  0  0  0  0  0  0  0  0
   17.0434   -8.7973   -9.3067 C   0  0  0  0  0  0  0  0  0  0  0  0
   16.3745   -4.5461  -10.7094 C   0  0  2  0  0  0  0  0  0  0  0  0
   17.0605   -5.2609   -9.5676 C   0  0  0  0  0  0  0  0  0  0  0  0
   17.3747   -4.2058   -8.5257 C   0  0  1  0  0  0  0  0  0  0  0  0
   16.1602   -6.2625   -8.9497 N   0  0  0  0  0  0  0  0  0  0  0  0
   15.5388   -7.1945   -9.8284 C   0  0  0  0  0  0  0  0  0  0  0  0
   15.0729   -5.5417   -8.2226 O   0  0  0  0  0  0  0  0  0  0  0  0
   15.2907   -4.7835   -7.0819 O   0  0  0  0  0  0  0  0  0  0  0  0
  2  1  1  0
  3  2  2  0
  4  2  1  0
  5  4  1  0
  6  7  1  0
  6  5  1  0
  7  8  1  0
  8  9  1  6
 10  8  1  0
 10 11  2  0
 12 10  1  0
 13 12  1  0
 13 14  1  6
 15 14  1  0
 16 15  1  0
 17 16  1  0
 18 17  1  0
 19 13  1  0
 20 19  2  0
 22 23  1  1
 22 21  1  0
 24 22  1  0
 24 25  1  6
 25 19  1  0
 26 27  1  0
 26 24  1  0
 28 26  2  0
M  END
$$$$
