RKV.pdb
     RDKit          3D

 28 27  0  0  1  0  0  0  0  0999 V2000
   25.5438  -15.0922  -14.7584 N   0  0  0  0  0  0  0  0  0  0  0  0
   25.2215  -15.6692  -16.0046 C   0  0  0  0  0  0  0  0  0  0  0  0
   25.5318  -16.8953  -16.3075 N   0  0  0  0  0  0  0  0  0  0  0  0
   24.5259  -14.9326  -17.0278 N   0  0  0  0  0  0  0  0  0  0  0  0
   23.9143  -13.6719  -16.8524 C   0  0  0  0  0  0  0  0  0  0  0  0
   22.5195  -13.4702  -17.2953 C   0  0  0  0  0  0  0  0  0  0  0  0
   21.9390  -12.1371  -16.9781 C   0  0  0  0  0  0  0  0  0  0  0  0
   20.4712  -12.0858  -17.2626 C   0  0  2  0  0  0  0  0  0  0  0  0
   20.2868  -12.5868  -18.6266 N   0  0  0  0  0  0  0  0  0  0  0  0
   20.1112  -10.6084  -17.2568 C   0  0  0  0  0  0  0  0  0  0  0  0
   20.6536   -9.8012  -18.0473 O   0  0  0  0  0  0  0  0  0  0  0  0
   25.2073  -17.2526  -17.2377 N   0  0  0  0  0  0  0  0  0  0  0  0
   19.1456  -10.1180  -16.3479 C   0  0  1  0  0  0  0  0  0  0  0  0
   18.7236   -8.7026  -16.4543 C   0  0  0  0  0  0  0  0  0  0  0  0
   17.2222   -8.6428  -16.2824 C   0  0  0  0  0  0  0  0  0  0  0  0
   16.5080   -9.2105  -17.4480 C   0  0  0  0  0  0  0  0  0  0  0  0
   14.9993   -9.0647  -17.3410 C   0  0  0  0  0  0  0  0  0  0  0  0
   14.2949   -9.6304  -18.5428 N   0  0  0  0  0  0  0  0  0  0  0  0
   12.8661   -9.4973  -18.3227 C   0  0  0  0  0  0  0  0  0  0  0  0
   19.4830   -7.9932  -15.4131 O   0  0  0  0  0  0  0  0  0  0  0  0
   19.5446   -8.4262  -14.2444 C   0  0  0  0  0  0  0  0  0  0  0  0
   22.9547   -7.5526  -14.8025 C   0  0  2  0  0  0  0  0  0  0  0  0
   22.4139   -6.1411  -14.7832 C   0  0  0  0  0  0  0  0  0  0  0  0
   22.7499   -5.5327  -16.1302 C   0  0  2  0  0  0  0  0  0  0  0  0
   20.9398   -6.1384  -14.6330 N   0  0  0  0  0  0  0  0  0  0  0  0
   20.1899   -6.7845  -15.6564 C   0  0  0  0  0  0  0  0  0  0  0  0
   20.4705   -4.7223  -14.5625 O   0  0  0  0  0  0  0  0  0  0  0  0
   20.8549   -3.8403  -13.5638 O   0  0  0  0  0  0  0  0  0  0  0  0
  2  1  1  0
  3  2  2  0
  4  2  1  0
  5  4  1  0
  6  7  1  0
  6  5  1  0
  7  8  1  0
  8  9  1  6
 10  8  1  0
 10 11  2  0
 12 10  1  0
 13 12  1  0
 13 14  1  6
 15 14  1  0
 16 15  1  0
 17 16  1  0
 18 17  1  0
 19 13  1  0
 20 19  2  0
 22 23  1  6
 22 21  1  0
 24 22  1  0
 24 25  1  1
 25 19  1  0
 26 27  1  0
 26 24  1  0
 28 26  2  0
M  END
$$$$
