RKV.pdb
     RDKit          3D

 28 27  0  0  1  0  0  0  0  0999 V2000
   21.4889  -16.6271  -21.4377 N   0  0  0  0  0  0  0  0  0  0  0  0
   22.4645  -15.6892  -21.8355 C   0  0  0  0  0  0  0  0  0  0  0  0
   22.2915  -14.8870  -22.8443 N   0  0  0  0  0  0  0  0  0  0  0  0
   23.7227  -15.5607  -21.1470 N   0  0  0  0  0  0  0  0  0  0  0  0
   24.1403  -16.3538  -20.0559 C   0  0  0  0  0  0  0  0  0  0  0  0
   23.2963  -16.4317  -18.8458 C   0  0  0  0  0  0  0  0  0  0  0  0
   23.1300  -17.7957  -18.2744 C   0  0  0  0  0  0  0  0  0  0  0  0
   24.4421  -18.4041  -17.8921 C   0  0  2  0  0  0  0  0  0  0  0  0
   24.8498  -19.2648  -19.0049 N   0  0  0  0  0  0  0  0  0  0  0  0
   24.1395  -19.2976  -16.6994 C   0  0  0  0  0  0  0  0  0  0  0  0
   23.4416  -20.3318  -16.8189 O   0  0  0  0  0  0  0  0  0  0  0  0
   23.0748  -14.2277  -23.0681 N   0  0  0  0  0  0  0  0  0  0  0  0
   24.6490  -18.9706  -15.4217 C   0  0  1  0  0  0  0  0  0  0  0  0
   24.4028  -19.9034  -14.2983 C   0  0  0  0  0  0  0  0  0  0  0  0
   25.2720  -19.4818  -13.1347 C   0  0  0  0  0  0  0  0  0  0  0  0
   25.0707  -20.3469  -11.9506 C   0  0  0  0  0  0  0  0  0  0  0  0
   26.2333  -21.2954  -11.7111 C   0  0  0  0  0  0  0  0  0  0  0  0
   25.9734  -22.2196  -10.5540 N   0  0  0  0  0  0  0  0  0  0  0  0
   27.1483  -23.0546  -10.3809 C   0  0  0  0  0  0  0  0  0  0  0  0
   22.9573  -19.8220  -14.0375 O   0  0  0  0  0  0  0  0  0  0  0  0
   22.3671  -18.7239  -13.9843 C   0  0  0  0  0  0  0  0  0  0  0  0
   19.8953  -20.3655  -15.6640 C   0  0  2  0  0  0  0  0  0  0  0  0
   19.7474  -21.2015  -14.4132 C   0  0  0  0  0  0  0  0  0  0  0  0
   19.9640  -22.6426  -14.8300 C   0  0  2  0  0  0  0  0  0  0  0  0
   20.7843  -20.8517  -13.4141 N   0  0  0  0  0  0  0  0  0  0  0  0
   22.1408  -20.9667  -13.8308 C   0  0  0  0  0  0  0  0  0  0  0  0
   20.6090  -21.7289  -12.2183 O   0  0  0  0  0  0  0  0  0  0  0  0
   21.5702  -22.6306  -11.7863 O   0  0  0  0  0  0  0  0  0  0  0  0
  2  1  1  0
  3  2  2  0
  4  2  1  0
  5  4  1  0
  6  7  1  0
  6  5  1  0
  7  8  1  0
  8  9  1  6
 10  8  1  0
 10 11  2  0
 12 10  1  0
 13 12  1  0
 13 14  1  6
 15 14  1  0
 16 15  1  0
 17 16  1  0
 18 17  1  0
 19 13  1  0
 20 19  2  0
 22 23  1  6
 22 21  1  0
 24 22  1  0
 24 25  1  1
 25 19  1  0
 26 27  1  0
 26 24  1  0
 28 26  2  0
M  END
$$$$
