RKV.pdb
     RDKit          3D

 28 27  0  0  1  0  0  0  0  0999 V2000
   16.4495  -16.9117  -16.0903 N   0  0  0  0  0  0  0  0  0  0  0  0
   16.1490  -17.1523  -17.4474 C   0  0  0  0  0  0  0  0  0  0  0  0
   15.5572  -18.2382  -17.8495 N   0  0  0  0  0  0  0  0  0  0  0  0
   16.4822  -16.2061  -18.4804 N   0  0  0  0  0  0  0  0  0  0  0  0
   17.2106  -15.0117  -18.2887 C   0  0  0  0  0  0  0  0  0  0  0  0
   18.1944  -14.5862  -19.3053 C   0  0  0  0  0  0  0  0  0  0  0  0
   18.9331  -13.3337  -18.9891 C   0  0  0  0  0  0  0  0  0  0  0  0
   20.0141  -13.0569  -19.9855 C   0  0  2  0  0  0  0  0  0  0  0  0
   20.8317  -14.2693  -20.0706 N   0  0  0  0  0  0  0  0  0  0  0  0
   20.8667  -11.9634  -19.3615 C   0  0  0  0  0  0  0  0  0  0  0  0
   21.9188  -12.2329  -18.7358 O   0  0  0  0  0  0  0  0  0  0  0  0
   15.4054  -18.3435  -18.8811 N   0  0  0  0  0  0  0  0  0  0  0  0
   20.4801  -10.6086  -19.4808 C   0  0  2  0  0  0  0  0  0  0  0  0
   21.3675   -9.5643  -18.9196 C   0  0  0  0  0  0  0  0  0  0  0  0
   21.2463   -8.3278  -19.7821 C   0  0  0  0  0  0  0  0  0  0  0  0
   22.1432   -7.2428  -19.3242 C   0  0  0  0  0  0  0  0  0  0  0  0
   21.5838   -5.8589  -19.6078 C   0  0  0  0  0  0  0  0  0  0  0  0
   22.5274   -4.7727  -19.1712 N   0  0  0  0  0  0  0  0  0  0  0  0
   21.9530   -3.5002  -19.5692 C   0  0  0  0  0  0  0  0  0  0  0  0
   20.9199   -9.3820  -17.5302 O   0  0  0  0  0  0  0  0  0  0  0  0
   19.7085   -9.2957  -17.2434 C   0  0  0  0  0  0  0  0  0  0  0  0
   21.3734  -11.6030  -14.6476 C   0  0  2  0  0  0  0  0  0  0  0  0
   21.7701  -10.2339  -14.1439 C   0  0  0  0  0  0  0  0  0  0  0  0
   23.2840  -10.2239  -14.0706 C   0  0  2  0  0  0  0  0  0  0  0  0
   21.3493   -9.1760  -15.0921 N   0  0  0  0  0  0  0  0  0  0  0  0
   21.8172   -9.2925  -16.4317 C   0  0  0  0  0  0  0  0  0  0  0  0
   21.8141   -7.8561  -14.5705 O   0  0  0  0  0  0  0  0  0  0  0  0
   21.3433   -7.2921  -13.3942 O   0  0  0  0  0  0  0  0  0  0  0  0
  2  1  1  0
  3  2  2  0
  4  2  1  0
  5  4  1  0
  6  7  1  0
  6  5  1  0
  7  8  1  0
  8  9  1  1
 10  8  1  0
 10 11  2  0
 12 10  1  0
 13 12  1  0
 13 14  1  6
 15 14  1  0
 16 15  1  0
 17 16  1  0
 18 17  1  0
 19 13  1  0
 20 19  2  0
 22 23  1  6
 22 21  1  0
 24 22  1  0
 24 25  1  1
 25 19  1  0
 26 27  1  0
 26 24  1  0
 28 26  2  0
M  END
$$$$
