RKV.pdb
     RDKit          3D

 28 27  0  0  1  0  0  0  0  0999 V2000
   31.9239  -25.7116  -15.5504 N   0  0  0  0  0  0  0  0  0  0  0  0
   32.1241  -25.8038  -16.9437 C   0  0  0  0  0  0  0  0  0  0  0  0
   32.7141  -26.8214  -17.4984 N   0  0  0  0  0  0  0  0  0  0  0  0
   31.6873  -24.7701  -17.8459 N   0  0  0  0  0  0  0  0  0  0  0  0
   31.0496  -23.5696  -17.4635 C   0  0  0  0  0  0  0  0  0  0  0  0
   29.9879  -23.6027  -16.4368 C   0  0  0  0  0  0  0  0  0  0  0  0
   29.3766  -22.2852  -16.1127 C   0  0  0  0  0  0  0  0  0  0  0  0
   28.4045  -21.8480  -17.1624 C   0  0  2  0  0  0  0  0  0  0  0  0
   29.1270  -20.9400  -18.0563 N   0  0  0  0  0  0  0  0  0  0  0  0
   27.3529  -21.0349  -16.4239 C   0  0  0  0  0  0  0  0  0  0  0  0
   27.5520  -19.8366  -16.1154 O   0  0  0  0  0  0  0  0  0  0  0  0
   32.8694  -26.7753  -18.5338 N   0  0  0  0  0  0  0  0  0  0  0  0
   26.1184  -21.6270  -16.0711 C   0  0  2  0  0  0  0  0  0  0  0  0
   25.0853  -20.7852  -15.4253 C   0  0  0  0  0  0  0  0  0  0  0  0
   23.8162  -20.8849  -16.2419 C   0  0  0  0  0  0  0  0  0  0  0  0
   22.6707  -20.2338  -15.5674 C   0  0  0  0  0  0  0  0  0  0  0  0
   21.3586  -20.4420  -16.3048 C   0  0  0  0  0  0  0  0  0  0  0  0
   20.2296  -19.6825  -15.6652 N   0  0  0  0  0  0  0  0  0  0  0  0
   19.0685  -19.8042  -16.5281 C   0  0  0  0  0  0  0  0  0  0  0  0
   24.9669  -21.3025  -14.0533 O   0  0  0  0  0  0  0  0  0  0  0  0
   24.9857  -22.5275  -13.8164 C   0  0  0  0  0  0  0  0  0  0  0  0
   25.8218  -19.0621  -10.5091 C   0  0  2  0  0  0  0  0  0  0  0  0
   25.7845  -20.5678  -10.6384 C   0  0  0  0  0  0  0  0  0  0  0  0
   25.4143  -21.1085   -9.2716 C   0  0  1  0  0  0  0  0  0  0  0  0
   24.7397  -20.9934  -11.5989 N   0  0  0  0  0  0  0  0  0  0  0  0
   24.8251  -20.4612  -12.9167 C   0  0  0  0  0  0  0  0  0  0  0  0
   23.4040  -20.6127  -11.0498 O   0  0  0  0  0  0  0  0  0  0  0  0
   22.8760  -21.1517   -9.8862 O   0  0  0  0  0  0  0  0  0  0  0  0
  2  1  1  0
  3  2  2  0
  4  2  1  0
  5  4  1  0
  6  7  1  0
  6  5  1  0
  7  8  1  0
  8  9  1  6
 10  8  1  0
 10 11  2  0
 12 10  1  0
 13 12  1  0
 13 14  1  6
 15 14  1  0
 16 15  1  0
 17 16  1  0
 18 17  1  0
 19 13  1  0
 20 19  2  0
 22 23  1  1
 22 21  1  0
 24 22  1  0
 24 25  1  6
 25 19  1  0
 26 27  1  0
 26 24  1  0
 28 26  2  0
M  END
$$$$
