RKV.pdb
     RDKit          3D

 28 27  0  0  1  0  0  0  0  0999 V2000
   24.3374  -18.7678  -21.8821 N   0  0  0  0  0  0  0  0  0  0  0  0
   24.9971  -17.6765  -21.2792 C   0  0  0  0  0  0  0  0  0  0  0  0
   24.7458  -16.4426  -21.6041 N   0  0  0  0  0  0  0  0  0  0  0  0
   25.9983  -17.8601  -20.2607 N   0  0  0  0  0  0  0  0  0  0  0  0
   26.3738  -19.1005  -19.7001 C   0  0  0  0  0  0  0  0  0  0  0  0
   25.3300  -20.0717  -19.3131 C   0  0  0  0  0  0  0  0  0  0  0  0
   24.8908  -19.9999  -17.8931 C   0  0  0  0  0  0  0  0  0  0  0  0
   25.9667  -20.4441  -16.9533 C   0  0  2  0  0  0  0  0  0  0  0  0
   26.5976  -21.6199  -17.5576 N   0  0  0  0  0  0  0  0  0  0  0  0
   25.2412  -20.8994  -15.6968 C   0  0  0  0  0  0  0  0  0  0  0  0
   24.2594  -21.6763  -15.7551 O   0  0  0  0  0  0  0  0  0  0  0  0
   25.3122  -15.7002  -21.1284 N   0  0  0  0  0  0  0  0  0  0  0  0
   25.6704  -20.4475  -14.4278 C   0  0  2  0  0  0  0  0  0  0  0  0
   24.9442  -20.9138  -13.2244 C   0  0  0  0  0  0  0  0  0  0  0  0
   25.7624  -20.5461  -12.0067 C   0  0  0  0  0  0  0  0  0  0  0  0
   25.1222  -20.9996  -10.7514 C   0  0  0  0  0  0  0  0  0  0  0  0
   25.8961  -20.5813   -9.5125 C   0  0  0  0  0  0  0  0  0  0  0  0
   25.2598  -21.0996   -8.2527 N   0  0  0  0  0  0  0  0  0  0  0  0
   26.0716  -20.6595   -7.1325 C   0  0  0  0  0  0  0  0  0  0  0  0
   23.6271  -20.2620  -13.2906 O   0  0  0  0  0  0  0  0  0  0  0  0
   23.5192  -19.0239  -13.4028 C   0  0  0  0  0  0  0  0  0  0  0  0
   20.8965  -19.9629  -15.5929 C   0  0  2  0  0  0  0  0  0  0  0  0
   20.2428  -20.4683  -14.3270 C   0  0  0  0  0  0  0  0  0  0  0  0
   19.9924  -21.9489  -14.5330 C   0  0  2  0  0  0  0  0  0  0  0  0
   21.1467  -20.3131  -13.1632 N   0  0  0  0  0  0  0  0  0  0  0  0
   22.4023  -20.9807  -13.2331 C   0  0  0  0  0  0  0  0  0  0  0  0
   20.4436  -20.8120  -11.9437 O   0  0  0  0  0  0  0  0  0  0  0  0
   19.3009  -20.2204  -11.4266 O   0  0  0  0  0  0  0  0  0  0  0  0
  2  1  1  0
  3  2  2  0
  4  2  1  0
  5  4  1  0
  6  7  1  0
  6  5  1  0
  7  8  1  0
  8  9  1  6
 10  8  1  0
 10 11  2  0
 12 10  1  0
 13 12  1  0
 13 14  1  6
 15 14  1  0
 16 15  1  0
 17 16  1  0
 18 17  1  0
 19 13  1  0
 20 19  2  0
 22 23  1  6
 22 21  1  0
 24 22  1  0
 24 25  1  1
 25 19  1  0
 26 27  1  0
 26 24  1  0
 28 26  2  0
M  END
$$$$
