RKV.pdb
     RDKit          3D

 28 27  0  0  1  0  0  0  0  0999 V2000
   28.8675  -18.1838  -16.8805 N   0  0  0  0  0  0  0  0  0  0  0  0
   27.5067  -18.2623  -17.2436 C   0  0  0  0  0  0  0  0  0  0  0  0
   27.1220  -18.5180  -18.4592 N   0  0  0  0  0  0  0  0  0  0  0  0
   26.4503  -18.0613  -16.2859 N   0  0  0  0  0  0  0  0  0  0  0  0
   26.6096  -18.0642  -14.8829 C   0  0  0  0  0  0  0  0  0  0  0  0
   26.4674  -19.3305  -14.1354 C   0  0  0  0  0  0  0  0  0  0  0  0
   26.6900  -19.2299  -12.6674 C   0  0  0  0  0  0  0  0  0  0  0  0
   26.5172  -20.5500  -11.9853 C   0  0  2  0  0  0  0  0  0  0  0  0
   27.3135  -21.5225  -12.7374 N   0  0  0  0  0  0  0  0  0  0  0  0
   25.0508  -20.9087  -12.1677 C   0  0  0  0  0  0  0  0  0  0  0  0
   24.6501  -21.5208  -13.1854 O   0  0  0  0  0  0  0  0  0  0  0  0
   26.0902  -18.5165  -18.6423 N   0  0  0  0  0  0  0  0  0  0  0  0
   24.1059  -20.5530  -11.1779 C   0  0  2  0  0  0  0  0  0  0  0  0
   22.7726  -21.1967  -11.2041 C   0  0  0  0  0  0  0  0  0  0  0  0
   22.3071  -21.3779   -9.7766 C   0  0  0  0  0  0  0  0  0  0  0  0
   20.9810  -22.0318   -9.7050 C   0  0  0  0  0  0  0  0  0  0  0  0
   20.4783  -22.1867   -8.2795 C   0  0  0  0  0  0  0  0  0  0  0  0
   19.0882  -22.7578   -8.2345 N   0  0  0  0  0  0  0  0  0  0  0  0
   18.7258  -22.9328   -6.8396 C   0  0  0  0  0  0  0  0  0  0  0  0
   21.9270  -20.3023  -12.0098 O   0  0  0  0  0  0  0  0  0  0  0  0
   21.9437  -19.0659  -11.8420 C   0  0  0  0  0  0  0  0  0  0  0  0
   19.5199  -18.9801  -15.9807 C   0  0  2  0  0  0  0  0  0  0  0  0
   20.3498  -20.0293  -15.2765 C   0  0  0  0  0  0  0  0  0  0  0  0
   21.7881  -19.7901  -15.6906 C   0  0  1  0  0  0  0  0  0  0  0  0
   20.2640  -19.8759  -13.8053 N   0  0  0  0  0  0  0  0  0  0  0  0
   21.0449  -20.7712  -13.0207 C   0  0  0  0  0  0  0  0  0  0  0  0
   18.8393  -20.0458  -13.3907 O   0  0  0  0  0  0  0  0  0  0  0  0
   17.9915  -18.9820  -13.1206 O   0  0  0  0  0  0  0  0  0  0  0  0
  2  1  1  0
  3  2  2  0
  4  2  1  0
  5  4  1  0
  6  7  1  0
  6  5  1  0
  7  8  1  0
  8  9  1  6
 10  8  1  0
 10 11  2  0
 12 10  1  0
 13 12  1  0
 13 14  1  1
 15 14  1  0
 16 15  1  0
 17 16  1  0
 18 17  1  0
 19 13  1  0
 20 19  2  0
 22 23  1  6
 22 21  1  0
 24 22  1  0
 24 25  1  6
 25 19  1  0
 26 27  1  0
 26 24  1  0
 28 26  2  0
M  END
$$$$
