RKV.pdb
     RDKit          3D

 28 27  0  0  1  0  0  0  0  0999 V2000
   15.9021  -25.2053  -10.0101 N   0  0  0  0  0  0  0  0  0  0  0  0
   17.1828  -25.7959  -10.0308 C   0  0  0  0  0  0  0  0  0  0  0  0
   17.3578  -27.0801  -10.1378 N   0  0  0  0  0  0  0  0  0  0  0  0
   18.3855  -25.0102   -9.9325 N   0  0  0  0  0  0  0  0  0  0  0  0
   18.6686  -23.8535  -10.6913 C   0  0  0  0  0  0  0  0  0  0  0  0
   18.7775  -23.9542  -12.1612 C   0  0  0  0  0  0  0  0  0  0  0  0
   19.1240  -22.6872  -12.8606 C   0  0  0  0  0  0  0  0  0  0  0  0
   20.2659  -21.9805  -12.2014 C   0  0  2  0  0  0  0  0  0  0  0  0
   19.6959  -20.8490  -11.4664 N   0  0  0  0  0  0  0  0  0  0  0  0
   21.1045  -21.4209  -13.3399 C   0  0  0  0  0  0  0  0  0  0  0  0
   20.9319  -20.2549  -13.7659 O   0  0  0  0  0  0  0  0  0  0  0  0
   18.3469  -27.4260  -10.1553 N   0  0  0  0  0  0  0  0  0  0  0  0
   22.1050  -22.2185  -13.9413 C   0  0  2  0  0  0  0  0  0  0  0  0
   22.9448  -21.6224  -15.0054 C   0  0  0  0  0  0  0  0  0  0  0  0
   24.3220  -22.2420  -14.9233 C   0  0  0  0  0  0  0  0  0  0  0  0
   25.2043  -21.7784  -16.0178 C   0  0  0  0  0  0  0  0  0  0  0  0
   26.5673  -22.4498  -15.9983 C   0  0  0  0  0  0  0  0  0  0  0  0
   27.4231  -22.0142  -17.1553 N   0  0  0  0  0  0  0  0  0  0  0  0
   28.7199  -22.6508  -17.0117 C   0  0  0  0  0  0  0  0  0  0  0  0
   22.2296  -21.8959  -16.2615 O   0  0  0  0  0  0  0  0  0  0  0  0
   21.6407  -22.9795  -16.4517 C   0  0  0  0  0  0  0  0  0  0  0  0
   19.1989  -20.7508  -17.8954 C   0  0  2  0  0  0  0  0  0  0  0  0
   20.3002  -20.5070  -18.9019 C   0  0  0  0  0  0  0  0  0  0  0  0
   20.6461  -19.0339  -18.8135 C   0  0  2  0  0  0  0  0  0  0  0  0
   21.5142  -21.2849  -18.5606 N   0  0  0  0  0  0  0  0  0  0  0  0
   22.1572  -20.9635  -17.3317 C   0  0  0  0  0  0  0  0  0  0  0  0
   22.5188  -21.1031  -19.6506 O   0  0  0  0  0  0  0  0  0  0  0  0
   22.3384  -21.5780  -20.9411 O   0  0  0  0  0  0  0  0  0  0  0  0
  2  1  1  0
  3  2  2  0
  4  2  1  0
  5  4  1  0
  6  7  1  0
  6  5  1  0
  7  8  1  0
  8  9  1  1
 10  8  1  0
 10 11  2  0
 12 10  1  0
 13 12  1  0
 13 14  1  1
 15 14  1  0
 16 15  1  0
 17 16  1  0
 18 17  1  0
 19 13  1  0
 20 19  2  0
 22 23  1  1
 22 21  1  0
 24 22  1  0
 24 25  1  6
 25 19  1  0
 26 27  1  0
 26 24  1  0
 28 26  2  0
M  END
$$$$
