GLW.pdb
     RDKit          3D

 27 28  0  0  1  0  0  0  0  0999 V2000
   28.7207  -20.8613  -14.6618 N   0  0  0  0  0  0  0  0  0  0  0  0
   27.5467  -20.0811  -14.3431 C   0  0  0  0  0  0  0  0  0  0  0  0
   26.5664  -20.8282  -13.5426 C   0  0  0  0  0  0  0  0  0  0  0  0
   26.0743  -21.9132  -13.9371 O   0  0  0  0  0  0  0  0  0  0  0  0
   26.0896  -19.7125   -7.9993 C   0  0  0  0  0  0  0  0  0  0  0  0
   26.4324  -20.2811   -9.3923 C   0  0  1  0  0  0  0  0  0  0  0  0
   27.3718  -21.4080   -9.1827 C   0  0  0  0  0  0  0  0  0  0  0  0
   25.1509  -20.5489  -10.0548 C   0  0  0  0  0  0  0  0  0  0  0  0
   25.1325  -20.9676  -11.4735 C   0  0  2  0  0  0  0  0  0  0  0  0
   26.1414  -20.3400  -12.2844 N   0  0  0  0  0  0  0  0  0  0  0  0
   23.7858  -20.9124  -12.0952 C   0  0  0  0  0  0  0  0  0  0  0  0
   22.8577  -21.5437  -11.5319 O   0  0  0  0  0  0  0  0  0  0  0  0
   23.4808  -20.1951  -13.2804 N   0  0  0  0  0  0  0  0  0  0  0  0
   22.1414  -20.1368  -13.8465 C   0  0  1  0  0  0  0  0  0  0  0  0
   22.1073  -19.2585  -15.0744 C   0  0  0  0  0  0  0  0  0  0  0  0
   20.7588  -19.2040  -15.6846 C   0  0  0  0  0  0  0  0  0  0  0  0
   19.6546  -18.4929  -15.2747 C   0  0  0  0  0  0  0  0  0  0  0  0
   18.6321  -18.7217  -16.1077 N   0  0  0  0  0  0  0  0  0  0  0  0
   19.0193  -19.5782  -17.0809 C   0  0  0  0  0  0  0  0  0  0  0  0
   18.3850  -20.1394  -18.1680 C   0  0  0  0  0  0  0  0  0  0  0  0
   19.0413  -21.0143  -19.0268 C   0  0  0  0  0  0  0  0  0  0  0  0
   20.3593  -21.2853  -18.7268 C   0  0  0  0  0  0  0  0  0  0  0  0
   21.0075  -20.7311  -17.6422 C   0  0  0  0  0  0  0  0  0  0  0  0
   20.3422  -19.8800  -16.8203 C   0  0  0  0  0  0  0  0  0  0  0  0
   21.8428  -21.5322  -14.3338 C   0  0  0  0  0  0  0  0  0  0  0  0
   20.5391  -22.0243  -14.3135 O   0  0  0  0  0  0  0  0  0  0  0  0
   22.7328  -22.3011  -14.7714 O   0  0  0  0  0  0  0  0  0  0  0  0
  2  1  1  0
  3  2  1  0
  3  4  2  0
  6  5  1  1
  6  7  1  0
  8  6  1  0
  9  8  1  1
  9 10  1  0
 10  3  1  0
 11  9  1  0
 12 11  2  0
 13 11  1  0
 14 13  1  0
 14 25  1  0
 14 15  1  6
 16 15  1  0
 17 16  2  0
 18 17  1  0
 19 18  1  0
 19 24  2  0
 20 19  1  0
 21 20  2  0
 21 22  1  0
 22 23  2  0
 23 24  1  0
 24 16  1  0
 25 26  1  0
 27 25  2  0
M  END
$$$$
