GLW.pdb
     RDKit          3D

 27 28  0  0  1  0  0  0  0  0999 V2000
   28.5140  -21.9327  -14.0192 N   0  0  0  0  0  0  0  0  0  0  0  0
   28.2727  -20.9115  -13.0255 C   0  0  0  0  0  0  0  0  0  0  0  0
   27.2596  -21.3070  -12.0368 C   0  0  0  0  0  0  0  0  0  0  0  0
   26.6223  -22.3840  -12.1322 O   0  0  0  0  0  0  0  0  0  0  0  0
   27.4965  -19.0143   -6.8900 C   0  0  0  0  0  0  0  0  0  0  0  0
   27.5855  -19.9767   -8.0931 C   0  0  1  0  0  0  0  0  0  0  0  0
   28.2681  -21.2036   -7.6186 C   0  0  0  0  0  0  0  0  0  0  0  0
   26.2247  -20.0928   -8.6294 C   0  0  0  0  0  0  0  0  0  0  0  0
   26.0003  -20.7899   -9.9147 C   0  0  2  0  0  0  0  0  0  0  0  0
   26.9676  -20.4736  -10.9313 N   0  0  0  0  0  0  0  0  0  0  0  0
   24.6036  -20.6977  -10.4085 C   0  0  0  0  0  0  0  0  0  0  0  0
   23.6825  -21.0039   -9.6116 O   0  0  0  0  0  0  0  0  0  0  0  0
   24.2436  -20.2873  -11.7178 N   0  0  0  0  0  0  0  0  0  0  0  0
   22.8620  -20.1081  -12.1381 C   0  0  1  0  0  0  0  0  0  0  0  0
   22.7624  -19.1153  -13.2716 C   0  0  0  0  0  0  0  0  0  0  0  0
   23.6989  -19.4315  -14.3746 C   0  0  0  0  0  0  0  0  0  0  0  0
   23.5558  -20.3463  -15.3923 C   0  0  0  0  0  0  0  0  0  0  0  0
   24.6355  -20.3189  -16.1829 N   0  0  0  0  0  0  0  0  0  0  0  0
   25.5151  -19.3999  -15.7221 C   0  0  0  0  0  0  0  0  0  0  0  0
   26.7566  -18.9717  -16.1399 C   0  0  0  0  0  0  0  0  0  0  0  0
   27.4583  -17.9845  -15.4567 C   0  0  0  0  0  0  0  0  0  0  0  0
   26.8399  -17.4618  -14.3409 C   0  0  0  0  0  0  0  0  0  0  0  0
   25.5976  -17.8804  -13.9106 C   0  0  0  0  0  0  0  0  0  0  0  0
   24.9351  -18.8461  -14.5971 C   0  0  0  0  0  0  0  0  0  0  0  0
   22.4360  -21.4336  -12.7172 C   0  0  0  0  0  0  0  0  0  0  0  0
   23.3637  -22.4584  -12.8948 O   0  0  0  0  0  0  0  0  0  0  0  0
   21.2529  -21.6734  -13.0598 O   0  0  0  0  0  0  0  0  0  0  0  0
  2  1  1  0
  3  2  1  0
  3  4  2  0
  6  5  1  1
  6  7  1  0
  8  6  1  0
  9  8  1  1
  9 10  1  0
 10  3  1  0
 11  9  1  0
 12 11  2  0
 13 11  1  0
 14 13  1  0
 14 25  1  0
 14 15  1  6
 16 15  1  0
 17 16  2  0
 18 17  1  0
 19 18  1  0
 19 24  2  0
 20 19  1  0
 21 20  2  0
 21 22  1  0
 22 23  2  0
 23 24  1  0
 24 16  1  0
 25 26  1  0
 27 25  2  0
M  END
$$$$
