GLW.pdb
     RDKit          3D

 27 28  0  0  1  0  0  0  0  0999 V2000
   27.8460  -21.4738  -16.0734 N   0  0  0  0  0  0  0  0  0  0  0  0
   27.3092  -20.5199  -15.1297 C   0  0  0  0  0  0  0  0  0  0  0  0
   26.7640  -21.1577  -13.9230 C   0  0  0  0  0  0  0  0  0  0  0  0
   26.3474  -22.3415  -13.9271 O   0  0  0  0  0  0  0  0  0  0  0  0
   26.5626  -19.6318   -7.9334 C   0  0  0  0  0  0  0  0  0  0  0  0
   26.1017  -20.6979   -8.9495 C   0  0  1  0  0  0  0  0  0  0  0  0
   24.6634  -20.9483   -8.6944 C   0  0  0  0  0  0  0  0  0  0  0  0
   26.5055  -20.2081  -10.2723 C   0  0  0  0  0  0  0  0  0  0  0  0
   26.1645  -20.9916  -11.4797 C   0  0  2  0  0  0  0  0  0  0  0  0
   26.6908  -20.4461  -12.7022 N   0  0  0  0  0  0  0  0  0  0  0  0
   24.7239  -21.3344  -11.5823 C   0  0  0  0  0  0  0  0  0  0  0  0
   24.1881  -21.9004  -10.5974 O   0  0  0  0  0  0  0  0  0  0  0  0
   23.9164  -21.0649  -12.7170 N   0  0  0  0  0  0  0  0  0  0  0  0
   22.4619  -21.0777  -12.6731 C   0  0  1  0  0  0  0  0  0  0  0  0
   21.8957  -19.7161  -12.9980 C   0  0  0  0  0  0  0  0  0  0  0  0
   22.4726  -19.1535  -14.2408 C   0  0  0  0  0  0  0  0  0  0  0  0
   23.6252  -18.4196  -14.4017 C   0  0  0  0  0  0  0  0  0  0  0  0
   23.7868  -18.1047  -15.6926 N   0  0  0  0  0  0  0  0  0  0  0  0
   22.7628  -18.6114  -16.4174 C   0  0  0  0  0  0  0  0  0  0  0  0
   22.4352  -18.5868  -17.7558 C   0  0  0  0  0  0  0  0  0  0  0  0
   21.2887  -19.2072  -18.2399 C   0  0  0  0  0  0  0  0  0  0  0  0
   20.5026  -19.8458  -17.3046 C   0  0  0  0  0  0  0  0  0  0  0  0
   20.8177  -19.8788  -15.9617 C   0  0  0  0  0  0  0  0  0  0  0  0
   21.9434  -19.2645  -15.5168 C   0  0  0  0  0  0  0  0  0  0  0  0
   22.0272  -21.9805  -13.8000 C   0  0  0  0  0  0  0  0  0  0  0  0
   22.9699  -22.5453  -14.6572 O   0  0  0  0  0  0  0  0  0  0  0  0
   20.8234  -22.2610  -14.0163 O   0  0  0  0  0  0  0  0  0  0  0  0
  2  1  1  0
  3  2  1  0
  3  4  2  0
  6  5  1  1
  6  7  1  0
  8  6  1  0
  9  8  1  1
  9 10  1  0
 10  3  1  0
 11  9  1  0
 12 11  2  0
 13 11  1  0
 14 13  1  0
 14 25  1  0
 14 15  1  6
 16 15  1  0
 17 16  2  0
 18 17  1  0
 19 18  1  0
 19 24  2  0
 20 19  1  0
 21 20  2  0
 21 22  1  0
 22 23  2  0
 23 24  1  0
 24 16  1  0
 25 26  1  0
 27 25  2  0
M  END
$$$$
