GLW.pdb
     RDKit          3D

 27 28  0  0  1  0  0  0  0  0999 V2000
   28.7751  -18.5073  -16.9146 N   0  0  0  0  0  0  0  0  0  0  0  0
   28.0357  -18.0516  -15.7595 C   0  0  0  0  0  0  0  0  0  0  0  0
   27.3546  -19.1449  -15.0517 C   0  0  0  0  0  0  0  0  0  0  0  0
   26.6747  -20.0079  -15.6583 O   0  0  0  0  0  0  0  0  0  0  0  0
   29.1515  -20.8721  -10.0135 C   0  0  0  0  0  0  0  0  0  0  0  0
   28.7895  -20.7807  -11.5108 C   0  0  1  0  0  0  0  0  0  0  0  0
   29.3509  -21.9846  -12.1680 C   0  0  0  0  0  0  0  0  0  0  0  0
   27.3404  -20.5587  -11.5716 C   0  0  0  0  0  0  0  0  0  0  0  0
   26.7052  -20.2126  -12.8619 C   0  0  2  0  0  0  0  0  0  0  0  0
   27.4457  -19.2594  -13.6443 N   0  0  0  0  0  0  0  0  0  0  0  0
   25.2681  -19.8603  -12.7449 C   0  0  0  0  0  0  0  0  0  0  0  0
   24.9742  -18.8133  -12.1166 O   0  0  0  0  0  0  0  0  0  0  0  0
   24.2092  -20.6272  -13.2951 N   0  0  0  0  0  0  0  0  0  0  0  0
   22.8299  -20.1640  -13.3241 C   0  0  1  0  0  0  0  0  0  0  0  0
   22.3225  -20.0536  -14.7420 C   0  0  0  0  0  0  0  0  0  0  0  0
   20.9055  -19.6261  -14.7963 C   0  0  0  0  0  0  0  0  0  0  0  0
   19.8593  -20.0022  -13.9857 C   0  0  0  0  0  0  0  0  0  0  0  0
   18.7383  -19.3822  -14.3738 N   0  0  0  0  0  0  0  0  0  0  0  0
   19.0011  -18.5879  -15.4372 C   0  0  0  0  0  0  0  0  0  0  0  0
   18.2340  -17.7482  -16.2154 C   0  0  0  0  0  0  0  0  0  0  0  0
   18.7786  -17.0338  -17.2770 C   0  0  0  0  0  0  0  0  0  0  0  0
   20.1264  -17.2152  -17.5032 C   0  0  0  0  0  0  0  0  0  0  0  0
   20.9069  -18.0522  -16.7326 C   0  0  0  0  0  0  0  0  0  0  0  0
   20.3487  -18.7376  -15.7024 C   0  0  0  0  0  0  0  0  0  0  0  0
   22.0172  -21.2608  -12.6834 C   0  0  0  0  0  0  0  0  0  0  0  0
   20.9223  -20.9513  -11.8786 O   0  0  0  0  0  0  0  0  0  0  0  0
   22.2806  -22.4776  -12.8398 O   0  0  0  0  0  0  0  0  0  0  0  0
  2  1  1  0
  3  2  1  0
  3  4  2  0
  6  5  1  1
  6  7  1  0
  8  6  1  0
  9  8  1  1
  9 10  1  0
 10  3  1  0
 11  9  1  0
 12 11  2  0
 13 11  1  0
 14 13  1  0
 14 25  1  0
 14 15  1  6
 16 15  1  0
 17 16  2  0
 18 17  1  0
 19 18  1  0
 19 24  2  0
 20 19  1  0
 21 20  2  0
 21 22  1  0
 22 23  2  0
 23 24  1  0
 24 16  1  0
 25 26  1  0
 27 25  2  0
M  END
$$$$
