GLW.pdb
     RDKit          3D

 27 28  0  0  1  0  0  0  0  0999 V2000
   21.2180  -20.1563  -15.9804 N   0  0  0  0  0  0  0  0  0  0  0  0
   22.4012  -19.3265  -15.9767 C   0  0  0  0  0  0  0  0  0  0  0  0
   23.5627  -19.9934  -15.3715 C   0  0  0  0  0  0  0  0  0  0  0  0
   23.4592  -21.0848  -14.7607 O   0  0  0  0  0  0  0  0  0  0  0  0
   28.8199  -20.1253  -17.3835 C   0  0  0  0  0  0  0  0  0  0  0  0
   27.4449  -20.5400  -16.8189 C   0  0  1  0  0  0  0  0  0  0  0  0
   27.4255  -22.0210  -16.7662 C   0  0  0  0  0  0  0  0  0  0  0  0
   27.2692  -19.7904  -15.5699 C   0  0  0  0  0  0  0  0  0  0  0  0
   26.0169  -19.9378  -14.7965 C   0  0  2  0  0  0  0  0  0  0  0  0
   24.8518  -19.4168  -15.4600 N   0  0  0  0  0  0  0  0  0  0  0  0
   26.1257  -19.4767  -13.3898 C   0  0  0  0  0  0  0  0  0  0  0  0
   26.2234  -18.2410  -13.1876 O   0  0  0  0  0  0  0  0  0  0  0  0
   26.1264  -20.3388  -12.2633 N   0  0  0  0  0  0  0  0  0  0  0  0
   26.2573  -19.8543  -10.8973 C   0  0  1  0  0  0  0  0  0  0  0  0
   24.9572  -19.2682  -10.4008 C   0  0  0  0  0  0  0  0  0  0  0  0
   23.9585  -20.3146  -10.0823 C   0  0  0  0  0  0  0  0  0  0  0  0
   23.8506  -21.0877   -8.9494 C   0  0  0  0  0  0  0  0  0  0  0  0
   22.8041  -21.9148   -9.0618 N   0  0  0  0  0  0  0  0  0  0  0  0
   22.1945  -21.7197  -10.2539 C   0  0  0  0  0  0  0  0  0  0  0  0
   21.1005  -22.2859  -10.8717 C   0  0  0  0  0  0  0  0  0  0  0  0
   20.6849  -21.8835  -12.1363 C   0  0  0  0  0  0  0  0  0  0  0  0
   21.4298  -20.8884  -12.7324 C   0  0  0  0  0  0  0  0  0  0  0  0
   22.5272  -20.3122  -12.1262 C   0  0  0  0  0  0  0  0  0  0  0  0
   22.9106  -20.7246  -10.8911 C   0  0  0  0  0  0  0  0  0  0  0  0
   26.5030  -21.0784  -10.0516 C   0  0  0  0  0  0  0  0  0  0  0  0
   26.7385  -20.9567   -8.6834 O   0  0  0  0  0  0  0  0  0  0  0  0
   26.5075  -22.2396  -10.5271 O   0  0  0  0  0  0  0  0  0  0  0  0
  2  1  1  0
  3  2  1  0
  3  4  2  0
  6  5  1  1
  6  7  1  0
  8  6  1  0
  9  8  1  6
  9 10  1  0
 10  3  1  0
 11  9  1  0
 12 11  2  0
 13 11  1  0
 14 13  1  0
 14 25  1  0
 14 15  1  1
 16 15  1  0
 17 16  2  0
 18 17  1  0
 19 18  1  0
 19 24  2  0
 20 19  1  0
 21 20  2  0
 21 22  1  0
 22 23  2  0
 23 24  1  0
 24 16  1  0
 25 26  1  0
 27 25  2  0
M  END
$$$$
