GLW.pdb
     RDKit          3D

 27 28  0  0  1  0  0  0  0  0999 V2000
   22.7931  -17.8230  -14.4291 N   0  0  0  0  0  0  0  0  0  0  0  0
   23.8975  -17.7813  -13.4979 C   0  0  0  0  0  0  0  0  0  0  0  0
   24.7260  -18.9944  -13.5423 C   0  0  0  0  0  0  0  0  0  0  0  0
   24.2438  -20.1192  -13.8204 O   0  0  0  0  0  0  0  0  0  0  0  0
   30.2410  -18.4281  -14.4568 C   0  0  0  0  0  0  0  0  0  0  0  0
   28.7102  -18.6177  -14.5039 C   0  0  1  0  0  0  0  0  0  0  0  0
   28.3317  -18.7438  -15.9313 C   0  0  0  0  0  0  0  0  0  0  0  0
   28.4045  -19.7286  -13.5955 C   0  0  0  0  0  0  0  0  0  0  0  0
   26.9952  -20.0660  -13.2984 C   0  0  2  0  0  0  0  0  0  0  0  0
   26.1128  -18.9303  -13.2688 N   0  0  0  0  0  0  0  0  0  0  0  0
   26.8285  -20.9482  -12.1165 C   0  0  0  0  0  0  0  0  0  0  0  0
   27.3686  -22.0815  -12.1545 O   0  0  0  0  0  0  0  0  0  0  0  0
   26.1010  -20.5951  -10.9510 N   0  0  0  0  0  0  0  0  0  0  0  0
   25.7155  -21.5640   -9.9359 C   0  0  1  0  0  0  0  0  0  0  0  0
   26.8268  -21.7755   -8.9356 C   0  0  0  0  0  0  0  0  0  0  0  0
   27.0616  -20.5754   -8.0998 C   0  0  0  0  0  0  0  0  0  0  0  0
   26.6984  -19.2707   -8.3424 C   0  0  0  0  0  0  0  0  0  0  0  0
   27.1014  -18.4914   -7.3315 N   0  0  0  0  0  0  0  0  0  0  0  0
   27.7348  -19.2425   -6.4012 C   0  0  0  0  0  0  0  0  0  0  0  0
   28.3346  -18.9613   -5.1927 C   0  0  0  0  0  0  0  0  0  0  0  0
   28.9276  -19.9549   -4.4215 C   0  0  0  0  0  0  0  0  0  0  0  0
   28.8798  -21.2330   -4.9362 C   0  0  0  0  0  0  0  0  0  0  0  0
   28.2829  -21.5296   -6.1443 C   0  0  0  0  0  0  0  0  0  0  0  0
   27.7116  -20.5395   -6.8765 C   0  0  0  0  0  0  0  0  0  0  0  0
   24.5890  -20.9224   -9.1657 C   0  0  0  0  0  0  0  0  0  0  0  0
   24.0470  -19.7089   -9.5853 O   0  0  0  0  0  0  0  0  0  0  0  0
   24.0959  -21.4375   -8.1331 O   0  0  0  0  0  0  0  0  0  0  0  0
  2  1  1  0
  3  2  1  0
  3  4  2  0
  6  5  1  6
  6  7  1  0
  8  6  1  0
  9  8  1  1
  9 10  1  0
 10  3  1  0
 11  9  1  0
 12 11  2  0
 13 11  1  0
 14 13  1  0
 14 25  1  0
 14 15  1  1
 16 15  1  0
 17 16  2  0
 18 17  1  0
 19 18  1  0
 19 24  2  0
 20 19  1  0
 21 20  2  0
 21 22  1  0
 22 23  2  0
 23 24  1  0
 24 16  1  0
 25 26  1  0
 27 25  2  0
M  END
$$$$
