GLW.pdb
     RDKit          3D

 27 28  0  0  1  0  0  0  0  0999 V2000
   31.5367  -21.4993  -13.2506 N   0  0  0  0  0  0  0  0  0  0  0  0
   30.6943  -21.0902  -14.3514 C   0  0  0  0  0  0  0  0  0  0  0  0
   29.4314  -20.4837  -13.9072 C   0  0  0  0  0  0  0  0  0  0  0  0
   29.1560  -20.3358  -12.6917 O   0  0  0  0  0  0  0  0  0  0  0  0
   26.8886  -16.6098  -17.0418 C   0  0  0  0  0  0  0  0  0  0  0  0
   27.4736  -17.2190  -15.7502 C   0  0  1  0  0  0  0  0  0  0  0  0
   27.4482  -16.1558  -14.7180 C   0  0  0  0  0  0  0  0  0  0  0  0
   26.7251  -18.4564  -15.5025 C   0  0  0  0  0  0  0  0  0  0  0  0
   27.2214  -19.4253  -14.5010 C   0  0  2  0  0  0  0  0  0  0  0  0
   28.4734  -20.0416  -14.8500 N   0  0  0  0  0  0  0  0  0  0  0  0
   26.2012  -20.4127  -14.0682 C   0  0  0  0  0  0  0  0  0  0  0  0
   26.1472  -21.5041  -14.6873 O   0  0  0  0  0  0  0  0  0  0  0  0
   25.2865  -20.2038  -13.0043 N   0  0  0  0  0  0  0  0  0  0  0  0
   24.3766  -21.2356  -12.5300 C   0  0  1  0  0  0  0  0  0  0  0  0
   24.9764  -22.0011  -11.3748 C   0  0  0  0  0  0  0  0  0  0  0  0
   25.4621  -21.1029  -10.3018 C   0  0  0  0  0  0  0  0  0  0  0  0
   24.7583  -20.1751   -9.5692 C   0  0  0  0  0  0  0  0  0  0  0  0
   25.5740  -19.5726   -8.6955 N   0  0  0  0  0  0  0  0  0  0  0  0
   26.8248  -20.0736   -8.8190 C   0  0  0  0  0  0  0  0  0  0  0  0
   28.0226  -19.8200   -8.1864 C   0  0  0  0  0  0  0  0  0  0  0  0
   29.1870  -20.5012   -8.5241 C   0  0  0  0  0  0  0  0  0  0  0  0
   29.0717  -21.4415   -9.5256 C   0  0  0  0  0  0  0  0  0  0  0  0
   27.8795  -21.7062  -10.1678 C   0  0  0  0  0  0  0  0  0  0  0  0
   26.7583  -21.0259   -9.8178 C   0  0  0  0  0  0  0  0  0  0  0  0
   23.1882  -20.5021  -11.9610 C   0  0  0  0  0  0  0  0  0  0  0  0
   23.1906  -19.1111  -11.8754 O   0  0  0  0  0  0  0  0  0  0  0  0
   22.1627  -21.0944  -11.5461 O   0  0  0  0  0  0  0  0  0  0  0  0
  2  1  1  0
  3  2  1  0
  3  4  2  0
  6  5  1  6
  6  7  1  0
  8  6  1  0
  9  8  1  6
  9 10  1  0
 10  3  1  0
 11  9  1  0
 12 11  2  0
 13 11  1  0
 14 13  1  0
 14 25  1  0
 14 15  1  1
 16 15  1  0
 17 16  2  0
 18 17  1  0
 19 18  1  0
 19 24  2  0
 20 19  1  0
 21 20  2  0
 21 22  1  0
 22 23  2  0
 23 24  1  0
 24 16  1  0
 25 26  1  0
 27 25  2  0
M  END
$$$$
