MRL.pdb
     RDKit          3D

 28 27  0  0  1  0  0  0  0  0999 V2000
   27.0320  -15.5169  -15.9345 C   0  0  0  0  0  0  0  0  0  0  0  0
   27.9448  -16.0471  -17.4095 S   0  0  0  0  0  0  0  0  0  0  0  0
   28.5452  -17.7536  -17.2054 C   0  0  0  0  0  0  0  0  0  0  0  0
   27.4791  -18.5602  -16.4855 C   0  0  0  0  0  0  0  0  0  0  0  0
   28.0128  -19.9506  -16.1909 C   0  0  2  0  0  0  0  0  0  0  0  0
   28.2996  -20.6687  -17.4030 N   0  0  0  0  0  0  0  0  0  0  0  0
   27.0931  -20.6534  -15.3111 C   0  0  0  0  0  0  0  0  0  0  0  0
   26.2257  -21.4858  -15.7396 O   0  0  0  0  0  0  0  0  0  0  0  0
   22.7366  -20.3526   -9.2665 N   0  0  0  0  0  0  0  0  0  0  0  0
   23.3100  -21.1878   -8.2923 C   0  0  0  0  0  0  0  0  0  0  0  0
   22.5999  -21.7987   -7.4041 N   0  0  0  0  0  0  0  0  0  0  0  0
   24.7044  -21.3767   -8.2750 N   0  0  0  0  0  0  0  0  0  0  0  0
   25.6517  -20.7563   -9.1563 C   0  0  0  0  0  0  0  0  0  0  0  0
   25.3191  -21.1252  -10.5848 C   0  0  0  0  0  0  0  0  0  0  0  0
   26.3102  -20.6276  -11.5615 C   0  0  0  0  0  0  0  0  0  0  0  0
   26.0844  -20.8805  -12.9997 C   0  0  2  0  0  0  0  0  0  0  0  0
   27.1107  -20.4443  -13.9107 N   0  0  0  0  0  0  0  0  0  0  0  0
   24.8147  -20.1752  -13.3743 C   0  0  0  0  0  0  0  0  0  0  0  0
   24.7153  -18.9136  -13.2843 O   0  0  0  0  0  0  0  0  0  0  0  0
   23.0923  -22.4165   -6.7211 C   0  0  0  0  0  0  0  0  0  0  0  0
   21.4115  -18.0263  -16.3308 C   0  0  2  0  0  0  0  0  0  0  0  0
   21.2451  -19.5383  -16.3241 C   0  0  0  0  0  0  0  0  0  0  0  0
   21.1434  -20.0852  -17.7420 C   0  0  0  0  0  0  0  0  0  0  0  0
   22.4738  -20.1401  -15.7179 C   0  0  1  0  0  0  0  0  0  0  0  0
   22.4541  -20.1878  -14.2044 N   0  0  0  0  0  0  0  0  0  0  0  0
   23.6993  -20.8811  -13.8345 C   0  0  0  0  0  0  0  0  0  0  0  0
   21.3027  -20.9392  -13.6657 O   0  0  0  0  0  0  0  0  0  0  0  0
   21.2969  -22.1862  -13.5094 O   0  0  0  0  0  0  0  0  0  0  0  0
  2  1  1  0
  3  2  1  0
  4  3  1  0
  4  5  1  0
  5  6  1  6
  7  5  1  0
  7  8  2  0
 10  9  1  0
 10 12  1  0
 11 10  2  0
 13 14  1  0
 13 12  1  0
 15 14  1  0
 16 15  1  1
 16 17  1  0
 17  7  1  0
 18 16  1  0
 19 18  2  0
 21 20  1  1
 21 23  1  0
 22 21  1  0
 24 23  1  1
 24 25  1  0
 24 26  1  0
 25 18  1  0
 26 28  1  0
 27 26  2  0
M  END
$$$$
