MRL.pdb
     RDKit          3D

 28 27  0  0  1  0  0  0  0  0999 V2000
   28.5864  -18.4035   -6.6160 C   0  0  0  0  0  0  0  0  0  0  0  0
   27.5658  -19.5422   -5.6405 S   0  0  0  0  0  0  0  0  0  0  0  0
   26.5748  -20.6051   -6.7370 C   0  0  0  0  0  0  0  0  0  0  0  0
   26.4583  -19.9295   -8.0919 C   0  0  0  0  0  0  0  0  0  0  0  0
   25.7098  -20.8420   -9.0468 C   0  0  2  0  0  0  0  0  0  0  0  0
   26.1458  -22.2059   -8.9173 N   0  0  0  0  0  0  0  0  0  0  0  0
   25.8203  -20.3302  -10.4032 C   0  0  0  0  0  0  0  0  0  0  0  0
   25.4447  -19.1556  -10.7320 O   0  0  0  0  0  0  0  0  0  0  0  0
   30.6206  -23.7546  -15.0347 N   0  0  0  0  0  0  0  0  0  0  0  0
   29.5682  -23.6968  -15.9646 C   0  0  0  0  0  0  0  0  0  0  0  0
   29.2086  -24.7214  -16.6627 N   0  0  0  0  0  0  0  0  0  0  0  0
   28.8713  -22.4881  -16.1484 N   0  0  0  0  0  0  0  0  0  0  0  0
   29.1893  -21.2288  -15.5385 C   0  0  0  0  0  0  0  0  0  0  0  0
   27.9423  -20.6523  -14.9060 C   0  0  0  0  0  0  0  0  0  0  0  0
   27.6592  -21.2056  -13.5653 C   0  0  0  0  0  0  0  0  0  0  0  0
   26.4896  -20.7005  -12.8170 C   0  0  2  0  0  0  0  0  0  0  0  0
   26.3560  -21.1231  -11.4469 N   0  0  0  0  0  0  0  0  0  0  0  0
   25.2665  -21.1584  -13.5549 C   0  0  0  0  0  0  0  0  0  0  0  0
   24.7750  -22.3110  -13.3563 O   0  0  0  0  0  0  0  0  0  0  0  0
   28.3519  -24.6371  -17.2538 C   0  0  0  0  0  0  0  0  0  0  0  0
   20.4814  -18.9547  -14.1843 C   0  0  2  0  0  0  0  0  0  0  0  0
   21.0021  -20.2335  -13.5462 C   0  0  0  0  0  0  0  0  0  0  0  0
   20.6734  -21.4480  -14.4045 C   0  0  0  0  0  0  0  0  0  0  0  0
   22.4944  -20.1463  -13.4773 C   0  0  2  0  0  0  0  0  0  0  0  0
   23.1918  -20.4812  -14.7792 N   0  0  0  0  0  0  0  0  0  0  0  0
   24.6270  -20.3335  -14.4848 C   0  0  0  0  0  0  0  0  0  0  0  0
   22.8267  -19.5684  -15.8809 O   0  0  0  0  0  0  0  0  0  0  0  0
   23.3309  -18.4277  -16.0359 O   0  0  0  0  0  0  0  0  0  0  0  0
  2  1  1  0
  3  2  1  0
  4  3  1  0
  4  5  1  0
  5  6  1  6
  7  5  1  0
  7  8  2  0
 10  9  1  0
 10 12  1  0
 11 10  2  0
 13 14  1  0
 13 12  1  0
 15 14  1  0
 16 15  1  6
 16 17  1  0
 17  7  1  0
 18 16  1  0
 19 18  2  0
 21 20  1  1
 21 23  1  0
 22 21  1  0
 24 23  1  1
 24 25  1  0
 24 26  1  0
 25 18  1  0
 26 28  1  0
 27 26  2  0
M  END
$$$$
