MRL.pdb
     RDKit          3D

 28 27  0  0  1  0  0  0  0  0999 V2000
   29.2352  -20.9492   -5.2525 C   0  0  0  0  0  0  0  0  0  0  0  0
   28.6072  -19.2543   -5.1018 S   0  0  0  0  0  0  0  0  0  0  0  0
   26.9267  -19.1359   -5.7918 C   0  0  0  0  0  0  0  0  0  0  0  0
   26.7712  -20.1897   -6.8739 C   0  0  0  0  0  0  0  0  0  0  0  0
   25.3444  -20.1724   -7.3922 C   0  0  2  0  0  0  0  0  0  0  0  0
   24.4393  -20.7783   -6.4538 N   0  0  0  0  0  0  0  0  0  0  0  0
   25.2942  -20.7796   -8.7124 C   0  0  0  0  0  0  0  0  0  0  0  0
   25.3290  -22.0423   -8.8948 O   0  0  0  0  0  0  0  0  0  0  0  0
   23.8543  -22.5285  -15.8512 N   0  0  0  0  0  0  0  0  0  0  0  0
   22.5448  -22.3526  -15.3719 C   0  0  0  0  0  0  0  0  0  0  0  0
   21.6191  -23.2331  -15.5575 N   0  0  0  0  0  0  0  0  0  0  0  0
   22.2183  -21.1832  -14.6604 N   0  0  0  0  0  0  0  0  0  0  0  0
   23.0989  -20.0812  -14.3972 C   0  0  0  0  0  0  0  0  0  0  0  0
   24.2627  -20.5623  -13.5597 C   0  0  0  0  0  0  0  0  0  0  0  0
   24.1994  -20.1050  -12.1559 C   0  0  0  0  0  0  0  0  0  0  0  0
   25.2814  -20.4953  -11.2284 C   0  0  2  0  0  0  0  0  0  0  0  0
   25.2059  -19.9878   -9.8830 N   0  0  0  0  0  0  0  0  0  0  0  0
   26.5678  -20.0079  -11.8264 C   0  0  0  0  0  0  0  0  0  0  0  0
   26.8075  -18.7674  -11.9422 O   0  0  0  0  0  0  0  0  0  0  0  0
   20.6533  -23.0069  -15.2311 C   0  0  0  0  0  0  0  0  0  0  0  0
   31.0188  -22.6107  -10.7435 C   0  0  2  0  0  0  0  0  0  0  0  0
   30.0804  -21.4504  -11.0383 C   0  0  0  0  0  0  0  0  0  0  0  0
   30.7157  -20.1202  -10.6552 C   0  0  0  0  0  0  0  0  0  0  0  0
   29.8442  -21.4051  -12.5152 C   0  0  2  0  0  0  0  0  0  0  0  0
   28.7709  -20.4238  -12.9377 N   0  0  0  0  0  0  0  0  0  0  0  0
   27.5450  -20.9007  -12.2758 C   0  0  0  0  0  0  0  0  0  0  0  0
   28.5546  -20.3985  -14.3981 O   0  0  0  0  0  0  0  0  0  0  0  0
   27.6740  -21.0779  -14.9833 O   0  0  0  0  0  0  0  0  0  0  0  0
  2  1  1  0
  3  2  1  0
  4  3  1  0
  4  5  1  0
  5  6  1  1
  7  5  1  0
  7  8  2  0
 10  9  1  0
 10 12  1  0
 11 10  2  0
 13 14  1  0
 13 12  1  0
 15 14  1  0
 16 15  1  6
 16 17  1  0
 17  7  1  0
 18 16  1  0
 19 18  2  0
 21 20  1  1
 21 23  1  0
 22 21  1  0
 24 23  1  1
 24 25  1  0
 24 26  1  0
 25 18  1  0
 26 28  1  0
 27 26  2  0
M  END
$$$$
