MRL.pdb
     RDKit          3D

 28 27  0  0  1  0  0  0  0  0999 V2000
   27.5358  -18.3874   -6.4739 C   0  0  0  0  0  0  0  0  0  0  0  0
   28.0339  -20.0411   -7.0281 S   0  0  0  0  0  0  0  0  0  0  0  0
   26.5822  -20.9888   -7.5836 C   0  0  0  0  0  0  0  0  0  0  0  0
   26.1060  -20.4159   -8.9067 C   0  0  0  0  0  0  0  0  0  0  0  0
   26.5987  -21.2945  -10.0424 C   0  0  2  0  0  0  0  0  0  0  0  0
   28.0351  -21.3420  -10.0821 N   0  0  0  0  0  0  0  0  0  0  0  0
   26.0038  -20.8574  -11.2951 C   0  0  0  0  0  0  0  0  0  0  0  0
   26.3394  -19.7733  -11.8790 O   0  0  0  0  0  0  0  0  0  0  0  0
   26.1131  -25.5610  -15.7616 N   0  0  0  0  0  0  0  0  0  0  0  0
   25.7898  -24.8641  -16.9386 C   0  0  0  0  0  0  0  0  0  0  0  0
   25.1932  -25.4311  -17.9331 N   0  0  0  0  0  0  0  0  0  0  0  0
   26.1181  -23.5002  -17.0489 N   0  0  0  0  0  0  0  0  0  0  0  0
   26.2235  -22.5665  -15.9644 C   0  0  0  0  0  0  0  0  0  0  0  0
   24.8460  -22.0467  -15.6186 C   0  0  0  0  0  0  0  0  0  0  0  0
   24.4267  -22.3775  -14.2407 C   0  0  0  0  0  0  0  0  0  0  0  0
   24.4221  -21.3092  -13.2200 C   0  0  2  0  0  0  0  0  0  0  0  0
   25.0027  -21.6233  -11.9402 N   0  0  0  0  0  0  0  0  0  0  0  0
   22.9891  -20.9311  -12.9883 C   0  0  0  0  0  0  0  0  0  0  0  0
   22.3532  -21.3621  -11.9787 O   0  0  0  0  0  0  0  0  0  0  0  0
   25.0433  -24.8700  -18.8009 C   0  0  0  0  0  0  0  0  0  0  0  0
   19.1992  -17.5516  -11.9591 C   0  0  2  0  0  0  0  0  0  0  0  0
   19.5894  -17.5557  -13.4293 C   0  0  0  0  0  0  0  0  0  0  0  0
   19.7199  -16.1363  -13.9661 C   0  0  0  0  0  0  0  0  0  0  0  0
   20.9402  -18.1880  -13.5517 C   0  0  1  0  0  0  0  0  0  0  0  0
   20.9077  -19.6999  -13.6315 N   0  0  0  0  0  0  0  0  0  0  0  0
   22.3059  -20.0929  -13.8742 C   0  0  0  0  0  0  0  0  0  0  0  0
   20.0649  -20.2016  -14.7353 O   0  0  0  0  0  0  0  0  0  0  0  0
   18.8539  -20.5099  -14.6017 O   0  0  0  0  0  0  0  0  0  0  0  0
  2  1  1  0
  3  2  1  0
  4  3  1  0
  4  5  1  0
  5  6  1  6
  7  5  1  0
  7  8  2  0
 10  9  1  0
 10 12  1  0
 11 10  2  0
 13 14  1  0
 13 12  1  0
 15 14  1  0
 16 15  1  6
 16 17  1  0
 17  7  1  0
 18 16  1  0
 19 18  2  0
 21 20  1  6
 21 23  1  0
 22 21  1  0
 24 23  1  1
 24 25  1  0
 24 26  1  0
 25 18  1  0
 26 28  1  0
 27 26  2  0
M  END
$$$$
