MRL.pdb
     RDKit          3D

 28 27  0  0  1  0  0  0  0  0999 V2000
   25.5879  -15.3958  -14.8109 C   0  0  0  0  0  0  0  0  0  0  0  0
   27.2676  -15.9999  -15.1328 S   0  0  0  0  0  0  0  0  0  0  0  0
   27.2490  -17.2563  -16.4502 C   0  0  0  0  0  0  0  0  0  0  0  0
   25.8199  -17.7293  -16.6493 C   0  0  0  0  0  0  0  0  0  0  0  0
   25.7232  -19.2025  -16.2954 C   0  0  2  0  0  0  0  0  0  0  0  0
   26.5969  -19.9963  -17.1161 N   0  0  0  0  0  0  0  0  0  0  0  0
   24.3351  -19.6311  -16.3527 C   0  0  0  0  0  0  0  0  0  0  0  0
   23.6726  -19.6866  -17.4421 O   0  0  0  0  0  0  0  0  0  0  0  0
   20.5676  -26.4865  -13.3442 N   0  0  0  0  0  0  0  0  0  0  0  0
   21.4931  -25.8808  -14.2114 C   0  0  0  0  0  0  0  0  0  0  0  0
   22.4560  -26.5414  -14.7618 N   0  0  0  0  0  0  0  0  0  0  0  0
   21.3758  -24.5088  -14.5017 N   0  0  0  0  0  0  0  0  0  0  0  0
   20.4156  -23.6050  -13.9360 C   0  0  0  0  0  0  0  0  0  0  0  0
   20.5703  -22.2458  -14.5808 C   0  0  0  0  0  0  0  0  0  0  0  0
   21.9709  -21.7765  -14.6234 C   0  0  0  0  0  0  0  0  0  0  0  0
   22.2550  -20.4239  -15.1458 C   0  0  2  0  0  0  0  0  0  0  0  0
   23.6344  -20.0121  -15.1826 N   0  0  0  0  0  0  0  0  0  0  0  0
   21.5143  -19.4533  -14.2744 C   0  0  0  0  0  0  0  0  0  0  0  0
   21.9111  -19.1953  -13.0973 O   0  0  0  0  0  0  0  0  0  0  0  0
   23.1329  -26.0170  -15.3595 C   0  0  0  0  0  0  0  0  0  0  0  0
   19.7192  -15.2665  -16.7886 C   0  0  1  0  0  0  0  0  0  0  0  0
   20.3055  -15.9756  -15.5774 C   0  0  0  0  0  0  0  0  0  0  0  0
   20.8237  -14.9743  -14.5532 C   0  0  0  0  0  0  0  0  0  0  0  0
   19.2084  -16.7444  -14.9106 C   0  0  2  0  0  0  0  0  0  0  0  0
   19.6960  -17.7729  -13.9116 N   0  0  0  0  0  0  0  0  0  0  0  0
   20.3639  -18.8009  -14.7273 C   0  0  0  0  0  0  0  0  0  0  0  0
   18.5994  -18.3989  -13.1460 O   0  0  0  0  0  0  0  0  0  0  0  0
   18.0876  -19.5076  -13.4429 O   0  0  0  0  0  0  0  0  0  0  0  0
  2  1  1  0
  3  2  1  0
  4  3  1  0
  4  5  1  0
  5  6  1  6
  7  5  1  0
  7  8  2  0
 10  9  1  0
 10 12  1  0
 11 10  2  0
 13 14  1  0
 13 12  1  0
 15 14  1  0
 16 15  1  1
 16 17  1  0
 17  7  1  0
 18 16  1  0
 19 18  2  0
 21 20  1  6
 21 23  1  0
 22 21  1  0
 24 23  1  1
 24 25  1  0
 24 26  1  0
 25 18  1  0
 26 28  1  0
 27 26  2  0
M  END
$$$$
