MRL.pdb
     RDKit          3D

 28 27  0  0  1  0  0  0  0  0999 V2000
   23.9756  -13.5669  -15.2475 C   0  0  0  0  0  0  0  0  0  0  0  0
   25.4839  -13.5097  -16.2535 S   0  0  0  0  0  0  0  0  0  0  0  0
   26.4929  -14.9982  -15.9702 C   0  0  0  0  0  0  0  0  0  0  0  0
   25.5950  -16.2189  -16.0678 C   0  0  0  0  0  0  0  0  0  0  0  0
   26.3742  -17.4520  -15.6469 C   0  0  2  0  0  0  0  0  0  0  0  0
   27.4927  -17.6872  -16.5189 N   0  0  0  0  0  0  0  0  0  0  0  0
   25.4751  -18.5902  -15.5463 C   0  0  0  0  0  0  0  0  0  0  0  0
   25.2123  -19.3536  -16.5347 O   0  0  0  0  0  0  0  0  0  0  0  0
   27.7558  -21.4698  -10.4561 N   0  0  0  0  0  0  0  0  0  0  0  0
   26.5779  -21.0339   -9.8252 C   0  0  0  0  0  0  0  0  0  0  0  0
   26.5932  -20.2140   -8.8282 N   0  0  0  0  0  0  0  0  0  0  0  0
   25.3318  -21.4958  -10.2883 N   0  0  0  0  0  0  0  0  0  0  0  0
   25.1211  -22.4208  -11.3649 C   0  0  0  0  0  0  0  0  0  0  0  0
   25.1697  -21.6748  -12.6796 C   0  0  0  0  0  0  0  0  0  0  0  0
   24.0207  -20.7669  -12.8779 C   0  0  0  0  0  0  0  0  0  0  0  0
   23.9181  -20.0112  -14.1435 C   0  0  2  0  0  0  0  0  0  0  0  0
   24.8317  -18.9134  -14.3270 N   0  0  0  0  0  0  0  0  0  0  0  0
   22.5250  -19.4593  -14.2122 C   0  0  0  0  0  0  0  0  0  0  0  0
   22.1301  -18.5743  -13.3934 O   0  0  0  0  0  0  0  0  0  0  0  0
   25.6784  -19.9253   -8.4153 C   0  0  0  0  0  0  0  0  0  0  0  0
   20.1193  -18.9333  -18.9934 C   0  0  1  0  0  0  0  0  0  0  0  0
   20.5741  -18.6419  -17.5715 C   0  0  0  0  0  0  0  0  0  0  0  0
   20.2594  -17.2043  -17.1787 C   0  0  0  0  0  0  0  0  0  0  0  0
   19.7966  -19.5216  -16.6435 C   0  0  2  0  0  0  0  0  0  0  0  0
   20.2238  -19.4183  -15.1943 N   0  0  0  0  0  0  0  0  0  0  0  0
   21.6154  -19.8994  -15.1781 C   0  0  0  0  0  0  0  0  0  0  0  0
   19.4104  -20.2575  -14.2917 O   0  0  0  0  0  0  0  0  0  0  0  0
   19.7557  -21.4029  -13.9066 O   0  0  0  0  0  0  0  0  0  0  0  0
  2  1  1  0
  3  2  1  0
  4  3  1  0
  4  5  1  0
  5  6  1  6
  7  5  1  0
  7  8  2  0
 10  9  1  0
 10 12  1  0
 11 10  2  0
 13 14  1  0
 13 12  1  0
 15 14  1  0
 16 15  1  1
 16 17  1  0
 17  7  1  0
 18 16  1  0
 19 18  2  0
 21 20  1  6
 21 23  1  0
 22 21  1  0
 24 23  1  6
 24 25  1  0
 24 26  1  0
 25 18  1  0
 26 28  1  0
 27 26  2  0
M  END
$$$$
