VMI.pdb
     RDKit          3D

 24 23  0  0  1  0  0  0  0  0999 V2000
   19.4918  -15.9730  -19.1065 C   0  0  0  0  0  0  0  0  0  0  0  0
   20.3323  -14.9157  -18.4365 C   0  0  2  0  0  0  0  0  0  0  0  0
   20.6442  -15.3822  -17.0332 C   0  0  0  0  0  0  0  0  0  0  0  0
   19.7390  -13.5369  -18.4687 C   0  0  2  0  0  0  0  0  0  0  0  0
   19.3315  -13.3116  -19.8764 N   0  0  0  0  0  0  0  0  0  0  0  0
   20.6050  -12.4568  -18.0134 C   0  0  0  0  0  0  0  0  0  0  0  0
   21.1636  -12.4083  -16.8850 O   0  0  0  0  0  0  0  0  0  0  0  0
   20.9627   -5.9714  -20.6504 C   0  0  0  0  0  0  0  0  0  0  0  0
   22.5453   -6.8968  -20.6324 S   0  0  0  0  0  0  0  0  0  0  0  0
   22.4729   -8.0053  -19.1785 C   0  0  0  0  0  0  0  0  0  0  0  0
   21.6799   -9.2257  -19.5697 C   0  0  0  0  0  0  0  0  0  0  0  0
   21.5975  -10.1743  -18.3500 C   0  0  2  0  0  0  0  0  0  0  0  0
   20.8822  -11.3446  -18.8627 N   0  0  0  0  0  0  0  0  0  0  0  0
   20.8998   -9.4393  -17.3091 C   0  0  0  0  0  0  0  0  0  0  0  0
   19.6255   -9.3999  -17.4062 O   0  0  0  0  0  0  0  0  0  0  0  0
   19.1722   -9.3195  -11.9051 C   0  0  0  0  0  0  0  0  0  0  0  0
   19.4562   -8.3761  -13.0543 C   0  0  0  0  0  0  0  0  0  0  0  0
   20.4200   -9.0588  -14.0048 C   0  0  2  0  0  0  0  0  0  0  0  0
   21.7360   -9.2688  -13.3313 C   0  0  0  0  0  0  0  0  0  0  0  0
   20.5981   -8.1378  -15.1973 C   0  0  2  0  0  0  0  0  0  0  0  0
   21.4528   -8.7637  -16.2026 N   0  0  0  0  0  0  0  0  0  0  0  0
   21.1824   -6.8442  -14.8375 C   0  0  0  0  0  0  0  0  0  0  0  0
   22.4776   -6.5524  -15.2662 O   0  0  0  0  0  0  0  0  0  0  0  0
   20.5437   -6.0241  -14.1673 O   0  0  0  0  0  0  0  0  0  0  0  0
  2  1  1  1
  3  2  1  0
  4  2  1  0
  4  5  1  6
  6  4  1  0
  6  7  2  0
  9  8  1  0
  9 10  1  0
 10 11  1  0
 12 11  1  6
 12 14  1  0
 13 12  1  0
 13  6  1  0
 14 15  2  0
 17 18  1  0
 17 16  1  0
 18 20  1  0
 18 19  1  1
 20 22  1  0
 21 14  1  0
 20 21  1  6
 22 24  2  0
 22 23  1  0
M  END
$$$$
