VMI.pdb
     RDKit          3D

 24 23  0  0  1  0  0  0  0  0999 V2000
   22.6256  -20.1221  -19.2229 C   0  0  0  0  0  0  0  0  0  0  0  0
   21.6976  -19.3280  -18.3388 C   0  0  2  0  0  0  0  0  0  0  0  0
   20.9897  -18.3059  -19.1981 C   0  0  0  0  0  0  0  0  0  0  0  0
   22.3565  -18.7156  -17.1367 C   0  0  2  0  0  0  0  0  0  0  0  0
   23.1301  -17.5605  -17.6519 N   0  0  0  0  0  0  0  0  0  0  0  0
   23.2197  -19.5975  -16.3614 C   0  0  0  0  0  0  0  0  0  0  0  0
   22.8378  -20.6436  -15.7719 O   0  0  0  0  0  0  0  0  0  0  0  0
   26.7921  -22.9844  -15.6850 C   0  0  0  0  0  0  0  0  0  0  0  0
   28.2905  -21.9282  -15.7026 S   0  0  0  0  0  0  0  0  0  0  0  0
   27.8539  -20.4061  -14.7861 C   0  0  0  0  0  0  0  0  0  0  0  0
   26.8870  -19.6202  -15.6339 C   0  0  0  0  0  0  0  0  0  0  0  0
   25.4504  -20.1052  -15.3251 C   0  0  2  0  0  0  0  0  0  0  0  0
   24.6106  -19.3115  -16.2243 N   0  0  0  0  0  0  0  0  0  0  0  0
   25.2332  -19.8591  -13.9099 C   0  0  0  0  0  0  0  0  0  0  0  0
   25.2023  -18.6324  -13.5507 O   0  0  0  0  0  0  0  0  0  0  0  0
   21.6643  -20.0288   -9.4298 C   0  0  0  0  0  0  0  0  0  0  0  0
   23.1289  -19.9111   -9.7936 C   0  0  0  0  0  0  0  0  0  0  0  0
   23.3310  -20.5282  -11.1636 C   0  0  2  0  0  0  0  0  0  0  0  0
   22.9625  -21.9748  -11.1296 C   0  0  0  0  0  0  0  0  0  0  0  0
   24.8024  -20.3842  -11.5050 C   0  0  2  0  0  0  0  0  0  0  0  0
   25.0507  -20.8052  -12.8812 N   0  0  0  0  0  0  0  0  0  0  0  0
   25.6725  -21.1630  -10.6215 C   0  0  0  0  0  0  0  0  0  0  0  0
   26.2196  -20.5383   -9.5003 O   0  0  0  0  0  0  0  0  0  0  0  0
   25.9196  -22.3509  -10.8608 O   0  0  0  0  0  0  0  0  0  0  0  0
  2  1  1  6
  3  2  1  0
  4  2  1  0
  4  5  1  6
  6  4  1  0
  6  7  2  0
  9  8  1  0
  9 10  1  0
 10 11  1  0
 12 11  1  6
 12 14  1  0
 13 12  1  0
 13  6  1  0
 14 15  2  0
 17 18  1  0
 17 16  1  0
 18 20  1  0
 18 19  1  1
 20 22  1  0
 21 14  1  0
 20 21  1  6
 22 24  2  0
 22 23  1  0
M  END
$$$$
