VMI.pdb
     RDKit          3D

 24 23  0  0  1  0  0  0  0  0999 V2000
   29.0842  -21.3289  -14.1898 C   0  0  0  0  0  0  0  0  0  0  0  0
   28.2681  -20.8087  -15.3459 C   0  0  2  0  0  0  0  0  0  0  0  0
   29.1723  -19.9711  -16.2206 C   0  0  0  0  0  0  0  0  0  0  0  0
   27.0161  -20.0827  -14.9464 C   0  0  2  0  0  0  0  0  0  0  0  0
   27.4715  -18.8152  -14.3265 N   0  0  0  0  0  0  0  0  0  0  0  0
   26.1235  -20.7964  -14.0420 C   0  0  0  0  0  0  0  0  0  0  0  0
   25.5123  -21.8614  -14.3247 O   0  0  0  0  0  0  0  0  0  0  0  0
   25.6344  -20.0865   -7.6241 C   0  0  0  0  0  0  0  0  0  0  0  0
   27.1900  -20.6096   -8.4411 S   0  0  0  0  0  0  0  0  0  0  0  0
   26.7395  -21.0641  -10.1552 C   0  0  0  0  0  0  0  0  0  0  0  0
   25.3550  -20.5324  -10.4232 C   0  0  0  0  0  0  0  0  0  0  0  0
   24.9228  -20.9705  -11.8429 C   0  0  2  0  0  0  0  0  0  0  0  0
   25.8848  -20.3054  -12.7240 N   0  0  0  0  0  0  0  0  0  0  0  0
   23.5460  -20.5350  -12.0017 C   0  0  0  0  0  0  0  0  0  0  0  0
   23.3245  -19.2902  -11.8114 O   0  0  0  0  0  0  0  0  0  0  0  0
   20.4504  -19.8001  -16.5648 C   0  0  0  0  0  0  0  0  0  0  0  0
   20.2140  -20.0398  -15.0889 C   0  0  0  0  0  0  0  0  0  0  0  0
   21.4942  -20.5798  -14.4825 C   0  0  2  0  0  0  0  0  0  0  0  0
   21.8086  -21.9181  -15.0655 C   0  0  0  0  0  0  0  0  0  0  0  0
   21.2579  -20.7160  -12.9899 C   0  0  2  0  0  0  0  0  0  0  0  0
   22.4216  -21.3141  -12.3413 N   0  0  0  0  0  0  0  0  0  0  0  0
   20.0836  -21.5300  -12.6696 C   0  0  0  0  0  0  0  0  0  0  0  0
   20.2776  -22.7980  -12.1208 O   0  0  0  0  0  0  0  0  0  0  0  0
   18.9411  -21.1056  -12.8798 O   0  0  0  0  0  0  0  0  0  0  0  0
  2  1  1  1
  3  2  1  0
  4  2  1  0
  4  5  1  1
  6  4  1  0
  6  7  2  0
  9  8  1  0
  9 10  1  0
 10 11  1  0
 12 11  1  1
 12 14  1  0
 13 12  1  0
 13  6  1  0
 14 15  2  0
 17 18  1  0
 17 16  1  0
 18 20  1  0
 18 19  1  6
 20 22  1  0
 21 14  1  0
 20 21  1  1
 22 24  2  0
 22 23  1  0
M  END
$$$$
