VMI.pdb
     RDKit          3D

 24 23  0  0  1  0  0  0  0  0999 V2000
   27.4608  -17.6557  -14.9872 C   0  0  0  0  0  0  0  0  0  0  0  0
   27.7615  -18.8432  -15.8663 C   0  0  2  0  0  0  0  0  0  0  0  0
   26.5999  -19.0326  -16.8144 C   0  0  0  0  0  0  0  0  0  0  0  0
   28.1079  -20.0983  -15.1188 C   0  0  2  0  0  0  0  0  0  0  0  0
   28.5540  -21.0657  -16.1501 N   0  0  0  0  0  0  0  0  0  0  0  0
   27.0421  -20.6763  -14.3100 C   0  0  0  0  0  0  0  0  0  0  0  0
   26.1046  -21.3896  -14.7571 O   0  0  0  0  0  0  0  0  0  0  0  0
   27.4373  -20.4072   -7.9802 C   0  0  0  0  0  0  0  0  0  0  0  0
   25.6061  -20.4773   -8.0326 S   0  0  0  0  0  0  0  0  0  0  0  0
   25.1631  -21.0130   -9.7250 C   0  0  0  0  0  0  0  0  0  0  0  0
   26.2033  -20.4650  -10.6679 C   0  0  0  0  0  0  0  0  0  0  0  0
   25.8962  -20.9770  -12.0955 C   0  0  2  0  0  0  0  0  0  0  0  0
   27.0030  -20.4573  -12.9009 N   0  0  0  0  0  0  0  0  0  0  0  0
   24.5875  -20.4511  -12.4436 C   0  0  0  0  0  0  0  0  0  0  0  0
   24.5047  -19.1805  -12.5598 O   0  0  0  0  0  0  0  0  0  0  0  0
   20.4912  -20.3682  -16.5359 C   0  0  0  0  0  0  0  0  0  0  0  0
   20.6835  -20.1492  -15.0505 C   0  0  0  0  0  0  0  0  0  0  0  0
   21.9661  -20.8388  -14.6289 C   0  0  2  0  0  0  0  0  0  0  0  0
   21.8236  -22.3172  -14.7835 C   0  0  0  0  0  0  0  0  0  0  0  0
   22.1964  -20.4982  -13.1684 C   0  0  2  0  0  0  0  0  0  0  0  0
   23.3952  -21.1676  -12.6710 N   0  0  0  0  0  0  0  0  0  0  0  0
   21.0706  -20.8728  -12.3103 C   0  0  0  0  0  0  0  0  0  0  0  0
   21.2056  -21.9825  -11.4755 O   0  0  0  0  0  0  0  0  0  0  0  0
   20.0196  -20.2210  -12.3222 O   0  0  0  0  0  0  0  0  0  0  0  0
  2  1  1  1
  3  2  1  0
  4  2  1  0
  4  5  1  6
  6  4  1  0
  6  7  2  0
  9  8  1  0
  9 10  1  0
 10 11  1  0
 12 11  1  1
 12 14  1  0
 13 12  1  0
 13  6  1  0
 14 15  2  0
 17 18  1  0
 17 16  1  0
 18 20  1  0
 18 19  1  1
 20 22  1  0
 21 14  1  0
 20 21  1  1
 22 24  2  0
 22 23  1  0
M  END
$$$$
