VMI.pdb
     RDKit          3D

 24 23  0  0  1  0  0  0  0  0999 V2000
   26.1321  -18.0183  -16.2888 C   0  0  0  0  0  0  0  0  0  0  0  0
   27.6271  -17.8243  -16.2639 C   0  0  2  0  0  0  0  0  0  0  0  0
   27.9941  -16.8569  -17.3655 C   0  0  0  0  0  0  0  0  0  0  0  0
   28.4204  -19.0975  -16.3248 C   0  0  2  0  0  0  0  0  0  0  0  0
   28.1088  -19.6980  -17.6441 N   0  0  0  0  0  0  0  0  0  0  0  0
   28.1697  -20.0593  -15.2589 C   0  0  0  0  0  0  0  0  0  0  0  0
   27.2424  -20.9124  -15.2618 O   0  0  0  0  0  0  0  0  0  0  0  0
   32.5088  -22.2508  -10.6104 C   0  0  0  0  0  0  0  0  0  0  0  0
   31.1029  -21.4953   -9.7082 S   0  0  0  0  0  0  0  0  0  0  0  0
   29.6447  -21.6644  -10.8002 C   0  0  0  0  0  0  0  0  0  0  0  0
   29.8884  -20.8229  -12.0265 C   0  0  0  0  0  0  0  0  0  0  0  0
   28.6533  -20.9284  -12.9527 C   0  0  2  0  0  0  0  0  0  0  0  0
   29.0025  -20.0898  -14.1010 N   0  0  0  0  0  0  0  0  0  0  0  0
   27.5200  -20.4583  -12.1748 C   0  0  0  0  0  0  0  0  0  0  0  0
   27.4525  -19.1955  -11.9860 O   0  0  0  0  0  0  0  0  0  0  0  0
   21.6922  -20.2120  -11.7948 C   0  0  0  0  0  0  0  0  0  0  0  0
   22.9697  -20.0613  -10.9968 C   0  0  0  0  0  0  0  0  0  0  0  0
   24.0758  -20.8009  -11.7233 C   0  0  2  0  0  0  0  0  0  0  0  0
   23.7645  -22.2604  -11.7736 C   0  0  0  0  0  0  0  0  0  0  0  0
   25.3533  -20.5784  -10.9354 C   0  0  2  0  0  0  0  0  0  0  0  0
   26.4826  -21.2214  -11.6019 N   0  0  0  0  0  0  0  0  0  0  0  0
   25.2757  -21.0896   -9.5655 C   0  0  0  0  0  0  0  0  0  0  0  0
   24.6720  -20.2972   -8.5886 O   0  0  0  0  0  0  0  0  0  0  0  0
   25.7348  -22.2009   -9.2762 O   0  0  0  0  0  0  0  0  0  0  0  0
  2  1  1  6
  3  2  1  0
  4  2  1  0
  4  5  1  6
  6  4  1  0
  6  7  2  0
  9  8  1  0
  9 10  1  0
 10 11  1  0
 12 11  1  1
 12 14  1  0
 13 12  1  0
 13  6  1  0
 14 15  2  0
 17 18  1  0
 17 16  1  0
 18 20  1  0
 18 19  1  1
 20 22  1  0
 21 14  1  0
 20 21  1  6
 22 24  2  0
 22 23  1  0
M  END
$$$$
