VMI.pdb
     RDKit          3D

 24 23  0  0  1  0  0  0  0  0999 V2000
   26.1348  -18.2782  -15.9062 C   0  0  0  0  0  0  0  0  0  0  0  0
   27.2639  -18.1788  -14.9119 C   0  0  2  0  0  0  0  0  0  0  0  0
   28.3635  -17.3467  -15.5307 C   0  0  0  0  0  0  0  0  0  0  0  0
   27.7584  -19.5001  -14.3985 C   0  0  2  0  0  0  0  0  0  0  0  0
   28.4009  -20.1629  -15.5587 N   0  0  0  0  0  0  0  0  0  0  0  0
   26.7525  -20.3747  -13.8091 C   0  0  0  0  0  0  0  0  0  0  0  0
   26.1713  -21.3146  -14.4144 O   0  0  0  0  0  0  0  0  0  0  0  0
   26.3697  -19.3383   -7.7582 C   0  0  0  0  0  0  0  0  0  0  0  0
   26.4720  -21.1576   -7.9606 S   0  0  0  0  0  0  0  0  0  0  0  0
   26.4794  -21.4719   -9.7630 C   0  0  0  0  0  0  0  0  0  0  0  0
   25.3318  -20.7052  -10.3682 C   0  0  0  0  0  0  0  0  0  0  0  0
   25.2734  -21.0154  -11.8831 C   0  0  2  0  0  0  0  0  0  0  0  0
   26.3552  -20.2072  -12.4492 N   0  0  0  0  0  0  0  0  0  0  0  0
   23.9394  -20.6452  -12.3232 C   0  0  0  0  0  0  0  0  0  0  0  0
   23.7003  -19.3915  -12.4003 O   0  0  0  0  0  0  0  0  0  0  0  0
   20.2284  -21.0173  -16.7749 C   0  0  0  0  0  0  0  0  0  0  0  0
   20.2876  -20.7469  -15.2866 C   0  0  0  0  0  0  0  0  0  0  0  0
   21.5836  -21.3209  -14.7489 C   0  0  2  0  0  0  0  0  0  0  0  0
   21.5878  -22.8055  -14.9087 C   0  0  0  0  0  0  0  0  0  0  0  0
   21.6512  -20.9659  -13.2753 C   0  0  2  0  0  0  0  0  0  0  0  0
   22.8736  -21.4967  -12.6778 N   0  0  0  0  0  0  0  0  0  0  0  0
   20.5086  -21.4731  -12.5127 C   0  0  0  0  0  0  0  0  0  0  0  0
   19.2980  -20.7830  -12.5824 O   0  0  0  0  0  0  0  0  0  0  0  0
   20.6106  -22.4924  -11.8199 O   0  0  0  0  0  0  0  0  0  0  0  0
  2  1  1  6
  3  2  1  0
  4  2  1  0
  4  5  1  6
  6  4  1  0
  6  7  2  0
  9  8  1  0
  9 10  1  0
 10 11  1  0
 12 11  1  1
 12 14  1  0
 13 12  1  0
 13  6  1  0
 14 15  2  0
 17 18  1  0
 17 16  1  0
 18 20  1  0
 18 19  1  1
 20 22  1  0
 21 14  1  0
 20 21  1  1
 22 24  2  0
 22 23  1  0
M  END
$$$$
