VMI.pdb
     RDKit          3D

 24 23  0  0  1  0  0  0  0  0999 V2000
   28.7554  -18.3785  -15.6265 C   0  0  0  0  0  0  0  0  0  0  0  0
   27.6912  -17.6428  -16.4010 C   0  0  2  0  0  0  0  0  0  0  0  0
   28.2379  -16.2852  -16.7779 C   0  0  0  0  0  0  0  0  0  0  0  0
   26.3630  -17.5585  -15.7063 C   0  0  2  0  0  0  0  0  0  0  0  0
   26.5170  -16.4998  -14.6798 N   0  0  0  0  0  0  0  0  0  0  0  0
   25.8814  -18.7904  -15.0944 C   0  0  0  0  0  0  0  0  0  0  0  0
   25.5575  -19.8305  -15.7276 O   0  0  0  0  0  0  0  0  0  0  0  0
   25.0687  -19.9114   -8.3485 C   0  0  0  0  0  0  0  0  0  0  0  0
   25.9380  -21.2748   -9.2125 S   0  0  0  0  0  0  0  0  0  0  0  0
   25.2612  -21.3168  -10.9119 C   0  0  0  0  0  0  0  0  0  0  0  0
   25.7004  -20.0572  -11.6131 C   0  0  0  0  0  0  0  0  0  0  0  0
   25.1683  -20.0881  -13.0658 C   0  0  2  0  0  0  0  0  0  0  0  0
   25.7474  -18.8905  -13.6777 N   0  0  0  0  0  0  0  0  0  0  0  0
   23.7189  -20.0847  -12.9684 C   0  0  0  0  0  0  0  0  0  0  0  0
   23.1836  -18.9887  -12.5850 O   0  0  0  0  0  0  0  0  0  0  0  0
   18.8911  -20.8439  -16.1507 C   0  0  0  0  0  0  0  0  0  0  0  0
   19.4079  -20.7427  -14.7315 C   0  0  0  0  0  0  0  0  0  0  0  0
   20.8995  -21.0129  -14.7467 C   0  0  2  0  0  0  0  0  0  0  0  0
   21.1627  -22.3862  -15.2705 C   0  0  0  0  0  0  0  0  0  0  0  0
   21.3859  -20.9114  -13.3131 C   0  0  2  0  0  0  0  0  0  0  0  0
   22.8267  -21.1402  -13.2454 N   0  0  0  0  0  0  0  0  0  0  0  0
   20.7262  -21.8637  -12.4175 C   0  0  0  0  0  0  0  0  0  0  0  0
   21.4581  -22.9518  -11.9411 O   0  0  0  0  0  0  0  0  0  0  0  0
   19.5442  -21.7100  -12.0877 O   0  0  0  0  0  0  0  0  0  0  0  0
  2  1  1  1
  3  2  1  0
  4  2  1  0
  4  5  1  1
  6  4  1  0
  6  7  2  0
  9  8  1  0
  9 10  1  0
 10 11  1  0
 12 11  1  1
 12 14  1  0
 13 12  1  0
 13  6  1  0
 14 15  2  0
 17 18  1  0
 17 16  1  0
 18 20  1  0
 18 19  1  1
 20 22  1  0
 21 14  1  0
 20 21  1  6
 22 24  2  0
 22 23  1  0
M  END
$$$$
