VMI.pdb
     RDKit          3D

 24 23  0  0  1  0  0  0  0  0999 V2000
   17.0397  -24.0782  -11.0661 C   0  0  0  0  0  0  0  0  0  0  0  0
   17.4304  -25.4687  -10.6334 C   0  0  2  0  0  0  0  0  0  0  0  0
   16.1830  -26.1842  -10.1682 C   0  0  0  0  0  0  0  0  0  0  0  0
   18.5363  -25.5166   -9.6191 C   0  0  2  0  0  0  0  0  0  0  0  0
   18.9628  -26.9354   -9.5618 N   0  0  0  0  0  0  0  0  0  0  0  0
   18.2024  -25.0342   -8.2850 C   0  0  0  0  0  0  0  0  0  0  0  0
   18.0118  -23.8259   -7.9826 O   0  0  0  0  0  0  0  0  0  0  0  0
   13.2148  -24.4897   -6.4407 C   0  0  0  0  0  0  0  0  0  0  0  0
   14.1223  -23.5646   -5.1438 S   0  0  0  0  0  0  0  0  0  0  0  0
   15.8977  -23.7059   -5.5626 C   0  0  0  0  0  0  0  0  0  0  0  0
   16.1245  -25.0761   -6.1478 C   0  0  0  0  0  0  0  0  0  0  0  0
   17.5941  -25.4871   -5.8907 C   0  0  2  0  0  0  0  0  0  0  0  0
   18.0639  -25.9483   -7.1985 N   0  0  0  0  0  0  0  0  0  0  0  0
   17.5562  -26.5096   -4.8595 C   0  0  0  0  0  0  0  0  0  0  0  0
   17.1470  -27.6639   -5.2269 O   0  0  0  0  0  0  0  0  0  0  0  0
   21.0592  -26.9890   -0.7402 C   0  0  0  0  0  0  0  0  0  0  0  0
   20.1348  -27.2424   -1.9117 C   0  0  0  0  0  0  0  0  0  0  0  0
   18.7143  -27.3272   -1.3887 C   0  0  2  0  0  0  0  0  0  0  0  0
   18.5815  -28.4912   -0.4629 C   0  0  0  0  0  0  0  0  0  0  0  0
   17.8079  -27.5238   -2.5894 C   0  0  2  0  0  0  0  0  0  0  0  0
   17.9161  -26.3888   -3.5021 N   0  0  0  0  0  0  0  0  0  0  0  0
   16.3998  -27.6858   -2.2215 C   0  0  0  0  0  0  0  0  0  0  0  0
   15.8514  -28.9687   -2.2216 O   0  0  0  0  0  0  0  0  0  0  0  0
   15.7075  -26.7076   -1.9161 O   0  0  0  0  0  0  0  0  0  0  0  0
  2  1  1  1
  3  2  1  0
  4  2  1  0
  4  5  1  1
  6  4  1  0
  6  7  2  0
  9  8  1  0
  9 10  1  0
 10 11  1  0
 12 11  1  6
 12 14  1  0
 13 12  1  0
 13  6  1  0
 14 15  2  0
 17 18  1  0
 17 16  1  0
 18 20  1  0
 18 19  1  1
 20 22  1  0
 21 14  1  0
 20 21  1  6
 22 24  2  0
 22 23  1  0
M  END
$$$$
