VMI.pdb
     RDKit          3D

 24 23  0  0  1  0  0  0  0  0999 V2000
   29.1522  -20.9509  -15.2613 C   0  0  0  0  0  0  0  0  0  0  0  0
   28.6024  -20.3224  -14.0059 C   0  0  2  0  0  0  0  0  0  0  0  0
   29.3041  -20.9462  -12.8216 C   0  0  0  0  0  0  0  0  0  0  0  0
   27.1068  -20.3777  -13.8864 C   0  0  2  0  0  0  0  0  0  0  0  0
   26.5855  -19.6746  -15.0832 N   0  0  0  0  0  0  0  0  0  0  0  0
   26.5400  -19.8012  -12.6738 C   0  0  0  0  0  0  0  0  0  0  0  0
   26.5306  -18.5720  -12.3967 O   0  0  0  0  0  0  0  0  0  0  0  0
   21.0852  -20.8939  -10.1962 C   0  0  0  0  0  0  0  0  0  0  0  0
   21.4762  -20.1128  -11.8081 S   0  0  0  0  0  0  0  0  0  0  0  0
   23.2690  -19.7490  -11.7785 C   0  0  0  0  0  0  0  0  0  0  0  0
   23.8556  -20.4257  -10.5664 C   0  0  0  0  0  0  0  0  0  0  0  0
   25.3566  -20.0611  -10.4738 C   0  0  2  0  0  0  0  0  0  0  0  0
   25.9338  -20.6375  -11.6898 N   0  0  0  0  0  0  0  0  0  0  0  0
   25.8406  -20.6414   -9.2331 C   0  0  0  0  0  0  0  0  0  0  0  0
   26.0363  -21.9049   -9.2419 O   0  0  0  0  0  0  0  0  0  0  0  0
   29.1509  -18.2834   -5.6084 C   0  0  0  0  0  0  0  0  0  0  0  0
   28.4845  -19.2757   -6.5373 C   0  0  0  0  0  0  0  0  0  0  0  0
   27.2440  -19.8127   -5.8509 C   0  0  2  0  0  0  0  0  0  0  0  0
   27.6303  -20.5844   -4.6323 C   0  0  0  0  0  0  0  0  0  0  0  0
   26.5502  -20.7320   -6.8387 C   0  0  2  0  0  0  0  0  0  0  0  0
   26.1233  -19.9846   -8.0185 N   0  0  0  0  0  0  0  0  0  0  0  0
   25.3791  -21.4020   -6.2697 C   0  0  0  0  0  0  0  0  0  0  0  0
   25.5724  -22.5512   -5.5026 O   0  0  0  0  0  0  0  0  0  0  0  0
   24.2399  -20.9610   -6.4630 O   0  0  0  0  0  0  0  0  0  0  0  0
  2  1  1  6
  3  2  1  0
  4  2  1  0
  4  5  1  6
  6  4  1  0
  6  7  2  0
  9  8  1  0
  9 10  1  0
 10 11  1  0
 12 11  1  6
 12 14  1  0
 13 12  1  0
 13  6  1  0
 14 15  2  0
 17 18  1  0
 17 16  1  0
 18 20  1  0
 18 19  1  1
 20 22  1  0
 21 14  1  0
 20 21  1  6
 22 24  2  0
 22 23  1  0
M  END
$$$$
