VMI.pdb
     RDKit          3D

 24 23  0  0  1  0  0  0  0  0999 V2000
   29.8421  -20.6717  -17.7522 C   0  0  0  0  0  0  0  0  0  0  0  0
   28.6314  -19.7779  -17.8462 C   0  0  2  0  0  0  0  0  0  0  0  0
   28.9091  -18.7181  -18.8873 C   0  0  0  0  0  0  0  0  0  0  0  0
   28.1837  -19.1976  -16.5359 C   0  0  2  0  0  0  0  0  0  0  0  0
   29.2227  -18.2078  -16.1630 N   0  0  0  0  0  0  0  0  0  0  0  0
   27.9787  -20.1492  -15.4512 C   0  0  0  0  0  0  0  0  0  0  0  0
   27.1373  -21.0870  -15.4651 O   0  0  0  0  0  0  0  0  0  0  0  0
   32.2421  -22.2180  -10.8735 C   0  0  0  0  0  0  0  0  0  0  0  0
   30.9140  -21.4333   -9.8828 S   0  0  0  0  0  0  0  0  0  0  0  0
   29.3971  -21.5190  -10.9022 C   0  0  0  0  0  0  0  0  0  0  0  0
   29.6395  -20.7180  -12.1556 C   0  0  0  0  0  0  0  0  0  0  0  0
   28.4096  -20.8656  -13.0829 C   0  0  2  0  0  0  0  0  0  0  0  0
   28.7591  -20.0676  -14.2598 N   0  0  0  0  0  0  0  0  0  0  0  0
   27.2696  -20.3747  -12.3282 C   0  0  0  0  0  0  0  0  0  0  0  0
   27.2122  -19.1091  -12.1557 O   0  0  0  0  0  0  0  0  0  0  0  0
   21.4400  -20.1953  -12.3557 C   0  0  0  0  0  0  0  0  0  0  0  0
   22.6566  -19.9763  -11.4819 C   0  0  0  0  0  0  0  0  0  0  0  0
   23.8386  -20.6730  -12.1267 C   0  0  2  0  0  0  0  0  0  0  0  0
   23.5598  -22.1342  -12.2555 C   0  0  0  0  0  0  0  0  0  0  0  0
   25.0333  -20.4595  -11.2161 C   0  0  2  0  0  0  0  0  0  0  0  0
   26.2158  -21.1201  -11.7621 N   0  0  0  0  0  0  0  0  0  0  0  0
   24.8126  -20.9600   -9.8578 C   0  0  0  0  0  0  0  0  0  0  0  0
   25.5530  -22.0589   -9.4209 O   0  0  0  0  0  0  0  0  0  0  0  0
   23.9875  -20.4221   -9.1099 O   0  0  0  0  0  0  0  0  0  0  0  0
  2  1  1  1
  3  2  1  0
  4  2  1  0
  4  5  1  1
  6  4  1  0
  6  7  2  0
  9  8  1  0
  9 10  1  0
 10 11  1  0
 12 11  1  1
 12 14  1  0
 13 12  1  0
 13  6  1  0
 14 15  2  0
 17 18  1  0
 17 16  1  0
 18 20  1  0
 18 19  1  1
 20 22  1  0
 21 14  1  0
 20 21  1  6
 22 24  2  0
 22 23  1  0
M  END
$$$$
