ILN.pdb
     RDKit          3D

 25 24  0  0  1  0  0  0  0  0999 V2000
   11.3191  -14.8407   30.5243 C   0  0  0  0  0  0  0  0  0  0  0  0
   10.3228  -15.8794   30.0660 C   0  0  0  0  0  0  0  0  0  0  0  0
   10.0166  -15.7603   28.6001 C   0  0  2  0  0  0  0  0  0  0  0  0
    9.7298  -14.3169   28.2841 C   0  0  0  0  0  0  0  0  0  0  0  0
    8.9766  -16.6988   28.0989 C   0  0  2  0  0  0  0  0  0  0  0  0
    9.3255  -18.0487   28.4253 N   0  0  0  0  0  0  0  0  0  0  0  0
    8.6396  -16.5433   26.6593 C   0  0  0  0  0  0  0  0  0  0  0  0
    8.6157  -17.5780   25.9539 O   0  0  0  0  0  0  0  0  0  0  0  0
    5.8681  -13.1830   26.3751 C   0  0  0  0  0  0  0  0  0  0  0  0
    7.2103  -12.8798   25.6651 C   0  0  2  0  0  0  0  0  0  0  0  0
    7.2251  -11.4252   25.4136 C   0  0  0  0  0  0  0  0  0  0  0  0
    7.3628  -13.7626   24.5009 C   0  0  0  0  0  0  0  0  0  0  0  0
    7.9367  -15.1118   24.6668 C   0  0  2  0  0  0  0  0  0  0  0  0
    8.3510  -15.2900   26.0724 N   0  0  0  0  0  0  0  0  0  0  0  0
    9.1219  -15.4255   23.8406 C   0  0  0  0  0  0  0  0  0  0  0  0
    9.0064  -15.5679   22.5674 O   0  0  0  0  0  0  0  0  0  0  0  0
   13.9403  -15.9623   21.7966 N   0  0  0  0  0  0  0  0  0  0  0  0
   14.0152  -15.3646   23.0957 C   0  0  0  0  0  0  0  0  0  0  0  0
   15.1511  -15.0001   23.4603 O   0  0  0  0  0  0  0  0  0  0  0  0
   12.8128  -15.2058   23.9202 C   0  0  0  0  0  0  0  0  0  0  0  0
   11.5777  -15.8765   23.4291 C   0  0  2  0  0  0  0  0  0  0  0  0
   10.4393  -15.5932   24.3112 N   0  0  0  0  0  0  0  0  0  0  0  0
   11.7814  -17.3603   23.4267 C   0  0  0  0  0  0  0  0  0  0  0  0
   12.6677  -17.8837   22.6617 O   0  0  0  0  0  0  0  0  0  0  0  0
   11.0853  -18.2610   24.1954 O   0  0  0  0  0  0  0  0  0  0  0  0
  2  1  1  0
  2  3  1  0
  3  5  1  0
  3  4  1  1
  5  7  1  0
  5  6  1  6
  7  8  2  0
 10  9  1  6
 10 12  1  0
 11 10  1  0
 13 12  1  1
 14  7  1  0
 14 13  1  0
 15 16  2  0
 15 13  1  0
 17 18  1  0
 18 19  2  0
 18 20  1  0
 21 20  1  1
 21 22  1  0
 22 15  1  0
 23 25  1  0
 23 21  1  0
 24 23  2  0
M  END
$$$$
