ILN.pdb
     RDKit          3D

 25 24  0  0  1  0  0  0  0  0999 V2000
    7.3165  -12.2668   18.9183 C   0  0  0  0  0  0  0  0  0  0  0  0
    7.2508  -13.5916   19.6409 C   0  0  0  0  0  0  0  0  0  0  0  0
    8.3625  -13.7462   20.6394 C   0  0  2  0  0  0  0  0  0  0  0  0
    9.6754  -13.5354   19.9341 C   0  0  0  0  0  0  0  0  0  0  0  0
    8.3118  -14.9959   21.4451 C   0  0  2  0  0  0  0  0  0  0  0  0
    6.9915  -15.5496   21.4223 N   0  0  0  0  0  0  0  0  0  0  0  0
    8.8370  -14.8654   22.8298 C   0  0  0  0  0  0  0  0  0  0  0  0
   10.0552  -14.6075   22.9665 O   0  0  0  0  0  0  0  0  0  0  0  0
    7.7415  -11.9915   26.2969 C   0  0  0  0  0  0  0  0  0  0  0  0
    6.7261  -13.1227   26.0019 C   0  0  2  0  0  0  0  0  0  0  0  0
    5.5283  -12.8239   26.8114 C   0  0  0  0  0  0  0  0  0  0  0  0
    7.3673  -14.4277   26.2106 C   0  0  0  0  0  0  0  0  0  0  0  0
    8.5004  -14.8389   25.3595 C   0  0  2  0  0  0  0  0  0  0  0  0
    8.0223  -15.0199   23.9747 N   0  0  0  0  0  0  0  0  0  0  0  0
    9.1776  -16.0986   25.7340 C   0  0  0  0  0  0  0  0  0  0  0  0
    9.6237  -16.2653   26.9289 O   0  0  0  0  0  0  0  0  0  0  0  0
    8.9712  -19.8669   22.0984 N   0  0  0  0  0  0  0  0  0  0  0  0
    9.0791  -19.8190   23.5255 C   0  0  0  0  0  0  0  0  0  0  0  0
    8.0738  -20.1993   24.1585 O   0  0  0  0  0  0  0  0  0  0  0  0
   10.3087  -19.3471   24.1706 C   0  0  0  0  0  0  0  0  0  0  0  0
   10.1407  -18.3993   25.3065 C   0  0  2  0  0  0  0  0  0  0  0  0
    9.4013  -17.2025   24.8876 N   0  0  0  0  0  0  0  0  0  0  0  0
   11.4863  -17.9475   25.7843 C   0  0  0  0  0  0  0  0  0  0  0  0
   12.1380  -17.0644   25.1208 O   0  0  0  0  0  0  0  0  0  0  0  0
   12.1245  -18.4015   26.9127 O   0  0  0  0  0  0  0  0  0  0  0  0
  2  1  1  0
  2  3  1  0
  3  5  1  0
  3  4  1  6
  5  7  1  0
  5  6  1  1
  7  8  2  0
 10  9  1  1
 10 12  1  0
 11 10  1  0
 13 12  1  1
 14  7  1  0
 14 13  1  0
 15 16  2  0
 15 13  1  0
 17 18  1  0
 18 19  2  0
 18 20  1  0
 21 20  1  6
 21 22  1  0
 22 15  1  0
 23 25  1  0
 23 21  1  0
 24 23  2  0
M  END
$$$$
