ILN.pdb
     RDKit          3D

 25 24  0  0  1  0  0  0  0  0999 V2000
    7.1866  -11.3930   27.6291 C   0  0  0  0  0  0  0  0  0  0  0  0
    7.6512  -12.8132   27.4077 C   0  0  0  0  0  0  0  0  0  0  0  0
    7.2032  -13.3535   26.0795 C   0  0  2  0  0  0  0  0  0  0  0  0
    5.7100  -13.1957   25.9748 C   0  0  0  0  0  0  0  0  0  0  0  0
    7.6813  -14.7276   25.7685 C   0  0  2  0  0  0  0  0  0  0  0  0
    8.9337  -14.9774   26.4162 N   0  0  0  0  0  0  0  0  0  0  0  0
    7.7282  -15.0572   24.3196 C   0  0  0  0  0  0  0  0  0  0  0  0
    7.0116  -16.0019   23.9158 O   0  0  0  0  0  0  0  0  0  0  0  0
    8.5930  -11.8056   19.2792 C   0  0  0  0  0  0  0  0  0  0  0  0
    8.3876  -13.2571   19.7777 C   0  0  2  0  0  0  0  0  0  0  0  0
    7.1122  -13.7176   19.1941 C   0  0  0  0  0  0  0  0  0  0  0  0
    8.5081  -13.2975   21.2412 C   0  0  0  0  0  0  0  0  0  0  0  0
    8.5394  -14.5943   21.9445 C   0  0  2  0  0  0  0  0  0  0  0  0
    8.5396  -14.3530   23.4008 N   0  0  0  0  0  0  0  0  0  0  0  0
    9.7033  -15.4623   21.6663 C   0  0  0  0  0  0  0  0  0  0  0  0
    9.8256  -16.0372   20.5221 O   0  0  0  0  0  0  0  0  0  0  0  0
   13.0201  -14.3947   19.3424 N   0  0  0  0  0  0  0  0  0  0  0  0
   13.5058  -15.2833   20.3548 C   0  0  0  0  0  0  0  0  0  0  0  0
   14.3825  -16.0927   19.9909 O   0  0  0  0  0  0  0  0  0  0  0  0
   12.9840  -15.2195   21.7239 C   0  0  0  0  0  0  0  0  0  0  0  0
   12.0454  -16.3023   22.1277 C   0  0  2  0  0  0  0  0  0  0  0  0
   10.7564  -15.7474   22.5579 N   0  0  0  0  0  0  0  0  0  0  0  0
   12.6179  -17.0529   23.2904 C   0  0  0  0  0  0  0  0  0  0  0  0
   11.9881  -17.0807   24.4073 O   0  0  0  0  0  0  0  0  0  0  0  0
   13.8027  -17.7479   23.2843 O   0  0  0  0  0  0  0  0  0  0  0  0
  2  1  1  0
  2  3  1  0
  3  5  1  0
  3  4  1  1
  5  7  1  0
  5  6  1  6
  7  8  2  0
 10  9  1  1
 10 12  1  0
 11 10  1  0
 13 12  1  6
 14  7  1  0
 14 13  1  0
 15 16  2  0
 15 13  1  0
 17 18  1  0
 18 19  2  0
 18 20  1  0
 21 20  1  1
 21 22  1  0
 22 15  1  0
 23 25  1  0
 23 21  1  0
 24 23  2  0
M  END
$$$$
