ILN.pdb
     RDKit          3D

 25 24  0  0  1  0  0  0  0  0999 V2000
    7.7108  -12.0395   19.1604 C   0  0  0  0  0  0  0  0  0  0  0  0
    7.3225  -13.3393   19.8250 C   0  0  0  0  0  0  0  0  0  0  0  0
    8.3586  -13.8020   20.8094 C   0  0  2  0  0  0  0  0  0  0  0  0
    9.6884  -13.8777   20.1085 C   0  0  0  0  0  0  0  0  0  0  0  0
    8.0056  -15.0401   21.5551 C   0  0  2  0  0  0  0  0  0  0  0  0
    6.6224  -15.3581   21.3655 N   0  0  0  0  0  0  0  0  0  0  0  0
    8.3825  -15.0294   22.9932 C   0  0  0  0  0  0  0  0  0  0  0  0
    9.6018  -15.0890   23.2740 O   0  0  0  0  0  0  0  0  0  0  0  0
    7.9822  -11.9792   26.2627 C   0  0  0  0  0  0  0  0  0  0  0  0
    6.6442  -12.6813   25.9246 C   0  0  2  0  0  0  0  0  0  0  0  0
    5.5952  -11.9469   26.6592 C   0  0  0  0  0  0  0  0  0  0  0  0
    6.7629  -14.1217   26.1877 C   0  0  0  0  0  0  0  0  0  0  0  0
    7.7715  -14.9236   25.4688 C   0  0  2  0  0  0  0  0  0  0  0  0
    7.4282  -14.9557   24.0335 N   0  0  0  0  0  0  0  0  0  0  0  0
    7.9133  -16.3322   25.8945 C   0  0  0  0  0  0  0  0  0  0  0  0
    6.8704  -17.0447   26.1382 O   0  0  0  0  0  0  0  0  0  0  0  0
    8.1990  -21.5170   24.5665 N   0  0  0  0  0  0  0  0  0  0  0  0
    9.2626  -20.6197   24.9041 C   0  0  0  0  0  0  0  0  0  0  0  0
   10.3554  -21.1537   25.1811 O   0  0  0  0  0  0  0  0  0  0  0  0
    9.0472  -19.1691   24.9142 C   0  0  0  0  0  0  0  0  0  0  0  0
    9.2030  -18.4840   26.2268 C   0  0  2  0  0  0  0  0  0  0  0  0
    9.1265  -17.0264   26.0714 N   0  0  0  0  0  0  0  0  0  0  0  0
   10.5499  -18.8011   26.8000 C   0  0  0  0  0  0  0  0  0  0  0  0
   10.6726  -19.7400   27.6650 O   0  0  0  0  0  0  0  0  0  0  0  0
   11.7224  -18.1613   26.4799 O   0  0  0  0  0  0  0  0  0  0  0  0
  2  1  1  0
  2  3  1  0
  3  5  1  0
  3  4  1  6
  5  7  1  0
  5  6  1  1
  7  8  2  0
 10  9  1  1
 10 12  1  0
 11 10  1  0
 13 12  1  1
 14  7  1  0
 14 13  1  0
 15 16  2  0
 15 13  1  0
 17 18  1  0
 18 19  2  0
 18 20  1  0
 21 20  1  6
 21 22  1  0
 22 15  1  0
 23 25  1  0
 23 21  1  0
 24 23  2  0
M  END
$$$$
