ILN.pdb
     RDKit          3D

 25 24  0  0  1  0  0  0  0  0999 V2000
    7.1596  -12.6135   18.9569 C   0  0  0  0  0  0  0  0  0  0  0  0
    7.2031  -13.9361   19.6854 C   0  0  0  0  0  0  0  0  0  0  0  0
    8.2355  -13.9463   20.7767 C   0  0  2  0  0  0  0  0  0  0  0  0
    9.5810  -13.6533   20.1689 C   0  0  0  0  0  0  0  0  0  0  0  0
    8.2220  -15.1573   21.6408 C   0  0  2  0  0  0  0  0  0  0  0  0
    6.9299  -15.7738   21.6136 N   0  0  0  0  0  0  0  0  0  0  0  0
    8.7044  -14.9364   23.0296 C   0  0  0  0  0  0  0  0  0  0  0  0
    9.9222  -14.6901   23.1886 O   0  0  0  0  0  0  0  0  0  0  0  0
    7.8682  -11.7260   26.1695 C   0  0  0  0  0  0  0  0  0  0  0  0
    6.7478  -12.7594   25.8967 C   0  0  2  0  0  0  0  0  0  0  0  0
    5.5362  -12.2399   26.5612 C   0  0  0  0  0  0  0  0  0  0  0  0
    7.2057  -14.0986   26.2902 C   0  0  0  0  0  0  0  0  0  0  0  0
    8.2939  -14.7569   25.5421 C   0  0  2  0  0  0  0  0  0  0  0  0
    7.8500  -14.9941   24.1544 N   0  0  0  0  0  0  0  0  0  0  0  0
    8.7493  -16.0636   26.0625 C   0  0  0  0  0  0  0  0  0  0  0  0
    9.1134  -16.1820   27.2905 O   0  0  0  0  0  0  0  0  0  0  0  0
    5.9968  -19.3017   24.8020 N   0  0  0  0  0  0  0  0  0  0  0  0
    6.9732  -19.5323   25.8237 C   0  0  0  0  0  0  0  0  0  0  0  0
    6.5310  -19.6175   26.9871 O   0  0  0  0  0  0  0  0  0  0  0  0
    8.3958  -19.6556   25.4896 C   0  0  0  0  0  0  0  0  0  0  0  0
    9.2774  -18.5341   25.9157 C   0  0  2  0  0  0  0  0  0  0  0  0
    8.8328  -17.2640   25.3295 N   0  0  0  0  0  0  0  0  0  0  0  0
   10.6730  -18.7836   25.4329 C   0  0  0  0  0  0  0  0  0  0  0  0
   11.1876  -18.0203   24.5400 O   0  0  0  0  0  0  0  0  0  0  0  0
   11.4981  -19.7918   25.8682 O   0  0  0  0  0  0  0  0  0  0  0  0
  2  1  1  0
  2  3  1  0
  3  5  1  0
  3  4  1  6
  5  7  1  0
  5  6  1  1
  7  8  2  0
 10  9  1  1
 10 12  1  0
 11 10  1  0
 13 12  1  1
 14  7  1  0
 14 13  1  0
 15 16  2  0
 15 13  1  0
 17 18  1  0
 18 19  2  0
 18 20  1  0
 21 20  1  6
 21 22  1  0
 22 15  1  0
 23 25  1  0
 23 21  1  0
 24 23  2  0
M  END
$$$$
