ILN.pdb
     RDKit          3D

 25 24  0  0  1  0  0  0  0  0999 V2000
    7.9755  -18.6931   19.4964 C   0  0  0  0  0  0  0  0  0  0  0  0
    8.2790  -17.2412   19.7821 C   0  0  0  0  0  0  0  0  0  0  0  0
    8.4491  -16.9781   21.2513 C   0  0  2  0  0  0  0  0  0  0  0  0
    7.3186  -17.6399   21.9927 C   0  0  0  0  0  0  0  0  0  0  0  0
    8.6440  -15.5482   21.6134 C   0  0  2  0  0  0  0  0  0  0  0  0
    9.6288  -14.9494   20.7638 N   0  0  0  0  0  0  0  0  0  0  0  0
    8.9268  -15.3035   23.0523 C   0  0  0  0  0  0  0  0  0  0  0  0
   10.1252  -15.3058   23.4166 O   0  0  0  0  0  0  0  0  0  0  0  0
    7.9326  -11.7949   26.0062 C   0  0  0  0  0  0  0  0  0  0  0  0
    6.7246  -12.6793   25.6111 C   0  0  2  0  0  0  0  0  0  0  0  0
    5.5327  -12.0376   26.2000 C   0  0  0  0  0  0  0  0  0  0  0  0
    6.9901  -14.0739   25.9888 C   0  0  0  0  0  0  0  0  0  0  0  0
    8.1577  -14.7816   25.4291 C   0  0  2  0  0  0  0  0  0  0  0  0
    7.9071  -15.0730   24.0038 N   0  0  0  0  0  0  0  0  0  0  0  0
    8.5075  -16.0709   26.0623 C   0  0  0  0  0  0  0  0  0  0  0  0
    8.7615  -16.1277   27.3220 O   0  0  0  0  0  0  0  0  0  0  0  0
    6.1906  -18.8734   26.2123 N   0  0  0  0  0  0  0  0  0  0  0  0
    6.9656  -19.8437   25.4994 C   0  0  0  0  0  0  0  0  0  0  0  0
    6.3174  -20.7516   24.9410 O   0  0  0  0  0  0  0  0  0  0  0  0
    8.4281  -19.7472   25.4485 C   0  0  0  0  0  0  0  0  0  0  0  0
    9.0365  -18.5455   26.0829 C   0  0  2  0  0  0  0  0  0  0  0  0
    8.5972  -17.3169   25.4106 N   0  0  0  0  0  0  0  0  0  0  0  0
   10.5273  -18.6140   25.9569 C   0  0  0  0  0  0  0  0  0  0  0  0
   11.1765  -19.5544   26.5391 O   0  0  0  0  0  0  0  0  0  0  0  0
   11.3080  -17.7332   25.2488 O   0  0  0  0  0  0  0  0  0  0  0  0
  2  1  1  0
  2  3  1  0
  3  5  1  0
  3  4  1  1
  5  7  1  0
  5  6  1  6
  7  8  2  0
 10  9  1  1
 10 12  1  0
 11 10  1  0
 13 12  1  1
 14  7  1  0
 14 13  1  0
 15 16  2  0
 15 13  1  0
 17 18  1  0
 18 19  2  0
 18 20  1  0
 21 20  1  6
 21 22  1  0
 22 15  1  0
 23 25  1  0
 23 21  1  0
 24 23  2  0
M  END
$$$$
