ILN.pdb
     RDKit          3D

 25 24  0  0  1  0  0  0  0  0999 V2000
    8.2818  -19.8262   19.9964 C   0  0  0  0  0  0  0  0  0  0  0  0
    8.0365  -18.3447   19.8333 C   0  0  0  0  0  0  0  0  0  0  0  0
    8.3682  -17.5764   21.0809 C   0  0  2  0  0  0  0  0  0  0  0  0
    7.7127  -18.2561   22.2530 C   0  0  0  0  0  0  0  0  0  0  0  0
    8.0948  -16.1158   21.0087 C   0  0  2  0  0  0  0  0  0  0  0  0
    8.5933  -15.5762   19.7796 N   0  0  0  0  0  0  0  0  0  0  0  0
    8.5580  -15.3369   22.1872 C   0  0  0  0  0  0  0  0  0  0  0  0
    9.7678  -15.0153   22.2312 O   0  0  0  0  0  0  0  0  0  0  0  0
    5.6056  -12.3738   26.7514 C   0  0  0  0  0  0  0  0  0  0  0  0
    7.0188  -12.7252   26.2251 C   0  0  2  0  0  0  0  0  0  0  0  0
    7.7620  -11.4516   26.1552 C   0  0  0  0  0  0  0  0  0  0  0  0
    6.9036  -13.5026   24.9841 C   0  0  0  0  0  0  0  0  0  0  0  0
    8.1039  -14.1118   24.3796 C   0  0  2  0  0  0  0  0  0  0  0  0
    7.6944  -14.9550   23.2392 N   0  0  0  0  0  0  0  0  0  0  0  0
    8.9169  -14.9737   25.2637 C   0  0  0  0  0  0  0  0  0  0  0  0
    9.5084  -14.4751   26.2914 O   0  0  0  0  0  0  0  0  0  0  0  0
   10.6709  -18.3273   28.5645 N   0  0  0  0  0  0  0  0  0  0  0  0
    9.4671  -18.7767   27.9325 C   0  0  0  0  0  0  0  0  0  0  0  0
    8.7948  -19.6081   28.5753 O   0  0  0  0  0  0  0  0  0  0  0  0
    9.0780  -18.2716   26.6119 C   0  0  0  0  0  0  0  0  0  0  0  0
    9.9041  -17.1656   26.0544 C   0  0  2  0  0  0  0  0  0  0  0  0
    9.1292  -16.3575   25.1051 N   0  0  0  0  0  0  0  0  0  0  0  0
   11.0679  -17.7387   25.3058 C   0  0  0  0  0  0  0  0  0  0  0  0
   11.9561  -18.4224   25.9291 O   0  0  0  0  0  0  0  0  0  0  0  0
   11.2928  -17.6025   23.9577 O   0  0  0  0  0  0  0  0  0  0  0  0
  2  1  1  0
  2  3  1  0
  3  5  1  0
  3  4  1  1
  5  7  1  0
  5  6  1  6
  7  8  2  0
 10  9  1  6
 10 12  1  0
 11 10  1  0
 13 12  1  1
 14  7  1  0
 14 13  1  0
 15 16  2  0
 15 13  1  0
 17 18  1  0
 18 19  2  0
 18 20  1  0
 21 20  1  6
 21 22  1  0
 22 15  1  0
 23 25  1  0
 23 21  1  0
 24 23  2  0
M  END
$$$$
