ILN.pdb
     RDKit          3D

 25 24  0  0  1  0  0  0  0  0999 V2000
    7.0273  -21.0967   25.2333 C   0  0  0  0  0  0  0  0  0  0  0  0
    7.1653  -19.9633   24.2442 C   0  0  0  0  0  0  0  0  0  0  0  0
    5.9502  -19.0801   24.2241 C   0  0  2  0  0  0  0  0  0  0  0  0
    4.7488  -19.9223   23.8884 C   0  0  0  0  0  0  0  0  0  0  0  0
    6.0769  -17.8592   23.3833 C   0  0  2  0  0  0  0  0  0  0  0  0
    6.1429  -18.2138   21.9976 N   0  0  0  0  0  0  0  0  0  0  0  0
    7.1805  -16.9441   23.7771 C   0  0  0  0  0  0  0  0  0  0  0  0
    8.2394  -16.9913   23.1097 O   0  0  0  0  0  0  0  0  0  0  0  0
    7.2852  -12.1431   24.5878 C   0  0  0  0  0  0  0  0  0  0  0  0
    6.5809  -13.0811   25.5987 C   0  0  2  0  0  0  0  0  0  0  0  0
    5.9071  -12.2036   26.5761 C   0  0  0  0  0  0  0  0  0  0  0  0
    7.5481  -14.0529   26.1262 C   0  0  0  0  0  0  0  0  0  0  0  0
    8.1281  -15.0762   25.2353 C   0  0  2  0  0  0  0  0  0  0  0  0
    7.0754  -16.0403   24.8589 N   0  0  0  0  0  0  0  0  0  0  0  0
    9.2426  -15.8728   25.7910 C   0  0  0  0  0  0  0  0  0  0  0  0
    9.1899  -16.3074   27.0005 O   0  0  0  0  0  0  0  0  0  0  0  0
    9.9331  -19.6789   27.7617 N   0  0  0  0  0  0  0  0  0  0  0  0
   10.9089  -19.4890   26.7311 C   0  0  0  0  0  0  0  0  0  0  0  0
   11.9822  -20.1073   26.8798 O   0  0  0  0  0  0  0  0  0  0  0  0
   10.6322  -18.6157   25.5859 C   0  0  0  0  0  0  0  0  0  0  0  0
   11.3232  -17.2970   25.5745 C   0  0  2  0  0  0  0  0  0  0  0  0
   10.4220  -16.2353   25.1107 N   0  0  0  0  0  0  0  0  0  0  0  0
   12.4800  -17.3464   24.6245 C   0  0  0  0  0  0  0  0  0  0  0  0
   13.6342  -16.9314   24.9990 O   0  0  0  0  0  0  0  0  0  0  0  0
   12.4309  -17.8127   23.3335 O   0  0  0  0  0  0  0  0  0  0  0  0
  2  1  1  0
  2  3  1  0
  3  5  1  0
  3  4  1  6
  5  7  1  0
  5  6  1  6
  7  8  2  0
 10  9  1  6
 10 12  1  0
 11 10  1  0
 13 12  1  1
 14  7  1  0
 14 13  1  0
 15 16  2  0
 15 13  1  0
 17 18  1  0
 18 19  2  0
 18 20  1  0
 21 20  1  6
 21 22  1  0
 22 15  1  0
 23 25  1  0
 23 21  1  0
 24 23  2  0
M  END
$$$$
