NRD.pdb
     RDKit          3D

 28 27  0  0  1  0  0  0  0  0999 V2000
    6.6877  -19.7896   28.2759 N   0  0  0  0  0  0  0  0  0  0  0  0
    7.8195  -20.3856   27.6688 C   0  0  0  0  0  0  0  0  0  0  0  0
    8.6571  -20.9702   28.3975 O   0  0  0  0  0  0  0  0  0  0  0  0
    8.0251  -20.3306   26.2169 C   0  0  0  0  0  0  0  0  0  0  0  0
    6.8662  -19.5951   25.5765 C   0  0  2  0  0  0  0  0  0  0  0  0
    5.9823  -20.5404   24.9133 N   0  0  0  0  0  0  0  0  0  0  0  0
    7.3183  -18.6095   24.5823 C   0  0  0  0  0  0  0  0  0  0  0  0
    7.9862  -18.9489   23.5774 O   0  0  0  0  0  0  0  0  0  0  0  0
    7.9680  -14.6912   18.9442 N   0  0  0  0  0  0  0  0  0  0  0  0
    7.9513  -13.3984   19.5293 C   0  0  0  0  0  0  0  0  0  0  0  0
    7.9160  -12.3801   18.7526 N   0  0  0  0  0  0  0  0  0  0  0  0
    7.9733  -13.2053   20.9223 N   0  0  0  0  0  0  0  0  0  0  0  0
    7.4678  -14.2249   21.8344 C   0  0  0  0  0  0  0  0  0  0  0  0
    7.5624  -13.7608   23.2672 C   0  0  0  0  0  0  0  0  0  0  0  0
    6.8896  -14.8387   24.1172 C   0  0  0  0  0  0  0  0  0  0  0  0
    7.5474  -16.1666   23.9661 C   0  0  2  0  0  0  0  0  0  0  0  0
    7.0192  -17.2331   24.7156 N   0  0  0  0  0  0  0  0  0  0  0  0
    8.9818  -16.0022   24.3128 C   0  0  0  0  0  0  0  0  0  0  0  0
    9.2815  -15.4324   25.3932 O   0  0  0  0  0  0  0  0  0  0  0  0
    7.9225  -11.3863   19.0602 N   0  0  0  0  0  0  0  0  0  0  0  0
   10.0284  -16.4681   23.4626 C   0  0  1  0  0  0  0  0  0  0  0  0
   11.4224  -16.4184   23.8125 C   0  0  0  0  0  0  0  0  0  0  0  0
   11.8522  -17.6783   24.4957 C   0  0  0  0  0  0  0  0  0  0  0  0
   13.1016  -17.5703   25.2483 O   0  0  0  0  0  0  0  0  0  0  0  0
   13.7008  -16.4646   25.2435 C   0  0  0  0  0  0  0  0  0  0  0  0
   12.2886  -16.0531   22.6719 O   0  0  0  0  0  0  0  0  0  0  0  0
   11.6648  -15.8329   21.4504 O   0  0  0  0  0  0  0  0  0  0  0  0
   13.6965  -18.5891   25.9782 O   0  0  0  0  0  0  0  0  0  0  0  0
  2  3  2  0
  2  1  1  0
  4  2  1  0
  5  6  1  6
  5  4  1  0
  7  5  1  0
  8  7  2  0
 10  9  1  0
 10 12  1  0
 11 10  2  0
 12 13  1  0
 13 14  1  0
 16 15  1  1
 15 14  1  0
 16 17  1  0
 17  7  1  0
 18 20  1  0
 18 16  1  0
 19 18  2  0
 21 25  1  0
 21 20  1  0
 21 22  1  6
 23 22  1  0
 24 23  2  0
 25 26  1  0
 27 23  1  0
 28 25  2  0
M  END
$$$$
