NRD.pdb
     RDKit          3D

 28 27  0  0  1  0  0  0  0  0999 V2000
   14.7819  -13.3658   15.6017 N   0  0  0  0  0  0  0  0  0  0  0  0
   15.2320  -13.7039   16.9008 C   0  0  0  0  0  0  0  0  0  0  0  0
   16.4077  -14.1187   17.0429 O   0  0  0  0  0  0  0  0  0  0  0  0
   14.3544  -13.5777   18.0701 C   0  0  0  0  0  0  0  0  0  0  0  0
   13.9881  -14.9596   18.5702 C   0  0  2  0  0  0  0  0  0  0  0  0
   13.0129  -15.5688   17.6799 N   0  0  0  0  0  0  0  0  0  0  0  0
   13.4174  -14.9239   19.9257 C   0  0  0  0  0  0  0  0  0  0  0  0
   14.0909  -14.5446   20.9123 O   0  0  0  0  0  0  0  0  0  0  0  0
    7.3388  -12.1109   19.1737 N   0  0  0  0  0  0  0  0  0  0  0  0
    7.7839  -13.1710   18.3418 C   0  0  0  0  0  0  0  0  0  0  0  0
    8.4681  -12.8788   17.2987 N   0  0  0  0  0  0  0  0  0  0  0  0
    7.4977  -14.5183   18.6261 N   0  0  0  0  0  0  0  0  0  0  0  0
    8.0318  -15.1691   19.8170 C   0  0  0  0  0  0  0  0  0  0  0  0
    9.2893  -14.4812   20.2887 C   0  0  0  0  0  0  0  0  0  0  0  0
    9.9080  -15.3899   21.3510 C   0  0  0  0  0  0  0  0  0  0  0  0
   11.3917  -15.2675   21.4016 C   0  0  2  0  0  0  0  0  0  0  0  0
   12.0814  -15.3162   20.1769 N   0  0  0  0  0  0  0  0  0  0  0  0
   11.9042  -16.3471   22.2828 C   0  0  0  0  0  0  0  0  0  0  0  0
   11.8139  -17.5396   21.8936 O   0  0  0  0  0  0  0  0  0  0  0  0
    8.7977  -13.5586   16.5836 N   0  0  0  0  0  0  0  0  0  0  0  0
   12.4939  -16.0766   23.5533 C   0  0  1  0  0  0  0  0  0  0  0  0
   12.8912  -17.0996   24.4827 C   0  0  0  0  0  0  0  0  0  0  0  0
   14.2527  -16.8239   25.0386 C   0  0  0  0  0  0  0  0  0  0  0  0
   15.3304  -16.8325   24.0498 O   0  0  0  0  0  0  0  0  0  0  0  0
   15.0288  -17.0523   22.8487 C   0  0  0  0  0  0  0  0  0  0  0  0
   11.8779  -17.3507   25.5290 O   0  0  0  0  0  0  0  0  0  0  0  0
   12.1400  -18.3760   26.4288 O   0  0  0  0  0  0  0  0  0  0  0  0
   16.6747  -16.6176   24.3169 O   0  0  0  0  0  0  0  0  0  0  0  0
  2  3  2  0
  2  1  1  0
  4  2  1  0
  5  6  1  6
  5  4  1  0
  7  5  1  0
  8  7  2  0
 10  9  1  0
 10 12  1  0
 11 10  2  0
 12 13  1  0
 13 14  1  0
 16 15  1  6
 15 14  1  0
 16 17  1  0
 17  7  1  0
 18 20  1  0
 18 16  1  0
 19 18  2  0
 21 25  1  0
 21 20  1  0
 21 22  1  6
 23 22  1  0
 24 23  2  0
 25 26  1  0
 27 23  1  0
 28 25  2  0
M  END
$$$$
