NRD.pdb
     RDKit          3D

 28 27  0  0  1  0  0  0  0  0999 V2000
   17.0061  -14.3839   18.2139 N   0  0  0  0  0  0  0  0  0  0  0  0
   15.6343  -14.0674   18.0638 C   0  0  0  0  0  0  0  0  0  0  0  0
   15.1948  -13.8190   16.9151 O   0  0  0  0  0  0  0  0  0  0  0  0
   14.7292  -14.0262   19.2182 C   0  0  0  0  0  0  0  0  0  0  0  0
   14.0512  -15.3721   19.3688 C   0  0  2  0  0  0  0  0  0  0  0  0
   13.1380  -15.5963   18.2595 N   0  0  0  0  0  0  0  0  0  0  0  0
   13.2880  -15.4697   20.6227 C   0  0  0  0  0  0  0  0  0  0  0  0
   13.8407  -15.3392   21.7400 O   0  0  0  0  0  0  0  0  0  0  0  0
    7.6844  -12.0407   19.8021 N   0  0  0  0  0  0  0  0  0  0  0  0
    7.7764  -12.9009   18.6771 C   0  0  0  0  0  0  0  0  0  0  0  0
    8.1737  -12.4057   17.5643 N   0  0  0  0  0  0  0  0  0  0  0  0
    7.4466  -14.2663   18.7480 N   0  0  0  0  0  0  0  0  0  0  0  0
    7.8097  -15.0719   19.9082 C   0  0  0  0  0  0  0  0  0  0  0  0
    9.1626  -14.6691   20.4418 C   0  0  0  0  0  0  0  0  0  0  0  0
    9.5666  -15.7421   21.4530 C   0  0  0  0  0  0  0  0  0  0  0  0
   11.0297  -15.7294   21.7327 C   0  0  2  0  0  0  0  0  0  0  0  0
   11.8946  -15.7153   20.6238 N   0  0  0  0  0  0  0  0  0  0  0  0
   11.3403  -16.9178   22.5669 C   0  0  0  0  0  0  0  0  0  0  0  0
   11.6325  -17.9989   21.9947 O   0  0  0  0  0  0  0  0  0  0  0  0
    8.2529  -12.9257   16.6667 N   0  0  0  0  0  0  0  0  0  0  0  0
   11.3180  -16.8735   23.9927 C   0  0  1  0  0  0  0  0  0  0  0  0
   11.9160  -17.8768   24.8316 C   0  0  0  0  0  0  0  0  0  0  0  0
   13.3360  -18.1341   24.4362 C   0  0  0  0  0  0  0  0  0  0  0  0
   14.0307  -19.1229   25.2602 O   0  0  0  0  0  0  0  0  0  0  0  0
   14.8180  -18.7048   26.1473 C   0  0  0  0  0  0  0  0  0  0  0  0
   11.7588  -17.5892   26.2729 O   0  0  0  0  0  0  0  0  0  0  0  0
   12.0377  -18.6235   27.1573 O   0  0  0  0  0  0  0  0  0  0  0  0
   13.9003  -20.4999   25.1529 O   0  0  0  0  0  0  0  0  0  0  0  0
  2  3  2  0
  2  1  1  0
  4  2  1  0
  5  6  1  6
  5  4  1  0
  7  5  1  0
  8  7  2  0
 10  9  1  0
 10 12  1  0
 11 10  2  0
 12 13  1  0
 13 14  1  0
 16 15  1  6
 15 14  1  0
 16 17  1  0
 17  7  1  0
 18 20  1  0
 18 16  1  0
 19 18  2  0
 21 25  1  0
 21 20  1  0
 21 22  1  6
 23 22  1  0
 24 23  2  0
 25 26  1  0
 27 23  1  0
 28 25  2  0
M  END
$$$$
