NRD.pdb
     RDKit          3D

 28 27  0  0  1  0  0  0  0  0999 V2000
   14.9210  -14.2622   17.4402 N   0  0  0  0  0  0  0  0  0  0  0  0
   13.7415  -14.9364   17.8386 C   0  0  0  0  0  0  0  0  0  0  0  0
   13.3569  -15.9258   17.1695 O   0  0  0  0  0  0  0  0  0  0  0  0
   12.9708  -14.5005   19.0089 C   0  0  0  0  0  0  0  0  0  0  0  0
   12.5755  -15.7132   19.8256 C   0  0  2  0  0  0  0  0  0  0  0  0
   11.6789  -16.5609   19.0560 N   0  0  0  0  0  0  0  0  0  0  0  0
   11.8980  -15.3403   21.0772 C   0  0  0  0  0  0  0  0  0  0  0  0
   12.5237  -14.8305   22.0361 O   0  0  0  0  0  0  0  0  0  0  0  0
    8.6299  -14.8693   16.9233 N   0  0  0  0  0  0  0  0  0  0  0  0
    8.2703  -13.5705   17.3682 C   0  0  0  0  0  0  0  0  0  0  0  0
    8.0325  -12.6707   16.4877 N   0  0  0  0  0  0  0  0  0  0  0  0
    8.1696  -13.2463   18.7330 N   0  0  0  0  0  0  0  0  0  0  0  0
    8.4350  -14.2400   19.7671 C   0  0  0  0  0  0  0  0  0  0  0  0
    8.1560  -13.6774   21.1393 C   0  0  0  0  0  0  0  0  0  0  0  0
    8.3033  -14.8390   22.1221 C   0  0  0  0  0  0  0  0  0  0  0  0
    9.7298  -15.1878   22.3715 C   0  0  2  0  0  0  0  0  0  0  0  0
   10.5087  -15.5403   21.2547 N   0  0  0  0  0  0  0  0  0  0  0  0
    9.7573  -16.3072   23.3467 C   0  0  0  0  0  0  0  0  0  0  0  0
    8.6707  -16.7121   23.8335 O   0  0  0  0  0  0  0  0  0  0  0  0
    7.7867  -11.6800   16.6888 N   0  0  0  0  0  0  0  0  0  0  0  0
   10.9728  -16.9365   23.7487 C   0  0  1  0  0  0  0  0  0  0  0  0
   11.0354  -18.0271   24.6840 C   0  0  0  0  0  0  0  0  0  0  0  0
   10.8937  -19.3437   23.9874 C   0  0  0  0  0  0  0  0  0  0  0  0
   11.0702  -20.5130   24.8481 O   0  0  0  0  0  0  0  0  0  0  0  0
   10.3459  -20.6082   25.8718 C   0  0  0  0  0  0  0  0  0  0  0  0
   12.2208  -17.9619   25.5644 O   0  0  0  0  0  0  0  0  0  0  0  0
   13.2274  -17.0751   25.2037 O   0  0  0  0  0  0  0  0  0  0  0  0
   11.9758  -21.5427   24.6375 O   0  0  0  0  0  0  0  0  0  0  0  0
  2  3  2  0
  2  1  1  0
  4  2  1  0
  5  6  1  6
  5  4  1  0
  7  5  1  0
  8  7  2  0
 10  9  1  0
 10 12  1  0
 11 10  2  0
 12 13  1  0
 13 14  1  0
 16 15  1  6
 15 14  1  0
 16 17  1  0
 17  7  1  0
 18 20  1  0
 18 16  1  0
 19 18  2  0
 21 25  1  0
 21 20  1  0
 21 22  1  1
 23 22  1  0
 24 23  2  0
 25 26  1  0
 27 23  1  0
 28 25  2  0
M  END
$$$$
