NRD.pdb
     RDKit          3D

 28 27  0  0  1  0  0  0  0  0999 V2000
    9.5847  -17.9273   15.0216 N   0  0  0  0  0  0  0  0  0  0  0  0
   10.4342  -18.0707   16.1451 C   0  0  0  0  0  0  0  0  0  0  0  0
   11.1785  -19.0787   16.2139 O   0  0  0  0  0  0  0  0  0  0  0  0
   10.4573  -17.0698   17.2180 C   0  0  0  0  0  0  0  0  0  0  0  0
   10.3047  -17.7669   18.5539 C   0  0  2  0  0  0  0  0  0  0  0  0
    8.9818  -18.3621   18.6565 N   0  0  0  0  0  0  0  0  0  0  0  0
   10.4843  -16.8423   19.6840 C   0  0  0  0  0  0  0  0  0  0  0  0
   11.6092  -16.3733   19.9767 O   0  0  0  0  0  0  0  0  0  0  0  0
    7.0717  -11.7988   27.0482 N   0  0  0  0  0  0  0  0  0  0  0  0
    7.0519  -12.8097   26.0523 C   0  0  0  0  0  0  0  0  0  0  0  0
    6.9243  -14.0285   26.4258 N   0  0  0  0  0  0  0  0  0  0  0  0
    7.1681  -12.5148   24.6820 N   0  0  0  0  0  0  0  0  0  0  0  0
    7.0227  -13.5553   23.6704 C   0  0  0  0  0  0  0  0  0  0  0  0
    8.3425  -14.2373   23.4054 C   0  0  0  0  0  0  0  0  0  0  0  0
    8.1736  -15.0161   22.1008 C   0  0  0  0  0  0  0  0  0  0  0  0
    9.4401  -15.6698   21.6676 C   0  0  2  0  0  0  0  0  0  0  0  0
    9.3946  -16.4404   20.4919 N   0  0  0  0  0  0  0  0  0  0  0  0
    9.9105  -16.5278   22.7843 C   0  0  0  0  0  0  0  0  0  0  0  0
    9.3149  -17.6132   23.0056 O   0  0  0  0  0  0  0  0  0  0  0  0
    6.8996  -14.8539   25.7931 N   0  0  0  0  0  0  0  0  0  0  0  0
   11.0130  -16.1621   23.6126 C   0  0  1  0  0  0  0  0  0  0  0  0
   11.4878  -16.9630   24.7086 C   0  0  0  0  0  0  0  0  0  0  0  0
   12.9488  -16.7423   24.9444 C   0  0  0  0  0  0  0  0  0  0  0  0
   13.7795  -16.8109   23.7425 O   0  0  0  0  0  0  0  0  0  0  0  0
   13.2117  -17.0395   22.6438 C   0  0  0  0  0  0  0  0  0  0  0  0
   10.6730  -16.8046   25.9315 O   0  0  0  0  0  0  0  0  0  0  0  0
   10.9636  -17.6467   26.9974 O   0  0  0  0  0  0  0  0  0  0  0  0
   15.1562  -16.6449   23.7005 O   0  0  0  0  0  0  0  0  0  0  0  0
  2  3  2  0
  2  1  1  0
  4  2  1  0
  5  6  1  6
  5  4  1  0
  7  5  1  0
  8  7  2  0
 10  9  1  0
 10 12  1  0
 11 10  2  0
 12 13  1  0
 13 14  1  0
 16 15  1  1
 15 14  1  0
 16 17  1  0
 17  7  1  0
 18 20  1  0
 18 16  1  0
 19 18  2  0
 21 25  1  0
 21 20  1  0
 21 22  1  1
 23 22  1  0
 24 23  2  0
 25 26  1  0
 27 23  1  0
 28 25  2  0
M  END
$$$$
