NRD.pdb
     RDKit          3D

 28 27  0  0  1  0  0  0  0  0999 V2000
   12.0922  -15.6356   13.7262 N   0  0  0  0  0  0  0  0  0  0  0  0
   12.9711  -16.1872   14.6895 C   0  0  0  0  0  0  0  0  0  0  0  0
   13.4269  -17.3407   14.4996 O   0  0  0  0  0  0  0  0  0  0  0  0
   13.3526  -15.4387   15.8926 C   0  0  0  0  0  0  0  0  0  0  0  0
   13.3430  -16.3725   17.0850 C   0  0  2  0  0  0  0  0  0  0  0  0
   12.1662  -17.2257   17.0396 N   0  0  0  0  0  0  0  0  0  0  0  0
   13.3339  -15.6403   18.3610 C   0  0  0  0  0  0  0  0  0  0  0  0
   14.2675  -14.8681   18.6819 O   0  0  0  0  0  0  0  0  0  0  0  0
    7.5138  -14.0184   18.0544 N   0  0  0  0  0  0  0  0  0  0  0  0
    7.6723  -13.0366   19.0668 C   0  0  0  0  0  0  0  0  0  0  0  0
    7.3951  -11.8188   18.7811 N   0  0  0  0  0  0  0  0  0  0  0  0
    8.1210  -13.3586   20.3603 N   0  0  0  0  0  0  0  0  0  0  0  0
    8.4434  -14.7327   20.7277 C   0  0  0  0  0  0  0  0  0  0  0  0
    9.7334  -15.1747   20.0814 C   0  0  0  0  0  0  0  0  0  0  0  0
   10.8251  -15.0153   21.1396 C   0  0  0  0  0  0  0  0  0  0  0  0
   12.1881  -15.2330   20.5793 C   0  0  2  0  0  0  0  0  0  0  0  0
   12.2700  -15.7747   19.2839 N   0  0  0  0  0  0  0  0  0  0  0  0
   12.9253  -16.1184   21.5158 C   0  0  0  0  0  0  0  0  0  0  0  0
   12.8140  -17.3643   21.3847 O   0  0  0  0  0  0  0  0  0  0  0  0
    7.5016  -11.0088   19.4253 N   0  0  0  0  0  0  0  0  0  0  0  0
   13.7535  -15.6035   22.5571 C   0  0  1  0  0  0  0  0  0  0  0  0
   14.4663  -16.4309   23.4926 C   0  0  0  0  0  0  0  0  0  0  0  0
   15.8815  -15.9711   23.6500 C   0  0  0  0  0  0  0  0  0  0  0  0
   16.5708  -15.6731   22.3949 O   0  0  0  0  0  0  0  0  0  0  0  0
   16.6375  -16.5810   21.5271 C   0  0  0  0  0  0  0  0  0  0  0  0
   13.7591  -16.5816   24.7817 O   0  0  0  0  0  0  0  0  0  0  0  0
   12.7169  -17.4989   24.8268 O   0  0  0  0  0  0  0  0  0  0  0  0
   17.1672  -14.4641   22.0673 O   0  0  0  0  0  0  0  0  0  0  0  0
  2  3  2  0
  2  1  1  0
  4  2  1  0
  5  6  1  6
  5  4  1  0
  7  5  1  0
  8  7  2  0
 10  9  1  0
 10 12  1  0
 11 10  2  0
 12 13  1  0
 13 14  1  0
 16 15  1  1
 15 14  1  0
 16 17  1  0
 17  7  1  0
 18 20  1  0
 18 16  1  0
 19 18  2  0
 21 25  1  0
 21 20  1  0
 21 22  1  6
 23 22  1  0
 24 23  2  0
 25 26  1  0
 27 23  1  0
 28 25  2  0
M  END
$$$$
