PQD.pdb
     RDKit          3D

 25 25  0  0  1  0  0  0  0  0999 V2000
    7.9219  -18.5819   18.0323 N   0  0  0  0  0  0  0  0  0  0  0  0
    6.9888  -18.8563   16.9535 C   0  0  0  0  0  0  0  0  0  0  0  0
    7.4823  -18.1014   15.7437 C   0  0  0  0  0  0  0  0  0  0  0  0
    8.5140  -17.1495   16.3071 C   0  0  0  0  0  0  0  0  0  0  0  0
    9.0772  -17.9618   17.4535 C   0  0  1  0  0  0  0  0  0  0  0  0
    9.6787  -17.0006   18.4459 C   0  0  0  0  0  0  0  0  0  0  0  0
   10.7498  -16.3938   18.1968 O   0  0  0  0  0  0  0  0  0  0  0  0
    7.0598  -11.8647   20.5978 N   0  0  0  0  0  0  0  0  0  0  0  0
    7.0465  -13.2008   21.0202 C   0  0  0  0  0  0  0  0  0  0  0  0
    6.3172  -13.6201   21.9305 O   0  0  0  0  0  0  0  0  0  0  0  0
    7.9822  -14.1670   20.3120 C   0  0  0  0  0  0  0  0  0  0  0  0
    8.7347  -14.9759   21.3335 C   0  0  0  0  0  0  0  0  0  0  0  0
    9.7043  -15.8855   20.6735 C   0  0  2  0  0  0  0  0  0  0  0  0
    9.0578  -16.7488   19.6916 N   0  0  0  0  0  0  0  0  0  0  0  0
   10.5301  -16.7134   21.5981 C   0  0  0  0  0  0  0  0  0  0  0  0
   10.3578  -17.9159   21.8370 O   0  0  0  0  0  0  0  0  0  0  0  0
   11.6222  -16.1092   22.2874 N   0  0  0  0  0  0  0  0  0  0  0  0
   12.6154  -16.7892   23.0277 C   0  0  1  0  0  0  0  0  0  0  0  0
   14.0115  -16.3111   22.9042 C   0  0  0  0  0  0  0  0  0  0  0  0
   14.9749  -17.1184   23.7115 C   0  0  0  0  0  0  0  0  0  0  0  0
   14.9234  -18.3738   23.7845 O   0  0  0  0  0  0  0  0  0  0  0  0
   12.2503  -16.7291   24.4853 C   0  0  0  0  0  0  0  0  0  0  0  0
   11.3708  -15.9050   24.9012 O   0  0  0  0  0  0  0  0  0  0  0  0
   15.9972  -16.5221   24.4381 O   0  0  0  0  0  0  0  0  0  0  0  0
   12.8356  -17.5459   25.4318 O   0  0  0  0  0  0  0  0  0  0  0  0
  1  5  1  0
  2  1  1  0
  3  4  1  0
  3  2  1  0
  4  5  1  0
  5  6  1  1
  6 14  1  0
  6  7  2  0
  9 10  2  0
  9  8  1  0
 11  9  1  0
 12 11  1  0
 13 12  1  1
 14 13  1  0
 15 13  1  0
 15 17  1  0
 16 15  2  0
 18 19  1  1
 18 17  1  0
 18 22  1  0
 19 20  1  0
 20 21  2  0
 20 24  1  0
 22 25  1  0
 23 22  2  0
M  END
$$$$
