PQD.pdb
     RDKit          3D

 25 25  0  0  1  0  0  0  0  0999 V2000
    7.2311  -14.7277   19.8396 N   0  0  0  0  0  0  0  0  0  0  0  0
    6.5461  -13.8734   18.8853 C   0  0  0  0  0  0  0  0  0  0  0  0
    7.3864  -12.6298   18.7277 C   0  0  0  0  0  0  0  0  0  0  0  0
    8.3613  -12.7031   19.8819 C   0  0  0  0  0  0  0  0  0  0  0  0
    8.5507  -14.1985   20.0201 C   0  0  1  0  0  0  0  0  0  0  0  0
    9.0122  -14.4751   21.4276 C   0  0  0  0  0  0  0  0  0  0  0  0
   10.2149  -14.3287   21.7586 O   0  0  0  0  0  0  0  0  0  0  0  0
    5.7582  -14.2110   26.6944 N   0  0  0  0  0  0  0  0  0  0  0  0
    6.2463  -13.1069   25.9828 C   0  0  0  0  0  0  0  0  0  0  0  0
    5.8863  -11.9415   26.2029 O   0  0  0  0  0  0  0  0  0  0  0  0
    7.2683  -13.3759   24.8901 C   0  0  0  0  0  0  0  0  0  0  0  0
    7.5160  -14.8565   24.7887 C   0  0  0  0  0  0  0  0  0  0  0  0
    8.5717  -15.1456   23.7862 C   0  0  2  0  0  0  0  0  0  0  0  0
    8.1068  -14.9091   22.4241 N   0  0  0  0  0  0  0  0  0  0  0  0
    9.1794  -16.5038   23.8766 C   0  0  0  0  0  0  0  0  0  0  0  0
    8.8741  -17.4779   23.1764 O   0  0  0  0  0  0  0  0  0  0  0  0
   10.2039  -16.7462   24.8382 N   0  0  0  0  0  0  0  0  0  0  0  0
   11.0309  -17.8904   24.9001 C   0  0  1  0  0  0  0  0  0  0  0  0
   12.3094  -17.8546   24.1539 C   0  0  0  0  0  0  0  0  0  0  0  0
   13.1185  -19.0983   24.3287 C   0  0  0  0  0  0  0  0  0  0  0  0
   12.6032  -20.2429   24.4205 O   0  0  0  0  0  0  0  0  0  0  0  0
   11.3626  -18.1630   26.3414 C   0  0  0  0  0  0  0  0  0  0  0  0
   12.0205  -19.2042   26.6709 O   0  0  0  0  0  0  0  0  0  0  0  0
   14.5048  -19.0628   24.4011 O   0  0  0  0  0  0  0  0  0  0  0  0
   10.9806  -17.3180   27.3640 O   0  0  0  0  0  0  0  0  0  0  0  0
  1  5  1  0
  2  1  1  0
  3  4  1  0
  3  2  1  0
  4  5  1  0
  5  6  1  1
  6 14  1  0
  6  7  2  0
  9 10  2  0
  9  8  1  0
 11  9  1  0
 12 11  1  0
 13 12  1  1
 14 13  1  0
 15 13  1  0
 15 17  1  0
 16 15  2  0
 18 19  1  6
 18 17  1  0
 18 22  1  0
 19 20  1  0
 20 21  2  0
 20 24  1  0
 22 25  1  0
 23 22  2  0
M  END
$$$$
