PQD.pdb
     RDKit          3D

 25 25  0  0  1  0  0  0  0  0999 V2000
    8.2611  -14.7502   19.2569 N   0  0  0  0  0  0  0  0  0  0  0  0
    7.6979  -14.0201   18.1346 C   0  0  0  0  0  0  0  0  0  0  0  0
    7.4492  -12.6094   18.6094 C   0  0  0  0  0  0  0  0  0  0  0  0
    7.5811  -12.7051   20.1131 C   0  0  0  0  0  0  0  0  0  0  0  0
    8.6286  -13.7886   20.2540 C   0  0  1  0  0  0  0  0  0  0  0  0
    8.4739  -14.4023   21.6216 C   0  0  0  0  0  0  0  0  0  0  0  0
    8.6829  -13.7319   22.6629 O   0  0  0  0  0  0  0  0  0  0  0  0
    6.0094  -19.9598   22.7601 N   0  0  0  0  0  0  0  0  0  0  0  0
    5.3364  -18.8655   22.2004 C   0  0  0  0  0  0  0  0  0  0  0  0
    4.2566  -18.9645   21.5999 O   0  0  0  0  0  0  0  0  0  0  0  0
    5.9818  -17.4973   22.3493 C   0  0  0  0  0  0  0  0  0  0  0  0
    7.2767  -17.6331   23.1035 C   0  0  0  0  0  0  0  0  0  0  0  0
    8.0189  -16.3478   23.1096 C   0  0  2  0  0  0  0  0  0  0  0  0
    8.0881  -15.7540   21.7792 N   0  0  0  0  0  0  0  0  0  0  0  0
    9.3860  -16.4060   23.7011 C   0  0  0  0  0  0  0  0  0  0  0  0
   10.2075  -15.4798   23.7096 O   0  0  0  0  0  0  0  0  0  0  0  0
    9.8267  -17.6123   24.3204 N   0  0  0  0  0  0  0  0  0  0  0  0
   10.8460  -17.7224   25.2929 C   0  0  1  0  0  0  0  0  0  0  0  0
   10.5987  -17.1110   26.6188 C   0  0  0  0  0  0  0  0  0  0  0  0
    9.6597  -17.9115   27.4609 C   0  0  0  0  0  0  0  0  0  0  0  0
    9.1194  -18.9757   27.0614 O   0  0  0  0  0  0  0  0  0  0  0  0
   11.1341  -19.1808   25.5205 C   0  0  0  0  0  0  0  0  0  0  0  0
   10.3294  -20.0753   25.0991 O   0  0  0  0  0  0  0  0  0  0  0  0
    9.3241  -17.5224   28.7511 O   0  0  0  0  0  0  0  0  0  0  0  0
   12.2619  -19.6201   26.1843 O   0  0  0  0  0  0  0  0  0  0  0  0
  1  5  1  0
  2  1  1  0
  3  4  1  0
  3  2  1  0
  4  5  1  0
  5  6  1  1
  6 14  1  0
  6  7  2  0
  9 10  2  0
  9  8  1  0
 11  9  1  0
 12 11  1  0
 13 12  1  6
 14 13  1  0
 15 13  1  0
 15 17  1  0
 16 15  2  0
 18 19  1  1
 18 17  1  0
 18 22  1  0
 19 20  1  0
 20 21  2  0
 20 24  1  0
 22 25  1  0
 23 22  2  0
M  END
$$$$
