PQD.pdb
     RDKit          3D

 25 25  0  0  1  0  0  0  0  0999 V2000
    8.7955  -14.2166   18.6458 N   0  0  0  0  0  0  0  0  0  0  0  0
    8.2240  -13.5611   17.4824 C   0  0  0  0  0  0  0  0  0  0  0  0
    7.3717  -12.4254   17.9933 C   0  0  0  0  0  0  0  0  0  0  0  0
    7.2385  -12.7100   19.4729 C   0  0  0  0  0  0  0  0  0  0  0  0
    8.5711  -13.3618   19.7741 C   0  0  1  0  0  0  0  0  0  0  0  0
    8.4016  -14.2029   21.0128 C   0  0  0  0  0  0  0  0  0  0  0  0
    8.0266  -13.6943   22.0983 O   0  0  0  0  0  0  0  0  0  0  0  0
    8.9079  -20.2305   21.2131 N   0  0  0  0  0  0  0  0  0  0  0  0
    8.5142  -19.4386   20.1261 C   0  0  0  0  0  0  0  0  0  0  0  0
    8.5214  -19.8395   18.9533 O   0  0  0  0  0  0  0  0  0  0  0  0
    8.0592  -18.0191   20.4240 C   0  0  0  0  0  0  0  0  0  0  0  0
    8.0952  -17.7823   21.9095 C   0  0  0  0  0  0  0  0  0  0  0  0
    8.4981  -16.3857   22.2097 C   0  0  2  0  0  0  0  0  0  0  0  0
    8.6591  -15.5937   20.9955 N   0  0  0  0  0  0  0  0  0  0  0  0
    9.7129  -16.2437   23.0620 C   0  0  0  0  0  0  0  0  0  0  0  0
    9.8239  -15.4913   24.0388 O   0  0  0  0  0  0  0  0  0  0  0  0
   10.8693  -17.0223   22.7625 N   0  0  0  0  0  0  0  0  0  0  0  0
   12.0475  -17.0923   23.5395 C   0  0  1  0  0  0  0  0  0  0  0  0
   11.9693  -17.7892   24.8437 C   0  0  0  0  0  0  0  0  0  0  0  0
   13.2238  -17.6633   25.6451 C   0  0  0  0  0  0  0  0  0  0  0  0
   14.2048  -16.9665   25.2761 O   0  0  0  0  0  0  0  0  0  0  0  0
   13.1137  -17.7778   22.7302 C   0  0  0  0  0  0  0  0  0  0  0  0
   13.0321  -19.0233   22.4705 O   0  0  0  0  0  0  0  0  0  0  0  0
   13.3822  -18.3169   26.8601 O   0  0  0  0  0  0  0  0  0  0  0  0
   14.2154  -17.1091   22.2354 O   0  0  0  0  0  0  0  0  0  0  0  0
  1  5  1  0
  2  1  1  0
  3  4  1  0
  3  2  1  0
  4  5  1  0
  5  6  1  1
  6 14  1  0
  6  7  2  0
  9 10  2  0
  9  8  1  0
 11  9  1  0
 12 11  1  0
 13 12  1  6
 14 13  1  0
 15 13  1  0
 15 17  1  0
 16 15  2  0
 18 19  1  1
 18 17  1  0
 18 22  1  0
 19 20  1  0
 20 21  2  0
 20 24  1  0
 22 25  1  0
 23 22  2  0
M  END
$$$$
