PQD.pdb
     RDKit          3D

 25 25  0  0  1  0  0  0  0  0999 V2000
    8.7708  -14.8556   18.4389 N   0  0  0  0  0  0  0  0  0  0  0  0
    7.6198  -14.2855   17.7608 C   0  0  0  0  0  0  0  0  0  0  0  0
    7.4177  -12.9016   18.3276 C   0  0  0  0  0  0  0  0  0  0  0  0
    8.2875  -12.8867   19.5649 C   0  0  0  0  0  0  0  0  0  0  0  0
    9.4247  -13.7923   19.1431 C   0  0  1  0  0  0  0  0  0  0  0  0
   10.0643  -14.3394   20.3930 C   0  0  0  0  0  0  0  0  0  0  0  0
   10.5764  -13.5765   21.2492 O   0  0  0  0  0  0  0  0  0  0  0  0
    8.8755  -19.7431   23.1137 N   0  0  0  0  0  0  0  0  0  0  0  0
    9.3286  -19.7640   21.7878 C   0  0  0  0  0  0  0  0  0  0  0  0
    9.2038  -20.7451   21.0408 O   0  0  0  0  0  0  0  0  0  0  0  0
   10.0043  -18.5087   21.2602 C   0  0  0  0  0  0  0  0  0  0  0  0
   10.0576  -17.4722   22.3496 C   0  0  0  0  0  0  0  0  0  0  0  0
   10.7231  -16.2363   21.8676 C   0  0  2  0  0  0  0  0  0  0  0  0
   10.1098  -15.7306   20.6446 N   0  0  0  0  0  0  0  0  0  0  0  0
   12.1981  -16.3406   21.6791 C   0  0  0  0  0  0  0  0  0  0  0  0
   12.7721  -16.5934   20.6118 O   0  0  0  0  0  0  0  0  0  0  0  0
   13.0596  -16.1393   22.7973 N   0  0  0  0  0  0  0  0  0  0  0  0
   14.4722  -16.1213   22.7649 C   0  0  1  0  0  0  0  0  0  0  0  0
   15.1704  -15.2579   23.7446 C   0  0  0  0  0  0  0  0  0  0  0  0
   16.6486  -15.2171   23.5324 C   0  0  0  0  0  0  0  0  0  0  0  0
   17.1750  -14.8423   22.4523 O   0  0  0  0  0  0  0  0  0  0  0  0
   14.9729  -17.5245   22.9698 C   0  0  0  0  0  0  0  0  0  0  0  0
   14.4016  -18.3030   23.8022 O   0  0  0  0  0  0  0  0  0  0  0  0
   17.5395  -15.5954   24.5282 O   0  0  0  0  0  0  0  0  0  0  0  0
   16.0557  -18.0344   22.2819 O   0  0  0  0  0  0  0  0  0  0  0  0
  1  5  1  0
  2  1  1  0
  3  4  1  0
  3  2  1  0
  4  5  1  0
  5  6  1  1
  6 14  1  0
  6  7  2  0
  9 10  2  0
  9  8  1  0
 11  9  1  0
 12 11  1  0
 13 12  1  6
 14 13  1  0
 15 13  1  0
 15 17  1  0
 16 15  2  0
 18 19  1  1
 18 17  1  0
 18 22  1  0
 19 20  1  0
 20 21  2  0
 20 24  1  0
 22 25  1  0
 23 22  2  0
M  END
$$$$
