PFW.pdb
     RDKit          3D

 33 36  0  0  1  0  0  0  0  0999 V2000
    8.0750  -14.8384   18.9952 N   0  0  0  0  0  0  0  0  0  0  0  0
    7.4343  -14.0069   18.0285 C   0  0  0  0  0  0  0  0  0  0  0  0
    7.9956  -12.6115   18.1795 C   0  0  0  0  0  0  0  0  0  0  0  0
    8.5441  -12.6634   19.6092 C   0  0  0  0  0  0  0  0  0  0  0  0
    9.0550  -14.0613   19.6809 C   0  0  1  0  0  0  0  0  0  0  0  0
    9.2788  -14.5233   21.0757 C   0  0  0  0  0  0  0  0  0  0  0  0
   10.2674  -14.0572   21.6838 O   0  0  0  0  0  0  0  0  0  0  0  0
    8.4397  -15.4471   21.7292 N   0  0  0  0  0  0  0  0  0  0  0  0
    8.6463  -15.7466   23.1341 C   0  0  1  0  0  0  0  0  0  0  0  0
    7.3438  -15.9699   23.8375 C   0  0  0  0  0  0  0  0  0  0  0  0
    7.0079  -14.9068   24.8130 C   0  0  0  0  0  0  0  0  0  0  0  0
    7.3470  -13.5934   24.5647 C   0  0  0  0  0  0  0  0  0  0  0  0
    7.0625  -12.5668   25.4329 C   0  0  0  0  0  0  0  0  0  0  0  0
    6.4061  -12.8640   26.6102 C   0  0  0  0  0  0  0  0  0  0  0  0
    6.0562  -14.1742   26.8807 C   0  0  0  0  0  0  0  0  0  0  0  0
    6.3537  -15.2008   25.9871 C   0  0  0  0  0  0  0  0  0  0  0  0
    9.6233  -16.8388   23.2799 C   0  0  0  0  0  0  0  0  0  0  0  0
   10.5815  -16.8913   22.4461 O   0  0  0  0  0  0  0  0  0  0  0  0
    9.5462  -17.8221   24.2968 N   0  0  0  0  0  0  0  0  0  0  0  0
   10.7723  -18.3091   24.9115 C   0  0  1  0  0  0  0  0  0  0  0  0
   11.6191  -17.1416   25.3587 C   0  0  0  0  0  0  0  0  0  0  0  0
   11.1923  -16.6366   26.6656 C   0  0  0  0  0  0  0  0  0  0  0  0
   11.1448  -17.3245   27.8711 C   0  0  0  0  0  0  0  0  0  0  0  0
   10.6580  -16.5243   28.8266 N   0  0  0  0  0  0  0  0  0  0  0  0
   10.3774  -15.3206   28.3042 C   0  0  0  0  0  0  0  0  0  0  0  0
    9.8793  -14.1345   28.8374 C   0  0  0  0  0  0  0  0  0  0  0  0
    9.7088  -13.0191   28.0559 C   0  0  0  0  0  0  0  0  0  0  0  0
   10.0326  -13.0555   26.7112 C   0  0  0  0  0  0  0  0  0  0  0  0
   10.5247  -14.2245   26.1761 C   0  0  0  0  0  0  0  0  0  0  0  0
   10.7025  -15.3682   26.9606 C   0  0  0  0  0  0  0  0  0  0  0  0
   10.5610  -19.3324   25.9123 C   0  0  0  0  0  0  0  0  0  0  0  0
    9.2544  -19.5699   26.3844 O   0  0  0  0  0  0  0  0  0  0  0  0
   11.4395  -20.0616   26.4301 O   0  0  0  0  0  0  0  0  0  0  0  0
  1  2  1  0
  2  3  1  0
  4  3  1  0
  5  4  1  0
  5  1  1  0
  5  6  1  1
  7  6  2  0
  8  6  1  0
  9  8  1  0
 10 11  1  0
  9 10  1  6
 11 16  2  0
 12 13  2  0
 12 11  1  0
 13 14  1  0
 14 15  2  0
 16 15  1  0
 17  9  1  0
 17 19  1  0
 18 17  2  0
 20 21  1  1
 20 19  1  0
 20 31  1  0
 22 30  1  0
 22 21  1  0
 23 22  2  0
 24 23  1  0
 24 25  1  0
 25 26  1  0
 25 30  2  0
 26 27  2  0
 27 28  1  0
 29 28  2  0
 30 29  1  0
 31 32  1  0
 33 31  2  0
M  END
$$$$
