PFW.pdb
     RDKit          3D

 33 36  0  0  1  0  0  0  0  0999 V2000
    9.4159  -19.5876   19.2740 N   0  0  0  0  0  0  0  0  0  0  0  0
    8.8037  -20.4373   18.3046 C   0  0  0  0  0  0  0  0  0  0  0  0
    8.4784  -19.5924   17.0940 C   0  0  0  0  0  0  0  0  0  0  0  0
    8.4622  -18.1877   17.7059 C   0  0  0  0  0  0  0  0  0  0  0  0
    9.5615  -18.2870   18.7069 C   0  0  1  0  0  0  0  0  0  0  0  0
    9.5115  -17.2082   19.7280 C   0  0  0  0  0  0  0  0  0  0  0  0
   10.4170  -16.3460   19.6979 O   0  0  0  0  0  0  0  0  0  0  0  0
    8.5057  -17.1181   20.7102 N   0  0  0  0  0  0  0  0  0  0  0  0
    8.4777  -15.9859   21.6178 C   0  0  1  0  0  0  0  0  0  0  0  0
    7.1393  -15.8513   22.2746 C   0  0  0  0  0  0  0  0  0  0  0  0
    7.0175  -14.6470   23.1287 C   0  0  0  0  0  0  0  0  0  0  0  0
    6.6443  -14.7592   24.4515 C   0  0  0  0  0  0  0  0  0  0  0  0
    6.5139  -13.6781   25.2899 C   0  0  0  0  0  0  0  0  0  0  0  0
    6.7684  -12.4192   24.7842 C   0  0  0  0  0  0  0  0  0  0  0  0
    7.1439  -12.2823   23.4603 C   0  0  0  0  0  0  0  0  0  0  0  0
    7.2706  -13.3912   22.6267 C   0  0  0  0  0  0  0  0  0  0  0  0
    9.6186  -16.0540   22.5465 C   0  0  0  0  0  0  0  0  0  0  0  0
   10.5819  -15.2454   22.3614 O   0  0  0  0  0  0  0  0  0  0  0  0
    9.6903  -16.9683   23.6261 N   0  0  0  0  0  0  0  0  0  0  0  0
   10.8472  -16.9395   24.5087 C   0  0  1  0  0  0  0  0  0  0  0  0
   10.9852  -15.5687   25.1266 C   0  0  0  0  0  0  0  0  0  0  0  0
   10.3230  -15.4973   26.4311 C   0  0  0  0  0  0  0  0  0  0  0  0
   10.0865  -16.5338   27.3248 C   0  0  0  0  0  0  0  0  0  0  0  0
    9.4178  -16.0685   28.3862 N   0  0  0  0  0  0  0  0  0  0  0  0
    9.1975  -14.7533   28.2369 C   0  0  0  0  0  0  0  0  0  0  0  0
    8.5799  -13.7871   29.0269 C   0  0  0  0  0  0  0  0  0  0  0  0
    8.5156  -12.4756   28.6272 C   0  0  0  0  0  0  0  0  0  0  0  0
    9.0694  -12.0882   27.4198 C   0  0  0  0  0  0  0  0  0  0  0  0
    9.6808  -13.0375   26.6325 C   0  0  0  0  0  0  0  0  0  0  0  0
    9.7527  -14.3770   27.0272 C   0  0  0  0  0  0  0  0  0  0  0  0
   10.8998  -18.0420   25.4442 C   0  0  0  0  0  0  0  0  0  0  0  0
    9.8037  -18.9244   25.5257 O   0  0  0  0  0  0  0  0  0  0  0  0
   11.8438  -18.3151   26.2226 O   0  0  0  0  0  0  0  0  0  0  0  0
  1  2  1  0
  2  3  1  0
  4  3  1  0
  5  4  1  0
  5  1  1  0
  5  6  1  1
  7  6  2  0
  8  6  1  0
  9  8  1  0
 10 11  1  0
  9 10  1  1
 11 16  2  0
 12 13  2  0
 12 11  1  0
 13 14  1  0
 14 15  2  0
 16 15  1  0
 17  9  1  0
 17 19  1  0
 18 17  2  0
 20 21  1  1
 20 19  1  0
 20 31  1  0
 22 30  1  0
 22 21  1  0
 23 22  2  0
 24 23  1  0
 24 25  1  0
 25 26  1  0
 25 30  2  0
 26 27  2  0
 27 28  1  0
 29 28  2  0
 30 29  1  0
 31 32  1  0
 33 31  2  0
M  END
$$$$
