PFW.pdb
     RDKit          3D

 33 36  0  0  1  0  0  0  0  0999 V2000
    8.5599  -18.1903   19.6683 N   0  0  0  0  0  0  0  0  0  0  0  0
    8.3486  -18.6305   18.3274 C   0  0  0  0  0  0  0  0  0  0  0  0
    9.3937  -17.9699   17.4576 C   0  0  0  0  0  0  0  0  0  0  0  0
    9.7923  -16.7727   18.3268 C   0  0  0  0  0  0  0  0  0  0  0  0
    9.7201  -17.3610   19.6939 C   0  0  1  0  0  0  0  0  0  0  0  0
    9.6639  -16.3306   20.7635 C   0  0  0  0  0  0  0  0  0  0  0  0
   10.7085  -15.6816   20.9918 O   0  0  0  0  0  0  0  0  0  0  0  0
    8.5049  -16.0594   21.5169 N   0  0  0  0  0  0  0  0  0  0  0  0
    8.4896  -14.9469   22.4487 C   0  0  1  0  0  0  0  0  0  0  0  0
    7.4778  -13.9189   22.0481 C   0  0  0  0  0  0  0  0  0  0  0  0
    7.6076  -13.4780   20.6397 C   0  0  0  0  0  0  0  0  0  0  0  0
    6.9214  -14.1268   19.6348 C   0  0  0  0  0  0  0  0  0  0  0  0
    7.0042  -13.7632   18.3122 C   0  0  0  0  0  0  0  0  0  0  0  0
    7.8131  -12.6974   17.9725 C   0  0  0  0  0  0  0  0  0  0  0  0
    8.5110  -12.0316   18.9635 C   0  0  0  0  0  0  0  0  0  0  0  0
    8.4132  -12.4160   20.2990 C   0  0  0  0  0  0  0  0  0  0  0  0
    8.3532  -15.4444   23.8281 C   0  0  0  0  0  0  0  0  0  0  0  0
    7.5817  -14.8085   24.6133 O   0  0  0  0  0  0  0  0  0  0  0  0
    9.0336  -16.5878   24.3144 N   0  0  0  0  0  0  0  0  0  0  0  0
    9.9775  -16.4419   25.4126 C   0  0  1  0  0  0  0  0  0  0  0  0
    9.2278  -16.2787   26.7132 C   0  0  0  0  0  0  0  0  0  0  0  0
    7.9609  -15.5699   26.5186 C   0  0  0  0  0  0  0  0  0  0  0  0
    6.7672  -16.0782   26.0231 C   0  0  0  0  0  0  0  0  0  0  0  0
    5.8543  -15.1019   25.9606 N   0  0  0  0  0  0  0  0  0  0  0  0
    6.3938  -13.9540   26.3986 C   0  0  0  0  0  0  0  0  0  0  0  0
    5.9009  -12.6620   26.5625 C   0  0  0  0  0  0  0  0  0  0  0  0
    6.6893  -11.6581   27.0670 C   0  0  0  0  0  0  0  0  0  0  0  0
    8.0007  -11.9163   27.4246 C   0  0  0  0  0  0  0  0  0  0  0  0
    8.4960  -13.1907   27.2647 C   0  0  0  0  0  0  0  0  0  0  0  0
    7.7041  -14.2224   26.7513 C   0  0  0  0  0  0  0  0  0  0  0  0
   11.0205  -17.4445   25.4276 C   0  0  0  0  0  0  0  0  0  0  0  0
   12.0875  -17.3098   26.3385 O   0  0  0  0  0  0  0  0  0  0  0  0
   11.0894  -18.4597   24.6953 O   0  0  0  0  0  0  0  0  0  0  0  0
  1  2  1  0
  2  3  1  0
  4  3  1  0
  5  4  1  0
  5  1  1  0
  5  6  1  1
  7  6  2  0
  8  6  1  0
  9  8  1  0
 10 11  1  0
  9 10  1  6
 11 16  2  0
 12 13  2  0
 12 11  1  0
 13 14  1  0
 14 15  2  0
 16 15  1  0
 17  9  1  0
 17 19  1  0
 18 17  2  0
 20 21  1  1
 20 19  1  0
 20 31  1  0
 22 30  1  0
 22 21  1  0
 23 22  2  0
 24 23  1  0
 24 25  1  0
 25 26  1  0
 25 30  2  0
 26 27  2  0
 27 28  1  0
 29 28  2  0
 30 29  1  0
 31 32  1  0
 33 31  2  0
M  END
$$$$
