PFW.pdb
     RDKit          3D

 33 36  0  0  1  0  0  0  0  0999 V2000
    7.5584  -15.5151   18.3832 N   0  0  0  0  0  0  0  0  0  0  0  0
    6.7432  -15.0609   17.3036 C   0  0  0  0  0  0  0  0  0  0  0  0
    7.0172  -13.5869   17.1104 C   0  0  0  0  0  0  0  0  0  0  0  0
    7.5964  -13.2091   18.4777 C   0  0  0  0  0  0  0  0  0  0  0  0
    8.3780  -14.4315   18.8173 C   0  0  1  0  0  0  0  0  0  0  0  0
    8.7203  -14.5152   20.2611 C   0  0  0  0  0  0  0  0  0  0  0  0
    9.5426  -13.6842   20.7059 O   0  0  0  0  0  0  0  0  0  0  0  0
    8.1678  -15.4736   21.1334 N   0  0  0  0  0  0  0  0  0  0  0  0
    8.5269  -15.4666   22.5396 C   0  0  1  0  0  0  0  0  0  0  0  0
    7.3117  -15.3673   23.4082 C   0  0  0  0  0  0  0  0  0  0  0  0
    7.2452  -14.1118   24.1919 C   0  0  0  0  0  0  0  0  0  0  0  0
    6.8014  -14.1218   25.4975 C   0  0  0  0  0  0  0  0  0  0  0  0
    6.7173  -12.9892   26.2713 C   0  0  0  0  0  0  0  0  0  0  0  0
    7.0949  -11.7834   25.7155 C   0  0  0  0  0  0  0  0  0  0  0  0
    7.5431  -11.7491   24.4077 C   0  0  0  0  0  0  0  0  0  0  0  0
    7.6210  -12.9089   23.6399 C   0  0  0  0  0  0  0  0  0  0  0  0
    9.4117  -16.6046   22.8412 C   0  0  0  0  0  0  0  0  0  0  0  0
    8.9299  -17.7755   22.7278 O   0  0  0  0  0  0  0  0  0  0  0  0
   10.7611  -16.4559   23.2458 N   0  0  0  0  0  0  0  0  0  0  0  0
   11.0981  -16.5664   24.6574 C   0  0  1  0  0  0  0  0  0  0  0  0
   10.0056  -15.9448   25.4943 C   0  0  0  0  0  0  0  0  0  0  0  0
   10.0968  -16.3633   26.8949 C   0  0  0  0  0  0  0  0  0  0  0  0
   10.2767  -17.6482   27.3907 C   0  0  0  0  0  0  0  0  0  0  0  0
   10.2651  -17.6197   28.7283 N   0  0  0  0  0  0  0  0  0  0  0  0
   10.0846  -16.3584   29.1491 C   0  0  0  0  0  0  0  0  0  0  0  0
   10.0125  -15.7666   30.4075 C   0  0  0  0  0  0  0  0  0  0  0  0
    9.8400  -14.4122   30.5484 C   0  0  0  0  0  0  0  0  0  0  0  0
    9.7338  -13.6043   29.4302 C   0  0  0  0  0  0  0  0  0  0  0  0
    9.8030  -14.1817   28.1825 C   0  0  0  0  0  0  0  0  0  0  0  0
    9.9777  -15.5600   28.0247 C   0  0  0  0  0  0  0  0  0  0  0  0
   11.5000  -17.8958   25.0629 C   0  0  0  0  0  0  0  0  0  0  0  0
   10.6194  -18.9744   24.8447 O   0  0  0  0  0  0  0  0  0  0  0  0
   12.5832  -18.2134   25.6081 O   0  0  0  0  0  0  0  0  0  0  0  0
  1  2  1  0
  2  3  1  0
  4  3  1  0
  5  4  1  0
  5  1  1  0
  5  6  1  1
  7  6  2  0
  8  6  1  0
  9  8  1  0
 10 11  1  0
  9 10  1  1
 11 16  2  0
 12 13  2  0
 12 11  1  0
 13 14  1  0
 14 15  2  0
 16 15  1  0
 17  9  1  0
 17 19  1  0
 18 17  2  0
 20 21  1  1
 20 19  1  0
 20 31  1  0
 22 30  1  0
 22 21  1  0
 23 22  2  0
 24 23  1  0
 24 25  1  0
 25 26  1  0
 25 30  2  0
 26 27  2  0
 27 28  1  0
 29 28  2  0
 30 29  1  0
 31 32  1  0
 33 31  2  0
M  END
$$$$
