PFW.pdb
     RDKit          3D

 33 36  0  0  1  0  0  0  0  0999 V2000
    8.2770  -15.5293   18.3116 N   0  0  0  0  0  0  0  0  0  0  0  0
    7.5289  -15.0711   17.1861 C   0  0  0  0  0  0  0  0  0  0  0  0
    7.6952  -13.5708   17.1045 C   0  0  0  0  0  0  0  0  0  0  0  0
    8.1132  -13.2383   18.5407 C   0  0  0  0  0  0  0  0  0  0  0  0
    8.9599  -14.4154   18.8838 C   0  0  1  0  0  0  0  0  0  0  0  0
    9.1744  -14.5653   20.3468 C   0  0  0  0  0  0  0  0  0  0  0  0
   10.2658  -14.1684   20.8113 O   0  0  0  0  0  0  0  0  0  0  0  0
    8.2177  -15.1254   21.2161 N   0  0  0  0  0  0  0  0  0  0  0  0
    8.4046  -15.0388   22.6527 C   0  0  1  0  0  0  0  0  0  0  0  0
    7.0985  -14.8455   23.3581 C   0  0  0  0  0  0  0  0  0  0  0  0
    7.1627  -13.8615   24.4637 C   0  0  0  0  0  0  0  0  0  0  0  0
    6.7972  -14.2195   25.7443 C   0  0  0  0  0  0  0  0  0  0  0  0
    6.8351  -13.3496   26.8075 C   0  0  0  0  0  0  0  0  0  0  0  0
    7.2591  -12.0553   26.5835 C   0  0  0  0  0  0  0  0  0  0  0  0
    7.6305  -11.6736   25.3073 C   0  0  0  0  0  0  0  0  0  0  0  0
    7.5850  -12.5709   24.2427 C   0  0  0  0  0  0  0  0  0  0  0  0
    9.2015  -16.1822   23.1287 C   0  0  0  0  0  0  0  0  0  0  0  0
    9.1543  -17.2586   22.4541 O   0  0  0  0  0  0  0  0  0  0  0  0
   10.0109  -16.1374   24.2904 N   0  0  0  0  0  0  0  0  0  0  0  0
   10.9310  -17.2323   24.5606 C   0  0  1  0  0  0  0  0  0  0  0  0
   11.8939  -16.8336   25.6533 C   0  0  0  0  0  0  0  0  0  0  0  0
   11.2474  -16.8364   26.9675 C   0  0  0  0  0  0  0  0  0  0  0  0
   11.0239  -17.9214   27.8052 C   0  0  0  0  0  0  0  0  0  0  0  0
   10.3672  -17.5174   28.8988 N   0  0  0  0  0  0  0  0  0  0  0  0
   10.1423  -16.1966   28.8252 C   0  0  0  0  0  0  0  0  0  0  0  0
    9.5324  -15.2773   29.6748 C   0  0  0  0  0  0  0  0  0  0  0  0
    9.4606  -13.9458   29.3492 C   0  0  0  0  0  0  0  0  0  0  0  0
    9.9988  -13.4907   28.1585 C   0  0  0  0  0  0  0  0  0  0  0  0
   10.6026  -14.3933   27.3126 C   0  0  0  0  0  0  0  0  0  0  0  0
   10.6820  -15.7523   27.6316 C   0  0  0  0  0  0  0  0  0  0  0  0
   10.2819  -18.5112   24.7517 C   0  0  0  0  0  0  0  0  0  0  0  0
    8.8997  -18.5440   25.0259 O   0  0  0  0  0  0  0  0  0  0  0  0
   10.8268  -19.6390   24.7006 O   0  0  0  0  0  0  0  0  0  0  0  0
  1  2  1  0
  2  3  1  0
  4  3  1  0
  5  4  1  0
  5  1  1  0
  5  6  1  1
  7  6  2  0
  8  6  1  0
  9  8  1  0
 10 11  1  0
  9 10  1  1
 11 16  2  0
 12 13  2  0
 12 11  1  0
 13 14  1  0
 14 15  2  0
 16 15  1  0
 17  9  1  0
 17 19  1  0
 18 17  2  0
 20 21  1  1
 20 19  1  0
 20 31  1  0
 22 30  1  0
 22 21  1  0
 23 22  2  0
 24 23  1  0
 24 25  1  0
 25 26  1  0
 25 30  2  0
 26 27  2  0
 27 28  1  0
 29 28  2  0
 30 29  1  0
 31 32  1  0
 33 31  2  0
M  END
$$$$
