PFW.pdb
     RDKit          3D

 33 36  0  0  1  0  0  0  0  0999 V2000
    8.8743  -17.6192   18.4031 N   0  0  0  0  0  0  0  0  0  0  0  0
    8.3735  -17.6060   17.0669 C   0  0  0  0  0  0  0  0  0  0  0  0
    8.6142  -16.2254   16.5003 C   0  0  0  0  0  0  0  0  0  0  0  0
    8.7650  -15.3988   17.7816 C   0  0  0  0  0  0  0  0  0  0  0  0
    9.4816  -16.3565   18.6703 C   0  0  1  0  0  0  0  0  0  0  0  0
    9.4077  -15.9779   20.1056 C   0  0  0  0  0  0  0  0  0  0  0  0
   10.3925  -15.3811   20.5940 O   0  0  0  0  0  0  0  0  0  0  0  0
    8.2957  -16.2580   20.9238 N   0  0  0  0  0  0  0  0  0  0  0  0
    8.2650  -15.7807   22.2940 C   0  0  1  0  0  0  0  0  0  0  0  0
    6.9190  -15.2274   22.6447 C   0  0  0  0  0  0  0  0  0  0  0  0
    6.8279  -14.7299   24.0372 C   0  0  0  0  0  0  0  0  0  0  0  0
    7.0971  -13.4095   24.3301 C   0  0  0  0  0  0  0  0  0  0  0  0
    7.0300  -12.8931   25.6018 C   0  0  0  0  0  0  0  0  0  0  0  0
    6.6763  -13.7360   26.6362 C   0  0  0  0  0  0  0  0  0  0  0  0
    6.4020  -15.0643   26.3662 C   0  0  0  0  0  0  0  0  0  0  0  0
    6.4756  -15.5683   25.0696 C   0  0  0  0  0  0  0  0  0  0  0  0
    8.7605  -16.8263   23.2050 C   0  0  0  0  0  0  0  0  0  0  0  0
    8.3809  -18.0215   22.9968 O   0  0  0  0  0  0  0  0  0  0  0  0
    9.6330  -16.5645   24.2899 N   0  0  0  0  0  0  0  0  0  0  0  0
   10.4067  -17.6565   24.8618 C   0  0  1  0  0  0  0  0  0  0  0  0
   11.5423  -17.1012   25.6877 C   0  0  0  0  0  0  0  0  0  0  0  0
   11.0895  -16.6926   27.0193 C   0  0  0  0  0  0  0  0  0  0  0  0
   10.7460  -17.5077   28.0901 C   0  0  0  0  0  0  0  0  0  0  0  0
   10.3433  -16.7528   29.1188 N   0  0  0  0  0  0  0  0  0  0  0  0
   10.4054  -15.4569   28.7761 C   0  0  0  0  0  0  0  0  0  0  0  0
   10.1287  -14.2706   29.4508 C   0  0  0  0  0  0  0  0  0  0  0  0
   10.3079  -13.0505   28.8482 C   0  0  0  0  0  0  0  0  0  0  0  0
   10.7714  -12.9788   27.5464 C   0  0  0  0  0  0  0  0  0  0  0  0
   11.0463  -14.1470   26.8721 C   0  0  0  0  0  0  0  0  0  0  0  0
   10.8675  -15.3965   27.4738 C   0  0  0  0  0  0  0  0  0  0  0  0
    9.6034  -18.6628   25.5216 C   0  0  0  0  0  0  0  0  0  0  0  0
   10.1881  -19.9045   25.8425 O   0  0  0  0  0  0  0  0  0  0  0  0
    8.3995  -18.5557   25.8542 O   0  0  0  0  0  0  0  0  0  0  0  0
  1  2  1  0
  2  3  1  0
  4  3  1  0
  5  4  1  0
  5  1  1  0
  5  6  1  1
  7  6  2  0
  8  6  1  0
  9  8  1  0
 10 11  1  0
  9 10  1  1
 11 16  2  0
 12 13  2  0
 12 11  1  0
 13 14  1  0
 14 15  2  0
 16 15  1  0
 17  9  1  0
 17 19  1  0
 18 17  2  0
 20 21  1  1
 20 19  1  0
 20 31  1  0
 22 30  1  0
 22 21  1  0
 23 22  2  0
 24 23  1  0
 24 25  1  0
 25 26  1  0
 25 30  2  0
 26 27  2  0
 27 28  1  0
 29 28  2  0
 30 29  1  0
 31 32  1  0
 33 31  2  0
M  END
$$$$
