PFW.pdb
     RDKit          3D

 33 36  0  0  1  0  0  0  0  0999 V2000
    8.3595  -17.9915   19.4879 N   0  0  0  0  0  0  0  0  0  0  0  0
    7.7308  -18.4073   18.2761 C   0  0  0  0  0  0  0  0  0  0  0  0
    7.8761  -17.2841   17.2750 C   0  0  0  0  0  0  0  0  0  0  0  0
    8.1274  -16.0894   18.2009 C   0  0  0  0  0  0  0  0  0  0  0  0
    8.9538  -16.7129   19.2727 C   0  0  1  0  0  0  0  0  0  0  0  0
    9.0093  -15.8916   20.5102 C   0  0  0  0  0  0  0  0  0  0  0  0
    9.9845  -15.1201   20.6447 O   0  0  0  0  0  0  0  0  0  0  0  0
    8.0277  -15.9451   21.5193 N   0  0  0  0  0  0  0  0  0  0  0  0
    8.1352  -15.0829   22.6818 C   0  0  1  0  0  0  0  0  0  0  0  0
    6.7855  -14.6400   23.1541 C   0  0  0  0  0  0  0  0  0  0  0  0
    6.8367  -13.7212   24.3151 C   0  0  0  0  0  0  0  0  0  0  0  0
    6.3397  -14.1105   25.5411 C   0  0  0  0  0  0  0  0  0  0  0  0
    6.3591  -13.3010   26.6514 C   0  0  0  0  0  0  0  0  0  0  0  0
    6.9019  -12.0372   26.5345 C   0  0  0  0  0  0  0  0  0  0  0  0
    7.4063  -11.6250   25.3146 C   0  0  0  0  0  0  0  0  0  0  0  0
    7.3772  -12.4611   24.2008 C   0  0  0  0  0  0  0  0  0  0  0  0
    8.9713  -15.7235   23.7109 C   0  0  0  0  0  0  0  0  0  0  0  0
    8.4719  -15.8739   24.8703 O   0  0  0  0  0  0  0  0  0  0  0  0
   10.2917  -16.1767   23.4704 N   0  0  0  0  0  0  0  0  0  0  0  0
   11.2100  -16.3232   24.5901 C   0  0  1  0  0  0  0  0  0  0  0  0
   10.6934  -17.3764   25.5409 C   0  0  0  0  0  0  0  0  0  0  0  0
    9.7620  -16.8086   26.5183 C   0  0  0  0  0  0  0  0  0  0  0  0
    8.4146  -17.1027   26.6826 C   0  0  0  0  0  0  0  0  0  0  0  0
    7.9037  -16.3413   27.6569 N   0  0  0  0  0  0  0  0  0  0  0  0
    8.8627  -15.5455   28.1545 C   0  0  0  0  0  0  0  0  0  0  0  0
    8.8892  -14.5923   29.1693 C   0  0  0  0  0  0  0  0  0  0  0  0
   10.0459  -13.9268   29.4907 C   0  0  0  0  0  0  0  0  0  0  0  0
   11.2167  -14.1951   28.8040 C   0  0  0  0  0  0  0  0  0  0  0  0
   11.1987  -15.1352   27.7987 C   0  0  0  0  0  0  0  0  0  0  0  0
   10.0274  -15.8199   27.4606 C   0  0  0  0  0  0  0  0  0  0  0  0
   12.5942  -16.4767   24.1981 C   0  0  0  0  0  0  0  0  0  0  0  0
   12.9282  -16.4293   22.8296 O   0  0  0  0  0  0  0  0  0  0  0  0
   13.5706  -16.6548   24.9639 O   0  0  0  0  0  0  0  0  0  0  0  0
  1  2  1  0
  2  3  1  0
  4  3  1  0
  5  4  1  0
  5  1  1  0
  5  6  1  1
  7  6  2  0
  8  6  1  0
  9  8  1  0
 10 11  1  0
  9 10  1  1
 11 16  2  0
 12 13  2  0
 12 11  1  0
 13 14  1  0
 14 15  2  0
 16 15  1  0
 17  9  1  0
 17 19  1  0
 18 17  2  0
 20 21  1  6
 20 19  1  0
 20 31  1  0
 22 30  1  0
 22 21  1  0
 23 22  2  0
 24 23  1  0
 24 25  1  0
 25 26  1  0
 25 30  2  0
 26 27  2  0
 27 28  1  0
 29 28  2  0
 30 29  1  0
 31 32  1  0
 33 31  2  0
M  END
$$$$
