PFW.pdb
     RDKit          3D

 33 36  0  0  1  0  0  0  0  0999 V2000
    9.2269  -16.8458   18.0750 N   0  0  0  0  0  0  0  0  0  0  0  0
    8.7534  -16.7055   16.7362 C   0  0  0  0  0  0  0  0  0  0  0  0
    8.8448  -15.2422   16.3681 C   0  0  0  0  0  0  0  0  0  0  0  0
    8.8752  -14.5873   17.7530 C   0  0  0  0  0  0  0  0  0  0  0  0
    9.6799  -15.5719   18.5297 C   0  0  1  0  0  0  0  0  0  0  0  0
    9.5358  -15.4040   19.9993 C   0  0  0  0  0  0  0  0  0  0  0  0
   10.5297  -14.9807   20.6297 O   0  0  0  0  0  0  0  0  0  0  0  0
    8.3486  -15.6966   20.6991 N   0  0  0  0  0  0  0  0  0  0  0  0
    8.2302  -15.3491   22.1032 C   0  0  1  0  0  0  0  0  0  0  0  0
    6.8523  -14.8610   22.4260 C   0  0  0  0  0  0  0  0  0  0  0  0
    6.6902  -14.4349   23.8355 C   0  0  0  0  0  0  0  0  0  0  0  0
    6.9578  -13.1354   24.2114 C   0  0  0  0  0  0  0  0  0  0  0  0
    6.8266  -12.6844   25.5029 C   0  0  0  0  0  0  0  0  0  0  0  0
    6.4069  -13.5745   26.4708 C   0  0  0  0  0  0  0  0  0  0  0  0
    6.1328  -14.8830   26.1172 C   0  0  0  0  0  0  0  0  0  0  0  0
    6.2721  -15.3205   24.8019 C   0  0  0  0  0  0  0  0  0  0  0  0
    8.7040  -16.4634   22.9416 C   0  0  0  0  0  0  0  0  0  0  0  0
    8.3816  -17.6434   22.5955 O   0  0  0  0  0  0  0  0  0  0  0  0
    9.4955  -16.2826   24.1024 N   0  0  0  0  0  0  0  0  0  0  0  0
   10.1724  -17.4298   24.6891 C   0  0  1  0  0  0  0  0  0  0  0  0
   11.3381  -16.9622   25.5274 C   0  0  0  0  0  0  0  0  0  0  0  0
   10.9123  -16.5805   26.8758 C   0  0  0  0  0  0  0  0  0  0  0  0
   10.4862  -17.4128   27.9027 C   0  0  0  0  0  0  0  0  0  0  0  0
   10.1447  -16.6762   28.9662 N   0  0  0  0  0  0  0  0  0  0  0  0
   10.3279  -15.3760   28.6893 C   0  0  0  0  0  0  0  0  0  0  0  0
   10.1545  -14.2043   29.4215 C   0  0  0  0  0  0  0  0  0  0  0  0
   10.4497  -12.9774   28.8817 C   0  0  0  0  0  0  0  0  0  0  0  0
   10.9296  -12.8839   27.5873 C   0  0  0  0  0  0  0  0  0  0  0  0
   11.1029  -14.0375   26.8564 C   0  0  0  0  0  0  0  0  0  0  0  0
   10.8054  -15.2936   27.3938 C   0  0  0  0  0  0  0  0  0  0  0  0
    9.2831  -18.3652   25.3427 C   0  0  0  0  0  0  0  0  0  0  0  0
    9.7770  -19.6297   25.7220 O   0  0  0  0  0  0  0  0  0  0  0  0
    8.0758  -18.1756   25.6220 O   0  0  0  0  0  0  0  0  0  0  0  0
  1  2  1  0
  2  3  1  0
  4  3  1  0
  5  4  1  0
  5  1  1  0
  5  6  1  1
  7  6  2  0
  8  6  1  0
  9  8  1  0
 10 11  1  0
  9 10  1  1
 11 16  2  0
 12 13  2  0
 12 11  1  0
 13 14  1  0
 14 15  2  0
 16 15  1  0
 17  9  1  0
 17 19  1  0
 18 17  2  0
 20 21  1  1
 20 19  1  0
 20 31  1  0
 22 30  1  0
 22 21  1  0
 23 22  2  0
 24 23  1  0
 24 25  1  0
 25 26  1  0
 25 30  2  0
 26 27  2  0
 27 28  1  0
 29 28  2  0
 30 29  1  0
 31 32  1  0
 33 31  2  0
M  END
$$$$
