PFW.pdb
     RDKit          3D

 33 36  0  0  1  0  0  0  0  0999 V2000
    8.0972  -15.8127   17.9277 N   0  0  0  0  0  0  0  0  0  0  0  0
    7.3682  -15.4158   16.7669 C   0  0  0  0  0  0  0  0  0  0  0  0
    7.6588  -13.9529   16.5206 C   0  0  0  0  0  0  0  0  0  0  0  0
    8.1318  -13.5048   17.9075 C   0  0  0  0  0  0  0  0  0  0  0  0
    8.8828  -14.7066   18.3678 C   0  0  1  0  0  0  0  0  0  0  0  0
    9.1130  -14.7160   19.8361 C   0  0  0  0  0  0  0  0  0  0  0  0
   10.1313  -14.1278   20.2621 O   0  0  0  0  0  0  0  0  0  0  0  0
    8.2482  -15.3480   20.7512 N   0  0  0  0  0  0  0  0  0  0  0  0
    8.3662  -15.0705   22.1708 C   0  0  1  0  0  0  0  0  0  0  0  0
    7.0778  -14.5530   22.7304 C   0  0  0  0  0  0  0  0  0  0  0  0
    7.1677  -14.1570   24.1551 C   0  0  0  0  0  0  0  0  0  0  0  0
    7.4794  -12.8600   24.5049 C   0  0  0  0  0  0  0  0  0  0  0  0
    7.5779  -12.4363   25.8085 C   0  0  0  0  0  0  0  0  0  0  0  0
    7.3545  -13.3524   26.8165 C   0  0  0  0  0  0  0  0  0  0  0  0
    7.0406  -14.6589   26.4895 C   0  0  0  0  0  0  0  0  0  0  0  0
    6.9455  -15.0685   25.1614 C   0  0  0  0  0  0  0  0  0  0  0  0
    8.9184  -16.2425   22.8710 C   0  0  0  0  0  0  0  0  0  0  0  0
    8.6301  -17.3940   22.4162 O   0  0  0  0  0  0  0  0  0  0  0  0
    9.7487  -16.1465   24.0148 N   0  0  0  0  0  0  0  0  0  0  0  0
   10.4781  -17.3221   24.4665 C   0  0  1  0  0  0  0  0  0  0  0  0
   11.5914  -16.9066   25.3983 C   0  0  0  0  0  0  0  0  0  0  0  0
   11.1052  -16.7182   26.7670 C   0  0  0  0  0  0  0  0  0  0  0  0
   11.1346  -17.6292   27.8150 C   0  0  0  0  0  0  0  0  0  0  0  0
   10.5556  -17.0914   28.8947 N   0  0  0  0  0  0  0  0  0  0  0  0
   10.1386  -15.8485   28.6084 C   0  0  0  0  0  0  0  0  0  0  0  0
    9.5048  -14.8537   29.3484 C   0  0  0  0  0  0  0  0  0  0  0  0
    9.2082  -13.6337   28.7937 C   0  0  0  0  0  0  0  0  0  0  0  0
    9.5377  -13.3699   27.4761 C   0  0  0  0  0  0  0  0  0  0  0  0
   10.1636  -14.3484   26.7374 C   0  0  0  0  0  0  0  0  0  0  0  0
   10.4708  -15.5957   27.2897 C   0  0  0  0  0  0  0  0  0  0  0  0
    9.6303  -18.3856   24.9599 C   0  0  0  0  0  0  0  0  0  0  0  0
   10.2100  -19.6275   25.2888 O   0  0  0  0  0  0  0  0  0  0  0  0
    8.3903  -18.3299   25.1355 O   0  0  0  0  0  0  0  0  0  0  0  0
  1  2  1  0
  2  3  1  0
  4  3  1  0
  5  4  1  0
  5  1  1  0
  5  6  1  1
  7  6  2  0
  8  6  1  0
  9  8  1  0
 10 11  1  0
  9 10  1  1
 11 16  2  0
 12 13  2  0
 12 11  1  0
 13 14  1  0
 14 15  2  0
 16 15  1  0
 17  9  1  0
 17 19  1  0
 18 17  2  0
 20 21  1  1
 20 19  1  0
 20 31  1  0
 22 30  1  0
 22 21  1  0
 23 22  2  0
 24 23  1  0
 24 25  1  0
 25 26  1  0
 25 30  2  0
 26 27  2  0
 27 28  1  0
 29 28  2  0
 30 29  1  0
 31 32  1  0
 33 31  2  0
M  END
$$$$
