PFW.pdb
     RDKit          3D

 33 36  0  0  1  0  0  0  0  0999 V2000
    8.4732  -15.5688   17.9470 N   0  0  0  0  0  0  0  0  0  0  0  0
    8.0133  -15.1726   16.6556 C   0  0  0  0  0  0  0  0  0  0  0  0
    8.3231  -13.7024   16.4894 C   0  0  0  0  0  0  0  0  0  0  0  0
    8.4668  -13.2606   17.9495 C   0  0  0  0  0  0  0  0  0  0  0  0
    9.1197  -14.4538   18.5580 C   0  0  1  0  0  0  0  0  0  0  0  0
    9.0174  -14.4745   20.0406 C   0  0  0  0  0  0  0  0  0  0  0  0
    9.7190  -13.6573   20.6765 O   0  0  0  0  0  0  0  0  0  0  0  0
    8.1791  -15.3597   20.7464 N   0  0  0  0  0  0  0  0  0  0  0  0
    8.0610  -15.2517   22.1889 C   0  0  1  0  0  0  0  0  0  0  0  0
    6.6272  -15.1608   22.6095 C   0  0  0  0  0  0  0  0  0  0  0  0
    6.4502  -14.9071   24.0583 C   0  0  0  0  0  0  0  0  0  0  0  0
    6.5544  -13.6288   24.5652 C   0  0  0  0  0  0  0  0  0  0  0  0
    6.4014  -13.3344   25.8987 C   0  0  0  0  0  0  0  0  0  0  0  0
    6.1306  -14.3673   26.7735 C   0  0  0  0  0  0  0  0  0  0  0  0
    6.0217  -15.6575   26.2879 C   0  0  0  0  0  0  0  0  0  0  0  0
    6.1802  -15.9351   24.9319 C   0  0  0  0  0  0  0  0  0  0  0  0
    8.8302  -16.3249   22.8410 C   0  0  0  0  0  0  0  0  0  0  0  0
    8.7477  -17.4947   22.3503 O   0  0  0  0  0  0  0  0  0  0  0  0
    9.6505  -16.1154   23.9768 N   0  0  0  0  0  0  0  0  0  0  0  0
   10.5688  -17.1639   24.3958 C   0  0  1  0  0  0  0  0  0  0  0  0
   11.7113  -16.5609   25.1776 C   0  0  0  0  0  0  0  0  0  0  0  0
   11.2971  -16.1832   26.5308 C   0  0  0  0  0  0  0  0  0  0  0  0
   10.8141  -17.0104   27.5364 C   0  0  0  0  0  0  0  0  0  0  0  0
   10.5073  -16.2774   28.6129 N   0  0  0  0  0  0  0  0  0  0  0  0
   10.7689  -14.9848   28.3654 C   0  0  0  0  0  0  0  0  0  0  0  0
   10.6583  -13.8206   29.1213 C   0  0  0  0  0  0  0  0  0  0  0  0
   11.0297  -12.6020   28.6102 C   0  0  0  0  0  0  0  0  0  0  0  0
   11.5254  -12.5099   27.3217 C   0  0  0  0  0  0  0  0  0  0  0  0
   11.6370  -13.6560   26.5675 C   0  0  0  0  0  0  0  0  0  0  0  0
   11.2615  -14.9035   27.0755 C   0  0  0  0  0  0  0  0  0  0  0  0
    9.9218  -18.2932   25.0277 C   0  0  0  0  0  0  0  0  0  0  0  0
    8.5976  -18.1537   25.4900 O   0  0  0  0  0  0  0  0  0  0  0  0
   10.4213  -19.4267   25.2207 O   0  0  0  0  0  0  0  0  0  0  0  0
  1  2  1  0
  2  3  1  0
  4  3  1  0
  5  4  1  0
  5  1  1  0
  5  6  1  1
  7  6  2  0
  8  6  1  0
  9  8  1  0
 10 11  1  0
  9 10  1  6
 11 16  2  0
 12 13  2  0
 12 11  1  0
 13 14  1  0
 14 15  2  0
 16 15  1  0
 17  9  1  0
 17 19  1  0
 18 17  2  0
 20 21  1  1
 20 19  1  0
 20 31  1  0
 22 30  1  0
 22 21  1  0
 23 22  2  0
 24 23  1  0
 24 25  1  0
 25 26  1  0
 25 30  2  0
 26 27  2  0
 27 28  1  0
 29 28  2  0
 30 29  1  0
 31 32  1  0
 33 31  2  0
M  END
$$$$
