PFW.pdb
     RDKit          3D

 33 36  0  0  1  0  0  0  0  0999 V2000
    6.6883  -17.4240   21.7662 N   0  0  0  0  0  0  0  0  0  0  0  0
    5.4621  -17.3472   21.0403 C   0  0  0  0  0  0  0  0  0  0  0  0
    5.7223  -16.5494   19.7830 C   0  0  0  0  0  0  0  0  0  0  0  0
    6.9876  -15.7791   20.1747 C   0  0  0  0  0  0  0  0  0  0  0  0
    7.7090  -16.7911   20.9967 C   0  0  1  0  0  0  0  0  0  0  0  0
    8.7760  -16.1941   21.8417 C   0  0  0  0  0  0  0  0  0  0  0  0
    9.8166  -15.8075   21.2654 O   0  0  0  0  0  0  0  0  0  0  0  0
    8.6664  -16.0482   23.2386 N   0  0  0  0  0  0  0  0  0  0  0  0
    9.6670  -15.2928   23.9695 C   0  0  1  0  0  0  0  0  0  0  0  0
    9.0512  -14.5340   25.1035 C   0  0  0  0  0  0  0  0  0  0  0  0
    7.8817  -13.7174   24.7035 C   0  0  0  0  0  0  0  0  0  0  0  0
    6.8074  -13.5652   25.5547 C   0  0  0  0  0  0  0  0  0  0  0  0
    5.6963  -12.8217   25.2370 C   0  0  0  0  0  0  0  0  0  0  0  0
    5.6527  -12.1970   24.0068 C   0  0  0  0  0  0  0  0  0  0  0  0
    6.7185  -12.3356   23.1366 C   0  0  0  0  0  0  0  0  0  0  0  0
    7.8361  -13.0940   23.4779 C   0  0  0  0  0  0  0  0  0  0  0  0
   10.7866  -16.1712   24.3486 C   0  0  0  0  0  0  0  0  0  0  0  0
   11.9606  -15.6851   24.3080 O   0  0  0  0  0  0  0  0  0  0  0  0
   10.6172  -17.5180   24.7537 N   0  0  0  0  0  0  0  0  0  0  0  0
   11.7474  -18.2396   25.3196 C   0  0  1  0  0  0  0  0  0  0  0  0
   11.4957  -18.5185   26.7821 C   0  0  0  0  0  0  0  0  0  0  0  0
   10.2781  -17.8555   27.2546 C   0  0  0  0  0  0  0  0  0  0  0  0
    8.9639  -18.2785   27.1036 C   0  0  0  0  0  0  0  0  0  0  0  0
    8.1361  -17.3738   27.6389 N   0  0  0  0  0  0  0  0  0  0  0  0
    8.8497  -16.3568   28.1460 C   0  0  0  0  0  0  0  0  0  0  0  0
    8.5093  -15.1856   28.8179 C   0  0  0  0  0  0  0  0  0  0  0  0
    9.4720  -14.3109   29.2560 C   0  0  0  0  0  0  0  0  0  0  0  0
   10.8107  -14.5816   29.0347 C   0  0  0  0  0  0  0  0  0  0  0  0
   11.1556  -15.7369   28.3704 C   0  0  0  0  0  0  0  0  0  0  0  0
   10.1851  -16.6361   27.9180 C   0  0  0  0  0  0  0  0  0  0  0  0
   12.1630  -19.3849   24.5395 C   0  0  0  0  0  0  0  0  0  0  0  0
   13.3083  -20.1048   24.9354 O   0  0  0  0  0  0  0  0  0  0  0  0
   11.6015  -19.8297   23.5106 O   0  0  0  0  0  0  0  0  0  0  0  0
  1  2  1  0
  2  3  1  0
  4  3  1  0
  5  4  1  0
  5  1  1  0
  5  6  1  1
  7  6  2  0
  8  6  1  0
  9  8  1  0
 10 11  1  0
  9 10  1  1
 11 16  2  0
 12 13  2  0
 12 11  1  0
 13 14  1  0
 14 15  2  0
 16 15  1  0
 17  9  1  0
 17 19  1  0
 18 17  2  0
 20 21  1  1
 20 19  1  0
 20 31  1  0
 22 30  1  0
 22 21  1  0
 23 22  2  0
 24 23  1  0
 24 25  1  0
 25 26  1  0
 25 30  2  0
 26 27  2  0
 27 28  1  0
 29 28  2  0
 30 29  1  0
 31 32  1  0
 33 31  2  0
M  END
$$$$
