MCV.pdb
     RDKit          3D

 22 21  0  0  1  0  0  0  0  0999 V2000
   28.4410  -18.0752   -6.2975 C   0  0  0  0  0  0  0  0  0  0  0  0
   28.0381  -19.7980   -6.6835 S   0  0  0  0  0  0  0  0  0  0  0  0
   26.3445  -19.9479   -7.2707 C   0  0  0  0  0  0  0  0  0  0  0  0
   26.1837  -19.5556   -8.7166 C   0  0  0  0  0  0  0  0  0  0  0  0
   26.0647  -20.7408   -9.6339 C   0  0  2  0  0  0  0  0  0  0  0  0
   27.1820  -21.6727   -9.4454 N   0  0  0  0  0  0  0  0  0  0  0  0
   25.9756  -20.2912  -11.0315 C   0  0  0  0  0  0  0  0  0  0  0  0
   25.8206  -19.0401  -11.2086 O   0  0  0  0  0  0  0  0  0  0  0  0
   26.0506  -21.1499  -12.1632 N   0  0  0  0  0  0  0  0  0  0  0  0
   26.1128  -20.5792  -13.4689 C   0  0  1  0  0  0  0  0  0  0  0  0
   27.4379  -20.9888  -14.1059 C   0  0  0  0  0  0  0  0  0  0  0  0
   28.8317  -20.5807  -13.0260 S   0  0  0  0  0  0  0  0  0  0  0  0
   24.9567  -20.9532  -14.3250 C   0  0  0  0  0  0  0  0  0  0  0  0
   24.4776  -22.1033  -14.3688 O   0  0  0  0  0  0  0  0  0  0  0  0
   23.3369  -17.7783  -16.5586 C   0  0  0  0  0  0  0  0  0  0  0  0
   22.4479  -18.9101  -16.0856 C   0  0  2  0  0  0  0  0  0  0  0  0
   22.0187  -18.5839  -14.6668 C   0  0  0  0  0  0  0  0  0  0  0  0
   23.2686  -20.1715  -16.0382 C   0  0  2  0  0  0  0  0  0  0  0  0
   24.3750  -19.9516  -15.1275 N   0  0  0  0  0  0  0  0  0  0  0  0
   23.6968  -20.6498  -17.3517 C   0  0  0  0  0  0  0  0  0  0  0  0
   24.8570  -20.3971  -17.7592 O   0  0  0  0  0  0  0  0  0  0  0  0
   22.8763  -21.3831  -18.1916 O   0  0  0  0  0  0  0  0  0  0  0  0
  2  1  1  0
  3  2  1  0
  3  4  1  0
  4  5  1  0
  5  7  1  0
  5  6  1  6
  7  8  2  0
  7  9  1  0
  9 10  1  0
 10 13  1  0
 10 11  1  6
 11 12  1  0
 13 14  2  0
 16 15  1  1
 16 18  1  0
 17 16  1  0
 18 20  1  0
 19 13  1  0
 18 19  1  1
 20 22  1  0
 21 20  2  0
M  END
$$$$
