MCV.pdb
     RDKit          3D

 22 21  0  0  1  0  0  0  0  0999 V2000
   21.7581  -11.4396  -21.3810 C   0  0  0  0  0  0  0  0  0  0  0  0
   21.3197  -13.0392  -20.6542 S   0  0  0  0  0  0  0  0  0  0  0  0
   19.5918  -13.0687  -20.1551 C   0  0  0  0  0  0  0  0  0  0  0  0
   19.2536  -12.0132  -19.1344 C   0  0  0  0  0  0  0  0  0  0  0  0
   19.8809  -12.2749  -17.7934 C   0  0  2  0  0  0  0  0  0  0  0  0
   19.2826  -13.4482  -17.1469 N   0  0  0  0  0  0  0  0  0  0  0  0
   19.7681  -11.0814  -16.9412 C   0  0  0  0  0  0  0  0  0  0  0  0
   18.7007  -10.9823  -16.2546 O   0  0  0  0  0  0  0  0  0  0  0  0
   20.7550  -10.0615  -16.8439 N   0  0  0  0  0  0  0  0  0  0  0  0
   20.5033   -8.9234  -16.0217 C   0  0  1  0  0  0  0  0  0  0  0  0
   21.6085   -8.8390  -14.9726 C   0  0  0  0  0  0  0  0  0  0  0  0
   21.3672   -7.4105  -13.8879 S   0  0  0  0  0  0  0  0  0  0  0  0
   20.3864   -7.6593  -16.7948 C   0  0  0  0  0  0  0  0  0  0  0  0
   21.2006   -7.3132  -17.6732 O   0  0  0  0  0  0  0  0  0  0  0  0
   17.5290   -6.5448  -18.7217 C   0  0  0  0  0  0  0  0  0  0  0  0
   17.6767   -5.4744  -17.6598 C   0  0  2  0  0  0  0  0  0  0  0  0
   17.4762   -4.1327  -18.3407 C   0  0  0  0  0  0  0  0  0  0  0  0
   19.0873   -5.5164  -17.1351 C   0  0  2  0  0  0  0  0  0  0  0  0
   19.2964   -6.8108  -16.5166 N   0  0  0  0  0  0  0  0  0  0  0  0
   19.4249   -4.4007  -16.2526 C   0  0  0  0  0  0  0  0  0  0  0  0
   18.9737   -4.3739  -15.0814 O   0  0  0  0  0  0  0  0  0  0  0  0
   20.2332   -3.3473  -16.6441 O   0  0  0  0  0  0  0  0  0  0  0  0
  2  1  1  0
  3  2  1  0
  3  4  1  0
  4  5  1  0
  5  7  1  0
  5  6  1  1
  7  8  2  0
  7  9  1  0
  9 10  1  0
 10 13  1  0
 10 11  1  1
 11 12  1  0
 13 14  2  0
 16 15  1  6
 16 18  1  0
 17 16  1  0
 18 20  1  0
 19 13  1  0
 18 19  1  1
 20 22  1  0
 21 20  2  0
M  END
$$$$
