MCV.pdb
     RDKit          3D

 22 21  0  0  1  0  0  0  0  0999 V2000
   25.7153  -19.4246   -7.3769 C   0  0  0  0  0  0  0  0  0  0  0  0
   27.3736  -20.1103   -7.6190 S   0  0  0  0  0  0  0  0  0  0  0  0
   27.4238  -21.1817   -9.0630 C   0  0  0  0  0  0  0  0  0  0  0  0
   26.4529  -20.7689  -10.1388 C   0  0  0  0  0  0  0  0  0  0  0  0
   26.5049  -21.6623  -11.3469 C   0  0  2  0  0  0  0  0  0  0  0  0
   27.8569  -21.7096  -11.9148 N   0  0  0  0  0  0  0  0  0  0  0  0
   25.5221  -21.2178  -12.3468 C   0  0  0  0  0  0  0  0  0  0  0  0
   25.9958  -20.6588  -13.3878 O   0  0  0  0  0  0  0  0  0  0  0  0
   24.1137  -21.3726  -12.2201 N   0  0  0  0  0  0  0  0  0  0  0  0
   23.2880  -21.2134  -13.3723 C   0  0  1  0  0  0  0  0  0  0  0  0
   22.1081  -22.1737  -13.2500 C   0  0  0  0  0  0  0  0  0  0  0  0
   21.2035  -21.8985  -11.7068 S   0  0  0  0  0  0  0  0  0  0  0  0
   22.8335  -19.8129  -13.5758 C   0  0  0  0  0  0  0  0  0  0  0  0
   22.6125  -19.0194  -12.6400 O   0  0  0  0  0  0  0  0  0  0  0  0
   24.3666  -17.3669  -15.9428 C   0  0  0  0  0  0  0  0  0  0  0  0
   22.9323  -17.5283  -16.4032 C   0  0  2  0  0  0  0  0  0  0  0  0
   22.4082  -16.1443  -16.7404 C   0  0  0  0  0  0  0  0  0  0  0  0
   22.1200  -18.0585  -15.2517 C   0  0  2  0  0  0  0  0  0  0  0  0
   22.6439  -19.3632  -14.8976 N   0  0  0  0  0  0  0  0  0  0  0  0
   20.6790  -18.0698  -15.4984 C   0  0  0  0  0  0  0  0  0  0  0  0
   20.1757  -18.9728  -16.2106 O   0  0  0  0  0  0  0  0  0  0  0  0
   19.8174  -17.1191  -14.9788 O   0  0  0  0  0  0  0  0  0  0  0  0
  2  1  1  0
  3  2  1  0
  3  4  1  0
  4  5  1  0
  5  7  1  0
  5  6  1  6
  7  8  2  0
  7  9  1  0
  9 10  1  0
 10 13  1  0
 10 11  1  1
 11 12  1  0
 13 14  2  0
 16 15  1  1
 16 18  1  0
 17 16  1  0
 18 20  1  0
 19 13  1  0
 18 19  1  6
 20 22  1  0
 21 20  2  0
M  END
$$$$
