MCV.pdb
     RDKit          3D

 22 21  0  0  1  0  0  0  0  0999 V2000
   23.1317   -9.9780  -22.5005 C   0  0  0  0  0  0  0  0  0  0  0  0
   22.3631  -11.6111  -22.6465 S   0  0  0  0  0  0  0  0  0  0  0  0
   22.1868  -12.3871  -21.0333 C   0  0  0  0  0  0  0  0  0  0  0  0
   21.2989  -11.6088  -20.0972 C   0  0  0  0  0  0  0  0  0  0  0  0
   21.5101  -11.9728  -18.6539 C   0  0  2  0  0  0  0  0  0  0  0  0
   20.8654  -13.2499  -18.3283 N   0  0  0  0  0  0  0  0  0  0  0  0
   21.0219  -10.8922  -17.7836 C   0  0  0  0  0  0  0  0  0  0  0  0
   19.7880  -10.9368  -17.4738 O   0  0  0  0  0  0  0  0  0  0  0  0
   21.8269   -9.8313  -17.2835 N   0  0  0  0  0  0  0  0  0  0  0  0
   21.2399   -8.8557  -16.4242 C   0  0  1  0  0  0  0  0  0  0  0  0
   21.9155   -8.9540  -15.0592 C   0  0  0  0  0  0  0  0  0  0  0  0
   21.2648   -7.7065  -13.9208 S   0  0  0  0  0  0  0  0  0  0  0  0
   21.3133   -7.4758  -16.9718 C   0  0  0  0  0  0  0  0  0  0  0  0
   22.3571   -6.9745  -17.4338 O   0  0  0  0  0  0  0  0  0  0  0  0
   17.6731   -5.8180  -17.8371 C   0  0  0  0  0  0  0  0  0  0  0  0
   18.9379   -5.3040  -18.4938 C   0  0  2  0  0  0  0  0  0  0  0  0
   19.2926   -6.2711  -19.6086 C   0  0  0  0  0  0  0  0  0  0  0  0
   20.0504   -5.3445  -17.4801 C   0  0  2  0  0  0  0  0  0  0  0  0
   20.1388   -6.6973  -16.9663 N   0  0  0  0  0  0  0  0  0  0  0  0
   19.9276   -4.3401  -16.4248 C   0  0  0  0  0  0  0  0  0  0  0  0
   19.4708   -4.6679  -15.3024 O   0  0  0  0  0  0  0  0  0  0  0  0
   20.2952   -3.0166  -16.5969 O   0  0  0  0  0  0  0  0  0  0  0  0
  2  1  1  0
  3  2  1  0
  3  4  1  0
  4  5  1  0
  5  7  1  0
  5  6  1  1
  7  8  2  0
  7  9  1  0
  9 10  1  0
 10 13  1  0
 10 11  1  1
 11 12  1  0
 13 14  2  0
 16 15  1  1
 16 18  1  0
 17 16  1  0
 18 20  1  0
 19 13  1  0
 18 19  1  1
 20 22  1  0
 21 20  2  0
M  END
$$$$
