MCV.pdb
     RDKit          3D

 22 21  0  0  1  0  0  0  0  0999 V2000
   16.0569  -14.1045  -21.1228 C   0  0  0  0  0  0  0  0  0  0  0  0
   15.9324  -12.8128  -19.8598 S   0  0  0  0  0  0  0  0  0  0  0  0
   16.7517  -13.3163  -18.3398 C   0  0  0  0  0  0  0  0  0  0  0  0
   16.6735  -12.2750  -17.2536 C   0  0  0  0  0  0  0  0  0  0  0  0
   18.0253  -11.8643  -16.7393 C   0  0  2  0  0  0  0  0  0  0  0  0
   18.7003  -12.9812  -16.0690 N   0  0  0  0  0  0  0  0  0  0  0  0
   17.8943  -10.7055  -15.8431 C   0  0  0  0  0  0  0  0  0  0  0  0
   17.2203  -10.8933  -14.7796 O   0  0  0  0  0  0  0  0  0  0  0  0
   18.4613   -9.4245  -16.0902 N   0  0  0  0  0  0  0  0  0  0  0  0
   18.2111   -8.3620  -15.1720 C   0  0  1  0  0  0  0  0  0  0  0  0
   19.4820   -8.1224  -14.3617 C   0  0  0  0  0  0  0  0  0  0  0  0
   20.8572   -7.6433  -15.4364 S   0  0  0  0  0  0  0  0  0  0  0  0
   17.7427   -7.1164  -15.8342 C   0  0  0  0  0  0  0  0  0  0  0  0
   18.0139   -6.8222  -17.0149 O   0  0  0  0  0  0  0  0  0  0  0  0
   14.7430   -5.8621  -16.9311 C   0  0  0  0  0  0  0  0  0  0  0  0
   15.0382   -4.9557  -15.7536 C   0  0  2  0  0  0  0  0  0  0  0  0
   14.5877   -3.5577  -16.1363 C   0  0  0  0  0  0  0  0  0  0  0  0
   16.5289   -4.9166  -15.5457 C   0  0  2  0  0  0  0  0  0  0  0  0
   16.9509   -6.2245  -15.0839 N   0  0  0  0  0  0  0  0  0  0  0  0
   16.9777   -3.8314  -14.6747 C   0  0  0  0  0  0  0  0  0  0  0  0
   17.1530   -2.6828  -15.1500 O   0  0  0  0  0  0  0  0  0  0  0  0
   17.2261   -4.0025  -13.3237 O   0  0  0  0  0  0  0  0  0  0  0  0
  2  1  1  0
  3  2  1  0
  3  4  1  0
  4  5  1  0
  5  7  1  0
  5  6  1  1
  7  8  2  0
  7  9  1  0
  9 10  1  0
 10 13  1  0
 10 11  1  6
 11 12  1  0
 13 14  2  0
 16 15  1  6
 16 18  1  0
 17 16  1  0
 18 20  1  0
 19 13  1  0
 18 19  1  1
 20 22  1  0
 21 20  2  0
M  END
$$$$
