MCV.pdb
     RDKit          3D

 22 21  0  0  1  0  0  0  0  0999 V2000
   26.3616  -15.4002  -14.3540 C   0  0  0  0  0  0  0  0  0  0  0  0
   26.1363  -16.8976  -15.3470 S   0  0  0  0  0  0  0  0  0  0  0  0
   24.4154  -17.0974  -15.8308 C   0  0  0  0  0  0  0  0  0  0  0  0
   23.7334  -15.7902  -16.1412 C   0  0  0  0  0  0  0  0  0  0  0  0
   22.3069  -15.9657  -16.5826 C   0  0  2  0  0  0  0  0  0  0  0  0
   22.2030  -16.9520  -17.6638 N   0  0  0  0  0  0  0  0  0  0  0  0
   21.7400  -14.6702  -16.9867 C   0  0  0  0  0  0  0  0  0  0  0  0
   21.5438  -14.5092  -18.2342 O   0  0  0  0  0  0  0  0  0  0  0  0
   21.4083  -13.6177  -16.0890 N   0  0  0  0  0  0  0  0  0  0  0  0
   20.7901  -12.4366  -16.5966 C   0  0  1  0  0  0  0  0  0  0  0  0
   19.4304  -12.8203  -17.1739 C   0  0  0  0  0  0  0  0  0  0  0  0
   18.5087  -13.8700  -16.0233 S   0  0  0  0  0  0  0  0  0  0  0  0
   20.6674  -11.3591  -15.5802 C   0  0  0  0  0  0  0  0  0  0  0  0
   20.2058  -11.5423  -14.4368 O   0  0  0  0  0  0  0  0  0  0  0  0
   22.9127   -8.0239  -16.5020 C   0  0  0  0  0  0  0  0  0  0  0  0
   22.6294   -8.4420  -15.0737 C   0  0  2  0  0  0  0  0  0  0  0  0
   23.5618   -9.5943  -14.7475 C   0  0  0  0  0  0  0  0  0  0  0  0
   21.2174   -8.9595  -15.0009 C   0  0  2  0  0  0  0  0  0  0  0  0
   21.0969  -10.0640  -15.9323 N   0  0  0  0  0  0  0  0  0  0  0  0
   20.1979   -7.9307  -15.2006 C   0  0  0  0  0  0  0  0  0  0  0  0
   20.0211   -7.0500  -14.3236 O   0  0  0  0  0  0  0  0  0  0  0  0
   19.3976   -7.8709  -16.3286 O   0  0  0  0  0  0  0  0  0  0  0  0
  2  1  1  0
  3  2  1  0
  3  4  1  0
  4  5  1  0
  5  7  1  0
  5  6  1  6
  7  8  2  0
  7  9  1  0
  9 10  1  0
 10 13  1  0
 10 11  1  1
 11 12  1  0
 13 14  2  0
 16 15  1  6
 16 18  1  0
 17 16  1  0
 18 20  1  0
 19 13  1  0
 18 19  1  6
 20 22  1  0
 21 20  2  0
M  END
$$$$
