MCV.pdb
     RDKit          3D

 22 21  0  0  1  0  0  0  0  0999 V2000
   19.0315  -14.5899  -14.0830 C   0  0  0  0  0  0  0  0  0  0  0  0
   17.2786  -14.1916  -13.8645 S   0  0  0  0  0  0  0  0  0  0  0  0
   16.9462  -12.4804  -14.3081 C   0  0  0  0  0  0  0  0  0  0  0  0
   17.8339  -11.4998  -13.5863 C   0  0  0  0  0  0  0  0  0  0  0  0
   17.5301  -10.0695  -13.9361 C   0  0  2  0  0  0  0  0  0  0  0  0
   18.4166   -9.5827  -14.9988 N   0  0  0  0  0  0  0  0  0  0  0  0
   17.6235   -9.2250  -12.7355 C   0  0  0  0  0  0  0  0  0  0  0  0
   18.7470   -9.2248  -12.1369 O   0  0  0  0  0  0  0  0  0  0  0  0
   16.5607   -8.4319  -12.2205 N   0  0  0  0  0  0  0  0  0  0  0  0
   16.8666   -7.2503  -11.4823 C   0  0  1  0  0  0  0  0  0  0  0  0
   17.6498   -6.3084  -12.3927 C   0  0  0  0  0  0  0  0  0  0  0  0
   17.8998   -4.6995  -11.6025 S   0  0  0  0  0  0  0  0  0  0  0  0
   15.6624   -6.5873  -10.9169 C   0  0  0  0  0  0  0  0  0  0  0  0
   14.7390   -6.1271  -11.6167 O   0  0  0  0  0  0  0  0  0  0  0  0
   15.1156   -7.1307   -6.8195 C   0  0  0  0  0  0  0  0  0  0  0  0
   13.9709   -6.8677   -7.7765 C   0  0  2  0  0  0  0  0  0  0  0  0
   13.6613   -8.1764   -8.4801 C   0  0  0  0  0  0  0  0  0  0  0  0
   14.4379   -5.8860   -8.8182 C   0  0  2  0  0  0  0  0  0  0  0  0
   15.5640   -6.4754   -9.5157 N   0  0  0  0  0  0  0  0  0  0  0  0
   14.7276   -4.5540   -8.2898 C   0  0  0  0  0  0  0  0  0  0  0  0
   13.7933   -3.8433   -7.8446 O   0  0  0  0  0  0  0  0  0  0  0  0
   16.0038   -4.0190   -8.2512 O   0  0  0  0  0  0  0  0  0  0  0  0
  2  1  1  0
  3  2  1  0
  3  4  1  0
  4  5  1  0
  5  7  1  0
  5  6  1  6
  7  8  2  0
  7  9  1  0
  9 10  1  0
 10 13  1  0
 10 11  1  6
 11 12  1  0
 13 14  2  0
 16 15  1  1
 16 18  1  0
 17 16  1  0
 18 20  1  0
 19 13  1  0
 18 19  1  1
 20 22  1  0
 21 20  2  0
M  END
$$$$
