MCV.pdb
     RDKit          3D

 22 21  0  0  1  0  0  0  0  0999 V2000
   21.2502  -20.1545  -15.0299 C   0  0  0  0  0  0  0  0  0  0  0  0
   21.7841  -18.4284  -15.1503 S   0  0  0  0  0  0  0  0  0  0  0  0
   21.2964  -17.7112  -16.7262 C   0  0  0  0  0  0  0  0  0  0  0  0
   21.7279  -16.2758  -16.8807 C   0  0  0  0  0  0  0  0  0  0  0  0
   21.3081  -15.6777  -18.1947 C   0  0  2  0  0  0  0  0  0  0  0  0
   21.9403  -16.3734  -19.3211 N   0  0  0  0  0  0  0  0  0  0  0  0
   21.6152  -14.2395  -18.2164 C   0  0  0  0  0  0  0  0  0  0  0  0
   22.3815  -13.8445  -19.1530 O   0  0  0  0  0  0  0  0  0  0  0  0
   21.1192  -13.2929  -17.2775 N   0  0  0  0  0  0  0  0  0  0  0  0
   21.4501  -11.9144  -17.4356 C   0  0  1  0  0  0  0  0  0  0  0  0
   20.8894  -11.4396  -18.7733 C   0  0  0  0  0  0  0  0  0  0  0  0
   19.0853  -11.5790  -18.8080 S   0  0  0  0  0  0  0  0  0  0  0  0
   20.9728  -11.0669  -16.3117 C   0  0  0  0  0  0  0  0  0  0  0  0
   19.8447  -11.1837  -15.7941 O   0  0  0  0  0  0  0  0  0  0  0  0
   24.0097   -9.3695  -14.1743 C   0  0  0  0  0  0  0  0  0  0  0  0
   22.6457   -9.6785  -13.5918 C   0  0  2  0  0  0  0  0  0  0  0  0
   22.5739  -11.1802  -13.3831 C   0  0  0  0  0  0  0  0  0  0  0  0
   21.5991   -9.3059  -14.6081 C   0  0  2  0  0  0  0  0  0  0  0  0
   21.8448  -10.0811  -15.8083 N   0  0  0  0  0  0  0  0  0  0  0  0
   21.5072   -7.8696  -14.8650 C   0  0  0  0  0  0  0  0  0  0  0  0
   22.0298   -7.3868  -15.8993 O   0  0  0  0  0  0  0  0  0  0  0  0
   20.8612   -6.9908  -14.0127 O   0  0  0  0  0  0  0  0  0  0  0  0
  2  1  1  0
  3  2  1  0
  3  4  1  0
  4  5  1  0
  5  7  1  0
  5  6  1  6
  7  8  2  0
  7  9  1  0
  9 10  1  0
 10 13  1  0
 10 11  1  6
 11 12  1  0
 13 14  2  0
 16 15  1  6
 16 18  1  0
 17 16  1  0
 18 20  1  0
 19 13  1  0
 18 19  1  6
 20 22  1  0
 21 20  2  0
M  END
$$$$
