AWS.pdb
     RDKit          3D

 26 27  0  0  1  0  0  0  0  0999 V2000
   27.6633  -20.8530  -18.1185 C   0  0  0  0  0  0  0  0  0  0  0  0
   28.6426  -21.2436  -17.0609 C   0  0  2  0  0  0  0  0  0  0  0  0
   29.3842  -22.4237  -17.4442 N   0  0  0  0  0  0  0  0  0  0  0  0
   27.8693  -21.5981  -15.8117 C   0  0  0  0  0  0  0  0  0  0  0  0
   27.4509  -22.7692  -15.6778 O   0  0  0  0  0  0  0  0  0  0  0  0
   27.6169  -20.6468  -14.8130 N   0  0  0  0  0  0  0  0  0  0  0  0
   26.9641  -21.0305  -13.5785 C   0  0  1  0  0  0  0  0  0  0  0  0
   27.5052  -20.1479  -12.5078 C   0  0  0  0  0  0  0  0  0  0  0  0
   26.8397  -20.2883  -11.1951 C   0  0  0  0  0  0  0  0  0  0  0  0
   25.4812  -20.1648  -10.8900 C   0  0  0  0  0  0  0  0  0  0  0  0
   25.2792  -20.3419   -9.5927 N   0  0  0  0  0  0  0  0  0  0  0  0
   26.4675  -20.5845   -8.9986 C   0  0  0  0  0  0  0  0  0  0  0  0
   26.8242  -20.8343   -7.6869 C   0  0  0  0  0  0  0  0  0  0  0  0
   28.1451  -21.0551   -7.3394 C   0  0  0  0  0  0  0  0  0  0  0  0
   29.1332  -21.0286   -8.3044 C   0  0  0  0  0  0  0  0  0  0  0  0
   28.7619  -20.7791   -9.6018 C   0  0  0  0  0  0  0  0  0  0  0  0
   27.4460  -20.5568   -9.9646 C   0  0  0  0  0  0  0  0  0  0  0  0
   25.5131  -21.0163  -13.7685 C   0  0  0  0  0  0  0  0  0  0  0  0
   24.9619  -19.9792  -14.2900 O   0  0  0  0  0  0  0  0  0  0  0  0
   21.1809  -23.1577  -14.0927 O   0  0  0  0  0  0  0  0  0  0  0  0
   22.5643  -23.3120  -13.8635 C   0  0  0  0  0  0  0  0  0  0  0  0
   23.2145  -21.9315  -13.7599 C   0  0  2  0  0  0  0  0  0  0  0  0
   24.6078  -22.0478  -13.4367 N   0  0  0  0  0  0  0  0  0  0  0  0
   22.4498  -21.1145  -12.7805 C   0  0  0  0  0  0  0  0  0  0  0  0
   22.9714  -20.9712  -11.6385 O   0  0  0  0  0  0  0  0  0  0  0  0
   21.2472  -20.5142  -13.0092 O   0  0  0  0  0  0  0  0  0  0  0  0
  2  1  1  6
  2  3  1  0
  4  2  1  0
  4  5  2  0
  6  4  1  0
  7  6  1  0
  7  8  1  1
  9  8  1  0
  9 17  1  0
 10 11  1  0
 10  9  2  0
 11 12  1  0
 12 13  1  0
 12 17  2  0
 13 14  2  0
 14 15  1  0
 16 15  2  0
 17 16  1  0
 18  7  1  0
 18 23  1  0
 19 18  2  0
 21 20  1  0
 22 21  1  1
 22 23  1  0
 22 24  1  0
 24 25  2  0
 24 26  1  0
M  END
$$$$
