AWS.pdb
     RDKit          3D

 26 27  0  0  1  0  0  0  0  0999 V2000
   25.0697  -10.8516  -14.9634 C   0  0  0  0  0  0  0  0  0  0  0  0
   23.8019  -11.4955  -15.4195 C   0  0  2  0  0  0  0  0  0  0  0  0
   24.0198  -12.3052  -16.5969 N   0  0  0  0  0  0  0  0  0  0  0  0
   22.8340  -10.4029  -15.8115 C   0  0  0  0  0  0  0  0  0  0  0  0
   22.9241   -9.9044  -16.9551 O   0  0  0  0  0  0  0  0  0  0  0  0
   21.8490   -9.9454  -14.9247 N   0  0  0  0  0  0  0  0  0  0  0  0
   20.9298   -8.8988  -15.3212 C   0  0  1  0  0  0  0  0  0  0  0  0
   19.5543   -9.4043  -15.0553 C   0  0  0  0  0  0  0  0  0  0  0  0
   19.0488  -10.3747  -16.0495 C   0  0  0  0  0  0  0  0  0  0  0  0
   19.4500  -11.6975  -16.2571 C   0  0  0  0  0  0  0  0  0  0  0  0
   18.7712  -12.2363  -17.2591 N   0  0  0  0  0  0  0  0  0  0  0  0
   17.9123  -11.3146  -17.7453 C   0  0  0  0  0  0  0  0  0  0  0  0
   16.9857  -11.3476  -18.7704 C   0  0  0  0  0  0  0  0  0  0  0  0
   16.2155  -10.2375  -19.0681 C   0  0  0  0  0  0  0  0  0  0  0  0
   16.3622   -9.0723  -18.3407 C   0  0  0  0  0  0  0  0  0  0  0  0
   17.2865   -9.0564  -17.3265 C   0  0  0  0  0  0  0  0  0  0  0  0
   18.0635  -10.1578  -17.0169 C   0  0  0  0  0  0  0  0  0  0  0  0
   21.3053   -7.6451  -14.6662 C   0  0  0  0  0  0  0  0  0  0  0  0
   22.1885   -7.6685  -13.7330 O   0  0  0  0  0  0  0  0  0  0  0  0
   23.6224   -4.0439  -14.6978 O   0  0  0  0  0  0  0  0  0  0  0  0
   22.9374   -5.2022  -15.1215 C   0  0  0  0  0  0  0  0  0  0  0  0
   21.5169   -5.1825  -14.5552 C   0  0  2  0  0  0  0  0  0  0  0  0
   20.7955   -6.3591  -14.9486 N   0  0  0  0  0  0  0  0  0  0  0  0
   20.8528   -3.9189  -14.9719 C   0  0  0  0  0  0  0  0  0  0  0  0
   20.2549   -3.9380  -16.0850 O   0  0  0  0  0  0  0  0  0  0  0  0
   20.8354   -2.7552  -14.2616 O   0  0  0  0  0  0  0  0  0  0  0  0
  2  1  1  6
  2  3  1  0
  4  2  1  0
  4  5  2  0
  6  4  1  0
  7  6  1  0
  7  8  1  1
  9  8  1  0
  9 17  1  0
 10 11  1  0
 10  9  2  0
 11 12  1  0
 12 13  1  0
 12 17  2  0
 13 14  2  0
 14 15  1  0
 16 15  2  0
 17 16  1  0
 18  7  1  0
 18 23  1  0
 19 18  2  0
 21 20  1  0
 22 21  1  6
 22 23  1  0
 22 24  1  0
 24 25  2  0
 24 26  1  0
M  END
$$$$
