AWS.pdb
     RDKit          3D

 26 27  0  0  1  0  0  0  0  0999 V2000
   24.6070   -4.1164  -22.9816 C   0  0  0  0  0  0  0  0  0  0  0  0
   23.7915   -3.9551  -21.7410 C   0  0  2  0  0  0  0  0  0  0  0  0
   24.2481   -2.8297  -20.9569 N   0  0  0  0  0  0  0  0  0  0  0  0
   23.9818   -5.1890  -20.8893 C   0  0  0  0  0  0  0  0  0  0  0  0
   23.6245   -6.2958  -21.3494 O   0  0  0  0  0  0  0  0  0  0  0  0
   24.5457   -5.1135  -19.6077 N   0  0  0  0  0  0  0  0  0  0  0  0
   24.6924   -6.3041  -18.7963 C   0  0  1  0  0  0  0  0  0  0  0  0
   25.9843   -6.1764  -18.0663 C   0  0  0  0  0  0  0  0  0  0  0  0
   26.5700   -7.4571  -17.6166 C   0  0  0  0  0  0  0  0  0  0  0  0
   27.6798   -8.1348  -18.1296 C   0  0  0  0  0  0  0  0  0  0  0  0
   27.8801   -9.2648  -17.4677 N   0  0  0  0  0  0  0  0  0  0  0  0
   26.9338   -9.3798  -16.5112 C   0  0  0  0  0  0  0  0  0  0  0  0
   26.6816  -10.3461  -15.5556 C   0  0  0  0  0  0  0  0  0  0  0  0
   25.6208  -10.2167  -14.6768 C   0  0  0  0  0  0  0  0  0  0  0  0
   24.7926   -9.1130  -14.7421 C   0  0  0  0  0  0  0  0  0  0  0  0
   25.0569   -8.1631  -15.6966 C   0  0  0  0  0  0  0  0  0  0  0  0
   26.1133   -8.2783  -16.5817 C   0  0  0  0  0  0  0  0  0  0  0  0
   23.4929   -6.4885  -17.9784 C   0  0  0  0  0  0  0  0  0  0  0  0
   23.0928   -5.5231  -17.2305 O   0  0  0  0  0  0  0  0  0  0  0  0
   19.0821   -7.5557  -17.2934 O   0  0  0  0  0  0  0  0  0  0  0  0
   20.2525   -7.7299  -18.0616 C   0  0  0  0  0  0  0  0  0  0  0  0
   21.4735   -7.6492  -17.1442 C   0  0  2  0  0  0  0  0  0  0  0  0
   22.6869   -7.6457  -17.9104 N   0  0  0  0  0  0  0  0  0  0  0  0
   21.4048   -8.7592  -16.1569 C   0  0  0  0  0  0  0  0  0  0  0  0
   21.8728   -9.8726  -16.5285 O   0  0  0  0  0  0  0  0  0  0  0  0
   20.8850   -8.6768  -14.8991 O   0  0  0  0  0  0  0  0  0  0  0  0
  2  1  1  6
  2  3  1  0
  4  2  1  0
  4  5  2  0
  6  4  1  0
  7  6  1  0
  7  8  1  1
  9  8  1  0
  9 17  1  0
 10 11  1  0
 10  9  2  0
 11 12  1  0
 12 13  1  0
 12 17  2  0
 13 14  2  0
 14 15  1  0
 16 15  2  0
 17 16  1  0
 18  7  1  0
 18 23  1  0
 19 18  2  0
 21 20  1  0
 22 21  1  6
 22 23  1  0
 22 24  1  0
 24 25  2  0
 24 26  1  0
M  END
$$$$
