AWS.pdb
     RDKit          3D

 26 27  0  0  1  0  0  0  0  0999 V2000
   27.4274  -20.9347  -18.5793 C   0  0  0  0  0  0  0  0  0  0  0  0
   28.4708  -21.2165  -17.5487 C   0  0  2  0  0  0  0  0  0  0  0  0
   29.2550  -22.3784  -17.9016 N   0  0  0  0  0  0  0  0  0  0  0  0
   27.7721  -21.5376  -16.2476 C   0  0  0  0  0  0  0  0  0  0  0  0
   27.4932  -22.7305  -15.9955 O   0  0  0  0  0  0  0  0  0  0  0  0
   27.4362  -20.5318  -15.3302 N   0  0  0  0  0  0  0  0  0  0  0  0
   26.9125  -20.8720  -14.0235 C   0  0  1  0  0  0  0  0  0  0  0  0
   27.5650  -19.9606  -13.0427 C   0  0  0  0  0  0  0  0  0  0  0  0
   27.1931  -20.2012  -11.6322 C   0  0  0  0  0  0  0  0  0  0  0  0
   25.9585  -19.9949  -11.0098 C   0  0  0  0  0  0  0  0  0  0  0  0
   26.0280  -20.3114   -9.7253 N   0  0  0  0  0  0  0  0  0  0  0  0
   27.2817  -20.7310   -9.4499 C   0  0  0  0  0  0  0  0  0  0  0  0
   27.8872  -21.1713   -8.2881 C   0  0  0  0  0  0  0  0  0  0  0  0
   29.2176  -21.5509   -8.2799 C   0  0  0  0  0  0  0  0  0  0  0  0
   29.9653  -21.4947   -9.4400 C   0  0  0  0  0  0  0  0  0  0  0  0
   29.3490  -21.0550  -10.5846 C   0  0  0  0  0  0  0  0  0  0  0  0
   28.0202  -20.6725  -10.6086 C   0  0  0  0  0  0  0  0  0  0  0  0
   25.4497  -20.8526  -14.0635 C   0  0  0  0  0  0  0  0  0  0  0  0
   24.8532  -19.8519  -14.6060 O   0  0  0  0  0  0  0  0  0  0  0  0
   22.8877  -23.6580  -15.0001 O   0  0  0  0  0  0  0  0  0  0  0  0
   22.4685  -23.0458  -13.8002 C   0  0  0  0  0  0  0  0  0  0  0  0
   23.1550  -21.6862  -13.6621 C   0  0  2  0  0  0  0  0  0  0  0  0
   24.5779  -21.8422  -13.5594 N   0  0  0  0  0  0  0  0  0  0  0  0
   22.5580  -20.9633  -12.5078 C   0  0  0  0  0  0  0  0  0  0  0  0
   23.3234  -20.7386  -11.5277 O   0  0  0  0  0  0  0  0  0  0  0  0
   21.2689  -20.5281  -12.4196 O   0  0  0  0  0  0  0  0  0  0  0  0
  2  1  1  6
  2  3  1  0
  4  2  1  0
  4  5  2  0
  6  4  1  0
  7  6  1  0
  7  8  1  1
  9  8  1  0
  9 17  1  0
 10 11  1  0
 10  9  2  0
 11 12  1  0
 12 13  1  0
 12 17  2  0
 13 14  2  0
 14 15  1  0
 16 15  2  0
 17 16  1  0
 18  7  1  0
 18 23  1  0
 19 18  2  0
 21 20  1  0
 22 21  1  1
 22 23  1  0
 22 24  1  0
 24 25  2  0
 24 26  1  0
M  END
$$$$
