AWS.pdb
     RDKit          3D

 26 27  0  0  1  0  0  0  0  0999 V2000
   24.0114   -7.0401  -21.0845 C   0  0  0  0  0  0  0  0  0  0  0  0
   24.4964   -7.7404  -19.8580 C   0  0  2  0  0  0  0  0  0  0  0  0
   25.0513   -9.0359  -20.1796 N   0  0  0  0  0  0  0  0  0  0  0  0
   23.3092   -7.9838  -18.9548 C   0  0  0  0  0  0  0  0  0  0  0  0
   22.3126   -8.5778  -19.4220 O   0  0  0  0  0  0  0  0  0  0  0  0
   23.3078   -7.5596  -17.6184 N   0  0  0  0  0  0  0  0  0  0  0  0
   22.1886   -7.8629  -16.7507 C   0  0  1  0  0  0  0  0  0  0  0  0
   22.7539   -8.4183  -15.4897 C   0  0  0  0  0  0  0  0  0  0  0  0
   23.2304   -9.8143  -15.5875 C   0  0  0  0  0  0  0  0  0  0  0  0
   24.4330  -10.3583  -15.1268 C   0  0  0  0  0  0  0  0  0  0  0  0
   24.5021  -11.6478  -15.4223 N   0  0  0  0  0  0  0  0  0  0  0  0
   23.3748  -12.0034  -16.0754 C   0  0  0  0  0  0  0  0  0  0  0  0
   22.9370  -13.2045  -16.6009 C   0  0  0  0  0  0  0  0  0  0  0  0
   21.7113  -13.2977  -17.2359 C   0  0  0  0  0  0  0  0  0  0  0  0
   20.9020  -12.1846  -17.3551 C   0  0  0  0  0  0  0  0  0  0  0  0
   21.3516  -11.0000  -16.8279 C   0  0  0  0  0  0  0  0  0  0  0  0
   22.5741  -10.8912  -16.1904 C   0  0  0  0  0  0  0  0  0  0  0  0
   21.3363   -6.6802  -16.6216 C   0  0  0  0  0  0  0  0  0  0  0  0
   21.8776   -5.5477  -16.3462 O   0  0  0  0  0  0  0  0  0  0  0  0
   17.2224   -4.1923  -17.1172 O   0  0  0  0  0  0  0  0  0  0  0  0
   17.8679   -5.4354  -17.2851 C   0  0  0  0  0  0  0  0  0  0  0  0
   19.2184   -5.4023  -16.5681 C   0  0  2  0  0  0  0  0  0  0  0  0
   19.9333   -6.6299  -16.7716 N   0  0  0  0  0  0  0  0  0  0  0  0
   18.9909   -5.0854  -15.1331 C   0  0  0  0  0  0  0  0  0  0  0  0
   18.6653   -6.0526  -14.3879 O   0  0  0  0  0  0  0  0  0  0  0  0
   19.1029   -3.8528  -14.5611 O   0  0  0  0  0  0  0  0  0  0  0  0
  2  1  1  6
  2  3  1  0
  4  2  1  0
  4  5  2  0
  6  4  1  0
  7  6  1  0
  7  8  1  1
  9  8  1  0
  9 17  1  0
 10 11  1  0
 10  9  2  0
 11 12  1  0
 12 13  1  0
 12 17  2  0
 13 14  2  0
 14 15  1  0
 16 15  2  0
 17 16  1  0
 18  7  1  0
 18 23  1  0
 19 18  2  0
 21 20  1  0
 22 21  1  6
 22 23  1  0
 22 24  1  0
 24 25  2  0
 24 26  1  0
M  END
$$$$
