PFL.pdb
     RDKit          3D

 27 28  0  0  1  0  0  0  0  0999 V2000
    8.1707  -16.1291   19.0422 N   0  0  0  0  0  0  0  0  0  0  0  0
    8.0442  -16.1156   17.5901 C   0  0  0  0  0  0  0  0  0  0  0  0
    8.3618  -14.7310   17.1293 C   0  0  0  0  0  0  0  0  0  0  0  0
    8.7307  -13.9904   18.4203 C   0  0  0  0  0  0  0  0  0  0  0  0
    9.2101  -15.1736   19.2710 C   0  0  1  0  0  0  0  0  0  0  0  0
    9.3114  -14.7791   20.7098 C   0  0  0  0  0  0  0  0  0  0  0  0
   10.2244  -13.9985   21.0768 O   0  0  0  0  0  0  0  0  0  0  0  0
    8.4030  -15.2660   21.6596 N   0  0  0  0  0  0  0  0  0  0  0  0
    8.2247  -14.7331   22.9764 C   0  0  1  0  0  0  0  0  0  0  0  0
    6.7621  -14.4131   23.2002 C   0  0  0  0  0  0  0  0  0  0  0  0
    6.5109  -13.7534   24.4888 C   0  0  0  0  0  0  0  0  0  0  0  0
    5.9760  -14.4164   25.5695 C   0  0  0  0  0  0  0  0  0  0  0  0
    5.7459  -13.7741   26.7804 C   0  0  0  0  0  0  0  0  0  0  0  0
    6.0483  -12.4408   26.9405 C   0  0  0  0  0  0  0  0  0  0  0  0
    6.5838  -11.7684   25.8656 C   0  0  0  0  0  0  0  0  0  0  0  0
    6.8092  -12.4213   24.6602 C   0  0  0  0  0  0  0  0  0  0  0  0
    8.8056  -15.5676   24.0315 C   0  0  0  0  0  0  0  0  0  0  0  0
    9.2697  -16.6919   23.7119 O   0  0  0  0  0  0  0  0  0  0  0  0
   12.3613  -15.2771   28.4089 C   0  0  0  0  0  0  0  0  0  0  0  0
   10.8974  -15.2926   28.6154 C   0  0  1  0  0  0  0  0  0  0  0  0
   10.5699  -14.4846   29.8816 C   0  0  0  0  0  0  0  0  0  0  0  0
   10.0017  -14.9571   27.5038 C   0  0  0  0  0  0  0  0  0  0  0  0
    9.9231  -15.7869   26.2925 C   0  0  2  0  0  0  0  0  0  0  0  0
    8.8859  -15.2015   25.3994 N   0  0  0  0  0  0  0  0  0  0  0  0
    9.5854  -17.1997   26.4078 C   0  0  0  0  0  0  0  0  0  0  0  0
   10.5338  -18.0609   26.4019 O   0  0  0  0  0  0  0  0  0  0  0  0
    8.3301  -17.7624   26.5324 O   0  0  0  0  0  0  0  0  0  0  0  0
  1  2  1  0
  2  3  1  0
  4  3  1  0
  5  1  1  0
  5  4  1  0
  5  6  1  1
  7  6  2  0
  8  6  1  0
  9  8  1  0
  9 10  1  1
 10 11  1  0
 11 12  2  0
 12 13  1  0
 14 13  2  0
 15 14  1  0
 16 15  2  0
 16 11  1  0
 17 24  1  0
 17  9  1  0
 18 17  2  0
 20 19  1  6
 20 21  1  0
 22 20  1  0
 23 22  1  1
 23 24  1  0
 25 23  1  0
 26 25  2  0
 27 25  1  0
M  END
$$$$
