PFL.pdb
     RDKit          3D

 27 28  0  0  1  0  0  0  0  0999 V2000
    9.0561  -18.1490   19.6960 N   0  0  0  0  0  0  0  0  0  0  0  0
    8.8888  -18.4739   18.2848 C   0  0  0  0  0  0  0  0  0  0  0  0
    8.8620  -17.1843   17.5322 C   0  0  0  0  0  0  0  0  0  0  0  0
    9.0847  -16.1225   18.6158 C   0  0  0  0  0  0  0  0  0  0  0  0
    9.8504  -16.9606   19.6477 C   0  0  1  0  0  0  0  0  0  0  0  0
    9.8977  -16.2559   20.9658 C   0  0  0  0  0  0  0  0  0  0  0  0
   10.9446  -15.6540   21.3108 O   0  0  0  0  0  0  0  0  0  0  0  0
    8.7913  -16.2547   21.8262 N   0  0  0  0  0  0  0  0  0  0  0  0
    8.6707  -15.4595   23.0105 C   0  0  1  0  0  0  0  0  0  0  0  0
    7.2710  -14.8896   23.0984 C   0  0  0  0  0  0  0  0  0  0  0  0
    7.0581  -14.0775   24.3043 C   0  0  0  0  0  0  0  0  0  0  0  0
    7.4136  -12.7501   24.3767 C   0  0  0  0  0  0  0  0  0  0  0  0
    7.2038  -11.9988   25.5270 C   0  0  0  0  0  0  0  0  0  0  0  0
    6.6279  -12.5629   26.6428 C   0  0  0  0  0  0  0  0  0  0  0  0
    6.2686  -13.8901   26.5808 C   0  0  0  0  0  0  0  0  0  0  0  0
    6.4835  -14.6307   25.4253 C   0  0  0  0  0  0  0  0  0  0  0  0
    9.0939  -16.1535   24.2297 C   0  0  0  0  0  0  0  0  0  0  0  0
    9.0170  -17.4084   24.2561 O   0  0  0  0  0  0  0  0  0  0  0  0
    9.9982  -14.9583   29.5402 C   0  0  0  0  0  0  0  0  0  0  0  0
   10.2426  -14.4508   28.1733 C   0  0  1  0  0  0  0  0  0  0  0  0
   10.6940  -12.9841   28.2656 C   0  0  0  0  0  0  0  0  0  0  0  0
   11.0768  -15.2241   27.2478 C   0  0  0  0  0  0  0  0  0  0  0  0
   10.5018  -16.2211   26.3325 C   0  0  2  0  0  0  0  0  0  0  0  0
    9.5886  -15.5127   25.3943 N   0  0  0  0  0  0  0  0  0  0  0  0
    9.7237  -17.3292   26.8710 C   0  0  0  0  0  0  0  0  0  0  0  0
   10.3256  -18.2245   27.5619 O   0  0  0  0  0  0  0  0  0  0  0  0
    8.3675  -17.5548   26.7373 O   0  0  0  0  0  0  0  0  0  0  0  0
  1  2  1  0
  2  3  1  0
  4  3  1  0
  5  1  1  0
  5  4  1  0
  5  6  1  1
  7  6  2  0
  8  6  1  0
  9  8  1  0
  9 10  1  1
 10 11  1  0
 11 12  2  0
 12 13  1  0
 14 13  2  0
 15 14  1  0
 16 15  2  0
 16 11  1  0
 17 24  1  0
 17  9  1  0
 18 17  2  0
 20 19  1  1
 20 21  1  0
 22 20  1  0
 23 22  1  1
 23 24  1  0
 25 23  1  0
 26 25  2  0
 27 25  1  0
M  END
$$$$
