PFL.pdb
     RDKit          3D

 27 28  0  0  1  0  0  0  0  0999 V2000
    7.6499  -16.5956   19.9757 N   0  0  0  0  0  0  0  0  0  0  0  0
    7.3827  -16.7151   18.5477 C   0  0  0  0  0  0  0  0  0  0  0  0
    7.7719  -15.4205   17.9130 C   0  0  0  0  0  0  0  0  0  0  0  0
    8.3287  -14.5936   19.0781 C   0  0  0  0  0  0  0  0  0  0  0  0
    8.7854  -15.7265   20.0062 C   0  0  1  0  0  0  0  0  0  0  0  0
    9.0615  -15.2017   21.3790 C   0  0  0  0  0  0  0  0  0  0  0  0
   10.1746  -14.6775   21.6311 O   0  0  0  0  0  0  0  0  0  0  0  0
    8.0976  -15.2846   22.3931 N   0  0  0  0  0  0  0  0  0  0  0  0
    8.2184  -14.6973   23.6931 C   0  0  1  0  0  0  0  0  0  0  0  0
    6.8916  -14.0943   24.1026 C   0  0  0  0  0  0  0  0  0  0  0  0
    6.9694  -13.3402   25.3613 C   0  0  0  0  0  0  0  0  0  0  0  0
    7.7010  -12.1815   25.4875 C   0  0  0  0  0  0  0  0  0  0  0  0
    7.7619  -11.4826   26.6872 C   0  0  0  0  0  0  0  0  0  0  0  0
    7.0860  -11.9303   27.7998 C   0  0  0  0  0  0  0  0  0  0  0  0
    6.3512  -13.0884   27.6841 C   0  0  0  0  0  0  0  0  0  0  0  0
    6.2981  -13.7782   26.4794 C   0  0  0  0  0  0  0  0  0  0  0  0
    8.7798  -15.6044   24.6976 C   0  0  0  0  0  0  0  0  0  0  0  0
    8.6192  -15.3189   25.9119 O   0  0  0  0  0  0  0  0  0  0  0  0
   11.3366  -20.5197   23.1402 C   0  0  0  0  0  0  0  0  0  0  0  0
   11.2477  -19.3230   24.0038 C   0  0  1  0  0  0  0  0  0  0  0  0
   11.6370  -18.0877   23.1757 C   0  0  0  0  0  0  0  0  0  0  0  0
   10.0402  -19.0895   24.8025 C   0  0  0  0  0  0  0  0  0  0  0  0
    9.7822  -17.8003   25.4608 C   0  0  2  0  0  0  0  0  0  0  0  0
    9.4977  -16.7917   24.4035 N   0  0  0  0  0  0  0  0  0  0  0  0
   10.8106  -17.2026   26.3025 C   0  0  0  0  0  0  0  0  0  0  0  0
   11.3192  -16.0812   25.9489 O   0  0  0  0  0  0  0  0  0  0  0  0
   11.3321  -17.6974   27.4820 O   0  0  0  0  0  0  0  0  0  0  0  0
  1  2  1  0
  2  3  1  0
  4  3  1  0
  5  1  1  0
  5  4  1  0
  5  6  1  1
  7  6  2  0
  8  6  1  0
  9  8  1  0
  9 10  1  1
 10 11  1  0
 11 12  2  0
 12 13  1  0
 14 13  2  0
 15 14  1  0
 16 15  2  0
 16 11  1  0
 17 24  1  0
 17  9  1  0
 18 17  2  0
 20 19  1  6
 20 21  1  0
 22 20  1  0
 23 22  1  6
 23 24  1  0
 25 23  1  0
 26 25  2  0
 27 25  1  0
M  END
$$$$
