PFL.pdb
     RDKit          3D

 27 28  0  0  1  0  0  0  0  0999 V2000
    9.2667  -17.9775   19.9133 N   0  0  0  0  0  0  0  0  0  0  0  0
    9.4042  -18.3040   18.4993 C   0  0  0  0  0  0  0  0  0  0  0  0
    9.9629  -17.0987   17.8173 C   0  0  0  0  0  0  0  0  0  0  0  0
   10.1814  -16.0992   18.9594 C   0  0  0  0  0  0  0  0  0  0  0  0
   10.3556  -17.0757   20.1298 C   0  0  1  0  0  0  0  0  0  0  0  0
   10.2448  -16.3556   21.4356 C   0  0  0  0  0  0  0  0  0  0  0  0
   11.1947  -15.6345   21.8295 O   0  0  0  0  0  0  0  0  0  0  0  0
    9.0964  -16.4710   22.2308 N   0  0  0  0  0  0  0  0  0  0  0  0
    8.8417  -15.7194   23.4223 C   0  0  1  0  0  0  0  0  0  0  0  0
    7.3933  -15.2799   23.4449 C   0  0  0  0  0  0  0  0  0  0  0  0
    7.1136  -14.2824   24.4869 C   0  0  0  0  0  0  0  0  0  0  0  0
    7.4584  -12.9567   24.3560 C   0  0  0  0  0  0  0  0  0  0  0  0
    7.1850  -12.0284   25.3536 C   0  0  0  0  0  0  0  0  0  0  0  0
    6.5543  -12.4078   26.5168 C   0  0  0  0  0  0  0  0  0  0  0  0
    6.2052  -13.7316   26.6577 C   0  0  0  0  0  0  0  0  0  0  0  0
    6.4838  -14.6502   25.6535 C   0  0  0  0  0  0  0  0  0  0  0  0
    9.2615  -16.4025   24.6488 C   0  0  0  0  0  0  0  0  0  0  0  0
    9.5066  -17.6345   24.5885 O   0  0  0  0  0  0  0  0  0  0  0  0
    9.9771  -13.2308   29.1650 C   0  0  0  0  0  0  0  0  0  0  0  0
   10.2101  -14.1547   28.0346 C   0  0  1  0  0  0  0  0  0  0  0  0
   11.5765  -13.8321   27.4081 C   0  0  0  0  0  0  0  0  0  0  0  0
   10.0193  -15.5967   28.2215 C   0  0  0  0  0  0  0  0  0  0  0  0
    9.9467  -16.5242   27.0829 C   0  0  2  0  0  0  0  0  0  0  0  0
    9.4144  -15.7752   25.9116 N   0  0  0  0  0  0  0  0  0  0  0  0
    9.1267  -17.7246   27.1827 C   0  0  0  0  0  0  0  0  0  0  0  0
    7.9999  -17.7518   26.5737 O   0  0  0  0  0  0  0  0  0  0  0  0
    9.4109  -18.8890   27.8693 O   0  0  0  0  0  0  0  0  0  0  0  0
  1  2  1  0
  2  3  1  0
  4  3  1  0
  5  1  1  0
  5  4  1  0
  5  6  1  1
  7  6  2  0
  8  6  1  0
  9  8  1  0
  9 10  1  1
 10 11  1  0
 11 12  2  0
 12 13  1  0
 14 13  2  0
 15 14  1  0
 16 15  2  0
 16 11  1  0
 17 24  1  0
 17  9  1  0
 18 17  2  0
 20 19  1  1
 20 21  1  0
 22 20  1  0
 23 22  1  1
 23 24  1  0
 25 23  1  0
 26 25  2  0
 27 25  1  0
M  END
$$$$
