PFL.pdb
     RDKit          3D

 27 28  0  0  1  0  0  0  0  0999 V2000
    8.7506  -18.2948   20.3161 N   0  0  0  0  0  0  0  0  0  0  0  0
    8.6324  -18.8535   18.9749 C   0  0  0  0  0  0  0  0  0  0  0  0
    8.8719  -17.7412   18.0076 C   0  0  0  0  0  0  0  0  0  0  0  0
    9.1892  -16.5379   18.9036 C   0  0  0  0  0  0  0  0  0  0  0  0
    9.7313  -17.2690   20.1386 C   0  0  1  0  0  0  0  0  0  0  0  0
    9.8006  -16.3416   21.3096 C   0  0  0  0  0  0  0  0  0  0  0  0
   10.6867  -15.4522   21.3456 O   0  0  0  0  0  0  0  0  0  0  0  0
    8.8917  -16.4470   22.3713 N   0  0  0  0  0  0  0  0  0  0  0  0
    8.7611  -15.5027   23.4394 C   0  0  1  0  0  0  0  0  0  0  0  0
    7.3019  -15.3638   23.8179 C   0  0  0  0  0  0  0  0  0  0  0  0
    7.0399  -14.1954   24.6695 C   0  0  0  0  0  0  0  0  0  0  0  0
    7.4003  -12.9178   24.3069 C   0  0  0  0  0  0  0  0  0  0  0  0
    7.1434  -11.8254   25.1268 C   0  0  0  0  0  0  0  0  0  0  0  0
    6.5141  -11.9865   26.3404 C   0  0  0  0  0  0  0  0  0  0  0  0
    6.1495  -13.2605   26.7125 C   0  0  0  0  0  0  0  0  0  0  0  0
    6.4116  -14.3446   25.8843 C   0  0  0  0  0  0  0  0  0  0  0  0
    9.6342  -15.7836   24.5820 C   0  0  0  0  0  0  0  0  0  0  0  0
   10.8739  -15.6323   24.4338 O   0  0  0  0  0  0  0  0  0  0  0  0
    9.1069  -13.7449   29.3221 C   0  0  0  0  0  0  0  0  0  0  0  0
    9.6523  -14.4241   28.1276 C   0  0  1  0  0  0  0  0  0  0  0  0
   10.9281  -13.6904   27.6830 C   0  0  0  0  0  0  0  0  0  0  0  0
    9.8315  -15.8796   28.1359 C   0  0  0  0  0  0  0  0  0  0  0  0
   10.1494  -16.6296   26.9118 C   0  0  2  0  0  0  0  0  0  0  0  0
    9.1849  -16.2175   25.8554 N   0  0  0  0  0  0  0  0  0  0  0  0
   10.1096  -18.0861   26.9286 C   0  0  0  0  0  0  0  0  0  0  0  0
   10.9742  -18.7166   27.6330 O   0  0  0  0  0  0  0  0  0  0  0  0
    9.2275  -18.9165   26.2648 O   0  0  0  0  0  0  0  0  0  0  0  0
  1  2  1  0
  2  3  1  0
  4  3  1  0
  5  1  1  0
  5  4  1  0
  5  6  1  1
  7  6  2  0
  8  6  1  0
  9  8  1  0
  9 10  1  1
 10 11  1  0
 11 12  2  0
 12 13  1  0
 14 13  2  0
 15 14  1  0
 16 15  2  0
 16 11  1  0
 17 24  1  0
 17  9  1  0
 18 17  2  0
 20 19  1  1
 20 21  1  0
 22 20  1  0
 23 22  1  1
 23 24  1  0
 25 23  1  0
 26 25  2  0
 27 25  1  0
M  END
$$$$
