PFL.pdb
     RDKit          3D

 27 28  0  0  1  0  0  0  0  0999 V2000
    7.4893  -15.2807   19.8292 N   0  0  0  0  0  0  0  0  0  0  0  0
    7.2288  -14.9107   18.4435 C   0  0  0  0  0  0  0  0  0  0  0  0
    7.7533  -13.5262   18.2473 C   0  0  0  0  0  0  0  0  0  0  0  0
    8.3759  -13.1742   19.6036 C   0  0  0  0  0  0  0  0  0  0  0  0
    8.7057  -14.5835   20.1121 C   0  0  1  0  0  0  0  0  0  0  0  0
    9.0163  -14.5549   21.5746 C   0  0  0  0  0  0  0  0  0  0  0  0
   10.0977  -14.0534   21.9699 O   0  0  0  0  0  0  0  0  0  0  0  0
    8.1195  -15.0793   22.5154 N   0  0  0  0  0  0  0  0  0  0  0  0
    8.2479  -14.9502   23.9354 C   0  0  1  0  0  0  0  0  0  0  0  0
    6.8893  -14.6768   24.5447 C   0  0  0  0  0  0  0  0  0  0  0  0
    6.9285  -13.6486   25.5936 C   0  0  0  0  0  0  0  0  0  0  0  0
    5.8178  -13.2904   26.3228 C   0  0  0  0  0  0  0  0  0  0  0  0
    5.8756  -12.3150   27.3111 C   0  0  0  0  0  0  0  0  0  0  0  0
    7.0570  -11.6685   27.5963 C   0  0  0  0  0  0  0  0  0  0  0  0
    8.1739  -12.0194   26.8726 C   0  0  0  0  0  0  0  0  0  0  0  0
    8.1036  -12.9960   25.8870 C   0  0  0  0  0  0  0  0  0  0  0  0
    8.9536  -16.0690   24.5657 C   0  0  0  0  0  0  0  0  0  0  0  0
    8.4307  -17.2112   24.5048 O   0  0  0  0  0  0  0  0  0  0  0  0
   14.2541  -15.7967   24.3606 C   0  0  0  0  0  0  0  0  0  0  0  0
   12.9088  -16.4095   24.3464 C   0  0  1  0  0  0  0  0  0  0  0  0
   12.8387  -17.4176   23.1878 C   0  0  0  0  0  0  0  0  0  0  0  0
   12.3450  -16.9571   25.5845 C   0  0  0  0  0  0  0  0  0  0  0  0
   10.8999  -17.1716   25.7511 C   0  0  2  0  0  0  0  0  0  0  0  0
   10.1934  -15.9624   25.2462 N   0  0  0  0  0  0  0  0  0  0  0  0
   10.3561  -17.4133   27.0812 C   0  0  0  0  0  0  0  0  0  0  0  0
   10.7658  -18.4352   27.7364 O   0  0  0  0  0  0  0  0  0  0  0  0
    9.4230  -16.6578   27.7643 O   0  0  0  0  0  0  0  0  0  0  0  0
  1  2  1  0
  2  3  1  0
  4  3  1  0
  5  1  1  0
  5  4  1  0
  5  6  1  1
  7  6  2  0
  8  6  1  0
  9  8  1  0
  9 10  1  1
 10 11  1  0
 11 12  2  0
 12 13  1  0
 14 13  2  0
 15 14  1  0
 16 15  2  0
 16 11  1  0
 17 24  1  0
 17  9  1  0
 18 17  2  0
 20 19  1  1
 20 21  1  0
 22 20  1  0
 23 22  1  1
 23 24  1  0
 25 23  1  0
 26 25  2  0
 27 25  1  0
M  END
$$$$
