IRQ.pdb
     RDKit          3D

 29 28  0  0  1  0  0  0  0  0999 V2000
   28.3003  -19.5750   -7.6212 C   0  0  0  0  0  0  0  0  0  0  0  0
   27.2274  -20.6216   -7.7024 C   0  0  0  0  0  0  0  0  0  0  0  0
   26.4137  -20.3563   -8.9950 C   0  0  2  0  0  0  0  0  0  0  0  0
   24.9652  -20.5761   -8.5997 C   0  0  0  0  0  0  0  0  0  0  0  0
   26.8820  -21.2973  -10.0404 C   0  0  2  0  0  0  0  0  0  0  0  0
   28.2826  -20.9557  -10.4165 N   0  0  0  0  0  0  0  0  0  0  0  0
   26.1452  -21.3701  -11.3065 C   0  0  0  0  0  0  0  0  0  0  0  0
   26.4083  -20.4901  -12.2244 O   0  0  0  0  0  0  0  0  0  0  0  0
   26.2076  -23.5552  -17.8734 N   0  0  0  0  0  0  0  0  0  0  0  0
   26.4587  -24.5852  -16.9144 C   0  0  0  0  0  0  0  0  0  0  0  0
   27.6371  -25.0863  -16.8797 N   0  0  0  0  0  0  0  0  0  0  0  0
   25.4425  -25.0370  -16.0312 N   0  0  0  0  0  0  0  0  0  0  0  0
   24.1074  -24.4817  -16.1099 C   0  0  0  0  0  0  0  0  0  0  0  0
   23.9550  -23.2728  -15.2403 C   0  0  0  0  0  0  0  0  0  0  0  0
   24.6282  -23.3717  -13.9091 C   0  0  0  0  0  0  0  0  0  0  0  0
   24.5458  -22.2279  -13.0001 C   0  0  2  0  0  0  0  0  0  0  0  0
   25.1494  -22.2983  -11.7018 N   0  0  0  0  0  0  0  0  0  0  0  0
   23.1453  -21.6616  -12.9121 C   0  0  0  0  0  0  0  0  0  0  0  0
   22.4486  -22.0615  -11.9359 O   0  0  0  0  0  0  0  0  0  0  0  0
   27.9772  -25.8370  -16.2603 N   0  0  0  0  0  0  0  0  0  0  0  0
   22.2726  -18.0923  -17.1472 C   0  0  0  0  0  0  0  0  0  0  0  0
   22.4714  -17.3936  -15.9010 O   0  0  0  0  0  0  0  0  0  0  0  0
   23.1188  -16.3268  -15.9961 C   0  0  0  0  0  0  0  0  0  0  0  0
   21.9322  -17.9374  -14.6430 C   0  0  0  0  0  0  0  0  0  0  0  0
   21.1486  -19.1950  -14.8533 C   0  0  2  0  0  0  0  0  0  0  0  0
   21.3235  -20.2156  -13.7722 N   0  0  0  0  0  0  0  0  0  0  0  0
   22.6756  -20.7546  -13.8624 C   0  0  0  0  0  0  0  0  0  0  0  0
   20.3871  -21.3673  -13.9800 O   0  0  0  0  0  0  0  0  0  0  0  0
   19.0915  -21.3460  -13.5188 O   0  0  0  0  0  0  0  0  0  0  0  0
  2  3  1  0
  2  1  1  0
  3  4  1  1
  5  6  1  6
  5  3  1  0
  7  5  1  0
  8  7  2  0
  9 10  1  0
 10 12  1  0
 11 10  2  0
 13 12  1  0
 13 14  1  0
 15 14  1  0
 16 15  1  1
 16 17  1  0
 17  7  1  0
 18 16  1  0
 18 26  1  0
 19 18  2  0
 20 21  1  0
 21 23  1  0
 22 21  2  0
 23 24  1  0
 25 26  1  0
 25 24  1  1
 25 27  1  0
 27 28  1  0
 29 27  2  0
M  END
$$$$
