IRQ.pdb
     RDKit          3D

 29 28  0  0  1  0  0  0  0  0999 V2000
   28.3746  -19.8373   -6.0253 C   0  0  0  0  0  0  0  0  0  0  0  0
   26.9959  -20.0387   -6.5835 C   0  0  0  0  0  0  0  0  0  0  0  0
   27.1304  -20.1728   -8.1221 C   0  0  2  0  0  0  0  0  0  0  0  0
   27.8910  -18.9347   -8.5594 C   0  0  0  0  0  0  0  0  0  0  0  0
   25.7687  -20.2558   -8.7023 C   0  0  2  0  0  0  0  0  0  0  0  0
   25.0943  -21.4848   -8.1977 N   0  0  0  0  0  0  0  0  0  0  0  0
   25.6242  -20.3029  -10.1610 C   0  0  0  0  0  0  0  0  0  0  0  0
   25.3136  -19.2076  -10.7856 O   0  0  0  0  0  0  0  0  0  0  0  0
   29.6933  -22.3093  -17.3104 N   0  0  0  0  0  0  0  0  0  0  0  0
   29.7837  -22.7420  -15.9508 C   0  0  0  0  0  0  0  0  0  0  0  0
   30.9309  -23.1222  -15.5263 N   0  0  0  0  0  0  0  0  0  0  0  0
   28.6465  -22.7496  -15.1001 N   0  0  0  0  0  0  0  0  0  0  0  0
   27.3158  -22.6348  -15.6596 C   0  0  0  0  0  0  0  0  0  0  0  0
   26.4328  -21.7635  -14.8218 C   0  0  0  0  0  0  0  0  0  0  0  0
   26.5975  -21.9413  -13.3466 C   0  0  0  0  0  0  0  0  0  0  0  0
   25.6639  -21.2542  -12.4536 C   0  0  2  0  0  0  0  0  0  0  0  0
   25.7841  -21.4086  -11.0334 N   0  0  0  0  0  0  0  0  0  0  0  0
   24.2244  -21.4133  -12.8920 C   0  0  0  0  0  0  0  0  0  0  0  0
   23.7407  -22.5766  -12.7867 O   0  0  0  0  0  0  0  0  0  0  0  0
   31.1570  -23.4983  -14.5934 N   0  0  0  0  0  0  0  0  0  0  0  0
   19.9806  -16.7698  -13.4137 C   0  0  0  0  0  0  0  0  0  0  0  0
   19.2848  -17.9750  -13.0342 O   0  0  0  0  0  0  0  0  0  0  0  0
   18.0923  -17.8064  -12.6941 C   0  0  0  0  0  0  0  0  0  0  0  0
   19.9718  -19.2774  -13.0637 C   0  0  0  0  0  0  0  0  0  0  0  0
   21.4062  -19.1579  -13.4733 C   0  0  2  0  0  0  0  0  0  0  0  0
   22.0860  -20.4688  -13.7195 N   0  0  0  0  0  0  0  0  0  0  0  0
   23.4967  -20.3269  -13.3785 C   0  0  0  0  0  0  0  0  0  0  0  0
   22.0293  -20.8254  -15.1741 O   0  0  0  0  0  0  0  0  0  0  0  0
   20.9680  -21.5126  -15.7155 O   0  0  0  0  0  0  0  0  0  0  0  0
  2  3  1  0
  2  1  1  0
  3  4  1  6
  5  6  1  1
  5  3  1  0
  7  5  1  0
  8  7  2  0
  9 10  1  0
 10 12  1  0
 11 10  2  0
 13 12  1  0
 13 14  1  0
 15 14  1  0
 16 15  1  6
 16 17  1  0
 17  7  1  0
 18 16  1  0
 18 26  1  0
 19 18  2  0
 20 21  1  0
 21 23  1  0
 22 21  2  0
 23 24  1  0
 25 26  1  0
 25 24  1  1
 25 27  1  0
 27 28  1  0
 29 27  2  0
M  END
$$$$
