IRQ.pdb
     RDKit          3D

 29 28  0  0  1  0  0  0  0  0999 V2000
   18.5833  -11.7763  -17.0113 C   0  0  0  0  0  0  0  0  0  0  0  0
   18.3888  -11.4681  -15.5552 C   0  0  0  0  0  0  0  0  0  0  0  0
   17.6622  -10.1019  -15.4605 C   0  0  2  0  0  0  0  0  0  0  0  0
   18.6222   -9.1025  -16.0786 C   0  0  0  0  0  0  0  0  0  0  0  0
   17.3737   -9.8269  -14.0326 C   0  0  2  0  0  0  0  0  0  0  0  0
   16.5302  -10.9247  -13.4820 N   0  0  0  0  0  0  0  0  0  0  0  0
   16.6770   -8.5855  -13.6792 C   0  0  0  0  0  0  0  0  0  0  0  0
   16.3877   -7.7489  -14.6293 O   0  0  0  0  0  0  0  0  0  0  0  0
   10.3839   -6.8139   -7.9099 N   0  0  0  0  0  0  0  0  0  0  0  0
   10.8238   -8.0963   -8.3634 C   0  0  0  0  0  0  0  0  0  0  0  0
   10.3974   -9.1254   -7.7309 N   0  0  0  0  0  0  0  0  0  0  0  0
   11.6993   -8.2276   -9.4739 N   0  0  0  0  0  0  0  0  0  0  0  0
   12.9031   -7.4267   -9.5528 C   0  0  0  0  0  0  0  0  0  0  0  0
   13.5396   -7.5098  -10.9051 C   0  0  0  0  0  0  0  0  0  0  0  0
   14.7354   -6.6313  -11.0881 C   0  0  0  0  0  0  0  0  0  0  0  0
   15.6053   -6.8700  -12.2403 C   0  0  2  0  0  0  0  0  0  0  0  0
   16.2471   -8.1414  -12.4036 N   0  0  0  0  0  0  0  0  0  0  0  0
   16.5858   -5.7397  -12.4660 C   0  0  0  0  0  0  0  0  0  0  0  0
   17.7637   -5.9401  -12.0528 O   0  0  0  0  0  0  0  0  0  0  0  0
   10.5945  -10.1144   -7.9450 N   0  0  0  0  0  0  0  0  0  0  0  0
   18.8066   -4.0926  -17.2789 C   0  0  0  0  0  0  0  0  0  0  0  0
   19.0332   -2.8254  -16.6279 O   0  0  0  0  0  0  0  0  0  0  0  0
   19.6618   -1.9889  -17.3144 C   0  0  0  0  0  0  0  0  0  0  0  0
   18.5406   -2.5870  -15.2607 C   0  0  0  0  0  0  0  0  0  0  0  0
   17.7138   -3.7229  -14.7448 C   0  0  1  0  0  0  0  0  0  0  0  0
   17.1563   -3.5032  -13.3729 N   0  0  0  0  0  0  0  0  0  0  0  0
   16.1895   -4.5590  -13.0946 C   0  0  0  0  0  0  0  0  0  0  0  0
   16.4067   -2.2069  -13.3113 O   0  0  0  0  0  0  0  0  0  0  0  0
   17.0510   -0.9918  -13.3034 O   0  0  0  0  0  0  0  0  0  0  0  0
  2  3  1  0
  2  1  1  0
  3  4  1  1
  5  6  1  6
  5  3  1  0
  7  5  1  0
  8  7  2  0
  9 10  1  0
 10 12  1  0
 11 10  2  0
 13 12  1  0
 13 14  1  0
 15 14  1  0
 16 15  1  1
 16 17  1  0
 17  7  1  0
 18 16  1  0
 18 26  1  0
 19 18  2  0
 20 21  1  0
 21 23  1  0
 22 21  2  0
 23 24  1  0
 25 26  1  0
 25 24  1  1
 25 27  1  0
 27 28  1  0
 29 27  2  0
M  END
$$$$
