IRQ.pdb
     RDKit          3D

 29 28  0  0  1  0  0  0  0  0999 V2000
   23.3913  -15.4456  -20.2585 C   0  0  0  0  0  0  0  0  0  0  0  0
   24.3156  -15.3914  -19.0770 C   0  0  0  0  0  0  0  0  0  0  0  0
   24.2178  -16.7545  -18.3452 C   0  0  2  0  0  0  0  0  0  0  0  0
   23.7570  -17.7376  -19.4052 C   0  0  0  0  0  0  0  0  0  0  0  0
   23.2576  -16.6126  -17.2247 C   0  0  2  0  0  0  0  0  0  0  0  0
   23.7324  -15.5419  -16.3039 N   0  0  0  0  0  0  0  0  0  0  0  0
   22.9943  -17.7742  -16.3688 C   0  0  0  0  0  0  0  0  0  0  0  0
   22.4246  -18.8139  -16.8985 O   0  0  0  0  0  0  0  0  0  0  0  0
   24.6542  -23.5385  -13.4639 N   0  0  0  0  0  0  0  0  0  0  0  0
   25.7819  -22.7126  -13.1644 C   0  0  0  0  0  0  0  0  0  0  0  0
   26.8313  -22.8610  -13.8839 N   0  0  0  0  0  0  0  0  0  0  0  0
   25.7428  -21.7615  -12.1104 N   0  0  0  0  0  0  0  0  0  0  0  0
   24.4775  -21.3793  -11.5189 C   0  0  0  0  0  0  0  0  0  0  0  0
   23.4931  -20.9286  -12.5527 C   0  0  0  0  0  0  0  0  0  0  0  0
   23.8911  -19.6961  -13.2993 C   0  0  0  0  0  0  0  0  0  0  0  0
   22.9806  -19.1751  -14.3195 C   0  0  2  0  0  0  0  0  0  0  0  0
   23.2842  -17.9460  -14.9919 N   0  0  0  0  0  0  0  0  0  0  0  0
   21.5362  -19.1991  -13.8691 C   0  0  0  0  0  0  0  0  0  0  0  0
   21.2069  -18.3188  -13.0236 O   0  0  0  0  0  0  0  0  0  0  0  0
   27.7272  -22.3597  -13.7903 N   0  0  0  0  0  0  0  0  0  0  0  0
   16.8606  -18.9538  -17.3442 C   0  0  0  0  0  0  0  0  0  0  0  0
   16.1961  -19.1602  -16.0806 O   0  0  0  0  0  0  0  0  0  0  0  0
   14.9657  -18.9323  -16.0924 C   0  0  0  0  0  0  0  0  0  0  0  0
   16.9545  -19.6062  -14.8996 C   0  0  0  0  0  0  0  0  0  0  0  0
   18.4276  -19.6687  -15.1562 C   0  0  1  0  0  0  0  0  0  0  0  0
   19.2371  -20.1219  -13.9814 N   0  0  0  0  0  0  0  0  0  0  0  0
   20.6420  -20.1448  -14.3718 C   0  0  0  0  0  0  0  0  0  0  0  0
   18.8736  -21.5257  -13.6024 O   0  0  0  0  0  0  0  0  0  0  0  0
   17.8191  -21.8048  -12.7647 O   0  0  0  0  0  0  0  0  0  0  0  0
  2  3  1  0
  2  1  1  0
  3  4  1  6
  5  6  1  1
  5  3  1  0
  7  5  1  0
  8  7  2  0
  9 10  1  0
 10 12  1  0
 11 10  2  0
 13 12  1  0
 13 14  1  0
 15 14  1  0
 16 15  1  1
 16 17  1  0
 17  7  1  0
 18 16  1  0
 18 26  1  0
 19 18  2  0
 20 21  1  0
 21 23  1  0
 22 21  2  0
 23 24  1  0
 25 26  1  0
 25 24  1  1
 25 27  1  0
 27 28  1  0
 29 27  2  0
M  END
$$$$
