IRQ.pdb
     RDKit          3D

 29 28  0  0  1  0  0  0  0  0999 V2000
   28.2540  -19.8398   -6.7578 C   0  0  0  0  0  0  0  0  0  0  0  0
   27.0129  -20.5242   -7.2521 C   0  0  0  0  0  0  0  0  0  0  0  0
   26.6813  -19.9377   -8.6483 C   0  0  2  0  0  0  0  0  0  0  0  0
   26.3842  -18.4709   -8.3980 C   0  0  0  0  0  0  0  0  0  0  0  0
   25.5241  -20.6808   -9.2018 C   0  0  2  0  0  0  0  0  0  0  0  0
   25.8462  -22.1351   -9.2375 N   0  0  0  0  0  0  0  0  0  0  0  0
   25.0541  -20.3525  -10.5518 C   0  0  0  0  0  0  0  0  0  0  0  0
   24.2337  -19.3560  -10.6936 O   0  0  0  0  0  0  0  0  0  0  0  0
   29.3801  -21.9881  -14.9624 N   0  0  0  0  0  0  0  0  0  0  0  0
   28.3754  -21.8461  -15.9694 C   0  0  0  0  0  0  0  0  0  0  0  0
   28.1463  -22.8564  -16.7228 N   0  0  0  0  0  0  0  0  0  0  0  0
   27.6556  -20.6324  -16.1300 N   0  0  0  0  0  0  0  0  0  0  0  0
   27.8428  -19.5437  -15.1937 C   0  0  0  0  0  0  0  0  0  0  0  0
   27.0299  -19.7321  -13.9509 C   0  0  0  0  0  0  0  0  0  0  0  0
   25.6631  -20.2938  -14.1773 C   0  0  0  0  0  0  0  0  0  0  0  0
   24.8050  -20.5281  -13.0154 C   0  0  2  0  0  0  0  0  0  0  0  0
   25.3765  -20.9805  -11.7809 N   0  0  0  0  0  0  0  0  0  0  0  0
   23.5710  -21.3318  -13.3631 C   0  0  0  0  0  0  0  0  0  0  0  0
   23.7007  -22.5887  -13.3207 O   0  0  0  0  0  0  0  0  0  0  0  0
   27.4709  -22.9144  -17.4996 N   0  0  0  0  0  0  0  0  0  0  0  0
   20.0943  -22.4332   -9.6626 C   0  0  0  0  0  0  0  0  0  0  0  0
   19.2670  -22.9570  -10.7218 O   0  0  0  0  0  0  0  0  0  0  0  0
   18.3241  -23.6852  -10.3386 C   0  0  0  0  0  0  0  0  0  0  0  0
   19.5536  -22.6282  -12.1284 C   0  0  0  0  0  0  0  0  0  0  0  0
   20.7954  -21.8070  -12.2819 C   0  0  2  0  0  0  0  0  0  0  0  0
   21.1158  -21.4365  -13.6965 N   0  0  0  0  0  0  0  0  0  0  0  0
   22.3748  -20.7006  -13.7056 C   0  0  0  0  0  0  0  0  0  0  0  0
   20.0732  -20.5110  -14.2467 O   0  0  0  0  0  0  0  0  0  0  0  0
   18.8933  -20.9760  -14.7790 O   0  0  0  0  0  0  0  0  0  0  0  0
  2  3  1  0
  2  1  1  0
  3  4  1  1
  5  6  1  6
  5  3  1  0
  7  5  1  0
  8  7  2  0
  9 10  1  0
 10 12  1  0
 11 10  2  0
 13 12  1  0
 13 14  1  0
 15 14  1  0
 16 15  1  6
 16 17  1  0
 17  7  1  0
 18 16  1  0
 18 26  1  0
 19 18  2  0
 20 21  1  0
 21 23  1  0
 22 21  2  0
 23 24  1  0
 25 26  1  0
 25 24  1  6
 25 27  1  0
 27 28  1  0
 29 27  2  0
M  END
$$$$
