IRQ.pdb
     RDKit          3D

 29 28  0  0  1  0  0  0  0  0999 V2000
   27.2253  -15.0576  -15.6989 C   0  0  0  0  0  0  0  0  0  0  0  0
   25.9791  -15.8198  -16.0439 C   0  0  0  0  0  0  0  0  0  0  0  0
   24.9851  -14.8210  -16.6902 C   0  0  2  0  0  0  0  0  0  0  0  0
   25.8195  -14.0119  -17.6657 C   0  0  0  0  0  0  0  0  0  0  0  0
   24.3866  -13.9977  -15.6124 C   0  0  2  0  0  0  0  0  0  0  0  0
   23.7177  -14.8917  -14.6259 N   0  0  0  0  0  0  0  0  0  0  0  0
   23.3825  -12.9898  -15.9685 C   0  0  0  0  0  0  0  0  0  0  0  0
   23.7067  -12.0741  -16.8302 O   0  0  0  0  0  0  0  0  0  0  0  0
   16.7755  -16.1637  -14.6632 N   0  0  0  0  0  0  0  0  0  0  0  0
   17.1248  -16.2028  -16.0489 C   0  0  0  0  0  0  0  0  0  0  0  0
   16.7531  -17.2262  -16.7237 N   0  0  0  0  0  0  0  0  0  0  0  0
   17.8550  -15.1477  -16.6576 N   0  0  0  0  0  0  0  0  0  0  0  0
   18.3536  -14.0488  -15.8571 C   0  0  0  0  0  0  0  0  0  0  0  0
   19.1096  -13.0559  -16.6838 C   0  0  0  0  0  0  0  0  0  0  0  0
   19.7475  -11.9508  -15.9047 C   0  0  0  0  0  0  0  0  0  0  0  0
   21.2019  -11.8033  -15.9680 C   0  0  2  0  0  0  0  0  0  0  0  0
   22.0512  -12.8590  -15.4995 N   0  0  0  0  0  0  0  0  0  0  0  0
   21.6688  -10.4637  -15.4415 C   0  0  0  0  0  0  0  0  0  0  0  0
   22.1810  -10.4731  -14.2857 O   0  0  0  0  0  0  0  0  0  0  0  0
   16.8698  -17.3812  -17.7363 N   0  0  0  0  0  0  0  0  0  0  0  0
   21.9773   -5.1420  -18.8864 C   0  0  0  0  0  0  0  0  0  0  0  0
   23.1020   -6.0434  -18.8309 O   0  0  0  0  0  0  0  0  0  0  0  0
   23.9478   -5.8822  -19.7391 C   0  0  0  0  0  0  0  0  0  0  0  0
   23.1986   -7.0560  -17.7659 C   0  0  0  0  0  0  0  0  0  0  0  0
   22.0077   -7.0477  -16.8596 C   0  0  2  0  0  0  0  0  0  0  0  0
   22.0824   -8.0367  -15.7382 N   0  0  0  0  0  0  0  0  0  0  0  0
   21.5318   -9.3039  -16.2047 C   0  0  0  0  0  0  0  0  0  0  0  0
   21.2281   -7.5940  -14.5890 O   0  0  0  0  0  0  0  0  0  0  0  0
   21.7360   -6.8580  -13.5441 O   0  0  0  0  0  0  0  0  0  0  0  0
  2  3  1  0
  2  1  1  0
  3  4  1  6
  5  6  1  1
  5  3  1  0
  7  5  1  0
  8  7  2  0
  9 10  1  0
 10 12  1  0
 11 10  2  0
 13 12  1  0
 13 14  1  0
 15 14  1  0
 16 15  1  1
 16 17  1  0
 17  7  1  0
 18 16  1  0
 18 26  1  0
 19 18  2  0
 20 21  1  0
 21 23  1  0
 22 21  2  0
 23 24  1  0
 25 26  1  0
 25 24  1  6
 25 27  1  0
 27 28  1  0
 29 27  2  0
M  END
$$$$
