IRQ.pdb
     RDKit          3D

 29 28  0  0  1  0  0  0  0  0999 V2000
   27.8507  -22.9537  -19.0898 C   0  0  0  0  0  0  0  0  0  0  0  0
   26.3947  -23.1657  -19.3870 C   0  0  0  0  0  0  0  0  0  0  0  0
   25.6224  -23.0415  -18.0486 C   0  0  2  0  0  0  0  0  0  0  0  0
   25.2175  -21.5816  -17.9624 C   0  0  0  0  0  0  0  0  0  0  0  0
   26.5250  -23.4620  -16.9504 C   0  0  2  0  0  0  0  0  0  0  0  0
   26.5627  -24.9501  -16.8886 N   0  0  0  0  0  0  0  0  0  0  0  0
   26.2264  -23.0226  -15.5833 C   0  0  0  0  0  0  0  0  0  0  0  0
   25.1496  -23.4714  -15.0128 O   0  0  0  0  0  0  0  0  0  0  0  0
   30.3893  -22.3181   -8.7092 N   0  0  0  0  0  0  0  0  0  0  0  0
   29.5118  -21.2198   -8.4492 C   0  0  0  0  0  0  0  0  0  0  0  0
   29.5511  -20.6952   -7.2813 N   0  0  0  0  0  0  0  0  0  0  0  0
   28.6298  -20.7258   -9.4467 N   0  0  0  0  0  0  0  0  0  0  0  0
   27.6140  -21.5877  -10.0143 C   0  0  0  0  0  0  0  0  0  0  0  0
   26.8476  -20.9032  -11.1029 C   0  0  0  0  0  0  0  0  0  0  0  0
   27.3671  -21.1496  -12.4829 C   0  0  0  0  0  0  0  0  0  0  0  0
   26.4639  -21.7379  -13.4725 C   0  0  2  0  0  0  0  0  0  0  0  0
   26.9685  -22.1486  -14.7499 N   0  0  0  0  0  0  0  0  0  0  0  0
   25.1852  -20.9441  -13.6293 C   0  0  0  0  0  0  0  0  0  0  0  0
   25.2358  -19.9690  -14.4323 O   0  0  0  0  0  0  0  0  0  0  0  0
   29.0510  -19.8533   -6.9590 N   0  0  0  0  0  0  0  0  0  0  0  0
   21.9979  -19.2867  -16.7000 C   0  0  0  0  0  0  0  0  0  0  0  0
   20.8188  -19.4448  -15.8844 O   0  0  0  0  0  0  0  0  0  0  0  0
   19.8034  -18.8501  -16.3106 C   0  0  0  0  0  0  0  0  0  0  0  0
   20.8612  -20.2552  -14.6555 C   0  0  0  0  0  0  0  0  0  0  0  0
   22.2096  -20.8581  -14.4146 C   0  0  1  0  0  0  0  0  0  0  0  0
   22.8035  -20.5222  -13.0821 N   0  0  0  0  0  0  0  0  0  0  0  0
   24.0339  -21.2881  -12.9203 C   0  0  0  0  0  0  0  0  0  0  0  0
   21.8854  -20.9452  -11.9755 O   0  0  0  0  0  0  0  0  0  0  0  0
   20.7752  -20.2112  -11.6286 O   0  0  0  0  0  0  0  0  0  0  0  0
  2  3  1  0
  2  1  1  0
  3  4  1  1
  5  6  1  1
  5  3  1  0
  7  5  1  0
  8  7  2  0
  9 10  1  0
 10 12  1  0
 11 10  2  0
 13 12  1  0
 13 14  1  0
 15 14  1  0
 16 15  1  6
 16 17  1  0
 17  7  1  0
 18 16  1  0
 18 26  1  0
 19 18  2  0
 20 21  1  0
 21 23  1  0
 22 21  2  0
 23 24  1  0
 25 26  1  0
 25 24  1  6
 25 27  1  0
 27 28  1  0
 29 27  2  0
M  END
$$$$
