MFE.pdb
     RDKit          3D

 29 29  0  0  1  0  0  0  0  0999 V2000
    6.0755  -11.9886   17.5433 C   0  0  0  0  0  0  0  0  0  0  0  0
    7.5117  -12.3335   18.5957 S   0  0  0  0  0  0  0  0  0  0  0  0
    7.3377  -14.0317   19.2107 C   0  0  0  0  0  0  0  0  0  0  0  0
    8.5143  -14.2916   20.1336 C   0  0  0  0  0  0  0  0  0  0  0  0
    8.4856  -15.6909   20.7125 C   0  0  2  0  0  0  0  0  0  0  0  0
    7.1322  -16.1874   20.5853 N   0  0  0  0  0  0  0  0  0  0  0  0
    8.8709  -15.5862   22.1345 C   0  0  0  0  0  0  0  0  0  0  0  0
   10.0347  -15.1993   22.3934 O   0  0  0  0  0  0  0  0  0  0  0  0
    8.0377  -15.8856   23.2282 N   0  0  0  0  0  0  0  0  0  0  0  0
    8.4637  -15.7786   24.5783 C   0  0  1  0  0  0  0  0  0  0  0  0
    7.3832  -15.5323   25.5769 C   0  0  0  0  0  0  0  0  0  0  0  0
    7.1625  -14.1254   25.9126 C   0  0  0  0  0  0  0  0  0  0  0  0
    8.2021  -13.3420   26.4300 C   0  0  0  0  0  0  0  0  0  0  0  0
    8.0324  -12.0137   26.7567 C   0  0  0  0  0  0  0  0  0  0  0  0
    6.8080  -11.3982   26.5816 C   0  0  0  0  0  0  0  0  0  0  0  0
    5.7780  -12.1448   26.0774 C   0  0  0  0  0  0  0  0  0  0  0  0
    5.9636  -13.4758   25.7545 C   0  0  0  0  0  0  0  0  0  0  0  0
    9.2656  -16.9480   24.9983 C   0  0  0  0  0  0  0  0  0  0  0  0
    8.7597  -18.1183   24.8973 O   0  0  0  0  0  0  0  0  0  0  0  0
   10.5724  -16.8763   25.5087 N   0  0  0  0  0  0  0  0  0  0  0  0
   11.4350  -18.0427   25.7224 C   0  0  1  0  0  0  0  0  0  0  0  0
   12.8251  -17.7371   25.2102 C   0  0  0  0  0  0  0  0  0  0  0  0
   13.7169  -18.9193   25.4237 C   0  0  0  0  0  0  0  0  0  0  0  0
   15.0988  -18.5854   24.9607 C   0  0  0  0  0  0  0  0  0  0  0  0
   16.0141  -18.5270   25.7919 O   0  0  0  0  0  0  0  0  0  0  0  0
   11.4909  -18.2865   27.1655 C   0  0  0  0  0  0  0  0  0  0  0  0
   11.0247  -17.3309   28.0517 O   0  0  0  0  0  0  0  0  0  0  0  0
   15.3234  -18.3510   23.6263 O   0  0  0  0  0  0  0  0  0  0  0  0
   11.9467  -19.3307   27.6534 O   0  0  0  0  0  0  0  0  0  0  0  0
  2  1  1  0
  3  2  1  0
  4  3  1  0
  5  4  1  0
  5  6  1  1
  7  5  1  0
  7  8  2  0
  9  7  1  0
 10  9  1  0
 10 11  1  1
 12 11  1  0
 12 13  2  0
 14 13  1  0
 15 14  2  0
 16 17  2  0
 16 15  1  0
 17 12  1  0
 18 10  1  0
 19 18  2  0
 20 18  1  0
 21 20  1  0
 21 22  1  1
 22 23  1  0
 23 24  1  0
 24 25  2  0
 24 28  1  0
 26 27  1  0
 26 21  1  0
 29 26  2  0
M  END
$$$$
