MFE.pdb
     RDKit          3D

 29 29  0  0  1  0  0  0  0  0999 V2000
    7.9040  -11.1603   19.4147 C   0  0  0  0  0  0  0  0  0  0  0  0
    6.6139  -12.3310   18.9102 S   0  0  0  0  0  0  0  0  0  0  0  0
    7.2470  -14.0026   19.2223 C   0  0  0  0  0  0  0  0  0  0  0  0
    7.8207  -14.0041   20.6276 C   0  0  0  0  0  0  0  0  0  0  0  0
    8.3838  -15.3567   21.0113 C   0  0  2  0  0  0  0  0  0  0  0  0
    7.3058  -16.3182   20.9238 N   0  0  0  0  0  0  0  0  0  0  0  0
    8.8758  -15.2501   22.3998 C   0  0  0  0  0  0  0  0  0  0  0  0
    9.9248  -14.5921   22.5949 O   0  0  0  0  0  0  0  0  0  0  0  0
    8.2634  -15.8275   23.5274 N   0  0  0  0  0  0  0  0  0  0  0  0
    8.7787  -15.6913   24.8433 C   0  0  1  0  0  0  0  0  0  0  0  0
    7.7620  -15.4818   25.9146 C   0  0  0  0  0  0  0  0  0  0  0  0
    7.2871  -14.1048   26.0536 C   0  0  0  0  0  0  0  0  0  0  0  0
    8.1909  -13.0532   26.2519 C   0  0  0  0  0  0  0  0  0  0  0  0
    7.7813  -11.7440   26.3859 C   0  0  0  0  0  0  0  0  0  0  0  0
    6.4399  -11.4182   26.3280 C   0  0  0  0  0  0  0  0  0  0  0  0
    5.5391  -12.4301   26.1350 C   0  0  0  0  0  0  0  0  0  0  0  0
    5.9653  -13.7383   26.0023 C   0  0  0  0  0  0  0  0  0  0  0  0
    9.6568  -16.8228   25.2119 C   0  0  0  0  0  0  0  0  0  0  0  0
    9.1459  -17.9865   25.3545 O   0  0  0  0  0  0  0  0  0  0  0  0
   11.0424  -16.7212   25.4199 N   0  0  0  0  0  0  0  0  0  0  0  0
   11.9052  -17.8548   25.7678 C   0  0  1  0  0  0  0  0  0  0  0  0
   13.3416  -17.5074   25.4449 C   0  0  0  0  0  0  0  0  0  0  0  0
   13.4555  -17.0986   24.0102 C   0  0  0  0  0  0  0  0  0  0  0  0
   14.8820  -16.7741   23.7010 C   0  0  0  0  0  0  0  0  0  0  0  0
   15.7246  -16.8446   24.6051 O   0  0  0  0  0  0  0  0  0  0  0  0
   11.7712  -18.0799   27.2087 C   0  0  0  0  0  0  0  0  0  0  0  0
   12.3637  -19.1827   27.7994 O   0  0  0  0  0  0  0  0  0  0  0  0
   15.2269  -16.4056   22.4238 O   0  0  0  0  0  0  0  0  0  0  0  0
   11.1373  -17.3170   27.9520 O   0  0  0  0  0  0  0  0  0  0  0  0
  2  1  1  0
  3  2  1  0
  4  3  1  0
  5  4  1  0
  5  6  1  1
  7  5  1  0
  7  8  2  0
  9  7  1  0
 10  9  1  0
 10 11  1  1
 12 11  1  0
 12 13  2  0
 14 13  1  0
 15 14  2  0
 16 17  2  0
 16 15  1  0
 17 12  1  0
 18 10  1  0
 19 18  2  0
 20 18  1  0
 21 20  1  0
 21 22  1  1
 22 23  1  0
 23 24  1  0
 24 25  2  0
 24 28  1  0
 26 27  1  0
 26 21  1  0
 29 26  2  0
M  END
$$$$
