MFE.pdb
     RDKit          3D

 29 29  0  0  1  0  0  0  0  0999 V2000
    7.8324  -11.9821   18.8491 C   0  0  0  0  0  0  0  0  0  0  0  0
    7.4782  -13.3114   17.6673 S   0  0  0  0  0  0  0  0  0  0  0  0
    7.4969  -14.8747   18.5883 C   0  0  0  0  0  0  0  0  0  0  0  0
    8.6018  -14.7661   19.6233 C   0  0  0  0  0  0  0  0  0  0  0  0
    8.7183  -16.0196   20.4654 C   0  0  2  0  0  0  0  0  0  0  0  0
    7.4785  -16.7533   20.3284 N   0  0  0  0  0  0  0  0  0  0  0  0
    8.9188  -15.5918   21.8648 C   0  0  0  0  0  0  0  0  0  0  0  0
   10.0044  -15.0344   22.1513 O   0  0  0  0  0  0  0  0  0  0  0  0
    7.9897  -15.7580   22.9083 N   0  0  0  0  0  0  0  0  0  0  0  0
    8.2163  -15.2889   24.2291 C   0  0  1  0  0  0  0  0  0  0  0  0
    6.9934  -14.9256   25.0022 C   0  0  0  0  0  0  0  0  0  0  0  0
    7.2356  -14.1085   26.1916 C   0  0  0  0  0  0  0  0  0  0  0  0
    7.8868  -14.6470   27.3087 C   0  0  0  0  0  0  0  0  0  0  0  0
    8.1335  -13.9082   28.4459 C   0  0  0  0  0  0  0  0  0  0  0  0
    7.7394  -12.5864   28.5240 C   0  0  0  0  0  0  0  0  0  0  0  0
    7.1012  -12.0396   27.4440 C   0  0  0  0  0  0  0  0  0  0  0  0
    6.8610  -12.7933   26.3105 C   0  0  0  0  0  0  0  0  0  0  0  0
    9.0350  -16.2348   25.0178 C   0  0  0  0  0  0  0  0  0  0  0  0
    8.6309  -17.4400   25.1589 O   0  0  0  0  0  0  0  0  0  0  0  0
   10.2532  -15.9098   25.6373 N   0  0  0  0  0  0  0  0  0  0  0  0
   11.3020  -16.8865   25.9480 C   0  0  1  0  0  0  0  0  0  0  0  0
   12.6298  -16.3742   25.4357 C   0  0  0  0  0  0  0  0  0  0  0  0
   13.7180  -17.3371   25.7923 C   0  0  0  0  0  0  0  0  0  0  0  0
   14.9520  -16.9959   25.0201 C   0  0  0  0  0  0  0  0  0  0  0  0
   15.8250  -17.8602   24.8682 O   0  0  0  0  0  0  0  0  0  0  0  0
   11.3602  -17.0165   27.4056 C   0  0  0  0  0  0  0  0  0  0  0  0
   12.0172  -18.0891   27.9834 O   0  0  0  0  0  0  0  0  0  0  0  0
   15.0911  -15.7338   24.4966 O   0  0  0  0  0  0  0  0  0  0  0  0
   10.8378  -16.1969   28.1748 O   0  0  0  0  0  0  0  0  0  0  0  0
  2  1  1  0
  3  2  1  0
  4  3  1  0
  5  4  1  0
  5  6  1  1
  7  5  1  0
  7  8  2  0
  9  7  1  0
 10  9  1  0
 10 11  1  1
 12 11  1  0
 12 13  2  0
 14 13  1  0
 15 14  2  0
 16 17  2  0
 16 15  1  0
 17 12  1  0
 18 10  1  0
 19 18  2  0
 20 18  1  0
 21 20  1  0
 21 22  1  1
 22 23  1  0
 23 24  1  0
 24 25  2  0
 24 28  1  0
 26 27  1  0
 26 21  1  0
 29 26  2  0
M  END
$$$$
