MFE.pdb
     RDKit          3D

 29 29  0  0  1  0  0  0  0  0999 V2000
    8.2902  -11.8183   20.2666 C   0  0  0  0  0  0  0  0  0  0  0  0
    6.9973  -13.0858   20.1623 S   0  0  0  0  0  0  0  0  0  0  0  0
    7.6133  -14.4000   19.0734 C   0  0  0  0  0  0  0  0  0  0  0  0
    8.8978  -14.9219   19.6913 C   0  0  0  0  0  0  0  0  0  0  0  0
    8.6534  -16.1175   20.5884 C   0  0  2  0  0  0  0  0  0  0  0  0
    7.2232  -16.3293   20.6521 N   0  0  0  0  0  0  0  0  0  0  0  0
    9.1907  -15.7828   21.9228 C   0  0  0  0  0  0  0  0  0  0  0  0
   10.3603  -15.3357   21.9820 O   0  0  0  0  0  0  0  0  0  0  0  0
    8.4972  -15.9241   23.1389 N   0  0  0  0  0  0  0  0  0  0  0  0
    9.0634  -15.5884   24.3969 C   0  0  1  0  0  0  0  0  0  0  0  0
    8.0863  -15.2983   25.4861 C   0  0  0  0  0  0  0  0  0  0  0  0
    8.6708  -14.7438   26.7075 C   0  0  0  0  0  0  0  0  0  0  0  0
    8.6995  -13.3599   26.9223 C   0  0  0  0  0  0  0  0  0  0  0  0
    9.2404  -12.8012   28.0604 C   0  0  0  0  0  0  0  0  0  0  0  0
    9.7828  -13.6023   29.0466 C   0  0  0  0  0  0  0  0  0  0  0  0
    9.7655  -14.9575   28.8576 C   0  0  0  0  0  0  0  0  0  0  0  0
    9.2195  -15.5030   27.7109 C   0  0  0  0  0  0  0  0  0  0  0  0
   10.0271  -16.6106   24.8587 C   0  0  0  0  0  0  0  0  0  0  0  0
    9.5976  -17.7730   25.1752 O   0  0  0  0  0  0  0  0  0  0  0  0
   11.4115  -16.4046   24.9776 N   0  0  0  0  0  0  0  0  0  0  0  0
   12.3612  -17.4372   25.4047 C   0  0  1  0  0  0  0  0  0  0  0  0
   13.7674  -16.9935   25.0674 C   0  0  0  0  0  0  0  0  0  0  0  0
   13.8881  -16.7629   23.5940 C   0  0  0  0  0  0  0  0  0  0  0  0
   15.2848  -16.3361   23.2737 C   0  0  0  0  0  0  0  0  0  0  0  0
   16.1038  -16.2180   24.1943 O   0  0  0  0  0  0  0  0  0  0  0  0
   12.2304  -17.5776   26.8566 C   0  0  0  0  0  0  0  0  0  0  0  0
   11.9428  -16.4733   27.6400 O   0  0  0  0  0  0  0  0  0  0  0  0
   15.6292  -16.0845   21.9683 O   0  0  0  0  0  0  0  0  0  0  0  0
   12.3680  -18.6615   27.4420 O   0  0  0  0  0  0  0  0  0  0  0  0
  2  1  1  0
  3  2  1  0
  4  3  1  0
  5  4  1  0
  5  6  1  1
  7  5  1  0
  7  8  2  0
  9  7  1  0
 10  9  1  0
 10 11  1  1
 12 11  1  0
 12 13  2  0
 14 13  1  0
 15 14  2  0
 16 17  2  0
 16 15  1  0
 17 12  1  0
 18 10  1  0
 19 18  2  0
 20 18  1  0
 21 20  1  0
 21 22  1  1
 22 23  1  0
 23 24  1  0
 24 25  2  0
 24 28  1  0
 26 27  1  0
 26 21  1  0
 29 26  2  0
M  END
$$$$
