MFE.pdb
     RDKit          3D

 29 29  0  0  1  0  0  0  0  0999 V2000
    7.3089  -14.7279   15.4394 C   0  0  0  0  0  0  0  0  0  0  0  0
    8.0856  -14.2942   17.0199 S   0  0  0  0  0  0  0  0  0  0  0  0
    7.5151  -15.4976   18.2522 C   0  0  0  0  0  0  0  0  0  0  0  0
    8.2883  -15.2244   19.5295 C   0  0  0  0  0  0  0  0  0  0  0  0
    7.5255  -14.3193   20.4743 C   0  0  2  0  0  0  0  0  0  0  0  0
    7.5664  -12.9814   19.9242 N   0  0  0  0  0  0  0  0  0  0  0  0
    8.2137  -14.3672   21.7803 C   0  0  0  0  0  0  0  0  0  0  0  0
    9.2521  -13.6780   21.9146 O   0  0  0  0  0  0  0  0  0  0  0  0
    7.8000  -15.1247   22.8915 N   0  0  0  0  0  0  0  0  0  0  0  0
    8.4850  -15.1131   24.1350 C   0  0  1  0  0  0  0  0  0  0  0  0
    7.6182  -15.0475   25.3473 C   0  0  0  0  0  0  0  0  0  0  0  0
    7.2068  -13.6991   25.7393 C   0  0  0  0  0  0  0  0  0  0  0  0
    8.1342  -12.6500   25.7732 C   0  0  0  0  0  0  0  0  0  0  0  0
    7.7838  -11.3672   26.1359 C   0  0  0  0  0  0  0  0  0  0  0  0
    6.4813  -11.0670   26.4851 C   0  0  0  0  0  0  0  0  0  0  0  0
    5.5583  -12.0770   26.4591 C   0  0  0  0  0  0  0  0  0  0  0  0
    5.9250  -13.3585   26.0931 C   0  0  0  0  0  0  0  0  0  0  0  0
    9.4214  -16.2509   24.2599 C   0  0  0  0  0  0  0  0  0  0  0  0
    9.0016  -17.4328   24.0101 O   0  0  0  0  0  0  0  0  0  0  0  0
   10.7698  -16.1356   24.6366 N   0  0  0  0  0  0  0  0  0  0  0  0
   11.7433  -17.2286   24.5466 C   0  0  1  0  0  0  0  0  0  0  0  0
   13.0799  -16.6728   24.1078 C   0  0  0  0  0  0  0  0  0  0  0  0
   14.1271  -17.7378   24.1960 C   0  0  0  0  0  0  0  0  0  0  0  0
   15.4506  -17.1627   23.8046 C   0  0  0  0  0  0  0  0  0  0  0  0
   15.5262  -15.9574   23.5332 O   0  0  0  0  0  0  0  0  0  0  0  0
   11.8734  -17.8092   25.8848 C   0  0  0  0  0  0  0  0  0  0  0  0
   12.4190  -19.0711   26.0464 O   0  0  0  0  0  0  0  0  0  0  0  0
   16.5520  -17.9815   23.7543 O   0  0  0  0  0  0  0  0  0  0  0  0
   11.5108  -17.2180   26.9120 O   0  0  0  0  0  0  0  0  0  0  0  0
  2  1  1  0
  3  2  1  0
  4  3  1  0
  5  4  1  0
  5  6  1  6
  7  5  1  0
  7  8  2  0
  9  7  1  0
 10  9  1  0
 10 11  1  1
 12 11  1  0
 12 13  2  0
 14 13  1  0
 15 14  2  0
 16 17  2  0
 16 15  1  0
 17 12  1  0
 18 10  1  0
 19 18  2  0
 20 18  1  0
 21 20  1  0
 21 22  1  1
 22 23  1  0
 23 24  1  0
 24 25  2  0
 24 28  1  0
 26 27  1  0
 26 21  1  0
 29 26  2  0
M  END
$$$$
