MFE.pdb
     RDKit          3D

 29 29  0  0  1  0  0  0  0  0999 V2000
    7.6543  -12.1102   18.8785 C   0  0  0  0  0  0  0  0  0  0  0  0
    7.4896  -13.3636   17.5780 S   0  0  0  0  0  0  0  0  0  0  0  0
    7.9602  -14.9598   18.3011 C   0  0  0  0  0  0  0  0  0  0  0  0
    8.3525  -14.6948   19.7433 C   0  0  0  0  0  0  0  0  0  0  0  0
    8.7088  -15.9693   20.4798 C   0  0  2  0  0  0  0  0  0  0  0  0
    7.5785  -16.8663   20.3704 N   0  0  0  0  0  0  0  0  0  0  0  0
    8.9527  -15.6078   21.8909 C   0  0  0  0  0  0  0  0  0  0  0  0
   10.0246  -15.0169   22.1617 O   0  0  0  0  0  0  0  0  0  0  0  0
    8.0793  -15.8719   22.9620 N   0  0  0  0  0  0  0  0  0  0  0  0
    8.2985  -15.3862   24.2780 C   0  0  1  0  0  0  0  0  0  0  0  0
    7.0701  -15.0311   25.0463 C   0  0  0  0  0  0  0  0  0  0  0  0
    7.3034  -14.2221   26.2430 C   0  0  0  0  0  0  0  0  0  0  0  0
    6.9366  -12.8707   26.2754 C   0  0  0  0  0  0  0  0  0  0  0  0
    7.1394  -12.0777   27.3844 C   0  0  0  0  0  0  0  0  0  0  0  0
    7.7224  -12.5988   28.5234 C   0  0  0  0  0  0  0  0  0  0  0  0
    8.0888  -13.9172   28.5140 C   0  0  0  0  0  0  0  0  0  0  0  0
    7.8790  -14.6998   27.3941 C   0  0  0  0  0  0  0  0  0  0  0  0
    9.1288  -16.3131   25.0771 C   0  0  0  0  0  0  0  0  0  0  0  0
    8.6657  -17.4687   25.3699 O   0  0  0  0  0  0  0  0  0  0  0  0
   10.4191  -16.0212   25.5496 N   0  0  0  0  0  0  0  0  0  0  0  0
   11.3334  -17.0212   26.1104 C   0  0  1  0  0  0  0  0  0  0  0  0
   12.7533  -16.6745   25.7211 C   0  0  0  0  0  0  0  0  0  0  0  0
   12.9251  -16.8207   24.2420 C   0  0  0  0  0  0  0  0  0  0  0  0
   14.3386  -16.5001   23.8749 C   0  0  0  0  0  0  0  0  0  0  0  0
   14.9305  -15.6022   24.4878 O   0  0  0  0  0  0  0  0  0  0  0  0
   11.2011  -16.9658   27.5679 C   0  0  0  0  0  0  0  0  0  0  0  0
   10.3324  -16.0618   28.1544 O   0  0  0  0  0  0  0  0  0  0  0  0
   14.9494  -17.2065   22.8679 O   0  0  0  0  0  0  0  0  0  0  0  0
   11.8431  -17.7036   28.3294 O   0  0  0  0  0  0  0  0  0  0  0  0
  2  1  1  0
  3  2  1  0
  4  3  1  0
  5  4  1  0
  5  6  1  1
  7  5  1  0
  7  8  2  0
  9  7  1  0
 10  9  1  0
 10 11  1  1
 12 11  1  0
 12 13  2  0
 14 13  1  0
 15 14  2  0
 16 17  2  0
 16 15  1  0
 17 12  1  0
 18 10  1  0
 19 18  2  0
 20 18  1  0
 21 20  1  0
 21 22  1  1
 22 23  1  0
 23 24  1  0
 24 25  2  0
 24 28  1  0
 26 27  1  0
 26 21  1  0
 29 26  2  0
M  END
$$$$
