MFE.pdb
     RDKit          3D

 29 29  0  0  1  0  0  0  0  0999 V2000
    7.6806  -11.8036   19.0847 C   0  0  0  0  0  0  0  0  0  0  0  0
    7.2409  -13.0772   17.8706 S   0  0  0  0  0  0  0  0  0  0  0  0
    7.4195  -14.6881   18.6862 C   0  0  0  0  0  0  0  0  0  0  0  0
    8.6076  -14.5805   19.6247 C   0  0  0  0  0  0  0  0  0  0  0  0
    8.8437  -15.8636   20.3940 C   0  0  2  0  0  0  0  0  0  0  0  0
    7.6385  -16.6586   20.2955 N   0  0  0  0  0  0  0  0  0  0  0  0
    9.1094  -15.4915   21.7984 C   0  0  0  0  0  0  0  0  0  0  0  0
   10.2852  -15.1830   22.1045 O   0  0  0  0  0  0  0  0  0  0  0  0
    8.1495  -15.4540   22.8265 N   0  0  0  0  0  0  0  0  0  0  0  0
    8.4531  -15.0566   24.1553 C   0  0  1  0  0  0  0  0  0  0  0  0
    7.3018  -14.5434   24.9530 C   0  0  0  0  0  0  0  0  0  0  0  0
    7.6481  -14.0399   26.2825 C   0  0  0  0  0  0  0  0  0  0  0  0
    8.7406  -13.1814   26.4599 C   0  0  0  0  0  0  0  0  0  0  0  0
    9.0964  -12.6861   27.6960 C   0  0  0  0  0  0  0  0  0  0  0  0
    8.3739  -13.0261   28.8234 C   0  0  0  0  0  0  0  0  0  0  0  0
    7.3024  -13.8639   28.6734 C   0  0  0  0  0  0  0  0  0  0  0  0
    6.9578  -14.3524   27.4271 C   0  0  0  0  0  0  0  0  0  0  0  0
    9.1360  -16.1296   24.9098 C   0  0  0  0  0  0  0  0  0  0  0  0
    8.5259  -17.2359   25.1086 O   0  0  0  0  0  0  0  0  0  0  0  0
   10.4347  -16.0312   25.4362 N   0  0  0  0  0  0  0  0  0  0  0  0
   11.2495  -17.1847   25.8314 C   0  0  1  0  0  0  0  0  0  0  0  0
   12.6599  -17.0002   25.3169 C   0  0  0  0  0  0  0  0  0  0  0  0
   13.5085  -18.1601   25.7328 C   0  0  0  0  0  0  0  0  0  0  0  0
   14.8827  -17.9945   25.1674 C   0  0  0  0  0  0  0  0  0  0  0  0
   15.6535  -18.9631   25.1659 O   0  0  0  0  0  0  0  0  0  0  0  0
   11.2671  -17.2263   27.2952 C   0  0  0  0  0  0  0  0  0  0  0  0
   11.4367  -18.4310   27.9556 O   0  0  0  0  0  0  0  0  0  0  0  0
   15.2604  -16.7743   24.6628 O   0  0  0  0  0  0  0  0  0  0  0  0
   11.1335  -16.2141   27.9980 O   0  0  0  0  0  0  0  0  0  0  0  0
  2  1  1  0
  3  2  1  0
  4  3  1  0
  5  4  1  0
  5  6  1  1
  7  5  1  0
  7  8  2  0
  9  7  1  0
 10  9  1  0
 10 11  1  1
 12 11  1  0
 12 13  2  0
 14 13  1  0
 15 14  2  0
 16 17  2  0
 16 15  1  0
 17 12  1  0
 18 10  1  0
 19 18  2  0
 20 18  1  0
 21 20  1  0
 21 22  1  1
 22 23  1  0
 23 24  1  0
 24 25  2  0
 24 28  1  0
 26 27  1  0
 26 21  1  0
 29 26  2  0
M  END
$$$$
