MFE.pdb
     RDKit          3D

 29 29  0  0  1  0  0  0  0  0999 V2000
    7.7937  -12.0656   18.8687 C   0  0  0  0  0  0  0  0  0  0  0  0
    6.6837  -13.2053   17.9979 S   0  0  0  0  0  0  0  0  0  0  0  0
    7.3906  -14.8698   18.1466 C   0  0  0  0  0  0  0  0  0  0  0  0
    8.5903  -14.7609   19.0700 C   0  0  0  0  0  0  0  0  0  0  0  0
    8.7174  -15.9631   19.9825 C   0  0  2  0  0  0  0  0  0  0  0  0
    7.4769  -16.7039   19.9025 N   0  0  0  0  0  0  0  0  0  0  0  0
    8.9332  -15.4542   21.3521 C   0  0  0  0  0  0  0  0  0  0  0  0
   10.0052  -14.8469   21.5834 O   0  0  0  0  0  0  0  0  0  0  0  0
    8.0328  -15.5944   22.4243 N   0  0  0  0  0  0  0  0  0  0  0  0
    8.3021  -15.1072   23.7304 C   0  0  1  0  0  0  0  0  0  0  0  0
    7.1034  -14.8290   24.5738 C   0  0  0  0  0  0  0  0  0  0  0  0
    7.3603  -14.0130   25.7608 C   0  0  0  0  0  0  0  0  0  0  0  0
    6.7888  -12.7409   25.8916 C   0  0  0  0  0  0  0  0  0  0  0  0
    7.0067  -11.9442   26.9951 C   0  0  0  0  0  0  0  0  0  0  0  0
    7.8116  -12.3816   28.0293 C   0  0  0  0  0  0  0  0  0  0  0  0
    8.3805  -13.6216   27.9225 C   0  0  0  0  0  0  0  0  0  0  0  0
    8.1525  -14.4090   26.8096 C   0  0  0  0  0  0  0  0  0  0  0  0
    9.2296  -15.9911   24.4688 C   0  0  0  0  0  0  0  0  0  0  0  0
    8.8503  -17.1728   24.7775 O   0  0  0  0  0  0  0  0  0  0  0  0
   10.5280  -15.6303   24.8656 N   0  0  0  0  0  0  0  0  0  0  0  0
   11.5943  -16.5937   25.1578 C   0  0  1  0  0  0  0  0  0  0  0  0
   12.9378  -15.9346   24.9373 C   0  0  0  0  0  0  0  0  0  0  0  0
   14.0324  -16.8456   25.3960 C   0  0  0  0  0  0  0  0  0  0  0  0
   15.2858  -16.5288   24.6449 C   0  0  0  0  0  0  0  0  0  0  0  0
   15.2166  -15.8266   23.6279 O   0  0  0  0  0  0  0  0  0  0  0  0
   11.4648  -16.9754   26.5657 C   0  0  0  0  0  0  0  0  0  0  0  0
   10.7468  -16.1780   27.4402 O   0  0  0  0  0  0  0  0  0  0  0  0
   16.4848  -17.0223   25.0976 O   0  0  0  0  0  0  0  0  0  0  0  0
   11.9780  -18.0020   27.0336 O   0  0  0  0  0  0  0  0  0  0  0  0
  2  1  1  0
  3  2  1  0
  4  3  1  0
  5  4  1  0
  5  6  1  1
  7  5  1  0
  7  8  2  0
  9  7  1  0
 10  9  1  0
 10 11  1  1
 12 11  1  0
 12 13  2  0
 14 13  1  0
 15 14  2  0
 16 17  2  0
 16 15  1  0
 17 12  1  0
 18 10  1  0
 19 18  2  0
 20 18  1  0
 21 20  1  0
 21 22  1  1
 22 23  1  0
 23 24  1  0
 24 25  2  0
 24 28  1  0
 26 27  1  0
 26 21  1  0
 29 26  2  0
M  END
$$$$
