MFE.pdb
     RDKit          3D

 29 29  0  0  1  0  0  0  0  0999 V2000
    7.8493  -12.0869   18.5477 C   0  0  0  0  0  0  0  0  0  0  0  0
    7.6005  -13.3907   17.3118 S   0  0  0  0  0  0  0  0  0  0  0  0
    7.6149  -14.9789   18.1890 C   0  0  0  0  0  0  0  0  0  0  0  0
    8.4014  -14.7704   19.4704 C   0  0  0  0  0  0  0  0  0  0  0  0
    8.4895  -16.0366   20.2968 C   0  0  2  0  0  0  0  0  0  0  0  0
    7.1935  -16.6788   20.2497 N   0  0  0  0  0  0  0  0  0  0  0  0
    8.8233  -15.6370   21.6789 C   0  0  0  0  0  0  0  0  0  0  0  0
    9.9386  -15.0989   21.8741 O   0  0  0  0  0  0  0  0  0  0  0  0
    7.9912  -15.8101   22.8003 N   0  0  0  0  0  0  0  0  0  0  0  0
    8.3329  -15.3451   24.0974 C   0  0  1  0  0  0  0  0  0  0  0  0
    7.1848  -15.1093   25.0203 C   0  0  0  0  0  0  0  0  0  0  0  0
    7.4644  -14.2019   26.1335 C   0  0  0  0  0  0  0  0  0  0  0  0
    8.2818  -14.6054   27.1971 C   0  0  0  0  0  0  0  0  0  0  0  0
    8.5685  -13.7784   28.2619 C   0  0  0  0  0  0  0  0  0  0  0  0
    8.0496  -12.4992   28.3174 C   0  0  0  0  0  0  0  0  0  0  0  0
    7.2482  -12.0840   27.2888 C   0  0  0  0  0  0  0  0  0  0  0  0
    6.9697  -12.9249   26.2277 C   0  0  0  0  0  0  0  0  0  0  0  0
    9.3220  -16.2251   24.7563 C   0  0  0  0  0  0  0  0  0  0  0  0
    8.9993  -17.4333   25.0242 O   0  0  0  0  0  0  0  0  0  0  0  0
   10.6216  -15.8329   25.1178 N   0  0  0  0  0  0  0  0  0  0  0  0
   11.7012  -16.7705   25.4428 C   0  0  1  0  0  0  0  0  0  0  0  0
   13.0286  -16.0485   25.3724 C   0  0  0  0  0  0  0  0  0  0  0  0
   14.1186  -16.9378   25.8818 C   0  0  0  0  0  0  0  0  0  0  0  0
   15.2211  -16.9949   24.8734 C   0  0  0  0  0  0  0  0  0  0  0  0
   15.3489  -16.0634   24.0683 O   0  0  0  0  0  0  0  0  0  0  0  0
   11.4749  -17.2404   26.8113 C   0  0  0  0  0  0  0  0  0  0  0  0
   10.9766  -16.3761   27.7709 O   0  0  0  0  0  0  0  0  0  0  0  0
   16.0668  -18.0770   24.8612 O   0  0  0  0  0  0  0  0  0  0  0  0
   11.7125  -18.4025   27.1708 O   0  0  0  0  0  0  0  0  0  0  0  0
  2  1  1  0
  3  2  1  0
  4  3  1  0
  5  4  1  0
  5  6  1  1
  7  5  1  0
  7  8  2  0
  9  7  1  0
 10  9  1  0
 10 11  1  1
 12 11  1  0
 12 13  2  0
 14 13  1  0
 15 14  2  0
 16 17  2  0
 16 15  1  0
 17 12  1  0
 18 10  1  0
 19 18  2  0
 20 18  1  0
 21 20  1  0
 21 22  1  1
 22 23  1  0
 23 24  1  0
 24 25  2  0
 24 28  1  0
 26 27  1  0
 26 21  1  0
 29 26  2  0
M  END
$$$$
