SKH.pdb
     RDKit          3D

 26 26  0  0  1  0  0  0  0  0999 V2000
   24.1591  -16.0046  -17.0783 O   0  0  0  0  0  0  0  0  0  0  0  0
   23.7272  -16.3005  -15.7913 C   0  0  0  0  0  0  0  0  0  0  0  0
   22.5425  -17.2634  -15.7987 C   0  0  2  0  0  0  0  0  0  0  0  0
   22.8689  -18.4146  -16.5874 N   0  0  0  0  0  0  0  0  0  0  0  0
   21.3178  -16.6078  -16.3208 C   0  0  0  0  0  0  0  0  0  0  0  0
   21.0391  -16.7077  -17.5428 O   0  0  0  0  0  0  0  0  0  0  0  0
   20.4377  -15.8660  -15.4980 N   0  0  0  0  0  0  0  0  0  0  0  0
   19.2449  -15.2162  -15.9973 C   0  0  1  0  0  0  0  0  0  0  0  0
   18.0635  -15.8548  -15.3283 C   0  0  0  0  0  0  0  0  0  0  0  0
   16.7463  -15.3727  -15.8235 C   0  0  0  0  0  0  0  0  0  0  0  0
   15.5792  -16.1238  -15.2169 C   0  0  0  0  0  0  0  0  0  0  0  0
   14.2690  -15.6240  -15.8013 C   0  0  0  0  0  0  0  0  0  0  0  0
   13.1975  -16.5238  -15.4437 N   0  0  0  0  0  0  0  0  0  0  0  0
   19.3539  -13.7798  -15.7818 C   0  0  0  0  0  0  0  0  0  0  0  0
   19.7647  -13.2560  -14.6933 O   0  0  0  0  0  0  0  0  0  0  0  0
   18.9913  -12.8807  -16.8190 N   0  0  0  0  0  0  0  0  0  0  0  0
   19.1974  -11.4416  -16.6368 C   0  0  1  0  0  0  0  0  0  0  0  0
   19.3577  -10.8468  -18.0197 C   0  0  0  0  0  0  0  0  0  0  0  0
   20.6894  -11.0267  -18.6007 C   0  0  0  0  0  0  0  0  0  0  0  0
   21.7860  -11.5357  -17.9321 C   0  0  0  0  0  0  0  0  0  0  0  0
   22.7945  -11.5282  -18.8290 N   0  0  0  0  0  0  0  0  0  0  0  0
   22.3281  -11.0363  -19.9891 C   0  0  0  0  0  0  0  0  0  0  0  0
   21.0453  -10.7239  -19.8718 N   0  0  0  0  0  0  0  0  0  0  0  0
   18.0024  -10.8145  -16.0212 C   0  0  0  0  0  0  0  0  0  0  0  0
   18.0616   -9.7839  -15.1050 O   0  0  0  0  0  0  0  0  0  0  0  0
   16.8734  -11.2489  -16.3552 O   0  0  0  0  0  0  0  0  0  0  0  0
  1  2  1  0
  3  2  1  0
  3  4  1  6
  5  3  1  0
  6  5  2  0
  7  5  1  0
  8  7  1  0
  8  9  1  1
 10 11  1  0
 10  9  1  0
 11 12  1  0
 13 12  1  0
 14 16  1  0
 14  8  1  0
 15 14  2  0
 17 18  1  6
 17 16  1  0
 19 18  1  0
 19 23  1  0
 20 21  1  0
 20 19  2  0
 21 22  1  0
 22 23  2  0
 24 17  1  0
 25 24  1  0
 26 24  2  0
M  END
$$$$
