SKH.pdb
     RDKit          3D

 26 26  0  0  1  0  0  0  0  0999 V2000
   20.3527  -12.0901  -15.1883 O   0  0  0  0  0  0  0  0  0  0  0  0
   19.2142  -12.7864  -15.5749 C   0  0  0  0  0  0  0  0  0  0  0  0
   18.7829  -12.4241  -16.9939 C   0  0  2  0  0  0  0  0  0  0  0  0
   19.8130  -12.8011  -17.9160 N   0  0  0  0  0  0  0  0  0  0  0  0
   18.4851  -10.9751  -17.1136 C   0  0  0  0  0  0  0  0  0  0  0  0
   19.2945  -10.2282  -17.7201 O   0  0  0  0  0  0  0  0  0  0  0  0
   17.3184  -10.3870  -16.5705 N   0  0  0  0  0  0  0  0  0  0  0  0
   16.9570   -9.0019  -16.7831 C   0  0  1  0  0  0  0  0  0  0  0  0
   15.4755   -8.8806  -16.5793 C   0  0  0  0  0  0  0  0  0  0  0  0
   14.9317   -7.5212  -16.8415 C   0  0  0  0  0  0  0  0  0  0  0  0
   13.4347   -7.4353  -16.6281 C   0  0  0  0  0  0  0  0  0  0  0  0
   12.9325   -6.0417  -16.9659 C   0  0  0  0  0  0  0  0  0  0  0  0
   11.5474   -5.9122  -16.5789 N   0  0  0  0  0  0  0  0  0  0  0  0
   17.7556   -8.1566  -15.9060 C   0  0  0  0  0  0  0  0  0  0  0  0
   18.0551   -8.4655  -14.7047 O   0  0  0  0  0  0  0  0  0  0  0  0
   18.2457   -6.9113  -16.3797 N   0  0  0  0  0  0  0  0  0  0  0  0
   19.1006   -6.0922  -15.5167 C   0  0  1  0  0  0  0  0  0  0  0  0
   20.2140   -5.5553  -16.3910 C   0  0  0  0  0  0  0  0  0  0  0  0
   21.1851   -4.7200  -15.6821 C   0  0  0  0  0  0  0  0  0  0  0  0
   21.8278   -5.0690  -14.5100 C   0  0  0  0  0  0  0  0  0  0  0  0
   22.6258   -4.0234  -14.2075 N   0  0  0  0  0  0  0  0  0  0  0  0
   22.4723   -3.0833  -15.1552 C   0  0  0  0  0  0  0  0  0  0  0  0
   21.5973   -3.4881  -16.0649 N   0  0  0  0  0  0  0  0  0  0  0  0
   18.3503   -4.9261  -14.9899 C   0  0  0  0  0  0  0  0  0  0  0  0
   17.0247   -4.6717  -15.2781 O   0  0  0  0  0  0  0  0  0  0  0  0
   18.9596   -4.1263  -14.2390 O   0  0  0  0  0  0  0  0  0  0  0  0
  1  2  1  0
  3  2  1  0
  3  4  1  6
  5  3  1  0
  6  5  2  0
  7  5  1  0
  8  7  1  0
  8  9  1  1
 10 11  1  0
 10  9  1  0
 11 12  1  0
 13 12  1  0
 14 16  1  0
 14  8  1  0
 15 14  2  0
 17 18  1  6
 17 16  1  0
 19 18  1  0
 19 23  1  0
 20 21  1  0
 20 19  2  0
 21 22  1  0
 22 23  2  0
 24 17  1  0
 25 24  1  0
 26 24  2  0
M  END
$$$$
