SKH.pdb
     RDKit          3D

 26 26  0  0  1  0  0  0  0  0999 V2000
   26.2066  -11.2200  -15.6799 O   0  0  0  0  0  0  0  0  0  0  0  0
   25.7293  -12.5222  -15.7622 C   0  0  0  0  0  0  0  0  0  0  0  0
   24.9193  -12.7493  -17.0363 C   0  0  2  0  0  0  0  0  0  0  0  0
   25.7367  -12.4631  -18.1781 N   0  0  0  0  0  0  0  0  0  0  0  0
   23.6943  -11.9117  -17.0531 C   0  0  0  0  0  0  0  0  0  0  0  0
   23.6640  -10.8791  -17.7698 O   0  0  0  0  0  0  0  0  0  0  0  0
   22.5439  -12.2243  -16.2907 N   0  0  0  0  0  0  0  0  0  0  0  0
   21.3230  -11.4495  -16.3451 C   0  0  1  0  0  0  0  0  0  0  0  0
   20.2006  -12.3341  -15.8881 C   0  0  0  0  0  0  0  0  0  0  0  0
   18.8601  -11.6906  -15.9279 C   0  0  0  0  0  0  0  0  0  0  0  0
   17.7372  -12.6494  -15.5904 C   0  0  0  0  0  0  0  0  0  0  0  0
   16.3931  -11.9515  -15.7116 C   0  0  0  0  0  0  0  0  0  0  0  0
   15.3265  -12.9185  -15.5995 N   0  0  0  0  0  0  0  0  0  0  0  0
   21.4890  -10.2346  -15.5589 C   0  0  0  0  0  0  0  0  0  0  0  0
   22.0992  -10.1936  -14.4390 O   0  0  0  0  0  0  0  0  0  0  0  0
   20.9552   -9.0078  -16.0336 N   0  0  0  0  0  0  0  0  0  0  0  0
   21.1389   -7.7844  -15.2486 C   0  0  1  0  0  0  0  0  0  0  0  0
   21.8269   -6.7856  -16.1547 C   0  0  0  0  0  0  0  0  0  0  0  0
   22.0898   -5.4883  -15.5292 C   0  0  0  0  0  0  0  0  0  0  0  0
   22.0644   -5.2416  -14.1701 C   0  0  0  0  0  0  0  0  0  0  0  0
   22.3599   -3.9319  -14.0326 N   0  0  0  0  0  0  0  0  0  0  0  0
   22.5555   -3.4095  -15.2550 C   0  0  0  0  0  0  0  0  0  0  0  0
   22.3956   -4.3424  -16.1830 N   0  0  0  0  0  0  0  0  0  0  0  0
   19.8281   -7.2050  -14.8660 C   0  0  0  0  0  0  0  0  0  0  0  0
   19.6269   -6.4405  -13.7346 O   0  0  0  0  0  0  0  0  0  0  0  0
   18.8470   -7.4250  -15.6170 O   0  0  0  0  0  0  0  0  0  0  0  0
  1  2  1  0
  3  2  1  0
  3  4  1  6
  5  3  1  0
  6  5  2  0
  7  5  1  0
  8  7  1  0
  8  9  1  1
 10 11  1  0
 10  9  1  0
 11 12  1  0
 13 12  1  0
 14 16  1  0
 14  8  1  0
 15 14  2  0
 17 18  1  6
 17 16  1  0
 19 18  1  0
 19 23  1  0
 20 21  1  0
 20 19  2  0
 21 22  1  0
 22 23  2  0
 24 17  1  0
 25 24  1  0
 26 24  2  0
M  END
$$$$
