SKH.pdb
     RDKit          3D

 26 26  0  0  1  0  0  0  0  0999 V2000
   19.5349  -13.7297  -15.3117 O   0  0  0  0  0  0  0  0  0  0  0  0
   18.1861  -13.6244  -14.9952 C   0  0  0  0  0  0  0  0  0  0  0  0
   17.3440  -13.2639  -16.2167 C   0  0  2  0  0  0  0  0  0  0  0  0
   18.0297  -13.6744  -17.4062 N   0  0  0  0  0  0  0  0  0  0  0  0
   17.0541  -11.8091  -16.2615 C   0  0  0  0  0  0  0  0  0  0  0  0
   17.8271  -11.0464  -16.8952 O   0  0  0  0  0  0  0  0  0  0  0  0
   15.9344  -11.2325  -15.6166 N   0  0  0  0  0  0  0  0  0  0  0  0
   15.6066   -9.8258  -15.7055 C   0  0  1  0  0  0  0  0  0  0  0  0
   14.2070   -9.6503  -15.1942 C   0  0  0  0  0  0  0  0  0  0  0  0
   13.7158   -8.2467  -15.2269 C   0  0  0  0  0  0  0  0  0  0  0  0
   12.3094   -8.1029  -14.6831 C   0  0  0  0  0  0  0  0  0  0  0  0
   11.8610   -6.6532  -14.7561 C   0  0  0  0  0  0  0  0  0  0  0  0
   11.4984   -6.3197  -16.1135 N   0  0  0  0  0  0  0  0  0  0  0  0
   16.6102   -9.0520  -14.9874 C   0  0  0  0  0  0  0  0  0  0  0  0
   17.0988   -9.3979  -13.8606 O   0  0  0  0  0  0  0  0  0  0  0  0
   17.0961   -7.8387  -15.5418 N   0  0  0  0  0  0  0  0  0  0  0  0
   18.1244   -7.0759  -14.8294 C   0  0  1  0  0  0  0  0  0  0  0  0
   19.2418   -6.8227  -15.8191 C   0  0  0  0  0  0  0  0  0  0  0  0
   20.3577   -6.0439  -15.2792 C   0  0  0  0  0  0  0  0  0  0  0  0
   20.9276   -6.2294  -14.0344 C   0  0  0  0  0  0  0  0  0  0  0  0
   21.9118   -5.3102  -13.9444 N   0  0  0  0  0  0  0  0  0  0  0  0
   21.9359   -4.6000  -15.0848 C   0  0  0  0  0  0  0  0  0  0  0  0
   20.9956   -5.0314  -15.9133 N   0  0  0  0  0  0  0  0  0  0  0  0
   17.5991   -5.7544  -14.4076 C   0  0  0  0  0  0  0  0  0  0  0  0
   17.9382   -5.1360  -13.2211 O   0  0  0  0  0  0  0  0  0  0  0  0
   16.7999   -5.1674  -15.1767 O   0  0  0  0  0  0  0  0  0  0  0  0
  1  2  1  0
  3  2  1  0
  3  4  1  6
  5  3  1  0
  6  5  2  0
  7  5  1  0
  8  7  1  0
  8  9  1  1
 10 11  1  0
 10  9  1  0
 11 12  1  0
 13 12  1  0
 14 16  1  0
 14  8  1  0
 15 14  2  0
 17 18  1  6
 17 16  1  0
 19 18  1  0
 19 23  1  0
 20 21  1  0
 20 19  2  0
 21 22  1  0
 22 23  2  0
 24 17  1  0
 25 24  1  0
 26 24  2  0
M  END
$$$$
