SKH.pdb
     RDKit          3D

 26 26  0  0  1  0  0  0  0  0999 V2000
   25.6032  -12.9355  -18.0122 O   0  0  0  0  0  0  0  0  0  0  0  0
   25.4776  -14.2558  -18.4261 C   0  0  0  0  0  0  0  0  0  0  0  0
   26.8358  -14.8911  -18.7135 C   0  0  2  0  0  0  0  0  0  0  0  0
   27.3951  -14.3060  -19.8960 N   0  0  0  0  0  0  0  0  0  0  0  0
   26.7210  -16.3627  -18.8680 C   0  0  0  0  0  0  0  0  0  0  0  0
   25.9393  -16.8318  -19.7339 O   0  0  0  0  0  0  0  0  0  0  0  0
   27.4590  -17.2744  -18.0767 N   0  0  0  0  0  0  0  0  0  0  0  0
   27.3182  -18.7107  -18.1837 C   0  0  1  0  0  0  0  0  0  0  0  0
   28.5150  -19.3364  -17.5300 C   0  0  0  0  0  0  0  0  0  0  0  0
   28.5396  -20.8222  -17.5945 C   0  0  0  0  0  0  0  0  0  0  0  0
   29.7712  -21.4187  -16.9453 C   0  0  0  0  0  0  0  0  0  0  0  0
   29.8407  -22.9118  -17.2178 C   0  0  0  0  0  0  0  0  0  0  0  0
   31.1188  -23.4296  -16.7892 N   0  0  0  0  0  0  0  0  0  0  0  0
   26.0411  -19.1126  -17.6100 C   0  0  0  0  0  0  0  0  0  0  0  0
   25.6555  -18.7829  -16.4392 O   0  0  0  0  0  0  0  0  0  0  0  0
   25.1489  -19.9169  -18.3666 N   0  0  0  0  0  0  0  0  0  0  0  0
   23.8665  -20.3220  -17.7853 C   0  0  1  0  0  0  0  0  0  0  0  0
   22.8729  -19.2299  -18.1203 C   0  0  0  0  0  0  0  0  0  0  0  0
   22.1240  -18.7248  -16.9682 C   0  0  0  0  0  0  0  0  0  0  0  0
   22.2246  -19.2119  -15.6793 C   0  0  0  0  0  0  0  0  0  0  0  0
   21.3717  -18.4696  -14.9423 N   0  0  0  0  0  0  0  0  0  0  0  0
   20.7812  -17.5729  -15.7502 C   0  0  0  0  0  0  0  0  0  0  0  0
   21.2261  -17.7113  -16.9911 N   0  0  0  0  0  0  0  0  0  0  0  0
   23.3774  -21.5732  -18.4144 C   0  0  0  0  0  0  0  0  0  0  0  0
   24.0076  -22.1991  -19.4709 O   0  0  0  0  0  0  0  0  0  0  0  0
   22.3293  -22.0898  -17.9568 O   0  0  0  0  0  0  0  0  0  0  0  0
  1  2  1  0
  3  2  1  0
  3  4  1  6
  5  3  1  0
  6  5  2  0
  7  5  1  0
  8  7  1  0
  8  9  1  1
 10 11  1  0
 10  9  1  0
 11 12  1  0
 13 12  1  0
 14 16  1  0
 14  8  1  0
 15 14  2  0
 17 18  1  6
 17 16  1  0
 19 18  1  0
 19 23  1  0
 20 21  1  0
 20 19  2  0
 21 22  1  0
 22 23  2  0
 24 17  1  0
 25 24  1  0
 26 24  2  0
M  END
$$$$
