SKH.pdb
     RDKit          3D

 26 26  0  0  1  0  0  0  0  0999 V2000
   26.6583  -15.8487  -19.0746 O   0  0  0  0  0  0  0  0  0  0  0  0
   27.6935  -15.9474  -18.1532 C   0  0  0  0  0  0  0  0  0  0  0  0
   28.2441  -17.3689  -18.0696 C   0  0  2  0  0  0  0  0  0  0  0  0
   28.7569  -17.7574  -19.3501 N   0  0  0  0  0  0  0  0  0  0  0  0
   27.2030  -18.3247  -17.6167 C   0  0  0  0  0  0  0  0  0  0  0  0
   26.5918  -19.0188  -18.4685 O   0  0  0  0  0  0  0  0  0  0  0  0
   26.8613  -18.4939  -16.2541 N   0  0  0  0  0  0  0  0  0  0  0  0
   25.8158  -19.3879  -15.8047 C   0  0  1  0  0  0  0  0  0  0  0  0
   26.3105  -20.0850  -14.5717 C   0  0  0  0  0  0  0  0  0  0  0  0
   25.6467  -21.3877  -14.2981 C   0  0  0  0  0  0  0  0  0  0  0  0
   26.2595  -22.5346  -15.0749 C   0  0  0  0  0  0  0  0  0  0  0  0
   25.4420  -23.8003  -14.8800 C   0  0  0  0  0  0  0  0  0  0  0  0
   25.9839  -24.8642  -15.6923 N   0  0  0  0  0  0  0  0  0  0  0  0
   24.5853  -18.6319  -15.6149 C   0  0  0  0  0  0  0  0  0  0  0  0
   24.5492  -17.3668  -15.4524 O   0  0  0  0  0  0  0  0  0  0  0  0
   23.3364  -19.3068  -15.6044 N   0  0  0  0  0  0  0  0  0  0  0  0
   22.1018  -18.5453  -15.3986 C   0  0  1  0  0  0  0  0  0  0  0  0
   21.8419  -17.7835  -16.6809 C   0  0  0  0  0  0  0  0  0  0  0  0
   20.6005  -17.0075  -16.6778 C   0  0  0  0  0  0  0  0  0  0  0  0
   19.6919  -16.9658  -15.6379 C   0  0  0  0  0  0  0  0  0  0  0  0
   18.7065  -16.1401  -16.0489 N   0  0  0  0  0  0  0  0  0  0  0  0
   19.0061  -15.7018  -17.2832 C   0  0  0  0  0  0  0  0  0  0  0  0
   20.1581  -16.2190  -17.6861 N   0  0  0  0  0  0  0  0  0  0  0  0
   20.9521  -19.4579  -15.1854 C   0  0  0  0  0  0  0  0  0  0  0  0
   19.7074  -19.0392  -14.7605 O   0  0  0  0  0  0  0  0  0  0  0  0
   21.1248  -20.6814  -15.4050 O   0  0  0  0  0  0  0  0  0  0  0  0
  1  2  1  0
  3  2  1  0
  3  4  1  6
  5  3  1  0
  6  5  2  0
  7  5  1  0
  8  7  1  0
  8  9  1  1
 10 11  1  0
 10  9  1  0
 11 12  1  0
 13 12  1  0
 14 16  1  0
 14  8  1  0
 15 14  2  0
 17 18  1  6
 17 16  1  0
 19 18  1  0
 19 23  1  0
 20 21  1  0
 20 19  2  0
 21 22  1  0
 22 23  2  0
 24 17  1  0
 25 24  1  0
 26 24  2  0
M  END
$$$$
