SKH.pdb
     RDKit          3D

 26 26  0  0  1  0  0  0  0  0999 V2000
   27.8595  -33.7269   -4.5284 O   0  0  0  0  0  0  0  0  0  0  0  0
   27.3615  -34.2662   -5.7081 C   0  0  0  0  0  0  0  0  0  0  0  0
   28.4763  -34.8155   -6.5949 C   0  0  2  0  0  0  0  0  0  0  0  0
   27.9011  -35.4889   -7.7215 N   0  0  0  0  0  0  0  0  0  0  0  0
   29.3631  -35.7347   -5.8391 C   0  0  0  0  0  0  0  0  0  0  0  0
   28.9670  -36.9002   -5.5827 O   0  0  0  0  0  0  0  0  0  0  0  0
   30.6497  -35.3567   -5.3877 N   0  0  0  0  0  0  0  0  0  0  0  0
   31.5397  -36.2574   -4.6872 C   0  0  1  0  0  0  0  0  0  0  0  0
   32.9375  -35.9691   -5.1499 C   0  0  0  0  0  0  0  0  0  0  0  0
   33.2267  -36.4183   -6.5381 C   0  0  0  0  0  0  0  0  0  0  0  0
   34.6825  -36.2481   -6.9201 C   0  0  0  0  0  0  0  0  0  0  0  0
   34.9053  -36.6847   -8.3581 C   0  0  0  0  0  0  0  0  0  0  0  0
   36.3207  -36.7611   -8.6338 N   0  0  0  0  0  0  0  0  0  0  0  0
   31.3396  -36.1113   -3.2518 C   0  0  0  0  0  0  0  0  0  0  0  0
   30.7275  -35.1269   -2.7186 O   0  0  0  0  0  0  0  0  0  0  0  0
   31.8400  -37.1003   -2.3648 N   0  0  0  0  0  0  0  0  0  0  0  0
   31.5445  -37.0071   -0.9328 C   0  0  1  0  0  0  0  0  0  0  0  0
   30.0595  -37.2586   -0.7780 C   0  0  0  0  0  0  0  0  0  0  0  0
   29.5746  -37.1648    0.6002 C   0  0  0  0  0  0  0  0  0  0  0  0
   30.0673  -36.3007    1.5590 C   0  0  0  0  0  0  0  0  0  0  0  0
   29.3447  -36.5431    2.6728 N   0  0  0  0  0  0  0  0  0  0  0  0
   28.4541  -37.5114    2.3995 C   0  0  0  0  0  0  0  0  0  0  0  0
   28.5773  -37.9052    1.1398 N   0  0  0  0  0  0  0  0  0  0  0  0
   32.2540  -38.0706   -0.1806 C   0  0  0  0  0  0  0  0  0  0  0  0
   32.7061  -37.9239    1.1152 O   0  0  0  0  0  0  0  0  0  0  0  0
   32.4533  -39.1662   -0.7593 O   0  0  0  0  0  0  0  0  0  0  0  0
  1  2  1  0
  3  2  1  0
  3  4  1  6
  5  3  1  0
  6  5  2  0
  7  5  1  0
  8  7  1  0
  8  9  1  1
 10 11  1  0
 10  9  1  0
 11 12  1  0
 13 12  1  0
 14 16  1  0
 14  8  1  0
 15 14  2  0
 17 18  1  6
 17 16  1  0
 19 18  1  0
 19 23  1  0
 20 21  1  0
 20 19  2  0
 21 22  1  0
 22 23  2  0
 24 17  1  0
 25 24  1  0
 26 24  2  0
M  END
$$$$
