SKH.pdb
     RDKit          3D

 26 26  0  0  1  0  0  0  0  0999 V2000
   26.7531  -15.1025  -16.7694 O   0  0  0  0  0  0  0  0  0  0  0  0
   25.8144  -16.1150  -16.6146 C   0  0  0  0  0  0  0  0  0  0  0  0
   26.3213  -17.4464  -17.1636 C   0  0  2  0  0  0  0  0  0  0  0  0
   26.3711  -17.3840  -18.5944 N   0  0  0  0  0  0  0  0  0  0  0  0
   25.4619  -18.5735  -16.7237 C   0  0  0  0  0  0  0  0  0  0  0  0
   24.3623  -18.7710  -17.3005 O   0  0  0  0  0  0  0  0  0  0  0  0
   25.8261  -19.4475  -15.6722 N   0  0  0  0  0  0  0  0  0  0  0  0
   24.9296  -20.4411  -15.1216 C   0  0  1  0  0  0  0  0  0  0  0  0
   25.7477  -21.3798  -14.2845 C   0  0  0  0  0  0  0  0  0  0  0  0
   24.9725  -22.5001  -13.6875 C   0  0  0  0  0  0  0  0  0  0  0  0
   24.5218  -23.5170  -14.7156 C   0  0  0  0  0  0  0  0  0  0  0  0
   23.6271  -24.5606  -14.0686 C   0  0  0  0  0  0  0  0  0  0  0  0
   23.0672  -25.4231  -15.0825 N   0  0  0  0  0  0  0  0  0  0  0  0
   23.8558  -19.7724  -14.3996 C   0  0  0  0  0  0  0  0  0  0  0  0
   24.0491  -18.8648  -13.5238 O   0  0  0  0  0  0  0  0  0  0  0  0
   22.5050  -20.1240  -14.6584 N   0  0  0  0  0  0  0  0  0  0  0  0
   21.4267  -19.4418  -13.9382 C   0  0  1  0  0  0  0  0  0  0  0  0
   21.2675  -18.0806  -14.5815 C   0  0  0  0  0  0  0  0  0  0  0  0
   20.1380  -17.3025  -14.0696 C   0  0  0  0  0  0  0  0  0  0  0  0
   19.3058  -17.6935  -13.0385 C   0  0  0  0  0  0  0  0  0  0  0  0
   18.4114  -16.6931  -12.8936 N   0  0  0  0  0  0  0  0  0  0  0  0
   18.6906  -15.7389  -13.7975 C   0  0  0  0  0  0  0  0  0  0  0  0
   19.7409  -16.0907  -14.5257 N   0  0  0  0  0  0  0  0  0  0  0  0
   20.1428  -20.1647  -14.1088 C   0  0  0  0  0  0  0  0  0  0  0  0
   19.1096  -20.1217  -13.1946 O   0  0  0  0  0  0  0  0  0  0  0  0
   19.9906  -20.8548  -15.1459 O   0  0  0  0  0  0  0  0  0  0  0  0
  1  2  1  0
  3  2  1  0
  3  4  1  6
  5  3  1  0
  6  5  2  0
  7  5  1  0
  8  7  1  0
  8  9  1  1
 10 11  1  0
 10  9  1  0
 11 12  1  0
 13 12  1  0
 14 16  1  0
 14  8  1  0
 15 14  2  0
 17 18  1  6
 17 16  1  0
 19 18  1  0
 19 23  1  0
 20 21  1  0
 20 19  2  0
 21 22  1  0
 22 23  2  0
 24 17  1  0
 25 24  1  0
 26 24  2  0
M  END
$$$$
