DPG.pdb
     RDKit          3D

 20 20  0  0  1  0  0  0  0  0999 V2000
   17.9770  -12.4122  -15.3908 N   0  0  0  0  0  0  0  0  0  0  0  0
   18.4446  -11.4077  -16.3475 C   0  0  1  0  0  0  0  0  0  0  0  0
   17.2384  -10.5698  -16.7896 C   0  0  0  0  0  0  0  0  0  0  0  0
   16.2005  -11.3790  -17.4512 C   0  0  0  0  0  0  0  0  0  0  0  0
   16.5361  -12.2388  -18.2993 O   0  0  0  0  0  0  0  0  0  0  0  0
   19.4610  -10.5869  -15.6962 C   0  0  0  0  0  0  0  0  0  0  0  0
   19.2724  -10.3159  -14.4603 O   0  0  0  0  0  0  0  0  0  0  0  0
   14.8707  -11.2141  -17.1604 O   0  0  0  0  0  0  0  0  0  0  0  0
   20.6402  -10.0615  -16.2985 N   0  0  0  0  0  0  0  0  0  0  0  0
   20.9666  -10.3285  -17.7137 C   0  0  0  0  0  0  0  0  0  0  0  0
   22.4618  -10.5477  -17.6293 C   0  0  0  0  0  0  0  0  0  0  0  0
   22.8511   -9.3250  -16.7942 C   0  0  0  0  0  0  0  0  0  0  0  0
   21.6863   -9.2291  -15.8016 C   0  0  1  0  0  0  0  0  0  0  0  0
   21.3088   -7.7891  -15.7662 C   0  0  0  0  0  0  0  0  0  0  0  0
   20.5369   -7.3072  -16.6352 O   0  0  0  0  0  0  0  0  0  0  0  0
   21.7845   -6.8901  -14.7733 N   0  0  0  0  0  0  0  0  0  0  0  0
   21.2290   -5.5595  -14.6667 C   0  0  0  0  0  0  0  0  0  0  0  0
   21.7819   -4.7766  -13.5648 C   0  0  0  0  0  0  0  0  0  0  0  0
   21.8982   -3.5348  -13.7345 O   0  0  0  0  0  0  0  0  0  0  0  0
   22.1915   -5.2864  -12.3422 O   0  0  0  0  0  0  0  0  0  0  0  0
  2  1  1  1
  2  3  1  0
  3  4  1  0
  4  8  1  0
  5  4  2  0
  6  7  2  0
  6  2  1  0
  9  6  1  0
 10  9  1  0
 11 12  1  0
 11 10  1  0
 12 13  1  0
 13 14  1  6
 13  9  1  0
 14 15  2  0
 16 17  1  0
 16 14  1  0
 17 18  1  0
 18 20  1  0
 19 18  2  0
M  END
$$$$
