DPG.pdb
     RDKit          3D

 20 20  0  0  1  0  0  0  0  0999 V2000
   25.5188  -21.9666  -18.2357 N   0  0  0  0  0  0  0  0  0  0  0  0
   25.1576  -20.9575  -17.2386 C   0  0  1  0  0  0  0  0  0  0  0  0
   23.6279  -20.9110  -17.1372 C   0  0  0  0  0  0  0  0  0  0  0  0
   23.1530  -19.8333  -16.2523 C   0  0  0  0  0  0  0  0  0  0  0  0
   23.1233  -18.6545  -16.6772 O   0  0  0  0  0  0  0  0  0  0  0  0
   25.7708  -21.3250  -15.9658 C   0  0  0  0  0  0  0  0  0  0  0  0
   25.7398  -22.5649  -15.6524 O   0  0  0  0  0  0  0  0  0  0  0  0
   22.7408  -20.0896  -14.9699 O   0  0  0  0  0  0  0  0  0  0  0  0
   26.4009  -20.4423  -15.0422 N   0  0  0  0  0  0  0  0  0  0  0  0
   26.4218  -18.9825  -15.2639 C   0  0  0  0  0  0  0  0  0  0  0  0
   27.8279  -18.6424  -14.8190 C   0  0  0  0  0  0  0  0  0  0  0  0
   27.8578  -19.3858  -13.4809 C   0  0  0  0  0  0  0  0  0  0  0  0
   27.0757  -20.6642  -13.8054 C   0  0  1  0  0  0  0  0  0  0  0  0
   26.1383  -20.8597  -12.6650 C   0  0  0  0  0  0  0  0  0  0  0  0
   24.9729  -20.3872  -12.7049 O   0  0  0  0  0  0  0  0  0  0  0  0
   26.4919  -21.5747  -11.4885 N   0  0  0  0  0  0  0  0  0  0  0  0
   25.5320  -21.7434  -10.4205 C   0  0  0  0  0  0  0  0  0  0  0  0
   25.4977  -20.6287   -9.4775 C   0  0  0  0  0  0  0  0  0  0  0  0
   26.2647  -19.6555   -9.6990 O   0  0  0  0  0  0  0  0  0  0  0  0
   24.6887  -20.5502   -8.3542 O   0  0  0  0  0  0  0  0  0  0  0  0
  2  1  1  6
  2  3  1  0
  3  4  1  0
  4  8  1  0
  5  4  2  0
  6  7  2  0
  6  2  1  0
  9  6  1  0
 10  9  1  0
 11 12  1  0
 11 10  1  0
 12 13  1  0
 13 14  1  1
 13  9  1  0
 14 15  2  0
 16 17  1  0
 16 14  1  0
 17 18  1  0
 18 20  1  0
 19 18  2  0
M  END
$$$$
