DPG.pdb
     RDKit          3D

 20 20  0  0  1  0  0  0  0  0999 V2000
   19.2739  -14.3212  -16.2492 N   0  0  0  0  0  0  0  0  0  0  0  0
   19.7430  -13.2108  -17.0798 C   0  0  1  0  0  0  0  0  0  0  0  0
   18.5205  -12.5454  -17.7242 C   0  0  0  0  0  0  0  0  0  0  0  0
   17.7835  -13.4593  -18.6138 C   0  0  0  0  0  0  0  0  0  0  0  0
   18.3827  -14.0076  -19.5685 O   0  0  0  0  0  0  0  0  0  0  0  0
   20.4793  -12.2782  -16.2318 C   0  0  0  0  0  0  0  0  0  0  0  0
   19.9807  -12.0370  -15.0787 O   0  0  0  0  0  0  0  0  0  0  0  0
   16.4522  -13.7261  -18.4219 O   0  0  0  0  0  0  0  0  0  0  0  0
   21.6963  -11.6142  -16.5595 N   0  0  0  0  0  0  0  0  0  0  0  0
   22.3739  -11.8416  -17.8516 C   0  0  0  0  0  0  0  0  0  0  0  0
   23.8229  -11.8771  -17.4161 C   0  0  0  0  0  0  0  0  0  0  0  0
   23.8591  -10.6148  -16.5504 C   0  0  0  0  0  0  0  0  0  0  0  0
   22.4914  -10.6598  -15.8585 C   0  0  1  0  0  0  0  0  0  0  0  0
   21.9489   -9.2764  -15.9548 C   0  0  0  0  0  0  0  0  0  0  0  0
   21.0871   -8.9849  -16.8240 O   0  0  0  0  0  0  0  0  0  0  0  0
   22.3600   -8.2239  -15.0925 N   0  0  0  0  0  0  0  0  0  0  0  0
   21.6883   -8.0099  -13.8301 C   0  0  0  0  0  0  0  0  0  0  0  0
   20.7437   -6.8962  -13.8466 C   0  0  0  0  0  0  0  0  0  0  0  0
   21.2034   -5.7406  -13.6522 O   0  0  0  0  0  0  0  0  0  0  0  0
   19.3778   -7.0032  -14.0591 O   0  0  0  0  0  0  0  0  0  0  0  0
  2  1  1  1
  2  3  1  0
  3  4  1  0
  4  8  1  0
  5  4  2  0
  6  7  2  0
  6  2  1  0
  9  6  1  0
 10  9  1  0
 11 12  1  0
 11 10  1  0
 12 13  1  0
 13 14  1  6
 13  9  1  0
 14 15  2  0
 16 17  1  0
 16 14  1  0
 17 18  1  0
 18 20  1  0
 19 18  2  0
M  END
$$$$
