DPG.pdb
     RDKit          3D

 20 20  0  0  1  0  0  0  0  0999 V2000
   25.5544  -20.6543  -17.6298 N   0  0  0  0  0  0  0  0  0  0  0  0
   26.1697  -19.7405  -16.6657 C   0  0  1  0  0  0  0  0  0  0  0  0
   25.3883  -18.4210  -16.6910 C   0  0  0  0  0  0  0  0  0  0  0  0
   25.5201  -17.7111  -17.9749 C   0  0  0  0  0  0  0  0  0  0  0  0
   24.5121  -17.5658  -18.7057 O   0  0  0  0  0  0  0  0  0  0  0  0
   26.1299  -20.3648  -15.3467 C   0  0  0  0  0  0  0  0  0  0  0  0
   25.1085  -21.0899  -15.0872 O   0  0  0  0  0  0  0  0  0  0  0  0
   26.7235  -17.2030  -18.3918 O   0  0  0  0  0  0  0  0  0  0  0  0
   27.1147  -20.2489  -14.3239 N   0  0  0  0  0  0  0  0  0  0  0  0
   28.3132  -19.4046  -14.5011 C   0  0  0  0  0  0  0  0  0  0  0  0
   29.3761  -20.2738  -13.8643 C   0  0  0  0  0  0  0  0  0  0  0  0
   28.6653  -20.6261  -12.5548 C   0  0  0  0  0  0  0  0  0  0  0  0
   27.2138  -20.8066  -13.0150 C   0  0  1  0  0  0  0  0  0  0  0  0
   26.3840  -20.0795  -12.0149 C   0  0  0  0  0  0  0  0  0  0  0  0
   26.1401  -18.8531  -12.1545 O   0  0  0  0  0  0  0  0  0  0  0  0
   25.8287  -20.7092  -10.8679 N   0  0  0  0  0  0  0  0  0  0  0  0
   24.4716  -20.4201  -10.4615 C   0  0  0  0  0  0  0  0  0  0  0  0
   24.0635  -21.1072   -9.2391 C   0  0  0  0  0  0  0  0  0  0  0  0
   24.8388  -21.9857   -8.7790 O   0  0  0  0  0  0  0  0  0  0  0  0
   22.8899  -20.8736   -8.5388 O   0  0  0  0  0  0  0  0  0  0  0  0
  2  1  1  6
  2  3  1  0
  3  4  1  0
  4  8  1  0
  5  4  2  0
  6  7  2  0
  6  2  1  0
  9  6  1  0
 10  9  1  0
 11 12  1  0
 11 10  1  0
 12 13  1  0
 13 14  1  1
 13  9  1  0
 14 15  2  0
 16 17  1  0
 16 14  1  0
 17 18  1  0
 18 20  1  0
 19 18  2  0
M  END
$$$$
