DPG.pdb
     RDKit          3D

 20 20  0  0  1  0  0  0  0  0999 V2000
   24.7733  -21.8225  -14.0598 N   0  0  0  0  0  0  0  0  0  0  0  0
   24.0532  -20.8746  -13.2078 C   0  0  1  0  0  0  0  0  0  0  0  0
   22.8850  -20.2964  -14.0161 C   0  0  0  0  0  0  0  0  0  0  0  0
   23.3318  -19.5957  -15.2323 C   0  0  0  0  0  0  0  0  0  0  0  0
   24.0299  -18.5601  -15.1262 O   0  0  0  0  0  0  0  0  0  0  0  0
   23.5874  -21.5828  -12.0192 C   0  0  0  0  0  0  0  0  0  0  0  0
   23.0346  -22.7204  -12.2107 O   0  0  0  0  0  0  0  0  0  0  0  0
   23.0013  -20.0507  -16.4829 O   0  0  0  0  0  0  0  0  0  0  0  0
   23.6900  -21.1348  -10.6709 N   0  0  0  0  0  0  0  0  0  0  0  0
   24.3379  -19.8516  -10.3330 C   0  0  0  0  0  0  0  0  0  0  0  0
   25.0966  -20.2318   -9.0798 C   0  0  0  0  0  0  0  0  0  0  0  0
   23.9800  -20.9462   -8.3136 C   0  0  0  0  0  0  0  0  0  0  0  0
   23.2460  -21.6912   -9.4349 C   0  0  1  0  0  0  0  0  0  0  0  0
   21.7962  -21.4592   -9.1867 C   0  0  0  0  0  0  0  0  0  0  0  0
   21.1627  -20.5963   -9.8479 O   0  0  0  0  0  0  0  0  0  0  0  0
   21.0546  -22.1799   -8.2115 N   0  0  0  0  0  0  0  0  0  0  0  0
   19.8681  -22.9134   -8.5919 C   0  0  0  0  0  0  0  0  0  0  0  0
   19.2263  -23.6125   -7.4817 C   0  0  0  0  0  0  0  0  0  0  0  0
   19.9082  -24.4703   -6.8624 O   0  0  0  0  0  0  0  0  0  0  0  0
   17.9244  -23.4111   -7.0495 O   0  0  0  0  0  0  0  0  0  0  0  0
  2  1  1  6
  2  3  1  0
  3  4  1  0
  4  8  1  0
  5  4  2  0
  6  7  2  0
  6  2  1  0
  9  6  1  0
 10  9  1  0
 11 12  1  0
 11 10  1  0
 12 13  1  0
 13 14  1  1
 13  9  1  0
 14 15  2  0
 16 17  1  0
 16 14  1  0
 17 18  1  0
 18 20  1  0
 19 18  2  0
M  END
$$$$
