DPG.pdb
     RDKit          3D

 20 20  0  0  1  0  0  0  0  0999 V2000
   27.5668  -20.9758  -17.3462 N   0  0  0  0  0  0  0  0  0  0  0  0
   27.5449  -20.1367  -16.1468 C   0  0  1  0  0  0  0  0  0  0  0  0
   26.8316  -18.8241  -16.4940 C   0  0  0  0  0  0  0  0  0  0  0  0
   27.5410  -18.0525  -17.5290 C   0  0  0  0  0  0  0  0  0  0  0  0
   26.9096  -17.6342  -18.5278 O   0  0  0  0  0  0  0  0  0  0  0  0
   26.8511  -20.8628  -15.0873 C   0  0  0  0  0  0  0  0  0  0  0  0
   25.8847  -21.6187  -15.4495 O   0  0  0  0  0  0  0  0  0  0  0  0
   28.8807  -17.7793  -17.4259 O   0  0  0  0  0  0  0  0  0  0  0  0
   27.1447  -20.8150  -13.6942 N   0  0  0  0  0  0  0  0  0  0  0  0
   28.3019  -20.0576  -13.1767 C   0  0  0  0  0  0  0  0  0  0  0  0
   28.8074  -20.9987  -12.1045 C   0  0  0  0  0  0  0  0  0  0  0  0
   27.4886  -21.2978  -11.3866 C   0  0  0  0  0  0  0  0  0  0  0  0
   26.4974  -21.3763  -12.5539 C   0  0  1  0  0  0  0  0  0  0  0  0
   25.3083  -20.5909  -12.1221 C   0  0  0  0  0  0  0  0  0  0  0  0
   25.2904  -19.3382  -12.2390 O   0  0  0  0  0  0  0  0  0  0  0  0
   24.1471  -21.1915  -11.5643 N   0  0  0  0  0  0  0  0  0  0  0  0
   23.2333  -21.9328  -12.4046 C   0  0  0  0  0  0  0  0  0  0  0  0
   21.9704  -21.2430  -12.6537 C   0  0  0  0  0  0  0  0  0  0  0  0
   21.3938  -20.7113  -11.6692 O   0  0  0  0  0  0  0  0  0  0  0  0
   21.3493  -21.1230  -13.8875 O   0  0  0  0  0  0  0  0  0  0  0  0
  2  1  1  6
  2  3  1  0
  3  4  1  0
  4  8  1  0
  5  4  2  0
  6  7  2  0
  6  2  1  0
  9  6  1  0
 10  9  1  0
 11 12  1  0
 11 10  1  0
 12 13  1  0
 13 14  1  1
 13  9  1  0
 14 15  2  0
 16 17  1  0
 16 14  1  0
 17 18  1  0
 18 20  1  0
 19 18  2  0
M  END
$$$$
