DPG.pdb
     RDKit          3D

 20 20  0  0  1  0  0  0  0  0999 V2000
   24.7160  -21.4960  -11.6153 N   0  0  0  0  0  0  0  0  0  0  0  0
   25.1541  -21.3074  -12.9993 C   0  0  1  0  0  0  0  0  0  0  0  0
   24.1017  -21.9321  -13.9238 C   0  0  0  0  0  0  0  0  0  0  0  0
   23.9675  -23.3856  -13.7259 C   0  0  0  0  0  0  0  0  0  0  0  0
   22.8757  -23.8558  -13.3284 O   0  0  0  0  0  0  0  0  0  0  0  0
   25.3057  -19.8764  -13.2453 C   0  0  0  0  0  0  0  0  0  0  0  0
   24.4938  -19.1011  -12.6320 O   0  0  0  0  0  0  0  0  0  0  0  0
   25.0122  -24.2403  -13.9671 O   0  0  0  0  0  0  0  0  0  0  0  0
   26.2675  -19.2598  -14.0961 N   0  0  0  0  0  0  0  0  0  0  0  0
   27.2406  -20.0605  -14.8657 C   0  0  0  0  0  0  0  0  0  0  0  0
   28.4887  -19.2167  -14.7205 C   0  0  0  0  0  0  0  0  0  0  0  0
   27.9117  -17.8454  -15.0821 C   0  0  0  0  0  0  0  0  0  0  0  0
   26.5255  -17.8970  -14.4288 C   0  0  1  0  0  0  0  0  0  0  0  0
   25.5819  -17.3652  -15.4507 C   0  0  0  0  0  0  0  0  0  0  0  0
   25.0501  -18.1332  -16.2935 O   0  0  0  0  0  0  0  0  0  0  0  0
   25.2310  -15.9905  -15.5365 N   0  0  0  0  0  0  0  0  0  0  0  0
   24.1081  -15.5728  -16.3459 C   0  0  0  0  0  0  0  0  0  0  0  0
   23.8070  -14.1473  -16.2454 C   0  0  0  0  0  0  0  0  0  0  0  0
   23.7886  -13.6363  -15.0952 O   0  0  0  0  0  0  0  0  0  0  0  0
   23.5387  -13.3047  -17.3133 O   0  0  0  0  0  0  0  0  0  0  0  0
  2  1  1  1
  2  3  1  0
  3  4  1  0
  4  8  1  0
  5  4  2  0
  6  7  2  0
  6  2  1  0
  9  6  1  0
 10  9  1  0
 11 12  1  0
 11 10  1  0
 12 13  1  0
 13 14  1  6
 13  9  1  0
 14 15  2  0
 16 17  1  0
 16 14  1  0
 17 18  1  0
 18 20  1  0
 19 18  2  0
M  END
$$$$
