DPG.pdb
     RDKit          3D

 20 20  0  0  1  0  0  0  0  0999 V2000
   17.6227  -12.3797  -15.2094 N   0  0  0  0  0  0  0  0  0  0  0  0
   18.1243  -11.3414  -16.1112 C   0  0  1  0  0  0  0  0  0  0  0  0
   16.9258  -10.5343  -16.6255 C   0  0  0  0  0  0  0  0  0  0  0  0
   16.0513  -11.3233  -17.5101 C   0  0  0  0  0  0  0  0  0  0  0  0
   14.8485  -11.4905  -17.1992 O   0  0  0  0  0  0  0  0  0  0  0  0
   19.0623  -10.5013  -15.3726 C   0  0  0  0  0  0  0  0  0  0  0  0
   18.7041  -10.1381  -14.1995 O   0  0  0  0  0  0  0  0  0  0  0  0
   16.5228  -11.8815  -18.6704 O   0  0  0  0  0  0  0  0  0  0  0  0
   20.3347  -10.0498  -15.8268 N   0  0  0  0  0  0  0  0  0  0  0  0
   20.8115  -10.3391  -17.1941 C   0  0  0  0  0  0  0  0  0  0  0  0
   22.2698  -10.6483  -16.9325 C   0  0  0  0  0  0  0  0  0  0  0  0
   22.6295   -9.4497  -16.0506 C   0  0  0  0  0  0  0  0  0  0  0  0
   21.3622   -9.2812  -15.2040 C   0  0  1  0  0  0  0  0  0  0  0  0
   21.0709   -7.8209  -15.2066 C   0  0  0  0  0  0  0  0  0  0  0  0
   20.3011   -7.3224  -16.0680 O   0  0  0  0  0  0  0  0  0  0  0  0
   21.6300   -6.9201  -14.2599 N   0  0  0  0  0  0  0  0  0  0  0  0
   21.2794   -5.5178  -14.2910 C   0  0  0  0  0  0  0  0  0  0  0  0
   21.8883   -4.7341  -13.2196 C   0  0  0  0  0  0  0  0  0  0  0  0
   21.7545   -3.4834  -13.2654 O   0  0  0  0  0  0  0  0  0  0  0  0
   22.6044   -5.2523  -12.1513 O   0  0  0  0  0  0  0  0  0  0  0  0
  2  1  1  1
  2  3  1  0
  3  4  1  0
  4  8  1  0
  5  4  2  0
  6  7  2  0
  6  2  1  0
  9  6  1  0
 10  9  1  0
 11 12  1  0
 11 10  1  0
 12 13  1  0
 13 14  1  6
 13  9  1  0
 14 15  2  0
 16 17  1  0
 16 14  1  0
 17 18  1  0
 18 20  1  0
 19 18  2  0
M  END
$$$$
