FAM.pdb
     RDKit          3D

 25 25  0  0  1  0  0  0  0  0999 V2000
   30.5258  -21.4635  -14.0385 N   0  0  0  0  0  0  0  0  0  0  0  0
   29.5305  -21.3753  -12.9898 C   0  0  1  0  0  0  0  0  0  0  0  0
   30.0671  -20.6495  -11.7903 C   0  0  0  0  0  0  0  0  0  0  0  0
   31.0779  -21.5062  -11.1186 C   0  0  0  0  0  0  0  0  0  0  0  0
   30.6387  -22.4125  -10.1752 C   0  0  0  0  0  0  0  0  0  0  0  0
   31.5904  -23.2176   -9.5436 C   0  0  0  0  0  0  0  0  0  0  0  0
   32.9253  -23.0972   -9.8655 C   0  0  0  0  0  0  0  0  0  0  0  0
   33.3439  -22.1831  -10.8132 C   0  0  0  0  0  0  0  0  0  0  0  0
   32.4137  -21.3824  -11.4438 C   0  0  0  0  0  0  0  0  0  0  0  0
   28.2524  -20.8178  -13.4809 C   0  0  0  0  0  0  0  0  0  0  0  0
   28.1990  -19.5935  -13.7804 O   0  0  0  0  0  0  0  0  0  0  0  0
   24.7663  -21.7882  -14.1832 C   0  0  0  0  0  0  0  0  0  0  0  0
   25.7591  -21.1046  -13.2580 C   0  0  2  0  0  0  0  0  0  0  0  0
   27.0743  -21.5942  -13.6341 N   0  0  0  0  0  0  0  0  0  0  0  0
   25.3973  -21.4639  -11.8809 C   0  0  0  0  0  0  0  0  0  0  0  0
   25.7298  -22.5879  -11.3693 O   0  0  0  0  0  0  0  0  0  0  0  0
   27.5283  -19.4515   -6.4233 C   0  0  0  0  0  0  0  0  0  0  0  0
   25.7755  -19.3111   -6.1649 S   0  0  0  0  0  0  0  0  0  0  0  0
   24.7720  -20.2111   -7.3254 C   0  0  0  0  0  0  0  0  0  0  0  0
   25.1156  -20.0783   -8.7575 C   0  0  0  0  0  0  0  0  0  0  0  0
   24.2562  -20.7736   -9.7429 C   0  0  2  0  0  0  0  0  0  0  0  0
   24.6571  -20.5275  -11.1070 N   0  0  0  0  0  0  0  0  0  0  0  0
   22.8074  -20.5980   -9.5203 C   0  0  0  0  0  0  0  0  0  0  0  0
   22.0450  -19.9372  -10.2706 O   0  0  0  0  0  0  0  0  0  0  0  0
   22.2171  -21.1918   -8.4144 O   0  0  0  0  0  0  0  0  0  0  0  0
  2  1  1  6
  2 10  1  0
  3  2  1  0
  3  4  1  0
  4  9  2  0
  4  5  1  0
  5  6  2  0
  6  7  1  0
  8  7  2  0
  9  8  1  0
 10 14  1  0
 10 11  2  0
 13 12  1  6
 13 15  1  0
 14 13  1  0
 15 16  2  0
 18 17  1  0
 19 18  1  0
 20 19  1  0
 21 20  1  1
 21 23  1  0
 22 21  1  0
 22 15  1  0
 23 25  1  0
 24 23  2  0
M  END
$$$$
