FAM.pdb
     RDKit          3D

 25 25  0  0  1  0  0  0  0  0999 V2000
   23.7603  -19.4686  -18.1376 N   0  0  0  0  0  0  0  0  0  0  0  0
   24.4360  -18.6157  -17.1815 C   0  0  1  0  0  0  0  0  0  0  0  0
   23.5287  -17.5263  -16.6881 C   0  0  0  0  0  0  0  0  0  0  0  0
   23.1966  -16.6235  -17.8201 C   0  0  0  0  0  0  0  0  0  0  0  0
   24.1454  -15.7043  -18.2190 C   0  0  0  0  0  0  0  0  0  0  0  0
   23.8320  -14.8553  -19.2837 C   0  0  0  0  0  0  0  0  0  0  0  0
   22.6056  -14.9466  -19.9066 C   0  0  0  0  0  0  0  0  0  0  0  0
   21.6696  -15.8741  -19.4914 C   0  0  0  0  0  0  0  0  0  0  0  0
   21.9674  -16.7181  -18.4411 C   0  0  0  0  0  0  0  0  0  0  0  0
   25.0596  -19.3906  -16.0877 C   0  0  0  0  0  0  0  0  0  0  0  0
   24.3476  -20.2041  -15.4374 O   0  0  0  0  0  0  0  0  0  0  0  0
   28.4652  -19.5436  -14.5312 C   0  0  0  0  0  0  0  0  0  0  0  0
   27.0035  -19.9554  -14.5876 C   0  0  2  0  0  0  0  0  0  0  0  0
   26.4270  -19.2660  -15.7293 N   0  0  0  0  0  0  0  0  0  0  0  0
   26.3842  -19.5563  -13.3174 C   0  0  0  0  0  0  0  0  0  0  0  0
   25.8545  -18.4027  -13.1603 O   0  0  0  0  0  0  0  0  0  0  0  0
   21.0735  -19.5932  -12.6448 C   0  0  0  0  0  0  0  0  0  0  0  0
   21.3353  -20.1491  -10.9771 S   0  0  0  0  0  0  0  0  0  0  0  0
   23.0374  -20.2058  -10.4640 C   0  0  0  0  0  0  0  0  0  0  0  0
   24.0572  -20.3333  -11.5272 C   0  0  0  0  0  0  0  0  0  0  0  0
   25.4795  -20.3913  -11.1188 C   0  0  2  0  0  0  0  0  0  0  0  0
   26.3806  -20.4870  -12.2416 N   0  0  0  0  0  0  0  0  0  0  0  0
   25.7690  -21.3715  -10.0536 C   0  0  0  0  0  0  0  0  0  0  0  0
   25.7164  -21.1236   -8.8221 O   0  0  0  0  0  0  0  0  0  0  0  0
   26.1269  -22.6649  -10.4050 O   0  0  0  0  0  0  0  0  0  0  0  0
  2  1  1  6
  2 10  1  0
  3  2  1  0
  3  4  1  0
  4  9  2  0
  4  5  1  0
  5  6  2  0
  6  7  1  0
  8  7  2  0
  9  8  1  0
 10 14  1  0
 10 11  2  0
 13 12  1  1
 13 15  1  0
 14 13  1  0
 15 16  2  0
 18 17  1  0
 19 18  1  0
 20 19  1  0
 21 20  1  6
 21 23  1  0
 22 21  1  0
 22 15  1  0
 23 25  1  0
 24 23  2  0
M  END
$$$$
