FAM.pdb
     RDKit          3D

 25 25  0  0  1  0  0  0  0  0999 V2000
   13.0728  -11.4808  -13.7505 N   0  0  0  0  0  0  0  0  0  0  0  0
   13.4668  -10.0869  -13.7501 C   0  0  1  0  0  0  0  0  0  0  0  0
   13.5877   -9.5562  -12.3511 C   0  0  0  0  0  0  0  0  0  0  0  0
   12.2410   -9.5329  -11.7243 C   0  0  0  0  0  0  0  0  0  0  0  0
   11.3912   -8.4948  -12.0473 C   0  0  0  0  0  0  0  0  0  0  0  0
   10.1248   -8.4735  -11.4570 C   0  0  0  0  0  0  0  0  0  0  0  0
    9.7511   -9.4688  -10.5795 C   0  0  0  0  0  0  0  0  0  0  0  0
   10.6174  -10.4995  -10.2697 C   0  0  0  0  0  0  0  0  0  0  0  0
   11.8707  -10.5315  -10.8462 C   0  0  0  0  0  0  0  0  0  0  0  0
   14.6763   -9.8502  -14.5665 C   0  0  0  0  0  0  0  0  0  0  0  0
   15.6165  -10.6899  -14.5167 O   0  0  0  0  0  0  0  0  0  0  0  0
   15.7269   -7.3394  -17.1318 C   0  0  0  0  0  0  0  0  0  0  0  0
   16.0438   -8.4808  -16.1800 C   0  0  2  0  0  0  0  0  0  0  0  0
   14.8354   -8.7195  -15.4093 N   0  0  0  0  0  0  0  0  0  0  0  0
   17.1714   -8.0547  -15.3414 C   0  0  0  0  0  0  0  0  0  0  0  0
   16.9962   -7.3693  -14.2759 O   0  0  0  0  0  0  0  0  0  0  0  0
   24.6686   -9.9088  -13.4588 C   0  0  0  0  0  0  0  0  0  0  0  0
   23.2794  -10.0961  -14.5515 S   0  0  0  0  0  0  0  0  0  0  0  0
   21.9708   -8.9160  -14.3098 C   0  0  0  0  0  0  0  0  0  0  0  0
   20.7426   -9.0988  -15.1129 C   0  0  0  0  0  0  0  0  0  0  0  0
   19.6624   -8.0969  -14.9635 C   0  0  2  0  0  0  0  0  0  0  0  0
   18.4880   -8.4208  -15.7366 N   0  0  0  0  0  0  0  0  0  0  0  0
   20.1013   -6.6971  -15.1287 C   0  0  0  0  0  0  0  0  0  0  0  0
   20.1195   -6.0794  -16.2237 O   0  0  0  0  0  0  0  0  0  0  0  0
   20.5292   -5.9876  -14.0162 O   0  0  0  0  0  0  0  0  0  0  0  0
  2  1  1  1
  2 10  1  0
  3  2  1  0
  3  4  1  0
  4  9  2  0
  4  5  1  0
  5  6  2  0
  6  7  1  0
  8  7  2  0
  9  8  1  0
 10 14  1  0
 10 11  2  0
 13 12  1  6
 13 15  1  0
 14 13  1  0
 15 16  2  0
 18 17  1  0
 19 18  1  0
 20 19  1  0
 21 20  1  6
 21 23  1  0
 22 21  1  0
 22 15  1  0
 23 25  1  0
 24 23  2  0
M  END
$$$$
