FAM.pdb
     RDKit          3D

 25 25  0  0  1  0  0  0  0  0999 V2000
   22.2361  -13.2999  -18.3606 N   0  0  0  0  0  0  0  0  0  0  0  0
   21.0109  -12.5665  -18.1176 C   0  0  1  0  0  0  0  0  0  0  0  0
   20.0937  -13.3269  -17.2044 C   0  0  0  0  0  0  0  0  0  0  0  0
   19.6571  -14.5730  -17.8853 C   0  0  0  0  0  0  0  0  0  0  0  0
   20.2517  -15.7609  -17.5117 C   0  0  0  0  0  0  0  0  0  0  0  0
   19.8405  -16.9324  -18.1529 C   0  0  0  0  0  0  0  0  0  0  0  0
   18.8677  -16.8851  -19.1284 C   0  0  0  0  0  0  0  0  0  0  0  0
   18.2851  -15.6850  -19.4876 C   0  0  0  0  0  0  0  0  0  0  0  0
   18.6826  -14.5212  -18.8617 C   0  0  0  0  0  0  0  0  0  0  0  0
   21.2708  -11.1851  -17.6594 C   0  0  0  0  0  0  0  0  0  0  0  0
   22.0954  -11.0011  -16.7226 O   0  0  0  0  0  0  0  0  0  0  0  0
   20.0817   -7.7727  -18.6509 C   0  0  0  0  0  0  0  0  0  0  0  0
   20.9052   -8.6945  -17.7671 C   0  0  2  0  0  0  0  0  0  0  0  0
   20.6363  -10.0477  -18.2229 N   0  0  0  0  0  0  0  0  0  0  0  0
   20.4777   -8.4724  -16.3799 C   0  0  0  0  0  0  0  0  0  0  0  0
   19.4696   -9.0811  -15.8808 O   0  0  0  0  0  0  0  0  0  0  0  0
   23.1937  -10.2122  -11.1415 C   0  0  0  0  0  0  0  0  0  0  0  0
   22.7068   -8.5628  -10.6930 S   0  0  0  0  0  0  0  0  0  0  0  0
   21.5582   -7.7901  -11.8099 C   0  0  0  0  0  0  0  0  0  0  0  0
   21.8468   -7.9014  -13.2558 C   0  0  0  0  0  0  0  0  0  0  0  0
   20.8947   -7.2757  -14.2019 C   0  0  2  0  0  0  0  0  0  0  0  0
   21.2132   -7.5529  -15.5816 N   0  0  0  0  0  0  0  0  0  0  0  0
   20.6250   -5.8479  -13.9413 C   0  0  0  0  0  0  0  0  0  0  0  0
   21.2154   -4.8947  -14.5102 O   0  0  0  0  0  0  0  0  0  0  0  0
   19.6580   -5.5023  -13.0088 O   0  0  0  0  0  0  0  0  0  0  0  0
  2  1  1  1
  2 10  1  0
  3  2  1  0
  3  4  1  0
  4  9  2  0
  4  5  1  0
  5  6  2  0
  6  7  1  0
  8  7  2  0
  9  8  1  0
 10 14  1  0
 10 11  2  0
 13 12  1  6
 13 15  1  0
 14 13  1  0
 15 16  2  0
 18 17  1  0
 19 18  1  0
 20 19  1  0
 21 20  1  1
 21 23  1  0
 22 21  1  0
 22 15  1  0
 23 25  1  0
 24 23  2  0
M  END
$$$$
