FAM.pdb
     RDKit          3D

 25 25  0  0  1  0  0  0  0  0999 V2000
   23.5934  -19.8330  -16.9900 N   0  0  0  0  0  0  0  0  0  0  0  0
   24.0156  -19.1992  -15.7579 C   0  0  1  0  0  0  0  0  0  0  0  0
   22.8706  -18.4978  -15.0868 C   0  0  0  0  0  0  0  0  0  0  0  0
   22.1783  -17.6398  -16.0825 C   0  0  0  0  0  0  0  0  0  0  0  0
   20.8661  -17.9327  -16.3930 C   0  0  0  0  0  0  0  0  0  0  0  0
   20.2159  -17.1252  -17.3300 C   0  0  0  0  0  0  0  0  0  0  0  0
   20.8808  -16.0704  -17.9177 C   0  0  0  0  0  0  0  0  0  0  0  0
   22.1949  -15.7943  -17.5926 C   0  0  0  0  0  0  0  0  0  0  0  0
   22.8478  -16.5844  -16.6687 C   0  0  0  0  0  0  0  0  0  0  0  0
   24.7245  -20.1388  -14.8633 C   0  0  0  0  0  0  0  0  0  0  0  0
   24.0555  -21.0149  -14.2498 O   0  0  0  0  0  0  0  0  0  0  0  0
   28.2384  -21.1172  -14.2206 C   0  0  0  0  0  0  0  0  0  0  0  0
   26.8052  -20.9965  -13.7304 C   0  0  2  0  0  0  0  0  0  0  0  0
   26.1283  -20.1060  -14.6577 N   0  0  0  0  0  0  0  0  0  0  0  0
   26.8507  -20.4584  -12.3648 C   0  0  0  0  0  0  0  0  0  0  0  0
   27.3779  -19.3221  -12.1066 O   0  0  0  0  0  0  0  0  0  0  0  0
   27.7995  -18.8699   -5.7349 C   0  0  0  0  0  0  0  0  0  0  0  0
   27.6057  -19.6114   -7.3385 S   0  0  0  0  0  0  0  0  0  0  0  0
   26.4379  -18.7973   -8.4049 C   0  0  0  0  0  0  0  0  0  0  0  0
   26.2720  -19.3486   -9.7669 C   0  0  0  0  0  0  0  0  0  0  0  0
   26.3183  -20.8200   -9.9286 C   0  0  2  0  0  0  0  0  0  0  0  0
   26.2900  -21.2321  -11.3110 N   0  0  0  0  0  0  0  0  0  0  0  0
   25.3611  -21.5574   -9.0805 C   0  0  0  0  0  0  0  0  0  0  0  0
   24.1136  -21.5477   -9.2379 O   0  0  0  0  0  0  0  0  0  0  0  0
   25.8414  -22.3234   -8.0285 O   0  0  0  0  0  0  0  0  0  0  0  0
  2  1  1  6
  2 10  1  0
  3  2  1  0
  3  4  1  0
  4  9  2  0
  4  5  1  0
  5  6  2  0
  6  7  1  0
  8  7  2  0
  9  8  1  0
 10 14  1  0
 10 11  2  0
 13 12  1  6
 13 15  1  0
 14 13  1  0
 15 16  2  0
 18 17  1  0
 19 18  1  0
 20 19  1  0
 21 20  1  6
 21 23  1  0
 22 21  1  0
 22 15  1  0
 23 25  1  0
 24 23  2  0
M  END
$$$$
