FAM.pdb
     RDKit          3D

 25 25  0  0  1  0  0  0  0  0999 V2000
   23.9165   -9.6097  -18.1069 N   0  0  0  0  0  0  0  0  0  0  0  0
   23.4724   -8.9456  -16.8987 C   0  0  1  0  0  0  0  0  0  0  0  0
   24.5654   -8.1030  -16.3079 C   0  0  0  0  0  0  0  0  0  0  0  0
   25.7754   -8.9437  -16.1182 C   0  0  0  0  0  0  0  0  0  0  0  0
   25.7415   -9.9226  -15.1463 C   0  0  0  0  0  0  0  0  0  0  0  0
   26.8803  -10.7126  -14.9684 C   0  0  0  0  0  0  0  0  0  0  0  0
   27.9970  -10.5068  -15.7499 C   0  0  0  0  0  0  0  0  0  0  0  0
   28.0101   -9.5209  -16.7177 C   0  0  0  0  0  0  0  0  0  0  0  0
   26.8916   -8.7343  -16.9030 C   0  0  0  0  0  0  0  0  0  0  0  0
   22.2125   -8.2000  -17.1044 C   0  0  0  0  0  0  0  0  0  0  0  0
   22.0925   -7.4834  -18.1358 O   0  0  0  0  0  0  0  0  0  0  0  0
   18.9675   -7.8642  -15.2635 C   0  0  0  0  0  0  0  0  0  0  0  0
   19.9314   -7.4346  -16.3568 C   0  0  2  0  0  0  0  0  0  0  0  0
   21.1237   -8.2491  -16.1956 N   0  0  0  0  0  0  0  0  0  0  0  0
   20.1984   -6.0026  -16.1709 C   0  0  0  0  0  0  0  0  0  0  0  0
   21.2952   -5.5829  -15.6644 O   0  0  0  0  0  0  0  0  0  0  0  0
   22.7847    0.1506  -18.9266 C   0  0  0  0  0  0  0  0  0  0  0  0
   22.3974   -1.5745  -18.7454 S   0  0  0  0  0  0  0  0  0  0  0  0
   20.9655   -1.9211  -17.7488 C   0  0  0  0  0  0  0  0  0  0  0  0
   20.6482   -3.3433  -17.4978 C   0  0  0  0  0  0  0  0  0  0  0  0
   19.4497   -3.6521  -16.6845 C   0  0  2  0  0  0  0  0  0  0  0  0
   19.2018   -5.0688  -16.5689 N   0  0  0  0  0  0  0  0  0  0  0  0
   18.2474   -2.8779  -17.0513 C   0  0  0  0  0  0  0  0  0  0  0  0
   17.3234   -3.3023  -17.7909 O   0  0  0  0  0  0  0  0  0  0  0  0
   18.0986   -1.5888  -16.5611 O   0  0  0  0  0  0  0  0  0  0  0  0
  2  1  1  6
  2 10  1  0
  3  2  1  0
  3  4  1  0
  4  9  2  0
  4  5  1  0
  5  6  2  0
  6  7  1  0
  8  7  2  0
  9  8  1  0
 10 14  1  0
 10 11  2  0
 13 12  1  1
 13 15  1  0
 14 13  1  0
 15 16  2  0
 18 17  1  0
 19 18  1  0
 20 19  1  0
 21 20  1  6
 21 23  1  0
 22 21  1  0
 22 15  1  0
 23 25  1  0
 24 23  2  0
M  END
$$$$
