FAM.pdb
     RDKit          3D

 25 25  0  0  1  0  0  0  0  0999 V2000
   25.3042  -18.2464  -15.7132 N   0  0  0  0  0  0  0  0  0  0  0  0
   26.2492  -18.2989  -14.6167 C   0  0  1  0  0  0  0  0  0  0  0  0
   27.0053  -17.0085  -14.4880 C   0  0  0  0  0  0  0  0  0  0  0  0
   27.9021  -16.8539  -15.6623 C   0  0  0  0  0  0  0  0  0  0  0  0
   28.9231  -17.7677  -15.8256 C   0  0  0  0  0  0  0  0  0  0  0  0
   29.7663  -17.6213  -16.9303 C   0  0  0  0  0  0  0  0  0  0  0  0
   29.5698  -16.5882  -17.8216 C   0  0  0  0  0  0  0  0  0  0  0  0
   28.5412  -15.6840  -17.6394 C   0  0  0  0  0  0  0  0  0  0  0  0
   27.7018  -15.8180  -16.5524 C   0  0  0  0  0  0  0  0  0  0  0  0
   25.6122  -18.7261  -13.3529 C   0  0  0  0  0  0  0  0  0  0  0  0
   24.7071  -18.0025  -12.8541 O   0  0  0  0  0  0  0  0  0  0  0  0
   24.7505  -21.6881  -11.6456 C   0  0  0  0  0  0  0  0  0  0  0  0
   25.3518  -20.3122  -11.4126 C   0  0  2  0  0  0  0  0  0  0  0  0
   25.9685  -19.9164  -12.6672 N   0  0  0  0  0  0  0  0  0  0  0  0
   26.3261  -20.4365  -10.3209 C   0  0  0  0  0  0  0  0  0  0  0  0
   27.4691  -20.9823  -10.4981 O   0  0  0  0  0  0  0  0  0  0  0  0
   28.7503  -19.0362   -2.9779 C   0  0  0  0  0  0  0  0  0  0  0  0
   28.4933  -18.5845   -4.6775 S   0  0  0  0  0  0  0  0  0  0  0  0
   27.7626  -19.8527   -5.6883 C   0  0  0  0  0  0  0  0  0  0  0  0
   27.1767  -19.4308   -6.9787 C   0  0  0  0  0  0  0  0  0  0  0  0
   26.5135  -20.4629   -7.8082 C   0  0  2  0  0  0  0  0  0  0  0  0
   25.9760  -19.9323   -9.0376 N   0  0  0  0  0  0  0  0  0  0  0  0
   25.5573  -21.3145   -7.0735 C   0  0  0  0  0  0  0  0  0  0  0  0
   24.3096  -21.2816   -7.2252 O   0  0  0  0  0  0  0  0  0  0  0  0
   26.0392  -22.2246   -6.1441 O   0  0  0  0  0  0  0  0  0  0  0  0
  2  1  1  6
  2 10  1  0
  3  2  1  0
  3  4  1  0
  4  9  2  0
  4  5  1  0
  5  6  2  0
  6  7  1  0
  8  7  2  0
  9  8  1  0
 10 14  1  0
 10 11  2  0
 13 12  1  6
 13 15  1  0
 14 13  1  0
 15 16  2  0
 18 17  1  0
 19 18  1  0
 20 19  1  0
 21 20  1  1
 21 23  1  0
 22 21  1  0
 22 15  1  0
 23 25  1  0
 24 23  2  0
M  END
$$$$
