FAM.pdb
     RDKit          3D

 25 25  0  0  1  0  0  0  0  0999 V2000
   29.0917  -19.3720  -13.1986 N   0  0  0  0  0  0  0  0  0  0  0  0
   28.3040  -20.5781  -13.3508 C   0  0  1  0  0  0  0  0  0  0  0  0
   28.2381  -21.3504  -12.0652 C   0  0  0  0  0  0  0  0  0  0  0  0
   29.6185  -21.6877  -11.6321 C   0  0  0  0  0  0  0  0  0  0  0  0
   30.0010  -21.3430  -10.3519 C   0  0  0  0  0  0  0  0  0  0  0  0
   31.2998  -21.6604   -9.9455 C   0  0  0  0  0  0  0  0  0  0  0  0
   32.1614  -22.2996  -10.8111 C   0  0  0  0  0  0  0  0  0  0  0  0
   31.7582  -22.6360  -12.0891 C   0  0  0  0  0  0  0  0  0  0  0  0
   30.4781  -22.3279  -12.5021 C   0  0  0  0  0  0  0  0  0  0  0  0
   26.9724  -20.3036  -13.9312 C   0  0  0  0  0  0  0  0  0  0  0  0
   26.3037  -19.3316  -13.4842 O   0  0  0  0  0  0  0  0  0  0  0  0
   24.8999  -21.7408  -16.6963 C   0  0  0  0  0  0  0  0  0  0  0  0
   25.0517  -20.8694  -15.4607 C   0  0  2  0  0  0  0  0  0  0  0  0
   26.4035  -21.0822  -14.9724 N   0  0  0  0  0  0  0  0  0  0  0  0
   24.0307  -21.2937  -14.4943 C   0  0  0  0  0  0  0  0  0  0  0  0
   24.1394  -22.3850  -13.8362 O   0  0  0  0  0  0  0  0  0  0  0  0
   24.1001  -20.9464   -8.8171 C   0  0  0  0  0  0  0  0  0  0  0  0
   23.7946  -20.4750  -10.5033 S   0  0  0  0  0  0  0  0  0  0  0  0
   22.1037  -20.0652  -10.8728 C   0  0  0  0  0  0  0  0  0  0  0  0
   21.7928  -19.6831  -12.2671 C   0  0  0  0  0  0  0  0  0  0  0  0
   21.8794  -20.7328  -13.3082 C   0  0  2  0  0  0  0  0  0  0  0  0
   22.8959  -20.4594  -14.2951 N   0  0  0  0  0  0  0  0  0  0  0  0
   20.5815  -21.1153  -13.8985 C   0  0  0  0  0  0  0  0  0  0  0  0
   20.0966  -20.6116  -14.9435 O   0  0  0  0  0  0  0  0  0  0  0  0
   19.8208  -22.0962  -13.2795 O   0  0  0  0  0  0  0  0  0  0  0  0
  2  1  1  1
  2 10  1  0
  3  2  1  0
  3  4  1  0
  4  9  2  0
  4  5  1  0
  5  6  2  0
  6  7  1  0
  8  7  2  0
  9  8  1  0
 10 14  1  0
 10 11  2  0
 13 12  1  6
 13 15  1  0
 14 13  1  0
 15 16  2  0
 18 17  1  0
 19 18  1  0
 20 19  1  0
 21 20  1  6
 21 23  1  0
 22 21  1  0
 22 15  1  0
 23 25  1  0
 24 23  2  0
M  END
$$$$
