FAM.pdb
     RDKit          3D

 25 25  0  0  1  0  0  0  0  0999 V2000
   27.2731  -20.3086  -11.1703 N   0  0  0  0  0  0  0  0  0  0  0  0
   26.0936  -21.1118  -10.9219 C   0  0  1  0  0  0  0  0  0  0  0  0
   25.3598  -20.6376   -9.7012 C   0  0  0  0  0  0  0  0  0  0  0  0
   26.3377  -20.4120   -8.6059 C   0  0  0  0  0  0  0  0  0  0  0  0
   27.0256  -21.5022   -8.1134 C   0  0  0  0  0  0  0  0  0  0  0  0
   27.9450  -21.2890   -7.0829 C   0  0  0  0  0  0  0  0  0  0  0  0
   28.1470  -20.0199   -6.5842 C   0  0  0  0  0  0  0  0  0  0  0  0
   27.4477  -18.9418   -7.0917 C   0  0  0  0  0  0  0  0  0  0  0  0
   26.5370  -19.1395   -8.1094 C   0  0  0  0  0  0  0  0  0  0  0  0
   25.2278  -21.2134  -12.1159 C   0  0  0  0  0  0  0  0  0  0  0  0
   24.8157  -20.1520  -12.6593 O   0  0  0  0  0  0  0  0  0  0  0  0
   24.5467  -23.8442  -14.5955 C   0  0  0  0  0  0  0  0  0  0  0  0
   24.1146  -22.5403  -13.9458 C   0  0  2  0  0  0  0  0  0  0  0  0
   24.8337  -22.4516  -12.6864 N   0  0  0  0  0  0  0  0  0  0  0  0
   22.6592  -22.6019  -13.7599 C   0  0  0  0  0  0  0  0  0  0  0  0
   21.8600  -22.7417  -14.7486 O   0  0  0  0  0  0  0  0  0  0  0  0
   19.9677  -24.0723   -7.7774 C   0  0  0  0  0  0  0  0  0  0  0  0
   18.6620  -23.2126   -8.6229 S   0  0  0  0  0  0  0  0  0  0  0  0
   19.0025  -22.8173  -10.3233 C   0  0  0  0  0  0  0  0  0  0  0  0
   20.4228  -22.7690  -10.7319 C   0  0  0  0  0  0  0  0  0  0  0  0
   20.7254  -22.4682  -12.1500 C   0  0  2  0  0  0  0  0  0  0  0  0
   22.1384  -22.5019  -12.4400 N   0  0  0  0  0  0  0  0  0  0  0  0
   20.0508  -21.2650  -12.6759 C   0  0  0  0  0  0  0  0  0  0  0  0
   20.4656  -20.0885  -12.5196 O   0  0  0  0  0  0  0  0  0  0  0  0
   18.8748  -21.4108  -13.3971 O   0  0  0  0  0  0  0  0  0  0  0  0
  2  1  1  6
  2 10  1  0
  3  2  1  0
  3  4  1  0
  4  9  2  0
  4  5  1  0
  5  6  2  0
  6  7  1  0
  8  7  2  0
  9  8  1  0
 10 14  1  0
 10 11  2  0
 13 12  1  1
 13 15  1  0
 14 13  1  0
 15 16  2  0
 18 17  1  0
 19 18  1  0
 20 19  1  0
 21 20  1  1
 21 23  1  0
 22 21  1  0
 22 15  1  0
 23 25  1  0
 24 23  2  0
M  END
$$$$
