FAM.pdb
     RDKit          3D

 25 25  0  0  1  0  0  0  0  0999 V2000
   16.9051  -26.5239   -9.7145 N   0  0  0  0  0  0  0  0  0  0  0  0
   17.8899  -27.1133   -8.8308 C   0  0  1  0  0  0  0  0  0  0  0  0
   19.1110  -26.2470   -8.7222 C   0  0  0  0  0  0  0  0  0  0  0  0
   19.7510  -26.1432  -10.0588 C   0  0  0  0  0  0  0  0  0  0  0  0
   19.6476  -24.9467  -10.7384 C   0  0  0  0  0  0  0  0  0  0  0  0
   20.2496  -24.8502  -11.9957 C   0  0  0  0  0  0  0  0  0  0  0  0
   20.9236  -25.9287  -12.5273 C   0  0  0  0  0  0  0  0  0  0  0  0
   21.0154  -27.1180  -11.8302 C   0  0  0  0  0  0  0  0  0  0  0  0
   20.4250  -27.2257  -10.5876 C   0  0  0  0  0  0  0  0  0  0  0  0
   17.3148  -27.4720   -7.5169 C   0  0  0  0  0  0  0  0  0  0  0  0
   16.6640  -26.5988   -6.8801 O   0  0  0  0  0  0  0  0  0  0  0  0
   17.4004  -30.5027   -5.3143 C   0  0  0  0  0  0  0  0  0  0  0  0
   17.0767  -29.0381   -5.5576 C   0  0  2  0  0  0  0  0  0  0  0  0
   17.4579  -28.7566   -6.9311 N   0  0  0  0  0  0  0  0  0  0  0  0
   17.8466  -28.2498   -4.5869 C   0  0  0  0  0  0  0  0  0  0  0  0
   18.6194  -27.2991   -4.9540 O   0  0  0  0  0  0  0  0  0  0  0  0
   14.6957  -24.1837   -3.9754 C   0  0  0  0  0  0  0  0  0  0  0  0
   15.0005  -24.2258   -2.2250 S   0  0  0  0  0  0  0  0  0  0  0  0
   16.2121  -25.4188   -1.7032 C   0  0  0  0  0  0  0  0  0  0  0  0
   16.5214  -26.5189   -2.6416 C   0  0  0  0  0  0  0  0  0  0  0  0
   17.4639  -27.5686   -2.1912 C   0  0  2  0  0  0  0  0  0  0  0  0
   17.7201  -28.5629   -3.2050 N   0  0  0  0  0  0  0  0  0  0  0  0
   17.1451  -28.1496   -0.8721 C   0  0  0  0  0  0  0  0  0  0  0  0
   16.2559  -29.0151   -0.6695 O   0  0  0  0  0  0  0  0  0  0  0  0
   17.8597  -27.7312    0.2408 O   0  0  0  0  0  0  0  0  0  0  0  0
  2  1  1  6
  2 10  1  0
  3  2  1  0
  3  4  1  0
  4  9  2  0
  4  5  1  0
  5  6  2  0
  6  7  1  0
  8  7  2  0
  9  8  1  0
 10 14  1  0
 10 11  2  0
 13 12  1  1
 13 15  1  0
 14 13  1  0
 15 16  2  0
 18 17  1  0
 19 18  1  0
 20 19  1  0
 21 20  1  6
 21 23  1  0
 22 21  1  0
 22 15  1  0
 23 25  1  0
 24 23  2  0
M  END
$$$$
