IHK.pdb
     RDKit          3D

 28 28  0  0  1  0  0  0  0  0999 V2000
    6.6248  -11.1763   27.6693 C   0  0  0  0  0  0  0  0  0  0  0  0
    6.1158  -12.1787   26.6904 C   0  0  0  0  0  0  0  0  0  0  0  0
    7.1599  -13.0763   26.0849 C   0  0  2  0  0  0  0  0  0  0  0  0
    8.1645  -12.1938   25.3372 C   0  0  0  0  0  0  0  0  0  0  0  0
    6.5294  -14.0722   25.1791 C   0  0  2  0  0  0  0  0  0  0  0  0
    5.5271  -14.8192   25.8647 N   0  0  0  0  0  0  0  0  0  0  0  0
    7.5201  -14.9322   24.4840 C   0  0  0  0  0  0  0  0  0  0  0  0
    7.6956  -16.1079   24.8618 O   0  0  0  0  0  0  0  0  0  0  0  0
    8.3182  -14.5127   23.3800 N   0  0  0  0  0  0  0  0  0  0  0  0
    9.2137  -15.3481   22.6692 C   0  0  1  0  0  0  0  0  0  0  0  0
    9.6802  -14.9610   21.3423 C   0  0  0  0  0  0  0  0  0  0  0  0
    8.7258  -14.5590   20.3285 C   0  0  0  0  0  0  0  0  0  0  0  0
    8.4214  -13.3764   19.7538 C   0  0  0  0  0  0  0  0  0  0  0  0
    7.4350  -13.5256   18.8178 N   0  0  0  0  0  0  0  0  0  0  0  0
    7.1557  -14.8399   18.8481 C   0  0  0  0  0  0  0  0  0  0  0  0
    7.9034  -15.4767   19.7320 N   0  0  0  0  0  0  0  0  0  0  0  0
   10.3551  -15.7474   23.5752 C   0  0  0  0  0  0  0  0  0  0  0  0
   11.0079  -14.8111   24.0878 O   0  0  0  0  0  0  0  0  0  0  0  0
   10.6917  -17.0768   23.8481 N   0  0  0  0  0  0  0  0  0  0  0  0
   11.6538  -17.4689   24.8728 C   0  0  1  0  0  0  0  0  0  0  0  0
   11.1723  -18.7024   25.6016 C   0  0  0  0  0  0  0  0  0  0  0  0
   12.1567  -19.2597   26.5699 C   0  0  0  0  0  0  0  0  0  0  0  0
   11.7309  -20.5607   27.1922 C   0  0  0  0  0  0  0  0  0  0  0  0
   12.7233  -21.0842   28.1895 C   0  0  0  0  0  0  0  0  0  0  0  0
   12.2648  -22.4153   28.6050 N   0  0  0  0  0  0  0  0  0  0  0  0
   12.9521  -17.6751   24.2102 C   0  0  0  0  0  0  0  0  0  0  0  0
   13.0455  -18.1420   22.9135 O   0  0  0  0  0  0  0  0  0  0  0  0
   14.0080  -17.4221   24.8335 O   0  0  0  0  0  0  0  0  0  0  0  0
  2  1  1  0
  2  3  1  0
  3  5  1  0
  3  4  1  6
  5  7  1  0
  5  6  1  1
  7  8  2  0
  9 10  1  0
  9  7  1  0
 10 11  1  6
 11 12  1  0
 12 16  1  0
 13 14  1  0
 13 12  2  0
 14 15  1  0
 15 16  2  0
 17 18  2  0
 17 10  1  0
 19 17  1  0
 20 19  1  0
 20 21  1  6
 22 21  1  0
 23 22  1  0
 24 23  1  0
 24 25  1  0
 26 20  1  0
 26 27  1  0
 28 26  2  0
M  END
$$$$
