IHK.pdb
     RDKit          3D

 28 28  0  0  1  0  0  0  0  0999 V2000
    8.6254  -17.1003   18.2678 C   0  0  0  0  0  0  0  0  0  0  0  0
    8.8618  -15.7356   18.8190 C   0  0  0  0  0  0  0  0  0  0  0  0
    7.6564  -14.8364   18.8532 C   0  0  2  0  0  0  0  0  0  0  0  0
    7.1636  -14.6534   17.4141 C   0  0  0  0  0  0  0  0  0  0  0  0
    7.9959  -13.5333   19.4828 C   0  0  2  0  0  0  0  0  0  0  0  0
    9.0292  -12.8722   18.7563 N   0  0  0  0  0  0  0  0  0  0  0  0
    8.2900  -13.6498   20.9335 C   0  0  0  0  0  0  0  0  0  0  0  0
    9.4707  -13.7542   21.3216 O   0  0  0  0  0  0  0  0  0  0  0  0
    7.3001  -13.6528   21.9592 N   0  0  0  0  0  0  0  0  0  0  0  0
    7.5758  -13.7469   23.3450 C   0  0  1  0  0  0  0  0  0  0  0  0
    6.5961  -13.2805   24.3202 C   0  0  0  0  0  0  0  0  0  0  0  0
    6.9779  -13.1187   25.7087 C   0  0  0  0  0  0  0  0  0  0  0  0
    8.1185  -13.3474   26.3929 C   0  0  0  0  0  0  0  0  0  0  0  0
    7.9750  -13.0124   27.7115 N   0  0  0  0  0  0  0  0  0  0  0  0
    6.7078  -12.5732   27.7981 C   0  0  0  0  0  0  0  0  0  0  0  0
    6.0934  -12.6243   26.6294 N   0  0  0  0  0  0  0  0  0  0  0  0
    8.0741  -15.1370   23.6651 C   0  0  0  0  0  0  0  0  0  0  0  0
    7.3728  -16.0855   23.2482 O   0  0  0  0  0  0  0  0  0  0  0  0
    9.2472  -15.3869   24.3837 N   0  0  0  0  0  0  0  0  0  0  0  0
    9.7540  -16.7283   24.6550 C   0  0  1  0  0  0  0  0  0  0  0  0
   11.1710  -16.8674   24.1479 C   0  0  0  0  0  0  0  0  0  0  0  0
   11.7995  -18.1825   24.4523 C   0  0  0  0  0  0  0  0  0  0  0  0
   11.8118  -19.1365   23.2901 C   0  0  0  0  0  0  0  0  0  0  0  0
   12.5231  -20.4224   23.5967 C   0  0  0  0  0  0  0  0  0  0  0  0
   12.5006  -21.2363   22.3753 N   0  0  0  0  0  0  0  0  0  0  0  0
    9.6475  -16.9606   26.1048 C   0  0  0  0  0  0  0  0  0  0  0  0
    9.4231  -18.2186   26.6294 O   0  0  0  0  0  0  0  0  0  0  0  0
    9.7626  -15.9945   26.8927 O   0  0  0  0  0  0  0  0  0  0  0  0
  2  1  1  0
  2  3  1  0
  3  5  1  0
  3  4  1  6
  5  7  1  0
  5  6  1  6
  7  8  2  0
  9 10  1  0
  9  7  1  0
 10 11  1  1
 11 12  1  0
 12 16  1  0
 13 14  1  0
 13 12  2  0
 14 15  1  0
 15 16  2  0
 17 18  2  0
 17 10  1  0
 19 17  1  0
 20 19  1  0
 20 21  1  1
 22 21  1  0
 23 22  1  0
 24 23  1  0
 24 25  1  0
 26 20  1  0
 26 27  1  0
 28 26  2  0
M  END
$$$$
