IHK.pdb
     RDKit          3D

 28 28  0  0  1  0  0  0  0  0999 V2000
    7.4244  -11.4049   19.3962 C   0  0  0  0  0  0  0  0  0  0  0  0
    7.9943  -12.6861   18.8905 C   0  0  0  0  0  0  0  0  0  0  0  0
    8.1670  -13.7668   19.9225 C   0  0  2  0  0  0  0  0  0  0  0  0
    9.0962  -13.2304   21.0161 C   0  0  0  0  0  0  0  0  0  0  0  0
    8.7143  -15.0003   19.2991 C   0  0  2  0  0  0  0  0  0  0  0  0
    7.9153  -15.4063   18.1903 N   0  0  0  0  0  0  0  0  0  0  0  0
    8.9443  -16.0918   20.2789 C   0  0  0  0  0  0  0  0  0  0  0  0
    7.9898  -16.8019   20.6534 O   0  0  0  0  0  0  0  0  0  0  0  0
   10.2113  -16.4091   20.8497 N   0  0  0  0  0  0  0  0  0  0  0  0
   10.4270  -17.4119   21.8261 C   0  0  1  0  0  0  0  0  0  0  0  0
   11.4455  -18.4345   21.6134 C   0  0  0  0  0  0  0  0  0  0  0  0
   11.3357  -19.3424   20.4892 C   0  0  0  0  0  0  0  0  0  0  0  0
   10.5131  -20.3732   20.2026 C   0  0  0  0  0  0  0  0  0  0  0  0
   10.8111  -20.9136   18.9817 N   0  0  0  0  0  0  0  0  0  0  0  0
   11.8421  -20.1719   18.5422 C   0  0  0  0  0  0  0  0  0  0  0  0
   12.1744  -19.2349   19.4125 N   0  0  0  0  0  0  0  0  0  0  0  0
   10.5472  -16.7693   23.1884 C   0  0  0  0  0  0  0  0  0  0  0  0
   11.5129  -15.9904   23.3492 O   0  0  0  0  0  0  0  0  0  0  0  0
    9.6494  -17.0083   24.2333 N   0  0  0  0  0  0  0  0  0  0  0  0
    9.7689  -16.3956   25.5524 C   0  0  1  0  0  0  0  0  0  0  0  0
    8.4376  -15.8313   25.9925 C   0  0  0  0  0  0  0  0  0  0  0  0
    8.2415  -14.3961   25.6476 C   0  0  0  0  0  0  0  0  0  0  0  0
    6.9191  -13.8365   26.0937 C   0  0  0  0  0  0  0  0  0  0  0  0
    6.8187  -12.3508   25.9032 C   0  0  0  0  0  0  0  0  0  0  0  0
    5.5136  -11.9302   26.4272 N   0  0  0  0  0  0  0  0  0  0  0  0
   10.2806  -17.4214   26.4760 C   0  0  0  0  0  0  0  0  0  0  0  0
   10.4633  -18.7332   26.0837 O   0  0  0  0  0  0  0  0  0  0  0  0
   10.5611  -17.1036   27.6540 O   0  0  0  0  0  0  0  0  0  0  0  0
  2  1  1  0
  2  3  1  0
  3  5  1  0
  3  4  1  1
  5  7  1  0
  5  6  1  6
  7  8  2  0
  9 10  1  0
  9  7  1  0
 10 11  1  6
 11 12  1  0
 12 16  1  0
 13 14  1  0
 13 12  2  0
 14 15  1  0
 15 16  2  0
 17 18  2  0
 17 10  1  0
 19 17  1  0
 20 19  1  0
 20 21  1  1
 22 21  1  0
 23 22  1  0
 24 23  1  0
 24 25  1  0
 26 20  1  0
 26 27  1  0
 28 26  2  0
M  END
$$$$
