IHK.pdb
     RDKit          3D

 28 28  0  0  1  0  0  0  0  0999 V2000
    8.3570  -12.4392   27.7467 C   0  0  0  0  0  0  0  0  0  0  0  0
    7.7456  -13.6098   27.0554 C   0  0  0  0  0  0  0  0  0  0  0  0
    7.2120  -13.3374   25.6757 C   0  0  2  0  0  0  0  0  0  0  0  0
    6.1190  -12.2704   25.7949 C   0  0  0  0  0  0  0  0  0  0  0  0
    6.6893  -14.5868   25.0628 C   0  0  2  0  0  0  0  0  0  0  0  0
    5.7767  -15.2403   25.9420 N   0  0  0  0  0  0  0  0  0  0  0  0
    7.7644  -15.4847   24.5707 C   0  0  0  0  0  0  0  0  0  0  0  0
    8.0742  -16.5001   25.2254 O   0  0  0  0  0  0  0  0  0  0  0  0
    8.5008  -15.2769   23.3680 N   0  0  0  0  0  0  0  0  0  0  0  0
    9.4203  -16.2016   22.8161 C   0  0  1  0  0  0  0  0  0  0  0  0
    9.7513  -16.1470   21.3963 C   0  0  0  0  0  0  0  0  0  0  0  0
    8.7495  -16.4882   20.4062 C   0  0  0  0  0  0  0  0  0  0  0  0
    7.6437  -17.2616   20.4295 C   0  0  0  0  0  0  0  0  0  0  0  0
    7.0103  -17.2482   19.2170 N   0  0  0  0  0  0  0  0  0  0  0  0
    7.7730  -16.4391   18.4620 C   0  0  0  0  0  0  0  0  0  0  0  0
    8.8086  -15.9746   19.1385 N   0  0  0  0  0  0  0  0  0  0  0  0
   10.6568  -16.2590   23.6826 C   0  0  0  0  0  0  0  0  0  0  0  0
   11.2106  -15.1646   23.9292 O   0  0  0  0  0  0  0  0  0  0  0  0
   11.1809  -17.4489   24.1970 N   0  0  0  0  0  0  0  0  0  0  0  0
   12.2326  -17.4939   25.2078 C   0  0  1  0  0  0  0  0  0  0  0  0
   11.9099  -18.5336   26.2563 C   0  0  0  0  0  0  0  0  0  0  0  0
   12.7364  -18.4296   27.4905 C   0  0  0  0  0  0  0  0  0  0  0  0
   12.4924  -19.5324   28.4830 C   0  0  0  0  0  0  0  0  0  0  0  0
   13.3779  -19.4378   29.6916 C   0  0  0  0  0  0  0  0  0  0  0  0
   12.9836  -20.5149   30.6076 N   0  0  0  0  0  0  0  0  0  0  0  0
   13.5040  -17.7643   24.5168 C   0  0  0  0  0  0  0  0  0  0  0  0
   13.5490  -18.3893   23.2857 O   0  0  0  0  0  0  0  0  0  0  0  0
   14.5814  -17.4206   25.0541 O   0  0  0  0  0  0  0  0  0  0  0  0
  2  1  1  0
  2  3  1  0
  3  5  1  0
  3  4  1  1
  5  7  1  0
  5  6  1  1
  7  8  2  0
  9 10  1  0
  9  7  1  0
 10 11  1  6
 11 12  1  0
 12 16  1  0
 13 14  1  0
 13 12  2  0
 14 15  1  0
 15 16  2  0
 17 18  2  0
 17 10  1  0
 19 17  1  0
 20 19  1  0
 20 21  1  1
 22 21  1  0
 23 22  1  0
 24 23  1  0
 24 25  1  0
 26 20  1  0
 26 27  1  0
 28 26  2  0
M  END
$$$$
