IHK.pdb
     RDKit          3D

 28 28  0  0  1  0  0  0  0  0999 V2000
    7.5715  -11.9500   18.7455 C   0  0  0  0  0  0  0  0  0  0  0  0
    7.9978  -13.3457   18.4416 C   0  0  0  0  0  0  0  0  0  0  0  0
    8.3210  -14.1964   19.6393 C   0  0  2  0  0  0  0  0  0  0  0  0
    9.4693  -13.5245   20.3990 C   0  0  0  0  0  0  0  0  0  0  0  0
    8.6802  -15.5758   19.2173 C   0  0  2  0  0  0  0  0  0  0  0  0
    7.6789  -16.1220   18.3619 N   0  0  0  0  0  0  0  0  0  0  0  0
    9.0141  -16.4629   20.3600 C   0  0  0  0  0  0  0  0  0  0  0  0
    8.1094  -16.8680   21.1171 O   0  0  0  0  0  0  0  0  0  0  0  0
   10.3305  -16.9078   20.6776 N   0  0  0  0  0  0  0  0  0  0  0  0
   10.6617  -17.7127   21.7946 C   0  0  1  0  0  0  0  0  0  0  0  0
   11.6613  -18.7676   21.6669 C   0  0  0  0  0  0  0  0  0  0  0  0
   11.4358  -19.8717   20.7558 C   0  0  0  0  0  0  0  0  0  0  0  0
   10.3321  -20.3906   20.1778 C   0  0  0  0  0  0  0  0  0  0  0  0
   10.6526  -21.4450   19.3673 N   0  0  0  0  0  0  0  0  0  0  0  0
   11.9886  -21.5433   19.4767 C   0  0  0  0  0  0  0  0  0  0  0  0
   12.4796  -20.6260   20.2911 N   0  0  0  0  0  0  0  0  0  0  0  0
   10.9232  -16.8283   22.9915 C   0  0  0  0  0  0  0  0  0  0  0  0
   11.7143  -15.8757   22.8129 O   0  0  0  0  0  0  0  0  0  0  0  0
   10.3329  -17.0328   24.2424 N   0  0  0  0  0  0  0  0  0  0  0  0
   10.4819  -16.1095   25.3627 C   0  0  1  0  0  0  0  0  0  0  0  0
    9.2638  -15.2223   25.4785 C   0  0  0  0  0  0  0  0  0  0  0  0
    9.3183  -14.2593   26.6128 C   0  0  0  0  0  0  0  0  0  0  0  0
    8.0764  -13.4256   26.7657 C   0  0  0  0  0  0  0  0  0  0  0  0
    8.1657  -12.4461   27.8999 C   0  0  0  0  0  0  0  0  0  0  0  0
    6.8965  -11.7097   27.9423 N   0  0  0  0  0  0  0  0  0  0  0  0
   10.7130  -16.9125   26.5748 C   0  0  0  0  0  0  0  0  0  0  0  0
   11.4852  -16.4498   27.6225 O   0  0  0  0  0  0  0  0  0  0  0  0
   10.1979  -18.0499   26.6666 O   0  0  0  0  0  0  0  0  0  0  0  0
  2  1  1  0
  2  3  1  0
  3  5  1  0
  3  4  1  6
  5  7  1  0
  5  6  1  1
  7  8  2  0
  9 10  1  0
  9  7  1  0
 10 11  1  6
 11 12  1  0
 12 16  1  0
 13 14  1  0
 13 12  2  0
 14 15  1  0
 15 16  2  0
 17 18  2  0
 17 10  1  0
 19 17  1  0
 20 19  1  0
 20 21  1  1
 22 21  1  0
 23 22  1  0
 24 23  1  0
 24 25  1  0
 26 20  1  0
 26 27  1  0
 28 26  2  0
M  END
$$$$
