IHK.pdb
     RDKit          3D

 28 28  0  0  1  0  0  0  0  0999 V2000
    6.3374  -11.9229   27.2472 C   0  0  0  0  0  0  0  0  0  0  0  0
    5.9971  -13.0564   26.3408 C   0  0  0  0  0  0  0  0  0  0  0  0
    7.1668  -13.8701   25.8589 C   0  0  2  0  0  0  0  0  0  0  0  0
    8.1142  -12.9327   25.1034 C   0  0  0  0  0  0  0  0  0  0  0  0
    6.7037  -14.9883   24.9958 C   0  0  2  0  0  0  0  0  0  0  0  0
    5.7189  -15.7722   25.6653 N   0  0  0  0  0  0  0  0  0  0  0  0
    7.8206  -15.8011   24.4515 C   0  0  0  0  0  0  0  0  0  0  0  0
    8.1804  -16.8382   25.0436 O   0  0  0  0  0  0  0  0  0  0  0  0
    8.5442  -15.4850   23.2648 N   0  0  0  0  0  0  0  0  0  0  0  0
    9.4948  -16.3354   22.6498 C   0  0  1  0  0  0  0  0  0  0  0  0
    9.8322  -16.1598   21.2414 C   0  0  0  0  0  0  0  0  0  0  0  0
    8.7874  -16.1918   20.2376 C   0  0  0  0  0  0  0  0  0  0  0  0
    7.7048  -16.9745   20.0460 C   0  0  0  0  0  0  0  0  0  0  0  0
    7.0066  -16.5827   18.9368 N   0  0  0  0  0  0  0  0  0  0  0  0
    7.7061  -15.5359   18.4666 C   0  0  0  0  0  0  0  0  0  0  0  0
    8.7646  -15.2812   19.2154 N   0  0  0  0  0  0  0  0  0  0  0  0
   10.7274  -16.4234   23.5193 C   0  0  0  0  0  0  0  0  0  0  0  0
   11.2971  -15.3410   23.7823 O   0  0  0  0  0  0  0  0  0  0  0  0
   11.2315  -17.6279   24.0194 N   0  0  0  0  0  0  0  0  0  0  0  0
   12.1873  -17.7050   25.1195 C   0  0  1  0  0  0  0  0  0  0  0  0
   11.7191  -18.7027   26.1538 C   0  0  0  0  0  0  0  0  0  0  0  0
   12.6687  -18.8979   27.2840 C   0  0  0  0  0  0  0  0  0  0  0  0
   12.2596  -19.9798   28.2448 C   0  0  0  0  0  0  0  0  0  0  0  0
   13.2294  -20.1534   29.3774 C   0  0  0  0  0  0  0  0  0  0  0  0
   12.6996  -21.2094   30.2485 N   0  0  0  0  0  0  0  0  0  0  0  0
   13.4976  -18.0566   24.5481 C   0  0  0  0  0  0  0  0  0  0  0  0
   13.6164  -18.6953   23.3291 O   0  0  0  0  0  0  0  0  0  0  0  0
   14.5405  -17.7715   25.1795 O   0  0  0  0  0  0  0  0  0  0  0  0
  2  1  1  0
  2  3  1  0
  3  5  1  0
  3  4  1  6
  5  7  1  0
  5  6  1  1
  7  8  2  0
  9 10  1  0
  9  7  1  0
 10 11  1  6
 11 12  1  0
 12 16  1  0
 13 14  1  0
 13 12  2  0
 14 15  1  0
 15 16  2  0
 17 18  2  0
 17 10  1  0
 19 17  1  0
 20 19  1  0
 20 21  1  1
 22 21  1  0
 23 22  1  0
 24 23  1  0
 24 25  1  0
 26 20  1  0
 26 27  1  0
 28 26  2  0
M  END
$$$$
