IHK.pdb
     RDKit          3D

 28 28  0  0  1  0  0  0  0  0999 V2000
   10.0562  -21.5294   17.0244 C   0  0  0  0  0  0  0  0  0  0  0  0
    9.1725  -20.3317   17.1057 C   0  0  0  0  0  0  0  0  0  0  0  0
    9.3759  -19.4613   18.3155 C   0  0  2  0  0  0  0  0  0  0  0  0
    9.1105  -20.3142   19.5602 C   0  0  0  0  0  0  0  0  0  0  0  0
    8.4772  -18.2783   18.2637 C   0  0  2  0  0  0  0  0  0  0  0  0
    8.5738  -17.6222   17.0016 N   0  0  0  0  0  0  0  0  0  0  0  0
    8.6654  -17.3568   19.4125 C   0  0  0  0  0  0  0  0  0  0  0  0
    9.7727  -16.8138   19.5985 O   0  0  0  0  0  0  0  0  0  0  0  0
    7.6497  -17.0275   20.3568 N   0  0  0  0  0  0  0  0  0  0  0  0
    7.8494  -16.2309   21.5104 C   0  0  1  0  0  0  0  0  0  0  0  0
    6.7259  -15.5248   22.1166 C   0  0  0  0  0  0  0  0  0  0  0  0
    6.9066  -14.8168   23.3682 C   0  0  0  0  0  0  0  0  0  0  0  0
    6.3717  -14.9528   24.5998 C   0  0  0  0  0  0  0  0  0  0  0  0
    6.8909  -14.0288   25.4646 N   0  0  0  0  0  0  0  0  0  0  0  0
    7.7580  -13.3311   24.7111 C   0  0  0  0  0  0  0  0  0  0  0  0
    7.7888  -13.7745   23.4668 N   0  0  0  0  0  0  0  0  0  0  0  0
    8.6416  -17.0141   22.5312 C   0  0  0  0  0  0  0  0  0  0  0  0
    8.1979  -18.1464   22.8252 O   0  0  0  0  0  0  0  0  0  0  0  0
    9.8080  -16.5329   23.1336 N   0  0  0  0  0  0  0  0  0  0  0  0
   10.5966  -17.3038   24.0894 C   0  0  1  0  0  0  0  0  0  0  0  0
   12.0698  -17.0209   23.9047 C   0  0  0  0  0  0  0  0  0  0  0  0
   12.9539  -17.7611   24.8469 C   0  0  0  0  0  0  0  0  0  0  0  0
   14.2493  -18.2190   24.2359 C   0  0  0  0  0  0  0  0  0  0  0  0
   15.0672  -19.0668   25.1664 C   0  0  0  0  0  0  0  0  0  0  0  0
   16.2655  -19.4906   24.4321 N   0  0  0  0  0  0  0  0  0  0  0  0
   10.1206  -16.9610   25.4396 C   0  0  0  0  0  0  0  0  0  0  0  0
   10.3130  -17.8020   26.5185 O   0  0  0  0  0  0  0  0  0  0  0  0
    9.5226  -15.8767   25.6242 O   0  0  0  0  0  0  0  0  0  0  0  0
  2  1  1  0
  2  3  1  0
  3  5  1  0
  3  4  1  1
  5  7  1  0
  5  6  1  6
  7  8  2  0
  9 10  1  0
  9  7  1  0
 10 11  1  1
 11 12  1  0
 12 16  1  0
 13 14  1  0
 13 12  2  0
 14 15  1  0
 15 16  2  0
 17 18  2  0
 17 10  1  0
 19 17  1  0
 20 19  1  0
 20 21  1  1
 22 21  1  0
 23 22  1  0
 24 23  1  0
 24 25  1  0
 26 20  1  0
 26 27  1  0
 28 26  2  0
M  END
$$$$
