IHK.pdb
     RDKit          3D

 28 28  0  0  1  0  0  0  0  0999 V2000
    6.8116  -11.1704   27.4947 C   0  0  0  0  0  0  0  0  0  0  0  0
    6.1404  -12.2473   26.7125 C   0  0  0  0  0  0  0  0  0  0  0  0
    7.0636  -13.2171   26.0268 C   0  0  2  0  0  0  0  0  0  0  0  0
    7.9639  -12.4202   25.0773 C   0  0  0  0  0  0  0  0  0  0  0  0
    6.2843  -14.2524   25.2983 C   0  0  2  0  0  0  0  0  0  0  0  0
    5.3775  -14.9162   26.1756 N   0  0  0  0  0  0  0  0  0  0  0  0
    7.1423  -15.1911   24.5321 C   0  0  0  0  0  0  0  0  0  0  0  0
    7.5940  -16.2132   25.0862 O   0  0  0  0  0  0  0  0  0  0  0  0
    7.5077  -15.0169   23.1654 N   0  0  0  0  0  0  0  0  0  0  0  0
    8.2853  -15.9329   22.4160 C   0  0  1  0  0  0  0  0  0  0  0  0
    8.4034  -15.7820   20.9697 C   0  0  0  0  0  0  0  0  0  0  0  0
    9.0808  -16.7979   20.1892 C   0  0  0  0  0  0  0  0  0  0  0  0
    8.8054  -18.0871   19.9005 C   0  0  0  0  0  0  0  0  0  0  0  0
    9.7693  -18.6256   19.0928 N   0  0  0  0  0  0  0  0  0  0  0  0
   10.6355  -17.6153   18.9044 C   0  0  0  0  0  0  0  0  0  0  0  0
   10.2545  -16.5217   19.5406 N   0  0  0  0  0  0  0  0  0  0  0  0
    9.6324  -16.1078   23.0777 C   0  0  0  0  0  0  0  0  0  0  0  0
   10.2929  -15.0632   23.2721 O   0  0  0  0  0  0  0  0  0  0  0  0
   10.1437  -17.3504   23.4643 N   0  0  0  0  0  0  0  0  0  0  0  0
   11.4360  -17.5195   24.1209 C   0  0  1  0  0  0  0  0  0  0  0  0
   11.3411  -18.5668   25.2065 C   0  0  0  0  0  0  0  0  0  0  0  0
   12.6428  -18.8942   25.8512 C   0  0  0  0  0  0  0  0  0  0  0  0
   12.5511  -19.9668   26.9010 C   0  0  0  0  0  0  0  0  0  0  0  0
   13.8721  -20.2658   27.5483 C   0  0  0  0  0  0  0  0  0  0  0  0
   13.6103  -21.1583   28.6839 N   0  0  0  0  0  0  0  0  0  0  0  0
   12.4210  -17.8684   23.0840 C   0  0  0  0  0  0  0  0  0  0  0  0
   13.7431  -17.4778   23.1700 O   0  0  0  0  0  0  0  0  0  0  0  0
   12.0576  -18.5392   22.0913 O   0  0  0  0  0  0  0  0  0  0  0  0
  2  1  1  0
  2  3  1  0
  3  5  1  0
  3  4  1  6
  5  7  1  0
  5  6  1  1
  7  8  2  0
  9 10  1  0
  9  7  1  0
 10 11  1  6
 11 12  1  0
 12 16  1  0
 13 14  1  0
 13 12  2  0
 14 15  1  0
 15 16  2  0
 17 18  2  0
 17 10  1  0
 19 17  1  0
 20 19  1  0
 20 21  1  1
 22 21  1  0
 23 22  1  0
 24 23  1  0
 24 25  1  0
 26 20  1  0
 26 27  1  0
 28 26  2  0
M  END
$$$$
