IHK.pdb
     RDKit          3D

 28 28  0  0  1  0  0  0  0  0999 V2000
    7.5160  -11.8265   18.8374 C   0  0  0  0  0  0  0  0  0  0  0  0
    8.0102  -13.2054   18.5608 C   0  0  0  0  0  0  0  0  0  0  0  0
    8.4069  -14.0033   19.7726 C   0  0  2  0  0  0  0  0  0  0  0  0
    9.5410  -13.2546   20.4799 C   0  0  0  0  0  0  0  0  0  0  0  0
    8.8216  -15.3759   19.3801 C   0  0  2  0  0  0  0  0  0  0  0  0
    7.8421  -15.9813   18.5394 N   0  0  0  0  0  0  0  0  0  0  0  0
    9.1933  -16.2232   20.5412 C   0  0  0  0  0  0  0  0  0  0  0  0
    8.3029  -16.6952   21.2762 O   0  0  0  0  0  0  0  0  0  0  0  0
   10.5318  -16.5557   20.9012 N   0  0  0  0  0  0  0  0  0  0  0  0
   10.9030  -17.2300   22.0898 C   0  0  1  0  0  0  0  0  0  0  0  0
   12.1421  -17.9984   22.1398 C   0  0  0  0  0  0  0  0  0  0  0  0
   12.3286  -19.1291   21.2527 C   0  0  0  0  0  0  0  0  0  0  0  0
   11.4809  -19.9165   20.5579 C   0  0  0  0  0  0  0  0  0  0  0  0
   12.1643  -20.8588   19.8394 N   0  0  0  0  0  0  0  0  0  0  0  0
   13.4541  -20.6115   20.1251 C   0  0  0  0  0  0  0  0  0  0  0  0
   13.5822  -19.5941   20.9584 N   0  0  0  0  0  0  0  0  0  0  0  0
   10.7752  -16.2870   23.2635 C   0  0  0  0  0  0  0  0  0  0  0  0
   11.5526  -15.3068   23.2726 O   0  0  0  0  0  0  0  0  0  0  0  0
    9.8526  -16.4679   24.2984 N   0  0  0  0  0  0  0  0  0  0  0  0
    9.6758  -15.5195   25.3934 C   0  0  1  0  0  0  0  0  0  0  0  0
    8.3813  -14.7577   25.2253 C   0  0  0  0  0  0  0  0  0  0  0  0
    8.1461  -13.7208   26.2677 C   0  0  0  0  0  0  0  0  0  0  0  0
    6.8260  -13.0128   26.1372 C   0  0  0  0  0  0  0  0  0  0  0  0
    6.6404  -11.9287   27.1589 C   0  0  0  0  0  0  0  0  0  0  0  0
    5.3085  -11.3499   26.9450 N   0  0  0  0  0  0  0  0  0  0  0  0
    9.7248  -16.2789   26.6536 C   0  0  0  0  0  0  0  0  0  0  0  0
    9.9165  -17.6467   26.6763 O   0  0  0  0  0  0  0  0  0  0  0  0
    9.5897  -15.6745   27.7416 O   0  0  0  0  0  0  0  0  0  0  0  0
  2  1  1  0
  2  3  1  0
  3  5  1  0
  3  4  1  6
  5  7  1  0
  5  6  1  1
  7  8  2  0
  9 10  1  0
  9  7  1  0
 10 11  1  6
 11 12  1  0
 12 16  1  0
 13 14  1  0
 13 12  2  0
 14 15  1  0
 15 16  2  0
 17 18  2  0
 17 10  1  0
 19 17  1  0
 20 19  1  0
 20 21  1  6
 22 21  1  0
 23 22  1  0
 24 23  1  0
 24 25  1  0
 26 20  1  0
 26 27  1  0
 28 26  2  0
M  END
$$$$
