IHK.pdb
     RDKit          3D

 28 28  0  0  1  0  0  0  0  0999 V2000
    6.8081  -11.5552   27.8833 C   0  0  0  0  0  0  0  0  0  0  0  0
    6.1705  -12.6169   27.0536 C   0  0  0  0  0  0  0  0  0  0  0  0
    7.1127  -13.4212   26.2003 C   0  0  2  0  0  0  0  0  0  0  0  0
    7.7928  -12.4633   25.2170 C   0  0  0  0  0  0  0  0  0  0  0  0
    6.3792  -14.5015   25.4898 C   0  0  2  0  0  0  0  0  0  0  0  0
    5.6562  -15.3150   26.4107 N   0  0  0  0  0  0  0  0  0  0  0  0
    7.2473  -15.2885   24.5779 C   0  0  0  0  0  0  0  0  0  0  0  0
    7.8514  -16.2917   25.0073 O   0  0  0  0  0  0  0  0  0  0  0  0
    7.4570  -14.9834   23.2014 N   0  0  0  0  0  0  0  0  0  0  0  0
    8.1903  -15.7920   22.2994 C   0  0  1  0  0  0  0  0  0  0  0  0
    8.0478  -15.5990   20.8604 C   0  0  0  0  0  0  0  0  0  0  0  0
    8.6677  -16.5315   19.9404 C   0  0  0  0  0  0  0  0  0  0  0  0
    8.2374  -17.6481   19.3163 C   0  0  0  0  0  0  0  0  0  0  0  0
    9.2176  -18.1735   18.5199 N   0  0  0  0  0  0  0  0  0  0  0  0
   10.2541  -17.3340   18.6854 C   0  0  0  0  0  0  0  0  0  0  0  0
    9.9583  -16.3531   19.5198 N   0  0  0  0  0  0  0  0  0  0  0  0
    9.6401  -15.8305   22.7234 C   0  0  0  0  0  0  0  0  0  0  0  0
   10.2245  -14.7267   22.7964 O   0  0  0  0  0  0  0  0  0  0  0  0
   10.3221  -17.0134   23.0248 N   0  0  0  0  0  0  0  0  0  0  0  0
   11.7201  -17.0520   23.4415 C   0  0  1  0  0  0  0  0  0  0  0  0
   11.8616  -17.8181   24.7367 C   0  0  0  0  0  0  0  0  0  0  0  0
   11.7113  -19.2923   24.5908 C   0  0  0  0  0  0  0  0  0  0  0  0
   11.8659  -20.0519   25.8792 C   0  0  0  0  0  0  0  0  0  0  0  0
   11.6364  -21.5268   25.7195 C   0  0  0  0  0  0  0  0  0  0  0  0
   11.7611  -22.1351   27.0496 N   0  0  0  0  0  0  0  0  0  0  0  0
   12.4965  -17.6506   22.3434 C   0  0  0  0  0  0  0  0  0  0  0  0
   13.8735  -17.5576   22.2856 O   0  0  0  0  0  0  0  0  0  0  0  0
   11.8986  -18.2643   21.4305 O   0  0  0  0  0  0  0  0  0  0  0  0
  2  1  1  0
  2  3  1  0
  3  5  1  0
  3  4  1  6
  5  7  1  0
  5  6  1  1
  7  8  2  0
  9 10  1  0
  9  7  1  0
 10 11  1  6
 11 12  1  0
 12 16  1  0
 13 14  1  0
 13 12  2  0
 14 15  1  0
 15 16  2  0
 17 18  2  0
 17 10  1  0
 19 17  1  0
 20 19  1  0
 20 21  1  1
 22 21  1  0
 23 22  1  0
 24 23  1  0
 24 25  1  0
 26 20  1  0
 26 27  1  0
 28 26  2  0
M  END
$$$$
