QDY.pdb
     RDKit          3D

 30 30  0  0  1  0  0  0  0  0999 V2000
    8.1557  -12.7706   17.9048 N   0  0  0  0  0  0  0  0  0  0  0  0
    7.8318  -13.8160   16.9836 C   0  0  0  0  0  0  0  0  0  0  0  0
    7.8422  -13.5642   15.7741 O   0  0  0  0  0  0  0  0  0  0  0  0
    7.5056  -15.1321   17.5193 C   0  0  0  0  0  0  0  0  0  0  0  0
    7.7554  -15.2487   18.9794 C   0  0  0  0  0  0  0  0  0  0  0  0
    9.1808  -15.0638   19.4146 C   0  0  2  0  0  0  0  0  0  0  0  0
   10.1278  -15.3880   18.3808 N   0  0  0  0  0  0  0  0  0  0  0  0
    9.3658  -15.8517   20.6485 C   0  0  0  0  0  0  0  0  0  0  0  0
    8.4584  -15.8070   21.5126 O   0  0  0  0  0  0  0  0  0  0  0  0
   10.5163  -16.6557   20.9064 N   0  0  0  0  0  0  0  0  0  0  0  0
   10.7286  -17.3334   22.1658 C   0  0  1  0  0  0  0  0  0  0  0  0
   11.9437  -18.2064   22.0776 C   0  0  0  0  0  0  0  0  0  0  0  0
   11.9708  -19.0962   20.9100 C   0  0  0  0  0  0  0  0  0  0  0  0
   11.1564  -20.0429   20.8336 O   0  0  0  0  0  0  0  0  0  0  0  0
   10.8099  -16.3836   23.3003 C   0  0  0  0  0  0  0  0  0  0  0  0
   11.3403  -15.2652   23.1309 O   0  0  0  0  0  0  0  0  0  0  0  0
   12.8753  -18.9237   19.8784 O   0  0  0  0  0  0  0  0  0  0  0  0
    5.9952  -11.1025   27.6616 O   0  0  0  0  0  0  0  0  0  0  0  0
    6.6315  -12.0852   26.9334 C   0  0  0  0  0  0  0  0  0  0  0  0
    7.9894  -12.0207   26.7303 C   0  0  0  0  0  0  0  0  0  0  0  0
    8.6348  -13.0039   26.0002 C   0  0  0  0  0  0  0  0  0  0  0  0
    7.9240  -14.0512   25.4731 C   0  0  0  0  0  0  0  0  0  0  0  0
    8.6256  -15.0857   24.6973 C   0  0  0  0  0  0  0  0  0  0  0  0
    9.7185  -15.7916   25.4710 C   0  0  2  0  0  0  0  0  0  0  0  0
   10.2802  -16.7740   24.5524 N   0  0  0  0  0  0  0  0  0  0  0  0
    9.2325  -16.4622   26.6884 C   0  0  0  0  0  0  0  0  0  0  0  0
    9.3718  -15.8605   27.9121 O   0  0  0  0  0  0  0  0  0  0  0  0
    6.5673  -14.1321   25.6658 C   0  0  0  0  0  0  0  0  0  0  0  0
    5.9374  -13.1306   26.4046 C   0  0  0  0  0  0  0  0  0  0  0  0
    8.6924  -17.5858   26.5883 O   0  0  0  0  0  0  0  0  0  0  0  0
  2  3  2  0
  2  1  1  0
  4  2  1  0
  5  6  1  0
  5  4  1  0
  6  7  1  6
  6  8  1  0
  8  9  2  0
  8 10  1  0
 10 11  1  0
 11 12  1  6
 12 13  1  0
 13 17  1  0
 14 13  2  0
 15 11  1  0
 15 16  2  0
 18 19  1  0
 19 20  2  0
 20 21  1  0
 22 21  2  0
 22 23  1  0
 24 23  1  6
 24 25  1  0
 25 15  1  0
 26 24  1  0
 27 26  1  0
 28 22  1  0
 29 19  1  0
 29 28  2  0
 30 26  2  0
M  END
$$$$
