QDY.pdb
     RDKit          3D

 30 30  0  0  1  0  0  0  0  0999 V2000
    8.1107  -12.9656   16.1917 N   0  0  0  0  0  0  0  0  0  0  0  0
    7.9414  -14.1993   15.4877 C   0  0  0  0  0  0  0  0  0  0  0  0
    8.2429  -14.2446   14.2904 O   0  0  0  0  0  0  0  0  0  0  0  0
    7.4208  -15.3471   16.2208 C   0  0  0  0  0  0  0  0  0  0  0  0
    7.7027  -15.2880   17.6785 C   0  0  0  0  0  0  0  0  0  0  0  0
    9.1521  -15.1910   18.0598 C   0  0  2  0  0  0  0  0  0  0  0  0
   10.0311  -15.7382   17.0606 N   0  0  0  0  0  0  0  0  0  0  0  0
    9.2986  -15.8274   19.3830 C   0  0  0  0  0  0  0  0  0  0  0  0
    8.4080  -15.6101   20.2384 O   0  0  0  0  0  0  0  0  0  0  0  0
   10.3940  -16.6713   19.7359 N   0  0  0  0  0  0  0  0  0  0  0  0
   10.5163  -17.2882   21.0377 C   0  0  1  0  0  0  0  0  0  0  0  0
   11.7875  -18.0789   21.1109 C   0  0  0  0  0  0  0  0  0  0  0  0
   11.9969  -18.7787   22.3845 C   0  0  0  0  0  0  0  0  0  0  0  0
   12.9351  -18.4309   23.1355 O   0  0  0  0  0  0  0  0  0  0  0  0
   10.4171  -16.2958   22.1337 C   0  0  0  0  0  0  0  0  0  0  0  0
   11.2789  -15.3964   22.2305 O   0  0  0  0  0  0  0  0  0  0  0  0
   11.1844  -19.8217   22.7894 O   0  0  0  0  0  0  0  0  0  0  0  0
    5.9444  -11.2683   27.7669 O   0  0  0  0  0  0  0  0  0  0  0  0
    6.3836  -12.1433   26.7962 C   0  0  0  0  0  0  0  0  0  0  0  0
    7.2693  -11.7170   25.8354 C   0  0  0  0  0  0  0  0  0  0  0  0
    7.7144  -12.5901   24.8578 C   0  0  0  0  0  0  0  0  0  0  0  0
    7.2749  -13.8887   24.8398 C   0  0  0  0  0  0  0  0  0  0  0  0
    7.7560  -14.8022   23.7918 C   0  0  0  0  0  0  0  0  0  0  0  0
    9.1260  -15.3824   24.0708 C   0  0  2  0  0  0  0  0  0  0  0  0
    9.3408  -16.3963   23.0459 N   0  0  0  0  0  0  0  0  0  0  0  0
    9.2429  -15.9872   25.4082 C   0  0  0  0  0  0  0  0  0  0  0  0
    8.8864  -17.2953   25.6094 O   0  0  0  0  0  0  0  0  0  0  0  0
    6.3905  -14.3322   25.7913 C   0  0  0  0  0  0  0  0  0  0  0  0
    5.9550  -13.4355   26.7671 C   0  0  0  0  0  0  0  0  0  0  0  0
    9.6712  -15.2904   26.3544 O   0  0  0  0  0  0  0  0  0  0  0  0
  2  3  2  0
  2  1  1  0
  4  2  1  0
  5  6  1  0
  5  4  1  0
  6  7  1  6
  6  8  1  0
  8  9  2  0
  8 10  1  0
 10 11  1  0
 11 12  1  6
 12 13  1  0
 13 17  1  0
 14 13  2  0
 15 11  1  0
 15 16  2  0
 18 19  1  0
 19 20  2  0
 20 21  1  0
 22 21  2  0
 22 23  1  0
 24 23  1  6
 24 25  1  0
 25 15  1  0
 26 24  1  0
 27 26  1  0
 28 22  1  0
 29 19  1  0
 29 28  2  0
 30 26  2  0
M  END
$$$$
