QDY.pdb
     RDKit          3D

 30 30  0  0  1  0  0  0  0  0999 V2000
    7.9469  -13.2334   16.7716 N   0  0  0  0  0  0  0  0  0  0  0  0
    8.3016  -14.5183   16.2524 C   0  0  0  0  0  0  0  0  0  0  0  0
    8.8293  -14.5817   15.1371 O   0  0  0  0  0  0  0  0  0  0  0  0
    8.0231  -15.6939   17.0685 C   0  0  0  0  0  0  0  0  0  0  0  0
    7.4760  -15.3602   18.4091 C   0  0  0  0  0  0  0  0  0  0  0  0
    7.6143  -16.4289   19.4551 C   0  0  2  0  0  0  0  0  0  0  0  0
    7.0772  -16.0357   20.7308 N   0  0  0  0  0  0  0  0  0  0  0  0
    9.0403  -16.8046   19.5089 C   0  0  0  0  0  0  0  0  0  0  0  0
    9.3899  -17.8581   18.9259 O   0  0  0  0  0  0  0  0  0  0  0  0
   10.0340  -16.0358   20.1856 N   0  0  0  0  0  0  0  0  0  0  0  0
   10.9872  -16.6236   21.1000 C   0  0  1  0  0  0  0  0  0  0  0  0
   12.3802  -16.4227   20.5847 C   0  0  0  0  0  0  0  0  0  0  0  0
   13.4030  -17.2272   21.2648 C   0  0  0  0  0  0  0  0  0  0  0  0
   13.0690  -18.2683   21.8729 O   0  0  0  0  0  0  0  0  0  0  0  0
   10.8262  -16.1050   22.4788 C   0  0  0  0  0  0  0  0  0  0  0  0
   11.8194  -15.6531   23.0871 O   0  0  0  0  0  0  0  0  0  0  0  0
   14.7392  -16.8714   21.2575 O   0  0  0  0  0  0  0  0  0  0  0  0
    6.4085  -11.3361   28.3151 O   0  0  0  0  0  0  0  0  0  0  0  0
    6.8546  -12.0926   27.2523 C   0  0  0  0  0  0  0  0  0  0  0  0
    6.2306  -11.9989   26.0311 C   0  0  0  0  0  0  0  0  0  0  0  0
    6.6732  -12.7555   24.9597 C   0  0  0  0  0  0  0  0  0  0  0  0
    7.7387  -13.6056   25.1082 C   0  0  0  0  0  0  0  0  0  0  0  0
    8.1939  -14.4045   23.9597 C   0  0  0  0  0  0  0  0  0  0  0  0
    9.2654  -15.4157   24.3069 C   0  0  2  0  0  0  0  0  0  0  0  0
    9.5421  -16.1370   23.0709 N   0  0  0  0  0  0  0  0  0  0  0  0
    8.8573  -16.3609   25.3597 C   0  0  0  0  0  0  0  0  0  0  0  0
    9.0767  -16.0630   26.6796 O   0  0  0  0  0  0  0  0  0  0  0  0
    8.3741  -13.7122   26.3202 C   0  0  0  0  0  0  0  0  0  0  0  0
    7.9116  -12.9406   27.3862 C   0  0  0  0  0  0  0  0  0  0  0  0
    8.3094  -17.4360   25.0314 O   0  0  0  0  0  0  0  0  0  0  0  0
  2  3  2  0
  2  1  1  0
  4  2  1  0
  5  6  1  0
  5  4  1  0
  6  7  1  1
  6  8  1  0
  8  9  2  0
  8 10  1  0
 10 11  1  0
 11 12  1  6
 12 13  1  0
 13 17  1  0
 14 13  2  0
 15 11  1  0
 15 16  2  0
 18 19  1  0
 19 20  2  0
 20 21  1  0
 22 21  2  0
 22 23  1  0
 24 23  1  6
 24 25  1  0
 25 15  1  0
 26 24  1  0
 27 26  1  0
 28 22  1  0
 29 19  1  0
 29 28  2  0
 30 26  2  0
M  END
$$$$
