QDY.pdb
     RDKit          3D

 30 30  0  0  1  0  0  0  0  0999 V2000
   10.0788  -20.9182   11.8914 N   0  0  0  0  0  0  0  0  0  0  0  0
   10.0660  -22.3294   12.1253 C   0  0  0  0  0  0  0  0  0  0  0  0
    9.1912  -23.0121   11.5823 O   0  0  0  0  0  0  0  0  0  0  0  0
   11.0907  -22.8947   12.9950 C   0  0  0  0  0  0  0  0  0  0  0  0
   12.0620  -21.8847   13.4891 C   0  0  0  0  0  0  0  0  0  0  0  0
   13.1500  -22.4078   14.3825 C   0  0  2  0  0  0  0  0  0  0  0  0
   13.0967  -23.8357   14.5516 N   0  0  0  0  0  0  0  0  0  0  0  0
   13.0670  -21.6624   15.6533 C   0  0  0  0  0  0  0  0  0  0  0  0
   13.6913  -20.5783   15.7374 O   0  0  0  0  0  0  0  0  0  0  0  0
   12.3178  -22.1092   16.7828 N   0  0  0  0  0  0  0  0  0  0  0  0
   12.2009  -21.3346   17.9979 C   0  0  1  0  0  0  0  0  0  0  0  0
   10.7896  -21.3824   18.5004 C   0  0  0  0  0  0  0  0  0  0  0  0
   10.3754  -20.2001   19.2660 C   0  0  0  0  0  0  0  0  0  0  0  0
   11.2041  -19.2926   19.5008 O   0  0  0  0  0  0  0  0  0  0  0  0
   13.1715  -21.7703   19.0294 C   0  0  0  0  0  0  0  0  0  0  0  0
   13.2489  -22.9803   19.3307 O   0  0  0  0  0  0  0  0  0  0  0  0
    9.0861  -20.0510   19.7431 O   0  0  0  0  0  0  0  0  0  0  0  0
   18.5453  -24.6485   16.8046 O   0  0  0  0  0  0  0  0  0  0  0  0
   17.9946  -23.7084   17.6493 C   0  0  0  0  0  0  0  0  0  0  0  0
   17.3126  -22.6333   17.1311 C   0  0  0  0  0  0  0  0  0  0  0  0
   16.7571  -21.6856   17.9734 C   0  0  0  0  0  0  0  0  0  0  0  0
   16.8829  -21.8117   19.3329 C   0  0  0  0  0  0  0  0  0  0  0  0
   16.2888  -20.7935   20.2132 C   0  0  0  0  0  0  0  0  0  0  0  0
   14.9090  -21.1557   20.7196 C   0  0  2  0  0  0  0  0  0  0  0  0
   13.9888  -20.7957   19.6479 N   0  0  0  0  0  0  0  0  0  0  0  0
   14.5380  -20.4513   21.9583 C   0  0  0  0  0  0  0  0  0  0  0  0
   13.5481  -19.5032   21.9449 O   0  0  0  0  0  0  0  0  0  0  0  0
   17.5604  -22.8787   19.8683 C   0  0  0  0  0  0  0  0  0  0  0  0
   18.1121  -23.8218   19.0012 C   0  0  0  0  0  0  0  0  0  0  0  0
   15.1385  -20.7309   23.0190 O   0  0  0  0  0  0  0  0  0  0  0  0
  2  3  2  0
  2  1  1  0
  4  2  1  0
  5  6  1  0
  5  4  1  0
  6  7  1  1
  6  8  1  0
  8  9  2  0
  8 10  1  0
 10 11  1  0
 11 12  1  1
 12 13  1  0
 13 17  1  0
 14 13  2  0
 15 11  1  0
 15 16  2  0
 18 19  1  0
 19 20  2  0
 20 21  1  0
 22 21  2  0
 22 23  1  0
 24 23  1  6
 24 25  1  0
 25 15  1  0
 26 24  1  0
 27 26  1  0
 28 22  1  0
 29 19  1  0
 29 28  2  0
 30 26  2  0
M  END
$$$$
