QDY.pdb
     RDKit          3D

 30 30  0  0  1  0  0  0  0  0999 V2000
    7.6763  -22.0042   19.0588 N   0  0  0  0  0  0  0  0  0  0  0  0
    7.5733  -20.8985   18.1572 C   0  0  0  0  0  0  0  0  0  0  0  0
    7.2584  -21.1187   16.9830 O   0  0  0  0  0  0  0  0  0  0  0  0
    7.8447  -19.5611   18.6705 C   0  0  0  0  0  0  0  0  0  0  0  0
    8.2146  -19.5499   20.1096 C   0  0  0  0  0  0  0  0  0  0  0  0
    8.4779  -18.1967   20.7054 C   0  0  2  0  0  0  0  0  0  0  0  0
    8.2454  -17.1221   19.7773 N   0  0  0  0  0  0  0  0  0  0  0  0
    9.8503  -18.2182   21.2472 C   0  0  0  0  0  0  0  0  0  0  0  0
   10.1407  -19.1196   22.0689 O   0  0  0  0  0  0  0  0  0  0  0  0
   10.8562  -17.2725   20.8862 N   0  0  0  0  0  0  0  0  0  0  0  0
   12.1578  -17.2391   21.5146 C   0  0  1  0  0  0  0  0  0  0  0  0
   13.1393  -16.5446   20.6198 C   0  0  0  0  0  0  0  0  0  0  0  0
   14.5194  -16.5351   21.1209 C   0  0  0  0  0  0  0  0  0  0  0  0
   14.7921  -17.1146   22.1957 O   0  0  0  0  0  0  0  0  0  0  0  0
   12.1076  -16.6267   22.8630 C   0  0  0  0  0  0  0  0  0  0  0  0
   11.8862  -15.4023   22.9760 O   0  0  0  0  0  0  0  0  0  0  0  0
   15.5418  -15.9009   20.4394 O   0  0  0  0  0  0  0  0  0  0  0  0
   10.5055  -14.1051   30.7566 O   0  0  0  0  0  0  0  0  0  0  0  0
   10.6513  -14.6165   29.4846 C   0  0  0  0  0  0  0  0  0  0  0  0
   10.9416  -13.7779   28.4350 C   0  0  0  0  0  0  0  0  0  0  0  0
   11.0894  -14.2845   27.1553 C   0  0  0  0  0  0  0  0  0  0  0  0
   10.9471  -15.6286   26.9241 C   0  0  0  0  0  0  0  0  0  0  0  0
   11.1045  -16.1494   25.5573 C   0  0  0  0  0  0  0  0  0  0  0  0
   12.4076  -16.8862   25.3321 C   0  0  2  0  0  0  0  0  0  0  0  0
   12.3135  -17.4529   23.9924 N   0  0  0  0  0  0  0  0  0  0  0  0
   12.6510  -17.9559   26.3143 C   0  0  0  0  0  0  0  0  0  0  0  0
   13.5310  -17.7597   27.3467 O   0  0  0  0  0  0  0  0  0  0  0  0
   10.6572  -16.4811   27.9601 C   0  0  0  0  0  0  0  0  0  0  0  0
   10.5127  -15.9491   29.2415 C   0  0  0  0  0  0  0  0  0  0  0  0
   12.0442  -19.0425   26.1917 O   0  0  0  0  0  0  0  0  0  0  0  0
  2  3  2  0
  2  1  1  0
  4  2  1  0
  5  6  1  0
  5  4  1  0
  6  7  1  6
  6  8  1  0
  8  9  2  0
  8 10  1  0
 10 11  1  0
 11 12  1  6
 12 13  1  0
 13 17  1  0
 14 13  2  0
 15 11  1  0
 15 16  2  0
 18 19  1  0
 19 20  2  0
 20 21  1  0
 22 21  2  0
 22 23  1  0
 24 23  1  1
 24 25  1  0
 25 15  1  0
 26 24  1  0
 27 26  1  0
 28 22  1  0
 29 19  1  0
 29 28  2  0
 30 26  2  0
M  END
$$$$
