QDY.pdb
     RDKit          3D

 30 30  0  0  1  0  0  0  0  0999 V2000
    7.2876  -13.8110   16.8307 N   0  0  0  0  0  0  0  0  0  0  0  0
    7.7517  -14.8203   15.9295 C   0  0  0  0  0  0  0  0  0  0  0  0
    7.5673  -14.6632   14.7180 O   0  0  0  0  0  0  0  0  0  0  0  0
    8.4230  -15.9883   16.4870 C   0  0  0  0  0  0  0  0  0  0  0  0
    8.4426  -15.9992   17.9727 C   0  0  0  0  0  0  0  0  0  0  0  0
    9.7907  -15.8168   18.6091 C   0  0  2  0  0  0  0  0  0  0  0  0
   10.8766  -16.1290   17.7182 N   0  0  0  0  0  0  0  0  0  0  0  0
    9.7995  -16.6170   19.8489 C   0  0  0  0  0  0  0  0  0  0  0  0
    8.7603  -16.6204   20.5503 O   0  0  0  0  0  0  0  0  0  0  0  0
   10.9223  -17.3813   20.2869 N   0  0  0  0  0  0  0  0  0  0  0  0
   10.9171  -18.1417   21.5165 C   0  0  1  0  0  0  0  0  0  0  0  0
   12.1956  -18.9133   21.6453 C   0  0  0  0  0  0  0  0  0  0  0  0
   12.4529  -19.8533   20.5471 C   0  0  0  0  0  0  0  0  0  0  0  0
   13.6223  -20.0184   20.1342 O   0  0  0  0  0  0  0  0  0  0  0  0
   10.6661  -17.2839   22.6985 C   0  0  0  0  0  0  0  0  0  0  0  0
   11.4941  -16.4002   23.0056 O   0  0  0  0  0  0  0  0  0  0  0  0
   11.4366  -20.5719   19.9449 O   0  0  0  0  0  0  0  0  0  0  0  0
    7.6409  -12.1794   20.4012 O   0  0  0  0  0  0  0  0  0  0  0  0
    7.6764  -13.1518   21.3780 C   0  0  0  0  0  0  0  0  0  0  0  0
    8.3335  -12.9144   22.5617 C   0  0  0  0  0  0  0  0  0  0  0  0
    8.3731  -13.8862   23.5467 C   0  0  0  0  0  0  0  0  0  0  0  0
    7.7566  -15.0949   23.3493 C   0  0  0  0  0  0  0  0  0  0  0  0
    7.8112  -16.1173   24.4057 C   0  0  0  0  0  0  0  0  0  0  0  0
    9.1951  -16.6878   24.6309 C   0  0  2  0  0  0  0  0  0  0  0  0
    9.4867  -17.4922   23.4508 N   0  0  0  0  0  0  0  0  0  0  0  0
    9.2943  -17.5186   25.8425 C   0  0  0  0  0  0  0  0  0  0  0  0
    9.6059  -18.8499   25.7448 O   0  0  0  0  0  0  0  0  0  0  0  0
    7.0956  -15.3497   22.1736 C   0  0  0  0  0  0  0  0  0  0  0  0
    7.0682  -14.3563   21.1947 C   0  0  0  0  0  0  0  0  0  0  0  0
    9.0903  -16.9919   26.9583 O   0  0  0  0  0  0  0  0  0  0  0  0
  2  3  2  0
  2  1  1  0
  4  2  1  0
  5  6  1  0
  5  4  1  0
  6  7  1  6
  6  8  1  0
  8  9  2  0
  8 10  1  0
 10 11  1  0
 11 12  1  1
 12 13  1  0
 13 17  1  0
 14 13  2  0
 15 11  1  0
 15 16  2  0
 18 19  1  0
 19 20  2  0
 20 21  1  0
 22 21  2  0
 22 23  1  0
 24 23  1  6
 24 25  1  0
 25 15  1  0
 26 24  1  0
 27 26  1  0
 28 22  1  0
 29 19  1  0
 29 28  2  0
 30 26  2  0
M  END
$$$$
