QDY.pdb
     RDKit          3D

 30 30  0  0  1  0  0  0  0  0999 V2000
    8.2668  -12.5693   17.9921 N   0  0  0  0  0  0  0  0  0  0  0  0
    8.0234  -13.7673   17.2494 C   0  0  0  0  0  0  0  0  0  0  0  0
    8.4429  -13.8411   16.0896 O   0  0  0  0  0  0  0  0  0  0  0  0
    7.2908  -14.8467   17.9004 C   0  0  0  0  0  0  0  0  0  0  0  0
    7.7177  -15.0810   19.3042 C   0  0  0  0  0  0  0  0  0  0  0  0
    9.1979  -15.2089   19.5238 C   0  0  2  0  0  0  0  0  0  0  0  0
    9.8785  -15.8128   18.4091 N   0  0  0  0  0  0  0  0  0  0  0  0
    9.3893  -15.9366   20.7931 C   0  0  0  0  0  0  0  0  0  0  0  0
    8.5282  -15.7826   21.6913 O   0  0  0  0  0  0  0  0  0  0  0  0
   10.4963  -16.8003   21.0483 N   0  0  0  0  0  0  0  0  0  0  0  0
   10.7345  -17.4028   22.3408 C   0  0  1  0  0  0  0  0  0  0  0  0
   11.9184  -18.3190   22.2669 C   0  0  0  0  0  0  0  0  0  0  0  0
   11.7777  -19.4195   21.3053 C   0  0  0  0  0  0  0  0  0  0  0  0
   12.4989  -19.4451   20.2833 O   0  0  0  0  0  0  0  0  0  0  0  0
   10.8866  -16.3858   23.4078 C   0  0  0  0  0  0  0  0  0  0  0  0
   11.4468  -15.2996   23.1484 O   0  0  0  0  0  0  0  0  0  0  0  0
   10.8652  -20.4419   21.4904 O   0  0  0  0  0  0  0  0  0  0  0  0
    5.7853  -11.0496   27.4315 O   0  0  0  0  0  0  0  0  0  0  0  0
    6.5105  -12.0182   26.7706 C   0  0  0  0  0  0  0  0  0  0  0  0
    5.8823  -12.8683   25.8920 C   0  0  0  0  0  0  0  0  0  0  0  0
    6.6041  -13.8431   25.2250 C   0  0  0  0  0  0  0  0  0  0  0  0
    7.9532  -13.9688   25.4357 C   0  0  0  0  0  0  0  0  0  0  0  0
    8.7042  -15.0123   24.7206 C   0  0  0  0  0  0  0  0  0  0  0  0
    9.8177  -15.6308   25.5386 C   0  0  2  0  0  0  0  0  0  0  0  0
   10.3891  -16.6767   24.6994 N   0  0  0  0  0  0  0  0  0  0  0  0
    9.3561  -16.2054   26.8133 C   0  0  0  0  0  0  0  0  0  0  0  0
    9.1620  -17.5570   26.9327 O   0  0  0  0  0  0  0  0  0  0  0  0
    8.5973  -13.1287   26.3095 C   0  0  0  0  0  0  0  0  0  0  0  0
    7.8505  -12.1536   26.9707 C   0  0  0  0  0  0  0  0  0  0  0  0
    9.1446  -15.4430   27.7819 O   0  0  0  0  0  0  0  0  0  0  0  0
  2  3  2  0
  2  1  1  0
  4  2  1  0
  5  6  1  0
  5  4  1  0
  6  7  1  6
  6  8  1  0
  8  9  2  0
  8 10  1  0
 10 11  1  0
 11 12  1  6
 12 13  1  0
 13 17  1  0
 14 13  2  0
 15 11  1  0
 15 16  2  0
 18 19  1  0
 19 20  2  0
 20 21  1  0
 22 21  2  0
 22 23  1  0
 24 23  1  6
 24 25  1  0
 25 15  1  0
 26 24  1  0
 27 26  1  0
 28 22  1  0
 29 19  1  0
 29 28  2  0
 30 26  2  0
M  END
$$$$
