QDY.pdb
     RDKit          3D

 30 30  0  0  1  0  0  0  0  0999 V2000
   10.0281  -13.4233   18.1022 N   0  0  0  0  0  0  0  0  0  0  0  0
    8.7033  -13.3498   17.5675 C   0  0  0  0  0  0  0  0  0  0  0  0
    8.5290  -12.7619   16.4949 O   0  0  0  0  0  0  0  0  0  0  0  0
    7.6204  -13.9757   18.3166 C   0  0  0  0  0  0  0  0  0  0  0  0
    8.0973  -14.8020   19.4557 C   0  0  0  0  0  0  0  0  0  0  0  0
    8.3821  -16.2430   19.1428 C   0  0  2  0  0  0  0  0  0  0  0  0
    7.2316  -16.9434   18.6367 N   0  0  0  0  0  0  0  0  0  0  0  0
    8.9500  -16.8502   20.3619 C   0  0  0  0  0  0  0  0  0  0  0  0
    8.1604  -17.4105   21.1586 O   0  0  0  0  0  0  0  0  0  0  0  0
   10.3415  -16.8322   20.6779 N   0  0  0  0  0  0  0  0  0  0  0  0
   10.8676  -17.3600   21.9168 C   0  0  1  0  0  0  0  0  0  0  0  0
   12.2931  -17.7824   21.7277 C   0  0  0  0  0  0  0  0  0  0  0  0
   12.9055  -18.4050   22.9080 C   0  0  0  0  0  0  0  0  0  0  0  0
   12.2246  -19.1669   23.6299 O   0  0  0  0  0  0  0  0  0  0  0  0
   10.7176  -16.4012   23.0366 C   0  0  0  0  0  0  0  0  0  0  0  0
   11.5918  -15.5279   23.2214 O   0  0  0  0  0  0  0  0  0  0  0  0
   14.2244  -18.1770   23.2552 O   0  0  0  0  0  0  0  0  0  0  0  0
    6.1427  -11.3614   28.5576 O   0  0  0  0  0  0  0  0  0  0  0  0
    6.6171  -12.2119   27.5817 C   0  0  0  0  0  0  0  0  0  0  0  0
    5.8213  -13.2276   27.1080 C   0  0  0  0  0  0  0  0  0  0  0  0
    6.2911  -14.0852   26.1282 C   0  0  0  0  0  0  0  0  0  0  0  0
    7.5557  -13.9284   25.6219 C   0  0  0  0  0  0  0  0  0  0  0  0
    8.0399  -14.8508   24.5831 C   0  0  0  0  0  0  0  0  0  0  0  0
    9.3404  -15.5397   24.9378 C   0  0  2  0  0  0  0  0  0  0  0  0
    9.5798  -16.5032   23.8705 N   0  0  0  0  0  0  0  0  0  0  0  0
    9.3002  -16.2296   26.2380 C   0  0  0  0  0  0  0  0  0  0  0  0
    9.0085  -17.5673   26.3025 O   0  0  0  0  0  0  0  0  0  0  0  0
    8.3645  -12.9198   26.0829 C   0  0  0  0  0  0  0  0  0  0  0  0
    7.8708  -12.0672   27.0704 C   0  0  0  0  0  0  0  0  0  0  0  0
    9.5356  -15.5776   27.2789 O   0  0  0  0  0  0  0  0  0  0  0  0
  2  3  2  0
  2  1  1  0
  4  2  1  0
  5  6  1  0
  5  4  1  0
  6  7  1  1
  6  8  1  0
  8  9  2  0
  8 10  1  0
 10 11  1  0
 11 12  1  6
 12 13  1  0
 13 17  1  0
 14 13  2  0
 15 11  1  0
 15 16  2  0
 18 19  1  0
 19 20  2  0
 20 21  1  0
 22 21  2  0
 22 23  1  0
 24 23  1  6
 24 25  1  0
 25 15  1  0
 26 24  1  0
 27 26  1  0
 28 22  1  0
 29 19  1  0
 29 28  2  0
 30 26  2  0
M  END
$$$$
