QDY.pdb
     RDKit          3D

 30 30  0  0  1  0  0  0  0  0999 V2000
    7.5175  -15.9875   17.1940 N   0  0  0  0  0  0  0  0  0  0  0  0
    7.0896  -14.6330   17.0253 C   0  0  0  0  0  0  0  0  0  0  0  0
    6.7185  -14.2637   15.9063 O   0  0  0  0  0  0  0  0  0  0  0  0
    7.1112  -13.7521   18.1870 C   0  0  0  0  0  0  0  0  0  0  0  0
    7.4643  -14.4541   19.4480 C   0  0  0  0  0  0  0  0  0  0  0  0
    8.7633  -14.0450   20.0812 C   0  0  2  0  0  0  0  0  0  0  0  0
    9.6868  -13.4684   19.1405 N   0  0  0  0  0  0  0  0  0  0  0  0
    9.2995  -15.2286   20.7805 C   0  0  0  0  0  0  0  0  0  0  0  0
    8.5670  -15.7872   21.6310 O   0  0  0  0  0  0  0  0  0  0  0  0
   10.5995  -15.7657   20.5397 N   0  0  0  0  0  0  0  0  0  0  0  0
   11.1316  -16.8854   21.2838 C   0  0  1  0  0  0  0  0  0  0  0  0
   12.2562  -17.5176   20.5208 C   0  0  0  0  0  0  0  0  0  0  0  0
   11.8654  -18.0996   19.2307 C   0  0  0  0  0  0  0  0  0  0  0  0
   10.7115  -18.5600   19.0830 O   0  0  0  0  0  0  0  0  0  0  0  0
   11.5410  -16.4969   22.6539 C   0  0  0  0  0  0  0  0  0  0  0  0
   12.5982  -15.8527   22.8219 O   0  0  0  0  0  0  0  0  0  0  0  0
   12.7375  -18.1581   18.1593 O   0  0  0  0  0  0  0  0  0  0  0  0
   10.2210  -14.7351   31.1805 O   0  0  0  0  0  0  0  0  0  0  0  0
   10.1078  -15.0344   29.8394 C   0  0  0  0  0  0  0  0  0  0  0  0
   10.0053  -16.3434   29.4329 C   0  0  0  0  0  0  0  0  0  0  0  0
    9.8913  -16.6512   28.0881 C   0  0  0  0  0  0  0  0  0  0  0  0
    9.8799  -15.6517   27.1496 C   0  0  0  0  0  0  0  0  0  0  0  0
    9.7612  -15.9970   25.7245 C   0  0  0  0  0  0  0  0  0  0  0  0
   11.0530  -16.4877   25.1065 C   0  0  2  0  0  0  0  0  0  0  0  0
   10.7163  -16.8698   23.7407 N   0  0  0  0  0  0  0  0  0  0  0  0
   11.6425  -17.6340   25.8183 C   0  0  0  0  0  0  0  0  0  0  0  0
   12.6605  -17.4417   26.7157 O   0  0  0  0  0  0  0  0  0  0  0  0
    9.9813  -14.3387   27.5371 C   0  0  0  0  0  0  0  0  0  0  0  0
   10.0951  -14.0513   28.8973 C   0  0  0  0  0  0  0  0  0  0  0  0
   11.2009  -18.7819   25.5915 O   0  0  0  0  0  0  0  0  0  0  0  0
  2  3  2  0
  2  1  1  0
  4  2  1  0
  5  6  1  0
  5  4  1  0
  6  7  1  6
  6  8  1  0
  8  9  2  0
  8 10  1  0
 10 11  1  0
 11 12  1  6
 12 13  1  0
 13 17  1  0
 14 13  2  0
 15 11  1  0
 15 16  2  0
 18 19  1  0
 19 20  2  0
 20 21  1  0
 22 21  2  0
 22 23  1  0
 24 23  1  1
 24 25  1  0
 25 15  1  0
 26 24  1  0
 27 26  1  0
 28 22  1  0
 29 19  1  0
 29 28  2  0
 30 26  2  0
M  END
$$$$
