HHC.pdb
     RDKit          3D

 27 28  0  0  1  0  0  0  0  0999 V2000
    8.1402  -16.9660   19.6464 N   0  0  0  0  0  0  0  0  0  0  0  0
    8.4563  -15.7251   20.3082 C   0  0  1  0  0  0  0  0  0  0  0  0
    7.5054  -14.6719   19.7243 C   0  0  0  0  0  0  0  0  0  0  0  0
    7.8648  -14.3707   18.3252 C   0  0  0  0  0  0  0  0  0  0  0  0
    8.7455  -13.4096   17.8456 C   0  0  0  0  0  0  0  0  0  0  0  0
    8.7881  -13.4632   16.5005 N   0  0  0  0  0  0  0  0  0  0  0  0
    7.9440  -14.4465   16.1419 C   0  0  0  0  0  0  0  0  0  0  0  0
    7.3879  -14.9935   17.2344 N   0  0  0  0  0  0  0  0  0  0  0  0
    8.1533  -15.8154   21.7803 C   0  0  0  0  0  0  0  0  0  0  0  0
    6.9519  -15.8409   22.1524 O   0  0  0  0  0  0  0  0  0  0  0  0
    9.2321  -15.8687   22.6994 N   0  0  0  0  0  0  0  0  0  0  0  0
    8.9401  -15.9556   24.1029 C   0  0  1  0  0  0  0  0  0  0  0  0
    9.9761  -16.8500   24.7254 C   0  0  0  0  0  0  0  0  0  0  0  0
    9.5521  -18.2465   24.6439 C   0  0  0  0  0  0  0  0  0  0  0  0
    8.3879  -18.6971   24.0614 C   0  0  0  0  0  0  0  0  0  0  0  0
    8.3463  -20.0350   24.1810 N   0  0  0  0  0  0  0  0  0  0  0  0
    9.4480  -20.4157   24.8179 C   0  0  0  0  0  0  0  0  0  0  0  0
   10.1870  -19.3351   25.1032 N   0  0  0  0  0  0  0  0  0  0  0  0
    8.8016  -14.6334   24.7445 C   0  0  0  0  0  0  0  0  0  0  0  0
    9.6812  -13.7587   24.5564 O   0  0  0  0  0  0  0  0  0  0  0  0
    7.7082  -14.2808   25.5819 N   0  0  0  0  0  0  0  0  0  0  0  0
    7.6567  -13.0810   26.3769 C   0  0  1  0  0  0  0  0  0  0  0  0
    6.2811  -12.4104   26.3049 C   0  0  0  0  0  0  0  0  0  0  0  0
    5.0373  -13.5215   26.9635 S   0  0  0  0  0  0  0  0  0  0  0  0
    8.0847  -13.2766   27.7602 C   0  0  0  0  0  0  0  0  0  0  0  0
    8.2173  -14.4252   28.2324 O   0  0  0  0  0  0  0  0  0  0  0  0
    8.3498  -12.1909   28.5690 O   0  0  0  0  0  0  0  0  0  0  0  0
  2  1  1  6
  2  3  1  0
  2  9  1  0
  4  5  2  0
  4  3  1  0
  6  5  1  0
  7  8  2  0
  7  6  1  0
  8  4  1  0
  9 11  1  0
 10  9  2  0
 11 12  1  0
 12 13  1  1
 13 14  1  0
 14 15  2  0
 15 16  1  0
 17 16  1  0
 18 14  1  0
 18 17  2  0
 19 12  1  0
 19 20  2  0
 21 19  1  0
 22 25  1  0
 22 21  1  0
 22 23  1  1
 24 23  1  0
 25 27  1  0
 26 25  2  0
M  END
$$$$
