HHC.pdb
     RDKit          3D

 27 28  0  0  1  0  0  0  0  0999 V2000
   13.4022  -16.3606   14.7366 N   0  0  0  0  0  0  0  0  0  0  0  0
   12.9300  -17.2764   15.7447 C   0  0  1  0  0  0  0  0  0  0  0  0
   14.1790  -17.9297   16.3511 C   0  0  0  0  0  0  0  0  0  0  0  0
   14.5742  -19.1152   15.5664 C   0  0  0  0  0  0  0  0  0  0  0  0
   15.8348  -19.4616   15.0972 C   0  0  0  0  0  0  0  0  0  0  0  0
   15.7646  -20.6255   14.4229 N   0  0  0  0  0  0  0  0  0  0  0  0
   14.4752  -21.0035   14.4693 C   0  0  0  0  0  0  0  0  0  0  0  0
   13.7575  -20.0996   15.1548 N   0  0  0  0  0  0  0  0  0  0  0  0
   12.2442  -16.5324   16.8596 C   0  0  0  0  0  0  0  0  0  0  0  0
   12.8666  -15.6103   17.4470 O   0  0  0  0  0  0  0  0  0  0  0  0
   10.9191  -16.8952   17.2113 N   0  0  0  0  0  0  0  0  0  0  0  0
   10.2850  -16.2172   18.3072 C   0  0  1  0  0  0  0  0  0  0  0  0
    8.7997  -16.2909   18.0855 C   0  0  0  0  0  0  0  0  0  0  0  0
    8.3743  -15.2403   17.1625 C   0  0  0  0  0  0  0  0  0  0  0  0
    9.2096  -14.3550   16.5171 C   0  0  0  0  0  0  0  0  0  0  0  0
    8.4567  -13.5422   15.7565 N   0  0  0  0  0  0  0  0  0  0  0  0
    7.1885  -13.9029   15.9167 C   0  0  0  0  0  0  0  0  0  0  0  0
    7.1288  -14.9344   16.7698 N   0  0  0  0  0  0  0  0  0  0  0  0
   10.7365  -16.7063   19.6247 C   0  0  0  0  0  0  0  0  0  0  0  0
   11.1664  -17.8798   19.7356 O   0  0  0  0  0  0  0  0  0  0  0  0
   10.7141  -15.9122   20.8037 N   0  0  0  0  0  0  0  0  0  0  0  0
   10.9717  -16.4243   22.1248 C   0  0  1  0  0  0  0  0  0  0  0  0
   10.5315  -15.4388   23.2121 C   0  0  0  0  0  0  0  0  0  0  0  0
   11.0613  -16.0398   24.8162 S   0  0  0  0  0  0  0  0  0  0  0  0
   10.4175  -17.7567   22.3545 C   0  0  0  0  0  0  0  0  0  0  0  0
    9.2434  -18.0266   22.0252 O   0  0  0  0  0  0  0  0  0  0  0  0
   11.1861  -18.7408   22.9411 O   0  0  0  0  0  0  0  0  0  0  0  0
  2  1  1  6
  2  3  1  0
  2  9  1  0
  4  5  2  0
  4  3  1  0
  6  5  1  0
  7  8  2  0
  7  6  1  0
  8  4  1  0
  9 11  1  0
 10  9  2  0
 11 12  1  0
 12 13  1  6
 13 14  1  0
 14 15  2  0
 15 16  1  0
 17 16  1  0
 18 14  1  0
 18 17  2  0
 19 12  1  0
 19 20  2  0
 21 19  1  0
 22 25  1  0
 22 21  1  0
 22 23  1  1
 24 23  1  0
 25 27  1  0
 26 25  2  0
M  END
$$$$
