HHC.pdb
     RDKit          3D

 27 28  0  0  1  0  0  0  0  0999 V2000
    9.2202  -15.6707   19.5849 N   0  0  0  0  0  0  0  0  0  0  0  0
    9.3820  -14.2666   19.8682 C   0  0  1  0  0  0  0  0  0  0  0  0
    8.2831  -13.5398   19.0819 C   0  0  0  0  0  0  0  0  0  0  0  0
    8.3652  -13.8771   17.6477 C   0  0  0  0  0  0  0  0  0  0  0  0
    7.3303  -14.1471   16.7614 C   0  0  0  0  0  0  0  0  0  0  0  0
    7.8346  -14.4097   15.5404 N   0  0  0  0  0  0  0  0  0  0  0  0
    9.1697  -14.3054   15.6606 C   0  0  0  0  0  0  0  0  0  0  0  0
    9.4921  -13.9859   16.9240 N   0  0  0  0  0  0  0  0  0  0  0  0
    9.1310  -13.9860   21.3260 C   0  0  0  0  0  0  0  0  0  0  0  0
    9.1247  -12.7920   21.7222 O   0  0  0  0  0  0  0  0  0  0  0  0
    8.9098  -15.0767   22.2051 N   0  0  0  0  0  0  0  0  0  0  0  0
    8.6992  -14.8079   23.6001 C   0  0  1  0  0  0  0  0  0  0  0  0
    7.2239  -14.9252   23.8651 C   0  0  0  0  0  0  0  0  0  0  0  0
    6.8273  -14.0042   24.9288 C   0  0  0  0  0  0  0  0  0  0  0  0
    6.2663  -14.3665   26.1337 C   0  0  0  0  0  0  0  0  0  0  0  0
    6.0398  -13.2500   26.8466 N   0  0  0  0  0  0  0  0  0  0  0  0
    6.4445  -12.2176   26.1154 C   0  0  0  0  0  0  0  0  0  0  0  0
    6.9247  -12.6666   24.9479 N   0  0  0  0  0  0  0  0  0  0  0  0
    9.5509  -15.6325   24.4797 C   0  0  0  0  0  0  0  0  0  0  0  0
   10.6470  -16.0667   24.0506 O   0  0  0  0  0  0  0  0  0  0  0  0
    9.1986  -15.9734   25.8142 N   0  0  0  0  0  0  0  0  0  0  0  0
   10.0596  -15.7724   26.9510 C   0  0  1  0  0  0  0  0  0  0  0  0
    9.9423  -14.3502   27.5082 C   0  0  0  0  0  0  0  0  0  0  0  0
   11.2306  -14.0746   28.7245 S   0  0  0  0  0  0  0  0  0  0  0  0
    9.8866  -16.7741   28.0006 C   0  0  0  0  0  0  0  0  0  0  0  0
    8.7797  -17.3221   28.1856 O   0  0  0  0  0  0  0  0  0  0  0  0
   10.9479  -17.1311   28.8066 O   0  0  0  0  0  0  0  0  0  0  0  0
  2  1  1  1
  2  3  1  0
  2  9  1  0
  4  5  2  0
  4  3  1  0
  6  5  1  0
  7  8  2  0
  7  6  1  0
  8  4  1  0
  9 11  1  0
 10  9  2  0
 11 12  1  0
 12 13  1  1
 13 14  1  0
 14 15  2  0
 15 16  1  0
 17 16  1  0
 18 14  1  0
 18 17  2  0
 19 12  1  0
 19 20  2  0
 21 19  1  0
 22 25  1  0
 22 21  1  0
 22 23  1  1
 24 23  1  0
 25 27  1  0
 26 25  2  0
M  END
$$$$
