HHC.pdb
     RDKit          3D

 27 28  0  0  1  0  0  0  0  0999 V2000
    7.0269  -16.6471   19.3937 N   0  0  0  0  0  0  0  0  0  0  0  0
    7.8861  -15.8033   20.1859 C   0  0  1  0  0  0  0  0  0  0  0  0
    7.6026  -14.3624   19.7412 C   0  0  0  0  0  0  0  0  0  0  0  0
    8.0195  -14.1630   18.3398 C   0  0  0  0  0  0  0  0  0  0  0  0
    7.3066  -13.5814   17.2992 C   0  0  0  0  0  0  0  0  0  0  0  0
    8.0498  -13.5951   16.1760 N   0  0  0  0  0  0  0  0  0  0  0  0
    9.2144  -14.1785   16.5093 C   0  0  0  0  0  0  0  0  0  0  0  0
    9.2000  -14.5208   17.8073 N   0  0  0  0  0  0  0  0  0  0  0  0
    7.5178  -15.8885   21.6433 C   0  0  0  0  0  0  0  0  0  0  0  0
    6.3548  -15.5629   21.9957 O   0  0  0  0  0  0  0  0  0  0  0  0
    8.4937  -16.3330   22.5714 N   0  0  0  0  0  0  0  0  0  0  0  0
    8.1323  -16.4365   23.9575 C   0  0  1  0  0  0  0  0  0  0  0  0
    8.7398  -17.7047   24.4895 C   0  0  0  0  0  0  0  0  0  0  0  0
    8.0096  -18.8654   23.9829 C   0  0  0  0  0  0  0  0  0  0  0  0
    6.6475  -19.0535   24.0669 C   0  0  0  0  0  0  0  0  0  0  0  0
    6.3480  -20.2317   23.4941 N   0  0  0  0  0  0  0  0  0  0  0  0
    7.4837  -20.7690   23.0630 C   0  0  0  0  0  0  0  0  0  0  0  0
    8.4991  -19.9453   23.3559 N   0  0  0  0  0  0  0  0  0  0  0  0
    8.4635  -15.2231   24.7303 C   0  0  0  0  0  0  0  0  0  0  0  0
    9.6047  -14.7129   24.6231 O   0  0  0  0  0  0  0  0  0  0  0  0
    7.5487  -14.5813   25.6092 N   0  0  0  0  0  0  0  0  0  0  0  0
    7.8758  -13.4325   26.4137 C   0  0  1  0  0  0  0  0  0  0  0  0
    6.7931  -12.3520   26.3281 C   0  0  0  0  0  0  0  0  0  0  0  0
    5.7967  -12.3823   27.8185 S   0  0  0  0  0  0  0  0  0  0  0  0
    8.1949  -13.7612   27.8012 C   0  0  0  0  0  0  0  0  0  0  0  0
    7.8724  -14.8654   28.2874 O   0  0  0  0  0  0  0  0  0  0  0  0
    8.8601  -12.8528   28.5985 O   0  0  0  0  0  0  0  0  0  0  0  0
  2  1  1  6
  2  3  1  0
  2  9  1  0
  4  5  2  0
  4  3  1  0
  6  5  1  0
  7  8  2  0
  7  6  1  0
  8  4  1  0
  9 11  1  0
 10  9  2  0
 11 12  1  0
 12 13  1  1
 13 14  1  0
 14 15  2  0
 15 16  1  0
 17 16  1  0
 18 14  1  0
 18 17  2  0
 19 12  1  0
 19 20  2  0
 21 19  1  0
 22 25  1  0
 22 21  1  0
 22 23  1  1
 24 23  1  0
 25 27  1  0
 26 25  2  0
M  END
$$$$
