HHC.pdb
     RDKit          3D

 27 28  0  0  1  0  0  0  0  0999 V2000
   10.4900  -15.3915   20.3598 N   0  0  0  0  0  0  0  0  0  0  0  0
    9.5310  -14.9068   21.3206 C   0  0  1  0  0  0  0  0  0  0  0  0
    8.1453  -15.1916   20.7264 C   0  0  0  0  0  0  0  0  0  0  0  0
    7.9525  -14.4295   19.4776 C   0  0  0  0  0  0  0  0  0  0  0  0
    8.8788  -13.6677   18.7767 C   0  0  0  0  0  0  0  0  0  0  0  0
    8.2964  -13.1353   17.6853 N   0  0  0  0  0  0  0  0  0  0  0  0
    7.0204  -13.5587   17.7023 C   0  0  0  0  0  0  0  0  0  0  0  0
    6.8101  -14.3357   18.7766 N   0  0  0  0  0  0  0  0  0  0  0  0
    9.6224  -15.6889   22.6039 C   0  0  0  0  0  0  0  0  0  0  0  0
    8.7919  -15.4533   23.5190 O   0  0  0  0  0  0  0  0  0  0  0  0
   10.6416  -16.6657   22.7394 N   0  0  0  0  0  0  0  0  0  0  0  0
   10.7532  -17.3801   23.9803 C   0  0  1  0  0  0  0  0  0  0  0  0
   11.7836  -18.4584   23.7899 C   0  0  0  0  0  0  0  0  0  0  0  0
   11.9035  -19.2623   25.0048 C   0  0  0  0  0  0  0  0  0  0  0  0
   11.3071  -18.9796   26.2140 C   0  0  0  0  0  0  0  0  0  0  0  0
   11.6477  -19.9421   27.0880 N   0  0  0  0  0  0  0  0  0  0  0  0
   12.4330  -20.8033   26.4510 C   0  0  0  0  0  0  0  0  0  0  0  0
   12.5940  -20.3981   25.1841 N   0  0  0  0  0  0  0  0  0  0  0  0
   10.9958  -16.4930   25.1349 C   0  0  0  0  0  0  0  0  0  0  0  0
   11.5755  -15.3940   24.9605 O   0  0  0  0  0  0  0  0  0  0  0  0
   10.6043  -16.8133   26.4635 N   0  0  0  0  0  0  0  0  0  0  0  0
   10.6238  -15.8764   27.5571 C   0  0  1  0  0  0  0  0  0  0  0  0
    9.5930  -14.7591   27.3665 C   0  0  0  0  0  0  0  0  0  0  0  0
    9.7005  -13.6045   28.7342 S   0  0  0  0  0  0  0  0  0  0  0  0
   10.4942  -16.5056   28.8694 C   0  0  0  0  0  0  0  0  0  0  0  0
    9.8292  -17.5529   29.0137 O   0  0  0  0  0  0  0  0  0  0  0  0
   11.1069  -15.9500   29.9736 O   0  0  0  0  0  0  0  0  0  0  0  0
  2  1  1  6
  2  3  1  0
  2  9  1  0
  4  5  2  0
  4  3  1  0
  6  5  1  0
  7  8  2  0
  7  6  1  0
  8  4  1  0
  9 11  1  0
 10  9  2  0
 11 12  1  0
 12 13  1  6
 13 14  1  0
 14 15  2  0
 15 16  1  0
 17 16  1  0
 18 14  1  0
 18 17  2  0
 19 12  1  0
 19 20  2  0
 21 19  1  0
 22 25  1  0
 22 21  1  0
 22 23  1  6
 24 23  1  0
 25 27  1  0
 26 25  2  0
M  END
$$$$
