HHC.pdb
     RDKit          3D

 27 28  0  0  1  0  0  0  0  0999 V2000
    9.0719  -20.6433   16.7494 N   0  0  0  0  0  0  0  0  0  0  0  0
    8.1183  -20.1353   17.7035 C   0  0  1  0  0  0  0  0  0  0  0  0
    7.9465  -21.2303   18.7645 C   0  0  0  0  0  0  0  0  0  0  0  0
    6.9282  -22.2088   18.3364 C   0  0  0  0  0  0  0  0  0  0  0  0
    6.2190  -22.2539   17.1430 C   0  0  0  0  0  0  0  0  0  0  0  0
    5.3842  -23.3108   17.1501 N   0  0  0  0  0  0  0  0  0  0  0  0
    5.5685  -23.9205   18.3342 C   0  0  0  0  0  0  0  0  0  0  0  0
    6.4945  -23.2621   19.0490 N   0  0  0  0  0  0  0  0  0  0  0  0
    8.6681  -18.9261   18.4124 C   0  0  0  0  0  0  0  0  0  0  0  0
    9.8985  -18.8809   18.6705 O   0  0  0  0  0  0  0  0  0  0  0  0
    7.7811  -17.8776   18.7661 N   0  0  0  0  0  0  0  0  0  0  0  0
    8.3096  -16.7220   19.4356 C   0  0  1  0  0  0  0  0  0  0  0  0
    7.3605  -15.5826   19.1874 C   0  0  0  0  0  0  0  0  0  0  0  0
    7.8778  -14.3547   19.7886 C   0  0  0  0  0  0  0  0  0  0  0  0
    9.0498  -14.2457   20.5043 C   0  0  0  0  0  0  0  0  0  0  0  0
    9.1884  -12.9675   20.8954 N   0  0  0  0  0  0  0  0  0  0  0  0
    8.1384  -12.2925   20.4412 C   0  0  0  0  0  0  0  0  0  0  0  0
    7.3364  -13.1277   19.7672 N   0  0  0  0  0  0  0  0  0  0  0  0
    8.6150  -16.9710   20.8582 C   0  0  0  0  0  0  0  0  0  0  0  0
    7.8954  -17.7598   21.5172 O   0  0  0  0  0  0  0  0  0  0  0  0
    9.6988  -16.3585   21.5445 N   0  0  0  0  0  0  0  0  0  0  0  0
   10.1146  -16.7167   22.8760 C   0  0  1  0  0  0  0  0  0  0  0  0
   10.3760  -18.2208   23.0043 C   0  0  0  0  0  0  0  0  0  0  0  0
   10.7074  -18.6276   24.7188 S   0  0  0  0  0  0  0  0  0  0  0  0
   11.2465  -15.9334   23.3664 C   0  0  0  0  0  0  0  0  0  0  0  0
   11.9250  -15.2325   22.5867 O   0  0  0  0  0  0  0  0  0  0  0  0
   11.5840  -15.9564   24.7039 O   0  0  0  0  0  0  0  0  0  0  0  0
  2  1  1  6
  2  3  1  0
  2  9  1  0
  4  5  2  0
  4  3  1  0
  6  5  1  0
  7  8  2  0
  7  6  1  0
  8  4  1  0
  9 11  1  0
 10  9  2  0
 11 12  1  0
 12 13  1  1
 13 14  1  0
 14 15  2  0
 15 16  1  0
 17 16  1  0
 18 14  1  0
 18 17  2  0
 19 12  1  0
 19 20  2  0
 21 19  1  0
 22 25  1  0
 22 21  1  0
 22 23  1  6
 24 23  1  0
 25 27  1  0
 26 25  2  0
M  END
$$$$
