HHC.pdb
     RDKit          3D

 27 28  0  0  1  0  0  0  0  0999 V2000
   11.1885  -15.2367   18.1393 N   0  0  0  0  0  0  0  0  0  0  0  0
   11.7512  -15.4786   19.4442 C   0  0  1  0  0  0  0  0  0  0  0  0
   12.4345  -14.1715   19.8670 C   0  0  0  0  0  0  0  0  0  0  0  0
   13.8505  -14.1712   19.4516 C   0  0  0  0  0  0  0  0  0  0  0  0
   14.5893  -15.2074   18.8949 C   0  0  0  0  0  0  0  0  0  0  0  0
   15.8492  -14.7927   18.6613 N   0  0  0  0  0  0  0  0  0  0  0  0
   15.8989  -13.5118   19.0670 C   0  0  0  0  0  0  0  0  0  0  0  0
   14.7011  -13.1352   19.5420 N   0  0  0  0  0  0  0  0  0  0  0  0
   10.6638  -15.7456   20.4508 C   0  0  0  0  0  0  0  0  0  0  0  0
    9.6257  -15.0355   20.4260 O   0  0  0  0  0  0  0  0  0  0  0  0
   10.8453  -16.7890   21.3942 N   0  0  0  0  0  0  0  0  0  0  0  0
    9.8302  -17.0071   22.3866 C   0  0  1  0  0  0  0  0  0  0  0  0
    9.5482  -18.4834   22.4275 C   0  0  0  0  0  0  0  0  0  0  0  0
    8.5810  -18.7835   23.4817 C   0  0  0  0  0  0  0  0  0  0  0  0
    7.2501  -18.4282   23.4721 C   0  0  0  0  0  0  0  0  0  0  0  0
    6.6854  -18.8759   24.6064 N   0  0  0  0  0  0  0  0  0  0  0  0
    7.6290  -19.4933   25.3083 C   0  0  0  0  0  0  0  0  0  0  0  0
    8.7847  -19.4420   24.6323 N   0  0  0  0  0  0  0  0  0  0  0  0
   10.1650  -16.4073   23.6932 C   0  0  0  0  0  0  0  0  0  0  0  0
   11.3474  -16.4521   24.1105 O   0  0  0  0  0  0  0  0  0  0  0  0
    9.2090  -15.7668   24.5280 N   0  0  0  0  0  0  0  0  0  0  0  0
    9.4878  -15.3018   25.8622 C   0  0  1  0  0  0  0  0  0  0  0  0
    8.5525  -14.1601   26.2730 C   0  0  0  0  0  0  0  0  0  0  0  0
    6.8627  -14.5889   25.8534 S   0  0  0  0  0  0  0  0  0  0  0  0
    9.5026  -16.3672   26.8622 C   0  0  0  0  0  0  0  0  0  0  0  0
    9.9460  -16.1598   28.0111 O   0  0  0  0  0  0  0  0  0  0  0  0
    9.0251  -17.6235   26.5508 O   0  0  0  0  0  0  0  0  0  0  0  0
  2  1  1  6
  2  3  1  0
  2  9  1  0
  4  5  2  0
  4  3  1  0
  6  5  1  0
  7  8  2  0
  7  6  1  0
  8  4  1  0
  9 11  1  0
 10  9  2  0
 11 12  1  0
 12 13  1  1
 13 14  1  0
 14 15  2  0
 15 16  1  0
 17 16  1  0
 18 14  1  0
 18 17  2  0
 19 12  1  0
 19 20  2  0
 21 19  1  0
 22 25  1  0
 22 21  1  0
 22 23  1  1
 24 23  1  0
 25 27  1  0
 26 25  2  0
M  END
$$$$
