IYC.pdb
     RDKit          3D

 27 27  0  0  1  0  0  0  0  0999 V2000
   10.0529  -14.3331   29.6908 C   0  0  0  0  0  0  0  0  0  0  0  0
    8.9354  -15.0899   29.0142 C   0  0  0  0  0  0  0  0  0  0  0  0
    9.1464  -15.1419   27.5094 C   0  0  2  0  0  0  0  0  0  0  0  0
    9.2811  -13.7316   26.9973 C   0  0  0  0  0  0  0  0  0  0  0  0
    7.9471  -15.8505   26.9252 C   0  0  2  0  0  0  0  0  0  0  0  0
    7.8589  -17.1559   27.5402 N   0  0  0  0  0  0  0  0  0  0  0  0
    8.0793  -16.0203   25.4596 C   0  0  0  0  0  0  0  0  0  0  0  0
    8.5369  -17.1284   25.0775 O   0  0  0  0  0  0  0  0  0  0  0  0
    7.7508  -13.8606   16.8734 O   0  0  0  0  0  0  0  0  0  0  0  0
    7.5479  -13.9641   18.2482 C   0  0  0  0  0  0  0  0  0  0  0  0
    8.0900  -13.0120   19.0655 C   0  0  0  0  0  0  0  0  0  0  0  0
    7.9132  -13.0771   20.4322 C   0  0  0  0  0  0  0  0  0  0  0  0
    7.1926  -14.0898   21.0262 C   0  0  0  0  0  0  0  0  0  0  0  0
    7.0457  -14.0933   22.4792 C   0  0  0  0  0  0  0  0  0  0  0  0
    7.8727  -15.0974   23.1899 C   0  0  2  0  0  0  0  0  0  0  0  0
    7.6943  -14.9581   24.6112 N   0  0  0  0  0  0  0  0  0  0  0  0
    9.3407  -14.9871   22.8776 C   0  0  0  0  0  0  0  0  0  0  0  0
   10.1313  -14.2455   23.5040 O   0  0  0  0  0  0  0  0  0  0  0  0
    6.6475  -15.0489   20.1939 C   0  0  0  0  0  0  0  0  0  0  0  0
    6.8240  -14.9850   18.8245 C   0  0  0  0  0  0  0  0  0  0  0  0
    9.8990  -15.7663   21.8026 N   0  0  0  0  0  0  0  0  0  0  0  0
   11.3136  -16.0407   21.7869 C   0  0  1  0  0  0  0  0  0  0  0  0
   11.6842  -16.8741   23.0229 C   0  0  0  0  0  0  0  0  0  0  0  0
   13.4236  -17.3735   22.9162 S   0  0  0  0  0  0  0  0  0  0  0  0
   11.7373  -16.7363   20.5529 C   0  0  0  0  0  0  0  0  0  0  0  0
   13.0909  -16.9408   20.3402 O   0  0  0  0  0  0  0  0  0  0  0  0
   10.9072  -17.1402   19.7049 O   0  0  0  0  0  0  0  0  0  0  0  0
  1  2  1  0
  2  3  1  0
  3  5  1  0
  3  4  1  6
  5  6  1  1
  7  5  1  0
  7  8  2  0
  9 10  1  0
 10 20  2  0
 10 11  1  0
 11 12  2  0
 13 12  1  0
 13 14  1  0
 15 14  1  6
 15 16  1  0
 16  7  1  0
 17 15  1  0
 18 17  2  0
 19 13  2  0
 20 19  1  0
 21 17  1  0
 22 23  1  1
 22 21  1  0
 24 23  1  0
 25 22  1  0
 26 25  1  0
 27 25  2  0
M  END
$$$$
