IYC.pdb
     RDKit          3D

 27 27  0  0  1  0  0  0  0  0999 V2000
    6.6968  -17.3499   17.8305 C   0  0  0  0  0  0  0  0  0  0  0  0
    6.5768  -16.0569   18.6007 C   0  0  0  0  0  0  0  0  0  0  0  0
    7.5040  -16.0531   19.8056 C   0  0  2  0  0  0  0  0  0  0  0  0
    7.1950  -17.2621   20.6494 C   0  0  0  0  0  0  0  0  0  0  0  0
    7.2526  -14.7601   20.5450 C   0  0  2  0  0  0  0  0  0  0  0  0
    7.5087  -13.6688   19.6319 N   0  0  0  0  0  0  0  0  0  0  0  0
    8.1485  -14.6234   21.7168 C   0  0  0  0  0  0  0  0  0  0  0  0
    9.3463  -14.3379   21.4578 O   0  0  0  0  0  0  0  0  0  0  0  0
   10.5831  -15.0516   30.2091 O   0  0  0  0  0  0  0  0  0  0  0  0
    9.9016  -14.8341   29.0133 C   0  0  0  0  0  0  0  0  0  0  0  0
    9.2467  -15.8828   28.4303 C   0  0  0  0  0  0  0  0  0  0  0  0
    8.5599  -15.7105   27.2463 C   0  0  0  0  0  0  0  0  0  0  0  0
    8.5039  -14.4915   26.6073 C   0  0  0  0  0  0  0  0  0  0  0  0
    7.7564  -14.3833   25.3573 C   0  0  0  0  0  0  0  0  0  0  0  0
    8.5022  -14.7945   24.1441 C   0  0  2  0  0  0  0  0  0  0  0  0
    7.6153  -14.8168   23.0108 N   0  0  0  0  0  0  0  0  0  0  0  0
    9.1493  -16.1469   24.2737 C   0  0  0  0  0  0  0  0  0  0  0  0
    8.5185  -17.2272   24.2253 O   0  0  0  0  0  0  0  0  0  0  0  0
    9.1682  -13.4357   27.2021 C   0  0  0  0  0  0  0  0  0  0  0  0
    9.8567  -13.6069   28.3884 C   0  0  0  0  0  0  0  0  0  0  0  0
   10.5738  -16.2376   24.4652 N   0  0  0  0  0  0  0  0  0  0  0  0
   11.1970  -17.5346   24.5435 C   0  0  1  0  0  0  0  0  0  0  0  0
   11.3232  -18.1249   23.1309 C   0  0  0  0  0  0  0  0  0  0  0  0
   12.1288  -16.9202   22.0418 S   0  0  0  0  0  0  0  0  0  0  0  0
   12.5216  -17.4830   25.1984 C   0  0  0  0  0  0  0  0  0  0  0  0
   13.2207  -18.6664   25.3715 O   0  0  0  0  0  0  0  0  0  0  0  0
   13.0195  -16.4034   25.5957 O   0  0  0  0  0  0  0  0  0  0  0  0
  1  2  1  0
  2  3  1  0
  3  5  1  0
  3  4  1  1
  5  6  1  6
  7  5  1  0
  7  8  2  0
  9 10  1  0
 10 20  2  0
 10 11  1  0
 11 12  2  0
 13 12  1  0
 13 14  1  0
 15 14  1  1
 15 16  1  0
 16  7  1  0
 17 15  1  0
 18 17  2  0
 19 13  2  0
 20 19  1  0
 21 17  1  0
 22 23  1  6
 22 21  1  0
 24 23  1  0
 25 22  1  0
 26 25  1  0
 27 25  2  0
M  END
$$$$
