IYC.pdb
     RDKit          3D

 27 27  0  0  1  0  0  0  0  0999 V2000
    8.4259  -15.2421   16.3278 C   0  0  0  0  0  0  0  0  0  0  0  0
    7.9214  -14.3525   17.4383 C   0  0  0  0  0  0  0  0  0  0  0  0
    8.4581  -14.8071   18.7862 C   0  0  2  0  0  0  0  0  0  0  0  0
    8.0662  -16.2466   18.9951 C   0  0  0  0  0  0  0  0  0  0  0  0
    7.8546  -13.8932   19.8266 C   0  0  2  0  0  0  0  0  0  0  0  0
    8.1710  -12.5312   19.4590 N   0  0  0  0  0  0  0  0  0  0  0  0
    8.4079  -14.1659   21.1733 C   0  0  0  0  0  0  0  0  0  0  0  0
    9.5712  -13.7347   21.3832 O   0  0  0  0  0  0  0  0  0  0  0  0
    6.6484  -10.5372   27.6543 O   0  0  0  0  0  0  0  0  0  0  0  0
    6.7954  -11.6884   26.8830 C   0  0  0  0  0  0  0  0  0  0  0  0
    5.8629  -11.9576   25.9206 C   0  0  0  0  0  0  0  0  0  0  0  0
    5.9709  -13.0865   25.1350 C   0  0  0  0  0  0  0  0  0  0  0  0
    7.0085  -13.9805   25.2829 C   0  0  0  0  0  0  0  0  0  0  0  0
    7.0589  -15.1535   24.4143 C   0  0  0  0  0  0  0  0  0  0  0  0
    8.1530  -15.1455   23.4142 C   0  0  2  0  0  0  0  0  0  0  0  0
    7.6165  -14.8717   22.1070 N   0  0  0  0  0  0  0  0  0  0  0  0
    8.9164  -16.4412   23.3577 C   0  0  0  0  0  0  0  0  0  0  0  0
    8.9343  -17.1949   22.3582 O   0  0  0  0  0  0  0  0  0  0  0  0
    7.9476  -13.7021   26.2577 C   0  0  0  0  0  0  0  0  0  0  0  0
    7.8405  -12.5714   27.0455 C   0  0  0  0  0  0  0  0  0  0  0  0
    9.6800  -16.8664   24.5024 N   0  0  0  0  0  0  0  0  0  0  0  0
   10.7734  -17.7876   24.3221 C   0  0  1  0  0  0  0  0  0  0  0  0
   11.7708  -17.2024   23.3109 C   0  0  0  0  0  0  0  0  0  0  0  0
   11.3645  -17.7970   21.6473 S   0  0  0  0  0  0  0  0  0  0  0  0
   11.4578  -18.1032   25.5942 C   0  0  0  0  0  0  0  0  0  0  0  0
   12.5100  -19.0042   25.5737 O   0  0  0  0  0  0  0  0  0  0  0  0
   11.1100  -17.5788   26.6783 O   0  0  0  0  0  0  0  0  0  0  0  0
  1  2  1  0
  2  3  1  0
  3  5  1  0
  3  4  1  1
  5  6  1  6
  7  5  1  0
  7  8  2  0
  9 10  1  0
 10 20  2  0
 10 11  1  0
 11 12  2  0
 13 12  1  0
 13 14  1  0
 15 14  1  1
 15 16  1  0
 16  7  1  0
 17 15  1  0
 18 17  2  0
 19 13  2  0
 20 19  1  0
 21 17  1  0
 22 23  1  6
 22 21  1  0
 24 23  1  0
 25 22  1  0
 26 25  1  0
 27 25  2  0
M  END
$$$$
