VRI.pdb
     RDKit          3D

 27 26  0  0  1  0  0  0  0  0999 V2000
   13.5667  -19.9021   23.4547 C   0  0  0  0  0  0  0  0  0  0  0  0
   12.6740  -18.7131   23.6122 C   0  0  1  0  0  0  0  0  0  0  0  0
   13.0781  -17.9601   24.8592 C   0  0  0  0  0  0  0  0  0  0  0  0
   12.7951  -17.7817   22.4240 C   0  0  2  0  0  0  0  0  0  0  0  0
   14.1681  -17.2403   22.5169 N   0  0  0  0  0  0  0  0  0  0  0  0
   11.8594  -16.6471   22.4690 C   0  0  0  0  0  0  0  0  0  0  0  0
   12.2587  -15.5887   23.0764 O   0  0  0  0  0  0  0  0  0  0  0  0
    7.5984  -12.4732   18.8123 N   0  0  0  0  0  0  0  0  0  0  0  0
    7.5394  -13.7623   18.1907 C   0  0  0  0  0  0  0  0  0  0  0  0
    8.0551  -13.9736   17.0305 N   0  0  0  0  0  0  0  0  0  0  0  0
    6.9117  -14.8699   18.8205 N   0  0  0  0  0  0  0  0  0  0  0  0
    6.3670  -14.7085   20.1521 C   0  0  0  0  0  0  0  0  0  0  0  0
    7.4516  -14.5925   21.1966 C   0  0  0  0  0  0  0  0  0  0  0  0
    8.4508  -15.6892   21.0846 C   0  0  0  0  0  0  0  0  0  0  0  0
    9.6251  -15.5551   22.0635 C   0  0  2  0  0  0  0  0  0  0  0  0
   10.5602  -16.6421   21.8918 N   0  0  0  0  0  0  0  0  0  0  0  0
    8.9525  -15.6299   23.4034 C   0  0  0  0  0  0  0  0  0  0  0  0
    8.9124  -16.7520   23.9613 O   0  0  0  0  0  0  0  0  0  0  0  0
    8.0239  -14.9398   16.6507 C   0  0  0  0  0  0  0  0  0  0  0  0
    6.9450  -10.8982   25.8298 C   0  0  0  0  0  0  0  0  0  0  0  0
    7.8977  -12.0933   25.6893 C   0  0  2  0  0  0  0  0  0  0  0  0
    7.0438  -13.3157   25.7312 C   0  0  0  0  0  0  0  0  0  0  0  0
    6.2984  -13.4377   27.0256 C   0  0  2  0  0  0  0  0  0  0  0  0
    7.7731  -14.5914   25.3792 N   0  0  0  0  0  0  0  0  0  0  0  0
    8.3735  -14.5394   24.0631 C   0  0  0  0  0  0  0  0  0  0  0  0
    6.8591  -15.7461   25.4202 O   0  0  0  0  0  0  0  0  0  0  0  0
    6.8258  -16.5826   26.5169 O   0  0  0  0  0  0  0  0  0  0  0  0
  2  3  1  1
  2  1  1  0
  4  2  1  0
  4  5  1  1
  6  7  2  0
  6  4  1  0
  9  8  1  0
 10  9  2  0
 11  9  1  0
 12 11  1  0
 13 12  1  0
 13 14  1  0
 15 14  1  6
 15 16  1  0
 16  6  1  0
 17 15  1  0
 18 17  2  0
 19 20  1  0
 20 21  1  0
 21 23  1  0
 21 22  1  6
 23 24  1  1
 24 17  1  0
 25 23  1  0
 25 26  1  0
 27 25  2  0
M  END
$$$$
