VRI.pdb
     RDKit          3D

 27 26  0  0  1  0  0  0  0  0999 V2000
    8.7555  -12.5413   18.0778 C   0  0  0  0  0  0  0  0  0  0  0  0
    8.3325  -13.2042   19.3494 C   0  0  1  0  0  0  0  0  0  0  0  0
    6.8567  -12.9556   19.5630 C   0  0  0  0  0  0  0  0  0  0  0  0
    8.5675  -14.6991   19.2870 C   0  0  2  0  0  0  0  0  0  0  0  0
    7.8528  -15.1351   18.0679 N   0  0  0  0  0  0  0  0  0  0  0  0
    7.9983  -15.4315   20.4290 C   0  0  0  0  0  0  0  0  0  0  0  0
    6.9487  -16.1357   20.2028 O   0  0  0  0  0  0  0  0  0  0  0  0
   10.4469  -19.2221   19.3133 N   0  0  0  0  0  0  0  0  0  0  0  0
   11.3513  -19.7313   20.3004 C   0  0  0  0  0  0  0  0  0  0  0  0
   12.5662  -20.0371   20.0053 N   0  0  0  0  0  0  0  0  0  0  0  0
   10.9557  -19.9237   21.6510 N   0  0  0  0  0  0  0  0  0  0  0  0
    9.6189  -19.5427   22.0554 C   0  0  0  0  0  0  0  0  0  0  0  0
    9.4778  -18.0466   22.2048 C   0  0  0  0  0  0  0  0  0  0  0  0
    8.1107  -17.6583   22.6450 C   0  0  0  0  0  0  0  0  0  0  0  0
    7.9336  -16.1469   22.8443 C   0  0  2  0  0  0  0  0  0  0  0  0
    8.5253  -15.4144   21.7494 N   0  0  0  0  0  0  0  0  0  0  0  0
    8.6727  -15.8905   24.1254 C   0  0  0  0  0  0  0  0  0  0  0  0
    9.9189  -16.0253   24.1035 O   0  0  0  0  0  0  0  0  0  0  0  0
   13.1718  -20.4150   20.7597 C   0  0  0  0  0  0  0  0  0  0  0  0
    6.2221  -11.7787   26.3972 C   0  0  0  0  0  0  0  0  0  0  0  0
    7.2647  -12.6976   25.7458 C   0  0  2  0  0  0  0  0  0  0  0  0
    7.7724  -13.5879   26.8297 C   0  0  0  0  0  0  0  0  0  0  0  0
    8.3829  -12.8113   27.9567 C   0  0  2  0  0  0  0  0  0  0  0  0
    8.6853  -14.6909   26.3467 N   0  0  0  0  0  0  0  0  0  0  0  0
    8.0665  -15.5148   25.3301 C   0  0  0  0  0  0  0  0  0  0  0  0
    9.0873  -15.5649   27.4624 O   0  0  0  0  0  0  0  0  0  0  0  0
   10.1701  -15.2459   28.2556 O   0  0  0  0  0  0  0  0  0  0  0  0
  2  3  1  6
  2  1  1  0
  4  2  1  0
  4  5  1  6
  6  7  2  0
  6  4  1  0
  9  8  1  0
 10  9  2  0
 11  9  1  0
 12 11  1  0
 13 12  1  0
 13 14  1  0
 15 14  1  6
 15 16  1  0
 16  6  1  0
 17 15  1  0
 18 17  2  0
 19 20  1  0
 20 21  1  0
 21 23  1  0
 21 22  1  1
 23 24  1  6
 24 17  1  0
 25 23  1  0
 25 26  1  0
 27 25  2  0
M  END
$$$$
