VRI.pdb
     RDKit          3D

 27 26  0  0  1  0  0  0  0  0999 V2000
    8.5778  -12.4786   17.9710 C   0  0  0  0  0  0  0  0  0  0  0  0
    8.5765  -13.1067   19.3278 C   0  0  1  0  0  0  0  0  0  0  0  0
    7.2431  -12.8404   19.9885 C   0  0  0  0  0  0  0  0  0  0  0  0
    8.7791  -14.6046   19.2332 C   0  0  2  0  0  0  0  0  0  0  0  0
    7.8044  -15.0459   18.2123 N   0  0  0  0  0  0  0  0  0  0  0  0
    8.4764  -15.3186   20.4835 C   0  0  0  0  0  0  0  0  0  0  0  0
    7.2485  -15.6320   20.6908 O   0  0  0  0  0  0  0  0  0  0  0  0
    9.8543  -20.3303   19.2961 N   0  0  0  0  0  0  0  0  0  0  0  0
    9.8341  -21.1658   20.4592 C   0  0  0  0  0  0  0  0  0  0  0  0
    9.1946  -22.2827   20.4738 N   0  0  0  0  0  0  0  0  0  0  0  0
   10.5167  -20.8065   21.6520 N   0  0  0  0  0  0  0  0  0  0  0  0
   11.1824  -19.5230   21.7241 C   0  0  0  0  0  0  0  0  0  0  0  0
   10.2172  -18.3746   21.5500 C   0  0  0  0  0  0  0  0  0  0  0  0
    9.9831  -17.6468   22.8263 C   0  0  0  0  0  0  0  0  0  0  0  0
    9.1016  -16.4000   22.6719 C   0  0  2  0  0  0  0  0  0  0  0  0
    9.4386  -15.6822   21.4649 N   0  0  0  0  0  0  0  0  0  0  0  0
    9.4460  -15.5949   23.8911 C   0  0  0  0  0  0  0  0  0  0  0  0
   10.5241  -14.9554   23.8683 O   0  0  0  0  0  0  0  0  0  0  0  0
    9.1557  -22.8116   21.3668 C   0  0  0  0  0  0  0  0  0  0  0  0
    5.6276  -12.7008   26.0704 C   0  0  0  0  0  0  0  0  0  0  0  0
    6.9791  -13.1547   25.5021 C   0  0  2  0  0  0  0  0  0  0  0  0
    7.6710  -13.8862   26.6028 C   0  0  0  0  0  0  0  0  0  0  0  0
    7.9453  -13.0019   27.7812 C   0  0  2  0  0  0  0  0  0  0  0  0
    8.9057  -14.6387   26.1642 N   0  0  0  0  0  0  0  0  0  0  0  0
    8.6495  -15.5130   25.0394 C   0  0  0  0  0  0  0  0  0  0  0  0
    9.4407  -15.4561   27.2669 O   0  0  0  0  0  0  0  0  0  0  0  0
   10.3719  -14.9382   28.1435 O   0  0  0  0  0  0  0  0  0  0  0  0
  2  3  1  6
  2  1  1  0
  4  2  1  0
  4  5  1  6
  6  7  2  0
  6  4  1  0
  9  8  1  0
 10  9  2  0
 11  9  1  0
 12 11  1  0
 13 12  1  0
 13 14  1  0
 15 14  1  1
 15 16  1  0
 16  6  1  0
 17 15  1  0
 18 17  2  0
 19 20  1  0
 20 21  1  0
 21 23  1  0
 21 22  1  1
 23 24  1  6
 24 17  1  0
 25 23  1  0
 25 26  1  0
 27 25  2  0
M  END
$$$$
