VRI.pdb
     RDKit          3D

 27 26  0  0  1  0  0  0  0  0999 V2000
    6.7577  -12.9556   19.5957 C   0  0  0  0  0  0  0  0  0  0  0  0
    8.2008  -12.9521   19.2049 C   0  0  1  0  0  0  0  0  0  0  0  0
    8.9882  -12.1937   20.2491 C   0  0  0  0  0  0  0  0  0  0  0  0
    8.7440  -14.3633   19.1197 C   0  0  2  0  0  0  0  0  0  0  0  0
    8.0103  -14.9744   17.9904 N   0  0  0  0  0  0  0  0  0  0  0  0
    8.4753  -15.1699   20.3205 C   0  0  0  0  0  0  0  0  0  0  0  0
    7.2782  -15.6100   20.4688 O   0  0  0  0  0  0  0  0  0  0  0  0
   12.7555  -18.6868   19.3185 N   0  0  0  0  0  0  0  0  0  0  0  0
   11.9958  -19.8999   19.3712 C   0  0  0  0  0  0  0  0  0  0  0  0
   11.9662  -20.7184   18.3783 N   0  0  0  0  0  0  0  0  0  0  0  0
   11.2389  -20.2610   20.5176 N   0  0  0  0  0  0  0  0  0  0  0  0
   11.2157  -19.3684   21.6571 C   0  0  0  0  0  0  0  0  0  0  0  0
   10.2907  -18.1950   21.4378 C   0  0  0  0  0  0  0  0  0  0  0  0
   10.0657  -17.4229   22.6896 C   0  0  0  0  0  0  0  0  0  0  0  0
    9.1175  -16.2289   22.5150 C   0  0  2  0  0  0  0  0  0  0  0  0
    9.4388  -15.4925   21.3149 N   0  0  0  0  0  0  0  0  0  0  0  0
    9.3885  -15.4057   23.7407 C   0  0  0  0  0  0  0  0  0  0  0  0
   10.4443  -14.7297   23.7536 O   0  0  0  0  0  0  0  0  0  0  0  0
   11.4134  -21.5916   18.4813 C   0  0  0  0  0  0  0  0  0  0  0  0
    5.6706  -12.3414   25.8658 C   0  0  0  0  0  0  0  0  0  0  0  0
    6.9827  -12.9236   25.3226 C   0  0  2  0  0  0  0  0  0  0  0  0
    7.5754  -13.7250   26.4325 C   0  0  0  0  0  0  0  0  0  0  0  0
    7.8370  -12.8924   27.6508 C   0  0  2  0  0  0  0  0  0  0  0  0
    8.7878  -14.5332   26.0321 N   0  0  0  0  0  0  0  0  0  0  0  0
    8.5475  -15.3451   24.8581 C   0  0  0  0  0  0  0  0  0  0  0  0
    9.2083  -15.4246   27.1270 O   0  0  0  0  0  0  0  0  0  0  0  0
   10.1518  -15.0172   28.0475 O   0  0  0  0  0  0  0  0  0  0  0  0
  2  3  1  1
  2  1  1  0
  4  2  1  0
  4  5  1  6
  6  7  2  0
  6  4  1  0
  9  8  1  0
 10  9  2  0
 11  9  1  0
 12 11  1  0
 13 12  1  0
 13 14  1  0
 15 14  1  1
 15 16  1  0
 16  6  1  0
 17 15  1  0
 18 17  2  0
 19 20  1  0
 20 21  1  0
 21 23  1  0
 21 22  1  1
 23 24  1  6
 24 17  1  0
 25 23  1  0
 25 26  1  0
 27 25  2  0
M  END
$$$$
