VRI.pdb
     RDKit          3D

 27 26  0  0  1  0  0  0  0  0999 V2000
    7.4326  -12.6077   19.5147 C   0  0  0  0  0  0  0  0  0  0  0  0
    7.7781  -13.8921   18.8319 C   0  0  1  0  0  0  0  0  0  0  0  0
    8.4934  -13.5805   17.5370 C   0  0  0  0  0  0  0  0  0  0  0  0
    8.6890  -14.7389   19.6963 C   0  0  2  0  0  0  0  0  0  0  0  0
    8.7641  -16.0376   18.9927 N   0  0  0  0  0  0  0  0  0  0  0  0
    8.1554  -14.9874   21.0447 C   0  0  0  0  0  0  0  0  0  0  0  0
    8.0408  -13.9707   21.8205 O   0  0  0  0  0  0  0  0  0  0  0  0
    6.9961  -21.2474   27.3579 N   0  0  0  0  0  0  0  0  0  0  0  0
    8.1453  -20.7741   26.6462 C   0  0  0  0  0  0  0  0  0  0  0  0
    9.3362  -20.9397   27.1058 N   0  0  0  0  0  0  0  0  0  0  0  0
    8.0308  -20.1005   25.4009 N   0  0  0  0  0  0  0  0  0  0  0  0
    6.7231  -19.6788   24.9450 C   0  0  0  0  0  0  0  0  0  0  0  0
    6.6890  -18.2071   24.6078 C   0  0  0  0  0  0  0  0  0  0  0  0
    7.2692  -17.9307   23.2660 C   0  0  0  0  0  0  0  0  0  0  0  0
    7.1963  -16.4537   22.8556 C   0  0  2  0  0  0  0  0  0  0  0  0
    7.7616  -16.2601   21.5408 N   0  0  0  0  0  0  0  0  0  0  0  0
    8.0279  -15.7745   23.9046 C   0  0  0  0  0  0  0  0  0  0  0  0
    9.2733  -15.8311   23.7722 O   0  0  0  0  0  0  0  0  0  0  0  0
   10.1333  -20.6100   26.5273 C   0  0  0  0  0  0  0  0  0  0  0  0
    6.9071  -10.4623   26.4175 C   0  0  0  0  0  0  0  0  0  0  0  0
    7.9229  -11.6113   26.4792 C   0  0  2  0  0  0  0  0  0  0  0  0
    7.2683  -12.7832   25.8285 C   0  0  0  0  0  0  0  0  0  0  0  0
    5.9619  -13.1298   26.4759 C   0  0  2  0  0  0  0  0  0  0  0  0
    8.1643  -13.9916   25.6867 N   0  0  0  0  0  0  0  0  0  0  0  0
    7.5080  -15.0897   25.0093 C   0  0  0  0  0  0  0  0  0  0  0  0
    8.6123  -14.4697   27.0061 O   0  0  0  0  0  0  0  0  0  0  0  0
    8.2770  -15.7315   27.4521 O   0  0  0  0  0  0  0  0  0  0  0  0
  2  3  1  6
  2  1  1  0
  4  2  1  0
  4  5  1  6
  6  7  2  0
  6  4  1  0
  9  8  1  0
 10  9  2  0
 11  9  1  0
 12 11  1  0
 13 12  1  0
 13 14  1  0
 15 14  1  1
 15 16  1  0
 16  6  1  0
 17 15  1  0
 18 17  2  0
 19 20  1  0
 20 21  1  0
 21 23  1  0
 21 22  1  6
 23 24  1  1
 24 17  1  0
 25 23  1  0
 25 26  1  0
 27 25  2  0
M  END
$$$$
