VRI.pdb
     RDKit          3D

 27 26  0  0  1  0  0  0  0  0999 V2000
    8.6048  -12.5647   20.1664 C   0  0  0  0  0  0  0  0  0  0  0  0
    7.8553  -13.3832   19.1647 C   0  0  1  0  0  0  0  0  0  0  0  0
    8.1032  -12.8156   17.7857 C   0  0  0  0  0  0  0  0  0  0  0  0
    8.3189  -14.8250   19.1851 C   0  0  2  0  0  0  0  0  0  0  0  0
    7.4299  -15.5129   18.2241 N   0  0  0  0  0  0  0  0  0  0  0  0
    8.1566  -15.4759   20.4945 C   0  0  0  0  0  0  0  0  0  0  0  0
    6.9548  -15.7052   20.8843 O   0  0  0  0  0  0  0  0  0  0  0  0
    8.4753  -21.2296   22.3599 N   0  0  0  0  0  0  0  0  0  0  0  0
    9.5494  -21.7049   21.5404 C   0  0  0  0  0  0  0  0  0  0  0  0
    9.4552  -22.8058   20.8801 N   0  0  0  0  0  0  0  0  0  0  0  0
   10.7694  -20.9883   21.4140 N   0  0  0  0  0  0  0  0  0  0  0  0
   10.9767  -19.8019   22.2171 C   0  0  0  0  0  0  0  0  0  0  0  0
    9.8363  -18.8211   22.0824 C   0  0  0  0  0  0  0  0  0  0  0  0
   10.0697  -17.5847   22.8764 C   0  0  0  0  0  0  0  0  0  0  0  0
    9.0227  -16.4893   22.6328 C   0  0  2  0  0  0  0  0  0  0  0  0
    9.2261  -15.8649   21.3466 N   0  0  0  0  0  0  0  0  0  0  0  0
    9.2870  -15.5211   23.7491 C   0  0  0  0  0  0  0  0  0  0  0  0
   10.3243  -14.8219   23.6661 O   0  0  0  0  0  0  0  0  0  0  0  0
   10.2904  -23.1352   20.3581 C   0  0  0  0  0  0  0  0  0  0  0  0
    6.6652  -11.2188   26.7275 C   0  0  0  0  0  0  0  0  0  0  0  0
    7.8081  -12.2246   26.9218 C   0  0  2  0  0  0  0  0  0  0  0  0
    7.5871  -13.3071   25.9195 C   0  0  0  0  0  0  0  0  0  0  0  0
    6.2174  -13.9053   26.0295 C   0  0  2  0  0  0  0  0  0  0  0  0
    8.6645  -14.3664   25.9061 N   0  0  0  0  0  0  0  0  0  0  0  0
    8.4589  -15.3507   24.8649 C   0  0  0  0  0  0  0  0  0  0  0  0
    8.7222  -15.0719   27.1981 O   0  0  0  0  0  0  0  0  0  0  0  0
    8.4085  -16.4125   27.2862 O   0  0  0  0  0  0  0  0  0  0  0  0
  2  3  1  6
  2  1  1  0
  4  2  1  0
  4  5  1  6
  6  7  2  0
  6  4  1  0
  9  8  1  0
 10  9  2  0
 11  9  1  0
 12 11  1  0
 13 12  1  0
 13 14  1  0
 15 14  1  1
 15 16  1  0
 16  6  1  0
 17 15  1  0
 18 17  2  0
 19 20  1  0
 20 21  1  0
 21 23  1  0
 21 22  1  6
 23 24  1  1
 24 17  1  0
 25 23  1  0
 25 26  1  0
 27 25  2  0
M  END
$$$$
