YHG.pdb
     RDKit          3D

 27 28  0  0  1  0  0  0  0  0999 V2000
   21.7833  -10.5622    6.2933 O   0  0  0  0  0  0  0  0  0  0  0  0
   20.7702  -11.4761    6.5349 C   0  0  0  0  0  0  0  0  0  0  0  0
   19.5193  -11.3663    5.9626 C   0  0  0  0  0  0  0  0  0  0  0  0
   18.5516  -12.3218    6.2513 C   0  0  0  0  0  0  0  0  0  0  0  0
   18.8315  -13.3624    7.0937 C   0  0  0  0  0  0  0  0  0  0  0  0
   17.8109  -14.3817    7.4063 C   0  0  0  0  0  0  0  0  0  0  0  0
   17.4967  -15.1526    6.1179 C   0  0  2  0  0  0  0  0  0  0  0  0
   16.3264  -14.5487    5.5441 N   0  0  0  0  0  0  0  0  0  0  0  0
   17.2163  -16.5582    6.5477 C   0  0  0  0  0  0  0  0  0  0  0  0
   16.1315  -16.9206    7.0078 O   0  0  0  0  0  0  0  0  0  0  0  0
   20.0793  -13.4926    7.6790 C   0  0  0  0  0  0  0  0  0  0  0  0
   21.0140  -12.5386    7.3783 C   0  0  0  0  0  0  0  0  0  0  0  0
   18.2379  -17.5152    6.4220 N   0  0  0  0  0  0  0  0  0  0  0  0
   18.2083  -18.8807    6.7157 C   0  0  1  0  0  0  0  0  0  0  0  0
   18.4346  -19.9169    5.6808 C   0  0  0  0  0  0  0  0  0  0  0  0
   17.3269  -19.9321    4.6787 C   0  0  0  0  0  0  0  0  0  0  0  0
   16.2117  -19.0708    4.7112 C   0  0  0  0  0  0  0  0  0  0  0  0
   15.4004  -19.3233    3.6878 N   0  0  0  0  0  0  0  0  0  0  0  0
   15.9545  -20.3293    2.9830 C   0  0  0  0  0  0  0  0  0  0  0  0
   17.0907  -20.6676    3.5921 N   0  0  0  0  0  0  0  0  0  0  0  0
   18.9298  -19.1604    7.9599 C   0  0  0  0  0  0  0  0  0  0  0  0
   20.1515  -18.7924    8.0690 O   0  0  0  0  0  0  0  0  0  0  0  0
   18.4081  -19.8150    9.0955 N   0  0  0  0  0  0  0  0  0  0  0  0
   19.2431  -20.2437   10.2099 C   0  0  0  0  0  0  0  0  0  0  0  0
   19.3302  -19.1933   11.2474 C   0  0  0  0  0  0  0  0  0  0  0  0
   18.7604  -18.1018   11.0517 O   0  0  0  0  0  0  0  0  0  0  0  0
   20.0243  -19.3862   12.4265 O   0  0  0  0  0  0  0  0  0  0  0  0
  1  2  1  0
  2 12  2  0
  3  4  2  0
  3  2  1  0
  4  5  1  0
  5  6  1  0
  5 11  2  0
  6  7  1  0
  7  9  1  0
  7  8  1  1
  9 10  2  0
 12 11  1  0
 13 14  1  0
 13  9  1  0
 14 21  1  0
 14 15  1  6
 16 15  1  0
 17 16  2  0
 18 17  1  0
 19 18  1  0
 19 20  2  0
 20 16  1  0
 21 22  2  0
 21 23  1  0
 23 24  1  0
 24 25  1  0
 25 27  1  0
 26 25  2  0
M  END
$$$$
