YHG.pdb
     RDKit          3D

 27 28  0  0  1  0  0  0  0  0999 V2000
   29.2582  -20.5427   -3.4197 O   0  0  0  0  0  0  0  0  0  0  0  0
   28.4790  -20.2938   -4.5381 C   0  0  0  0  0  0  0  0  0  0  0  0
   27.2648  -20.9144   -4.7500 C   0  0  0  0  0  0  0  0  0  0  0  0
   26.5372  -20.6149   -5.8962 C   0  0  0  0  0  0  0  0  0  0  0  0
   27.0157  -19.7147   -6.8080 C   0  0  0  0  0  0  0  0  0  0  0  0
   26.2508  -19.3901   -8.0278 C   0  0  0  0  0  0  0  0  0  0  0  0
   26.4343  -20.5406   -9.0258 C   0  0  2  0  0  0  0  0  0  0  0  0
   27.8447  -20.7995   -9.1106 N   0  0  0  0  0  0  0  0  0  0  0  0
   25.9054  -20.0312  -10.3295 C   0  0  0  0  0  0  0  0  0  0  0  0
   25.9809  -18.8500  -10.6743 O   0  0  0  0  0  0  0  0  0  0  0  0
   28.2311  -19.0801   -6.6162 C   0  0  0  0  0  0  0  0  0  0  0  0
   28.9275  -19.3927   -5.4797 C   0  0  0  0  0  0  0  0  0  0  0  0
   25.2914  -20.9416  -11.2068 N   0  0  0  0  0  0  0  0  0  0  0  0
   24.4292  -20.6907  -12.2769 C   0  0  1  0  0  0  0  0  0  0  0  0
   24.8982  -20.6727  -13.6825 C   0  0  0  0  0  0  0  0  0  0  0  0
   26.3901  -20.6817  -13.7555 C   0  0  0  0  0  0  0  0  0  0  0  0
   27.2425  -20.6806  -12.6329 C   0  0  0  0  0  0  0  0  0  0  0  0
   28.5159  -20.6915  -13.0171 N   0  0  0  0  0  0  0  0  0  0  0  0
   28.5221  -20.6998  -14.3646 C   0  0  0  0  0  0  0  0  0  0  0  0
   27.2530  -20.6938  -14.7717 N   0  0  0  0  0  0  0  0  0  0  0  0
   23.1703  -21.4222  -12.1125 C   0  0  0  0  0  0  0  0  0  0  0  0
   23.2064  -22.6663  -11.8111 O   0  0  0  0  0  0  0  0  0  0  0  0
   21.8724  -20.8877  -12.2544 N   0  0  0  0  0  0  0  0  0  0  0  0
   20.6682  -21.6655  -11.9941 C   0  0  0  0  0  0  0  0  0  0  0  0
   20.1950  -22.3442  -13.2200 C   0  0  0  0  0  0  0  0  0  0  0  0
   20.8927  -22.2844  -14.2515 O   0  0  0  0  0  0  0  0  0  0  0  0
   19.0032  -23.0424  -13.2555 O   0  0  0  0  0  0  0  0  0  0  0  0
  1  2  1  0
  2 12  2  0
  3  4  2  0
  3  2  1  0
  4  5  1  0
  5  6  1  0
  5 11  2  0
  6  7  1  0
  7  9  1  0
  7  8  1  6
  9 10  2  0
 12 11  1  0
 13 14  1  0
 13  9  1  0
 14 21  1  0
 14 15  1  6
 16 15  1  0
 17 16  2  0
 18 17  1  0
 19 18  1  0
 19 20  2  0
 20 16  1  0
 21 22  2  0
 21 23  1  0
 23 24  1  0
 24 25  1  0
 25 27  1  0
 26 25  2  0
M  END
$$$$
