YHG.pdb
     RDKit          3D

 27 28  0  0  1  0  0  0  0  0999 V2000
   22.9327  -18.5760  -15.7853 O   0  0  0  0  0  0  0  0  0  0  0  0
   22.9080  -17.2427  -16.1616 C   0  0  0  0  0  0  0  0  0  0  0  0
   23.6733  -16.7497  -17.1987 C   0  0  0  0  0  0  0  0  0  0  0  0
   23.5966  -15.3992  -17.5201 C   0  0  0  0  0  0  0  0  0  0  0  0
   22.7723  -14.5632  -16.8185 C   0  0  0  0  0  0  0  0  0  0  0  0
   22.6840  -13.1283  -17.1520 C   0  0  0  0  0  0  0  0  0  0  0  0
   21.4068  -12.9072  -17.9724 C   0  0  2  0  0  0  0  0  0  0  0  0
   21.5720  -13.6260  -19.2051 N   0  0  0  0  0  0  0  0  0  0  0  0
   21.3365  -11.4330  -18.2189 C   0  0  0  0  0  0  0  0  0  0  0  0
   21.8179  -10.8908  -19.2159 O   0  0  0  0  0  0  0  0  0  0  0  0
   21.9956  -15.0357  -15.7744 C   0  0  0  0  0  0  0  0  0  0  0  0
   22.0897  -16.3691  -15.4783 C   0  0  0  0  0  0  0  0  0  0  0  0
   20.6902  -10.6234  -17.2690 N   0  0  0  0  0  0  0  0  0  0  0  0
   20.4776   -9.2428  -17.2852 C   0  0  1  0  0  0  0  0  0  0  0  0
   19.1855   -8.6468  -17.6992 C   0  0  0  0  0  0  0  0  0  0  0  0
   18.5956   -9.3839  -18.8568 C   0  0  0  0  0  0  0  0  0  0  0  0
   19.1972  -10.4930  -19.4849 C   0  0  0  0  0  0  0  0  0  0  0  0
   18.4334  -10.9328  -20.4811 N   0  0  0  0  0  0  0  0  0  0  0  0
   17.3444  -10.1404  -20.5238 C   0  0  0  0  0  0  0  0  0  0  0  0
   17.4683   -9.2355  -19.5531 N   0  0  0  0  0  0  0  0  0  0  0  0
   21.0247   -8.6185  -16.0778 C   0  0  0  0  0  0  0  0  0  0  0  0
   20.7399   -9.1177  -14.9335 O   0  0  0  0  0  0  0  0  0  0  0  0
   21.8634   -7.4849  -16.0339 N   0  0  0  0  0  0  0  0  0  0  0  0
   22.3312   -6.9000  -14.7842 C   0  0  0  0  0  0  0  0  0  0  0  0
   21.2837   -6.0625  -14.1610 C   0  0  0  0  0  0  0  0  0  0  0  0
   20.2003   -5.9061  -14.7579 O   0  0  0  0  0  0  0  0  0  0  0  0
   21.4703   -5.4485  -12.9372 O   0  0  0  0  0  0  0  0  0  0  0  0
  1  2  1  0
  2 12  2  0
  3  4  2  0
  3  2  1  0
  4  5  1  0
  5  6  1  0
  5 11  2  0
  6  7  1  0
  7  9  1  0
  7  8  1  6
  9 10  2  0
 12 11  1  0
 13 14  1  0
 13  9  1  0
 14 21  1  0
 14 15  1  1
 16 15  1  0
 17 16  2  0
 18 17  1  0
 19 18  1  0
 19 20  2  0
 20 16  1  0
 21 22  2  0
 21 23  1  0
 23 24  1  0
 24 25  1  0
 25 27  1  0
 26 25  2  0
M  END
$$$$
