YHG.pdb
     RDKit          3D

 27 28  0  0  1  0  0  0  0  0999 V2000
   19.9354  -28.1944   -9.1569 O   0  0  0  0  0  0  0  0  0  0  0  0
   20.7563  -29.2943   -9.3481 C   0  0  0  0  0  0  0  0  0  0  0  0
   22.0750  -29.1777   -9.7375 C   0  0  0  0  0  0  0  0  0  0  0  0
   22.8388  -30.3265   -9.9099 C   0  0  0  0  0  0  0  0  0  0  0  0
   22.2933  -31.5625   -9.6968 C   0  0  0  0  0  0  0  0  0  0  0  0
   23.0959  -32.7879   -9.8772 C   0  0  0  0  0  0  0  0  0  0  0  0
   23.1279  -33.1208  -11.3743 C   0  0  2  0  0  0  0  0  0  0  0  0
   21.8611  -33.7162  -11.6973 N   0  0  0  0  0  0  0  0  0  0  0  0
   24.2404  -34.1068  -11.5440 C   0  0  0  0  0  0  0  0  0  0  0  0
   24.0678  -35.2566  -11.9540 O   0  0  0  0  0  0  0  0  0  0  0  0
   20.9728  -31.7035   -9.3057 C   0  0  0  0  0  0  0  0  0  0  0  0
   20.2427  -30.5568   -9.1431 C   0  0  0  0  0  0  0  0  0  0  0  0
   25.5482  -33.7058  -11.2210 N   0  0  0  0  0  0  0  0  0  0  0  0
   26.7551  -34.3751  -11.4384 C   0  0  1  0  0  0  0  0  0  0  0  0
   27.9126  -33.7241  -12.0960 C   0  0  0  0  0  0  0  0  0  0  0  0
   27.6967  -33.5954  -13.5684 C   0  0  0  0  0  0  0  0  0  0  0  0
   26.6045  -34.1510  -14.2649 C   0  0  0  0  0  0  0  0  0  0  0  0
   26.6873  -33.8659  -15.5614 N   0  0  0  0  0  0  0  0  0  0  0  0
   27.8069  -33.1364  -15.7350 C   0  0  0  0  0  0  0  0  0  0  0  0
   28.3815  -32.9931  -14.5410 N   0  0  0  0  0  0  0  0  0  0  0  0
   27.1410  -35.1482  -10.2551 C   0  0  0  0  0  0  0  0  0  0  0  0
   28.1080  -35.9830  -10.3433 O   0  0  0  0  0  0  0  0  0  0  0  0
   26.5428  -35.0721   -8.9797 N   0  0  0  0  0  0  0  0  0  0  0  0
   26.9494  -35.9213   -7.8678 C   0  0  0  0  0  0  0  0  0  0  0  0
   28.0388  -35.2954   -7.0877 C   0  0  0  0  0  0  0  0  0  0  0  0
   28.5454  -34.2338   -7.5012 O   0  0  0  0  0  0  0  0  0  0  0  0
   28.5115  -35.8522   -5.9147 O   0  0  0  0  0  0  0  0  0  0  0  0
  1  2  1  0
  2 12  2  0
  3  4  2  0
  3  2  1  0
  4  5  1  0
  5  6  1  0
  5 11  2  0
  6  7  1  0
  7  9  1  0
  7  8  1  1
  9 10  2  0
 12 11  1  0
 13 14  1  0
 13  9  1  0
 14 21  1  0
 14 15  1  1
 16 15  1  0
 17 16  2  0
 18 17  1  0
 19 18  1  0
 19 20  2  0
 20 16  1  0
 21 22  2  0
 21 23  1  0
 23 24  1  0
 24 25  1  0
 25 27  1  0
 26 25  2  0
M  END
$$$$
