ICF.pdb
     RDKit          3D

 26 26  0  0  1  0  0  0  0  0999 V2000
    7.6666  -11.7622   19.8514 C   0  0  0  0  0  0  0  0  0  0  0  0
    7.5919  -13.2319   19.6104 C   0  0  0  0  0  0  0  0  0  0  0  0
    7.8829  -14.0834   20.8015 C   0  0  2  0  0  0  0  0  0  0  0  0
    9.2006  -13.8182   21.4499 C   0  0  0  0  0  0  0  0  0  0  0  0
    7.7418  -15.5684   20.4944 C   0  0  2  0  0  0  0  0  0  0  0  0
    6.3944  -15.7750   19.9957 N   0  0  0  0  0  0  0  0  0  0  0  0
    7.8724  -16.3671   21.7642 C   0  0  0  0  0  0  0  0  0  0  0  0
    7.0046  -16.3056   22.6750 O   0  0  0  0  0  0  0  0  0  0  0  0
    8.9832  -17.2247   21.9864 N   0  0  0  0  0  0  0  0  0  0  0  0
    9.2206  -17.9396   23.2055 C   0  0  1  0  0  0  0  0  0  0  0  0
    9.6005  -19.3869   22.9619 C   0  0  0  0  0  0  0  0  0  0  0  0
   10.0257  -20.1948   24.5234 S   0  0  0  0  0  0  0  0  0  0  0  0
   10.2120  -17.2953   24.0817 C   0  0  0  0  0  0  0  0  0  0  0  0
   11.3707  -17.1020   23.6504 O   0  0  0  0  0  0  0  0  0  0  0  0
    9.9180  -16.8791   25.4009 N   0  0  0  0  0  0  0  0  0  0  0  0
   10.9436  -16.4365   26.2911 C   0  0  1  0  0  0  0  0  0  0  0  0
   11.1083  -14.9268   26.1878 C   0  0  0  0  0  0  0  0  0  0  0  0
    9.9022  -14.2115   26.6478 C   0  0  0  0  0  0  0  0  0  0  0  0
    9.8423  -13.7268   27.9397 C   0  0  0  0  0  0  0  0  0  0  0  0
    8.7370  -13.0500   28.4214 C   0  0  0  0  0  0  0  0  0  0  0  0
    7.6802  -12.8708   27.5593 C   0  0  0  0  0  0  0  0  0  0  0  0
    7.7378  -13.3562   26.2625 C   0  0  0  0  0  0  0  0  0  0  0  0
    8.8416  -14.0311   25.7842 C   0  0  0  0  0  0  0  0  0  0  0  0
   10.7785  -16.8854   27.6721 C   0  0  0  0  0  0  0  0  0  0  0  0
    9.6651  -17.5819   28.1054 O   0  0  0  0  0  0  0  0  0  0  0  0
   11.6741  -16.6371   28.5121 O   0  0  0  0  0  0  0  0  0  0  0  0
  2  1  1  0
  3  2  1  0
  3  4  1  6
  5  6  1  1
  5  3  1  0
  7  5  1  0
  8  7  2  0
  9  7  1  0
 10 11  1  6
 10  9  1  0
 11 12  1  0
 13 14  2  0
 13 10  1  0
 15 13  1  0
 16 15  1  0
 17 18  1  0
 16 17  1  1
 18 19  2  0
 19 20  1  0
 21 20  2  0
 22 21  1  0
 23 18  1  0
 23 22  2  0
 24 16  1  0
 24 25  1  0
 26 24  2  0
M  END
$$$$
