ICF.pdb
     RDKit          3D

 26 26  0  0  1  0  0  0  0  0999 V2000
    7.6880  -11.7190   19.8913 C   0  0  0  0  0  0  0  0  0  0  0  0
    7.7131  -13.2014   19.7313 C   0  0  0  0  0  0  0  0  0  0  0  0
    7.7678  -13.9741   21.0073 C   0  0  2  0  0  0  0  0  0  0  0  0
    8.8494  -13.5525   21.9452 C   0  0  0  0  0  0  0  0  0  0  0  0
    7.8418  -15.4761   20.7667 C   0  0  2  0  0  0  0  0  0  0  0  0
    6.6115  -15.8629   20.1006 N   0  0  0  0  0  0  0  0  0  0  0  0
    7.8804  -16.2032   22.0847 C   0  0  0  0  0  0  0  0  0  0  0  0
    6.8458  -16.3504   22.7879 O   0  0  0  0  0  0  0  0  0  0  0  0
    9.0889  -16.7540   22.5893 N   0  0  0  0  0  0  0  0  0  0  0  0
    9.2054  -17.4287   23.8483 C   0  0  1  0  0  0  0  0  0  0  0  0
    9.9884  -18.7224   23.7401 C   0  0  0  0  0  0  0  0  0  0  0  0
    9.9619  -19.6051   25.3188 S   0  0  0  0  0  0  0  0  0  0  0  0
    9.7634  -16.5858   24.9179 C   0  0  0  0  0  0  0  0  0  0  0  0
   10.7896  -15.9083   24.6859 O   0  0  0  0  0  0  0  0  0  0  0  0
    9.1918  -16.5020   26.2087 N   0  0  0  0  0  0  0  0  0  0  0  0
    9.8038  -15.7380   27.2490 C   0  0  1  0  0  0  0  0  0  0  0  0
    8.7446  -14.9604   28.0173 C   0  0  0  0  0  0  0  0  0  0  0  0
    8.0857  -13.9480   27.1694 C   0  0  0  0  0  0  0  0  0  0  0  0
    8.7229  -12.7508   26.9088 C   0  0  0  0  0  0  0  0  0  0  0  0
    8.1509  -11.7686   26.1213 C   0  0  0  0  0  0  0  0  0  0  0  0
    6.9056  -12.0251   25.5961 C   0  0  0  0  0  0  0  0  0  0  0  0
    6.2641  -13.2257   25.8561 C   0  0  0  0  0  0  0  0  0  0  0  0
    6.8368  -14.2039   26.6420 C   0  0  0  0  0  0  0  0  0  0  0  0
   10.6767  -16.5103   28.1306 C   0  0  0  0  0  0  0  0  0  0  0  0
   11.5281  -15.9199   29.0468 O   0  0  0  0  0  0  0  0  0  0  0  0
   10.6660  -17.7615   28.0669 O   0  0  0  0  0  0  0  0  0  0  0  0
  2  1  1  0
  3  2  1  0
  3  4  1  6
  5  6  1  1
  5  3  1  0
  7  5  1  0
  8  7  2  0
  9  7  1  0
 10 11  1  6
 10  9  1  0
 11 12  1  0
 13 14  2  0
 13 10  1  0
 15 13  1  0
 16 15  1  0
 17 18  1  0
 16 17  1  1
 18 19  2  0
 19 20  1  0
 21 20  2  0
 22 21  1  0
 23 18  1  0
 23 22  2  0
 24 16  1  0
 24 25  1  0
 26 24  2  0
M  END
$$$$
