ICF.pdb
     RDKit          3D

 26 26  0  0  1  0  0  0  0  0999 V2000
    6.3656  -22.2557   24.2440 C   0  0  0  0  0  0  0  0  0  0  0  0
    6.3038  -21.4020   23.0229 C   0  0  0  0  0  0  0  0  0  0  0  0
    7.0738  -20.1256   23.1042 C   0  0  2  0  0  0  0  0  0  0  0  0
    6.8252  -19.3257   24.3393 C   0  0  0  0  0  0  0  0  0  0  0  0
    6.8757  -19.2555   21.8701 C   0  0  2  0  0  0  0  0  0  0  0  0
    7.2543  -20.0546   20.7191 N   0  0  0  0  0  0  0  0  0  0  0  0
    7.8123  -18.0776   21.9201 C   0  0  0  0  0  0  0  0  0  0  0  0
    9.0490  -18.2086   21.7200 O   0  0  0  0  0  0  0  0  0  0  0  0
    7.3372  -16.7673   22.1958 N   0  0  0  0  0  0  0  0  0  0  0  0
    8.1766  -15.6117   22.3129 C   0  0  1  0  0  0  0  0  0  0  0  0
    7.5447  -14.3747   21.7052 C   0  0  0  0  0  0  0  0  0  0  0  0
    5.7411  -14.5060   21.7496 S   0  0  0  0  0  0  0  0  0  0  0  0
    8.6081  -15.3355   23.6925 C   0  0  0  0  0  0  0  0  0  0  0  0
    8.8524  -14.1552   24.0289 O   0  0  0  0  0  0  0  0  0  0  0  0
    8.7620  -16.3478   24.6679 N   0  0  0  0  0  0  0  0  0  0  0  0
    9.2408  -16.0539   25.9811 C   0  0  1  0  0  0  0  0  0  0  0  0
    8.0843  -15.6295   26.8752 C   0  0  0  0  0  0  0  0  0  0  0  0
    7.7577  -14.2001   26.7067 C   0  0  0  0  0  0  0  0  0  0  0  0
    8.7498  -13.2488   26.8410 C   0  0  0  0  0  0  0  0  0  0  0  0
    8.4983  -11.8972   26.6932 C   0  0  0  0  0  0  0  0  0  0  0  0
    7.2069  -11.5224   26.4031 C   0  0  0  0  0  0  0  0  0  0  0  0
    6.2097  -12.4752   26.2678 C   0  0  0  0  0  0  0  0  0  0  0  0
    6.4629  -13.8230   26.4157 C   0  0  0  0  0  0  0  0  0  0  0  0
   10.0476  -17.1149   26.5803 C   0  0  0  0  0  0  0  0  0  0  0  0
   10.3615  -18.2850   25.9132 O   0  0  0  0  0  0  0  0  0  0  0  0
   10.4814  -16.9750   27.7473 O   0  0  0  0  0  0  0  0  0  0  0  0
  2  1  1  0
  3  2  1  0
  3  4  1  1
  5  6  1  6
  5  3  1  0
  7  5  1  0
  8  7  2  0
  9  7  1  0
 10 11  1  1
 10  9  1  0
 11 12  1  0
 13 14  2  0
 13 10  1  0
 15 13  1  0
 16 15  1  0
 17 18  1  0
 16 17  1  1
 18 19  2  0
 19 20  1  0
 21 20  2  0
 22 21  1  0
 23 18  1  0
 23 22  2  0
 24 16  1  0
 24 25  1  0
 26 24  2  0
M  END
$$$$
