ICF.pdb
     RDKit          3D

 26 26  0  0  1  0  0  0  0  0999 V2000
    7.7157  -11.8824   19.2068 C   0  0  0  0  0  0  0  0  0  0  0  0
    8.0752  -13.3293   19.1764 C   0  0  0  0  0  0  0  0  0  0  0  0
    7.9334  -14.0434   20.4797 C   0  0  2  0  0  0  0  0  0  0  0  0
    8.7187  -13.4522   21.6026 C   0  0  0  0  0  0  0  0  0  0  0  0
    8.2378  -15.5305   20.3560 C   0  0  2  0  0  0  0  0  0  0  0  0
    7.2717  -16.0883   19.4274 N   0  0  0  0  0  0  0  0  0  0  0  0
    8.0205  -16.2083   21.6829 C   0  0  0  0  0  0  0  0  0  0  0  0
    6.8645  -16.4720   22.1080 O   0  0  0  0  0  0  0  0  0  0  0  0
    9.1139  -16.5787   22.5111 N   0  0  0  0  0  0  0  0  0  0  0  0
    8.9808  -17.2176   23.7869 C   0  0  1  0  0  0  0  0  0  0  0  0
    9.4529  -18.6582   23.7635 C   0  0  0  0  0  0  0  0  0  0  0  0
   11.1381  -18.7551   23.1134 S   0  0  0  0  0  0  0  0  0  0  0  0
    9.6372  -16.4863   24.8824 C   0  0  0  0  0  0  0  0  0  0  0  0
   10.7252  -15.9085   24.6622 O   0  0  0  0  0  0  0  0  0  0  0  0
    9.0943  -16.4026   26.1855 N   0  0  0  0  0  0  0  0  0  0  0  0
    9.7789  -15.7218   27.2382 C   0  0  1  0  0  0  0  0  0  0  0  0
    8.7885  -14.9232   28.0738 C   0  0  0  0  0  0  0  0  0  0  0  0
    8.0543  -13.9364   27.2582 C   0  0  0  0  0  0  0  0  0  0  0  0
    8.5865  -12.6775   27.0600 C   0  0  0  0  0  0  0  0  0  0  0  0
    7.9408  -11.7158   26.3050 C   0  0  0  0  0  0  0  0  0  0  0  0
    6.7305  -12.0574   25.7475 C   0  0  0  0  0  0  0  0  0  0  0  0
    6.1943  -13.3200   25.9449 C   0  0  0  0  0  0  0  0  0  0  0  0
    6.8404  -14.2777   26.6985 C   0  0  0  0  0  0  0  0  0  0  0  0
   10.6328  -16.5804   28.0564 C   0  0  0  0  0  0  0  0  0  0  0  0
   11.5647  -16.0800   28.9473 O   0  0  0  0  0  0  0  0  0  0  0  0
   10.5293  -17.8251   27.9589 O   0  0  0  0  0  0  0  0  0  0  0  0
  2  1  1  0
  3  2  1  0
  3  4  1  1
  5  6  1  6
  5  3  1  0
  7  5  1  0
  8  7  2  0
  9  7  1  0
 10 11  1  6
 10  9  1  0
 11 12  1  0
 13 14  2  0
 13 10  1  0
 15 13  1  0
 16 15  1  0
 17 18  1  0
 16 17  1  1
 18 19  2  0
 19 20  1  0
 21 20  2  0
 22 21  1  0
 23 18  1  0
 23 22  2  0
 24 16  1  0
 24 25  1  0
 26 24  2  0
M  END
$$$$
