ICF.pdb
     RDKit          3D

 26 26  0  0  1  0  0  0  0  0999 V2000
    8.5476  -12.5991   21.0242 C   0  0  0  0  0  0  0  0  0  0  0  0
    8.4207  -13.9038   21.7350 C   0  0  0  0  0  0  0  0  0  0  0  0
    7.4605  -14.8676   21.1206 C   0  0  2  0  0  0  0  0  0  0  0  0
    6.0658  -14.3549   20.9822 C   0  0  0  0  0  0  0  0  0  0  0  0
    7.4542  -16.2099   21.8402 C   0  0  2  0  0  0  0  0  0  0  0  0
    7.0193  -15.9618   23.2026 N   0  0  0  0  0  0  0  0  0  0  0  0
    8.8553  -16.7563   21.9140 C   0  0  0  0  0  0  0  0  0  0  0  0
    9.5501  -16.9336   20.8785 O   0  0  0  0  0  0  0  0  0  0  0  0
    9.4515  -17.0948   23.1585 N   0  0  0  0  0  0  0  0  0  0  0  0
   10.7319  -16.6224   23.5958 C   0  0  1  0  0  0  0  0  0  0  0  0
   11.2989  -15.5571   22.6782 C   0  0  0  0  0  0  0  0  0  0  0  0
   13.0968  -15.7197   22.5646 S   0  0  0  0  0  0  0  0  0  0  0  0
   10.7395  -16.1486   24.9891 C   0  0  0  0  0  0  0  0  0  0  0  0
   11.6710  -15.4072   25.3745 O   0  0  0  0  0  0  0  0  0  0  0  0
    9.7361  -16.4927   25.9244 N   0  0  0  0  0  0  0  0  0  0  0  0
    9.8401  -16.1258   27.3009 C   0  0  1  0  0  0  0  0  0  0  0  0
    8.5095  -15.5772   27.7965 C   0  0  0  0  0  0  0  0  0  0  0  0
    8.0778  -14.4007   27.0172 C   0  0  0  0  0  0  0  0  0  0  0  0
    8.6465  -13.1667   27.2649 C   0  0  0  0  0  0  0  0  0  0  0  0
    8.2790  -12.0328   26.5643 C   0  0  0  0  0  0  0  0  0  0  0  0
    7.3124  -12.1738   25.5958 C   0  0  0  0  0  0  0  0  0  0  0  0
    6.7401  -13.4109   25.3453 C   0  0  0  0  0  0  0  0  0  0  0  0
    7.1085  -14.5407   26.0456 C   0  0  0  0  0  0  0  0  0  0  0  0
   10.3659  -17.1786   28.1675 C   0  0  0  0  0  0  0  0  0  0  0  0
   10.6802  -18.4432   27.7041 O   0  0  0  0  0  0  0  0  0  0  0  0
   10.5456  -16.9425   29.3847 O   0  0  0  0  0  0  0  0  0  0  0  0
  2  1  1  0
  3  2  1  0
  3  4  1  1
  5  6  1  1
  5  3  1  0
  7  5  1  0
  8  7  2  0
  9  7  1  0
 10 11  1  6
 10  9  1  0
 11 12  1  0
 13 14  2  0
 13 10  1  0
 15 13  1  0
 16 15  1  0
 17 18  1  0
 16 17  1  1
 18 19  2  0
 19 20  1  0
 21 20  2  0
 22 21  1  0
 23 18  1  0
 23 22  2  0
 24 16  1  0
 24 25  1  0
 26 24  2  0
M  END
$$$$
