ICF.pdb
     RDKit          3D

 26 26  0  0  1  0  0  0  0  0999 V2000
    7.9194  -11.9444   19.1710 C   0  0  0  0  0  0  0  0  0  0  0  0
    7.8640  -13.4308   19.0642 C   0  0  0  0  0  0  0  0  0  0  0  0
    8.0556  -14.1645   20.3500 C   0  0  2  0  0  0  0  0  0  0  0  0
    9.3244  -13.8439   21.0673 C   0  0  0  0  0  0  0  0  0  0  0  0
    7.9202  -15.6716   20.1772 C   0  0  2  0  0  0  0  0  0  0  0  0
    6.5954  -15.9224   19.6397 N   0  0  0  0  0  0  0  0  0  0  0  0
    7.9894  -16.3479   21.5207 C   0  0  0  0  0  0  0  0  0  0  0  0
    7.0305  -16.2965   22.3358 O   0  0  0  0  0  0  0  0  0  0  0  0
    9.1425  -17.0734   21.9241 N   0  0  0  0  0  0  0  0  0  0  0  0
    9.2981  -17.6957   23.2055 C   0  0  1  0  0  0  0  0  0  0  0  0
    9.9254  -19.0724   23.1067 C   0  0  0  0  0  0  0  0  0  0  0  0
   10.3189  -19.7018   24.7563 S   0  0  0  0  0  0  0  0  0  0  0  0
   10.0361  -16.8701   24.1747 C   0  0  0  0  0  0  0  0  0  0  0  0
   11.2114  -16.5291   23.9132 O   0  0  0  0  0  0  0  0  0  0  0  0
    9.4779  -16.4378   25.4000 N   0  0  0  0  0  0  0  0  0  0  0  0
   10.2825  -15.8436   26.4197 C   0  0  1  0  0  0  0  0  0  0  0  0
   10.2669  -14.3280   26.2796 C   0  0  0  0  0  0  0  0  0  0  0  0
    8.9050  -13.7785   26.4259 C   0  0  0  0  0  0  0  0  0  0  0  0
    8.6567  -12.8009   27.3692 C   0  0  0  0  0  0  0  0  0  0  0  0
    7.4001  -12.2522   27.5476 C   0  0  0  0  0  0  0  0  0  0  0  0
    6.3868  -12.7182   26.7424 C   0  0  0  0  0  0  0  0  0  0  0  0
    6.6333  -13.6992   25.7951 C   0  0  0  0  0  0  0  0  0  0  0  0
    7.8878  -14.2451   25.6190 C   0  0  0  0  0  0  0  0  0  0  0  0
    9.9576  -16.2809   27.7758 C   0  0  0  0  0  0  0  0  0  0  0  0
    8.9324  -17.1673   28.0517 O   0  0  0  0  0  0  0  0  0  0  0  0
   10.6261  -15.8440   28.7411 O   0  0  0  0  0  0  0  0  0  0  0  0
  2  1  1  0
  3  2  1  0
  3  4  1  6
  5  6  1  1
  5  3  1  0
  7  5  1  0
  8  7  2  0
  9  7  1  0
 10 11  1  6
 10  9  1  0
 11 12  1  0
 13 14  2  0
 13 10  1  0
 15 13  1  0
 16 15  1  0
 17 18  1  0
 16 17  1  1
 18 19  2  0
 19 20  1  0
 21 20  2  0
 22 21  1  0
 23 18  1  0
 23 22  2  0
 24 16  1  0
 24 25  1  0
 26 24  2  0
M  END
$$$$
