TKA.pdb
     RDKit          3D

 22 21  0  0  1  0  0  0  0  0999 V2000
   26.9572  -10.3436  -15.2418 C   0  0  0  0  0  0  0  0  0  0  0  0
   27.0924  -11.1626  -16.4957 C   0  0  1  0  0  0  0  0  0  0  0  0
   28.2133  -11.9577  -16.4441 O   0  0  0  0  0  0  0  0  0  0  0  0
   25.8638  -12.0033  -16.7655 C   0  0  2  0  0  0  0  0  0  0  0  0
   26.0719  -12.8395  -17.9244 N   0  0  0  0  0  0  0  0  0  0  0  0
   24.6915  -11.1050  -16.9461 C   0  0  0  0  0  0  0  0  0  0  0  0
   24.4978  -10.5140  -18.0373 O   0  0  0  0  0  0  0  0  0  0  0  0
   23.7452  -10.8717  -15.9118 N   0  0  0  0  0  0  0  0  0  0  0  0
   22.6794   -9.9345  -16.0207 C   0  0  1  0  0  0  0  0  0  0  0  0
   21.4031  -10.5324  -15.4356 C   0  0  0  0  0  0  0  0  0  0  0  0
   20.2486   -9.5924  -15.5388 C   0  0  0  0  0  0  0  0  0  0  0  0
   18.9744  -10.3800  -15.6655 C   0  0  0  0  0  0  0  0  0  0  0  0
   17.7472   -9.5420  -15.8780 C   0  0  0  0  0  0  0  0  0  0  0  0
   16.6440  -10.4861  -16.1197 N   0  0  0  0  0  0  0  0  0  0  0  0
   22.9327   -8.6461  -15.3744 C   0  0  0  0  0  0  0  0  0  0  0  0
   23.3074   -8.6194  -14.1797 O   0  0  0  0  0  0  0  0  0  0  0  0
   23.1343   -4.9745  -16.2082 C   0  0  0  0  0  0  0  0  0  0  0  0
   23.0266   -6.1900  -15.3226 C   0  0  2  0  0  0  0  0  0  0  0  0
   22.7784   -7.3999  -16.0263 N   0  0  0  0  0  0  0  0  0  0  0  0
   21.9215   -5.9384  -14.3658 C   0  0  0  0  0  0  0  0  0  0  0  0
   22.0627   -5.0627  -13.2900 O   0  0  0  0  0  0  0  0  0  0  0  0
   20.8237   -6.5241  -14.5181 O   0  0  0  0  0  0  0  0  0  0  0  0
  2  1  1  1
  2  3  1  0
  4  2  1  0
  4  5  1  6
  6  4  1  0
  7  6  2  0
  8  6  1  0
  9  8  1  0
 10 11  1  0
  9 10  1  1
 12 13  1  0
 12 11  1  0
 13 14  1  0
 15  9  1  0
 15 19  1  0
 16 15  2  0
 18 19  1  0
 18 17  1  6
 18 20  1  0
 20 21  1  0
 22 20  2  0
M  END
$$$$
