TKA.pdb
     RDKit          3D

 22 21  0  0  1  0  0  0  0  0999 V2000
   27.7151  -12.1348  -15.4494 C   0  0  0  0  0  0  0  0  0  0  0  0
   26.7719  -11.0455  -15.8797 C   0  0  1  0  0  0  0  0  0  0  0  0
   27.4122  -10.1305  -16.6821 O   0  0  0  0  0  0  0  0  0  0  0  0
   25.5472  -11.5923  -16.5798 C   0  0  2  0  0  0  0  0  0  0  0  0
   25.9135  -12.1791  -17.8476 N   0  0  0  0  0  0  0  0  0  0  0  0
   24.5575  -10.4951  -16.7537 C   0  0  0  0  0  0  0  0  0  0  0  0
   24.6003   -9.7457  -17.7607 O   0  0  0  0  0  0  0  0  0  0  0  0
   23.5290  -10.2409  -15.8064 N   0  0  0  0  0  0  0  0  0  0  0  0
   22.5090   -9.2669  -15.9987 C   0  0  1  0  0  0  0  0  0  0  0  0
   21.1635   -9.8322  -15.5528 C   0  0  0  0  0  0  0  0  0  0  0  0
   20.6607  -10.8798  -16.4893 C   0  0  0  0  0  0  0  0  0  0  0  0
   19.3264  -11.3788  -16.0091 C   0  0  0  0  0  0  0  0  0  0  0  0
   18.7342  -12.4710  -16.8515 C   0  0  0  0  0  0  0  0  0  0  0  0
   17.4914  -12.8797  -16.1768 N   0  0  0  0  0  0  0  0  0  0  0  0
   22.7383   -7.9992  -15.3042 C   0  0  0  0  0  0  0  0  0  0  0  0
   23.0870   -8.0102  -14.1014 O   0  0  0  0  0  0  0  0  0  0  0  0
   22.9449   -4.3045  -16.0516 C   0  0  0  0  0  0  0  0  0  0  0  0
   22.9171   -5.5494  -15.2016 C   0  0  2  0  0  0  0  0  0  0  0  0
   22.5884   -6.7330  -15.9172 N   0  0  0  0  0  0  0  0  0  0  0  0
   21.9171   -5.3256  -14.1293 C   0  0  0  0  0  0  0  0  0  0  0  0
   22.1890   -4.5205  -13.0239 O   0  0  0  0  0  0  0  0  0  0  0  0
   20.7910   -5.8707  -14.2077 O   0  0  0  0  0  0  0  0  0  0  0  0
  2  1  1  6
  2  3  1  0
  4  2  1  0
  4  5  1  6
  6  4  1  0
  7  6  2  0
  8  6  1  0
  9  8  1  0
 10 11  1  0
  9 10  1  1
 12 13  1  0
 12 11  1  0
 13 14  1  0
 15  9  1  0
 15 19  1  0
 16 15  2  0
 18 19  1  0
 18 17  1  6
 18 20  1  0
 20 21  1  0
 22 20  2  0
M  END
$$$$
