TKA.pdb
     RDKit          3D

 22 21  0  0  1  0  0  0  0  0999 V2000
   34.0015   -8.6479  -16.4483 C   0  0  0  0  0  0  0  0  0  0  0  0
   34.4023   -9.8056  -17.3203 C   0  0  1  0  0  0  0  0  0  0  0  0
   35.4735  -10.4786  -16.7810 O   0  0  0  0  0  0  0  0  0  0  0  0
   33.2542  -10.7589  -17.5695 C   0  0  2  0  0  0  0  0  0  0  0  0
   33.7340  -11.9718  -18.1894 N   0  0  0  0  0  0  0  0  0  0  0  0
   32.2359  -10.0810  -18.4163 C   0  0  0  0  0  0  0  0  0  0  0  0
   32.3478  -10.0668  -19.6673 O   0  0  0  0  0  0  0  0  0  0  0  0
   31.1023   -9.4248  -17.8649 N   0  0  0  0  0  0  0  0  0  0  0  0
   30.1498   -8.7136  -18.6479 C   0  0  1  0  0  0  0  0  0  0  0  0
   28.7389   -9.1658  -18.2826 C   0  0  0  0  0  0  0  0  0  0  0  0
   28.4073  -10.4937  -18.8777 C   0  0  0  0  0  0  0  0  0  0  0  0
   27.0375  -10.9152  -18.4239 C   0  0  0  0  0  0  0  0  0  0  0  0
   26.5980  -12.2535  -18.9426 C   0  0  0  0  0  0  0  0  0  0  0  0
   25.2500  -12.4811  -18.3969 N   0  0  0  0  0  0  0  0  0  0  0  0
   30.2229   -7.2573  -18.5214 C   0  0  0  0  0  0  0  0  0  0  0  0
   30.1772   -6.7347  -17.3842 O   0  0  0  0  0  0  0  0  0  0  0  0
   31.0154   -4.2170  -20.5790 C   0  0  0  0  0  0  0  0  0  0  0  0
   30.4260   -4.9772  -19.4180 C   0  0  2  0  0  0  0  0  0  0  0  0
   30.3447   -6.3812  -19.6256 N   0  0  0  0  0  0  0  0  0  0  0  0
   29.0667   -4.4323  -19.1823 C   0  0  0  0  0  0  0  0  0  0  0  0
   28.8619   -3.2237  -18.5181 O   0  0  0  0  0  0  0  0  0  0  0  0
   28.0649   -5.0677  -19.5873 O   0  0  0  0  0  0  0  0  0  0  0  0
  2  1  1  1
  2  3  1  0
  4  2  1  0
  4  5  1  6
  6  4  1  0
  7  6  2  0
  8  6  1  0
  9  8  1  0
 10 11  1  0
  9 10  1  1
 12 13  1  0
 12 11  1  0
 13 14  1  0
 15  9  1  0
 15 19  1  0
 16 15  2  0
 18 19  1  0
 18 17  1  6
 18 20  1  0
 20 21  1  0
 22 20  2  0
M  END
$$$$
