TKA.pdb
     RDKit          3D

 22 21  0  0  1  0  0  0  0  0999 V2000
   15.6691   -4.9906   -8.9436 C   0  0  0  0  0  0  0  0  0  0  0  0
   15.1935   -6.2345   -8.2450 C   0  0  1  0  0  0  0  0  0  0  0  0
   14.1484   -5.9520   -7.3969 O   0  0  0  0  0  0  0  0  0  0  0  0
   14.8002   -7.3232   -9.2192 C   0  0  2  0  0  0  0  0  0  0  0  0
   14.3506   -8.4962   -8.5068 N   0  0  0  0  0  0  0  0  0  0  0  0
   15.9614   -7.6313  -10.0969 C   0  0  0  0  0  0  0  0  0  0  0  0
   16.7003   -8.6191   -9.8606 O   0  0  0  0  0  0  0  0  0  0  0  0
   16.2908   -6.8384  -11.2294 N   0  0  0  0  0  0  0  0  0  0  0  0
   17.2668   -7.2163  -12.1942 C   0  0  1  0  0  0  0  0  0  0  0  0
   16.6948   -7.0533  -13.5996 C   0  0  0  0  0  0  0  0  0  0  0  0
   16.0488   -8.3071  -14.0876 C   0  0  0  0  0  0  0  0  0  0  0  0
   15.5023   -8.0808  -15.4697 C   0  0  0  0  0  0  0  0  0  0  0  0
   14.7989   -9.2686  -16.0594 C   0  0  0  0  0  0  0  0  0  0  0  0
   14.3482   -8.8540  -17.3979 N   0  0  0  0  0  0  0  0  0  0  0  0
   18.5250   -6.4734  -12.1111 C   0  0  0  0  0  0  0  0  0  0  0  0
   18.4978   -5.2309  -11.9567 O   0  0  0  0  0  0  0  0  0  0  0  0
   22.2315   -7.0909  -11.8366 C   0  0  0  0  0  0  0  0  0  0  0  0
   20.9767   -6.2923  -12.0833 C   0  0  2  0  0  0  0  0  0  0  0  0
   19.7997   -7.0816  -12.1957 N   0  0  0  0  0  0  0  0  0  0  0  0
   21.1826   -5.5292  -13.3384 C   0  0  0  0  0  0  0  0  0  0  0  0
   22.0236   -4.4187  -13.3966 O   0  0  0  0  0  0  0  0  0  0  0  0
   20.5888   -5.8832  -14.3841 O   0  0  0  0  0  0  0  0  0  0  0  0
  2  1  1  6
  2  3  1  0
  4  2  1  0
  4  5  1  1
  6  4  1  0
  7  6  2  0
  8  6  1  0
  9  8  1  0
 10 11  1  0
  9 10  1  6
 12 13  1  0
 12 11  1  0
 13 14  1  0
 15  9  1  0
 15 19  1  0
 16 15  2  0
 18 19  1  0
 18 17  1  6
 18 20  1  0
 20 21  1  0
 22 20  2  0
M  END
$$$$
