TKA.pdb
     RDKit          3D

 22 21  0  0  1  0  0  0  0  0999 V2000
   20.8479  -11.7227  -15.2421 C   0  0  0  0  0  0  0  0  0  0  0  0
   19.9604  -10.5691  -15.6202 C   0  0  1  0  0  0  0  0  0  0  0  0
   20.3284  -10.0451  -16.8373 O   0  0  0  0  0  0  0  0  0  0  0  0
   18.4971  -10.9532  -15.6342 C   0  0  2  0  0  0  0  0  0  0  0  0
   18.2251  -11.8553  -16.7287 N   0  0  0  0  0  0  0  0  0  0  0  0
   17.6724   -9.7184  -15.7289 C   0  0  0  0  0  0  0  0  0  0  0  0
   17.3313   -9.2586  -16.8469 O   0  0  0  0  0  0  0  0  0  0  0  0
   17.2343   -9.0060  -14.5800 N   0  0  0  0  0  0  0  0  0  0  0  0
   16.3352   -7.9039  -14.6362 C   0  0  1  0  0  0  0  0  0  0  0  0
   15.2358   -8.0796  -13.5925 C   0  0  0  0  0  0  0  0  0  0  0  0
   14.1200   -8.9332  -14.0963 C   0  0  0  0  0  0  0  0  0  0  0  0
   13.0241   -8.9788  -13.0682 C   0  0  0  0  0  0  0  0  0  0  0  0
   11.8552   -9.8410  -13.4472 C   0  0  0  0  0  0  0  0  0  0  0  0
   11.0037   -9.9252  -12.2494 N   0  0  0  0  0  0  0  0  0  0  0  0
   16.9620   -6.5958  -14.4412 C   0  0  0  0  0  0  0  0  0  0  0  0
   17.7318   -6.4204  -13.4690 O   0  0  0  0  0  0  0  0  0  0  0  0
   17.5118   -3.3622  -16.2640 C   0  0  0  0  0  0  0  0  0  0  0  0
   17.4172   -4.2594  -15.0560 C   0  0  2  0  0  0  0  0  0  0  0  0
   16.7502   -5.4910  -15.2992 N   0  0  0  0  0  0  0  0  0  0  0  0
   16.6935   -3.5038  -14.0046 C   0  0  0  0  0  0  0  0  0  0  0  0
   17.2123   -2.3363  -13.4464 O   0  0  0  0  0  0  0  0  0  0  0  0
   15.5821   -3.9169  -13.5977 O   0  0  0  0  0  0  0  0  0  0  0  0
  2  1  1  6
  2  3  1  0
  4  2  1  0
  4  5  1  6
  6  4  1  0
  7  6  2  0
  8  6  1  0
  9  8  1  0
 10 11  1  0
  9 10  1  1
 12 13  1  0
 12 11  1  0
 13 14  1  0
 15  9  1  0
 15 19  1  0
 16 15  2  0
 18 19  1  0
 18 17  1  6
 18 20  1  0
 20 21  1  0
 22 20  2  0
M  END
$$$$
