TKA.pdb
     RDKit          3D

 22 21  0  0  1  0  0  0  0  0999 V2000
   14.6952   -8.4730  -11.6576 C   0  0  0  0  0  0  0  0  0  0  0  0
   14.3394   -9.8490  -11.1661 C   0  0  1  0  0  0  0  0  0  0  0  0
   13.0850   -9.8596  -10.6024 O   0  0  0  0  0  0  0  0  0  0  0  0
   14.4325  -10.8895  -12.2605 C   0  0  2  0  0  0  0  0  0  0  0  0
   14.0861  -12.1932  -11.7447 N   0  0  0  0  0  0  0  0  0  0  0  0
   15.8084  -10.8763  -12.8266 C   0  0  0  0  0  0  0  0  0  0  0  0
   16.7223  -11.5645  -12.3084 O   0  0  0  0  0  0  0  0  0  0  0  0
   16.1559  -10.0979  -13.9637 N   0  0  0  0  0  0  0  0  0  0  0  0
   17.4453  -10.1216  -14.5660 C   0  0  1  0  0  0  0  0  0  0  0  0
   17.3071  -10.0867  -16.0854 C   0  0  0  0  0  0  0  0  0  0  0  0
   16.8264  -11.3897  -16.6317 C   0  0  0  0  0  0  0  0  0  0  0  0
   16.6764  -11.2797  -18.1235 C   0  0  0  0  0  0  0  0  0  0  0  0
   16.1613  -12.5237  -18.7872 C   0  0  0  0  0  0  0  0  0  0  0  0
   16.0708  -12.2135  -20.2233 N   0  0  0  0  0  0  0  0  0  0  0  0
   18.3318   -9.0337  -14.1507 C   0  0  0  0  0  0  0  0  0  0  0  0
   17.8686   -7.8775  -14.0198 O   0  0  0  0  0  0  0  0  0  0  0  0
   21.8780   -8.4510  -13.0033 C   0  0  0  0  0  0  0  0  0  0  0  0
   20.5179   -8.0873  -13.5429 C   0  0  2  0  0  0  0  0  0  0  0  0
   19.7099   -9.2069  -13.8813 N   0  0  0  0  0  0  0  0  0  0  0  0
   20.7341   -7.2507  -14.7484 C   0  0  0  0  0  0  0  0  0  0  0  0
   21.0714   -5.9009  -14.6583 O   0  0  0  0  0  0  0  0  0  0  0  0
   20.6131   -7.7605  -15.8871 O   0  0  0  0  0  0  0  0  0  0  0  0
  2  1  1  6
  2  3  1  0
  4  2  1  0
  4  5  1  1
  6  4  1  0
  7  6  2  0
  8  6  1  0
  9  8  1  0
 10 11  1  0
  9 10  1  6
 12 13  1  0
 12 11  1  0
 13 14  1  0
 15  9  1  0
 15 19  1  0
 16 15  2  0
 18 19  1  0
 18 17  1  6
 18 20  1  0
 20 21  1  0
 22 20  2  0
M  END
$$$$
