TKA.pdb
     RDKit          3D

 22 21  0  0  1  0  0  0  0  0999 V2000
   27.1377  -12.3028  -15.6612 C   0  0  0  0  0  0  0  0  0  0  0  0
   26.1326  -11.2189  -15.9375 C   0  0  1  0  0  0  0  0  0  0  0  0
   26.6903  -10.2131  -16.6915 O   0  0  0  0  0  0  0  0  0  0  0  0
   24.8869  -11.7516  -16.6108 C   0  0  2  0  0  0  0  0  0  0  0  0
   25.2128  -12.3058  -17.9040 N   0  0  0  0  0  0  0  0  0  0  0  0
   23.8899  -10.6531  -16.7251 C   0  0  0  0  0  0  0  0  0  0  0  0
   23.7101  -10.0606  -17.8180 O   0  0  0  0  0  0  0  0  0  0  0  0
   23.1017  -10.2230  -15.6235 N   0  0  0  0  0  0  0  0  0  0  0  0
   22.0627   -9.2563  -15.7325 C   0  0  1  0  0  0  0  0  0  0  0  0
   20.7913   -9.7873  -15.0766 C   0  0  0  0  0  0  0  0  0  0  0  0
   20.0880  -10.7774  -15.9441 C   0  0  0  0  0  0  0  0  0  0  0  0
   18.8237  -11.2254  -15.2652 C   0  0  0  0  0  0  0  0  0  0  0  0
   18.0659  -12.2880  -16.0068 C   0  0  0  0  0  0  0  0  0  0  0  0
   16.9458  -12.6760  -15.1342 N   0  0  0  0  0  0  0  0  0  0  0  0
   22.3809   -7.9517  -15.1503 C   0  0  0  0  0  0  0  0  0  0  0  0
   22.8810   -7.8944  -14.0036 O   0  0  0  0  0  0  0  0  0  0  0  0
   22.5160   -4.3112  -16.1253 C   0  0  0  0  0  0  0  0  0  0  0  0
   22.5275   -5.4981  -15.1955 C   0  0  2  0  0  0  0  0  0  0  0  0
   22.1552   -6.7227  -15.8139 N   0  0  0  0  0  0  0  0  0  0  0  0
   21.5873   -5.1967  -14.0886 C   0  0  0  0  0  0  0  0  0  0  0  0
   20.4374   -5.9545  -13.8710 O   0  0  0  0  0  0  0  0  0  0  0  0
   21.8224   -4.2352  -13.3195 O   0  0  0  0  0  0  0  0  0  0  0  0
  2  1  1  6
  2  3  1  0
  4  2  1  0
  4  5  1  6
  6  4  1  0
  7  6  2  0
  8  6  1  0
  9  8  1  0
 10 11  1  0
  9 10  1  1
 12 13  1  0
 12 11  1  0
 13 14  1  0
 15  9  1  0
 15 19  1  0
 16 15  2  0
 18 19  1  0
 18 17  1  6
 18 20  1  0
 20 21  1  0
 22 20  2  0
M  END
$$$$
