TKA.pdb
     RDKit          3D

 22 21  0  0  1  0  0  0  0  0999 V2000
   21.2187  -10.5314    5.2304 C   0  0  0  0  0  0  0  0  0  0  0  0
   20.8872  -11.3908    6.4191 C   0  0  1  0  0  0  0  0  0  0  0  0
   21.8956  -11.3463    7.3532 O   0  0  0  0  0  0  0  0  0  0  0  0
   19.5674  -11.0080    7.0519 C   0  0  2  0  0  0  0  0  0  0  0  0
   19.7607   -9.9508    8.0166 N   0  0  0  0  0  0  0  0  0  0  0  0
   18.9629  -12.2138    7.6799 C   0  0  0  0  0  0  0  0  0  0  0  0
   19.1689  -12.4788    8.8902 O   0  0  0  0  0  0  0  0  0  0  0  0
   18.1347  -13.1142    6.9567 N   0  0  0  0  0  0  0  0  0  0  0  0
   17.6392  -14.3329    7.5002 C   0  0  1  0  0  0  0  0  0  0  0  0
   16.3611  -14.7415    6.7733 C   0  0  0  0  0  0  0  0  0  0  0  0
   15.6911  -15.9009    7.4323 C   0  0  0  0  0  0  0  0  0  0  0  0
   14.4648  -16.2789    6.6492 C   0  0  0  0  0  0  0  0  0  0  0  0
   13.7206  -17.4618    7.1972 C   0  0  0  0  0  0  0  0  0  0  0  0
   12.5372  -17.6338    6.3389 N   0  0  0  0  0  0  0  0  0  0  0  0
   18.5837  -15.4499    7.4519 C   0  0  0  0  0  0  0  0  0  0  0  0
   19.0886  -15.7827    6.3552 O   0  0  0  0  0  0  0  0  0  0  0  0
   21.1317  -17.1268    9.3059 C   0  0  0  0  0  0  0  0  0  0  0  0
   19.8929  -17.2710    8.4587 C   0  0  2  0  0  0  0  0  0  0  0  0
   18.9725  -16.1956    8.5897 N   0  0  0  0  0  0  0  0  0  0  0  0
   19.2336  -18.5381    8.8586 C   0  0  0  0  0  0  0  0  0  0  0  0
   19.8221  -19.7806    8.6265 O   0  0  0  0  0  0  0  0  0  0  0  0
   18.1146  -18.5040    9.4224 O   0  0  0  0  0  0  0  0  0  0  0  0
  2  1  1  6
  2  3  1  0
  4  2  1  0
  4  5  1  1
  6  4  1  0
  7  6  2  0
  8  6  1  0
  9  8  1  0
 10 11  1  0
  9 10  1  6
 12 13  1  0
 12 11  1  0
 13 14  1  0
 15  9  1  0
 15 19  1  0
 16 15  2  0
 18 19  1  0
 18 17  1  1
 18 20  1  0
 20 21  1  0
 22 20  2  0
M  END
$$$$
