TKA.pdb
     RDKit          3D

 22 21  0  0  1  0  0  0  0  0999 V2000
   19.4380  -10.4188  -15.5641 C   0  0  0  0  0  0  0  0  0  0  0  0
   18.6404  -11.4294  -16.3413 C   0  0  1  0  0  0  0  0  0  0  0  0
   19.3527  -12.5940  -16.5075 O   0  0  0  0  0  0  0  0  0  0  0  0
   17.3019  -11.7193  -15.6983 C   0  0  2  0  0  0  0  0  0  0  0  0
   16.6483  -12.8168  -16.3720 N   0  0  0  0  0  0  0  0  0  0  0  0
   16.4699  -10.4862  -15.7333 C   0  0  0  0  0  0  0  0  0  0  0  0
   15.9598  -10.0863  -16.8091 O   0  0  0  0  0  0  0  0  0  0  0  0
   16.2125   -9.7088  -14.5718 N   0  0  0  0  0  0  0  0  0  0  0  0
   15.3660   -8.5644  -14.5657 C   0  0  1  0  0  0  0  0  0  0  0  0
   14.3948   -8.6457  -13.3915 C   0  0  0  0  0  0  0  0  0  0  0  0
   13.1885   -9.4604  -13.7209 C   0  0  0  0  0  0  0  0  0  0  0  0
   12.2791   -9.5105  -12.5249 C   0  0  0  0  0  0  0  0  0  0  0  0
   11.0871  -10.4078  -12.6907 C   0  0  0  0  0  0  0  0  0  0  0  0
   10.3311  -10.3204  -11.4307 N   0  0  0  0  0  0  0  0  0  0  0  0
   16.0727   -7.2844  -14.5020 C   0  0  0  0  0  0  0  0  0  0  0  0
   16.9341   -7.1000  -13.6118 O   0  0  0  0  0  0  0  0  0  0  0  0
   16.5602   -4.1609  -16.5403 C   0  0  0  0  0  0  0  0  0  0  0  0
   16.6041   -5.0218  -15.3033 C   0  0  2  0  0  0  0  0  0  0  0  0
   15.8408   -6.2170  -15.4012 N   0  0  0  0  0  0  0  0  0  0  0  0
   16.0942   -4.1996  -14.1790 C   0  0  0  0  0  0  0  0  0  0  0  0
   16.7731   -3.0697  -13.7246 O   0  0  0  0  0  0  0  0  0  0  0  0
   15.0227   -4.5197  -13.6126 O   0  0  0  0  0  0  0  0  0  0  0  0
  2  1  1  1
  2  3  1  0
  4  2  1  0
  4  5  1  6
  6  4  1  0
  7  6  2  0
  8  6  1  0
  9  8  1  0
 10 11  1  0
  9 10  1  1
 12 13  1  0
 12 11  1  0
 13 14  1  0
 15  9  1  0
 15 19  1  0
 16 15  2  0
 18 19  1  0
 18 17  1  6
 18 20  1  0
 20 21  1  0
 22 20  2  0
M  END
$$$$
