NHQ.pdb
     RDKit          3D

 28 28  0  0  1  0  0  0  0  0999 V2000
   13.7918  -14.4335  -16.0751 N   0  0  0  0  0  0  0  0  0  0  0  0
   14.0771  -14.3063  -14.6903 C   0  0  0  0  0  0  0  0  0  0  0  0
   13.2471  -14.6217  -13.7944 O   0  0  0  0  0  0  0  0  0  0  0  0
   15.4102  -13.7792  -14.3015 C   0  0  0  0  0  0  0  0  0  0  0  0
   16.2356  -13.3971  -15.5113 C   0  0  2  0  0  0  0  0  0  0  0  0
   16.8175  -14.5851  -16.0935 N   0  0  0  0  0  0  0  0  0  0  0  0
   17.2735  -12.4437  -15.0439 C   0  0  0  0  0  0  0  0  0  0  0  0
   17.8630  -12.6528  -13.9547 O   0  0  0  0  0  0  0  0  0  0  0  0
   17.6428  -11.2839  -15.7778 N   0  0  0  0  0  0  0  0  0  0  0  0
   18.6606  -10.3505  -15.4015 C   0  0  1  0  0  0  0  0  0  0  0  0
   19.6867  -10.1205  -16.4744 C   0  0  0  0  0  0  0  0  0  0  0  0
   20.7679   -9.2150  -16.0768 C   0  0  0  0  0  0  0  0  0  0  0  0
   20.9579   -8.6803  -14.8261 C   0  0  0  0  0  0  0  0  0  0  0  0
   22.0584   -7.9063  -14.8803 N   0  0  0  0  0  0  0  0  0  0  0  0
   22.5649   -7.9399  -16.1303 C   0  0  0  0  0  0  0  0  0  0  0  0
   21.7522   -8.7573  -16.8624 N   0  0  0  0  0  0  0  0  0  0  0  0
   18.0543   -9.0167  -15.0645 C   0  0  0  0  0  0  0  0  0  0  0  0
   17.1360   -8.5325  -15.7732 O   0  0  0  0  0  0  0  0  0  0  0  0
   16.5867   -6.9202   -9.3417 N   0  0  0  0  0  0  0  0  0  0  0  0
   16.1261   -7.8928  -10.3000 C   0  0  0  0  0  0  0  0  0  0  0  0
   15.3384   -8.7444   -9.8415 O   0  0  0  0  0  0  0  0  0  0  0  0
   16.5404   -7.8903  -11.6808 C   0  0  0  0  0  0  0  0  0  0  0  0
   17.4728   -6.8821  -12.1986 C   0  0  0  0  0  0  0  0  0  0  0  0
   17.9074   -6.9511  -13.6123 C   0  0  2  0  0  0  0  0  0  0  0  0
   18.4845   -8.2526  -13.9465 N   0  0  0  0  0  0  0  0  0  0  0  0
   18.7797   -5.8968  -14.0982 C   0  0  0  0  0  0  0  0  0  0  0  0
   18.2529   -4.6756  -14.4748 O   0  0  0  0  0  0  0  0  0  0  0  0
   20.0348   -6.0352  -14.2003 O   0  0  0  0  0  0  0  0  0  0  0  0
  2  4  1  0
  2  1  1  0
  3  2  2  0
  5  4  1  0
  5  6  1  1
  7  8  2  0
  7  5  1  0
  9  7  1  0
 10  9  1  0
 11 12  1  0
 10 11  1  6
 12 13  2  0
 12 16  1  0
 13 14  1  0
 14 15  1  0
 16 15  2  0
 17 18  2  0
 17 10  1  0
 20 19  1  0
 21 20  2  0
 22 20  1  0
 23 22  1  0
 24 23  1  1
 24 25  1  0
 25 17  1  0
 26 24  1  0
 27 26  1  0
 28 26  2  0
M  END
$$$$
