NHQ.pdb
     RDKit          3D

 28 28  0  0  1  0  0  0  0  0999 V2000
   45.5494  -10.0500   -8.8846 N   0  0  0  0  0  0  0  0  0  0  0  0
   44.5820  -10.8047   -9.5984 C   0  0  0  0  0  0  0  0  0  0  0  0
   44.8530  -11.9049  -10.1527 O   0  0  0  0  0  0  0  0  0  0  0  0
   43.2024  -10.2610   -9.6846 C   0  0  0  0  0  0  0  0  0  0  0  0
   43.0938   -8.9029   -9.0251 C   0  0  2  0  0  0  0  0  0  0  0  0
   43.4106   -9.0219   -7.6201 N   0  0  0  0  0  0  0  0  0  0  0  0
   41.7044   -8.4263   -9.2414 C   0  0  0  0  0  0  0  0  0  0  0  0
   41.2641   -8.3073  -10.4118 O   0  0  0  0  0  0  0  0  0  0  0  0
   40.8285   -8.0906   -8.1735 N   0  0  0  0  0  0  0  0  0  0  0  0
   39.4705   -7.6608   -8.3153 C   0  0  1  0  0  0  0  0  0  0  0  0
   38.6308   -7.9225   -7.0975 C   0  0  0  0  0  0  0  0  0  0  0  0
   38.2844   -9.3336   -6.9079 C   0  0  0  0  0  0  0  0  0  0  0  0
   38.5738  -10.3617   -7.7714 C   0  0  0  0  0  0  0  0  0  0  0  0
   38.0866  -11.4939   -7.2293 N   0  0  0  0  0  0  0  0  0  0  0  0
   37.4992  -11.2056   -6.0494 C   0  0  0  0  0  0  0  0  0  0  0  0
   37.6301   -9.8592   -5.8633 N   0  0  0  0  0  0  0  0  0  0  0  0
   39.4112   -6.1849   -8.5949 C   0  0  0  0  0  0  0  0  0  0  0  0
   40.2805   -5.4079   -8.1252 O   0  0  0  0  0  0  0  0  0  0  0  0
   36.4220   -3.1529  -13.5877 N   0  0  0  0  0  0  0  0  0  0  0  0
   36.7995   -2.1620  -12.6121 C   0  0  0  0  0  0  0  0  0  0  0  0
   36.5068   -0.9891  -12.9197 O   0  0  0  0  0  0  0  0  0  0  0  0
   37.4657   -2.4917  -11.3768 C   0  0  0  0  0  0  0  0  0  0  0  0
   37.6671   -3.8855  -10.9638 C   0  0  0  0  0  0  0  0  0  0  0  0
   38.3114   -4.1727   -9.6621 C   0  0  2  0  0  0  0  0  0  0  0  0
   38.3852   -5.6078   -9.3906 N   0  0  0  0  0  0  0  0  0  0  0  0
   37.7947   -3.4858   -8.4918 C   0  0  0  0  0  0  0  0  0  0  0  0
   38.2718   -2.2336   -8.1523 O   0  0  0  0  0  0  0  0  0  0  0  0
   36.9042   -3.9827   -7.7400 O   0  0  0  0  0  0  0  0  0  0  0  0
  2  4  1  0
  2  1  1  0
  3  2  2  0
  5  4  1  0
  5  6  1  1
  7  8  2  0
  7  5  1  0
  9  7  1  0
 10  9  1  0
 11 12  1  0
 10 11  1  1
 12 13  2  0
 12 16  1  0
 13 14  1  0
 14 15  1  0
 16 15  2  0
 17 18  2  0
 17 10  1  0
 20 19  1  0
 21 20  2  0
 22 20  1  0
 23 22  1  0
 24 23  1  6
 24 25  1  0
 25 17  1  0
 26 24  1  0
 27 26  1  0
 28 26  2  0
M  END
$$$$
