NHQ.pdb
     RDKit          3D

 28 28  0  0  1  0  0  0  0  0999 V2000
   26.6683  -20.6947  -22.7580 N   0  0  0  0  0  0  0  0  0  0  0  0
   25.4012  -20.4907  -22.1517 C   0  0  0  0  0  0  0  0  0  0  0  0
   24.3728  -20.1837  -22.8146 O   0  0  0  0  0  0  0  0  0  0  0  0
   25.3027  -20.6494  -20.6781 C   0  0  0  0  0  0  0  0  0  0  0  0
   24.3117  -19.6769  -20.0754 C   0  0  2  0  0  0  0  0  0  0  0  0
   24.8608  -18.3407  -20.1164 N   0  0  0  0  0  0  0  0  0  0  0  0
   24.0539  -20.1277  -18.6844 C   0  0  0  0  0  0  0  0  0  0  0  0
   24.0798  -21.3541  -18.4146 O   0  0  0  0  0  0  0  0  0  0  0  0
   23.7738  -19.2275  -17.6208 N   0  0  0  0  0  0  0  0  0  0  0  0
   23.5065  -19.5996  -16.2647 C   0  0  1  0  0  0  0  0  0  0  0  0
   24.3654  -18.8768  -15.2664 C   0  0  0  0  0  0  0  0  0  0  0  0
   25.7830  -19.2422  -15.3290 C   0  0  0  0  0  0  0  0  0  0  0  0
   26.3390  -20.1926  -16.1498 C   0  0  0  0  0  0  0  0  0  0  0  0
   27.6619  -20.2188  -15.8997 N   0  0  0  0  0  0  0  0  0  0  0  0
   27.9522  -19.3112  -14.9446 C   0  0  0  0  0  0  0  0  0  0  0  0
   26.7745  -18.7122  -14.5998 N   0  0  0  0  0  0  0  0  0  0  0  0
   22.0724  -19.3171  -15.9134 C   0  0  0  0  0  0  0  0  0  0  0  0
   21.5566  -18.2006  -16.1731 O   0  0  0  0  0  0  0  0  0  0  0  0
   16.6311  -21.8329  -14.3674 N   0  0  0  0  0  0  0  0  0  0  0  0
   17.5284  -22.6371  -15.1577 C   0  0  0  0  0  0  0  0  0  0  0  0
   17.2395  -23.8497  -15.2029 O   0  0  0  0  0  0  0  0  0  0  0  0
   18.6733  -22.0913  -15.8430 C   0  0  0  0  0  0  0  0  0  0  0  0
   18.9127  -20.6446  -15.9015 C   0  0  0  0  0  0  0  0  0  0  0  0
   19.8482  -20.0224  -14.9371 C   0  0  2  0  0  0  0  0  0  0  0  0
   21.2454  -20.2839  -15.2806 N   0  0  0  0  0  0  0  0  0  0  0  0
   19.6382  -20.2964  -13.5267 C   0  0  0  0  0  0  0  0  0  0  0  0
   18.4831  -19.8694  -12.8989 O   0  0  0  0  0  0  0  0  0  0  0  0
   20.4783  -20.9237  -12.8155 O   0  0  0  0  0  0  0  0  0  0  0  0
  2  4  1  0
  2  1  1  0
  3  2  2  0
  5  4  1  0
  5  6  1  1
  7  8  2  0
  7  5  1  0
  9  7  1  0
 10  9  1  0
 11 12  1  0
 10 11  1  1
 12 13  2  0
 12 16  1  0
 13 14  1  0
 14 15  1  0
 16 15  2  0
 17 18  2  0
 17 10  1  0
 20 19  1  0
 21 20  2  0
 22 20  1  0
 23 22  1  0
 24 23  1  6
 24 25  1  0
 25 17  1  0
 26 24  1  0
 27 26  1  0
 28 26  2  0
M  END
$$$$
