NHQ.pdb
     RDKit          3D

 28 28  0  0  1  0  0  0  0  0999 V2000
   18.1886  -16.2379  -17.7726 N   0  0  0  0  0  0  0  0  0  0  0  0
   17.6425  -15.0737  -17.1713 C   0  0  0  0  0  0  0  0  0  0  0  0
   16.4113  -14.8023  -17.2120 O   0  0  0  0  0  0  0  0  0  0  0  0
   18.5734  -14.1517  -16.4717 C   0  0  0  0  0  0  0  0  0  0  0  0
   19.9973  -14.6641  -16.5026 C   0  0  2  0  0  0  0  0  0  0  0  0
   20.0938  -15.8695  -15.7111 N   0  0  0  0  0  0  0  0  0  0  0  0
   20.8595  -13.5799  -15.9682 C   0  0  0  0  0  0  0  0  0  0  0  0
   20.6539  -13.1368  -14.8110 O   0  0  0  0  0  0  0  0  0  0  0  0
   21.9262  -13.0051  -16.7111 N   0  0  0  0  0  0  0  0  0  0  0  0
   22.7345  -11.9019  -16.2884 C   0  0  1  0  0  0  0  0  0  0  0  0
   24.1141  -11.9097  -16.8828 C   0  0  0  0  0  0  0  0  0  0  0  0
   24.9976  -12.9329  -16.3177 C   0  0  0  0  0  0  0  0  0  0  0  0
   24.7271  -13.7251  -15.2289 C   0  0  0  0  0  0  0  0  0  0  0  0
   25.7907  -14.5289  -15.0396 N   0  0  0  0  0  0  0  0  0  0  0  0
   26.7219  -14.2635  -15.9791 C   0  0  0  0  0  0  0  0  0  0  0  0
   26.2147  -13.2695  -16.7661 N   0  0  0  0  0  0  0  0  0  0  0  0
   22.0878  -10.5988  -16.6676 C   0  0  0  0  0  0  0  0  0  0  0  0
   21.7229  -10.3847  -17.8512 O   0  0  0  0  0  0  0  0  0  0  0  0
   16.7084   -8.7252  -16.0211 N   0  0  0  0  0  0  0  0  0  0  0  0
   17.3833   -7.4740  -16.2559 C   0  0  0  0  0  0  0  0  0  0  0  0
   16.6268   -6.4951  -16.4153 O   0  0  0  0  0  0  0  0  0  0  0  0
   18.8192   -7.3549  -16.3069 C   0  0  0  0  0  0  0  0  0  0  0  0
   19.6915   -8.5181  -16.1069 C   0  0  0  0  0  0  0  0  0  0  0  0
   21.1588   -8.3269  -16.0570 C   0  0  2  0  0  0  0  0  0  0  0  0
   21.8626   -9.5639  -15.7204 N   0  0  0  0  0  0  0  0  0  0  0  0
   21.6666   -7.2433  -15.2345 C   0  0  0  0  0  0  0  0  0  0  0  0
   21.5485   -5.9330  -15.6587 O   0  0  0  0  0  0  0  0  0  0  0  0
   22.2291   -7.4347  -14.1156 O   0  0  0  0  0  0  0  0  0  0  0  0
  2  4  1  0
  2  1  1  0
  3  2  2  0
  5  4  1  0
  5  6  1  1
  7  8  2  0
  7  5  1  0
  9  7  1  0
 10  9  1  0
 11 12  1  0
 10 11  1  6
 12 13  2  0
 12 16  1  0
 13 14  1  0
 14 15  1  0
 16 15  2  0
 17 18  2  0
 17 10  1  0
 20 19  1  0
 21 20  2  0
 22 20  1  0
 23 22  1  0
 24 23  1  1
 24 25  1  0
 25 17  1  0
 26 24  1  0
 27 26  1  0
 28 26  2  0
M  END
$$$$
