NHQ.pdb
     RDKit          3D

 28 28  0  0  1  0  0  0  0  0999 V2000
   16.9978  -13.7817  -17.2149 N   0  0  0  0  0  0  0  0  0  0  0  0
   18.1719  -13.1128  -17.6498 C   0  0  0  0  0  0  0  0  0  0  0  0
   18.4288  -12.9156  -18.8689 O   0  0  0  0  0  0  0  0  0  0  0  0
   19.1226  -12.6341  -16.6138 C   0  0  0  0  0  0  0  0  0  0  0  0
   20.5540  -12.6796  -17.1039 C   0  0  2  0  0  0  0  0  0  0  0  0
   21.0356  -14.0415  -17.0618 N   0  0  0  0  0  0  0  0  0  0  0  0
   21.3431  -11.7852  -16.2196 C   0  0  0  0  0  0  0  0  0  0  0  0
   21.1185  -11.7785  -14.9838 O   0  0  0  0  0  0  0  0  0  0  0  0
   22.3593  -10.9190  -16.7066 N   0  0  0  0  0  0  0  0  0  0  0  0
   23.1240  -10.0052  -15.9134 C   0  0  1  0  0  0  0  0  0  0  0  0
   24.5993  -10.0629  -16.1910 C   0  0  0  0  0  0  0  0  0  0  0  0
   25.2426  -11.2946  -15.7262 C   0  0  0  0  0  0  0  0  0  0  0  0
   24.6238  -12.3390  -15.0840 C   0  0  0  0  0  0  0  0  0  0  0  0
   25.5624  -13.2706  -14.8302 N   0  0  0  0  0  0  0  0  0  0  0  0
   26.7536  -12.8403  -15.2951 C   0  0  0  0  0  0  0  0  0  0  0  0
   26.5389  -11.6108  -15.8492 N   0  0  0  0  0  0  0  0  0  0  0  0
   22.6745   -8.5916  -16.1572 C   0  0  0  0  0  0  0  0  0  0  0  0
   22.5558   -8.1494  -17.3278 O   0  0  0  0  0  0  0  0  0  0  0  0
   17.4207   -6.3169  -16.1279 N   0  0  0  0  0  0  0  0  0  0  0  0
   18.1963   -5.1192  -15.9268 C   0  0  0  0  0  0  0  0  0  0  0  0
   17.5454   -4.0577  -16.0010 O   0  0  0  0  0  0  0  0  0  0  0  0
   19.6135   -5.1378  -15.6631 C   0  0  0  0  0  0  0  0  0  0  0  0
   20.3513   -6.3995  -15.5311 C   0  0  0  0  0  0  0  0  0  0  0  0
   21.8156   -6.3668  -15.3147 C   0  0  2  0  0  0  0  0  0  0  0  0
   22.3678   -7.7025  -15.0921 N   0  0  0  0  0  0  0  0  0  0  0  0
   22.3239   -5.4591  -14.3016 C   0  0  0  0  0  0  0  0  0  0  0  0
   22.5732   -4.1359  -14.6143 O   0  0  0  0  0  0  0  0  0  0  0  0
   22.5594   -5.8204  -13.1104 O   0  0  0  0  0  0  0  0  0  0  0  0
  2  4  1  0
  2  1  1  0
  3  2  2  0
  5  4  1  0
  5  6  1  1
  7  8  2  0
  7  5  1  0
  9  7  1  0
 10  9  1  0
 11 12  1  0
 10 11  1  6
 12 13  2  0
 12 16  1  0
 13 14  1  0
 14 15  1  0
 16 15  2  0
 17 18  2  0
 17 10  1  0
 20 19  1  0
 21 20  2  0
 22 20  1  0
 23 22  1  0
 24 23  1  1
 24 25  1  0
 25 17  1  0
 26 24  1  0
 27 26  1  0
 28 26  2  0
M  END
$$$$
