NHQ.pdb
     RDKit          3D

 28 28  0  0  1  0  0  0  0  0999 V2000
   18.0666  -15.4530  -20.7052 N   0  0  0  0  0  0  0  0  0  0  0  0
   17.4372  -14.5294  -19.8300 C   0  0  0  0  0  0  0  0  0  0  0  0
   16.2135  -14.2363  -19.9181 O   0  0  0  0  0  0  0  0  0  0  0  0
   18.2689  -13.8939  -18.7761 C   0  0  0  0  0  0  0  0  0  0  0  0
   19.7079  -14.3587  -18.8426 C   0  0  2  0  0  0  0  0  0  0  0  0
   19.7811  -15.7559  -18.4806 N   0  0  0  0  0  0  0  0  0  0  0  0
   20.4829  -13.5031  -17.9089 C   0  0  0  0  0  0  0  0  0  0  0  0
   19.9966  -13.2074  -16.7892 O   0  0  0  0  0  0  0  0  0  0  0  0
   21.7714  -12.9904  -18.2209 N   0  0  0  0  0  0  0  0  0  0  0  0
   22.5844  -12.1975  -17.3495 C   0  0  1  0  0  0  0  0  0  0  0  0
   24.0377  -12.1907  -17.7303 C   0  0  0  0  0  0  0  0  0  0  0  0
   24.8867  -11.4222  -16.8161 C   0  0  0  0  0  0  0  0  0  0  0  0
   24.4764  -10.7907  -15.6677 C   0  0  0  0  0  0  0  0  0  0  0  0
   25.5577  -10.2031  -15.1211 N   0  0  0  0  0  0  0  0  0  0  0  0
   26.6358  -10.4480  -15.8944 C   0  0  0  0  0  0  0  0  0  0  0  0
   26.2030  -11.2068  -16.9440 N   0  0  0  0  0  0  0  0  0  0  0  0
   22.1136  -10.7699  -17.3432 C   0  0  0  0  0  0  0  0  0  0  0  0
   21.9631  -10.1396  -18.4203 O   0  0  0  0  0  0  0  0  0  0  0  0
   16.9908   -8.1963  -15.3765 N   0  0  0  0  0  0  0  0  0  0  0  0
   17.9063   -7.0850  -15.4323 C   0  0  0  0  0  0  0  0  0  0  0  0
   17.3789   -5.9661  -15.2712 O   0  0  0  0  0  0  0  0  0  0  0  0
   19.3210   -7.2450  -15.6590 C   0  0  0  0  0  0  0  0  0  0  0  0
   19.9309   -8.5740  -15.7839 C   0  0  0  0  0  0  0  0  0  0  0  0
   21.3689   -8.6860  -16.1184 C   0  0  2  0  0  0  0  0  0  0  0  0
   21.8214  -10.0765  -16.1379 N   0  0  0  0  0  0  0  0  0  0  0  0
   22.3017   -7.8853  -15.3456 C   0  0  0  0  0  0  0  0  0  0  0  0
   22.5975   -6.5922  -15.7342 O   0  0  0  0  0  0  0  0  0  0  0  0
   22.8784   -8.3162  -14.3031 O   0  0  0  0  0  0  0  0  0  0  0  0
  2  4  1  0
  2  1  1  0
  3  2  2  0
  5  4  1  0
  5  6  1  1
  7  8  2  0
  7  5  1  0
  9  7  1  0
 10  9  1  0
 11 12  1  0
 10 11  1  6
 12 13  2  0
 12 16  1  0
 13 14  1  0
 14 15  1  0
 16 15  2  0
 17 18  2  0
 17 10  1  0
 20 19  1  0
 21 20  2  0
 22 20  1  0
 23 22  1  0
 24 23  1  1
 24 25  1  0
 25 17  1  0
 26 24  1  0
 27 26  1  0
 28 26  2  0
M  END
$$$$
