NHQ.pdb
     RDKit          3D

 28 28  0  0  1  0  0  0  0  0999 V2000
   28.8518  -34.3788  -17.9810 N   0  0  0  0  0  0  0  0  0  0  0  0
   28.8538  -34.9225  -16.6697 C   0  0  0  0  0  0  0  0  0  0  0  0
   29.3988  -36.0259  -16.3931 O   0  0  0  0  0  0  0  0  0  0  0  0
   28.1828  -34.1469  -15.5953 C   0  0  0  0  0  0  0  0  0  0  0  0
   27.6308  -32.8359  -16.1126 C   0  0  2  0  0  0  0  0  0  0  0  0
   28.7108  -31.8904  -16.2812 N   0  0  0  0  0  0  0  0  0  0  0  0
   26.6319  -32.3648  -15.1203 C   0  0  0  0  0  0  0  0  0  0  0  0
   26.9903  -31.5911  -14.1981 O   0  0  0  0  0  0  0  0  0  0  0  0
   25.2644  -32.7505  -15.1590 N   0  0  0  0  0  0  0  0  0  0  0  0
   24.2522  -32.3191  -14.2434 C   0  0  1  0  0  0  0  0  0  0  0  0
   22.8651  -32.3721  -14.8178 C   0  0  0  0  0  0  0  0  0  0  0  0
   22.5681  -31.2830  -15.7520 C   0  0  0  0  0  0  0  0  0  0  0  0
   23.3766  -30.2069  -16.0252 C   0  0  0  0  0  0  0  0  0  0  0  0
   22.7405  -29.4438  -16.9341 N   0  0  0  0  0  0  0  0  0  0  0  0
   21.5549  -30.0106  -17.2394 C   0  0  0  0  0  0  0  0  0  0  0  0
   21.4618  -31.1528  -16.4969 N   0  0  0  0  0  0  0  0  0  0  0  0
   24.2608  -33.1740  -13.0068 C   0  0  0  0  0  0  0  0  0  0  0  0
   24.5516  -34.3951  -13.0736 O   0  0  0  0  0  0  0  0  0  0  0  0
   24.7313  -31.0508   -6.8050 N   0  0  0  0  0  0  0  0  0  0  0  0
   24.5631  -32.4819   -6.7923 C   0  0  0  0  0  0  0  0  0  0  0  0
   24.5855  -32.9997   -5.6577 O   0  0  0  0  0  0  0  0  0  0  0  0
   24.3852  -33.2612   -7.9920 C   0  0  0  0  0  0  0  0  0  0  0  0
   24.3388  -32.6292   -9.3158 C   0  0  0  0  0  0  0  0  0  0  0  0
   24.0210  -33.4528  -10.5044 C   0  0  2  0  0  0  0  0  0  0  0  0
   23.9452  -32.6500  -11.7244 N   0  0  0  0  0  0  0  0  0  0  0  0
   22.8619  -34.3239  -10.4266 C   0  0  0  0  0  0  0  0  0  0  0  0
   22.9970  -35.6240   -9.9768 O   0  0  0  0  0  0  0  0  0  0  0  0
   21.6974  -33.9502  -10.7572 O   0  0  0  0  0  0  0  0  0  0  0  0
  2  4  1  0
  2  1  1  0
  3  2  2  0
  5  4  1  0
  5  6  1  1
  7  8  2  0
  7  5  1  0
  9  7  1  0
 10  9  1  0
 11 12  1  0
 10 11  1  6
 12 13  2  0
 12 16  1  0
 13 14  1  0
 14 15  1  0
 16 15  2  0
 17 18  2  0
 17 10  1  0
 20 19  1  0
 21 20  2  0
 22 20  1  0
 23 22  1  0
 24 23  1  1
 24 25  1  0
 25 17  1  0
 26 24  1  0
 27 26  1  0
 28 26  2  0
M  END
$$$$
