NHQ.pdb
     RDKit          3D

 28 28  0  0  1  0  0  0  0  0999 V2000
   21.0814  -15.1160  -18.4633 N   0  0  0  0  0  0  0  0  0  0  0  0
   19.7332  -14.7282  -18.6802 C   0  0  0  0  0  0  0  0  0  0  0  0
   18.9098  -15.4536  -19.3022 O   0  0  0  0  0  0  0  0  0  0  0  0
   19.2942  -13.4135  -18.1463 C   0  0  0  0  0  0  0  0  0  0  0  0
   20.4238  -12.6878  -17.4475 C   0  0  2  0  0  0  0  0  0  0  0  0
   20.7506  -13.3734  -16.2180 N   0  0  0  0  0  0  0  0  0  0  0  0
   19.9595  -11.2992  -17.2010 C   0  0  0  0  0  0  0  0  0  0  0  0
   19.6736  -10.5583  -18.1741 O   0  0  0  0  0  0  0  0  0  0  0  0
   19.8185  -10.7526  -15.8965 N   0  0  0  0  0  0  0  0  0  0  0  0
   19.3598   -9.4310  -15.5935 C   0  0  1  0  0  0  0  0  0  0  0  0
   18.2667   -9.3994  -14.5635 C   0  0  0  0  0  0  0  0  0  0  0  0
   16.9620   -9.8334  -15.0698 C   0  0  0  0  0  0  0  0  0  0  0  0
   16.4723   -9.6199  -16.3351 C   0  0  0  0  0  0  0  0  0  0  0  0
   15.2470  -10.1752  -16.3933 N   0  0  0  0  0  0  0  0  0  0  0  0
   14.9534  -10.7315  -15.1997 C   0  0  0  0  0  0  0  0  0  0  0  0
   16.0288  -10.5109  -14.3876 N   0  0  0  0  0  0  0  0  0  0  0  0
   20.4907   -8.5861  -15.0765 C   0  0  0  0  0  0  0  0  0  0  0  0
   21.3997   -9.0932  -14.3718 O   0  0  0  0  0  0  0  0  0  0  0  0
   20.9389   -2.5662  -16.3371 N   0  0  0  0  0  0  0  0  0  0  0  0
   22.1954   -2.7907  -15.6685 C   0  0  0  0  0  0  0  0  0  0  0  0
   22.7826   -1.7538  -15.2996 O   0  0  0  0  0  0  0  0  0  0  0  0
   22.7393   -4.1066  -15.4423 C   0  0  0  0  0  0  0  0  0  0  0  0
   22.0388   -5.3131  -15.8976 C   0  0  0  0  0  0  0  0  0  0  0  0
   21.7160   -6.3788  -14.9217 C   0  0  2  0  0  0  0  0  0  0  0  0
   20.5834   -7.1960  -15.3555 N   0  0  0  0  0  0  0  0  0  0  0  0
   21.5253   -5.9852  -13.5371 C   0  0  0  0  0  0  0  0  0  0  0  0
   22.6168   -5.7107  -12.7346 O   0  0  0  0  0  0  0  0  0  0  0  0
   20.3809   -5.8750  -13.0048 O   0  0  0  0  0  0  0  0  0  0  0  0
  2  4  1  0
  2  1  1  0
  3  2  2  0
  5  4  1  0
  5  6  1  1
  7  8  2  0
  7  5  1  0
  9  7  1  0
 10  9  1  0
 11 12  1  0
 10 11  1  1
 12 13  2  0
 12 16  1  0
 13 14  1  0
 14 15  1  0
 16 15  2  0
 17 18  2  0
 17 10  1  0
 20 19  1  0
 21 20  2  0
 22 20  1  0
 23 22  1  0
 24 23  1  6
 24 25  1  0
 25 17  1  0
 26 24  1  0
 27 26  1  0
 28 26  2  0
M  END
$$$$
