HDL.pdb
     RDKit          3D

 27 27  0  0  1  0  0  0  0  0999 V2000
   14.3489  -17.9234    3.4346 N   0  0  0  0  0  0  0  0  0  0  0  0
   15.5081  -18.2999    4.2041 C   0  0  1  0  0  0  0  0  0  0  0  0
   16.7243  -18.4944    3.3573 C   0  0  0  0  0  0  0  0  0  0  0  0
   16.5051  -19.5089    2.3076 C   0  0  0  0  0  0  0  0  0  0  0  0
   15.3470  -20.3002    2.1679 C   0  0  0  0  0  0  0  0  0  0  0  0
   15.4742  -21.1141    1.1176 N   0  0  0  0  0  0  0  0  0  0  0  0
   16.6733  -20.8674    0.5839 C   0  0  0  0  0  0  0  0  0  0  0  0
   17.2778  -19.9122    1.2969 N   0  0  0  0  0  0  0  0  0  0  0  0
   15.7548  -17.4820    5.3907 C   0  0  0  0  0  0  0  0  0  0  0  0
   15.0270  -16.4596    5.6416 O   0  0  0  0  0  0  0  0  0  0  0  0
   16.7756  -17.7134    6.3393 N   0  0  0  0  0  0  0  0  0  0  0  0
   16.8890  -17.0107    7.5785 C   0  0  1  0  0  0  0  0  0  0  0  0
   15.7154  -17.0113    8.4784 C   0  0  0  0  0  0  0  0  0  0  0  0
   15.6282  -15.8978    9.4450 C   0  0  0  0  0  0  0  0  0  0  0  0
   16.6091  -15.1421    9.5900 O   0  0  0  0  0  0  0  0  0  0  0  0
   18.0497  -17.5162    8.3775 C   0  0  0  0  0  0  0  0  0  0  0  0
   18.3719  -18.7190    8.4118 O   0  0  0  0  0  0  0  0  0  0  0  0
   14.4729  -15.7297   10.1539 O   0  0  0  0  0  0  0  0  0  0  0  0
   23.6354  -17.0827    8.6574 C   0  0  0  0  0  0  0  0  0  0  0  0
   22.2529  -17.5614    8.4841 C   0  0  1  0  0  0  0  0  0  0  0  0
   21.9977  -18.8684    9.2454 C   0  0  0  0  0  0  0  0  0  0  0  0
   21.1138  -16.6779    8.7543 C   0  0  0  0  0  0  0  0  0  0  0  0
   20.0874  -17.0355    9.7593 C   0  0  2  0  0  0  0  0  0  0  0  0
   18.8024  -16.5820    9.1179 N   0  0  0  0  0  0  0  0  0  0  0  0
   20.1754  -16.2157   10.9701 C   0  0  0  0  0  0  0  0  0  0  0  0
   19.5303  -14.9850   11.0542 O   0  0  0  0  0  0  0  0  0  0  0  0
   20.8190  -16.5438   11.9907 O   0  0  0  0  0  0  0  0  0  0  0  0
  2  1  1  6
  3  2  1  0
  4  8  1  0
  4  3  1  0
  5  4  2  0
  6  5  1  0
  6  7  1  0
  7  8  2  0
  9  2  1  0
 10  9  2  0
 11  9  1  0
 12 13  1  1
 12 11  1  0
 13 14  1  0
 14 15  2  0
 16 12  1  0
 17 16  2  0
 18 14  1  0
 20 19  1  1
 20 21  1  0
 22 20  1  0
 23 22  1  6
 23 24  1  0
 24 16  1  0
 25 26  1  0
 25 23  1  0
 27 25  2  0
M  END
$$$$
