HDL.pdb
     RDKit          3D

 27 27  0  0  1  0  0  0  0  0999 V2000
   21.0205  -15.2953  -20.2405 N   0  0  0  0  0  0  0  0  0  0  0  0
   20.8822  -14.7112  -18.9300 C   0  0  1  0  0  0  0  0  0  0  0  0
   21.5984  -15.4888  -17.8734 C   0  0  0  0  0  0  0  0  0  0  0  0
   21.0780  -16.8654  -17.7580 C   0  0  0  0  0  0  0  0  0  0  0  0
   19.9823  -17.3855  -18.4763 C   0  0  0  0  0  0  0  0  0  0  0  0
   19.7764  -18.6596  -18.1355 N   0  0  0  0  0  0  0  0  0  0  0  0
   20.7038  -18.9682  -17.2254 C   0  0  0  0  0  0  0  0  0  0  0  0
   21.4726  -17.8966  -17.0082 N   0  0  0  0  0  0  0  0  0  0  0  0
   21.1393  -13.2734  -18.8637 C   0  0  0  0  0  0  0  0  0  0  0  0
   22.1788  -12.7700  -19.4149 O   0  0  0  0  0  0  0  0  0  0  0  0
   20.3150  -12.3297  -18.2113 N   0  0  0  0  0  0  0  0  0  0  0  0
   20.5861  -10.9273  -18.1675 C   0  0  1  0  0  0  0  0  0  0  0  0
   19.5416  -10.0097  -18.6717 C   0  0  0  0  0  0  0  0  0  0  0  0
   19.8986   -8.5776  -18.7315 C   0  0  0  0  0  0  0  0  0  0  0  0
   20.7165   -8.1916  -19.5895 O   0  0  0  0  0  0  0  0  0  0  0  0
   20.9152  -10.4879  -16.7746 C   0  0  0  0  0  0  0  0  0  0  0  0
   20.2855  -10.8850  -15.7758 O   0  0  0  0  0  0  0  0  0  0  0  0
   19.3214   -7.7171  -17.8415 O   0  0  0  0  0  0  0  0  0  0  0  0
   26.0491  -10.6093  -15.3666 C   0  0  0  0  0  0  0  0  0  0  0  0
   24.5881  -10.5525  -15.1855 C   0  0  1  0  0  0  0  0  0  0  0  0
   24.1415  -11.2517  -13.8953 C   0  0  0  0  0  0  0  0  0  0  0  0
   23.8735   -9.2733  -15.2499 C   0  0  0  0  0  0  0  0  0  0  0  0
   22.3951   -9.2172  -15.1975 C   0  0  2  0  0  0  0  0  0  0  0  0
   21.9850   -9.5868  -16.5987 N   0  0  0  0  0  0  0  0  0  0  0  0
   21.8890   -7.8516  -15.0399 C   0  0  0  0  0  0  0  0  0  0  0  0
   21.5773   -7.3402  -13.7833 O   0  0  0  0  0  0  0  0  0  0  0  0
   21.6995   -7.0626  -15.9914 O   0  0  0  0  0  0  0  0  0  0  0  0
  2  1  1  6
  3  2  1  0
  4  8  1  0
  4  3  1  0
  5  4  2  0
  6  5  1  0
  6  7  1  0
  7  8  2  0
  9  2  1  0
 10  9  2  0
 11  9  1  0
 12 13  1  1
 12 11  1  0
 13 14  1  0
 14 15  2  0
 16 12  1  0
 17 16  2  0
 18 14  1  0
 20 19  1  1
 20 21  1  0
 22 20  1  0
 23 22  1  6
 23 24  1  0
 24 16  1  0
 25 26  1  0
 25 23  1  0
 27 25  2  0
M  END
$$$$
