HDL.pdb
     RDKit          3D

 27 27  0  0  1  0  0  0  0  0999 V2000
   14.6915  -10.5627  -16.5914 N   0  0  0  0  0  0  0  0  0  0  0  0
   15.1310   -9.3069  -16.0371 C   0  0  1  0  0  0  0  0  0  0  0  0
   14.8175   -9.1776  -14.5814 C   0  0  0  0  0  0  0  0  0  0  0  0
   13.3625   -9.1707  -14.3323 C   0  0  0  0  0  0  0  0  0  0  0  0
   12.6417  -10.1942  -13.6844 C   0  0  0  0  0  0  0  0  0  0  0  0
   11.3474   -9.8731  -13.6240 N   0  0  0  0  0  0  0  0  0  0  0  0
   11.2201   -8.6801  -14.2106 C   0  0  0  0  0  0  0  0  0  0  0  0
   12.4223   -8.2707  -14.6275 N   0  0  0  0  0  0  0  0  0  0  0  0
   16.5050   -8.9321  -16.3679 C   0  0  0  0  0  0  0  0  0  0  0  0
   17.4291   -9.8162  -16.4165 O   0  0  0  0  0  0  0  0  0  0  0  0
   16.9440   -7.6192  -16.6492 N   0  0  0  0  0  0  0  0  0  0  0  0
   18.2942   -7.2801  -16.9718 C   0  0  1  0  0  0  0  0  0  0  0  0
   18.5144   -6.2086  -17.9670 C   0  0  0  0  0  0  0  0  0  0  0  0
   19.9038   -6.0185  -18.4310 C   0  0  0  0  0  0  0  0  0  0  0  0
   20.5794   -7.0170  -18.7483 O   0  0  0  0  0  0  0  0  0  0  0  0
   19.0590   -6.8962  -15.7433 C   0  0  0  0  0  0  0  0  0  0  0  0
   18.5302   -6.3246  -14.7710 O   0  0  0  0  0  0  0  0  0  0  0  0
   20.4087   -4.7510  -18.4971 O   0  0  0  0  0  0  0  0  0  0  0  0
   23.0896  -10.4093  -14.0473 C   0  0  0  0  0  0  0  0  0  0  0  0
   22.0190   -9.3997  -13.9749 C   0  0  1  0  0  0  0  0  0  0  0  0
   21.4346   -9.2823  -12.5616 C   0  0  0  0  0  0  0  0  0  0  0  0
   22.2416   -8.0344  -14.4621 C   0  0  0  0  0  0  0  0  0  0  0  0
   21.1721   -7.0129  -14.3966 C   0  0  2  0  0  0  0  0  0  0  0  0
   20.4349   -7.1999  -15.6965 N   0  0  0  0  0  0  0  0  0  0  0  0
   21.6923   -5.6466  -14.4899 C   0  0  0  0  0  0  0  0  0  0  0  0
   22.0772   -4.9440  -13.3515 O   0  0  0  0  0  0  0  0  0  0  0  0
   21.8249   -5.0214  -15.5647 O   0  0  0  0  0  0  0  0  0  0  0  0
  2  1  1  1
  3  2  1  0
  4  8  1  0
  4  3  1  0
  5  4  2  0
  6  5  1  0
  6  7  1  0
  7  8  2  0
  9  2  1  0
 10  9  2  0
 11  9  1  0
 12 13  1  6
 12 11  1  0
 13 14  1  0
 14 15  2  0
 16 12  1  0
 17 16  2  0
 18 14  1  0
 20 19  1  1
 20 21  1  0
 22 20  1  0
 23 22  1  6
 23 24  1  0
 24 16  1  0
 25 26  1  0
 25 23  1  0
 27 25  2  0
M  END
$$$$
