HDL.pdb
     RDKit          3D

 27 27  0  0  1  0  0  0  0  0999 V2000
   17.8295  -13.8451  -17.6927 N   0  0  0  0  0  0  0  0  0  0  0  0
   17.3418  -12.7482  -16.8950 C   0  0  1  0  0  0  0  0  0  0  0  0
   17.0759  -13.1395  -15.4772 C   0  0  0  0  0  0  0  0  0  0  0  0
   15.9663  -14.1076  -15.3743 C   0  0  0  0  0  0  0  0  0  0  0  0
   16.1105  -15.5078  -15.3003 C   0  0  0  0  0  0  0  0  0  0  0  0
   14.9105  -16.0865  -15.2161 N   0  0  0  0  0  0  0  0  0  0  0  0
   14.0078  -15.1024  -15.2333 C   0  0  0  0  0  0  0  0  0  0  0  0
   14.6443  -13.9309  -15.3268 N   0  0  0  0  0  0  0  0  0  0  0  0
   18.1043  -11.5068  -17.0187 C   0  0  0  0  0  0  0  0  0  0  0  0
   19.3483  -11.5320  -17.3181 O   0  0  0  0  0  0  0  0  0  0  0  0
   17.5812  -10.2090  -16.8246 N   0  0  0  0  0  0  0  0  0  0  0  0
   18.2876   -9.0075  -17.1402 C   0  0  1  0  0  0  0  0  0  0  0  0
   17.5087   -7.8771  -17.6904 C   0  0  0  0  0  0  0  0  0  0  0  0
   18.2874   -6.7546  -18.2522 C   0  0  0  0  0  0  0  0  0  0  0  0
   19.2793   -7.0016  -18.9658 O   0  0  0  0  0  0  0  0  0  0  0  0
   19.0226   -8.4875  -15.9440 C   0  0  0  0  0  0  0  0  0  0  0  0
   18.5163   -8.4471  -14.8065 O   0  0  0  0  0  0  0  0  0  0  0  0
   17.8972   -5.4762  -17.9709 O   0  0  0  0  0  0  0  0  0  0  0  0
   23.9688  -10.4018  -15.0764 C   0  0  0  0  0  0  0  0  0  0  0  0
   22.6879   -9.7380  -14.7775 C   0  0  1  0  0  0  0  0  0  0  0  0
   22.3111   -9.8571  -13.2954 C   0  0  0  0  0  0  0  0  0  0  0  0
   22.4567   -8.3435  -15.1684 C   0  0  0  0  0  0  0  0  0  0  0  0
   21.1596   -7.6791  -14.9086 C   0  0  2  0  0  0  0  0  0  0  0  0
   20.3427   -8.0272  -16.1251 N   0  0  0  0  0  0  0  0  0  0  0  0
   21.2543   -6.2184  -14.9645 C   0  0  0  0  0  0  0  0  0  0  0  0
   21.6627   -5.4809  -13.8567 O   0  0  0  0  0  0  0  0  0  0  0  0
   20.9815   -5.5388  -15.9781 O   0  0  0  0  0  0  0  0  0  0  0  0
  2  1  1  1
  3  2  1  0
  4  8  1  0
  4  3  1  0
  5  4  2  0
  6  5  1  0
  6  7  1  0
  7  8  2  0
  9  2  1  0
 10  9  2  0
 11  9  1  0
 12 13  1  1
 12 11  1  0
 13 14  1  0
 14 15  2  0
 16 12  1  0
 17 16  2  0
 18 14  1  0
 20 19  1  1
 20 21  1  0
 22 20  1  0
 23 22  1  6
 23 24  1  0
 24 16  1  0
 25 26  1  0
 25 23  1  0
 27 25  2  0
M  END
$$$$
