HDL.pdb
     RDKit          3D

 27 27  0  0  1  0  0  0  0  0999 V2000
   20.3897  -15.0316  -18.8394 N   0  0  0  0  0  0  0  0  0  0  0  0
   19.6326  -14.0409  -18.1164 C   0  0  1  0  0  0  0  0  0  0  0  0
   19.2171  -14.5096  -16.7593 C   0  0  0  0  0  0  0  0  0  0  0  0
   18.3046  -15.6676  -16.8346 C   0  0  0  0  0  0  0  0  0  0  0  0
   18.6547  -17.0015  -16.5429 C   0  0  0  0  0  0  0  0  0  0  0  0
   17.5969  -17.7983  -16.7111 N   0  0  0  0  0  0  0  0  0  0  0  0
   16.5858  -17.0170  -17.0993 C   0  0  0  0  0  0  0  0  0  0  0  0
   17.0154  -15.7533  -17.1691 N   0  0  0  0  0  0  0  0  0  0  0  0
   20.2151  -12.6998  -18.1114 C   0  0  0  0  0  0  0  0  0  0  0  0
   21.4433  -12.5228  -17.7982 O   0  0  0  0  0  0  0  0  0  0  0  0
   19.5209  -11.5111  -18.4285 N   0  0  0  0  0  0  0  0  0  0  0  0
   20.1355  -10.2233  -18.5058 C   0  0  1  0  0  0  0  0  0  0  0  0
   19.5409   -9.2326  -19.4289 C   0  0  0  0  0  0  0  0  0  0  0  0
   20.3135   -7.9930  -19.6485 C   0  0  0  0  0  0  0  0  0  0  0  0
   21.5579   -8.0348  -19.5870 O   0  0  0  0  0  0  0  0  0  0  0  0
   20.1987   -9.5773  -17.1568 C   0  0  0  0  0  0  0  0  0  0  0  0
   19.2854   -9.6810  -16.3160 O   0  0  0  0  0  0  0  0  0  0  0  0
   19.6394   -6.8345  -19.9117 O   0  0  0  0  0  0  0  0  0  0  0  0
   24.3705  -10.7353  -14.2454 C   0  0  0  0  0  0  0  0  0  0  0  0
   23.0251  -10.1797  -14.4729 C   0  0  1  0  0  0  0  0  0  0  0  0
   22.1561  -10.2435  -13.2105 C   0  0  0  0  0  0  0  0  0  0  0  0
   22.8538   -8.8399  -15.0445 C   0  0  0  0  0  0  0  0  0  0  0  0
   21.5153   -8.3325  -15.4218 C   0  0  2  0  0  0  0  0  0  0  0  0
   21.3454   -8.8226  -16.8359 N   0  0  0  0  0  0  0  0  0  0  0  0
   21.4837   -6.8743  -15.5572 C   0  0  0  0  0  0  0  0  0  0  0  0
   21.2841   -6.0531  -14.4509 O   0  0  0  0  0  0  0  0  0  0  0  0
   21.6258   -6.2701  -16.6427 O   0  0  0  0  0  0  0  0  0  0  0  0
  2  1  1  1
  3  2  1  0
  4  8  1  0
  4  3  1  0
  5  4  2  0
  6  5  1  0
  6  7  1  0
  7  8  2  0
  9  2  1  0
 10  9  2  0
 11  9  1  0
 12 13  1  6
 12 11  1  0
 13 14  1  0
 14 15  2  0
 16 12  1  0
 17 16  2  0
 18 14  1  0
 20 19  1  1
 20 21  1  0
 22 20  1  0
 23 22  1  6
 23 24  1  0
 24 16  1  0
 25 26  1  0
 25 23  1  0
 27 25  2  0
M  END
$$$$
