HDL.pdb
     RDKit          3D

 27 27  0  0  1  0  0  0  0  0999 V2000
   25.3452  -35.7961   -7.2594 N   0  0  0  0  0  0  0  0  0  0  0  0
   26.1953  -34.8802   -6.5410 C   0  0  1  0  0  0  0  0  0  0  0  0
   25.7269  -33.4639   -6.6349 C   0  0  0  0  0  0  0  0  0  0  0  0
   25.5965  -33.0212   -8.0371 C   0  0  0  0  0  0  0  0  0  0  0  0
   26.6700  -32.7531   -8.9103 C   0  0  0  0  0  0  0  0  0  0  0  0
   26.2047  -32.3740  -10.1027 N   0  0  0  0  0  0  0  0  0  0  0  0
   24.8721  -32.3923  -10.0182 C   0  0  0  0  0  0  0  0  0  0  0  0
   24.5202  -32.7785   -8.7880 N   0  0  0  0  0  0  0  0  0  0  0  0
   26.5318  -35.2885   -5.1780 C   0  0  0  0  0  0  0  0  0  0  0  0
   25.6108  -35.5422   -4.3264 O   0  0  0  0  0  0  0  0  0  0  0  0
   27.8433  -35.4340   -4.6736 N   0  0  0  0  0  0  0  0  0  0  0  0
   28.1447  -35.8172   -3.3304 C   0  0  1  0  0  0  0  0  0  0  0  0
   29.5335  -36.2257   -3.0277 C   0  0  0  0  0  0  0  0  0  0  0  0
   29.7934  -36.7026   -1.6541 C   0  0  0  0  0  0  0  0  0  0  0  0
   30.8782  -36.4199   -1.1088 O   0  0  0  0  0  0  0  0  0  0  0  0
   27.7938  -34.7243   -2.3692 C   0  0  0  0  0  0  0  0  0  0  0  0
   28.1428  -33.5404   -2.5377 O   0  0  0  0  0  0  0  0  0  0  0  0
   28.8352  -37.4424   -1.0213 O   0  0  0  0  0  0  0  0  0  0  0  0
   25.5525  -30.9590    0.3035 C   0  0  0  0  0  0  0  0  0  0  0  0
   24.8958  -32.1352   -0.2930 C   0  0  1  0  0  0  0  0  0  0  0  0
   23.7568  -31.7382   -1.2406 C   0  0  0  0  0  0  0  0  0  0  0  0
   25.6825  -33.1673   -0.9763 C   0  0  0  0  0  0  0  0  0  0  0  0
   26.6863  -33.9748   -0.2470 C   0  0  2  0  0  0  0  0  0  0  0  0
   27.0360  -35.0615   -1.2293 N   0  0  0  0  0  0  0  0  0  0  0  0
   26.1075  -34.7057    0.8828 C   0  0  0  0  0  0  0  0  0  0  0  0
   26.0889  -34.1563    2.1617 O   0  0  0  0  0  0  0  0  0  0  0  0
   25.6030  -35.8463    0.7923 O   0  0  0  0  0  0  0  0  0  0  0  0
  2  1  1  1
  3  2  1  0
  4  8  1  0
  4  3  1  0
  5  4  2  0
  6  5  1  0
  6  7  1  0
  7  8  2  0
  9  2  1  0
 10  9  2  0
 11  9  1  0
 12 13  1  6
 12 11  1  0
 13 14  1  0
 14 15  2  0
 16 12  1  0
 17 16  2  0
 18 14  1  0
 20 19  1  6
 20 21  1  0
 22 20  1  0
 23 22  1  6
 23 24  1  0
 24 16  1  0
 25 26  1  0
 25 23  1  0
 27 25  2  0
M  END
$$$$
