HDL.pdb
     RDKit          3D

 27 27  0  0  1  0  0  0  0  0999 V2000
   19.0190  -10.5869  -17.0256 N   0  0  0  0  0  0  0  0  0  0  0  0
   17.9791  -10.4882  -16.0324 C   0  0  1  0  0  0  0  0  0  0  0  0
   17.7702  -11.7668  -15.2869 C   0  0  0  0  0  0  0  0  0  0  0  0
   17.6543  -12.9212  -16.1996 C   0  0  0  0  0  0  0  0  0  0  0  0
   16.4452  -13.4531  -16.6916 C   0  0  0  0  0  0  0  0  0  0  0  0
   16.6956  -14.4923  -17.4911 N   0  0  0  0  0  0  0  0  0  0  0  0
   18.0225  -14.6395  -17.5252 C   0  0  0  0  0  0  0  0  0  0  0  0
   18.5833  -13.7015  -16.7558 N   0  0  0  0  0  0  0  0  0  0  0  0
   18.0663   -9.3181  -15.1600 C   0  0  0  0  0  0  0  0  0  0  0  0
   17.1568   -9.0826  -14.2909 O   0  0  0  0  0  0  0  0  0  0  0  0
   19.1068   -8.3629  -15.1832 N   0  0  0  0  0  0  0  0  0  0  0  0
   19.1923   -7.2528  -14.2874 C   0  0  1  0  0  0  0  0  0  0  0  0
   19.4582   -7.5399  -12.8612 C   0  0  0  0  0  0  0  0  0  0  0  0
   18.2748   -7.7173  -11.9952 C   0  0  0  0  0  0  0  0  0  0  0  0
   17.1378   -7.5620  -12.4823 O   0  0  0  0  0  0  0  0  0  0  0  0
   20.2375   -6.2799  -14.7373 C   0  0  0  0  0  0  0  0  0  0  0  0
   20.6015   -5.3122  -14.0425 O   0  0  0  0  0  0  0  0  0  0  0  0
   18.4623   -8.0456  -10.6827 O   0  0  0  0  0  0  0  0  0  0  0  0
   23.8275   -8.3363  -18.3613 C   0  0  0  0  0  0  0  0  0  0  0  0
   23.2546   -7.5371  -17.2642 C   0  0  1  0  0  0  0  0  0  0  0  0
   24.2750   -7.2782  -16.1485 C   0  0  0  0  0  0  0  0  0  0  0  0
   22.5835   -6.2617  -17.5364 C   0  0  0  0  0  0  0  0  0  0  0  0
   21.8904   -5.5152  -16.4623 C   0  0  2  0  0  0  0  0  0  0  0  0
   20.8275   -6.4780  -16.0022 N   0  0  0  0  0  0  0  0  0  0  0  0
   21.1244   -4.3757  -16.9729 C   0  0  0  0  0  0  0  0  0  0  0  0
   19.7456   -4.4557  -17.1473 O   0  0  0  0  0  0  0  0  0  0  0  0
   21.6320   -3.2766  -17.2858 O   0  0  0  0  0  0  0  0  0  0  0  0
  2  1  1  1
  3  2  1  0
  4  8  1  0
  4  3  1  0
  5  4  2  0
  6  5  1  0
  6  7  1  0
  7  8  2  0
  9  2  1  0
 10  9  2  0
 11  9  1  0
 12 13  1  1
 12 11  1  0
 13 14  1  0
 14 15  2  0
 16 12  1  0
 17 16  2  0
 18 14  1  0
 20 19  1  6
 20 21  1  0
 22 20  1  0
 23 22  1  6
 23 24  1  0
 24 16  1  0
 25 26  1  0
 25 23  1  0
 27 25  2  0
M  END
$$$$
