NTY.pdb
     RDKit          3D

 28 28  0  0  1  0  0  0  0  0999 V2000
   28.1698  -34.7373  -16.4470 N   0  0  0  0  0  0  0  0  0  0  0  0
   29.0136  -33.8167  -15.7801 C   0  0  0  0  0  0  0  0  0  0  0  0
   30.2428  -33.8284  -16.0255 O   0  0  0  0  0  0  0  0  0  0  0  0
   28.4319  -32.8585  -14.8104 C   0  0  0  0  0  0  0  0  0  0  0  0
   26.9515  -33.1257  -14.6696 C   0  0  2  0  0  0  0  0  0  0  0  0
   26.1614  -32.6638  -15.7553 N   0  0  0  0  0  0  0  0  0  0  0  0
   26.4770  -32.6627  -13.3322 C   0  0  0  0  0  0  0  0  0  0  0  0
   25.9092  -31.5527  -13.2605 O   0  0  0  0  0  0  0  0  0  0  0  0
   23.7381  -33.0605  -11.4940 C   0  0  0  0  0  0  0  0  0  0  0  0
   24.7876  -33.6874  -10.6032 C   0  0  1  0  0  0  0  0  0  0  0  0
   24.7927  -35.0482  -10.8884 O   0  0  0  0  0  0  0  0  0  0  0  0
   26.1559  -33.0559  -10.8379 C   0  0  2  0  0  0  0  0  0  0  0  0
   26.6491  -33.4324  -12.1651 N   0  0  0  0  0  0  0  0  0  0  0  0
   27.0664  -33.5764   -9.7886 C   0  0  0  0  0  0  0  0  0  0  0  0
   27.8329  -34.5448  -10.0169 O   0  0  0  0  0  0  0  0  0  0  0  0
   33.0912  -35.0988   -3.9376 O   0  0  0  0  0  0  0  0  0  0  0  0
   32.1812  -34.5240   -4.8321 C   0  0  0  0  0  0  0  0  0  0  0  0
   32.4857  -34.2675   -6.1473 C   0  0  0  0  0  0  0  0  0  0  0  0
   31.5827  -33.6993   -7.0261 C   0  0  0  0  0  0  0  0  0  0  0  0
   30.3309  -33.3849   -6.5399 C   0  0  0  0  0  0  0  0  0  0  0  0
   29.3526  -32.7722   -7.4725 C   0  0  0  0  0  0  0  0  0  0  0  0
   28.0404  -33.5257   -7.4667 C   0  0  2  0  0  0  0  0  0  0  0  0
   27.1288  -33.0185   -8.4740 N   0  0  0  0  0  0  0  0  0  0  0  0
   27.3834  -33.4649   -6.1422 C   0  0  0  0  0  0  0  0  0  0  0  0
   27.8972  -34.0800   -5.1812 O   0  0  0  0  0  0  0  0  0  0  0  0
   30.0202  -33.6395   -5.2246 C   0  0  0  0  0  0  0  0  0  0  0  0
   30.9282  -34.2122   -4.3356 C   0  0  0  0  0  0  0  0  0  0  0  0
   26.2148  -32.7585   -5.8974 O   0  0  0  0  0  0  0  0  0  0  0  0
  2  1  1  0
  2  3  2  0
  4  5  1  0
  4  2  1  0
  5  7  1  0
  5  6  1  6
  7  8  2  0
 10  9  1  6
 10 11  1  0
 10 12  1  0
 12 14  1  0
 12 13  1  6
 13  7  1  0
 14 15  2  0
 14 23  1  0
 16 17  1  0
 17 18  2  0
 18 19  1  0
 20 21  1  0
 20 19  2  0
 22 21  1  1
 22 24  1  0
 23 22  1  0
 24 25  2  0
 24 28  1  0
 26 20  1  0
 27 26  2  0
 27 17  1  0
M  END
$$$$
