NTY.pdb
     RDKit          3D

 28 28  0  0  1  0  0  0  0  0999 V2000
   18.8180  -15.2607  -16.4662 N   0  0  0  0  0  0  0  0  0  0  0  0
   19.9709  -14.8153  -15.7755 C   0  0  0  0  0  0  0  0  0  0  0  0
   20.3848  -15.4741  -14.7927 O   0  0  0  0  0  0  0  0  0  0  0  0
   20.6659  -13.5859  -16.2253 C   0  0  0  0  0  0  0  0  0  0  0  0
   19.9173  -12.9865  -17.3929 C   0  0  2  0  0  0  0  0  0  0  0  0
   19.7794  -13.8490  -18.5124 N   0  0  0  0  0  0  0  0  0  0  0  0
   20.4833  -11.6457  -17.7245 C   0  0  0  0  0  0  0  0  0  0  0  0
   21.3615  -11.5797  -18.6100 O   0  0  0  0  0  0  0  0  0  0  0  0
   18.7248   -8.5517  -19.0065 C   0  0  0  0  0  0  0  0  0  0  0  0
   19.3666   -8.2059  -17.6812 C   0  0  1  0  0  0  0  0  0  0  0  0
   18.3737   -8.3197  -16.7146 O   0  0  0  0  0  0  0  0  0  0  0  0
   20.5489   -9.1235  -17.3872 C   0  0  2  0  0  0  0  0  0  0  0  0
   20.0602  -10.4692  -17.0757 N   0  0  0  0  0  0  0  0  0  0  0  0
   21.2650   -8.5573  -16.2178 C   0  0  0  0  0  0  0  0  0  0  0  0
   21.0137   -8.9491  -15.0513 O   0  0  0  0  0  0  0  0  0  0  0  0
   26.7366  -11.9495  -16.6550 O   0  0  0  0  0  0  0  0  0  0  0  0
   26.1755  -10.7075  -16.3368 C   0  0  0  0  0  0  0  0  0  0  0  0
   25.8643  -10.3346  -15.0514 C   0  0  0  0  0  0  0  0  0  0  0  0
   25.3100   -9.1064  -14.7432 C   0  0  0  0  0  0  0  0  0  0  0  0
   25.0678   -8.2363  -15.7855 C   0  0  0  0  0  0  0  0  0  0  0  0
   24.4708   -6.9152  -15.4685 C   0  0  0  0  0  0  0  0  0  0  0  0
   22.9878   -7.0336  -15.1920 C   0  0  2  0  0  0  0  0  0  0  0  0
   22.2694   -7.5478  -16.3418 N   0  0  0  0  0  0  0  0  0  0  0  0
   22.4024   -5.7338  -14.7949 C   0  0  0  0  0  0  0  0  0  0  0  0
   21.6010   -5.1669  -15.5709 O   0  0  0  0  0  0  0  0  0  0  0  0
   25.3774   -8.6037  -17.0741 C   0  0  0  0  0  0  0  0  0  0  0  0
   25.9363   -9.8412  -17.3886 C   0  0  0  0  0  0  0  0  0  0  0  0
   22.6931   -5.0954  -13.5981 O   0  0  0  0  0  0  0  0  0  0  0  0
  2  1  1  0
  2  3  2  0
  4  5  1  0
  4  2  1  0
  5  7  1  0
  5  6  1  6
  7  8  2  0
 10  9  1  6
 10 11  1  0
 10 12  1  0
 12 14  1  0
 12 13  1  1
 13  7  1  0
 14 15  2  0
 14 23  1  0
 16 17  1  0
 17 18  2  0
 18 19  1  0
 20 21  1  0
 20 19  2  0
 22 21  1  6
 22 24  1  0
 23 22  1  0
 24 25  2  0
 24 28  1  0
 26 20  1  0
 27 26  2  0
 27 17  1  0
M  END
$$$$
