NTY.pdb
     RDKit          3D

 28 28  0  0  1  0  0  0  0  0999 V2000
   20.0599  -17.0346  -15.4566 N   0  0  0  0  0  0  0  0  0  0  0  0
   19.3849  -15.8446  -15.8207 C   0  0  0  0  0  0  0  0  0  0  0  0
   18.1332  -15.8118  -15.7622 O   0  0  0  0  0  0  0  0  0  0  0  0
   20.1658  -14.6638  -16.2600 C   0  0  0  0  0  0  0  0  0  0  0  0
   19.3187  -13.8186  -17.1823 C   0  0  2  0  0  0  0  0  0  0  0  0
   19.1779  -14.3369  -18.4968 N   0  0  0  0  0  0  0  0  0  0  0  0
   19.7777  -12.3990  -17.1345 C   0  0  0  0  0  0  0  0  0  0  0  0
   20.9684  -12.1551  -17.4216 O   0  0  0  0  0  0  0  0  0  0  0  0
   17.8681   -9.4805  -18.8845 C   0  0  0  0  0  0  0  0  0  0  0  0
   18.0946   -9.1345  -17.4296 C   0  0  1  0  0  0  0  0  0  0  0  0
   16.9081   -9.4173  -16.7622 O   0  0  0  0  0  0  0  0  0  0  0  0
   19.2678   -9.9210  -16.8539 C   0  0  2  0  0  0  0  0  0  0  0  0
   18.9172  -11.3417  -16.7801 N   0  0  0  0  0  0  0  0  0  0  0  0
   19.5292   -9.3886  -15.4940 C   0  0  0  0  0  0  0  0  0  0  0  0
   18.9874   -9.8989  -14.4824 O   0  0  0  0  0  0  0  0  0  0  0  0
   24.5717   -4.1267  -17.3396 O   0  0  0  0  0  0  0  0  0  0  0  0
   23.9676   -4.9835  -16.4124 C   0  0  0  0  0  0  0  0  0  0  0  0
   23.4464   -4.5459  -15.2186 C   0  0  0  0  0  0  0  0  0  0  0  0
   22.8512   -5.3970  -14.3065 C   0  0  0  0  0  0  0  0  0  0  0  0
   22.7900   -6.7364  -14.6297 C   0  0  0  0  0  0  0  0  0  0  0  0
   22.1555   -7.6614  -13.6580 C   0  0  0  0  0  0  0  0  0  0  0  0
   20.6699   -7.7938  -13.9137 C   0  0  2  0  0  0  0  0  0  0  0  0
   20.3997   -8.2808  -15.2526 N   0  0  0  0  0  0  0  0  0  0  0  0
   19.9661   -6.5077  -13.7133 C   0  0  0  0  0  0  0  0  0  0  0  0
   19.8824   -6.0354  -12.5575 O   0  0  0  0  0  0  0  0  0  0  0  0
   23.3097   -7.1804  -15.8230 C   0  0  0  0  0  0  0  0  0  0  0  0
   23.9106   -6.3251  -16.7451 C   0  0  0  0  0  0  0  0  0  0  0  0
   19.3836   -5.7836  -14.7433 O   0  0  0  0  0  0  0  0  0  0  0  0
  2  1  1  0
  2  3  2  0
  4  5  1  0
  4  2  1  0
  5  7  1  0
  5  6  1  6
  7  8  2  0
 10  9  1  6
 10 11  1  0
 10 12  1  0
 12 14  1  0
 12 13  1  1
 13  7  1  0
 14 15  2  0
 14 23  1  0
 16 17  1  0
 17 18  2  0
 18 19  1  0
 20 21  1  0
 20 19  2  0
 22 21  1  6
 22 24  1  0
 23 22  1  0
 24 25  2  0
 24 28  1  0
 26 20  1  0
 27 26  2  0
 27 17  1  0
M  END
$$$$
