FLS.pdb
     RDKit          3D

 26 26  0  0  1  0  0  0  0  0999 V2000
   39.3179  -93.6068  -15.8080 N   0  0  0  0  0  0  0  0  0  0  0  0
   38.6861  -93.6721  -14.5327 C   0  0  1  0  0  0  0  0  0  0  0  0
   39.4676  -94.4543  -13.5099 C   0  0  0  0  0  0  0  0  0  0  0  0
   38.5971  -95.3831  -12.7532 C   0  0  0  0  0  0  0  0  0  0  0  0
   37.2701  -95.4507  -13.1269 C   0  0  0  0  0  0  0  0  0  0  0  0
   36.4519  -96.3029  -12.4391 C   0  0  0  0  0  0  0  0  0  0  0  0
   36.9524  -97.0588  -11.4133 C   0  0  0  0  0  0  0  0  0  0  0  0
   38.2777  -96.9788  -11.0543 C   0  0  0  0  0  0  0  0  0  0  0  0
   39.1331  -96.1239  -11.7324 C   0  0  0  0  0  0  0  0  0  0  0  0
   38.5759  -92.2616  -14.0083 C   0  0  0  0  0  0  0  0  0  0  0  0
   38.1383  -92.0410  -12.8459 O   0  0  0  0  0  0  0  0  0  0  0  0
   39.2727  -90.6028  -16.7103 C   0  0  0  0  0  0  0  0  0  0  0  0
   40.2825  -89.4340  -16.4330 C   0  0  1  0  0  0  0  0  0  0  0  0
   40.0671  -88.4398  -17.5221 C   0  0  0  0  0  0  0  0  0  0  0  0
   40.0232  -89.0443  -15.0480 C   0  0  0  0  0  0  0  0  0  0  0  0
   39.1369  -89.8233  -14.1564 C   0  0  2  0  0  0  0  0  0  0  0  0
   38.9585  -91.1539  -14.8024 N   0  0  0  0  0  0  0  0  0  0  0  0
   37.7847  -89.2829  -14.0300 C   0  0  0  0  0  0  0  0  0  0  0  0
   37.5526  -88.0574  -14.0689 O   0  0  0  0  0  0  0  0  0  0  0  0
   36.5082  -89.5236  -16.3335 O   0  0  0  0  0  0  0  0  0  0  0  0
   35.4347  -89.0040  -15.6480 C   0  0  0  0  0  0  0  0  0  0  0  0
   35.3601  -89.7015  -14.3027 C   0  0  2  0  0  0  0  0  0  0  0  0
   36.6700  -90.1312  -13.8563 N   0  0  0  0  0  0  0  0  0  0  0  0
   34.4522  -90.8627  -14.4195 C   0  0  0  0  0  0  0  0  0  0  0  0
   34.9284  -92.0717  -14.8775 O   0  0  0  0  0  0  0  0  0  0  0  0
   33.2460  -90.7541  -14.1030 O   0  0  0  0  0  0  0  0  0  0  0  0
  2  1  1  6
  3  2  1  0
  4  3  1  0
  5  4  2  0
  6  5  1  0
  7  6  2  0
  7  8  1  0
  8  9  2  0
  9  4  1  0
 10  2  1  0
 10 17  1  0
 11 10  2  0
 13 14  1  6
 13 12  1  0
 15 13  1  0
 16 15  1  6
 16 17  1  0
 18 16  1  0
 19 18  2  0
 20 21  1  0
 22 21  1  6
 22 24  1  0
 22 23  1  0
 23 18  1  0
 24 25  1  0
 26 24  2  0
M  END
$$$$
