FLS.pdb
     RDKit          3D

 26 26  0  0  1  0  0  0  0  0999 V2000
   18.9317  -11.3313  -19.3747 N   0  0  0  0  0  0  0  0  0  0  0  0
   19.8113  -10.2199  -19.5201 C   0  0  1  0  0  0  0  0  0  0  0  0
   19.1585   -9.0079  -20.1314 C   0  0  0  0  0  0  0  0  0  0  0  0
   18.7755   -9.2486  -21.5415 C   0  0  0  0  0  0  0  0  0  0  0  0
   19.7929   -9.5140  -22.4356 C   0  0  0  0  0  0  0  0  0  0  0  0
   19.4575   -9.7386  -23.7417 C   0  0  0  0  0  0  0  0  0  0  0  0
   18.1460   -9.6973  -24.1320 C   0  0  0  0  0  0  0  0  0  0  0  0
   17.1448   -9.4312  -23.2273 C   0  0  0  0  0  0  0  0  0  0  0  0
   17.4525   -9.1992  -21.8954 C   0  0  0  0  0  0  0  0  0  0  0  0
   20.2657   -9.8174  -18.1388 C   0  0  0  0  0  0  0  0  0  0  0  0
   19.5243  -10.0118  -17.1368 O   0  0  0  0  0  0  0  0  0  0  0  0
   23.2275  -10.1788  -14.0446 C   0  0  0  0  0  0  0  0  0  0  0  0
   24.1188   -9.6295  -15.2138 C   0  0  1  0  0  0  0  0  0  0  0  0
   25.3904  -10.4046  -15.1579 C   0  0  0  0  0  0  0  0  0  0  0  0
   23.2717   -9.7305  -16.4010 C   0  0  0  0  0  0  0  0  0  0  0  0
   22.0039   -8.9814  -16.5382 C   0  0  2  0  0  0  0  0  0  0  0  0
   21.5293   -9.2139  -17.9312 N   0  0  0  0  0  0  0  0  0  0  0  0
   22.1468   -7.5309  -16.4274 C   0  0  0  0  0  0  0  0  0  0  0  0
   22.7417   -6.8540  -17.2905 O   0  0  0  0  0  0  0  0  0  0  0  0
   20.6927   -3.3395  -14.9320 O   0  0  0  0  0  0  0  0  0  0  0  0
   20.4762   -4.6974  -14.8915 C   0  0  0  0  0  0  0  0  0  0  0  0
   21.7805   -5.3872  -15.2449 C   0  0  2  0  0  0  0  0  0  0  0  0
   21.6133   -6.8241  -15.3281 N   0  0  0  0  0  0  0  0  0  0  0  0
   22.7903   -5.0474  -14.2197 C   0  0  0  0  0  0  0  0  0  0  0  0
   23.6490   -3.9881  -14.4168 O   0  0  0  0  0  0  0  0  0  0  0  0
   22.8711   -5.7200  -13.1671 O   0  0  0  0  0  0  0  0  0  0  0  0
  2  1  1  1
  3  2  1  0
  4  3  1  0
  5  4  2  0
  6  5  1  0
  7  6  2  0
  7  8  1  0
  8  9  2  0
  9  4  1  0
 10  2  1  0
 10 17  1  0
 11 10  2  0
 13 14  1  6
 13 12  1  0
 15 13  1  0
 16 15  1  6
 16 17  1  0
 18 16  1  0
 19 18  2  0
 20 21  1  0
 22 21  1  1
 22 24  1  0
 22 23  1  0
 23 18  1  0
 24 25  1  0
 26 24  2  0
M  END
$$$$
