FLS.pdb
     RDKit          3D

 26 26  0  0  1  0  0  0  0  0999 V2000
   21.5839  -32.6692  -10.9174 N   0  0  0  0  0  0  0  0  0  0  0  0
   22.8708  -33.0245  -10.4196 C   0  0  1  0  0  0  0  0  0  0  0  0
   23.9576  -32.0563  -10.8069 C   0  0  0  0  0  0  0  0  0  0  0  0
   24.3159  -32.1839  -12.2381 C   0  0  0  0  0  0  0  0  0  0  0  0
   25.3272  -33.0664  -12.5597 C   0  0  0  0  0  0  0  0  0  0  0  0
   25.6711  -33.1968  -13.8763 C   0  0  0  0  0  0  0  0  0  0  0  0
   25.0201  -32.4651  -14.8330 C   0  0  0  0  0  0  0  0  0  0  0  0
   24.0144  -31.5902  -14.4945 C   0  0  0  0  0  0  0  0  0  0  0  0
   23.6424  -31.4354  -13.1678 C   0  0  0  0  0  0  0  0  0  0  0  0
   22.7940  -33.0101   -8.9128 C   0  0  0  0  0  0  0  0  0  0  0  0
   22.0644  -32.1725   -8.3149 O   0  0  0  0  0  0  0  0  0  0  0  0
   20.6537  -36.7060   -6.1336 C   0  0  0  0  0  0  0  0  0  0  0  0
   21.0493  -35.2063   -6.3728 C   0  0  1  0  0  0  0  0  0  0  0  0
   20.3555  -34.4255   -5.3098 C   0  0  0  0  0  0  0  0  0  0  0  0
   22.5106  -35.2135   -6.4158 C   0  0  0  0  0  0  0  0  0  0  0  0
   23.3039  -33.9900   -6.6629 C   0  0  2  0  0  0  0  0  0  0  0  0
   23.5347  -33.9311   -8.1336 N   0  0  0  0  0  0  0  0  0  0  0  0
   24.6413  -34.0106   -6.0734 C   0  0  0  0  0  0  0  0  0  0  0  0
   25.5826  -34.6515   -6.5838 O   0  0  0  0  0  0  0  0  0  0  0  0
   27.7285  -32.3396   -2.7982 O   0  0  0  0  0  0  0  0  0  0  0  0
   26.3974  -32.4099   -3.1383 C   0  0  0  0  0  0  0  0  0  0  0  0
   26.2727  -33.3243   -4.3426 C   0  0  2  0  0  0  0  0  0  0  0  0
   24.9308  -33.2997   -4.8888 N   0  0  0  0  0  0  0  0  0  0  0  0
   26.6349  -34.6986   -3.9350 C   0  0  0  0  0  0  0  0  0  0  0  0
   27.9382  -35.1323   -4.0406 O   0  0  0  0  0  0  0  0  0  0  0  0
   25.7596  -35.4759   -3.4916 O   0  0  0  0  0  0  0  0  0  0  0  0
  2  1  1  6
  3  2  1  0
  4  3  1  0
  5  4  2  0
  6  5  1  0
  7  6  2  0
  7  8  1  0
  8  9  2  0
  9  4  1  0
 10  2  1  0
 10 17  1  0
 11 10  2  0
 13 14  1  1
 13 12  1  0
 15 13  1  0
 16 15  1  6
 16 17  1  0
 18 16  1  0
 19 18  2  0
 20 21  1  0
 22 21  1  1
 22 24  1  0
 22 23  1  0
 23 18  1  0
 24 25  1  0
 26 24  2  0
M  END
$$$$
