FLS.pdb
     RDKit          3D

 26 26  0  0  1  0  0  0  0  0999 V2000
   20.4939  -12.3610  -17.9927 N   0  0  0  0  0  0  0  0  0  0  0  0
   21.2825  -11.2820  -18.4866 C   0  0  1  0  0  0  0  0  0  0  0  0
   20.5088  -10.3053  -19.3329 C   0  0  0  0  0  0  0  0  0  0  0  0
   20.0394  -10.9282  -20.5918 C   0  0  0  0  0  0  0  0  0  0  0  0
   20.9643  -11.0780  -21.6053 C   0  0  0  0  0  0  0  0  0  0  0  0
   20.5483  -11.6511  -22.7746 C   0  0  0  0  0  0  0  0  0  0  0  0
   19.2489  -12.0580  -22.9171 C   0  0  0  0  0  0  0  0  0  0  0  0
   18.3405  -11.9009  -21.8964 C   0  0  0  0  0  0  0  0  0  0  0  0
   18.7315  -11.3232  -20.6982 C   0  0  0  0  0  0  0  0  0  0  0  0
   21.7948  -10.5119  -17.2946 C   0  0  0  0  0  0  0  0  0  0  0  0
   21.1801  -10.5489  -16.1936 O   0  0  0  0  0  0  0  0  0  0  0  0
   27.1063  -10.2444  -16.0104 C   0  0  0  0  0  0  0  0  0  0  0  0
   25.5655  -10.5188  -15.8941 C   0  0  1  0  0  0  0  0  0  0  0  0
   25.3657  -11.1767  -14.5718 C   0  0  0  0  0  0  0  0  0  0  0  0
   24.9404   -9.2221  -16.1490 C   0  0  0  0  0  0  0  0  0  0  0  0
   23.4732   -9.0361  -16.1601 C   0  0  2  0  0  0  0  0  0  0  0  0
   22.9727   -9.7313  -17.3791 N   0  0  0  0  0  0  0  0  0  0  0  0
   23.0437   -7.6477  -16.3166 C   0  0  0  0  0  0  0  0  0  0  0  0
   23.3340   -6.9720  -17.3248 O   0  0  0  0  0  0  0  0  0  0  0  0
   19.8898   -6.1755  -14.3878 O   0  0  0  0  0  0  0  0  0  0  0  0
   20.3570   -5.4839  -15.4814 C   0  0  0  0  0  0  0  0  0  0  0  0
   21.8674   -5.6244  -15.5100 C   0  0  2  0  0  0  0  0  0  0  0  0
   22.2742   -7.0027  -15.3245 N   0  0  0  0  0  0  0  0  0  0  0  0
   22.4438   -4.7727  -14.4476 C   0  0  0  0  0  0  0  0  0  0  0  0
   22.2374   -3.4106  -14.4627 O   0  0  0  0  0  0  0  0  0  0  0  0
   23.1224   -5.2841  -13.5285 O   0  0  0  0  0  0  0  0  0  0  0  0
  2  1  1  1
  3  2  1  0
  4  3  1  0
  5  4  2  0
  6  5  1  0
  7  6  2  0
  7  8  1  0
  8  9  2  0
  9  4  1  0
 10  2  1  0
 10 17  1  0
 11 10  2  0
 13 14  1  1
 13 12  1  0
 15 13  1  0
 16 15  1  6
 16 17  1  0
 18 16  1  0
 19 18  2  0
 20 21  1  0
 22 21  1  1
 22 24  1  0
 22 23  1  0
 23 18  1  0
 24 25  1  0
 26 24  2  0
M  END
$$$$
