CDE.pdb
     RDKit          3D

 24 23  0  0  1  0  0  0  0  0999 V2000
   24.4989  -21.4896  -15.7065 N   0  0  0  0  0  0  0  0  0  0  0  0
   24.0741  -20.0965  -15.6560 C   0  0  1  0  0  0  0  0  0  0  0  0
   24.2968  -19.5412  -17.0621 C   0  0  0  0  0  0  0  0  0  0  0  0
   23.8296  -17.8046  -17.1610 S   0  0  0  0  0  0  0  0  0  0  0  0
   22.6164  -20.0833  -15.3729 C   0  0  0  0  0  0  0  0  0  0  0  0
   21.8072  -20.8440  -16.0022 O   0  0  0  0  0  0  0  0  0  0  0  0
   22.0118  -19.2422  -14.3997 N   0  0  0  0  0  0  0  0  0  0  0  0
   20.5812  -19.2152  -14.1410 C   0  0  1  0  0  0  0  0  0  0  0  0
   20.2964  -18.8502  -12.7025 C   0  0  0  0  0  0  0  0  0  0  0  0
   19.5010  -19.8496  -11.9998 C   0  0  0  0  0  0  0  0  0  0  0  0
   19.0711  -20.8557  -12.5970 O   0  0  0  0  0  0  0  0  0  0  0  0
   19.8881  -18.2673  -15.0524 C   0  0  0  0  0  0  0  0  0  0  0  0
   20.3520  -17.1410  -15.3522 O   0  0  0  0  0  0  0  0  0  0  0  0
   19.2308  -19.6545  -10.6397 O   0  0  0  0  0  0  0  0  0  0  0  0
   18.6255  -18.5873  -15.6553 N   0  0  0  0  0  0  0  0  0  0  0  0
   17.9146  -17.6809  -16.5461 C   0  0  1  0  0  0  0  0  0  0  0  0
   17.8136  -18.1498  -17.9506 C   0  0  0  0  0  0  0  0  0  0  0  0
   17.0582  -17.2992  -18.9019 C   0  0  0  0  0  0  0  0  0  0  0  0
   16.7781  -17.9008  -20.2110 C   0  0  0  0  0  0  0  0  0  0  0  0
   17.1508  -19.0620  -20.4623 O   0  0  0  0  0  0  0  0  0  0  0  0
   16.6305  -17.2573  -15.9328 C   0  0  0  0  0  0  0  0  0  0  0  0
   16.0244  -17.9868  -15.1003 O   0  0  0  0  0  0  0  0  0  0  0  0
   16.0997  -17.1823  -21.1707 O   0  0  0  0  0  0  0  0  0  0  0  0
   16.0410  -16.0422  -16.2478 O   0  0  0  0  0  0  0  0  0  0  0  0
  2  1  1  6
  3  2  1  0
  4  3  1  0
  5  7  1  0
  5  2  1  0
  6  5  2  0
  8  7  1  0
  8 12  1  0
  8  9  1  1
 10  9  1  0
 11 10  2  0
 12 15  1  0
 13 12  2  0
 14 10  1  0
 15 16  1  0
 16 21  1  0
 16 17  1  6
 18 17  1  0
 19 18  1  0
 20 19  2  0
 21 24  1  0
 22 21  2  0
 23 19  1  0
M  END
$$$$
