CDE.pdb
     RDKit          3D

 24 23  0  0  1  0  0  0  0  0999 V2000
   19.0015  -12.2977  -17.4458 N   0  0  0  0  0  0  0  0  0  0  0  0
   18.6486  -11.7370  -16.1476 C   0  0  1  0  0  0  0  0  0  0  0  0
   19.9326  -11.7622  -15.3194 C   0  0  0  0  0  0  0  0  0  0  0  0
   20.3243  -13.4324  -14.7708 S   0  0  0  0  0  0  0  0  0  0  0  0
   18.2583  -10.3206  -16.3633 C   0  0  0  0  0  0  0  0  0  0  0  0
   18.7825   -9.6174  -17.2908 O   0  0  0  0  0  0  0  0  0  0  0  0
   17.2901   -9.6427  -15.5738 N   0  0  0  0  0  0  0  0  0  0  0  0
   16.8291   -8.2926  -15.8551 C   0  0  1  0  0  0  0  0  0  0  0  0
   15.3198   -8.2196  -15.8382 C   0  0  0  0  0  0  0  0  0  0  0  0
   14.8024   -6.8922  -16.1468 C   0  0  0  0  0  0  0  0  0  0  0  0
   15.2656   -6.2340  -17.0985 O   0  0  0  0  0  0  0  0  0  0  0  0
   17.3958   -7.3186  -14.8857 C   0  0  0  0  0  0  0  0  0  0  0  0
   17.6522   -7.6087  -13.6925 O   0  0  0  0  0  0  0  0  0  0  0  0
   13.7740   -6.3730  -15.3508 O   0  0  0  0  0  0  0  0  0  0  0  0
   17.6891   -5.9647  -15.2610 N   0  0  0  0  0  0  0  0  0  0  0  0
   18.3305   -5.0105  -14.3672 C   0  0  1  0  0  0  0  0  0  0  0  0
   19.6366   -5.4576  -13.8224 C   0  0  0  0  0  0  0  0  0  0  0  0
   20.8215   -5.3401  -14.7062 C   0  0  0  0  0  0  0  0  0  0  0  0
   22.1019   -5.7431  -14.1127 C   0  0  0  0  0  0  0  0  0  0  0  0
   22.9685   -4.8893  -13.8473 O   0  0  0  0  0  0  0  0  0  0  0  0
   18.3360   -3.6566  -14.9768 C   0  0  0  0  0  0  0  0  0  0  0  0
   17.8726   -3.4514  -16.1326 O   0  0  0  0  0  0  0  0  0  0  0  0
   22.3521   -7.0711  -13.8455 O   0  0  0  0  0  0  0  0  0  0  0  0
   18.8503   -2.5589  -14.3033 O   0  0  0  0  0  0  0  0  0  0  0  0
  2  1  1  6
  3  2  1  0
  4  3  1  0
  5  7  1  0
  5  2  1  0
  6  5  2  0
  8  7  1  0
  8 12  1  0
  8  9  1  1
 10  9  1  0
 11 10  2  0
 12 15  1  0
 13 12  2  0
 14 10  1  0
 15 16  1  0
 16 21  1  0
 16 17  1  6
 18 17  1  0
 19 18  1  0
 20 19  2  0
 21 24  1  0
 22 21  2  0
 23 19  1  0
M  END
$$$$
