CDE.pdb
     RDKit          3D

 24 23  0  0  1  0  0  0  0  0999 V2000
   14.0943  -11.4705  -10.6900 N   0  0  0  0  0  0  0  0  0  0  0  0
   15.2642  -10.9165  -10.0204 C   0  0  1  0  0  0  0  0  0  0  0  0
   16.4755  -11.5331  -10.7187 C   0  0  0  0  0  0  0  0  0  0  0  0
   16.6941  -13.2577  -10.2477 S   0  0  0  0  0  0  0  0  0  0  0  0
   15.2728   -9.4531  -10.2728 C   0  0  0  0  0  0  0  0  0  0  0  0
   14.8803   -8.9652  -11.3851 O   0  0  0  0  0  0  0  0  0  0  0  0
   15.7089   -8.4932   -9.3196 N   0  0  0  0  0  0  0  0  0  0  0  0
   15.6895   -7.0592   -9.5595 C   0  0  1  0  0  0  0  0  0  0  0  0
   15.3281   -6.3031   -8.3020 C   0  0  0  0  0  0  0  0  0  0  0  0
   15.1948   -4.8664   -8.5101 C   0  0  0  0  0  0  0  0  0  0  0  0
   15.3614   -4.3691   -9.6408 O   0  0  0  0  0  0  0  0  0  0  0  0
   16.9984   -6.5838  -10.0796 C   0  0  0  0  0  0  0  0  0  0  0  0
   18.0975   -6.9048   -9.5672 O   0  0  0  0  0  0  0  0  0  0  0  0
   14.8758   -4.0579   -7.4123 O   0  0  0  0  0  0  0  0  0  0  0  0
   17.0867   -5.7145  -11.2183 N   0  0  0  0  0  0  0  0  0  0  0  0
   18.3199   -5.4967  -11.9615 C   0  0  1  0  0  0  0  0  0  0  0  0
   19.0678   -6.7354  -12.2917 C   0  0  0  0  0  0  0  0  0  0  0  0
   20.2816   -6.5967  -13.1324 C   0  0  0  0  0  0  0  0  0  0  0  0
   21.0620   -7.8235  -13.3324 C   0  0  0  0  0  0  0  0  0  0  0  0
   20.6821   -8.8990  -12.8330 O   0  0  0  0  0  0  0  0  0  0  0  0
   18.0760   -4.5869  -13.1093 C   0  0  0  0  0  0  0  0  0  0  0  0
   19.0258   -4.0104  -13.7078 O   0  0  0  0  0  0  0  0  0  0  0  0
   22.2214   -7.7914  -14.0754 O   0  0  0  0  0  0  0  0  0  0  0  0
   16.7946   -4.3309  -13.5737 O   0  0  0  0  0  0  0  0  0  0  0  0
  2  1  1  6
  3  2  1  0
  4  3  1  0
  5  7  1  0
  5  2  1  0
  6  5  2  0
  8  7  1  0
  8 12  1  0
  8  9  1  1
 10  9  1  0
 11 10  2  0
 12 15  1  0
 13 12  2  0
 14 10  1  0
 15 16  1  0
 16 21  1  0
 16 17  1  6
 18 17  1  0
 19 18  1  0
 20 19  2  0
 21 24  1  0
 22 21  2  0
 23 19  1  0
M  END
$$$$
