CDE.pdb
     RDKit          3D

 24 23  0  0  1  0  0  0  0  0999 V2000
   16.9373  -12.8086  -15.2036 N   0  0  0  0  0  0  0  0  0  0  0  0
   17.0880  -11.4969  -15.8206 C   0  0  1  0  0  0  0  0  0  0  0  0
   16.0636  -10.5934  -15.1355 C   0  0  0  0  0  0  0  0  0  0  0  0
   14.3850  -11.0086  -15.6395 S   0  0  0  0  0  0  0  0  0  0  0  0
   18.4473  -10.9998  -15.4880 C   0  0  0  0  0  0  0  0  0  0  0  0
   18.9662  -11.1937  -14.3381 O   0  0  0  0  0  0  0  0  0  0  0  0
   19.2673  -10.2822  -16.4006 N   0  0  0  0  0  0  0  0  0  0  0  0
   20.5942   -9.7887  -16.0689 C   0  0  1  0  0  0  0  0  0  0  0  0
   21.6384  -10.3784  -16.9883 C   0  0  0  0  0  0  0  0  0  0  0  0
   23.0026  -10.0263  -16.6140 C   0  0  0  0  0  0  0  0  0  0  0  0
   23.2294   -9.3724  -15.5774 O   0  0  0  0  0  0  0  0  0  0  0  0
   20.6456   -8.3043  -16.1276 C   0  0  0  0  0  0  0  0  0  0  0  0
   20.3335   -7.6472  -17.1495 O   0  0  0  0  0  0  0  0  0  0  0  0
   24.0521  -10.4386  -17.4443 O   0  0  0  0  0  0  0  0  0  0  0  0
   21.0620   -7.5189  -15.0007 N   0  0  0  0  0  0  0  0  0  0  0  0
   21.0672   -6.0626  -15.0020 C   0  0  1  0  0  0  0  0  0  0  0  0
   19.7253   -5.4411  -14.8770 C   0  0  0  0  0  0  0  0  0  0  0  0
   19.6577   -3.9598  -14.8591 C   0  0  0  0  0  0  0  0  0  0  0  0
   18.3142   -3.3846  -14.7241 C   0  0  0  0  0  0  0  0  0  0  0  0
   17.5888   -3.6999  -13.7624 O   0  0  0  0  0  0  0  0  0  0  0  0
   22.0863   -5.5501  -14.0515 C   0  0  0  0  0  0  0  0  0  0  0  0
   22.7414   -6.3275  -13.3038 O   0  0  0  0  0  0  0  0  0  0  0  0
   17.8478   -2.4907  -15.6626 O   0  0  0  0  0  0  0  0  0  0  0  0
   22.3628   -4.1954  -13.9438 O   0  0  0  0  0  0  0  0  0  0  0  0
  2  1  1  1
  3  2  1  0
  4  3  1  0
  5  7  1  0
  5  2  1  0
  6  5  2  0
  8  7  1  0
  8 12  1  0
  8  9  1  6
 10  9  1  0
 11 10  2  0
 12 15  1  0
 13 12  2  0
 14 10  1  0
 15 16  1  0
 16 21  1  0
 16 17  1  1
 18 17  1  0
 19 18  1  0
 20 19  2  0
 21 24  1  0
 22 21  2  0
 23 19  1  0
M  END
$$$$
