CDE.pdb
     RDKit          3D

 24 23  0  0  1  0  0  0  0  0999 V2000
   17.0073  -11.5389  -16.6172 N   0  0  0  0  0  0  0  0  0  0  0  0
   17.9481  -11.6227  -15.5073 C   0  0  1  0  0  0  0  0  0  0  0  0
   19.2584  -12.1293  -16.1085 C   0  0  0  0  0  0  0  0  0  0  0  0
   19.1723  -13.8908  -16.4741 S   0  0  0  0  0  0  0  0  0  0  0  0
   18.1671  -10.2438  -15.0016 C   0  0  0  0  0  0  0  0  0  0  0  0
   18.2638   -9.2490  -15.7956 O   0  0  0  0  0  0  0  0  0  0  0  0
   18.2852   -9.9214  -13.6223 N   0  0  0  0  0  0  0  0  0  0  0  0
   18.5267   -8.5741  -13.1318 C   0  0  1  0  0  0  0  0  0  0  0  0
   18.1531   -8.4523  -11.6726 C   0  0  0  0  0  0  0  0  0  0  0  0
   16.7311   -8.6533  -11.4220 C   0  0  0  0  0  0  0  0  0  0  0  0
   16.3464   -9.3605  -10.4705 O   0  0  0  0  0  0  0  0  0  0  0  0
   19.9458   -8.1774  -13.3277 C   0  0  0  0  0  0  0  0  0  0  0  0
   20.8700   -9.0052  -13.5128 O   0  0  0  0  0  0  0  0  0  0  0  0
   15.8075   -8.0346  -12.2733 O   0  0  0  0  0  0  0  0  0  0  0  0
   20.3526   -6.8010  -13.3170 N   0  0  0  0  0  0  0  0  0  0  0  0
   21.6924   -6.3626  -13.6822 C   0  0  1  0  0  0  0  0  0  0  0  0
   22.1598   -6.8451  -15.0056 C   0  0  0  0  0  0  0  0  0  0  0  0
   21.4510   -6.3395  -16.2061 C   0  0  0  0  0  0  0  0  0  0  0  0
   21.9775   -6.7977  -17.4973 C   0  0  0  0  0  0  0  0  0  0  0  0
   22.7216   -7.7944  -17.5551 O   0  0  0  0  0  0  0  0  0  0  0  0
   21.8343   -4.9011  -13.4620 C   0  0  0  0  0  0  0  0  0  0  0  0
   20.8290   -4.1395  -13.4193 O   0  0  0  0  0  0  0  0  0  0  0  0
   21.6502   -6.1261  -18.6545 O   0  0  0  0  0  0  0  0  0  0  0  0
   23.0771   -4.3092  -13.2936 O   0  0  0  0  0  0  0  0  0  0  0  0
  2  1  1  6
  3  2  1  0
  4  3  1  0
  5  7  1  0
  5  2  1  0
  6  5  2  0
  8  7  1  0
  8 12  1  0
  8  9  1  1
 10  9  1  0
 11 10  2  0
 12 15  1  0
 13 12  2  0
 14 10  1  0
 15 16  1  0
 16 21  1  0
 16 17  1  6
 18 17  1  0
 19 18  1  0
 20 19  2  0
 21 24  1  0
 22 21  2  0
 23 19  1  0
M  END
$$$$
