CDE.pdb
     RDKit          3D

 24 23  0  0  1  0  0  0  0  0999 V2000
   29.0924  -20.8631  -11.5106 N   0  0  0  0  0  0  0  0  0  0  0  0
   27.7792  -21.0502  -10.9069 C   0  0  1  0  0  0  0  0  0  0  0  0
   27.8938  -20.5083   -9.4827 C   0  0  0  0  0  0  0  0  0  0  0  0
   29.1108  -21.4309   -8.5279 S   0  0  0  0  0  0  0  0  0  0  0  0
   26.8178  -20.2009  -11.6551 C   0  0  0  0  0  0  0  0  0  0  0  0
   27.0492  -18.9649  -11.8744 O   0  0  0  0  0  0  0  0  0  0  0  0
   25.5866  -20.6807  -12.1786 N   0  0  0  0  0  0  0  0  0  0  0  0
   25.0154  -20.2201  -13.4339 C   0  0  1  0  0  0  0  0  0  0  0  0
   25.9934  -20.3960  -14.5724 C   0  0  0  0  0  0  0  0  0  0  0  0
   25.4786  -19.9281  -15.8535 C   0  0  0  0  0  0  0  0  0  0  0  0
   25.0384  -18.7686  -15.9772 O   0  0  0  0  0  0  0  0  0  0  0  0
   23.7464  -20.9311  -13.7397 C   0  0  0  0  0  0  0  0  0  0  0  0
   23.6730  -22.1763  -13.8732 O   0  0  0  0  0  0  0  0  0  0  0  0
   25.4895  -20.8096  -16.9415 O   0  0  0  0  0  0  0  0  0  0  0  0
   22.5072  -20.2258  -13.9037 N   0  0  0  0  0  0  0  0  0  0  0  0
   21.2445  -20.8896  -14.1962 C   0  0  1  0  0  0  0  0  0  0  0  0
   20.0486  -20.0182  -14.0808 C   0  0  0  0  0  0  0  0  0  0  0  0
   19.9641  -19.1276  -12.8982 C   0  0  0  0  0  0  0  0  0  0  0  0
   18.8081  -18.2241  -12.8619 C   0  0  0  0  0  0  0  0  0  0  0  0
   18.6415  -17.4543  -11.8974 O   0  0  0  0  0  0  0  0  0  0  0  0
   21.3448  -21.6511  -15.4669 C   0  0  0  0  0  0  0  0  0  0  0  0
   22.0767  -21.2570  -16.4165 O   0  0  0  0  0  0  0  0  0  0  0  0
   17.8993  -18.2229  -13.8970 O   0  0  0  0  0  0  0  0  0  0  0  0
   20.6391  -22.8283  -15.6658 O   0  0  0  0  0  0  0  0  0  0  0  0
  2  1  1  6
  3  2  1  0
  4  3  1  0
  5  7  1  0
  5  2  1  0
  6  5  2  0
  8  7  1  0
  8 12  1  0
  8  9  1  6
 10  9  1  0
 11 10  2  0
 12 15  1  0
 13 12  2  0
 14 10  1  0
 15 16  1  0
 16 21  1  0
 16 17  1  6
 18 17  1  0
 19 18  1  0
 20 19  2  0
 21 24  1  0
 22 21  2  0
 23 19  1  0
M  END
$$$$
