CDE.pdb
     RDKit          3D

 24 23  0  0  1  0  0  0  0  0999 V2000
   16.5172  -10.7662  -12.2509 N   0  0  0  0  0  0  0  0  0  0  0  0
   17.2935   -9.8663  -11.4073 C   0  0  1  0  0  0  0  0  0  0  0  0
   18.3978   -9.3047  -12.3019 C   0  0  0  0  0  0  0  0  0  0  0  0
   19.6260  -10.5629  -12.6926 S   0  0  0  0  0  0  0  0  0  0  0  0
   16.4019   -8.7485  -11.0065 C   0  0  0  0  0  0  0  0  0  0  0  0
   15.5601   -8.2411  -11.8208 O   0  0  0  0  0  0  0  0  0  0  0  0
   16.4095   -8.1619   -9.7118 N   0  0  0  0  0  0  0  0  0  0  0  0
   15.4367   -7.1741   -9.2735 C   0  0  1  0  0  0  0  0  0  0  0  0
   14.9396   -7.4825   -7.8802 C   0  0  0  0  0  0  0  0  0  0  0  0
   13.8381   -6.6263   -7.4574 C   0  0  0  0  0  0  0  0  0  0  0  0
   13.9945   -5.7928   -6.5439 O   0  0  0  0  0  0  0  0  0  0  0  0
   16.0072   -5.8021   -9.3173 C   0  0  0  0  0  0  0  0  0  0  0  0
   17.0765   -5.4854   -8.7428 O   0  0  0  0  0  0  0  0  0  0  0  0
   12.6011   -6.7608   -8.0997 O   0  0  0  0  0  0  0  0  0  0  0  0
   15.3597   -4.7384  -10.0308 N   0  0  0  0  0  0  0  0  0  0  0  0
   15.8908   -3.3842  -10.0981 C   0  0  1  0  0  0  0  0  0  0  0  0
   15.9510   -2.8126  -11.4665 C   0  0  0  0  0  0  0  0  0  0  0  0
   16.8847   -3.4442  -12.4300 C   0  0  0  0  0  0  0  0  0  0  0  0
   16.8071   -2.9505  -13.8099 C   0  0  0  0  0  0  0  0  0  0  0  0
   16.0184   -2.0337  -14.1065 O   0  0  0  0  0  0  0  0  0  0  0  0
   15.2305   -2.5207   -9.0867 C   0  0  0  0  0  0  0  0  0  0  0  0
   15.6295   -1.3449   -8.8612 O   0  0  0  0  0  0  0  0  0  0  0  0
   17.6084   -3.4998  -14.7864 O   0  0  0  0  0  0  0  0  0  0  0  0
   14.1470   -2.9683   -8.3457 O   0  0  0  0  0  0  0  0  0  0  0  0
  2  1  1  6
  3  2  1  0
  4  3  1  0
  5  7  1  0
  5  2  1  0
  6  5  2  0
  8  7  1  0
  8 12  1  0
  8  9  1  1
 10  9  1  0
 11 10  2  0
 12 15  1  0
 13 12  2  0
 14 10  1  0
 15 16  1  0
 16 21  1  0
 16 17  1  6
 18 17  1  0
 19 18  1  0
 20 19  2  0
 21 24  1  0
 22 21  2  0
 23 19  1  0
M  END
$$$$
