SRC.pdb
     RDKit          3D

 24 23  0  0  1  0  0  0  0  0999 V2000
    9.2314  -19.9465   21.2717 O   0  0  0  0  0  0  0  0  0  0  0  0
    8.2005  -19.2767   20.5886 C   0  0  0  0  0  0  0  0  0  0  0  0
    8.7419  -18.6929   19.2920 C   0  0  2  0  0  0  0  0  0  0  0  0
    9.2099  -19.8024   18.4743 N   0  0  0  0  0  0  0  0  0  0  0  0
    9.8390  -17.7252   19.5590 C   0  0  0  0  0  0  0  0  0  0  0  0
   11.0430  -18.1071   19.4630 O   0  0  0  0  0  0  0  0  0  0  0  0
    7.8559  -13.8754   16.9900 N   0  0  0  0  0  0  0  0  0  0  0  0
    7.2836  -13.0167   17.9796 C   0  0  0  0  0  0  0  0  0  0  0  0
    6.0094  -12.9875   18.1494 N   0  0  0  0  0  0  0  0  0  0  0  0
    8.0719  -12.1783   18.8004 N   0  0  0  0  0  0  0  0  0  0  0  0
    9.4923  -12.2244   18.7397 C   0  0  0  0  0  0  0  0  0  0  0  0
   10.1105  -13.5810   18.7415 C   0  0  0  0  0  0  0  0  0  0  0  0
   10.1394  -14.1030   20.1509 C   0  0  0  0  0  0  0  0  0  0  0  0
   10.7256  -15.4787   20.3077 C   0  0  2  0  0  0  0  0  0  0  0  0
    9.6175  -16.3888   19.9173 N   0  0  0  0  0  0  0  0  0  0  0  0
   10.9828  -15.7124   21.7494 C   0  0  0  0  0  0  0  0  0  0  0  0
   10.2057  -15.2258   22.6073 O   0  0  0  0  0  0  0  0  0  0  0  0
    5.5737  -12.3285   18.8339 N   0  0  0  0  0  0  0  0  0  0  0  0
   12.0736  -16.4674   22.2486 C   0  0  1  0  0  0  0  0  0  0  0  0
   12.2826  -16.7511   23.6460 C   0  0  0  0  0  0  0  0  0  0  0  0
   11.0907  -17.5882   24.1306 S   0  0  0  0  0  0  0  0  0  0  0  0
   11.2451  -17.9015   25.9193 C   0  0  0  0  0  0  0  0  0  0  0  0
   13.5445  -17.4595   23.9169 O   0  0  0  0  0  0  0  0  0  0  0  0
   14.1557  -18.0184   22.9893 O   0  0  0  0  0  0  0  0  0  0  0  0
  1  2  1  0
  3  4  1  6
  3  2  1  0
  5  3  1  0
  6  5  2  0
  7  8  1  0
  8  9  2  0
  8 10  1  0
 10 11  1  0
 11 12  1  0
 14 13  1  1
 13 12  1  0
 14 15  1  0
 15  5  1  0
 16 14  1  0
 16 18  1  0
 17 16  2  0
 19 18  1  0
 19 20  1  1
 20 21  1  0
 22 19  1  0
 22 24  1  0
 23 22  2  0
M  END
$$$$
