SRC.pdb
     RDKit          3D

 24 23  0  0  1  0  0  0  0  0999 V2000
    8.6236  -11.3212   20.2658 O   0  0  0  0  0  0  0  0  0  0  0  0
    9.4171  -12.3527   19.7324 C   0  0  0  0  0  0  0  0  0  0  0  0
    8.5339  -13.5318   19.3518 C   0  0  2  0  0  0  0  0  0  0  0  0
    7.4770  -13.0260   18.4882 N   0  0  0  0  0  0  0  0  0  0  0  0
    7.9687  -14.1881   20.5606 C   0  0  0  0  0  0  0  0  0  0  0  0
    6.7302  -14.0825   20.8046 O   0  0  0  0  0  0  0  0  0  0  0  0
    9.7264  -20.7641   19.7340 N   0  0  0  0  0  0  0  0  0  0  0  0
    9.9314  -20.2588   21.0556 C   0  0  0  0  0  0  0  0  0  0  0  0
   11.1228  -20.0277   21.4804 N   0  0  0  0  0  0  0  0  0  0  0  0
    8.8598  -19.9945   21.9387 N   0  0  0  0  0  0  0  0  0  0  0  0
    9.0884  -19.3741   23.1981 C   0  0  0  0  0  0  0  0  0  0  0  0
    8.3589  -18.0985   23.4490 C   0  0  0  0  0  0  0  0  0  0  0  0
    8.7915  -17.0799   22.4314 C   0  0  0  0  0  0  0  0  0  0  0  0
    8.1256  -15.7374   22.5527 C   0  0  2  0  0  0  0  0  0  0  0  0
    8.7387  -14.9318   21.4647 N   0  0  0  0  0  0  0  0  0  0  0  0
    8.5518  -15.1214   23.8326 C   0  0  0  0  0  0  0  0  0  0  0  0
    9.7749  -15.0170   24.0964 O   0  0  0  0  0  0  0  0  0  0  0  0
   11.2893  -19.6887   22.4551 N   0  0  0  0  0  0  0  0  0  0  0  0
    7.6551  -14.6257   24.8121 C   0  0  1  0  0  0  0  0  0  0  0  0
    8.0689  -14.0992   26.0881 C   0  0  0  0  0  0  0  0  0  0  0  0
    6.8570  -13.3930   26.7115 S   0  0  0  0  0  0  0  0  0  0  0  0
    6.3970  -11.9497   25.6980 C   0  0  0  0  0  0  0  0  0  0  0  0
    8.5850  -15.1281   27.0062 O   0  0  0  0  0  0  0  0  0  0  0  0
    8.5116  -16.3305   26.6975 O   0  0  0  0  0  0  0  0  0  0  0  0
  1  2  1  0
  3  4  1  6
  3  2  1  0
  5  3  1  0
  6  5  2  0
  7  8  1  0
  8  9  2  0
  8 10  1  0
 10 11  1  0
 11 12  1  0
 14 13  1  1
 13 12  1  0
 14 15  1  0
 15  5  1  0
 16 14  1  0
 16 18  1  0
 17 16  2  0
 19 18  1  0
 19 20  1  1
 20 21  1  0
 22 19  1  0
 22 24  1  0
 23 22  2  0
M  END
$$$$
