SRC.pdb
     RDKit          3D

 24 23  0  0  1  0  0  0  0  0999 V2000
    4.6426  -21.3483   24.5683 O   0  0  0  0  0  0  0  0  0  0  0  0
    3.8453  -20.2818   24.1155 C   0  0  0  0  0  0  0  0  0  0  0  0
    4.1543  -19.9980   22.6529 C   0  0  2  0  0  0  0  0  0  0  0  0
    4.1271  -21.2697   21.9452 N   0  0  0  0  0  0  0  0  0  0  0  0
    5.4758  -19.3321   22.5056 C   0  0  0  0  0  0  0  0  0  0  0  0
    6.5168  -20.0395   22.3626 O   0  0  0  0  0  0  0  0  0  0  0  0
    9.7292  -12.5674   19.3260 N   0  0  0  0  0  0  0  0  0  0  0  0
    8.4624  -12.1804   19.8640 C   0  0  0  0  0  0  0  0  0  0  0  0
    8.2696  -10.9705   20.2544 N   0  0  0  0  0  0  0  0  0  0  0  0
    7.3853  -13.0872   19.9895 N   0  0  0  0  0  0  0  0  0  0  0  0
    7.5980  -14.4903   19.8934 C   0  0  0  0  0  0  0  0  0  0  0  0
    7.8464  -15.2107   21.1747 C   0  0  0  0  0  0  0  0  0  0  0  0
    6.6631  -16.0861   21.4806 C   0  0  0  0  0  0  0  0  0  0  0  0
    6.9685  -17.3004   22.3128 C   0  0  2  0  0  0  0  0  0  0  0  0
    5.6429  -17.9409   22.5152 N   0  0  0  0  0  0  0  0  0  0  0  0
    7.4313  -16.8453   23.6462 C   0  0  0  0  0  0  0  0  0  0  0  0
    6.5927  -16.4632   24.4991 O   0  0  0  0  0  0  0  0  0  0  0  0
    7.3384  -10.6654   20.6182 N   0  0  0  0  0  0  0  0  0  0  0  0
    8.7912  -16.8076   24.0439 C   0  0  1  0  0  0  0  0  0  0  0  0
    9.2269  -16.7823   25.4174 C   0  0  0  0  0  0  0  0  0  0  0  0
    8.5503  -17.9564   26.1384 S   0  0  0  0  0  0  0  0  0  0  0  0
    9.0403  -17.9658   27.8937 C   0  0  0  0  0  0  0  0  0  0  0  0
   10.6888  -16.8673   25.5692 O   0  0  0  0  0  0  0  0  0  0  0  0
   11.4037  -17.1123   24.5816 O   0  0  0  0  0  0  0  0  0  0  0  0
  1  2  1  0
  3  4  1  6
  3  2  1  0
  5  3  1  0
  6  5  2  0
  7  8  1  0
  8  9  2  0
  8 10  1  0
 10 11  1  0
 11 12  1  0
 14 13  1  6
 13 12  1  0
 14 15  1  0
 15  5  1  0
 16 14  1  0
 16 18  1  0
 17 16  2  0
 19 18  1  0
 19 20  1  1
 20 21  1  0
 22 19  1  0
 22 24  1  0
 23 22  2  0
M  END
$$$$
