SRC.pdb
     RDKit          3D

 24 23  0  0  1  0  0  0  0  0999 V2000
    7.6951  -12.3523   20.0210 O   0  0  0  0  0  0  0  0  0  0  0  0
    7.3520  -13.2479   18.9923 C   0  0  0  0  0  0  0  0  0  0  0  0
    8.0661  -14.5737   19.2098 C   0  0  2  0  0  0  0  0  0  0  0  0
    7.6738  -15.4648   18.1278 N   0  0  0  0  0  0  0  0  0  0  0  0
    7.7205  -15.1557   20.5340 C   0  0  0  0  0  0  0  0  0  0  0  0
    6.9619  -16.1686   20.5898 O   0  0  0  0  0  0  0  0  0  0  0  0
   12.0679  -20.1715   23.5546 N   0  0  0  0  0  0  0  0  0  0  0  0
   11.1497  -20.2553   24.6473 C   0  0  0  0  0  0  0  0  0  0  0  0
   11.4174  -21.0023   25.6591 N   0  0  0  0  0  0  0  0  0  0  0  0
    9.9321  -19.5377   24.6685 N   0  0  0  0  0  0  0  0  0  0  0  0
    9.6049  -18.6252   23.6277 C   0  0  0  0  0  0  0  0  0  0  0  0
    9.9322  -17.1924   23.8772 C   0  0  0  0  0  0  0  0  0  0  0  0
    9.4727  -16.3743   22.7027 C   0  0  0  0  0  0  0  0  0  0  0  0
    8.2991  -15.4746   22.9746 C   0  0  2  0  0  0  0  0  0  0  0  0
    8.1928  -14.6413   21.7488 N   0  0  0  0  0  0  0  0  0  0  0  0
    8.6627  -14.5593   24.0833 C   0  0  0  0  0  0  0  0  0  0  0  0
    9.7658  -13.9601   24.0596 O   0  0  0  0  0  0  0  0  0  0  0  0
   10.7857  -21.0259   26.4915 N   0  0  0  0  0  0  0  0  0  0  0  0
    7.8333  -14.3010   25.2034 C   0  0  2  0  0  0  0  0  0  0  0  0
    8.2055  -13.4410   26.2982 C   0  0  0  0  0  0  0  0  0  0  0  0
    6.9504  -12.6677   26.7255 S   0  0  0  0  0  0  0  0  0  0  0  0
    6.2346  -11.8111   25.2849 C   0  0  0  0  0  0  0  0  0  0  0  0
    8.7703  -14.1677   27.4473 O   0  0  0  0  0  0  0  0  0  0  0  0
    9.1343  -13.5442   28.4599 O   0  0  0  0  0  0  0  0  0  0  0  0
  1  2  1  0
  3  4  1  6
  3  2  1  0
  5  3  1  0
  6  5  2  0
  7  8  1  0
  8  9  2  0
  8 10  1  0
 10 11  1  0
 11 12  1  0
 14 13  1  6
 13 12  1  0
 14 15  1  0
 15  5  1  0
 16 14  1  0
 16 18  1  0
 17 16  2  0
 19 18  1  0
 19 20  1  6
 20 21  1  0
 22 19  1  0
 22 24  1  0
 23 22  2  0
M  END
$$$$
