SRC.pdb
     RDKit          3D

 24 23  0  0  1  0  0  0  0  0999 V2000
    7.8873  -21.9071   21.5711 O   0  0  0  0  0  0  0  0  0  0  0  0
    8.2542  -22.2476   20.2567 C   0  0  0  0  0  0  0  0  0  0  0  0
    7.9278  -21.0938   19.3201 C   0  0  2  0  0  0  0  0  0  0  0  0
    8.4346  -21.4440   18.0012 N   0  0  0  0  0  0  0  0  0  0  0  0
    8.5317  -19.8245   19.8054 C   0  0  0  0  0  0  0  0  0  0  0  0
    9.7820  -19.6502   19.7011 O   0  0  0  0  0  0  0  0  0  0  0  0
    8.9675  -12.3985   18.6869 N   0  0  0  0  0  0  0  0  0  0  0  0
    8.8304  -12.0944   20.0771 C   0  0  0  0  0  0  0  0  0  0  0  0
    8.9978  -10.8894   20.4935 N   0  0  0  0  0  0  0  0  0  0  0  0
    8.5113  -13.0800   21.0388 N   0  0  0  0  0  0  0  0  0  0  0  0
    8.0200  -14.3545   20.6419 C   0  0  0  0  0  0  0  0  0  0  0  0
    7.6421  -15.2888   21.7404 C   0  0  0  0  0  0  0  0  0  0  0  0
    7.2717  -16.6186   21.1451 C   0  0  0  0  0  0  0  0  0  0  0  0
    8.4237  -17.5589   20.9230 C   0  0  2  0  0  0  0  0  0  0  0  0
    7.7863  -18.7879   20.3829 N   0  0  0  0  0  0  0  0  0  0  0  0
    8.9918  -17.9179   22.2450 C   0  0  0  0  0  0  0  0  0  0  0  0
    8.3289  -18.6362   23.0331 O   0  0  0  0  0  0  0  0  0  0  0  0
    8.9998  -10.6696   21.5154 N   0  0  0  0  0  0  0  0  0  0  0  0
   10.2666  -17.4987   22.7012 C   0  0  2  0  0  0  0  0  0  0  0  0
   10.7934  -17.8033   24.0075 C   0  0  0  0  0  0  0  0  0  0  0  0
   11.7938  -18.9560   23.8449 S   0  0  0  0  0  0  0  0  0  0  0  0
   13.3660  -18.3176   23.1798 C   0  0  0  0  0  0  0  0  0  0  0  0
   11.4437  -16.6542   24.6588 O   0  0  0  0  0  0  0  0  0  0  0  0
   11.5981  -15.5902   24.0338 O   0  0  0  0  0  0  0  0  0  0  0  0
  1  2  1  0
  3  4  1  6
  3  2  1  0
  5  3  1  0
  6  5  2  0
  7  8  1  0
  8  9  2  0
  8 10  1  0
 10 11  1  0
 11 12  1  0
 14 13  1  1
 13 12  1  0
 14 15  1  0
 15  5  1  0
 16 14  1  0
 16 18  1  0
 17 16  2  0
 19 18  1  0
 19 20  1  6
 20 21  1  0
 22 19  1  0
 22 24  1  0
 23 22  2  0
M  END
$$$$
