SRC.pdb
     RDKit          3D

 24 23  0  0  1  0  0  0  0  0999 V2000
    9.3913  -12.5395   20.6382 O   0  0  0  0  0  0  0  0  0  0  0  0
    9.2893  -13.8437   20.1216 C   0  0  0  0  0  0  0  0  0  0  0  0
    7.8281  -14.2666   20.0871 C   0  0  2  0  0  0  0  0  0  0  0  0
    7.0590  -13.1419   19.5748 N   0  0  0  0  0  0  0  0  0  0  0  0
    7.3554  -14.6662   21.4393 C   0  0  0  0  0  0  0  0  0  0  0  0
    6.4536  -13.9840   22.0102 O   0  0  0  0  0  0  0  0  0  0  0  0
    6.3343  -20.8428   26.3489 N   0  0  0  0  0  0  0  0  0  0  0  0
    6.1393  -21.4527   25.0706 C   0  0  0  0  0  0  0  0  0  0  0  0
    5.2949  -22.4130   24.9360 N   0  0  0  0  0  0  0  0  0  0  0  0
    6.8479  -21.0391   23.9195 N   0  0  0  0  0  0  0  0  0  0  0  0
    7.6723  -19.8804   23.9475 C   0  0  0  0  0  0  0  0  0  0  0  0
    6.9707  -18.5676   23.8652 C   0  0  0  0  0  0  0  0  0  0  0  0
    7.9948  -17.4717   23.7630 C   0  0  0  0  0  0  0  0  0  0  0  0
    7.4340  -16.0977   23.5220 C   0  0  2  0  0  0  0  0  0  0  0  0
    7.8571  -15.7744   22.1346 N   0  0  0  0  0  0  0  0  0  0  0  0
    8.1369  -15.1458   24.4158 C   0  0  0  0  0  0  0  0  0  0  0  0
    9.3615  -14.9239   24.2493 O   0  0  0  0  0  0  0  0  0  0  0  0
    5.1874  -22.9097   24.0226 N   0  0  0  0  0  0  0  0  0  0  0  0
    7.5119  -14.4450   25.4776 C   0  0  2  0  0  0  0  0  0  0  0  0
    8.2131  -13.5818   26.3941 C   0  0  0  0  0  0  0  0  0  0  0  0
    7.2028  -12.5573   26.9286 S   0  0  0  0  0  0  0  0  0  0  0  0
    6.0051  -12.1341   25.6217 C   0  0  0  0  0  0  0  0  0  0  0  0
    8.8441  -14.3037   27.5115 O   0  0  0  0  0  0  0  0  0  0  0  0
    9.5334  -13.6853   28.3415 O   0  0  0  0  0  0  0  0  0  0  0  0
  1  2  1  0
  3  4  1  1
  3  2  1  0
  5  3  1  0
  6  5  2  0
  7  8  1  0
  8  9  2  0
  8 10  1  0
 10 11  1  0
 11 12  1  0
 14 13  1  1
 13 12  1  0
 14 15  1  0
 15  5  1  0
 16 14  1  0
 16 18  1  0
 17 16  2  0
 19 18  1  0
 19 20  1  6
 20 21  1  0
 22 19  1  0
 22 24  1  0
 23 22  2  0
M  END
$$$$
