SRC.pdb
     RDKit          3D

 24 23  0  0  1  0  0  0  0  0999 V2000
    7.7569  -20.3659   25.2083 O   0  0  0  0  0  0  0  0  0  0  0  0
    6.6230  -19.5345   25.1714 C   0  0  0  0  0  0  0  0  0  0  0  0
    6.1123  -19.4303   23.7419 C   0  0  2  0  0  0  0  0  0  0  0  0
    5.8605  -20.7832   23.2674 N   0  0  0  0  0  0  0  0  0  0  0  0
    7.0969  -18.7331   22.8724 C   0  0  0  0  0  0  0  0  0  0  0  0
    8.0058  -19.4039   22.2991 O   0  0  0  0  0  0  0  0  0  0  0  0
    7.8190  -13.2880   16.2543 N   0  0  0  0  0  0  0  0  0  0  0  0
    8.1385  -13.2738   17.6478 C   0  0  0  0  0  0  0  0  0  0  0  0
    9.3592  -13.1378   18.0285 N   0  0  0  0  0  0  0  0  0  0  0  0
    7.1516  -13.4049   18.6512 N   0  0  0  0  0  0  0  0  0  0  0  0
    7.5029  -13.3699   20.0290 C   0  0  0  0  0  0  0  0  0  0  0  0
    8.3262  -14.5070   20.5306 C   0  0  0  0  0  0  0  0  0  0  0  0
    7.4502  -15.4278   21.3335 C   0  0  0  0  0  0  0  0  0  0  0  0
    8.1309  -16.6663   21.8466 C   0  0  2  0  0  0  0  0  0  0  0  0
    7.0799  -17.3508   22.6437 N   0  0  0  0  0  0  0  0  0  0  0  0
    9.1893  -16.2535   22.7999 C   0  0  0  0  0  0  0  0  0  0  0  0
    8.9589  -15.3377   23.6274 O   0  0  0  0  0  0  0  0  0  0  0  0
    9.6205  -13.2264   19.0367 N   0  0  0  0  0  0  0  0  0  0  0  0
   10.4821  -16.8323   22.8496 C   0  0  1  0  0  0  0  0  0  0  0  0
   11.5886  -16.2673   23.5799 C   0  0  0  0  0  0  0  0  0  0  0  0
   12.0525  -17.3160   24.6001 S   0  0  0  0  0  0  0  0  0  0  0  0
   10.6873  -17.7114   25.7408 C   0  0  0  0  0  0  0  0  0  0  0  0
   12.7128  -15.8637   22.7192 O   0  0  0  0  0  0  0  0  0  0  0  0
   12.6863  -16.1165   21.5018 O   0  0  0  0  0  0  0  0  0  0  0  0
  1  2  1  0
  3  4  1  6
  3  2  1  0
  5  3  1  0
  6  5  2  0
  7  8  1  0
  8  9  2  0
  8 10  1  0
 10 11  1  0
 11 12  1  0
 14 13  1  1
 13 12  1  0
 14 15  1  0
 15  5  1  0
 16 14  1  0
 16 18  1  0
 17 16  2  0
 19 18  1  0
 19 20  1  1
 20 21  1  0
 22 19  1  0
 22 24  1  0
 23 22  2  0
M  END
$$$$
