DMP.pdb
     RDKit          3D

 24 24  0  0  1  0  0  0  0  0999 V2000
    9.5118  -17.0645   20.8213 N   0  0  0  0  0  0  0  0  0  0  0  0
   10.7244  -17.0353   21.6688 C   0  0  1  0  0  0  0  0  0  0  0  0
   11.8188  -16.4716   20.8064 C   0  0  0  0  0  0  0  0  0  0  0  0
   12.3974  -17.3934   19.8373 C   0  0  0  0  0  0  0  0  0  0  0  0
   11.6914  -17.9712   18.9854 O   0  0  0  0  0  0  0  0  0  0  0  0
   10.4095  -16.0980   22.7658 C   0  0  0  0  0  0  0  0  0  0  0  0
   11.1954  -15.1869   23.0975 O   0  0  0  0  0  0  0  0  0  0  0  0
   13.7550  -17.6529   19.8379 O   0  0  0  0  0  0  0  0  0  0  0  0
    6.1824  -11.9543   26.9309 C   0  0  0  0  0  0  0  0  0  0  0  0
    6.9716  -12.8696   25.5690 S   0  0  0  0  0  0  0  0  0  0  0  0
    6.7242  -14.6722   25.7967 C   0  0  0  0  0  0  0  0  0  0  0  0
    7.3918  -15.3573   24.6887 C   0  0  0  0  0  0  0  0  0  0  0  0
    8.9080  -15.3306   24.6611 C   0  0  2  0  0  0  0  0  0  0  0  0
    9.1950  -16.2060   23.4800 N   0  0  0  0  0  0  0  0  0  0  0  0
    9.5523  -15.9337   25.8224 C   0  0  0  0  0  0  0  0  0  0  0  0
    9.6874  -17.2139   25.8022 O   0  0  0  0  0  0  0  0  0  0  0  0
   10.0559  -15.2816   26.9762 N   0  0  0  0  0  0  0  0  0  0  0  0
    9.6992  -13.8720   27.2510 C   0  0  0  0  0  0  0  0  0  0  0  0
   10.0514  -13.6266   28.6828 C   0  0  0  0  0  0  0  0  0  0  0  0
   11.2573  -14.5128   28.8430 C   0  0  0  0  0  0  0  0  0  0  0  0
   10.8747  -15.7507   28.0513 C   0  0  1  0  0  0  0  0  0  0  0  0
   10.0705  -16.5810   29.0227 C   0  0  0  0  0  0  0  0  0  0  0  0
    8.8162  -16.5875   28.9613 O   0  0  0  0  0  0  0  0  0  0  0  0
   10.6649  -17.3570   30.0048 O   0  0  0  0  0  0  0  0  0  0  0  0
  2  1  1  6
  2  3  1  0
  3  4  1  0
  4  8  1  0
  5  4  2  0
  6  2  1  0
  7  6  2  0
  9 10  1  0
 10 11  1  0
 11 12  1  0
 13 12  1  1
 13 15  1  0
 13 14  1  0
 14  6  1  0
 15 17  1  0
 16 15  2  0
 17 18  1  0
 17 21  1  0
 19 18  1  0
 20 19  1  0
 20 21  1  0
 21 22  1  1
 22 23  2  0
 22 24  1  0
M  END
$$$$
