DMP.pdb
     RDKit          3D

 24 24  0  0  1  0  0  0  0  0999 V2000
    4.8208  -20.0114   23.6189 N   0  0  0  0  0  0  0  0  0  0  0  0
    6.1625  -19.5514   24.0407 C   0  0  1  0  0  0  0  0  0  0  0  0
    7.1417  -20.2482   23.1381 C   0  0  0  0  0  0  0  0  0  0  0  0
    7.4549  -21.6271   23.4906 C   0  0  0  0  0  0  0  0  0  0  0  0
    7.8704  -21.9308   24.6277 O   0  0  0  0  0  0  0  0  0  0  0  0
    6.1757  -18.0982   23.7777 C   0  0  0  0  0  0  0  0  0  0  0  0
    5.6843  -17.6142   22.7375 O   0  0  0  0  0  0  0  0  0  0  0  0
    7.2980  -22.6420   22.5654 O   0  0  0  0  0  0  0  0  0  0  0  0
    6.6131  -11.1624   26.9557 C   0  0  0  0  0  0  0  0  0  0  0  0
    6.2376  -12.9314   26.7427 S   0  0  0  0  0  0  0  0  0  0  0  0
    7.5905  -13.7542   25.8180 C   0  0  0  0  0  0  0  0  0  0  0  0
    7.2754  -15.1818   25.7433 C   0  0  0  0  0  0  0  0  0  0  0  0
    6.9232  -15.7505   24.3822 C   0  0  2  0  0  0  0  0  0  0  0  0
    6.7514  -17.2027   24.7070 N   0  0  0  0  0  0  0  0  0  0  0  0
    7.9800  -15.6454   23.3825 C   0  0  0  0  0  0  0  0  0  0  0  0
    8.9939  -16.4239   23.5366 O   0  0  0  0  0  0  0  0  0  0  0  0
    8.0287  -14.7910   22.2522 N   0  0  0  0  0  0  0  0  0  0  0  0
    7.0847  -13.6576   22.1336 C   0  0  0  0  0  0  0  0  0  0  0  0
    7.6422  -12.7626   21.0742 C   0  0  0  0  0  0  0  0  0  0  0  0
    8.2870  -13.7647   20.1548 C   0  0  0  0  0  0  0  0  0  0  0  0
    8.9027  -14.7619   21.1201 C   0  0  1  0  0  0  0  0  0  0  0  0
   10.2377  -14.1562   21.4813 C   0  0  0  0  0  0  0  0  0  0  0  0
   11.1615  -14.1100   20.6318 O   0  0  0  0  0  0  0  0  0  0  0  0
   10.5003  -13.6349   22.7379 O   0  0  0  0  0  0  0  0  0  0  0  0
  2  1  1  6
  2  3  1  0
  3  4  1  0
  4  8  1  0
  5  4  2  0
  6  2  1  0
  7  6  2  0
  9 10  1  0
 10 11  1  0
 11 12  1  0
 13 12  1  1
 13 15  1  0
 13 14  1  0
 14  6  1  0
 15 17  1  0
 16 15  2  0
 17 18  1  0
 17 21  1  0
 19 18  1  0
 20 19  1  0
 20 21  1  0
 21 22  1  1
 22 23  2  0
 22 24  1  0
M  END
$$$$
