DMP.pdb
     RDKit          3D

 24 24  0  0  1  0  0  0  0  0999 V2000
    5.1678  -19.9009   24.2082 N   0  0  0  0  0  0  0  0  0  0  0  0
    6.5189  -19.5194   23.7405 C   0  0  1  0  0  0  0  0  0  0  0  0
    6.7644  -20.3163   22.4899 C   0  0  0  0  0  0  0  0  0  0  0  0
    8.0408  -20.0768   21.8288 C   0  0  0  0  0  0  0  0  0  0  0  0
    9.1028  -19.9805   22.4774 O   0  0  0  0  0  0  0  0  0  0  0  0
    6.4264  -18.0816   23.4157 C   0  0  0  0  0  0  0  0  0  0  0  0
    5.6454  -17.6546   22.5409 O   0  0  0  0  0  0  0  0  0  0  0  0
    8.1070  -19.9491   20.4540 O   0  0  0  0  0  0  0  0  0  0  0  0
    7.0188  -11.3357   27.1414 C   0  0  0  0  0  0  0  0  0  0  0  0
    7.3180  -13.1222   26.9558 S   0  0  0  0  0  0  0  0  0  0  0  0
    7.2944  -13.5825   25.1810 C   0  0  0  0  0  0  0  0  0  0  0  0
    7.4050  -15.0397   25.0968 C   0  0  0  0  0  0  0  0  0  0  0  0
    7.1806  -15.6815   23.7411 C   0  0  2  0  0  0  0  0  0  0  0  0
    7.2284  -17.1364   24.0941 N   0  0  0  0  0  0  0  0  0  0  0  0
    8.2336  -15.4313   22.7633 C   0  0  0  0  0  0  0  0  0  0  0  0
    9.2838  -16.1711   22.8504 O   0  0  0  0  0  0  0  0  0  0  0  0
    8.2435  -14.4722   21.7192 N   0  0  0  0  0  0  0  0  0  0  0  0
    7.2426  -13.3825   21.6988 C   0  0  0  0  0  0  0  0  0  0  0  0
    7.7582  -12.3638   20.7341 C   0  0  0  0  0  0  0  0  0  0  0  0
    8.4586  -13.2400   19.7307 C   0  0  0  0  0  0  0  0  0  0  0  0
    9.1204  -14.2914   20.6035 C   0  0  1  0  0  0  0  0  0  0  0  0
   10.4204  -13.6551   21.0334 C   0  0  0  0  0  0  0  0  0  0  0  0
   10.5208  -13.1271   22.1684 O   0  0  0  0  0  0  0  0  0  0  0  0
   11.5379  -13.6246   20.2148 O   0  0  0  0  0  0  0  0  0  0  0  0
  2  1  1  6
  2  3  1  0
  3  4  1  0
  4  8  1  0
  5  4  2  0
  6  2  1  0
  7  6  2  0
  9 10  1  0
 10 11  1  0
 11 12  1  0
 13 12  1  1
 13 15  1  0
 13 14  1  0
 14  6  1  0
 15 17  1  0
 16 15  2  0
 17 18  1  0
 17 21  1  0
 19 18  1  0
 20 19  1  0
 20 21  1  0
 21 22  1  1
 22 23  2  0
 22 24  1  0
M  END
$$$$
