DMP.pdb
     RDKit          3D

 24 24  0  0  1  0  0  0  0  0999 V2000
    9.0123  -16.0153   20.5517 N   0  0  0  0  0  0  0  0  0  0  0  0
    9.8755  -16.6879   21.5478 C   0  0  1  0  0  0  0  0  0  0  0  0
   11.2751  -16.6051   21.0060 C   0  0  0  0  0  0  0  0  0  0  0  0
   11.4727  -17.1718   19.6780 C   0  0  0  0  0  0  0  0  0  0  0  0
   10.7500  -18.0945   19.2489 O   0  0  0  0  0  0  0  0  0  0  0  0
    9.7581  -15.8754   22.7756 C   0  0  0  0  0  0  0  0  0  0  0  0
   10.3503  -14.7839   22.9003 O   0  0  0  0  0  0  0  0  0  0  0  0
   12.4751  -16.6967   18.8534 O   0  0  0  0  0  0  0  0  0  0  0  0
    5.8270  -11.6514   25.7722 C   0  0  0  0  0  0  0  0  0  0  0  0
    6.9288  -13.0614   26.1094 S   0  0  0  0  0  0  0  0  0  0  0  0
    6.5236  -14.4572   24.9913 C   0  0  0  0  0  0  0  0  0  0  0  0
    7.3531  -15.5978   25.3835 C   0  0  0  0  0  0  0  0  0  0  0  0
    8.8425  -15.5060   25.1124 C   0  0  2  0  0  0  0  0  0  0  0  0
    8.9623  -16.3149   23.8575 N   0  0  0  0  0  0  0  0  0  0  0  0
    9.6885  -16.1325   26.1220 C   0  0  0  0  0  0  0  0  0  0  0  0
   10.0009  -17.3655   25.9227 O   0  0  0  0  0  0  0  0  0  0  0  0
   10.2170  -15.5483   27.3008 N   0  0  0  0  0  0  0  0  0  0  0  0
    9.8344  -14.1719   27.6866 C   0  0  0  0  0  0  0  0  0  0  0  0
   10.2323  -14.0169   29.1190 C   0  0  0  0  0  0  0  0  0  0  0  0
   11.4656  -14.8777   29.1744 C   0  0  0  0  0  0  0  0  0  0  0  0
   11.0864  -16.0678   28.3111 C   0  0  1  0  0  0  0  0  0  0  0  0
   10.3399  -16.9861   29.2487 C   0  0  0  0  0  0  0  0  0  0  0  0
    9.0861  -17.0462   29.2096 O   0  0  0  0  0  0  0  0  0  0  0  0
   10.9881  -17.7871   30.1751 O   0  0  0  0  0  0  0  0  0  0  0  0
  2  1  1  6
  2  3  1  0
  3  4  1  0
  4  8  1  0
  5  4  2  0
  6  2  1  0
  7  6  2  0
  9 10  1  0
 10 11  1  0
 11 12  1  0
 13 12  1  1
 13 15  1  0
 13 14  1  0
 14  6  1  0
 15 17  1  0
 16 15  2  0
 17 18  1  0
 17 21  1  0
 19 18  1  0
 20 19  1  0
 20 21  1  0
 21 22  1  1
 22 23  2  0
 22 24  1  0
M  END
$$$$
