DMP.pdb
     RDKit          3D

 24 24  0  0  1  0  0  0  0  0999 V2000
    5.4534  -20.3459   24.0154 N   0  0  0  0  0  0  0  0  0  0  0  0
    6.3749  -19.5113   24.8177 C   0  0  1  0  0  0  0  0  0  0  0  0
    7.7538  -20.0504   24.5583 C   0  0  0  0  0  0  0  0  0  0  0  0
    8.1245  -21.2325   25.3257 C   0  0  0  0  0  0  0  0  0  0  0  0
    7.8713  -21.3242   26.5444 O   0  0  0  0  0  0  0  0  0  0  0  0
    6.2501  -18.1490   24.2611 C   0  0  0  0  0  0  0  0  0  0  0  0
    5.8836  -17.9510   23.0846 O   0  0  0  0  0  0  0  0  0  0  0  0
    8.7717  -22.2912   24.7166 O   0  0  0  0  0  0  0  0  0  0  0  0
    8.6707  -12.1042   27.4654 C   0  0  0  0  0  0  0  0  0  0  0  0
    6.9336  -12.5682   27.1773 S   0  0  0  0  0  0  0  0  0  0  0  0
    6.7537  -13.3325   25.5202 C   0  0  0  0  0  0  0  0  0  0  0  0
    6.6692  -14.7822   25.7047 C   0  0  0  0  0  0  0  0  0  0  0  0
    6.5905  -15.6429   24.4584 C   0  0  2  0  0  0  0  0  0  0  0  0
    6.5447  -17.0167   25.0536 N   0  0  0  0  0  0  0  0  0  0  0  0
    7.7632  -15.5770   23.5936 C   0  0  0  0  0  0  0  0  0  0  0  0
    8.7803  -16.2799   23.9531 O   0  0  0  0  0  0  0  0  0  0  0  0
    7.9227  -14.8345   22.3964 N   0  0  0  0  0  0  0  0  0  0  0  0
    7.0013  -13.7200   22.0824 C   0  0  0  0  0  0  0  0  0  0  0  0
    7.6610  -12.9292   20.9991 C   0  0  0  0  0  0  0  0  0  0  0  0
    8.3821  -14.0131   20.2439 C   0  0  0  0  0  0  0  0  0  0  0  0
    8.8986  -14.9119   21.3533 C   0  0  1  0  0  0  0  0  0  0  0  0
   10.1980  -14.2711   21.7782 C   0  0  0  0  0  0  0  0  0  0  0  0
   11.1947  -14.2965   21.0145 O   0  0  0  0  0  0  0  0  0  0  0  0
   10.3486  -13.6396   23.0023 O   0  0  0  0  0  0  0  0  0  0  0  0
  2  1  1  6
  2  3  1  0
  3  4  1  0
  4  8  1  0
  5  4  2  0
  6  2  1  0
  7  6  2  0
  9 10  1  0
 10 11  1  0
 11 12  1  0
 13 12  1  1
 13 15  1  0
 13 14  1  0
 14  6  1  0
 15 17  1  0
 16 15  2  0
 17 18  1  0
 17 21  1  0
 19 18  1  0
 20 19  1  0
 20 21  1  0
 21 22  1  1
 22 23  2  0
 22 24  1  0
M  END
$$$$
