DMP.pdb
     RDKit          3D

 24 24  0  0  1  0  0  0  0  0999 V2000
    9.7030  -15.9053   20.1694 N   0  0  0  0  0  0  0  0  0  0  0  0
    9.6738  -16.8196   21.3324 C   0  0  1  0  0  0  0  0  0  0  0  0
   10.9538  -17.6053   21.2735 C   0  0  0  0  0  0  0  0  0  0  0  0
   11.0253  -18.6188   20.2287 C   0  0  0  0  0  0  0  0  0  0  0  0
   10.0408  -19.3307   19.9429 O   0  0  0  0  0  0  0  0  0  0  0  0
    9.6730  -15.9398   22.5187 C   0  0  0  0  0  0  0  0  0  0  0  0
   10.6140  -15.1549   22.7552 O   0  0  0  0  0  0  0  0  0  0  0  0
   12.1964  -18.8183   19.5222 O   0  0  0  0  0  0  0  0  0  0  0  0
    6.4811  -11.3345   26.5037 C   0  0  0  0  0  0  0  0  0  0  0  0
    5.7375  -12.8180   25.7541 S   0  0  0  0  0  0  0  0  0  0  0  0
    6.7270  -14.3015   26.1813 C   0  0  0  0  0  0  0  0  0  0  0  0
    7.1238  -14.9484   24.9296 C   0  0  0  0  0  0  0  0  0  0  0  0
    8.6083  -15.1196   24.6702 C   0  0  2  0  0  0  0  0  0  0  0  0
    8.5940  -15.9609   23.4310 N   0  0  0  0  0  0  0  0  0  0  0  0
    9.3278  -15.8631   25.6983 C   0  0  0  0  0  0  0  0  0  0  0  0
    9.3743  -17.1416   25.5540 O   0  0  0  0  0  0  0  0  0  0  0  0
    9.9906  -15.3502   26.8418 N   0  0  0  0  0  0  0  0  0  0  0  0
    9.8986  -13.9110   27.1735 C   0  0  0  0  0  0  0  0  0  0  0  0
   10.3545  -13.7822   28.5912 C   0  0  0  0  0  0  0  0  0  0  0  0
   11.3933  -14.8688   28.6639 C   0  0  0  0  0  0  0  0  0  0  0  0
   10.7641  -15.9924   27.8594 C   0  0  1  0  0  0  0  0  0  0  0  0
    9.8735  -16.7057   28.8482 C   0  0  0  0  0  0  0  0  0  0  0  0
    8.6329  -16.5108   28.8366 O   0  0  0  0  0  0  0  0  0  0  0  0
   10.3714  -17.5884   29.7930 O   0  0  0  0  0  0  0  0  0  0  0  0
  2  1  1  6
  2  3  1  0
  3  4  1  0
  4  8  1  0
  5  4  2  0
  6  2  1  0
  7  6  2  0
  9 10  1  0
 10 11  1  0
 11 12  1  0
 13 12  1  1
 13 15  1  0
 13 14  1  0
 14  6  1  0
 15 17  1  0
 16 15  2  0
 17 18  1  0
 17 21  1  0
 19 18  1  0
 20 19  1  0
 20 21  1  0
 21 22  1  1
 22 23  2  0
 22 24  1  0
M  END
$$$$
