DMP.pdb
     RDKit          3D

 24 24  0  0  1  0  0  0  0  0999 V2000
   10.2486  -15.8211   20.1919 N   0  0  0  0  0  0  0  0  0  0  0  0
    9.9456  -16.7914   21.2673 C   0  0  1  0  0  0  0  0  0  0  0  0
   11.1275  -17.7176   21.3343 C   0  0  0  0  0  0  0  0  0  0  0  0
   10.9549  -19.0098   20.6830 C   0  0  0  0  0  0  0  0  0  0  0  0
   10.8147  -19.1028   19.4462 O   0  0  0  0  0  0  0  0  0  0  0  0
    9.8605  -15.9876   22.5034 C   0  0  0  0  0  0  0  0  0  0  0  0
   10.7521  -15.1741   22.8208 O   0  0  0  0  0  0  0  0  0  0  0  0
   10.9420  -20.1752   21.4262 O   0  0  0  0  0  0  0  0  0  0  0  0
    6.0234  -11.7258   26.9753 C   0  0  0  0  0  0  0  0  0  0  0  0
    6.6676  -12.6466   25.5425 S   0  0  0  0  0  0  0  0  0  0  0  0
    6.5325  -14.4506   25.8422 C   0  0  0  0  0  0  0  0  0  0  0  0
    7.0872  -15.1391   24.6756 C   0  0  0  0  0  0  0  0  0  0  0  0
    8.5974  -15.2287   24.5684 C   0  0  2  0  0  0  0  0  0  0  0  0
    8.7540  -16.1174   23.3728 N   0  0  0  0  0  0  0  0  0  0  0  0
    9.2534  -15.8854   25.6935 C   0  0  0  0  0  0  0  0  0  0  0  0
    9.3417  -17.1686   25.6357 O   0  0  0  0  0  0  0  0  0  0  0  0
    9.8136  -15.2832   26.8482 N   0  0  0  0  0  0  0  0  0  0  0  0
    9.5262  -13.8663   27.1637 C   0  0  0  0  0  0  0  0  0  0  0  0
    9.9242  -13.6702   28.5911 C   0  0  0  0  0  0  0  0  0  0  0  0
   11.0936  -14.6114   28.7002 C   0  0  0  0  0  0  0  0  0  0  0  0
   10.6374  -15.8125   27.8911 C   0  0  1  0  0  0  0  0  0  0  0  0
    9.8218  -16.6298   28.8640 C   0  0  0  0  0  0  0  0  0  0  0  0
    8.5676  -16.6198   28.8020 O   0  0  0  0  0  0  0  0  0  0  0  0
   10.4054  -17.4111   29.8483 O   0  0  0  0  0  0  0  0  0  0  0  0
  2  1  1  6
  2  3  1  0
  3  4  1  0
  4  8  1  0
  5  4  2  0
  6  2  1  0
  7  6  2  0
  9 10  1  0
 10 11  1  0
 11 12  1  0
 13 12  1  1
 13 15  1  0
 13 14  1  0
 14  6  1  0
 15 17  1  0
 16 15  2  0
 17 18  1  0
 17 21  1  0
 19 18  1  0
 20 19  1  0
 20 21  1  0
 21 22  1  1
 22 23  2  0
 22 24  1  0
M  END
$$$$
