DMP.pdb
     RDKit          3D

 24 24  0  0  1  0  0  0  0  0999 V2000
    9.9869  -16.0223   20.1682 N   0  0  0  0  0  0  0  0  0  0  0  0
   10.0362  -16.9062   21.3539 C   0  0  1  0  0  0  0  0  0  0  0  0
   11.3267  -17.6696   21.2477 C   0  0  0  0  0  0  0  0  0  0  0  0
   11.3943  -18.6488   20.1705 C   0  0  0  0  0  0  0  0  0  0  0  0
   10.5029  -18.7228   19.3000 O   0  0  0  0  0  0  0  0  0  0  0  0
   10.0799  -15.9957   22.5160 C   0  0  0  0  0  0  0  0  0  0  0  0
   10.9892  -15.1525   22.6562 O   0  0  0  0  0  0  0  0  0  0  0  0
   12.4575  -19.5280   20.0858 O   0  0  0  0  0  0  0  0  0  0  0  0
    5.5208  -11.5921   26.6957 C   0  0  0  0  0  0  0  0  0  0  0  0
    5.8139  -12.8908   25.4535 S   0  0  0  0  0  0  0  0  0  0  0  0
    7.2578  -13.9112   25.9395 C   0  0  0  0  0  0  0  0  0  0  0  0
    7.6683  -14.6889   24.7693 C   0  0  0  0  0  0  0  0  0  0  0  0
    9.1153  -15.1380   24.6998 C   0  0  2  0  0  0  0  0  0  0  0  0
    9.0815  -16.0530   23.5144 N   0  0  0  0  0  0  0  0  0  0  0  0
    9.5699  -15.9185   25.8451 C   0  0  0  0  0  0  0  0  0  0  0  0
    9.4344  -17.1958   25.7580 O   0  0  0  0  0  0  0  0  0  0  0  0
   10.1503  -15.4436   27.0483 N   0  0  0  0  0  0  0  0  0  0  0  0
   10.0384  -14.0148   27.4165 C   0  0  0  0  0  0  0  0  0  0  0  0
   10.3918  -13.9312   28.8664 C   0  0  0  0  0  0  0  0  0  0  0  0
   11.4199  -15.0244   28.9800 C   0  0  0  0  0  0  0  0  0  0  0  0
   10.8472  -16.1201   28.0986 C   0  0  1  0  0  0  0  0  0  0  0  0
    9.8861  -16.8589   28.9987 C   0  0  0  0  0  0  0  0  0  0  0  0
    8.6477  -16.6908   28.8746 O   0  0  0  0  0  0  0  0  0  0  0  0
   10.3152  -17.7366   29.9812 O   0  0  0  0  0  0  0  0  0  0  0  0
  2  1  1  6
  2  3  1  0
  3  4  1  0
  4  8  1  0
  5  4  2  0
  6  2  1  0
  7  6  2  0
  9 10  1  0
 10 11  1  0
 11 12  1  0
 13 12  1  1
 13 15  1  0
 13 14  1  0
 14  6  1  0
 15 17  1  0
 16 15  2  0
 17 18  1  0
 17 21  1  0
 19 18  1  0
 20 19  1  0
 20 21  1  0
 21 22  1  1
 22 23  2  0
 22 24  1  0
M  END
$$$$
