DMP.pdb
     RDKit          3D

 24 24  0  0  1  0  0  0  0  0999 V2000
    9.5097  -15.5975   20.3397 N   0  0  0  0  0  0  0  0  0  0  0  0
    9.6042  -16.5446   21.4727 C   0  0  1  0  0  0  0  0  0  0  0  0
   10.9697  -17.1660   21.3800 C   0  0  0  0  0  0  0  0  0  0  0  0
   11.1238  -18.2044   20.3692 C   0  0  0  0  0  0  0  0  0  0  0  0
   11.8907  -18.0575   19.3955 O   0  0  0  0  0  0  0  0  0  0  0  0
    9.5086  -15.7092   22.6868 C   0  0  0  0  0  0  0  0  0  0  0  0
   10.2098  -14.6881   22.8387 O   0  0  0  0  0  0  0  0  0  0  0  0
   10.4176  -19.3887   20.4651 O   0  0  0  0  0  0  0  0  0  0  0  0
    5.9476  -11.2891   26.1032 C   0  0  0  0  0  0  0  0  0  0  0  0
    6.9300  -12.8107   26.2908 S   0  0  0  0  0  0  0  0  0  0  0  0
    6.3492  -14.0840   25.1060 C   0  0  0  0  0  0  0  0  0  0  0  0
    7.1159  -15.3062   25.3536 C   0  0  0  0  0  0  0  0  0  0  0  0
    8.5941  -15.2857   25.0149 C   0  0  2  0  0  0  0  0  0  0  0  0
    8.6094  -16.0452   23.7239 N   0  0  0  0  0  0  0  0  0  0  0  0
    9.4481  -16.0012   25.9564 C   0  0  0  0  0  0  0  0  0  0  0  0
    9.6047  -17.2614   25.7441 O   0  0  0  0  0  0  0  0  0  0  0  0
   10.1354  -15.4782   27.0806 N   0  0  0  0  0  0  0  0  0  0  0  0
    9.9583  -14.0615   27.4696 C   0  0  0  0  0  0  0  0  0  0  0  0
   10.4828  -13.9457   28.8646 C   0  0  0  0  0  0  0  0  0  0  0  0
   11.5999  -14.9540   28.8412 C   0  0  0  0  0  0  0  0  0  0  0  0
   11.0094  -16.0943   28.0310 C   0  0  1  0  0  0  0  0  0  0  0  0
   10.2297  -16.9037   29.0392 C   0  0  0  0  0  0  0  0  0  0  0  0
    8.9813  -16.7886   29.1129 O   0  0  0  0  0  0  0  0  0  0  0  0
   10.8407  -17.7911   29.9104 O   0  0  0  0  0  0  0  0  0  0  0  0
  2  1  1  6
  2  3  1  0
  3  4  1  0
  4  8  1  0
  5  4  2  0
  6  2  1  0
  7  6  2  0
  9 10  1  0
 10 11  1  0
 11 12  1  0
 13 12  1  1
 13 15  1  0
 13 14  1  0
 14  6  1  0
 15 17  1  0
 16 15  2  0
 17 18  1  0
 17 21  1  0
 19 18  1  0
 20 19  1  0
 20 21  1  0
 21 22  1  1
 22 23  2  0
 22 24  1  0
M  END
$$$$
