DMP.pdb
     RDKit          3D

 24 24  0  0  1  0  0  0  0  0999 V2000
    9.0386  -16.0118   20.1059 N   0  0  0  0  0  0  0  0  0  0  0  0
    9.9409  -16.5550   21.1453 C   0  0  1  0  0  0  0  0  0  0  0  0
   11.3339  -16.4163   20.5979 C   0  0  0  0  0  0  0  0  0  0  0  0
   12.1739  -17.6027   20.7006 C   0  0  0  0  0  0  0  0  0  0  0  0
   12.3732  -18.3472   19.7188 O   0  0  0  0  0  0  0  0  0  0  0  0
    9.7649  -15.6698   22.3143 C   0  0  0  0  0  0  0  0  0  0  0  0
   10.1790  -14.4924   22.3151 O   0  0  0  0  0  0  0  0  0  0  0  0
   12.7761  -17.9357   21.8993 O   0  0  0  0  0  0  0  0  0  0  0  0
    6.5839  -11.5377   26.2584 C   0  0  0  0  0  0  0  0  0  0  0  0
    5.9483  -13.0033   25.3845 S   0  0  0  0  0  0  0  0  0  0  0  0
    6.8536  -14.5019   25.9294 C   0  0  0  0  0  0  0  0  0  0  0  0
    7.4314  -15.1307   24.7405 C   0  0  0  0  0  0  0  0  0  0  0  0
    8.9418  -15.2526   24.6773 C   0  0  2  0  0  0  0  0  0  0  0  0
    9.1146  -16.1351   23.4794 N   0  0  0  0  0  0  0  0  0  0  0  0
    9.5495  -15.9324   25.8158 C   0  0  0  0  0  0  0  0  0  0  0  0
    9.6713  -17.2106   25.7214 O   0  0  0  0  0  0  0  0  0  0  0  0
   10.0301  -15.3573   27.0192 N   0  0  0  0  0  0  0  0  0  0  0  0
    9.6426  -13.9790   27.3933 C   0  0  0  0  0  0  0  0  0  0  0  0
    9.9778  -13.8329   28.8426 C   0  0  0  0  0  0  0  0  0  0  0  0
   11.2000  -14.7047   28.9491 C   0  0  0  0  0  0  0  0  0  0  0  0
   10.8492  -15.8882   28.0649 C   0  0  1  0  0  0  0  0  0  0  0  0
   10.0540  -16.8033   28.9648 C   0  0  0  0  0  0  0  0  0  0  0  0
    8.8063  -16.8807   28.8441 O   0  0  0  0  0  0  0  0  0  0  0  0
   10.6495  -17.5829   29.9433 O   0  0  0  0  0  0  0  0  0  0  0  0
  2  1  1  6
  2  3  1  0
  3  4  1  0
  4  8  1  0
  5  4  2  0
  6  2  1  0
  7  6  2  0
  9 10  1  0
 10 11  1  0
 11 12  1  0
 13 12  1  1
 13 15  1  0
 13 14  1  0
 14  6  1  0
 15 17  1  0
 16 15  2  0
 17 18  1  0
 17 21  1  0
 19 18  1  0
 20 19  1  0
 20 21  1  0
 21 22  1  1
 22 23  2  0
 22 24  1  0
M  END
$$$$
