DPN.pdb
     RDKit          3D

 24 24  0  0  1  0  0  0  0  0999 V2000
   16.9677  -11.5445  -15.8842 N   0  0  0  0  0  0  0  0  0  0  0  0
   17.9119  -10.7729  -16.5487 C   0  0  1  0  0  0  0  0  0  0  0  0
   17.1430   -9.6463  -17.2621 C   0  0  0  0  0  0  0  0  0  0  0  0
   16.2177  -10.2843  -18.2190 C   0  0  0  0  0  0  0  0  0  0  0  0
   16.6743  -11.0887  -19.0707 O   0  0  0  0  0  0  0  0  0  0  0  0
   19.0013  -10.1593  -15.7625 C   0  0  0  0  0  0  0  0  0  0  0  0
   18.7047  -10.0309  -14.5047 O   0  0  0  0  0  0  0  0  0  0  0  0
   14.8600  -10.0371  -18.2232 O   0  0  0  0  0  0  0  0  0  0  0  0
   20.2505   -9.7310  -16.2336 N   0  0  0  0  0  0  0  0  0  0  0  0
   20.8493   -9.8500  -17.5174 C   0  0  0  0  0  0  0  0  0  0  0  0
   22.1845  -10.5107  -17.1266 C   0  0  0  0  0  0  0  0  0  0  0  0
   22.5134   -9.7191  -15.8779 C   0  0  0  0  0  0  0  0  0  0  0  0
   21.2384   -9.0326  -15.4450 C   0  0  1  0  0  0  0  0  0  0  0  0
   21.3527   -7.5997  -15.7895 C   0  0  0  0  0  0  0  0  0  0  0  0
   21.3516   -7.1323  -16.9552 O   0  0  0  0  0  0  0  0  0  0  0  0
   20.5494   -2.5293  -14.6608 N   0  0  0  0  0  0  0  0  0  0  0  0
   19.9350   -3.3920  -13.7056 C   0  0  0  0  0  0  0  0  0  0  0  0
   19.1643   -2.8702  -12.8882 O   0  0  0  0  0  0  0  0  0  0  0  0
   20.2564   -4.8081  -13.7620 C   0  0  0  0  0  0  0  0  0  0  0  0
   21.1507   -5.2345  -14.9014 C   0  0  2  0  0  0  0  0  0  0  0  0
   21.4732   -6.6765  -14.7218 N   0  0  0  0  0  0  0  0  0  0  0  0
   22.4174   -4.4777  -14.9500 C   0  0  0  0  0  0  0  0  0  0  0  0
   23.6170   -5.1159  -14.6540 O   0  0  0  0  0  0  0  0  0  0  0  0
   22.4838   -3.2746  -15.2463 O   0  0  0  0  0  0  0  0  0  0  0  0
  2  1  1  1
  2  3  1  0
  3  4  1  0
  4  5  2  0
  6  2  1  0
  7  6  2  0
  8  4  1  0
  9 10  1  0
  9  6  1  0
 11 10  1  0
 12 11  1  0
 13 12  1  0
 13  9  1  0
 13 14  1  6
 15 14  2  0
 17 16  1  0
 18 17  2  0
 19 17  1  0
 20 21  1  0
 20 19  1  1
 21 14  1  0
 22 20  1  0
 23 22  1  0
 24 22  2  0
M  END
$$$$
