DPN.pdb
     RDKit          3D

 24 24  0  0  1  0  0  0  0  0999 V2000
   19.3254  -10.6026  -16.0693 N   0  0  0  0  0  0  0  0  0  0  0  0
   19.1740   -9.3405  -15.5101 C   0  0  1  0  0  0  0  0  0  0  0  0
   17.8964   -8.7349  -16.1188 C   0  0  0  0  0  0  0  0  0  0  0  0
   18.1724   -8.4706  -17.5446 C   0  0  0  0  0  0  0  0  0  0  0  0
   17.4245   -8.9782  -18.4187 O   0  0  0  0  0  0  0  0  0  0  0  0
   19.0815   -9.2264  -14.0405 C   0  0  0  0  0  0  0  0  0  0  0  0
   18.6439  -10.3116  -13.4772 O   0  0  0  0  0  0  0  0  0  0  0  0
   19.2240   -7.6840  -17.9686 O   0  0  0  0  0  0  0  0  0  0  0  0
   19.4069   -8.1124  -13.2537 N   0  0  0  0  0  0  0  0  0  0  0  0
   19.8953   -6.8283  -13.6191 C   0  0  0  0  0  0  0  0  0  0  0  0
   21.1405   -6.7519  -12.7159 C   0  0  0  0  0  0  0  0  0  0  0  0
   20.5761   -7.3427  -11.4405 C   0  0  0  0  0  0  0  0  0  0  0  0
   19.2958   -8.0533  -11.8151 C   0  0  1  0  0  0  0  0  0  0  0  0
   18.1626   -7.2252  -11.3512 C   0  0  0  0  0  0  0  0  0  0  0  0
   17.7662   -6.1670  -11.8994 O   0  0  0  0  0  0  0  0  0  0  0  0
   13.6033   -6.4883   -8.8566 N   0  0  0  0  0  0  0  0  0  0  0  0
   13.9649   -7.8674   -8.8198 C   0  0  0  0  0  0  0  0  0  0  0  0
   13.1262   -8.6584   -8.3666 O   0  0  0  0  0  0  0  0  0  0  0  0
   15.2803   -8.2392   -9.3130 C   0  0  0  0  0  0  0  0  0  0  0  0
   16.1262   -7.1081   -9.8468 C   0  0  2  0  0  0  0  0  0  0  0  0
   17.4652   -7.6565  -10.1961 N   0  0  0  0  0  0  0  0  0  0  0  0
   16.3114   -6.0191   -8.8674 C   0  0  0  0  0  0  0  0  0  0  0  0
   15.4831   -4.9029   -8.9082 O   0  0  0  0  0  0  0  0  0  0  0  0
   17.1831   -6.0348   -7.9845 O   0  0  0  0  0  0  0  0  0  0  0  0
  2  1  1  1
  2  3  1  0
  3  4  1  0
  4  5  2  0
  6  2  1  0
  7  6  2  0
  8  4  1  0
  9 10  1  0
  9  6  1  0
 11 10  1  0
 12 11  1  0
 13 12  1  0
 13  9  1  0
 13 14  1  6
 15 14  2  0
 17 16  1  0
 18 17  2  0
 19 17  1  0
 20 21  1  0
 20 19  1  1
 21 14  1  0
 22 20  1  0
 23 22  1  0
 24 22  2  0
M  END
$$$$
