DPN.pdb
     RDKit          3D

 24 24  0  0  1  0  0  0  0  0999 V2000
   29.4294  -15.1336  -18.9976 N   0  0  0  0  0  0  0  0  0  0  0  0
   30.4085  -14.2689  -19.4689 C   0  0  1  0  0  0  0  0  0  0  0  0
   29.9311  -13.7627  -20.8420 C   0  0  0  0  0  0  0  0  0  0  0  0
   29.6965  -14.9484  -21.6894 C   0  0  0  0  0  0  0  0  0  0  0  0
   30.6655  -15.6936  -21.9838 O   0  0  0  0  0  0  0  0  0  0  0  0
   30.7691  -13.0961  -18.6469 C   0  0  0  0  0  0  0  0  0  0  0  0
   29.8762  -12.8184  -17.7457 O   0  0  0  0  0  0  0  0  0  0  0  0
   28.4502  -15.2817  -22.1793 O   0  0  0  0  0  0  0  0  0  0  0  0
   31.9236  -12.3077  -18.7534 N   0  0  0  0  0  0  0  0  0  0  0  0
   33.0139  -12.3759  -19.6632 C   0  0  0  0  0  0  0  0  0  0  0  0
   34.1868  -12.4357  -18.6669 C   0  0  0  0  0  0  0  0  0  0  0  0
   33.7215  -11.4121  -17.6521 C   0  0  0  0  0  0  0  0  0  0  0  0
   32.2465  -11.1911  -17.8964 C   0  0  1  0  0  0  0  0  0  0  0  0
   32.0860   -9.8805  -18.5610 C   0  0  0  0  0  0  0  0  0  0  0  0
   32.4380   -9.6166  -19.7374 O   0  0  0  0  0  0  0  0  0  0  0  0
   29.6722   -5.2763  -19.2581 N   0  0  0  0  0  0  0  0  0  0  0  0
   28.8616   -6.2584  -18.6157 C   0  0  0  0  0  0  0  0  0  0  0  0
   27.6584   -5.9964  -18.4815 O   0  0  0  0  0  0  0  0  0  0  0  0
   29.5028   -7.4840  -18.1700 C   0  0  0  0  0  0  0  0  0  0  0  0
   30.9768   -7.6032  -18.4743 C   0  0  2  0  0  0  0  0  0  0  0  0
   31.4874   -8.8359  -17.8145 N   0  0  0  0  0  0  0  0  0  0  0  0
   31.7593   -6.4533  -17.9792 C   0  0  0  0  0  0  0  0  0  0  0  0
   32.0142   -5.3757  -18.8204 O   0  0  0  0  0  0  0  0  0  0  0  0
   32.2177   -6.3832  -16.8283 O   0  0  0  0  0  0  0  0  0  0  0  0
  2  1  1  1
  2  3  1  0
  3  4  1  0
  4  5  2  0
  6  2  1  0
  7  6  2  0
  8  4  1  0
  9 10  1  0
  9  6  1  0
 11 10  1  0
 12 11  1  0
 13 12  1  0
 13  9  1  0
 13 14  1  6
 15 14  2  0
 17 16  1  0
 18 17  2  0
 19 17  1  0
 20 21  1  0
 20 19  1  1
 21 14  1  0
 22 20  1  0
 23 22  1  0
 24 22  2  0
M  END
$$$$
