DPN.pdb
     RDKit          3D

 24 24  0  0  1  0  0  0  0  0999 V2000
   16.1440  -20.4410    1.4943 N   0  0  0  0  0  0  0  0  0  0  0  0
   15.7234  -20.1839    2.7926 C   0  0  1  0  0  0  0  0  0  0  0  0
   15.7093  -21.5344    3.5310 C   0  0  0  0  0  0  0  0  0  0  0  0
   14.8691  -22.4570    2.7424 C   0  0  0  0  0  0  0  0  0  0  0  0
   13.7031  -22.1074    2.4274 O   0  0  0  0  0  0  0  0  0  0  0  0
   16.4948  -19.2231    3.6069 C   0  0  0  0  0  0  0  0  0  0  0  0
   17.6679  -18.9695    3.1107 O   0  0  0  0  0  0  0  0  0  0  0  0
   15.3074  -23.6987    2.3297 O   0  0  0  0  0  0  0  0  0  0  0  0
   16.0896  -18.6018    4.7967 N   0  0  0  0  0  0  0  0  0  0  0  0
   14.9034  -18.7522    5.5655 C   0  0  0  0  0  0  0  0  0  0  0  0
   14.4571  -17.2808    5.6545 C   0  0  0  0  0  0  0  0  0  0  0  0
   15.7955  -16.6151    5.8984 C   0  0  0  0  0  0  0  0  0  0  0  0
   16.8603  -17.6196    5.5226 C   0  0  1  0  0  0  0  0  0  0  0  0
   17.4497  -18.1476    6.7712 C   0  0  0  0  0  0  0  0  0  0  0  0
   17.0386  -19.1562    7.3967 O   0  0  0  0  0  0  0  0  0  0  0  0
   20.8314  -19.9026    9.8995 N   0  0  0  0  0  0  0  0  0  0  0  0
   21.3231  -19.6538    8.5841 C   0  0  0  0  0  0  0  0  0  0  0  0
   22.3242  -20.2897    8.2266 O   0  0  0  0  0  0  0  0  0  0  0  0
   20.6183  -18.6802    7.7672 C   0  0  0  0  0  0  0  0  0  0  0  0
   19.3938  -18.0586    8.3948 C   0  0  2  0  0  0  0  0  0  0  0  0
   18.5681  -17.4641    7.3084 N   0  0  0  0  0  0  0  0  0  0  0  0
   19.7236  -16.9940    9.3631 C   0  0  0  0  0  0  0  0  0  0  0  0
   19.9279  -17.3139   10.7009 O   0  0  0  0  0  0  0  0  0  0  0  0
   19.8338  -15.7977    9.0525 O   0  0  0  0  0  0  0  0  0  0  0  0
  2  1  1  6
  2  3  1  0
  3  4  1  0
  4  5  2  0
  6  2  1  0
  7  6  2  0
  8  4  1  0
  9 10  1  0
  9  6  1  0
 11 10  1  0
 12 11  1  0
 13 12  1  0
 13  9  1  0
 13 14  1  1
 15 14  2  0
 17 16  1  0
 18 17  2  0
 19 17  1  0
 20 21  1  0
 20 19  1  6
 21 14  1  0
 22 20  1  0
 23 22  1  0
 24 22  2  0
M  END
$$$$
