DPN.pdb
     RDKit          3D

 24 24  0  0  1  0  0  0  0  0999 V2000
   19.3467  -14.3522  -16.0336 N   0  0  0  0  0  0  0  0  0  0  0  0
   19.4429  -13.2142  -16.8237 C   0  0  1  0  0  0  0  0  0  0  0  0
   18.0906  -12.4861  -16.7209 C   0  0  0  0  0  0  0  0  0  0  0  0
   17.0353  -13.4779  -17.0069 C   0  0  0  0  0  0  0  0  0  0  0  0
   16.0466  -13.5618  -16.2347 O   0  0  0  0  0  0  0  0  0  0  0  0
   20.5130  -12.2396  -16.5297 C   0  0  0  0  0  0  0  0  0  0  0  0
   20.8303  -12.2037  -15.2710 O   0  0  0  0  0  0  0  0  0  0  0  0
   17.0830  -14.3269  -18.0937 O   0  0  0  0  0  0  0  0  0  0  0  0
   21.1723  -11.4028  -17.4412 N   0  0  0  0  0  0  0  0  0  0  0  0
   21.0077  -11.2457  -18.8445 C   0  0  0  0  0  0  0  0  0  0  0  0
   22.4610  -11.4597  -19.3071 C   0  0  0  0  0  0  0  0  0  0  0  0
   23.1948  -10.6789  -18.2367 C   0  0  0  0  0  0  0  0  0  0  0  0
   22.2203  -10.4693  -17.1006 C   0  0  1  0  0  0  0  0  0  0  0  0
   21.7784   -9.0591  -17.1334 C   0  0  0  0  0  0  0  0  0  0  0  0
   20.8338   -8.6118  -17.8297 O   0  0  0  0  0  0  0  0  0  0  0  0
   21.1106   -4.3298  -14.9916 N   0  0  0  0  0  0  0  0  0  0  0  0
   21.5391   -5.2917  -14.0297 C   0  0  0  0  0  0  0  0  0  0  0  0
   21.5498   -4.9364  -12.8430 O   0  0  0  0  0  0  0  0  0  0  0  0
   21.9281   -6.6071  -14.5096 C   0  0  0  0  0  0  0  0  0  0  0  0
   21.9104   -6.7920  -16.0080 C   0  0  2  0  0  0  0  0  0  0  0  0
   22.4737   -8.1351  -16.3152 N   0  0  0  0  0  0  0  0  0  0  0  0
   22.7127   -5.7778  -16.7203 C   0  0  0  0  0  0  0  0  0  0  0  0
   22.2262   -4.4825  -16.8591 O   0  0  0  0  0  0  0  0  0  0  0  0
   23.8250   -6.0122  -17.2177 O   0  0  0  0  0  0  0  0  0  0  0  0
  2  1  1  1
  2  3  1  0
  3  4  1  0
  4  5  2  0
  6  2  1  0
  7  6  2  0
  8  4  1  0
  9 10  1  0
  9  6  1  0
 11 10  1  0
 12 11  1  0
 13 12  1  0
 13  9  1  0
 13 14  1  6
 15 14  2  0
 17 16  1  0
 18 17  2  0
 19 17  1  0
 20 21  1  0
 20 19  1  1
 21 14  1  0
 22 20  1  0
 23 22  1  0
 24 22  2  0
M  END
$$$$
