DPN.pdb
     RDKit          3D

 24 24  0  0  1  0  0  0  0  0999 V2000
   17.9384   -9.6328  -15.8437 N   0  0  0  0  0  0  0  0  0  0  0  0
   18.8325   -8.6378  -15.4705 C   0  0  1  0  0  0  0  0  0  0  0  0
   18.3798   -7.3462  -16.1750 C   0  0  0  0  0  0  0  0  0  0  0  0
   18.6208   -7.5270  -17.6201 C   0  0  0  0  0  0  0  0  0  0  0  0
   17.6504   -7.4606  -18.4170 O   0  0  0  0  0  0  0  0  0  0  0  0
   19.0000   -8.3426  -14.0331 C   0  0  0  0  0  0  0  0  0  0  0  0
   17.9134   -8.5364  -13.3488 O   0  0  0  0  0  0  0  0  0  0  0  0
   19.8744   -7.7682  -18.1439 O   0  0  0  0  0  0  0  0  0  0  0  0
   20.1628   -7.8983  -13.3879 N   0  0  0  0  0  0  0  0  0  0  0  0
   21.4532   -7.5973  -13.9029 C   0  0  0  0  0  0  0  0  0  0  0  0
   22.3172   -8.4849  -12.9876 C   0  0  0  0  0  0  0  0  0  0  0  0
   21.6276   -8.2431  -11.6609 C   0  0  0  0  0  0  0  0  0  0  0  0
   20.2772   -7.6397  -11.9717 C   0  0  1  0  0  0  0  0  0  0  0  0
   20.3354   -6.1993  -11.6448 C   0  0  0  0  0  0  0  0  0  0  0  0
   20.7291   -5.2951  -12.4225 O   0  0  0  0  0  0  0  0  0  0  0  0
   16.8570   -2.9042   -9.8153 N   0  0  0  0  0  0  0  0  0  0  0  0
   16.6593   -3.9553  -10.7588 C   0  0  0  0  0  0  0  0  0  0  0  0
   15.5702   -3.9867  -11.3480 O   0  0  0  0  0  0  0  0  0  0  0  0
   17.7422   -4.9039  -10.9572 C   0  0  0  0  0  0  0  0  0  0  0  0
   18.9948   -4.6494  -10.1534 C   0  0  2  0  0  0  0  0  0  0  0  0
   19.9142   -5.8031  -10.3516 N   0  0  0  0  0  0  0  0  0  0  0  0
   18.7298   -4.5096   -8.7078 C   0  0  0  0  0  0  0  0  0  0  0  0
   18.7206   -3.2473   -8.1245 O   0  0  0  0  0  0  0  0  0  0  0  0
   18.5083   -5.4726   -7.9573 O   0  0  0  0  0  0  0  0  0  0  0  0
  2  1  1  1
  2  3  1  0
  3  4  1  0
  4  5  2  0
  6  2  1  0
  7  6  2  0
  8  4  1  0
  9 10  1  0
  9  6  1  0
 11 10  1  0
 12 11  1  0
 13 12  1  0
 13  9  1  0
 13 14  1  6
 15 14  2  0
 17 16  1  0
 18 17  2  0
 19 17  1  0
 20 21  1  0
 20 19  1  6
 21 14  1  0
 22 20  1  0
 23 22  1  0
 24 22  2  0
M  END
$$$$
