DPN.pdb
     RDKit          3D

 24 24  0  0  1  0  0  0  0  0999 V2000
   25.6180  -21.4381  -17.9512 N   0  0  0  0  0  0  0  0  0  0  0  0
   26.0631  -20.5462  -16.9843 C   0  0  1  0  0  0  0  0  0  0  0  0
   25.0492  -19.3885  -16.9469 C   0  0  0  0  0  0  0  0  0  0  0  0
   25.5611  -18.3280  -17.8370 C   0  0  0  0  0  0  0  0  0  0  0  0
   25.2174  -18.3233  -19.0465 O   0  0  0  0  0  0  0  0  0  0  0  0
   26.2507  -21.0374  -15.6041 C   0  0  0  0  0  0  0  0  0  0  0  0
   25.5791  -22.1217  -15.3594 O   0  0  0  0  0  0  0  0  0  0  0  0
   26.4083  -17.3303  -17.3998 O   0  0  0  0  0  0  0  0  0  0  0  0
   27.0443  -20.4648  -14.6001 N   0  0  0  0  0  0  0  0  0  0  0  0
   27.8217  -19.2746  -14.5968 C   0  0  0  0  0  0  0  0  0  0  0  0
   29.1794  -19.8465  -14.1478 C   0  0  0  0  0  0  0  0  0  0  0  0
   28.7166  -20.8078  -13.0727 C   0  0  0  0  0  0  0  0  0  0  0  0
   27.2339  -21.0157  -13.2787 C   0  0  1  0  0  0  0  0  0  0  0  0
   26.5177  -20.2650  -12.2258 C   0  0  0  0  0  0  0  0  0  0  0  0
   26.4100  -19.0148  -12.1731 O   0  0  0  0  0  0  0  0  0  0  0  0
   21.6616  -21.4223   -9.0240 N   0  0  0  0  0  0  0  0  0  0  0  0
   22.4075  -20.5455   -9.8660 C   0  0  0  0  0  0  0  0  0  0  0  0
   22.0202  -19.3713   -9.9415 O   0  0  0  0  0  0  0  0  0  0  0  0
   23.5576  -21.0907  -10.5674 C   0  0  0  0  0  0  0  0  0  0  0  0
   24.8762  -20.4057  -10.2998 C   0  0  2  0  0  0  0  0  0  0  0  0
   25.9021  -21.0122  -11.1916 N   0  0  0  0  0  0  0  0  0  0  0  0
   25.3277  -20.5569   -8.9023 C   0  0  0  0  0  0  0  0  0  0  0  0
   26.1413  -21.6281   -8.5496 O   0  0  0  0  0  0  0  0  0  0  0  0
   25.0198  -19.7680   -7.9954 O   0  0  0  0  0  0  0  0  0  0  0  0
  2  1  1  6
  2  3  1  0
  3  4  1  0
  4  5  2  0
  6  2  1  0
  7  6  2  0
  8  4  1  0
  9 10  1  0
  9  6  1  0
 11 10  1  0
 12 11  1  0
 13 12  1  0
 13  9  1  0
 13 14  1  1
 15 14  2  0
 17 16  1  0
 18 17  2  0
 19 17  1  0
 20 21  1  0
 20 19  1  1
 21 14  1  0
 22 20  1  0
 23 22  1  0
 24 22  2  0
M  END
$$$$
