DPN.pdb
     RDKit          3D

 24 24  0  0  1  0  0  0  0  0999 V2000
   18.9799  -12.9066  -16.3536 N   0  0  0  0  0  0  0  0  0  0  0  0
   20.0936  -12.1896  -16.7709 C   0  0  1  0  0  0  0  0  0  0  0  0
   19.6913  -11.4553  -18.0626 C   0  0  0  0  0  0  0  0  0  0  0  0
   19.3498  -12.4846  -19.0642 C   0  0  0  0  0  0  0  0  0  0  0  0
   18.2097  -12.4704  -19.5942 O   0  0  0  0  0  0  0  0  0  0  0  0
   20.6839  -11.2014  -15.8455 C   0  0  0  0  0  0  0  0  0  0  0  0
   19.8102  -10.6846  -15.0356 O   0  0  0  0  0  0  0  0  0  0  0  0
   20.2322  -13.4725  -19.4507 O   0  0  0  0  0  0  0  0  0  0  0  0
   22.0257  -10.8010  -15.7747 N   0  0  0  0  0  0  0  0  0  0  0  0
   23.1594  -11.2157  -16.5256 C   0  0  0  0  0  0  0  0  0  0  0  0
   24.1097  -11.6042  -15.3776 C   0  0  0  0  0  0  0  0  0  0  0  0
   23.8395  -10.4652  -14.4165 C   0  0  0  0  0  0  0  0  0  0  0  0
   22.5488   -9.8148  -14.8585 C   0  0  1  0  0  0  0  0  0  0  0  0
   22.8853   -8.5323  -15.5120 C   0  0  0  0  0  0  0  0  0  0  0  0
   23.1698   -8.3909  -16.7271 O   0  0  0  0  0  0  0  0  0  0  0  0
   21.1078   -4.0978  -16.9657 N   0  0  0  0  0  0  0  0  0  0  0  0
   20.3403   -5.0427  -16.2227 C   0  0  0  0  0  0  0  0  0  0  0  0
   19.1485   -4.7696  -16.0241 O   0  0  0  0  0  0  0  0  0  0  0  0
   21.0084   -6.2465  -15.7575 C   0  0  0  0  0  0  0  0  0  0  0  0
   22.4112   -6.0584  -15.2316 C   0  0  2  0  0  0  0  0  0  0  0  0
   22.8879   -7.3671  -14.7065 N   0  0  0  0  0  0  0  0  0  0  0  0
   22.4866   -5.0653  -14.1418 C   0  0  0  0  0  0  0  0  0  0  0  0
   22.0194   -5.3924  -12.8735 O   0  0  0  0  0  0  0  0  0  0  0  0
   22.9531   -3.9248  -14.2876 O   0  0  0  0  0  0  0  0  0  0  0  0
  2  1  1  1
  2  3  1  0
  3  4  1  0
  4  5  2  0
  6  2  1  0
  7  6  2  0
  8  4  1  0
  9 10  1  0
  9  6  1  0
 11 10  1  0
 12 11  1  0
 13 12  1  0
 13  9  1  0
 13 14  1  6
 15 14  2  0
 17 16  1  0
 18 17  2  0
 19 17  1  0
 20 21  1  0
 20 19  1  1
 21 14  1  0
 22 20  1  0
 23 22  1  0
 24 22  2  0
M  END
$$$$
