MFG.pdb
     RDKit          3D

 24 24  0  0  1  0  0  0  0  0999 V2000
    8.1873  -11.7090   18.8950 C   0  0  0  0  0  0  0  0  0  0  0  0
    7.9101  -13.3456   18.1242 S   0  0  0  0  0  0  0  0  0  0  0  0
    7.4419  -14.5072   19.4423 C   0  0  0  0  0  0  0  0  0  0  0  0
    8.0422  -14.0564   20.7805 C   0  0  0  0  0  0  0  0  0  0  0  0
    7.7512  -15.1599   21.7688 C   0  0  2  0  0  0  0  0  0  0  0  0
    6.3604  -15.4998   21.6212 N   0  0  0  0  0  0  0  0  0  0  0  0
    8.0428  -14.7819   23.1563 C   0  0  0  0  0  0  0  0  0  0  0  0
    8.0090  -13.5853   23.5558 O   0  0  0  0  0  0  0  0  0  0  0  0
    8.3761  -15.7759   24.0998 N   0  0  0  0  0  0  0  0  0  0  0  0
    9.1282  -15.5641   25.2993 C   0  0  1  0  0  0  0  0  0  0  0  0
    8.3377  -15.2493   26.5118 C   0  0  0  0  0  0  0  0  0  0  0  0
    7.6961  -13.9602   26.6201 C   0  0  0  0  0  0  0  0  0  0  0  0
    8.3043  -12.7626   26.8903 C   0  0  0  0  0  0  0  0  0  0  0  0
    7.6233  -11.5667   26.9710 C   0  0  0  0  0  0  0  0  0  0  0  0
    6.2489  -11.5469   26.7722 C   0  0  0  0  0  0  0  0  0  0  0  0
    5.6215  -12.7416   26.4996 C   0  0  0  0  0  0  0  0  0  0  0  0
    6.3202  -13.9163   26.4247 C   0  0  0  0  0  0  0  0  0  0  0  0
   10.2596  -16.5000   25.5179 C   0  0  0  0  0  0  0  0  0  0  0  0
   10.2106  -17.2192   26.5437 O   0  0  0  0  0  0  0  0  0  0  0  0
   11.3806  -16.6479   24.6778 N   0  0  0  0  0  0  0  0  0  0  0  0
   12.4674  -17.5844   24.9903 C   0  0  0  0  0  0  0  0  0  0  0  0
   12.1250  -18.9645   24.6558 C   0  0  0  0  0  0  0  0  0  0  0  0
   11.2079  -19.5534   25.2719 O   0  0  0  0  0  0  0  0  0  0  0  0
   12.7925  -19.6543   23.6631 O   0  0  0  0  0  0  0  0  0  0  0  0
  2  1  1  0
  3  2  1  0
  4  3  1  0
  5  7  1  0
  5  4  1  0
  5  6  1  1
  7  8  2  0
  9  7  1  0
  9 10  1  0
 10 11  1  1
 11 12  1  0
 12 17  2  0
 13 12  1  0
 13 14  2  0
 14 15  1  0
 15 16  2  0
 17 16  1  0
 18 20  1  0
 18 10  1  0
 19 18  2  0
 21 20  1  0
 22 24  1  0
 22 21  1  0
 23 22  2  0
M  END
$$$$
