MFG.pdb
     RDKit          3D

 24 24  0  0  1  0  0  0  0  0999 V2000
    7.4314  -11.7091   20.1506 C   0  0  0  0  0  0  0  0  0  0  0  0
    7.1770  -13.1391   19.0371 S   0  0  0  0  0  0  0  0  0  0  0  0
    7.7039  -14.6350   19.9263 C   0  0  0  0  0  0  0  0  0  0  0  0
    8.3021  -14.2563   21.2876 C   0  0  0  0  0  0  0  0  0  0  0  0
    8.7911  -15.5426   21.9084 C   0  0  2  0  0  0  0  0  0  0  0  0
    7.6817  -16.4596   21.9033 N   0  0  0  0  0  0  0  0  0  0  0  0
    9.3044  -15.3654   23.2715 C   0  0  0  0  0  0  0  0  0  0  0  0
   10.2913  -14.6243   23.5349 O   0  0  0  0  0  0  0  0  0  0  0  0
    8.6882  -16.0385   24.3470 N   0  0  0  0  0  0  0  0  0  0  0  0
    9.1167  -15.9906   25.7121 C   0  0  1  0  0  0  0  0  0  0  0  0
    8.1223  -15.4820   26.6851 C   0  0  0  0  0  0  0  0  0  0  0  0
    7.5479  -14.1721   26.4867 C   0  0  0  0  0  0  0  0  0  0  0  0
    8.1441  -12.9674   26.7520 C   0  0  0  0  0  0  0  0  0  0  0  0
    7.5326  -11.7523   26.5284 C   0  0  0  0  0  0  0  0  0  0  0  0
    6.2454  -11.7194   26.0078 C   0  0  0  0  0  0  0  0  0  0  0  0
    5.6312  -12.9210   25.7352 C   0  0  0  0  0  0  0  0  0  0  0  0
    6.2599  -14.1148   25.9661 C   0  0  0  0  0  0  0  0  0  0  0  0
    9.9018  -17.1616   26.1770 C   0  0  0  0  0  0  0  0  0  0  0  0
   10.5442  -17.0258   27.2451 O   0  0  0  0  0  0  0  0  0  0  0  0
    9.9896  -18.4065   25.5237 N   0  0  0  0  0  0  0  0  0  0  0  0
   11.2686  -18.9415   25.0401 C   0  0  0  0  0  0  0  0  0  0  0  0
   12.0610  -19.5401   26.1113 C   0  0  0  0  0  0  0  0  0  0  0  0
   11.6320  -19.5412   27.2874 O   0  0  0  0  0  0  0  0  0  0  0  0
   13.2915  -20.1161   25.8644 O   0  0  0  0  0  0  0  0  0  0  0  0
  2  1  1  0
  3  2  1  0
  4  3  1  0
  5  7  1  0
  5  4  1  0
  5  6  1  1
  7  8  2  0
  9  7  1  0
  9 10  1  0
 10 11  1  1
 11 12  1  0
 12 17  2  0
 13 12  1  0
 13 14  2  0
 14 15  1  0
 15 16  2  0
 17 16  1  0
 18 20  1  0
 18 10  1  0
 19 18  2  0
 21 20  1  0
 22 24  1  0
 22 21  1  0
 23 22  2  0
M  END
$$$$
