MFG.pdb
     RDKit          3D

 24 24  0  0  1  0  0  0  0  0999 V2000
    7.2542  -12.9847   17.0406 C   0  0  0  0  0  0  0  0  0  0  0  0
    7.8404  -14.5931   16.3934 S   0  0  0  0  0  0  0  0  0  0  0  0
    8.1817  -15.6724   17.8163 C   0  0  0  0  0  0  0  0  0  0  0  0
    8.7865  -14.8550   18.9653 C   0  0  0  0  0  0  0  0  0  0  0  0
    8.9138  -15.7994   20.1362 C   0  0  2  0  0  0  0  0  0  0  0  0
    7.7223  -16.6067   20.1560 N   0  0  0  0  0  0  0  0  0  0  0  0
    9.0860  -15.1070   21.4184 C   0  0  0  0  0  0  0  0  0  0  0  0
    9.9374  -14.1908   21.5867 O   0  0  0  0  0  0  0  0  0  0  0  0
    8.2808  -15.4604   22.5212 N   0  0  0  0  0  0  0  0  0  0  0  0
    8.3303  -14.8507   23.8154 C   0  0  1  0  0  0  0  0  0  0  0  0
    7.0237  -14.6305   24.4774 C   0  0  0  0  0  0  0  0  0  0  0  0
    6.9365  -13.6905   25.5701 C   0  0  0  0  0  0  0  0  0  0  0  0
    6.4617  -12.4067   25.5104 C   0  0  0  0  0  0  0  0  0  0  0  0
    6.4024  -11.5678   26.6027 C   0  0  0  0  0  0  0  0  0  0  0  0
    6.8404  -12.0227   27.8397 C   0  0  0  0  0  0  0  0  0  0  0  0
    7.3207  -13.3105   27.9178 C   0  0  0  0  0  0  0  0  0  0  0  0
    7.3693  -14.1243   26.8182 C   0  0  0  0  0  0  0  0  0  0  0  0
    9.4090  -15.3387   24.7110 C   0  0  0  0  0  0  0  0  0  0  0  0
    9.4558  -14.8462   25.8630 O   0  0  0  0  0  0  0  0  0  0  0  0
   10.3824  -16.3014   24.3796 N   0  0  0  0  0  0  0  0  0  0  0  0
   11.3362  -16.8149   25.3708 C   0  0  0  0  0  0  0  0  0  0  0  0
   12.3277  -17.7082   24.7769 C   0  0  0  0  0  0  0  0  0  0  0  0
   11.9798  -18.5617   23.9296 O   0  0  0  0  0  0  0  0  0  0  0  0
   13.6620  -17.6410   25.1262 O   0  0  0  0  0  0  0  0  0  0  0  0
  2  1  1  0
  3  2  1  0
  4  3  1  0
  5  7  1  0
  5  4  1  0
  5  6  1  1
  7  8  2  0
  9  7  1  0
  9 10  1  0
 10 11  1  1
 11 12  1  0
 12 17  2  0
 13 12  1  0
 13 14  2  0
 14 15  1  0
 15 16  2  0
 17 16  1  0
 18 20  1  0
 18 10  1  0
 19 18  2  0
 21 20  1  0
 22 24  1  0
 22 21  1  0
 23 22  2  0
M  END
$$$$
