MFG.pdb
     RDKit          3D

 24 24  0  0  1  0  0  0  0  0999 V2000
    8.3749  -17.4076   17.7810 C   0  0  0  0  0  0  0  0  0  0  0  0
    7.7400  -15.9478   16.8781 S   0  0  0  0  0  0  0  0  0  0  0  0
    7.3909  -14.6481   18.1009 C   0  0  0  0  0  0  0  0  0  0  0  0
    8.3275  -14.7938   19.3075 C   0  0  0  0  0  0  0  0  0  0  0  0
    7.8232  -13.8300   20.3543 C   0  0  2  0  0  0  0  0  0  0  0  0
    8.0591  -12.5022   19.8511 N   0  0  0  0  0  0  0  0  0  0  0  0
    8.4703  -14.0069   21.6594 C   0  0  0  0  0  0  0  0  0  0  0  0
    9.5557  -13.4387   21.9620 O   0  0  0  0  0  0  0  0  0  0  0  0
    7.8760  -14.8390   22.6309 N   0  0  0  0  0  0  0  0  0  0  0  0
    8.4650  -15.2060   23.8830 C   0  0  1  0  0  0  0  0  0  0  0  0
    7.5553  -15.2021   25.0519 C   0  0  0  0  0  0  0  0  0  0  0  0
    7.1649  -13.9411   25.6373 C   0  0  0  0  0  0  0  0  0  0  0  0
    5.9320  -13.3487   25.5597 C   0  0  0  0  0  0  0  0  0  0  0  0
    5.6312  -12.1416   26.1537 C   0  0  0  0  0  0  0  0  0  0  0  0
    6.6107  -11.4702   26.8740 C   0  0  0  0  0  0  0  0  0  0  0  0
    7.8556  -12.0513   26.9622 C   0  0  0  0  0  0  0  0  0  0  0  0
    8.1296  -13.2513   26.3632 C   0  0  0  0  0  0  0  0  0  0  0  0
    9.4121  -16.3481   23.8334 C   0  0  0  0  0  0  0  0  0  0  0  0
    8.9145  -17.4987   23.8532 O   0  0  0  0  0  0  0  0  0  0  0  0
   10.8159  -16.2520   23.7690 N   0  0  0  0  0  0  0  0  0  0  0  0
   11.6750  -17.4421   23.7274 C   0  0  0  0  0  0  0  0  0  0  0  0
   13.0929  -17.1011   23.6438 C   0  0  0  0  0  0  0  0  0  0  0  0
   13.4494  -15.9038   23.5608 O   0  0  0  0  0  0  0  0  0  0  0  0
   14.0720  -18.0748   23.6536 O   0  0  0  0  0  0  0  0  0  0  0  0
  2  1  1  0
  3  2  1  0
  4  3  1  0
  5  7  1  0
  5  4  1  0
  5  6  1  6
  7  8  2  0
  9  7  1  0
  9 10  1  0
 10 11  1  1
 11 12  1  0
 12 17  2  0
 13 12  1  0
 13 14  2  0
 14 15  1  0
 15 16  2  0
 17 16  1  0
 18 20  1  0
 18 10  1  0
 19 18  2  0
 21 20  1  0
 22 24  1  0
 22 21  1  0
 23 22  2  0
M  END
$$$$
