MFG.pdb
     RDKit          3D

 24 24  0  0  1  0  0  0  0  0999 V2000
    7.9329  -11.6426   19.6939 C   0  0  0  0  0  0  0  0  0  0  0  0
    7.5306  -13.0796   18.6343 S   0  0  0  0  0  0  0  0  0  0  0  0
    7.7953  -14.5856   19.6182 C   0  0  0  0  0  0  0  0  0  0  0  0
    8.3286  -14.2196   21.0096 C   0  0  0  0  0  0  0  0  0  0  0  0
    8.6541  -15.5246   21.6954 C   0  0  2  0  0  0  0  0  0  0  0  0
    7.4359  -16.2900   21.7416 N   0  0  0  0  0  0  0  0  0  0  0  0
    9.1990  -15.3451   23.0459 C   0  0  0  0  0  0  0  0  0  0  0  0
   10.2805  -14.7331   23.2663 O   0  0  0  0  0  0  0  0  0  0  0  0
    8.5061  -15.8671   24.1580 N   0  0  0  0  0  0  0  0  0  0  0  0
    8.9696  -15.8424   25.5122 C   0  0  1  0  0  0  0  0  0  0  0  0
    7.9674  -15.4567   26.5324 C   0  0  0  0  0  0  0  0  0  0  0  0
    7.4259  -14.1181   26.5180 C   0  0  0  0  0  0  0  0  0  0  0  0
    6.1573  -13.7515   26.1530 C   0  0  0  0  0  0  0  0  0  0  0  0
    5.7087  -12.4481   26.1724 C   0  0  0  0  0  0  0  0  0  0  0  0
    6.5671  -11.4347   26.5788 C   0  0  0  0  0  0  0  0  0  0  0  0
    7.8459  -11.7854   26.9490 C   0  0  0  0  0  0  0  0  0  0  0  0
    8.2676  -13.0874   26.9211 C   0  0  0  0  0  0  0  0  0  0  0  0
    9.8582  -16.9652   25.9041 C   0  0  0  0  0  0  0  0  0  0  0  0
   10.0882  -17.1057   27.1285 O   0  0  0  0  0  0  0  0  0  0  0  0
   10.4653  -17.8815   25.0231 N   0  0  0  0  0  0  0  0  0  0  0  0
   11.2896  -18.9957   25.5078 C   0  0  0  0  0  0  0  0  0  0  0  0
   11.8801  -19.7659   24.4161 C   0  0  0  0  0  0  0  0  0  0  0  0
   11.8269  -19.3367   23.2412 O   0  0  0  0  0  0  0  0  0  0  0  0
   12.5071  -20.9754   24.6418 O   0  0  0  0  0  0  0  0  0  0  0  0
  2  1  1  0
  3  2  1  0
  4  3  1  0
  5  7  1  0
  5  4  1  0
  5  6  1  1
  7  8  2  0
  9  7  1  0
  9 10  1  0
 10 11  1  1
 11 12  1  0
 12 17  2  0
 13 12  1  0
 13 14  2  0
 14 15  1  0
 15 16  2  0
 17 16  1  0
 18 20  1  0
 18 10  1  0
 19 18  2  0
 21 20  1  0
 22 24  1  0
 22 21  1  0
 23 22  2  0
M  END
$$$$
