MFG.pdb
     RDKit          3D

 24 24  0  0  1  0  0  0  0  0999 V2000
    8.0729  -11.6540   18.9558 C   0  0  0  0  0  0  0  0  0  0  0  0
    7.4926  -13.2647   18.3089 S   0  0  0  0  0  0  0  0  0  0  0  0
    7.0944  -14.3232   19.7326 C   0  0  0  0  0  0  0  0  0  0  0  0
    8.0757  -14.0540   20.8810 C   0  0  0  0  0  0  0  0  0  0  0  0
    7.7495  -15.0568   21.9612 C   0  0  2  0  0  0  0  0  0  0  0  0
    6.3187  -15.0544   22.1181 N   0  0  0  0  0  0  0  0  0  0  0  0
    8.4065  -14.7606   23.2394 C   0  0  0  0  0  0  0  0  0  0  0  0
    8.9339  -13.6415   23.4889 O   0  0  0  0  0  0  0  0  0  0  0  0
    8.4642  -15.7480   24.2449 N   0  0  0  0  0  0  0  0  0  0  0  0
    9.2700  -15.6847   25.4264 C   0  0  1  0  0  0  0  0  0  0  0  0
    8.5597  -15.3260   26.6757 C   0  0  0  0  0  0  0  0  0  0  0  0
    7.6686  -14.1898   26.6787 C   0  0  0  0  0  0  0  0  0  0  0  0
    6.3258  -14.2011   26.4072 C   0  0  0  0  0  0  0  0  0  0  0  0
    5.5358  -13.0718   26.4373 C   0  0  0  0  0  0  0  0  0  0  0  0
    6.1057  -11.8461   26.7565 C   0  0  0  0  0  0  0  0  0  0  0  0
    7.4542  -11.8164   27.0323 C   0  0  0  0  0  0  0  0  0  0  0  0
    8.2174  -12.9522   26.9957 C   0  0  0  0  0  0  0  0  0  0  0  0
   10.2790  -16.7640   25.5704 C   0  0  0  0  0  0  0  0  0  0  0  0
   10.2100  -17.4707   26.6037 O   0  0  0  0  0  0  0  0  0  0  0  0
   11.3050  -17.0605   24.6519 N   0  0  0  0  0  0  0  0  0  0  0  0
   12.5166  -16.2375   24.5482 C   0  0  0  0  0  0  0  0  0  0  0  0
   13.4255  -16.7153   23.5092 C   0  0  0  0  0  0  0  0  0  0  0  0
   14.5219  -16.1419   23.3186 O   0  0  0  0  0  0  0  0  0  0  0  0
   13.1088  -17.7996   22.7149 O   0  0  0  0  0  0  0  0  0  0  0  0
  2  1  1  0
  3  2  1  0
  4  3  1  0
  5  7  1  0
  5  4  1  0
  5  6  1  1
  7  8  2  0
  9  7  1  0
  9 10  1  0
 10 11  1  1
 11 12  1  0
 12 17  2  0
 13 12  1  0
 13 14  2  0
 14 15  1  0
 15 16  2  0
 17 16  1  0
 18 20  1  0
 18 10  1  0
 19 18  2  0
 21 20  1  0
 22 24  1  0
 22 21  1  0
 23 22  2  0
M  END
$$$$
