MFG.pdb
     RDKit          3D

 24 24  0  0  1  0  0  0  0  0999 V2000
    8.2836  -11.5382   19.7908 C   0  0  0  0  0  0  0  0  0  0  0  0
    7.4042  -12.8634   18.8852 S   0  0  0  0  0  0  0  0  0  0  0  0
    7.7588  -14.4375   19.7234 C   0  0  0  0  0  0  0  0  0  0  0  0
    8.2836  -14.1737   21.1409 C   0  0  0  0  0  0  0  0  0  0  0  0
    8.6000  -15.5254   21.7341 C   0  0  2  0  0  0  0  0  0  0  0  0
    7.3720  -16.2762   21.7469 N   0  0  0  0  0  0  0  0  0  0  0  0
    9.1655  -15.4431   23.0856 C   0  0  0  0  0  0  0  0  0  0  0  0
   10.2406  -14.8316   23.3361 O   0  0  0  0  0  0  0  0  0  0  0  0
    8.5006  -16.0629   24.1641 N   0  0  0  0  0  0  0  0  0  0  0  0
    8.9216  -16.0255   25.5318 C   0  0  1  0  0  0  0  0  0  0  0  0
    7.9078  -15.5649   26.5086 C   0  0  0  0  0  0  0  0  0  0  0  0
    7.3823  -14.2243   26.4002 C   0  0  0  0  0  0  0  0  0  0  0  0
    6.1533  -13.8630   25.9146 C   0  0  0  0  0  0  0  0  0  0  0  0
    5.7170  -12.5569   25.8490 C   0  0  0  0  0  0  0  0  0  0  0  0
    6.5469  -11.5350   26.2918 C   0  0  0  0  0  0  0  0  0  0  0  0
    7.7858  -11.8803   26.7830 C   0  0  0  0  0  0  0  0  0  0  0  0
    8.1960  -13.1851   26.8377 C   0  0  0  0  0  0  0  0  0  0  0  0
    9.7407  -17.1795   25.9802 C   0  0  0  0  0  0  0  0  0  0  0  0
    9.1274  -18.2384   26.2529 O   0  0  0  0  0  0  0  0  0  0  0  0
   11.1416  -17.1875   26.1280 N   0  0  0  0  0  0  0  0  0  0  0  0
   12.0372  -17.5510   25.0227 C   0  0  0  0  0  0  0  0  0  0  0  0
   12.3017  -18.9867   24.9712 C   0  0  0  0  0  0  0  0  0  0  0  0
   13.3922  -19.4419   25.3846 O   0  0  0  0  0  0  0  0  0  0  0  0
   11.3704  -19.8755   24.4716 O   0  0  0  0  0  0  0  0  0  0  0  0
  2  1  1  0
  3  2  1  0
  4  3  1  0
  5  7  1  0
  5  4  1  0
  5  6  1  1
  7  8  2  0
  9  7  1  0
  9 10  1  0
 10 11  1  1
 11 12  1  0
 12 17  2  0
 13 12  1  0
 13 14  2  0
 14 15  1  0
 15 16  2  0
 17 16  1  0
 18 20  1  0
 18 10  1  0
 19 18  2  0
 21 20  1  0
 22 24  1  0
 22 21  1  0
 23 22  2  0
M  END
$$$$
