MFG.pdb
     RDKit          3D

 24 24  0  0  1  0  0  0  0  0999 V2000
   10.3358  -17.8248   18.0599 C   0  0  0  0  0  0  0  0  0  0  0  0
    8.9398  -17.4978   16.9225 S   0  0  0  0  0  0  0  0  0  0  0  0
    7.9831  -16.1096   17.6033 C   0  0  0  0  0  0  0  0  0  0  0  0
    8.8016  -15.3815   18.6776 C   0  0  0  0  0  0  0  0  0  0  0  0
    7.9560  -14.2194   19.1396 C   0  0  2  0  0  0  0  0  0  0  0  0
    8.1599  -13.1508   18.1971 N   0  0  0  0  0  0  0  0  0  0  0  0
    8.2827  -13.7740   20.4991 C   0  0  0  0  0  0  0  0  0  0  0  0
    9.1702  -12.9085   20.7355 O   0  0  0  0  0  0  0  0  0  0  0  0
    7.5923  -14.3189   21.6016 N   0  0  0  0  0  0  0  0  0  0  0  0
    7.8409  -14.0040   22.9758 C   0  0  1  0  0  0  0  0  0  0  0  0
    6.6950  -13.4437   23.7289 C   0  0  0  0  0  0  0  0  0  0  0  0
    6.8547  -13.1378   25.1310 C   0  0  0  0  0  0  0  0  0  0  0  0
    6.4858  -13.9265   26.1888 C   0  0  0  0  0  0  0  0  0  0  0  0
    6.6782  -13.5684   27.5060 C   0  0  0  0  0  0  0  0  0  0  0  0
    7.2748  -12.3501   27.8040 C   0  0  0  0  0  0  0  0  0  0  0  0
    7.6518  -11.5448   26.7530 C   0  0  0  0  0  0  0  0  0  0  0  0
    7.4498  -11.9231   25.4530 C   0  0  0  0  0  0  0  0  0  0  0  0
    8.6519  -14.9981   23.7226 C   0  0  0  0  0  0  0  0  0  0  0  0
    8.9148  -14.7316   24.9192 O   0  0  0  0  0  0  0  0  0  0  0  0
    9.1523  -16.2089   23.2052 N   0  0  0  0  0  0  0  0  0  0  0  0
    9.8439  -17.1889   24.0522 C   0  0  0  0  0  0  0  0  0  0  0  0
   11.2962  -17.0408   24.0008 C   0  0  0  0  0  0  0  0  0  0  0  0
   11.8147  -16.1600   23.2778 O   0  0  0  0  0  0  0  0  0  0  0  0
   12.1321  -17.8563   24.7376 O   0  0  0  0  0  0  0  0  0  0  0  0
  2  1  1  0
  3  2  1  0
  4  3  1  0
  5  7  1  0
  5  4  1  0
  5  6  1  6
  7  8  2  0
  9  7  1  0
  9 10  1  0
 10 11  1  1
 11 12  1  0
 12 17  2  0
 13 12  1  0
 13 14  2  0
 14 15  1  0
 15 16  2  0
 17 16  1  0
 18 20  1  0
 18 10  1  0
 19 18  2  0
 21 20  1  0
 22 24  1  0
 22 21  1  0
 23 22  2  0
M  END
$$$$
