MFG.pdb
     RDKit          3D

 24 24  0  0  1  0  0  0  0  0999 V2000
    8.2055  -20.2827   20.1704 C   0  0  0  0  0  0  0  0  0  0  0  0
    6.9876  -19.3574   19.1654 S   0  0  0  0  0  0  0  0  0  0  0  0
    7.1469  -17.5953   19.5846 C   0  0  0  0  0  0  0  0  0  0  0  0
    7.3952  -17.4315   21.0899 C   0  0  0  0  0  0  0  0  0  0  0  0
    7.4301  -15.9457   21.3545 C   0  0  2  0  0  0  0  0  0  0  0  0
    7.9295  -15.3179   20.1594 N   0  0  0  0  0  0  0  0  0  0  0  0
    8.2611  -15.5857   22.5090 C   0  0  0  0  0  0  0  0  0  0  0  0
    9.3713  -14.9975   22.3900 O   0  0  0  0  0  0  0  0  0  0  0  0
    7.8244  -15.8980   23.8133 N   0  0  0  0  0  0  0  0  0  0  0  0
    8.5796  -15.6970   25.0128 C   0  0  1  0  0  0  0  0  0  0  0  0
    7.8322  -15.1352   26.1616 C   0  0  0  0  0  0  0  0  0  0  0  0
    7.4725  -13.7367   26.1526 C   0  0  0  0  0  0  0  0  0  0  0  0
    8.2151  -12.7031   25.6456 C   0  0  0  0  0  0  0  0  0  0  0  0
    7.8002  -11.3886   25.6666 C   0  0  0  0  0  0  0  0  0  0  0  0
    6.5696  -11.0681   26.2251 C   0  0  0  0  0  0  0  0  0  0  0  0
    5.8101  -12.0948   26.7394 C   0  0  0  0  0  0  0  0  0  0  0  0
    6.2445  -13.3925   26.7065 C   0  0  0  0  0  0  0  0  0  0  0  0
    9.5309  -16.7830   25.3585 C   0  0  0  0  0  0  0  0  0  0  0  0
   10.3555  -16.5449   26.2725 O   0  0  0  0  0  0  0  0  0  0  0  0
    9.5893  -18.0519   24.7497 N   0  0  0  0  0  0  0  0  0  0  0  0
   10.7621  -18.4930   23.9843 C   0  0  0  0  0  0  0  0  0  0  0  0
   11.9692  -18.5559   24.8044 C   0  0  0  0  0  0  0  0  0  0  0  0
   12.7815  -17.6032   24.8044 O   0  0  0  0  0  0  0  0  0  0  0  0
   12.2493  -19.6529   25.5950 O   0  0  0  0  0  0  0  0  0  0  0  0
  2  1  1  0
  3  2  1  0
  4  3  1  0
  5  7  1  0
  5  4  1  0
  5  6  1  6
  7  8  2  0
  9  7  1  0
  9 10  1  0
 10 11  1  1
 11 12  1  0
 12 17  2  0
 13 12  1  0
 13 14  2  0
 14 15  1  0
 15 16  2  0
 17 16  1  0
 18 20  1  0
 18 10  1  0
 19 18  2  0
 21 20  1  0
 22 24  1  0
 22 21  1  0
 23 22  2  0
M  END
$$$$
