MFG.pdb
     RDKit          3D

 24 24  0  0  1  0  0  0  0  0999 V2000
    7.7162  -11.3849   19.5310 C   0  0  0  0  0  0  0  0  0  0  0  0
    7.9009  -12.8161   18.4054 S   0  0  0  0  0  0  0  0  0  0  0  0
    7.7198  -14.3290   19.3975 C   0  0  0  0  0  0  0  0  0  0  0  0
    7.7249  -13.9832   20.8924 C   0  0  0  0  0  0  0  0  0  0  0  0
    8.0698  -15.2594   21.6215 C   0  0  2  0  0  0  0  0  0  0  0  0
    7.0664  -16.2290   21.2683 N   0  0  0  0  0  0  0  0  0  0  0  0
    8.1317  -15.0919   23.0779 C   0  0  0  0  0  0  0  0  0  0  0  0
    7.3973  -14.2753   23.6996 O   0  0  0  0  0  0  0  0  0  0  0  0
    9.0386  -15.8618   23.8355 N   0  0  0  0  0  0  0  0  0  0  0  0
    9.1787  -15.8176   25.2595 C   0  0  1  0  0  0  0  0  0  0  0  0
    7.9214  -15.6745   26.0294 C   0  0  0  0  0  0  0  0  0  0  0  0
    7.3970  -14.3534   26.2839 C   0  0  0  0  0  0  0  0  0  0  0  0
    6.1074  -13.9329   26.0915 C   0  0  0  0  0  0  0  0  0  0  0  0
    5.6778  -12.6520   26.3657 C   0  0  0  0  0  0  0  0  0  0  0  0
    6.5789  -11.7197   26.8636 C   0  0  0  0  0  0  0  0  0  0  0  0
    7.8793  -12.1254   27.0631 C   0  0  0  0  0  0  0  0  0  0  0  0
    8.2813  -13.4035   26.7830 C   0  0  0  0  0  0  0  0  0  0  0  0
   10.1573  -16.7738   25.8354 C   0  0  0  0  0  0  0  0  0  0  0  0
    9.7387  -17.5418   26.7337 O   0  0  0  0  0  0  0  0  0  0  0  0
   11.5110  -16.8913   25.4637 N   0  0  0  0  0  0  0  0  0  0  0  0
   11.9200  -17.5518   24.2178 C   0  0  0  0  0  0  0  0  0  0  0  0
   12.3371  -18.9351   24.4334 C   0  0  0  0  0  0  0  0  0  0  0  0
   13.0390  -19.2343   25.4260 O   0  0  0  0  0  0  0  0  0  0  0  0
   11.9758  -19.9430   23.5613 O   0  0  0  0  0  0  0  0  0  0  0  0
  2  1  1  0
  3  2  1  0
  4  3  1  0
  5  7  1  0
  5  4  1  0
  5  6  1  1
  7  8  2  0
  9  7  1  0
  9 10  1  0
 10 11  1  1
 11 12  1  0
 12 17  2  0
 13 12  1  0
 13 14  2  0
 14 15  1  0
 15 16  2  0
 17 16  1  0
 18 20  1  0
 18 10  1  0
 19 18  2  0
 21 20  1  0
 22 24  1  0
 22 21  1  0
 23 22  2  0
M  END
$$$$
