ELC.pdb
     RDKit          3D

 24 23  0  0  1  0  0  0  0  0999 V2000
   11.0437  -17.5778   16.6761 N   0  0  0  0  0  0  0  0  0  0  0  0
   10.0279  -17.8808   17.6739 C   0  0  1  0  0  0  0  0  0  0  0  0
   10.0687  -19.3194   18.0801 C   0  0  0  0  0  0  0  0  0  0  0  0
    9.8556  -20.1876   16.8742 C   0  0  0  0  0  0  0  0  0  0  0  0
    9.8730  -21.6352   17.1648 C   0  0  0  0  0  0  0  0  0  0  0  0
   10.8344  -22.0943   17.8767 O   0  0  0  0  0  0  0  0  0  0  0  0
   10.2410  -16.9588   18.8185 C   0  0  0  0  0  0  0  0  0  0  0  0
   11.4151  -16.6811   19.1459 O   0  0  0  0  0  0  0  0  0  0  0  0
    8.9522  -22.5547   16.7472 O   0  0  0  0  0  0  0  0  0  0  0  0
    8.6065  -12.6943   19.4539 C   0  0  0  0  0  0  0  0  0  0  0  0
    7.6034  -13.7883   19.8622 C   0  0  2  0  0  0  0  0  0  0  0  0
    6.2637  -13.2230   20.0126 C   0  0  0  0  0  0  0  0  0  0  0  0
    8.1801  -14.7047   20.8356 C   0  0  0  0  0  0  0  0  0  0  0  0
    9.4654  -15.3813   20.6566 C   0  0  2  0  0  0  0  0  0  0  0  0
    9.1916  -16.3781   19.5570 N   0  0  0  0  0  0  0  0  0  0  0  0
    9.8594  -16.2012   21.8012 C   0  0  0  0  0  0  0  0  0  0  0  0
    9.2929  -17.3266   22.0468 O   0  0  0  0  0  0  0  0  0  0  0  0
   10.8838  -15.8697   22.7381 N   0  0  0  0  0  0  0  0  0  0  0  0
   11.1620  -16.6980   23.8732 C   0  0  1  0  0  0  0  0  0  0  0  0
   12.6994  -16.7862   23.9512 C   0  0  0  0  0  0  0  0  0  0  0  0
   13.3854  -17.5288   22.4526 S   0  0  0  0  0  0  0  0  0  0  0  0
   10.6762  -16.1243   25.1295 C   0  0  0  0  0  0  0  0  0  0  0  0
   10.8138  -16.7254   26.3678 O   0  0  0  0  0  0  0  0  0  0  0  0
   10.0740  -14.9946   25.1608 O   0  0  0  0  0  0  0  0  0  0  0  0
  2  1  1  6
  3  2  1  0
  4  3  1  0
  5  4  1  0
  5  6  2  0
  7  8  2  0
  7  2  1  0
  9  5  1  0
 11 10  1  1
 11 12  1  0
 11 13  1  0
 14 13  1  1
 14 15  1  0
 15  7  1  0
 16 14  1  0
 17 16  2  0
 18 16  1  0
 19 20  1  1
 19 18  1  0
 20 21  1  0
 22 19  1  0
 23 22  1  0
 24 22  2  0
M  END
$$$$
