ELC.pdb
     RDKit          3D

 24 23  0  0  1  0  0  0  0  0999 V2000
    8.8034  -15.6690   20.9287 N   0  0  0  0  0  0  0  0  0  0  0  0
    8.2807  -16.4230   22.0590 C   0  0  1  0  0  0  0  0  0  0  0  0
    8.6397  -17.8717   21.9663 C   0  0  0  0  0  0  0  0  0  0  0  0
    8.0162  -18.4656   20.7367 C   0  0  0  0  0  0  0  0  0  0  0  0
    8.3062  -19.9011   20.5488 C   0  0  0  0  0  0  0  0  0  0  0  0
    9.5198  -20.2451   20.3234 O   0  0  0  0  0  0  0  0  0  0  0  0
    8.7989  -15.7851   23.2960 C   0  0  0  0  0  0  0  0  0  0  0  0
   10.0090  -15.4743   23.3409 O   0  0  0  0  0  0  0  0  0  0  0  0
    7.3984  -20.9218   20.5925 O   0  0  0  0  0  0  0  0  0  0  0  0
    8.1146  -11.9047   25.6331 C   0  0  0  0  0  0  0  0  0  0  0  0
    6.9781  -12.9289   25.8045 C   0  0  2  0  0  0  0  0  0  0  0  0
    5.7908  -12.2860   26.3648 C   0  0  0  0  0  0  0  0  0  0  0  0
    7.4798  -14.2062   26.2910 C   0  0  0  0  0  0  0  0  0  0  0  0
    8.5977  -14.9284   25.6822 C   0  0  2  0  0  0  0  0  0  0  0  0
    8.0012  -15.5097   24.4236 N   0  0  0  0  0  0  0  0  0  0  0  0
    9.0300  -16.0938   26.4520 C   0  0  0  0  0  0  0  0  0  0  0  0
    8.2640  -17.1105   26.6169 O   0  0  0  0  0  0  0  0  0  0  0  0
   10.3043  -16.2409   27.0779 N   0  0  0  0  0  0  0  0  0  0  0  0
   10.6395  -17.4089   27.8364 C   0  0  1  0  0  0  0  0  0  0  0  0
   11.9885  -17.8948   27.2690 C   0  0  0  0  0  0  0  0  0  0  0  0
   13.2360  -16.5890   27.3487 S   0  0  0  0  0  0  0  0  0  0  0  0
   10.8213  -17.1294   29.2620 C   0  0  0  0  0  0  0  0  0  0  0  0
   11.1578  -18.0809   30.2081 O   0  0  0  0  0  0  0  0  0  0  0  0
   10.6748  -15.9491   29.7366 O   0  0  0  0  0  0  0  0  0  0  0  0
  2  1  1  6
  3  2  1  0
  4  3  1  0
  5  4  1  0
  5  6  2  0
  7  8  2  0
  7  2  1  0
  9  5  1  0
 11 10  1  1
 11 12  1  0
 11 13  1  0
 14 13  1  1
 14 15  1  0
 15  7  1  0
 16 14  1  0
 17 16  2  0
 18 16  1  0
 19 20  1  6
 19 18  1  0
 20 21  1  0
 22 19  1  0
 23 22  1  0
 24 22  2  0
M  END
$$$$
