ELC.pdb
     RDKit          3D

 24 23  0  0  1  0  0  0  0  0999 V2000
    9.6442  -19.2339   19.3192 N   0  0  0  0  0  0  0  0  0  0  0  0
   10.9811  -18.6665   19.4196 C   0  0  1  0  0  0  0  0  0  0  0  0
   11.6825  -18.6756   18.0989 C   0  0  0  0  0  0  0  0  0  0  0  0
   10.7748  -19.2544   17.0527 C   0  0  0  0  0  0  0  0  0  0  0  0
   11.3674  -19.3000   15.7010 C   0  0  0  0  0  0  0  0  0  0  0  0
   12.2471  -20.1999   15.4599 O   0  0  0  0  0  0  0  0  0  0  0  0
   10.8419  -17.2990   19.9819 C   0  0  0  0  0  0  0  0  0  0  0  0
   11.8702  -16.5974   20.0969 O   0  0  0  0  0  0  0  0  0  0  0  0
   11.0687  -18.4676   14.6589 O   0  0  0  0  0  0  0  0  0  0  0  0
    6.3190  -13.3526   19.9152 C   0  0  0  0  0  0  0  0  0  0  0  0
    7.7638  -13.4843   20.4302 C   0  0  2  0  0  0  0  0  0  0  0  0
    8.5571  -12.3237   20.0294 C   0  0  0  0  0  0  0  0  0  0  0  0
    8.2536  -14.8493   20.3021 C   0  0  0  0  0  0  0  0  0  0  0  0
    9.5168  -15.3192   20.8725 C   0  0  2  0  0  0  0  0  0  0  0  0
    9.6131  -16.7471   20.3933 N   0  0  0  0  0  0  0  0  0  0  0  0
    9.4968  -15.4252   22.3306 C   0  0  0  0  0  0  0  0  0  0  0  0
    9.7673  -14.4188   23.0800 O   0  0  0  0  0  0  0  0  0  0  0  0
    9.1780  -16.6060   23.0662 N   0  0  0  0  0  0  0  0  0  0  0  0
    9.1599  -16.6182   24.4985 C   0  0  1  0  0  0  0  0  0  0  0  0
    7.8249  -17.2846   24.8874 C   0  0  0  0  0  0  0  0  0  0  0  0
    6.4698  -16.0882   24.8655 S   0  0  0  0  0  0  0  0  0  0  0  0
   10.2475  -17.4109   25.0750 C   0  0  0  0  0  0  0  0  0  0  0  0
   11.2587  -18.0018   24.3389 O   0  0  0  0  0  0  0  0  0  0  0  0
   10.3323  -17.6132   26.3366 O   0  0  0  0  0  0  0  0  0  0  0  0
  2  1  1  6
  3  2  1  0
  4  3  1  0
  5  4  1  0
  5  6  2  0
  7  8  2  0
  7  2  1  0
  9  5  1  0
 11 10  1  6
 11 12  1  0
 11 13  1  0
 14 13  1  6
 14 15  1  0
 15  7  1  0
 16 14  1  0
 17 16  2  0
 18 16  1  0
 19 20  1  6
 19 18  1  0
 20 21  1  0
 22 19  1  0
 23 22  1  0
 24 22  2  0
M  END
$$$$
