ELC.pdb
     RDKit          3D

 24 23  0  0  1  0  0  0  0  0999 V2000
    9.2826  -18.5379   19.8245 N   0  0  0  0  0  0  0  0  0  0  0  0
   10.6096  -18.1010   20.2342 C   0  0  1  0  0  0  0  0  0  0  0  0
   11.5152  -17.9185   19.0584 C   0  0  0  0  0  0  0  0  0  0  0  0
   10.6949  -17.7969   17.8071 C   0  0  0  0  0  0  0  0  0  0  0  0
   11.4896  -17.8160   16.5627 C   0  0  0  0  0  0  0  0  0  0  0  0
   12.7659  -17.8654   16.6648 O   0  0  0  0  0  0  0  0  0  0  0  0
   10.4424  -16.8546   21.0242 C   0  0  0  0  0  0  0  0  0  0  0  0
   11.4679  -16.2792   21.4484 O   0  0  0  0  0  0  0  0  0  0  0  0
   10.9967  -17.7878   15.2883 O   0  0  0  0  0  0  0  0  0  0  0  0
    9.0718  -12.9383   19.8078 C   0  0  0  0  0  0  0  0  0  0  0  0
    7.8755  -13.8529   20.1275 C   0  0  2  0  0  0  0  0  0  0  0  0
    6.6546  -13.3297   19.5171 C   0  0  0  0  0  0  0  0  0  0  0  0
    7.9210  -14.3298   21.5024 C   0  0  0  0  0  0  0  0  0  0  0  0
    9.0822  -14.9927   22.0974 C   0  0  2  0  0  0  0  0  0  0  0  0
    9.1900  -16.2831   21.3222 N   0  0  0  0  0  0  0  0  0  0  0  0
    8.8692  -15.4158   23.4806 C   0  0  0  0  0  0  0  0  0  0  0  0
    7.9249  -14.9210   24.1955 O   0  0  0  0  0  0  0  0  0  0  0  0
    9.6448  -16.3951   24.1710 N   0  0  0  0  0  0  0  0  0  0  0  0
    9.4247  -16.6898   25.5554 C   0  0  1  0  0  0  0  0  0  0  0  0
    8.4043  -17.8458   25.5727 C   0  0  0  0  0  0  0  0  0  0  0  0
    8.1985  -18.5071   27.2425 S   0  0  0  0  0  0  0  0  0  0  0  0
   10.6363  -17.1439   26.2406 C   0  0  0  0  0  0  0  0  0  0  0  0
   11.8493  -17.3699   25.6153 O   0  0  0  0  0  0  0  0  0  0  0  0
   10.6482  -17.3677   27.5014 O   0  0  0  0  0  0  0  0  0  0  0  0
  2  1  1  6
  3  2  1  0
  4  3  1  0
  5  4  1  0
  5  6  2  0
  7  8  2  0
  7  2  1  0
  9  5  1  0
 11 10  1  1
 11 12  1  0
 11 13  1  0
 14 13  1  6
 14 15  1  0
 15  7  1  0
 16 14  1  0
 17 16  2  0
 18 16  1  0
 19 20  1  6
 19 18  1  0
 20 21  1  0
 22 19  1  0
 23 22  1  0
 24 22  2  0
M  END
$$$$
