ELC.pdb
     RDKit          3D

 24 23  0  0  1  0  0  0  0  0999 V2000
    8.1016  -14.5573   20.1930 N   0  0  0  0  0  0  0  0  0  0  0  0
    7.4067  -15.2699   21.2554 C   0  0  1  0  0  0  0  0  0  0  0  0
    7.3848  -16.7440   21.0051 C   0  0  0  0  0  0  0  0  0  0  0  0
    6.8393  -17.0120   19.6325 C   0  0  0  0  0  0  0  0  0  0  0  0
    6.6168  -18.4426   19.3425 C   0  0  0  0  0  0  0  0  0  0  0  0
    7.3604  -19.0004   18.4606 O   0  0  0  0  0  0  0  0  0  0  0  0
    8.0730  -14.9186   22.5352 C   0  0  0  0  0  0  0  0  0  0  0  0
    9.3073  -14.7198   22.5264 O   0  0  0  0  0  0  0  0  0  0  0  0
    5.6835  -19.2507   19.9290 O   0  0  0  0  0  0  0  0  0  0  0  0
    7.7973  -11.5431   25.6964 C   0  0  0  0  0  0  0  0  0  0  0  0
    6.6280  -12.5412   25.7764 C   0  0  2  0  0  0  0  0  0  0  0  0
    5.5518  -12.0023   26.6060 C   0  0  0  0  0  0  0  0  0  0  0  0
    7.1038  -13.9113   25.9043 C   0  0  0  0  0  0  0  0  0  0  0  0
    8.1296  -14.5018   25.0436 C   0  0  2  0  0  0  0  0  0  0  0  0
    7.3904  -14.7961   23.7611 N   0  0  0  0  0  0  0  0  0  0  0  0
    8.5968  -15.8090   25.5025 C   0  0  0  0  0  0  0  0  0  0  0  0
    7.7744  -16.7469   25.8051 O   0  0  0  0  0  0  0  0  0  0  0  0
    9.9645  -16.1884   25.6535 N   0  0  0  0  0  0  0  0  0  0  0  0
   10.3368  -17.4872   26.1292 C   0  0  1  0  0  0  0  0  0  0  0  0
   11.6623  -17.8221   25.4160 C   0  0  0  0  0  0  0  0  0  0  0  0
   12.7662  -16.3909   25.3888 S   0  0  0  0  0  0  0  0  0  0  0  0
   10.5783  -17.5172   27.5729 C   0  0  0  0  0  0  0  0  0  0  0  0
   10.4622  -16.4202   28.4075 O   0  0  0  0  0  0  0  0  0  0  0  0
   10.9235  -18.5953   28.1715 O   0  0  0  0  0  0  0  0  0  0  0  0
  2  1  1  6
  3  2  1  0
  4  3  1  0
  5  4  1  0
  5  6  2  0
  7  8  2  0
  7  2  1  0
  9  5  1  0
 11 10  1  1
 11 12  1  0
 11 13  1  0
 14 13  1  1
 14 15  1  0
 15  7  1  0
 16 14  1  0
 17 16  2  0
 18 16  1  0
 19 20  1  6
 19 18  1  0
 20 21  1  0
 22 19  1  0
 23 22  1  0
 24 22  2  0
M  END
$$$$
