ELC.pdb
     RDKit          3D

 24 23  0  0  1  0  0  0  0  0999 V2000
   10.1277  -18.6374   20.0430 N   0  0  0  0  0  0  0  0  0  0  0  0
   11.2550  -17.7445   19.8164 C   0  0  1  0  0  0  0  0  0  0  0  0
   11.4679  -17.4875   18.3587 C   0  0  0  0  0  0  0  0  0  0  0  0
   11.9955  -18.7299   17.7019 C   0  0  0  0  0  0  0  0  0  0  0  0
   12.1807  -18.6062   16.2422 C   0  0  0  0  0  0  0  0  0  0  0  0
   13.3673  -18.4083   15.8011 O   0  0  0  0  0  0  0  0  0  0  0  0
   10.9962  -16.4993   20.5832 C   0  0  0  0  0  0  0  0  0  0  0  0
   11.9419  -15.6993   20.7522 O   0  0  0  0  0  0  0  0  0  0  0  0
   11.2001  -18.6838   15.2934 O   0  0  0  0  0  0  0  0  0  0  0  0
    8.4960  -12.7057   20.1026 C   0  0  0  0  0  0  0  0  0  0  0  0
    7.6699  -13.9491   20.4784 C   0  0  2  0  0  0  0  0  0  0  0  0
    6.2500  -13.7169   20.2196 C   0  0  0  0  0  0  0  0  0  0  0  0
    8.1517  -14.5575   21.7103 C   0  0  0  0  0  0  0  0  0  0  0  0
    9.5504  -14.9151   21.9503 C   0  0  2  0  0  0  0  0  0  0  0  0
    9.7416  -16.1684   21.1314 N   0  0  0  0  0  0  0  0  0  0  0  0
    9.8197  -15.3340   23.3249 C   0  0  0  0  0  0  0  0  0  0  0  0
    9.3653  -14.6747   24.3282 O   0  0  0  0  0  0  0  0  0  0  0  0
   10.5785  -16.4825   23.7023 N   0  0  0  0  0  0  0  0  0  0  0  0
   10.7026  -16.8855   25.0712 C   0  0  1  0  0  0  0  0  0  0  0  0
    9.3027  -17.3851   25.4815 C   0  0  0  0  0  0  0  0  0  0  0  0
    9.3258  -18.0919   27.1452 S   0  0  0  0  0  0  0  0  0  0  0  0
   11.6497  -17.9865   25.2571 C   0  0  0  0  0  0  0  0  0  0  0  0
   12.3882  -18.1959   26.4079 O   0  0  0  0  0  0  0  0  0  0  0  0
   11.8600  -18.8511   24.3362 O   0  0  0  0  0  0  0  0  0  0  0  0
  2  1  1  6
  3  2  1  0
  4  3  1  0
  5  4  1  0
  5  6  2  0
  7  8  2  0
  7  2  1  0
  9  5  1  0
 11 10  1  1
 11 12  1  0
 11 13  1  0
 14 13  1  1
 14 15  1  0
 15  7  1  0
 16 14  1  0
 17 16  2  0
 18 16  1  0
 19 20  1  6
 19 18  1  0
 20 21  1  0
 22 19  1  0
 23 22  1  0
 24 22  2  0
M  END
$$$$
