ELC.pdb
     RDKit          3D

 24 23  0  0  1  0  0  0  0  0999 V2000
   10.2759  -16.1970   20.6071 N   0  0  0  0  0  0  0  0  0  0  0  0
    9.4494  -16.7356   21.6776 C   0  0  1  0  0  0  0  0  0  0  0  0
    9.7992  -18.1578   21.9792 C   0  0  0  0  0  0  0  0  0  0  0  0
    9.2709  -19.0463   20.8908 C   0  0  0  0  0  0  0  0  0  0  0  0
    9.5455  -20.4820   21.1000 C   0  0  0  0  0  0  0  0  0  0  0  0
   10.6389  -20.9596   20.6327 O   0  0  0  0  0  0  0  0  0  0  0  0
    9.6132  -15.8459   22.8554 C   0  0  0  0  0  0  0  0  0  0  0  0
   10.7581  -15.4215   23.1236 O   0  0  0  0  0  0  0  0  0  0  0  0
    8.7408  -21.3720   21.7542 O   0  0  0  0  0  0  0  0  0  0  0  0
    5.6982  -12.6377   26.2330 C   0  0  0  0  0  0  0  0  0  0  0  0
    7.1961  -12.9874   26.1716 C   0  0  2  0  0  0  0  0  0  0  0  0
    8.0090  -11.8035   26.4445 C   0  0  0  0  0  0  0  0  0  0  0  0
    7.4864  -13.9006   25.0755 C   0  0  0  0  0  0  0  0  0  0  0  0
    8.7776  -14.5631   24.8864 C   0  0  2  0  0  0  0  0  0  0  0  0
    8.5481  -15.4523   23.6887 N   0  0  0  0  0  0  0  0  0  0  0  0
    9.1243  -15.4875   25.9648 C   0  0  0  0  0  0  0  0  0  0  0  0
    8.3743  -16.4868   26.2588 O   0  0  0  0  0  0  0  0  0  0  0  0
   10.2930  -15.4010   26.7797 N   0  0  0  0  0  0  0  0  0  0  0  0
   10.5736  -16.3690   27.7976 C   0  0  1  0  0  0  0  0  0  0  0  0
   12.0658  -16.7201   27.6313 C   0  0  0  0  0  0  0  0  0  0  0  0
   12.4550  -17.1078   25.9091 S   0  0  0  0  0  0  0  0  0  0  0  0
   10.3789  -15.8451   29.1509 C   0  0  0  0  0  0  0  0  0  0  0  0
   10.5667  -16.5799   30.3077 O   0  0  0  0  0  0  0  0  0  0  0  0
   10.0104  -14.6356   29.3538 O   0  0  0  0  0  0  0  0  0  0  0  0
  2  1  1  6
  3  2  1  0
  4  3  1  0
  5  4  1  0
  5  6  2  0
  7  8  2  0
  7  2  1  0
  9  5  1  0
 11 10  1  6
 11 12  1  0
 11 13  1  0
 14 13  1  1
 14 15  1  0
 15  7  1  0
 16 14  1  0
 17 16  2  0
 18 16  1  0
 19 20  1  1
 19 18  1  0
 20 21  1  0
 22 19  1  0
 23 22  1  0
 24 22  2  0
M  END
$$$$
