ELC.pdb
     RDKit          3D

 24 23  0  0  1  0  0  0  0  0999 V2000
    9.0451  -16.8822   21.3826 N   0  0  0  0  0  0  0  0  0  0  0  0
    8.3685  -16.9433   22.6701 C   0  0  1  0  0  0  0  0  0  0  0  0
    8.5421  -18.2793   23.3191 C   0  0  0  0  0  0  0  0  0  0  0  0
    9.0476  -19.2667   22.3077 C   0  0  0  0  0  0  0  0  0  0  0  0
    9.2360  -20.6307   22.8408 C   0  0  0  0  0  0  0  0  0  0  0  0
    9.6539  -21.5378   22.0382 O   0  0  0  0  0  0  0  0  0  0  0  0
    8.8963  -15.8322   23.5022 C   0  0  0  0  0  0  0  0  0  0  0  0
   10.0200  -15.3623   23.2206 O   0  0  0  0  0  0  0  0  0  0  0  0
    9.0084  -21.0347   24.1264 O   0  0  0  0  0  0  0  0  0  0  0  0
    7.0029  -11.6754   24.5310 C   0  0  0  0  0  0  0  0  0  0  0  0
    6.4668  -12.8190   25.4112 C   0  0  2  0  0  0  0  0  0  0  0  0
    5.2810  -12.3845   26.1474 C   0  0  0  0  0  0  0  0  0  0  0  0
    7.5501  -13.5612   26.0399 C   0  0  0  0  0  0  0  0  0  0  0  0
    8.7217  -14.0610   25.3191 C   0  0  2  0  0  0  0  0  0  0  0  0
    8.1997  -15.2769   24.5932 N   0  0  0  0  0  0  0  0  0  0  0  0
    9.7694  -14.5824   26.1956 C   0  0  0  0  0  0  0  0  0  0  0  0
   10.7395  -13.8427   26.5949 O   0  0  0  0  0  0  0  0  0  0  0  0
    9.8327  -15.9160   26.7004 N   0  0  0  0  0  0  0  0  0  0  0  0
   10.8227  -16.3120   27.6570 C   0  0  1  0  0  0  0  0  0  0  0  0
   10.3453  -15.7360   29.0054 C   0  0  0  0  0  0  0  0  0  0  0  0
   10.6732  -13.9612   29.1074 S   0  0  0  0  0  0  0  0  0  0  0  0
   10.9299  -17.7654   27.7971 C   0  0  0  0  0  0  0  0  0  0  0  0
   11.7752  -18.4044   28.6864 O   0  0  0  0  0  0  0  0  0  0  0  0
   10.2257  -18.5606   27.0818 O   0  0  0  0  0  0  0  0  0  0  0  0
  2  1  1  6
  3  2  1  0
  4  3  1  0
  5  4  1  0
  5  6  2  0
  7  8  2  0
  7  2  1  0
  9  5  1  0
 11 10  1  1
 11 12  1  0
 11 13  1  0
 14 13  1  1
 14 15  1  0
 15  7  1  0
 16 14  1  0
 17 16  2  0
 18 16  1  0
 19 20  1  1
 19 18  1  0
 20 21  1  0
 22 19  1  0
 23 22  1  0
 24 22  2  0
M  END
$$$$
