ELC.pdb
     RDKit          3D

 24 23  0  0  1  0  0  0  0  0999 V2000
    6.6247  -16.6344   22.2838 N   0  0  0  0  0  0  0  0  0  0  0  0
    7.9951  -16.2377   21.9941 C   0  0  1  0  0  0  0  0  0  0  0  0
    8.0681  -15.3517   20.7916 C   0  0  0  0  0  0  0  0  0  0  0  0
    7.5613  -16.0944   19.5896 C   0  0  0  0  0  0  0  0  0  0  0  0
    8.5435  -16.2046   18.4925 C   0  0  0  0  0  0  0  0  0  0  0  0
    9.3583  -17.1933   18.5117 O   0  0  0  0  0  0  0  0  0  0  0  0
    8.5367  -15.5879   23.2148 C   0  0  0  0  0  0  0  0  0  0  0  0
    9.7294  -15.2135   23.2081 O   0  0  0  0  0  0  0  0  0  0  0  0
    8.6761  -15.3466   17.4370 O   0  0  0  0  0  0  0  0  0  0  0  0
    7.4295  -11.8408   25.1102 C   0  0  0  0  0  0  0  0  0  0  0  0
    6.5006  -12.9638   25.6059 C   0  0  2  0  0  0  0  0  0  0  0  0
    5.2910  -12.4005   26.2030 C   0  0  0  0  0  0  0  0  0  0  0  0
    7.2534  -14.0417   26.2314 C   0  0  0  0  0  0  0  0  0  0  0  0
    8.3878  -14.7172   25.5999 C   0  0  2  0  0  0  0  0  0  0  0  0
    7.7795  -15.3690   24.3821 N   0  0  0  0  0  0  0  0  0  0  0  0
    8.9152  -15.8325   26.3845 C   0  0  0  0  0  0  0  0  0  0  0  0
    9.3090  -15.6734   27.5958 O   0  0  0  0  0  0  0  0  0  0  0  0
    9.0414  -17.1772   25.9229 N   0  0  0  0  0  0  0  0  0  0  0  0
    9.5948  -18.2076   26.7498 C   0  0  1  0  0  0  0  0  0  0  0  0
    8.6138  -19.3925   26.6425 C   0  0  0  0  0  0  0  0  0  0  0  0
    6.9478  -18.9057   27.1476 S   0  0  0  0  0  0  0  0  0  0  0  0
   10.9081  -18.6630   26.2899 C   0  0  0  0  0  0  0  0  0  0  0  0
   11.5707  -18.1517   25.1884 O   0  0  0  0  0  0  0  0  0  0  0  0
   11.5449  -19.5927   26.8980 O   0  0  0  0  0  0  0  0  0  0  0  0
  2  1  1  1
  3  2  1  0
  4  3  1  0
  5  4  1  0
  5  6  2  0
  7  8  2  0
  7  2  1  0
  9  5  1  0
 11 10  1  1
 11 12  1  0
 11 13  1  0
 14 13  1  1
 14 15  1  0
 15  7  1  0
 16 14  1  0
 17 16  2  0
 18 16  1  0
 19 20  1  6
 19 18  1  0
 20 21  1  0
 22 19  1  0
 23 22  1  0
 24 22  2  0
M  END
$$$$
