ELC.pdb
     RDKit          3D

 24 23  0  0  1  0  0  0  0  0999 V2000
    9.9293  -15.8198   20.5159 N   0  0  0  0  0  0  0  0  0  0  0  0
    8.9256  -16.2794   21.4650 C   0  0  1  0  0  0  0  0  0  0  0  0
    9.0520  -17.7454   21.7315 C   0  0  0  0  0  0  0  0  0  0  0  0
    9.1658  -18.4842   20.4297 C   0  0  0  0  0  0  0  0  0  0  0  0
    9.1074  -19.9534   20.5649 C   0  0  0  0  0  0  0  0  0  0  0  0
   10.2106  -20.5880   20.7135 O   0  0  0  0  0  0  0  0  0  0  0  0
    9.0712  -15.4614   22.6959 C   0  0  0  0  0  0  0  0  0  0  0  0
   10.2121  -15.0564   23.0076 O   0  0  0  0  0  0  0  0  0  0  0  0
    7.9777  -20.7224   20.5496 O   0  0  0  0  0  0  0  0  0  0  0  0
    4.9839  -12.9053   26.4334 C   0  0  0  0  0  0  0  0  0  0  0  0
    6.5042  -12.9327   26.1926 C   0  0  2  0  0  0  0  0  0  0  0  0
    7.0856  -11.6155   26.4451 C   0  0  0  0  0  0  0  0  0  0  0  0
    6.8446  -13.7271   25.0209 C   0  0  0  0  0  0  0  0  0  0  0  0
    8.1902  -14.2287   24.7388 C   0  0  2  0  0  0  0  0  0  0  0  0
    7.9929  -15.1152   23.5334 N   0  0  0  0  0  0  0  0  0  0  0  0
    8.7080  -15.1266   25.7700 C   0  0  0  0  0  0  0  0  0  0  0  0
    8.9180  -14.7202   26.9694 O   0  0  0  0  0  0  0  0  0  0  0  0
    9.0197  -16.5064   25.5799 N   0  0  0  0  0  0  0  0  0  0  0  0
    9.5035  -17.3231   26.6526 C   0  0  1  0  0  0  0  0  0  0  0  0
    8.2436  -17.8548   27.3652 C   0  0  0  0  0  0  0  0  0  0  0  0
    7.2804  -18.9248   26.2719 S   0  0  0  0  0  0  0  0  0  0  0  0
   10.2807  -18.4732   26.1869 C   0  0  0  0  0  0  0  0  0  0  0  0
   10.9066  -19.3824   27.0207 O   0  0  0  0  0  0  0  0  0  0  0  0
   10.4344  -18.7161   24.9391 O   0  0  0  0  0  0  0  0  0  0  0  0
  2  1  1  6
  3  2  1  0
  4  3  1  0
  5  4  1  0
  5  6  2  0
  7  8  2  0
  7  2  1  0
  9  5  1  0
 11 10  1  6
 11 12  1  0
 11 13  1  0
 14 13  1  1
 14 15  1  0
 15  7  1  0
 16 14  1  0
 17 16  2  0
 18 16  1  0
 19 20  1  6
 19 18  1  0
 20 21  1  0
 22 19  1  0
 23 22  1  0
 24 22  2  0
M  END
$$$$
