ELC.pdb
     RDKit          3D

 24 23  0  0  1  0  0  0  0  0999 V2000
    9.1925  -15.0094   20.4021 N   0  0  0  0  0  0  0  0  0  0  0  0
    8.2097  -15.5789   21.3127 C   0  0  1  0  0  0  0  0  0  0  0  0
    8.0183  -17.0419   21.0694 C   0  0  0  0  0  0  0  0  0  0  0  0
    9.3414  -17.6749   20.7499 C   0  0  0  0  0  0  0  0  0  0  0  0
    9.2564  -19.1111   20.4178 C   0  0  0  0  0  0  0  0  0  0  0  0
   10.3432  -19.7287   20.1362 O   0  0  0  0  0  0  0  0  0  0  0  0
    8.6636  -15.2854   22.6959 C   0  0  0  0  0  0  0  0  0  0  0  0
    9.8898  -15.1572   22.9033 O   0  0  0  0  0  0  0  0  0  0  0  0
    8.1178  -19.8661   20.3803 O   0  0  0  0  0  0  0  0  0  0  0  0
    7.9833  -11.8776   25.9435 C   0  0  0  0  0  0  0  0  0  0  0  0
    6.7752  -12.8018   25.7067 C   0  0  2  0  0  0  0  0  0  0  0  0
    5.5763  -12.2465   26.3322 C   0  0  0  0  0  0  0  0  0  0  0  0
    7.1444  -14.2047   25.8304 C   0  0  0  0  0  0  0  0  0  0  0  0
    8.3030  -14.8045   25.1673 C   0  0  2  0  0  0  0  0  0  0  0  0
    7.7876  -15.1425   23.7896 N   0  0  0  0  0  0  0  0  0  0  0  0
    8.6994  -16.0928   25.7338 C   0  0  0  0  0  0  0  0  0  0  0  0
    7.8731  -17.0716   25.8171 O   0  0  0  0  0  0  0  0  0  0  0  0
    9.9991  -16.4085   26.2318 N   0  0  0  0  0  0  0  0  0  0  0  0
   10.2941  -17.6865   26.8077 C   0  0  1  0  0  0  0  0  0  0  0  0
   11.6756  -18.0811   26.2478 C   0  0  0  0  0  0  0  0  0  0  0  0
   11.7860  -17.7266   24.4786 S   0  0  0  0  0  0  0  0  0  0  0  0
   10.3917  -17.6442   28.2680 C   0  0  0  0  0  0  0  0  0  0  0  0
   10.6756  -18.7393   29.0641 O   0  0  0  0  0  0  0  0  0  0  0  0
   10.2141  -16.5562   28.9194 O   0  0  0  0  0  0  0  0  0  0  0  0
  2  1  1  6
  3  2  1  0
  4  3  1  0
  5  4  1  0
  5  6  2  0
  7  8  2  0
  7  2  1  0
  9  5  1  0
 11 10  1  1
 11 12  1  0
 11 13  1  0
 14 13  1  1
 14 15  1  0
 15  7  1  0
 16 14  1  0
 17 16  2  0
 18 16  1  0
 19 20  1  6
 19 18  1  0
 20 21  1  0
 22 19  1  0
 23 22  1  0
 24 22  2  0
M  END
$$$$
