PPA.pdb
     RDKit          3D

 20 21  0  0  1  0  0  0  0  0999 V2000
   25.6893  -21.6438  -11.8339 N   0  0  0  0  0  0  0  0  0  0  0  0
   24.4479  -22.3533  -11.9902 C   0  0  0  0  0  0  0  0  0  0  0  0
   23.4084  -21.4277  -11.3920 C   0  0  0  0  0  0  0  0  0  0  0  0
   24.1774  -20.8907  -10.1770 C   0  0  0  0  0  0  0  0  0  0  0  0
   25.5493  -20.6964  -10.7810 C   0  0  1  0  0  0  0  0  0  0  0  0
   26.6128  -20.6996   -9.7690 C   0  0  0  0  0  0  0  0  0  0  0  0
   27.0728  -21.7904   -9.3657 O   0  0  0  0  0  0  0  0  0  0  0  0
   27.1429  -19.4794   -9.2245 N   0  0  0  0  0  0  0  0  0  0  0  0
   26.8600  -18.1813   -9.7884 C   0  0  0  0  0  0  0  0  0  0  0  0
   27.6944  -17.1686   -9.0264 C   0  0  0  0  0  0  0  0  0  0  0  0
   27.9470  -17.8596   -7.7305 C   0  0  0  0  0  0  0  0  0  0  0  0
   27.9983  -19.3115   -8.0983 C   0  0  1  0  0  0  0  0  0  0  0  0
   27.6406  -20.1618   -6.9270 C   0  0  0  0  0  0  0  0  0  0  0  0
   26.4363  -20.3446   -6.6709 O   0  0  0  0  0  0  0  0  0  0  0  0
   29.8103  -21.3387   -4.0342 C   0  0  0  0  0  0  0  0  0  0  0  0
   28.5099  -20.9154   -4.6779 C   0  0  2  0  0  0  0  0  0  0  0  0
   28.6237  -20.7642   -6.1024 N   0  0  0  0  0  0  0  0  0  0  0  0
   27.9262  -19.7157   -4.0298 C   0  0  0  0  0  0  0  0  0  0  0  0
   26.9309  -19.9070   -3.0878 O   0  0  0  0  0  0  0  0  0  0  0  0
   28.2847  -18.5467   -4.2890 O   0  0  0  0  0  0  0  0  0  0  0  0
  2  1  1  0
  3  2  1  0
  4  3  1  0
  4  5  1  0
  5  1  1  0
  5  6  1  1
  7  6  2  0
  8  6  1  0
  8  9  1  0
 10  9  1  0
 11 12  1  0
 11 10  1  0
 12  8  1  0
 12 13  1  1
 13 17  1  0
 14 13  2  0
 16 18  1  0
 16 15  1  1
 17 16  1  0
 18 19  1  0
 20 18  2  0
M  END
$$$$
