PPA.pdb
     RDKit          3D

 20 21  0  0  1  0  0  0  0  0999 V2000
   22.1288  -13.1309  -17.9795 N   0  0  0  0  0  0  0  0  0  0  0  0
   21.5693  -13.1893  -19.3032 C   0  0  0  0  0  0  0  0  0  0  0  0
   22.6811  -12.6905  -20.2033 C   0  0  0  0  0  0  0  0  0  0  0  0
   23.2508  -11.5550  -19.3418 C   0  0  0  0  0  0  0  0  0  0  0  0
   23.1997  -12.1934  -17.9727 C   0  0  1  0  0  0  0  0  0  0  0  0
   23.1767  -11.2003  -16.8918 C   0  0  0  0  0  0  0  0  0  0  0  0
   22.0820  -10.7238  -16.5195 O   0  0  0  0  0  0  0  0  0  0  0  0
   24.3819  -10.7564  -16.2461 N   0  0  0  0  0  0  0  0  0  0  0  0
   25.6497  -11.4275  -16.4058 C   0  0  0  0  0  0  0  0  0  0  0  0
   26.6382  -10.7482  -15.4764 C   0  0  0  0  0  0  0  0  0  0  0  0
   26.0365   -9.3982  -15.2868 C   0  0  0  0  0  0  0  0  0  0  0  0
   24.5607   -9.6439  -15.3752 C   0  0  1  0  0  0  0  0  0  0  0  0
   23.8486   -8.4078  -15.8088 C   0  0  0  0  0  0  0  0  0  0  0  0
   23.8107   -8.1387  -17.0235 O   0  0  0  0  0  0  0  0  0  0  0  0
   21.3988   -6.0044  -14.2859 C   0  0  0  0  0  0  0  0  0  0  0  0
   22.5157   -6.3361  -15.2489 C   0  0  2  0  0  0  0  0  0  0  0  0
   23.2180   -7.5361  -14.8858 N   0  0  0  0  0  0  0  0  0  0  0  0
   23.4329   -5.1902  -15.4621 C   0  0  0  0  0  0  0  0  0  0  0  0
   22.9926   -4.1460  -16.2559 O   0  0  0  0  0  0  0  0  0  0  0  0
   24.5774   -5.1191  -14.9645 O   0  0  0  0  0  0  0  0  0  0  0  0
  2  1  1  0
  3  2  1  0
  4  3  1  0
  4  5  1  0
  5  1  1  0
  5  6  1  1
  7  6  2  0
  8  6  1  0
  8  9  1  0
 10  9  1  0
 11 12  1  0
 11 10  1  0
 12  8  1  0
 12 13  1  6
 13 17  1  0
 14 13  2  0
 16 18  1  0
 16 15  1  1
 17 16  1  0
 18 19  1  0
 20 18  2  0
M  END
$$$$
