PPA.pdb
     RDKit          3D

 20 21  0  0  1  0  0  0  0  0999 V2000
   27.7370  -19.0350   -7.7191 N   0  0  0  0  0  0  0  0  0  0  0  0
   27.4154  -18.8139   -6.3348 C   0  0  0  0  0  0  0  0  0  0  0  0
   26.8600  -20.1416   -5.8616 C   0  0  0  0  0  0  0  0  0  0  0  0
   26.0360  -20.5541   -7.0891 C   0  0  0  0  0  0  0  0  0  0  0  0
   26.9655  -20.1290   -8.2026 C   0  0  1  0  0  0  0  0  0  0  0  0
   26.2575  -19.9052   -9.4690 C   0  0  0  0  0  0  0  0  0  0  0  0
   25.4417  -18.9615   -9.5575 O   0  0  0  0  0  0  0  0  0  0  0  0
   26.4749  -20.7441  -10.6160 N   0  0  0  0  0  0  0  0  0  0  0  0
   27.5011  -21.7580  -10.6625 C   0  0  0  0  0  0  0  0  0  0  0  0
   27.5019  -22.3327  -12.0668 C   0  0  0  0  0  0  0  0  0  0  0  0
   26.1242  -22.0291  -12.5468 C   0  0  0  0  0  0  0  0  0  0  0  0
   25.7746  -20.7459  -11.8560 C   0  0  1  0  0  0  0  0  0  0  0  0
   24.2960  -20.6082  -11.7230 C   0  0  0  0  0  0  0  0  0  0  0  0
   23.7372  -21.1241  -10.7376 O   0  0  0  0  0  0  0  0  0  0  0  0
   21.5585  -18.6866  -13.5103 C   0  0  0  0  0  0  0  0  0  0  0  0
   22.0814  -19.7981  -12.6295 C   0  0  2  0  0  0  0  0  0  0  0  0
   23.5131  -19.9124  -12.6781 N   0  0  0  0  0  0  0  0  0  0  0  0
   21.4047  -21.0910  -12.8945 C   0  0  0  0  0  0  0  0  0  0  0  0
   20.1548  -21.2950  -12.3372 O   0  0  0  0  0  0  0  0  0  0  0  0
   21.9023  -22.0015  -13.5916 O   0  0  0  0  0  0  0  0  0  0  0  0
  2  1  1  0
  3  2  1  0
  4  3  1  0
  4  5  1  0
  5  1  1  0
  5  6  1  6
  7  6  2  0
  8  6  1  0
  8  9  1  0
 10  9  1  0
 11 12  1  0
 11 10  1  0
 12  8  1  0
 12 13  1  1
 13 17  1  0
 14 13  2  0
 16 18  1  0
 16 15  1  6
 17 16  1  0
 18 19  1  0
 20 18  2  0
M  END
$$$$
