PPA.pdb
     RDKit          3D

 20 21  0  0  1  0  0  0  0  0999 V2000
   24.6660  -21.6313  -12.1190 N   0  0  0  0  0  0  0  0  0  0  0  0
   23.6580  -20.6592  -12.4469 C   0  0  0  0  0  0  0  0  0  0  0  0
   24.4414  -19.4234  -12.8395 C   0  0  0  0  0  0  0  0  0  0  0  0
   25.5738  -19.4691  -11.8044 C   0  0  0  0  0  0  0  0  0  0  0  0
   25.8702  -20.9511  -11.7830 C   0  0  1  0  0  0  0  0  0  0  0  0
   26.5205  -21.3746  -10.5369 C   0  0  0  0  0  0  0  0  0  0  0  0
   25.8200  -21.8059   -9.5949 O   0  0  0  0  0  0  0  0  0  0  0  0
   27.9463  -21.3069  -10.3663 N   0  0  0  0  0  0  0  0  0  0  0  0
   28.8638  -21.1918  -11.4745 C   0  0  0  0  0  0  0  0  0  0  0  0
   30.2681  -21.2809  -10.9067 C   0  0  0  0  0  0  0  0  0  0  0  0
   30.0762  -20.8640   -9.4889 C   0  0  0  0  0  0  0  0  0  0  0  0
   28.6949  -21.3401   -9.1553 C   0  0  1  0  0  0  0  0  0  0  0  0
   28.1109  -20.5233   -8.0532 C   0  0  0  0  0  0  0  0  0  0  0  0
   27.5390  -19.4563   -8.3429 O   0  0  0  0  0  0  0  0  0  0  0  0
   27.9534  -20.7850   -4.2575 C   0  0  0  0  0  0  0  0  0  0  0  0
   27.9727  -20.0464   -5.5762 C   0  0  2  0  0  0  0  0  0  0  0  0
   28.1867  -20.9223   -6.6952 N   0  0  0  0  0  0  0  0  0  0  0  0
   28.9187  -18.9042   -5.5670 C   0  0  0  0  0  0  0  0  0  0  0  0
   30.2131  -19.1306   -6.0005 O   0  0  0  0  0  0  0  0  0  0  0  0
   28.6092  -17.7533   -5.1901 O   0  0  0  0  0  0  0  0  0  0  0  0
  2  1  1  0
  3  2  1  0
  4  3  1  0
  4  5  1  0
  5  1  1  0
  5  6  1  1
  7  6  2  0
  8  6  1  0
  8  9  1  0
 10  9  1  0
 11 12  1  0
 11 10  1  0
 12  8  1  0
 12 13  1  1
 13 17  1  0
 14 13  2  0
 16 18  1  0
 16 15  1  1
 17 16  1  0
 18 19  1  0
 20 18  2  0
M  END
$$$$
