PPA.pdb
     RDKit          3D

 20 21  0  0  1  0  0  0  0  0999 V2000
   22.8981  -14.7770  -17.1030 N   0  0  0  0  0  0  0  0  0  0  0  0
   22.3957  -15.2577  -18.3621 C   0  0  0  0  0  0  0  0  0  0  0  0
   23.4269  -14.8050  -19.3754 C   0  0  0  0  0  0  0  0  0  0  0  0
   23.7618  -13.4099  -18.8302 C   0  0  0  0  0  0  0  0  0  0  0  0
   23.7854  -13.6909  -17.3453 C   0  0  1  0  0  0  0  0  0  0  0  0
   23.5562  -12.4833  -16.5426 C   0  0  0  0  0  0  0  0  0  0  0  0
   22.4043  -12.2340  -16.1244 O   0  0  0  0  0  0  0  0  0  0  0  0
   24.6223  -11.5737  -16.2224 N   0  0  0  0  0  0  0  0  0  0  0  0
   26.0165  -11.9170  -16.3695 C   0  0  0  0  0  0  0  0  0  0  0  0
   26.8255  -10.7599  -15.8136 C   0  0  0  0  0  0  0  0  0  0  0  0
   25.8774   -9.6152  -15.9198 C   0  0  0  0  0  0  0  0  0  0  0  0
   24.5299  -10.2420  -15.7263 C   0  0  1  0  0  0  0  0  0  0  0  0
   23.4708   -9.4193  -16.3778 C   0  0  0  0  0  0  0  0  0  0  0  0
   23.3751   -9.4477  -17.6185 O   0  0  0  0  0  0  0  0  0  0  0  0
   20.1687   -8.1412  -15.6272 C   0  0  0  0  0  0  0  0  0  0  0  0
   21.5264   -7.8155  -16.2064 C   0  0  2  0  0  0  0  0  0  0  0  0
   22.5758   -8.6117  -15.6320 N   0  0  0  0  0  0  0  0  0  0  0  0
   21.8275   -6.3643  -16.1518 C   0  0  0  0  0  0  0  0  0  0  0  0
   21.0771   -5.5159  -16.9466 O   0  0  0  0  0  0  0  0  0  0  0  0
   22.7194   -5.8700  -15.4288 O   0  0  0  0  0  0  0  0  0  0  0  0
  2  1  1  0
  3  2  1  0
  4  3  1  0
  4  5  1  0
  5  1  1  0
  5  6  1  1
  7  6  2  0
  8  6  1  0
  8  9  1  0
 10  9  1  0
 11 12  1  0
 11 10  1  0
 12  8  1  0
 12 13  1  6
 13 17  1  0
 14 13  2  0
 16 18  1  0
 16 15  1  1
 17 16  1  0
 18 19  1  0
 20 18  2  0
M  END
$$$$
