DVT.pdb
     RDKit          3D

 23 22  0  0  1  0  0  0  0  0999 V2000
    8.1679  -15.0020   20.6011 N   0  0  0  0  0  0  0  0  0  0  0  0
    7.4510  -15.5594   21.7209 C   0  0  1  0  0  0  0  0  0  0  0  0
    7.4539  -17.0683   21.5510 C   0  0  0  0  0  0  0  0  0  0  0  0
    6.6538  -17.3712   20.3479 C   0  0  0  0  0  0  0  0  0  0  0  0
    7.1757  -17.5105   19.2212 O   0  0  0  0  0  0  0  0  0  0  0  0
    8.0480  -15.1516   23.0137 C   0  0  0  0  0  0  0  0  0  0  0  0
    9.3099  -15.2825   23.1237 O   0  0  0  0  0  0  0  0  0  0  0  0
    5.2797  -17.5089   20.4492 O   0  0  0  0  0  0  0  0  0  0  0  0
    6.6496  -12.1352   25.2794 C   0  0  0  0  0  0  0  0  0  0  0  0
    7.0283  -13.3242   26.1076 C   0  0  2  0  0  0  0  0  0  0  0  0
    7.7250  -12.8587   27.3686 C   0  0  0  0  0  0  0  0  0  0  0  0
    7.9453  -14.2577   25.3096 C   0  0  2  0  0  0  0  0  0  0  0  0
    7.2621  -14.6411   24.0806 N   0  0  0  0  0  0  0  0  0  0  0  0
    8.2757  -15.4148   26.1689 C   0  0  0  0  0  0  0  0  0  0  0  0
    7.3466  -16.1661   26.5645 O   0  0  0  0  0  0  0  0  0  0  0  0
   12.0665  -17.1135   26.1659 C   0  0  0  0  0  0  0  0  0  0  0  0
   10.7474  -17.8424   26.3367 C   0  0  1  0  0  0  0  0  0  0  0  0
   10.9911  -19.0086   27.0549 O   0  0  0  0  0  0  0  0  0  0  0  0
    9.8366  -16.9932   27.2308 C   0  0  2  0  0  0  0  0  0  0  0  0
    9.6198  -15.7106   26.5637 N   0  0  0  0  0  0  0  0  0  0  0  0
   10.4001  -16.7601   28.5527 C   0  0  0  0  0  0  0  0  0  0  0  0
   10.7159  -15.5971   28.9458 O   0  0  0  0  0  0  0  0  0  0  0  0
   10.6337  -17.7736   29.4720 O   0  0  0  0  0  0  0  0  0  0  0  0
  2  1  1  6
  2  3  1  0
  3  4  1  0
  4  8  1  0
  5  4  2  0
  6  2  1  0
  6 13  1  0
  7  6  2  0
 10  9  1  6
 10 12  1  0
 11 10  1  0
 12 13  1  6
 12 14  1  0
 14 15  2  0
 17 16  1  1
 17 19  1  0
 17 18  1  0
 19 21  1  0
 20 14  1  0
 19 20  1  6
 21 23  1  0
 22 21  2  0
M  END
$$$$
