DVT.pdb
     RDKit          3D

 23 22  0  0  1  0  0  0  0  0999 V2000
    7.9507  -14.5768   20.1068 N   0  0  0  0  0  0  0  0  0  0  0  0
    7.3211  -15.2529   21.2137 C   0  0  1  0  0  0  0  0  0  0  0  0
    7.3952  -16.7431   20.9318 C   0  0  0  0  0  0  0  0  0  0  0  0
    6.5230  -17.0092   19.7708 C   0  0  0  0  0  0  0  0  0  0  0  0
    6.9800  -17.3758   18.6672 O   0  0  0  0  0  0  0  0  0  0  0  0
    7.9596  -14.9062   22.5045 C   0  0  0  0  0  0  0  0  0  0  0  0
    9.2317  -14.8484   22.5122 O   0  0  0  0  0  0  0  0  0  0  0  0
    5.1521  -16.8531   19.8872 O   0  0  0  0  0  0  0  0  0  0  0  0
    6.5081  -12.2645   25.0303 C   0  0  0  0  0  0  0  0  0  0  0  0
    7.0039  -13.4596   25.7845 C   0  0  2  0  0  0  0  0  0  0  0  0
    7.7484  -13.0020   27.0208 C   0  0  0  0  0  0  0  0  0  0  0  0
    7.9224  -14.3056   24.8959 C   0  0  2  0  0  0  0  0  0  0  0  0
    7.2010  -14.6509   23.6775 N   0  0  0  0  0  0  0  0  0  0  0  0
    8.3401  -15.4924   25.6728 C   0  0  0  0  0  0  0  0  0  0  0  0
    7.4632  -16.1730   26.2661 O   0  0  0  0  0  0  0  0  0  0  0  0
   10.4568  -18.3238   24.3901 C   0  0  0  0  0  0  0  0  0  0  0  0
   11.0404  -17.9192   25.7304 C   0  0  1  0  0  0  0  0  0  0  0  0
   12.0734  -17.0179   25.4944 O   0  0  0  0  0  0  0  0  0  0  0  0
    9.9773  -17.1308   26.5039 C   0  0  2  0  0  0  0  0  0  0  0  0
    9.7107  -15.8950   25.7699 N   0  0  0  0  0  0  0  0  0  0  0  0
   10.3907  -16.8059   27.8614 C   0  0  0  0  0  0  0  0  0  0  0  0
   10.6134  -15.6110   28.2210 O   0  0  0  0  0  0  0  0  0  0  0  0
   10.5721  -17.7604   28.8528 O   0  0  0  0  0  0  0  0  0  0  0  0
  2  1  1  6
  2  3  1  0
  3  4  1  0
  4  8  1  0
  5  4  2  0
  6  2  1  0
  6 13  1  0
  7  6  2  0
 10  9  1  6
 10 12  1  0
 11 10  1  0
 12 13  1  6
 12 14  1  0
 14 15  2  0
 17 16  1  6
 17 19  1  0
 17 18  1  0
 19 21  1  0
 20 14  1  0
 19 20  1  6
 21 23  1  0
 22 21  2  0
M  END
$$$$
