DVT.pdb
     RDKit          3D

 23 22  0  0  1  0  0  0  0  0999 V2000
   10.6811  -17.1185   16.5103 N   0  0  0  0  0  0  0  0  0  0  0  0
    9.7370  -17.4600   17.5450 C   0  0  1  0  0  0  0  0  0  0  0  0
   10.0009  -18.9032   17.9366 C   0  0  0  0  0  0  0  0  0  0  0  0
    9.5043  -19.7499   16.8339 C   0  0  0  0  0  0  0  0  0  0  0  0
   10.2629  -20.1994   15.9486 O   0  0  0  0  0  0  0  0  0  0  0  0
    9.8417  -16.5481   18.7075 C   0  0  0  0  0  0  0  0  0  0  0  0
   11.0134  -16.3333   19.1579 O   0  0  0  0  0  0  0  0  0  0  0  0
    8.1586  -20.0676   16.7596 O   0  0  0  0  0  0  0  0  0  0  0  0
    7.4163  -13.3845   19.4001 C   0  0  0  0  0  0  0  0  0  0  0  0
    7.6625  -14.1992   20.6323 C   0  0  2  0  0  0  0  0  0  0  0  0
    7.8414  -13.2764   21.8192 C   0  0  0  0  0  0  0  0  0  0  0  0
    8.9068  -15.0755   20.4505 C   0  0  2  0  0  0  0  0  0  0  0  0
    8.7009  -15.9410   19.2960 N   0  0  0  0  0  0  0  0  0  0  0  0
    9.1191  -15.8300   21.7043 C   0  0  0  0  0  0  0  0  0  0  0  0
    8.1761  -16.5242   22.1659 O   0  0  0  0  0  0  0  0  0  0  0  0
   12.0440  -18.0877   22.3474 C   0  0  0  0  0  0  0  0  0  0  0  0
   11.8653  -17.2713   23.6132 C   0  0  1  0  0  0  0  0  0  0  0  0
   12.7495  -16.1986   23.5606 O   0  0  0  0  0  0  0  0  0  0  0  0
   10.4644  -16.6491   23.5950 C   0  0  2  0  0  0  0  0  0  0  0  0
   10.3647  -15.7993   22.4097 N   0  0  0  0  0  0  0  0  0  0  0  0
   10.1829  -15.8555   24.7825 C   0  0  0  0  0  0  0  0  0  0  0  0
   10.0941  -16.3848   25.9309 O   0  0  0  0  0  0  0  0  0  0  0  0
    9.9914  -14.4809   24.7538 O   0  0  0  0  0  0  0  0  0  0  0  0
  2  1  1  6
  2  3  1  0
  3  4  1  0
  4  8  1  0
  5  4  2  0
  6  2  1  0
  6 13  1  0
  7  6  2  0
 10  9  1  6
 10 12  1  0
 11 10  1  0
 12 13  1  6
 12 14  1  0
 14 15  2  0
 17 16  1  6
 17 19  1  0
 17 18  1  0
 19 21  1  0
 20 14  1  0
 19 20  1  6
 21 23  1  0
 22 21  2  0
M  END
$$$$
