DVT.pdb
     RDKit          3D

 23 22  0  0  1  0  0  0  0  0999 V2000
    9.3067  -15.2690   20.9249 N   0  0  0  0  0  0  0  0  0  0  0  0
    8.5126  -15.8261   21.9915 C   0  0  1  0  0  0  0  0  0  0  0  0
    8.7487  -17.3261   21.9922 C   0  0  0  0  0  0  0  0  0  0  0  0
    8.4151  -17.8186   20.6410 C   0  0  0  0  0  0  0  0  0  0  0  0
    7.4694  -17.3443   19.9762 O   0  0  0  0  0  0  0  0  0  0  0  0
    8.8457  -15.2177   23.3003 C   0  0  0  0  0  0  0  0  0  0  0  0
   10.0831  -15.0531   23.5523 O   0  0  0  0  0  0  0  0  0  0  0  0
    9.1611  -18.8381   20.0741 O   0  0  0  0  0  0  0  0  0  0  0  0
    6.7744  -12.3208   25.0996 C   0  0  0  0  0  0  0  0  0  0  0  0
    7.1337  -13.4087   26.0641 C   0  0  2  0  0  0  0  0  0  0  0  0
    7.5426  -12.7951   27.3864 C   0  0  0  0  0  0  0  0  0  0  0  0
    8.2751  -14.2628   25.5010 C   0  0  2  0  0  0  0  0  0  0  0  0
    7.8444  -14.8355   24.2318 N   0  0  0  0  0  0  0  0  0  0  0  0
    8.6152  -15.2895   26.5093 C   0  0  0  0  0  0  0  0  0  0  0  0
    7.7281  -16.1047   26.8734 O   0  0  0  0  0  0  0  0  0  0  0  0
   10.6030  -18.1023   26.3321 C   0  0  0  0  0  0  0  0  0  0  0  0
   11.1679  -17.4115   27.5586 C   0  0  1  0  0  0  0  0  0  0  0  0
   12.2396  -16.6232   27.1520 O   0  0  0  0  0  0  0  0  0  0  0  0
   10.1163  -16.4310   28.0902 C   0  0  2  0  0  0  0  0  0  0  0  0
    9.9230  -15.3888   27.0835 N   0  0  0  0  0  0  0  0  0  0  0  0
   10.5027  -15.8169   29.3522 C   0  0  0  0  0  0  0  0  0  0  0  0
   10.6621  -14.5641   29.4613 O   0  0  0  0  0  0  0  0  0  0  0  0
   10.7248  -16.5400   30.5162 O   0  0  0  0  0  0  0  0  0  0  0  0
  2  1  1  6
  2  3  1  0
  3  4  1  0
  4  8  1  0
  5  4  2  0
  6  2  1  0
  6 13  1  0
  7  6  2  0
 10  9  1  6
 10 12  1  0
 11 10  1  0
 12 13  1  6
 12 14  1  0
 14 15  2  0
 17 16  1  6
 17 19  1  0
 17 18  1  0
 19 21  1  0
 20 14  1  0
 19 20  1  6
 21 23  1  0
 22 21  2  0
M  END
$$$$
