DVT.pdb
     RDKit          3D

 23 22  0  0  1  0  0  0  0  0999 V2000
    9.1523  -17.2774   15.9087 N   0  0  0  0  0  0  0  0  0  0  0  0
    8.2070  -17.2699   16.9972 C   0  0  1  0  0  0  0  0  0  0  0  0
    7.8855  -18.7175   17.3241 C   0  0  0  0  0  0  0  0  0  0  0  0
    6.6516  -19.0642   16.5914 C   0  0  0  0  0  0  0  0  0  0  0  0
    6.4292  -18.6519   15.4330 O   0  0  0  0  0  0  0  0  0  0  0  0
    8.7329  -16.5448   18.1769 C   0  0  0  0  0  0  0  0  0  0  0  0
    9.9771  -16.6740   18.4156 O   0  0  0  0  0  0  0  0  0  0  0  0
    5.6973  -19.8703   17.1888 O   0  0  0  0  0  0  0  0  0  0  0  0
    7.1877  -13.0149   19.4001 C   0  0  0  0  0  0  0  0  0  0  0  0
    7.5600  -13.9018   20.5480 C   0  0  2  0  0  0  0  0  0  0  0  0
    8.1943  -13.0699   21.6424 C   0  0  0  0  0  0  0  0  0  0  0  0
    8.5298  -14.9939   20.0833 C   0  0  2  0  0  0  0  0  0  0  0  0
    7.9007  -15.7457   19.0047 N   0  0  0  0  0  0  0  0  0  0  0  0
    8.8619  -15.8352   21.2531 C   0  0  0  0  0  0  0  0  0  0  0  0
    7.9329  -16.4245   21.8645 O   0  0  0  0  0  0  0  0  0  0  0  0
   10.9194  -18.7394   21.1499 C   0  0  0  0  0  0  0  0  0  0  0  0
   11.4696  -17.9744   22.3385 C   0  0  1  0  0  0  0  0  0  0  0  0
   12.5466  -17.2123   21.8973 O   0  0  0  0  0  0  0  0  0  0  0  0
   10.4121  -16.9633   22.7958 C   0  0  2  0  0  0  0  0  0  0  0  0
   10.2077  -16.0041   21.7117 N   0  0  0  0  0  0  0  0  0  0  0  0
   10.7976  -16.2498   24.0047 C   0  0  0  0  0  0  0  0  0  0  0  0
   11.0701  -15.0119   23.9885 O   0  0  0  0  0  0  0  0  0  0  0  0
   10.8972  -16.8560   25.2495 O   0  0  0  0  0  0  0  0  0  0  0  0
  2  1  1  6
  2  3  1  0
  3  4  1  0
  4  8  1  0
  5  4  2  0
  6  2  1  0
  6 13  1  0
  7  6  2  0
 10  9  1  6
 10 12  1  0
 11 10  1  0
 12 13  1  6
 12 14  1  0
 14 15  2  0
 17 16  1  6
 17 19  1  0
 17 18  1  0
 19 21  1  0
 20 14  1  0
 19 20  1  6
 21 23  1  0
 22 21  2  0
M  END
$$$$
