DVT.pdb
     RDKit          3D

 23 22  0  0  1  0  0  0  0  0999 V2000
    7.8810  -17.3604   17.3029 N   0  0  0  0  0  0  0  0  0  0  0  0
    9.3106  -17.2571   17.4585 C   0  0  1  0  0  0  0  0  0  0  0  0
    9.8736  -16.7736   16.1337 C   0  0  0  0  0  0  0  0  0  0  0  0
    9.6455  -17.8480   15.1472 C   0  0  0  0  0  0  0  0  0  0  0  0
    8.7796  -17.7539   14.2513 O   0  0  0  0  0  0  0  0  0  0  0  0
    9.6783  -16.3539   18.5733 C   0  0  0  0  0  0  0  0  0  0  0  0
   10.9233  -16.1773   18.7750 O   0  0  0  0  0  0  0  0  0  0  0  0
   10.4043  -19.0051   15.1988 O   0  0  0  0  0  0  0  0  0  0  0  0
    6.8067  -14.3717   21.0892 C   0  0  0  0  0  0  0  0  0  0  0  0
    8.1593  -13.8067   20.7826 C   0  0  2  0  0  0  0  0  0  0  0  0
    8.0655  -12.9037   19.5710 C   0  0  0  0  0  0  0  0  0  0  0  0
    9.1616  -14.9372   20.5244 C   0  0  2  0  0  0  0  0  0  0  0  0
    8.7008  -15.7144   19.3808 N   0  0  0  0  0  0  0  0  0  0  0  0
    9.2688  -15.7413   21.7607 C   0  0  0  0  0  0  0  0  0  0  0  0
    8.2622  -16.3818   22.1613 O   0  0  0  0  0  0  0  0  0  0  0  0
   11.3544  -18.5305   22.3173 C   0  0  0  0  0  0  0  0  0  0  0  0
   11.6036  -17.6951   23.5585 C   0  0  1  0  0  0  0  0  0  0  0  0
   12.7511  -16.9386   23.3436 O   0  0  0  0  0  0  0  0  0  0  0  0
   10.4633  -16.6799   23.6966 C   0  0  2  0  0  0  0  0  0  0  0  0
   10.4827  -15.8179   22.5160 N   0  0  0  0  0  0  0  0  0  0  0  0
   10.5780  -15.8604   24.8942 C   0  0  0  0  0  0  0  0  0  0  0  0
   10.7841  -14.6114   24.8285 O   0  0  0  0  0  0  0  0  0  0  0  0
   10.4739  -16.3708   26.1809 O   0  0  0  0  0  0  0  0  0  0  0  0
  2  1  1  6
  2  3  1  0
  3  4  1  0
  4  8  1  0
  5  4  2  0
  6  2  1  0
  6 13  1  0
  7  6  2  0
 10  9  1  6
 10 12  1  0
 11 10  1  0
 12 13  1  6
 12 14  1  0
 14 15  2  0
 17 16  1  6
 17 19  1  0
 17 18  1  0
 19 21  1  0
 20 14  1  0
 19 20  1  6
 21 23  1  0
 22 21  2  0
M  END
$$$$
