DVT.pdb
     RDKit          3D

 23 22  0  0  1  0  0  0  0  0999 V2000
    9.5377  -17.4356   16.3847 N   0  0  0  0  0  0  0  0  0  0  0  0
    8.6753  -17.6268   17.5240 C   0  0  1  0  0  0  0  0  0  0  0  0
    8.7388  -19.0980   17.8947 C   0  0  0  0  0  0  0  0  0  0  0  0
    8.0248  -19.8428   16.8388 C   0  0  0  0  0  0  0  0  0  0  0  0
    7.1759  -19.2988   16.1007 O   0  0  0  0  0  0  0  0  0  0  0  0
    9.0631  -16.7577   18.6591 C   0  0  0  0  0  0  0  0  0  0  0  0
   10.2639  -16.8615   19.0702 O   0  0  0  0  0  0  0  0  0  0  0  0
    8.2889  -21.1880   16.6438 O   0  0  0  0  0  0  0  0  0  0  0  0
    7.4851  -13.0539   19.2530 C   0  0  0  0  0  0  0  0  0  0  0  0
    7.6490  -13.8362   20.5195 C   0  0  2  0  0  0  0  0  0  0  0  0
    8.1231  -12.9146   21.6233 C   0  0  0  0  0  0  0  0  0  0  0  0
    8.6524  -14.9765   20.3141 C   0  0  2  0  0  0  0  0  0  0  0  0
    8.1504  -15.8537   19.2640 N   0  0  0  0  0  0  0  0  0  0  0  0
    8.8248  -15.6696   21.6089 C   0  0  0  0  0  0  0  0  0  0  0  0
    7.8204  -16.1892   22.1614 O   0  0  0  0  0  0  0  0  0  0  0  0
   10.5787  -18.6153   22.3631 C   0  0  0  0  0  0  0  0  0  0  0  0
   11.1147  -17.6478   23.4010 C   0  0  1  0  0  0  0  0  0  0  0  0
   12.2872  -17.0893   22.9024 O   0  0  0  0  0  0  0  0  0  0  0  0
   10.1285  -16.4815   23.5316 C   0  0  2  0  0  0  0  0  0  0  0  0
   10.0990  -15.7718   22.2539 N   0  0  0  0  0  0  0  0  0  0  0  0
   10.4897  -15.5516   24.5917 C   0  0  0  0  0  0  0  0  0  0  0  0
   10.8868  -14.3749   24.3379 O   0  0  0  0  0  0  0  0  0  0  0  0
   10.4307  -15.8725   25.9410 O   0  0  0  0  0  0  0  0  0  0  0  0
  2  1  1  6
  2  3  1  0
  3  4  1  0
  4  8  1  0
  5  4  2  0
  6  2  1  0
  6 13  1  0
  7  6  2  0
 10  9  1  6
 10 12  1  0
 11 10  1  0
 12 13  1  6
 12 14  1  0
 14 15  2  0
 17 16  1  6
 17 19  1  0
 17 18  1  0
 19 21  1  0
 20 14  1  0
 19 20  1  6
 21 23  1  0
 22 21  2  0
M  END
$$$$
