DVT.pdb
     RDKit          3D

 23 22  0  0  1  0  0  0  0  0999 V2000
    8.5276  -17.6770   16.3701 N   0  0  0  0  0  0  0  0  0  0  0  0
    7.7361  -17.5398   17.5672 C   0  0  1  0  0  0  0  0  0  0  0  0
    7.4673  -18.9392   18.0919 C   0  0  0  0  0  0  0  0  0  0  0  0
    6.5810  -19.6054   17.1172 C   0  0  0  0  0  0  0  0  0  0  0  0
    6.3503  -20.8327   17.1602 O   0  0  0  0  0  0  0  0  0  0  0  0
    8.4116  -16.6948   18.5790 C   0  0  0  0  0  0  0  0  0  0  0  0
    9.6803  -16.7861   18.6406 O   0  0  0  0  0  0  0  0  0  0  0  0
    5.9764  -18.8651   16.1154 O   0  0  0  0  0  0  0  0  0  0  0  0
    7.3350  -12.9402   19.6830 C   0  0  0  0  0  0  0  0  0  0  0  0
    7.5911  -13.8482   20.8461 C   0  0  2  0  0  0  0  0  0  0  0  0
    8.2923  -13.0760   21.9435 C   0  0  0  0  0  0  0  0  0  0  0  0
    8.4463  -15.0430   20.4096 C   0  0  2  0  0  0  0  0  0  0  0  0
    7.6905  -15.8259   19.4401 N   0  0  0  0  0  0  0  0  0  0  0  0
    8.8018  -15.8144   21.6200 C   0  0  0  0  0  0  0  0  0  0  0  0
    7.8826  -16.2090   22.3840 O   0  0  0  0  0  0  0  0  0  0  0  0
   10.1413  -19.0297   22.2214 C   0  0  0  0  0  0  0  0  0  0  0  0
   11.0933  -18.1179   22.9716 C   0  0  1  0  0  0  0  0  0  0  0  0
   12.1518  -17.8105   22.1228 O   0  0  0  0  0  0  0  0  0  0  0  0
   10.3812  -16.7866   23.2373 C   0  0  2  0  0  0  0  0  0  0  0  0
   10.1587  -16.1304   21.9501 N   0  0  0  0  0  0  0  0  0  0  0  0
   11.1440  -15.9007   24.1048 C   0  0  0  0  0  0  0  0  0  0  0  0
   11.6821  -14.8404   23.6655 O   0  0  0  0  0  0  0  0  0  0  0  0
   11.3410  -16.1414   25.4577 O   0  0  0  0  0  0  0  0  0  0  0  0
  2  1  1  6
  2  3  1  0
  3  4  1  0
  4  8  1  0
  5  4  2  0
  6  2  1  0
  6 13  1  0
  7  6  2  0
 10  9  1  6
 10 12  1  0
 11 10  1  0
 12 13  1  6
 12 14  1  0
 14 15  2  0
 17 16  1  6
 17 19  1  0
 17 18  1  0
 19 21  1  0
 20 14  1  0
 19 20  1  6
 21 23  1  0
 22 21  2  0
M  END
$$$$
