QWY.pdb
     RDKit          3D

 36 38  0  0  1  0  0  0  0  0999 V2000
    8.2411  -23.1062   22.7972 N   0  0  0  0  0  0  0  0  0  0  0  0
    9.3629  -23.0086   21.9460 C   0  0  0  0  0  0  0  0  0  0  0  0
    9.9395  -24.0313   21.5312 O   0  0  0  0  0  0  0  0  0  0  0  0
    9.8527  -21.6756   21.5472 C   0  0  0  0  0  0  0  0  0  0  0  0
    9.0814  -20.5608   22.1946 C   0  0  0  0  0  0  0  0  0  0  0  0
    8.5026  -19.6719   21.1166 C   0  0  2  0  0  0  0  0  0  0  0  0
    9.1500  -19.9935   19.8497 N   0  0  0  0  0  0  0  0  0  0  0  0
    8.7695  -18.2348   21.3880 C   0  0  0  0  0  0  0  0  0  0  0  0
    9.8515  -17.6658   21.0160 O   0  0  0  0  0  0  0  0  0  0  0  0
    7.8326  -17.4143   22.0779 N   0  0  0  0  0  0  0  0  0  0  0  0
    8.1141  -16.0813   22.5473 C   0  0  1  0  0  0  0  0  0  0  0  0
    6.9430  -15.1822   22.4854 C   0  0  0  0  0  0  0  0  0  0  0  0
    7.0926  -13.8159   22.9470 C   0  0  0  0  0  0  0  0  0  0  0  0
    7.6856  -12.7379   22.2991 C   0  0  0  0  0  0  0  0  0  0  0  0
    7.6195  -11.6601   23.0989 N   0  0  0  0  0  0  0  0  0  0  0  0
    7.0071  -11.9971   24.2384 C   0  0  0  0  0  0  0  0  0  0  0  0
    6.7010  -11.2352   25.3575 C   0  0  0  0  0  0  0  0  0  0  0  0
    6.0526  -11.7761   26.4347 C   0  0  0  0  0  0  0  0  0  0  0  0
    5.7038  -13.0993   26.3940 C   0  0  0  0  0  0  0  0  0  0  0  0
    6.0155  -13.8423   25.2747 C   0  0  0  0  0  0  0  0  0  0  0  0
    6.6674  -13.3431   24.1662 C   0  0  0  0  0  0  0  0  0  0  0  0
    8.8330  -16.0825   23.8404 C   0  0  0  0  0  0  0  0  0  0  0  0
    8.1651  -16.1971   24.8974 O   0  0  0  0  0  0  0  0  0  0  0  0
   12.4137  -16.7665   31.4531 O   0  0  0  0  0  0  0  0  0  0  0  0
   11.8744  -16.7116   30.1729 C   0  0  0  0  0  0  0  0  0  0  0  0
   11.5658  -15.5161   29.5487 C   0  0  0  0  0  0  0  0  0  0  0  0
   11.0282  -15.4682   28.2719 C   0  0  0  0  0  0  0  0  0  0  0  0
   10.7854  -16.6291   27.5857 C   0  0  0  0  0  0  0  0  0  0  0  0
   10.2167  -16.6847   26.2314 C   0  0  0  0  0  0  0  0  0  0  0  0
   10.9099  -15.7788   25.2435 C   0  0  2  0  0  0  0  0  0  0  0  0
   10.2392  -15.9628   23.9713 N   0  0  0  0  0  0  0  0  0  0  0  0
   12.3553  -15.9805   25.1477 C   0  0  0  0  0  0  0  0  0  0  0  0
   13.2010  -15.2460   25.9648 O   0  0  0  0  0  0  0  0  0  0  0  0
   11.0950  -17.8366   28.2115 C   0  0  0  0  0  0  0  0  0  0  0  0
   11.6284  -17.8857   29.4780 C   0  0  0  0  0  0  0  0  0  0  0  0
   12.8782  -16.7967   24.3516 O   0  0  0  0  0  0  0  0  0  0  0  0
  2  1  1  0
  3  2  2  0
  4  2  1  0
  5  4  1  0
  6  5  1  0
  6  7  1  6
  8  6  1  0
  8  9  2  0
 10  8  1  0
 11 10  1  0
 11 12  1  1
 12 13  1  0
 13 14  2  0
 13 21  1  0
 14 15  1  0
 15 16  1  0
 16 17  2  0
 17 18  1  0
 19 18  2  0
 20 19  1  0
 21 20  2  0
 21 16  1  0
 22 11  1  0
 23 22  2  0
 25 24  1  0
 25 35  2  0
 26 25  1  0
 27 26  2  0
 27 28  1  0
 28 34  2  0
 29 28  1  0
 30 29  1  1
 30 31  1  0
 31 22  1  0
 32 33  1  0
 32 30  1  0
 34 35  1  0
 36 32  2  0
M  END
$$$$
