QWY.pdb
     RDKit          3D

 36 38  0  0  1  0  0  0  0  0999 V2000
    9.9709  -16.9412   15.0216 N   0  0  0  0  0  0  0  0  0  0  0  0
    9.9376  -18.2443   15.5630 C   0  0  0  0  0  0  0  0  0  0  0  0
    9.0842  -19.0694   15.1870 O   0  0  0  0  0  0  0  0  0  0  0  0
   10.9289  -18.6266   16.5862 C   0  0  0  0  0  0  0  0  0  0  0  0
   11.0467  -17.6074   17.6836 C   0  0  0  0  0  0  0  0  0  0  0  0
   10.5345  -18.2105   18.9725 C   0  0  2  0  0  0  0  0  0  0  0  0
    9.1832  -18.7118   18.7480 N   0  0  0  0  0  0  0  0  0  0  0  0
   10.4469  -17.1965   20.0563 C   0  0  0  0  0  0  0  0  0  0  0  0
   11.4709  -16.5468   20.4590 O   0  0  0  0  0  0  0  0  0  0  0  0
    9.2158  -16.8946   20.7044 N   0  0  0  0  0  0  0  0  0  0  0  0
    9.0751  -15.9358   21.7709 C   0  0  1  0  0  0  0  0  0  0  0  0
    7.7840  -15.2177   21.7425 C   0  0  0  0  0  0  0  0  0  0  0  0
    7.6603  -13.9835   22.4933 C   0  0  0  0  0  0  0  0  0  0  0  0
    7.9406  -12.6841   22.0851 C   0  0  0  0  0  0  0  0  0  0  0  0
    7.7002  -11.8458   23.1075 N   0  0  0  0  0  0  0  0  0  0  0  0
    7.2751  -12.5505   24.1610 C   0  0  0  0  0  0  0  0  0  0  0  0
    6.8988  -12.1359   25.4311 C   0  0  0  0  0  0  0  0  0  0  0  0
    6.4795  -13.0293   26.3793 C   0  0  0  0  0  0  0  0  0  0  0  0
    6.4347  -14.3584   26.0544 C   0  0  0  0  0  0  0  0  0  0  0  0
    6.8121  -14.7537   24.7881 C   0  0  0  0  0  0  0  0  0  0  0  0
    7.2417  -13.8924   23.7999 C   0  0  0  0  0  0  0  0  0  0  0  0
    9.4461  -16.5023   23.0864 C   0  0  0  0  0  0  0  0  0  0  0  0
    8.8875  -17.5624   23.4615 O   0  0  0  0  0  0  0  0  0  0  0  0
   11.3800  -15.8232   31.6624 O   0  0  0  0  0  0  0  0  0  0  0  0
   11.2174  -15.5782   30.3036 C   0  0  0  0  0  0  0  0  0  0  0  0
   10.7358  -14.3750   29.8193 C   0  0  0  0  0  0  0  0  0  0  0  0
   10.5759  -14.1370   28.4631 C   0  0  0  0  0  0  0  0  0  0  0  0
   10.8984  -15.1095   27.5532 C   0  0  0  0  0  0  0  0  0  0  0  0
   10.7631  -14.9563   26.0976 C   0  0  0  0  0  0  0  0  0  0  0  0
   10.4859  -16.2507   25.3733 C   0  0  2  0  0  0  0  0  0  0  0  0
   10.3993  -15.9261   23.9629 N   0  0  0  0  0  0  0  0  0  0  0  0
    9.3086  -16.9735   25.8538 C   0  0  0  0  0  0  0  0  0  0  0  0
    9.4755  -18.1636   26.5454 O   0  0  0  0  0  0  0  0  0  0  0  0
   11.3842  -16.3240   28.0373 C   0  0  0  0  0  0  0  0  0  0  0  0
   11.5434  -16.5615   29.3824 C   0  0  0  0  0  0  0  0  0  0  0  0
    8.1367  -16.5659   25.6698 O   0  0  0  0  0  0  0  0  0  0  0  0
  2  1  1  0
  3  2  2  0
  4  2  1  0
  5  4  1  0
  6  5  1  0
  6  7  1  6
  8  6  1  0
  8  9  2  0
 10  8  1  0
 11 10  1  0
 11 12  1  1
 12 13  1  0
 13 14  2  0
 13 21  1  0
 14 15  1  0
 15 16  1  0
 16 17  2  0
 17 18  1  0
 19 18  2  0
 20 19  1  0
 21 20  2  0
 21 16  1  0
 22 11  1  0
 23 22  2  0
 25 24  1  0
 25 35  2  0
 26 25  1  0
 27 26  2  0
 27 28  1  0
 28 34  2  0
 29 28  1  0
 30 29  1  1
 30 31  1  0
 31 22  1  0
 32 33  1  0
 32 30  1  0
 34 35  1  0
 36 32  2  0
M  END
$$$$
