QWY.pdb
     RDKit          3D

 36 38  0  0  1  0  0  0  0  0999 V2000
    8.3259  -12.2964   16.6749 N   0  0  0  0  0  0  0  0  0  0  0  0
    8.3305  -13.6294   16.2108 C   0  0  0  0  0  0  0  0  0  0  0  0
    8.2924  -13.8804   14.9918 O   0  0  0  0  0  0  0  0  0  0  0  0
    8.3811  -14.7338   17.1874 C   0  0  0  0  0  0  0  0  0  0  0  0
    9.6977  -14.8064   17.9073 C   0  0  0  0  0  0  0  0  0  0  0  0
    9.6827  -15.9953   18.8420 C   0  0  2  0  0  0  0  0  0  0  0  0
    8.4819  -16.7803   18.5786 N   0  0  0  0  0  0  0  0  0  0  0  0
    9.6217  -15.5732   20.2662 C   0  0  0  0  0  0  0  0  0  0  0  0
   10.5040  -14.8067   20.7829 O   0  0  0  0  0  0  0  0  0  0  0  0
    8.5757  -16.0010   21.1320 N   0  0  0  0  0  0  0  0  0  0  0  0
    8.3829  -15.5116   22.4737 C   0  0  1  0  0  0  0  0  0  0  0  0
    6.9713  -15.5455   22.9092 C   0  0  0  0  0  0  0  0  0  0  0  0
    6.6481  -15.0957   24.2492 C   0  0  0  0  0  0  0  0  0  0  0  0
    6.0975  -15.8191   25.3014 C   0  0  0  0  0  0  0  0  0  0  0  0
    5.9498  -15.0037   26.3592 N   0  0  0  0  0  0  0  0  0  0  0  0
    6.3830  -13.7815   26.0340 C   0  0  0  0  0  0  0  0  0  0  0  0
    6.4398  -12.6153   26.7845 C   0  0  0  0  0  0  0  0  0  0  0  0
    6.9336  -11.4514   26.2602 C   0  0  0  0  0  0  0  0  0  0  0  0
    7.3782  -11.4518   24.9654 C   0  0  0  0  0  0  0  0  0  0  0  0
    7.3146  -12.6190   24.2333 C   0  0  0  0  0  0  0  0  0  0  0  0
    6.8256  -13.8148   24.7167 C   0  0  0  0  0  0  0  0  0  0  0  0
    9.3458  -16.1020   23.4293 C   0  0  0  0  0  0  0  0  0  0  0  0
    9.6795  -17.3031   23.2790 O   0  0  0  0  0  0  0  0  0  0  0  0
   12.7993  -16.8251   31.6621 O   0  0  0  0  0  0  0  0  0  0  0  0
   12.3286  -16.4046   30.4235 C   0  0  0  0  0  0  0  0  0  0  0  0
   12.6281  -17.0735   29.2500 C   0  0  0  0  0  0  0  0  0  0  0  0
   12.1556  -16.6490   28.0179 C   0  0  0  0  0  0  0  0  0  0  0  0
   11.3645  -15.5334   27.9339 C   0  0  0  0  0  0  0  0  0  0  0  0
   10.8167  -15.0020   26.6776 C   0  0  0  0  0  0  0  0  0  0  0  0
   10.6161  -16.0499   25.6106 C   0  0  2  0  0  0  0  0  0  0  0  0
    9.9254  -15.3987   24.5148 N   0  0  0  0  0  0  0  0  0  0  0  0
    9.9265  -17.2559   26.0681 C   0  0  0  0  0  0  0  0  0  0  0  0
   10.6580  -18.4088   26.3089 O   0  0  0  0  0  0  0  0  0  0  0  0
   11.0602  -14.8560   29.1145 C   0  0  0  0  0  0  0  0  0  0  0  0
   11.5282  -15.2759   30.3375 C   0  0  0  0  0  0  0  0  0  0  0  0
    8.6873  -17.3020   26.2571 O   0  0  0  0  0  0  0  0  0  0  0  0
  2  1  1  0
  3  2  2  0
  4  2  1  0
  5  4  1  0
  6  5  1  0
  6  7  1  6
  8  6  1  0
  8  9  2  0
 10  8  1  0
 11 10  1  0
 11 12  1  1
 12 13  1  0
 13 14  2  0
 13 21  1  0
 14 15  1  0
 15 16  1  0
 16 17  2  0
 17 18  1  0
 19 18  2  0
 20 19  1  0
 21 20  2  0
 21 16  1  0
 22 11  1  0
 23 22  2  0
 25 24  1  0
 25 35  2  0
 26 25  1  0
 27 26  2  0
 27 28  1  0
 28 34  2  0
 29 28  1  0
 30 29  1  1
 30 31  1  0
 31 22  1  0
 32 33  1  0
 32 30  1  0
 34 35  1  0
 36 32  2  0
M  END
$$$$
