QWY.pdb
     RDKit          3D

 36 38  0  0  1  0  0  0  0  0999 V2000
    8.1679  -14.8077   17.3064 N   0  0  0  0  0  0  0  0  0  0  0  0
    7.4575  -15.9933   17.5926 C   0  0  0  0  0  0  0  0  0  0  0  0
    6.9137  -16.6463   16.6825 O   0  0  0  0  0  0  0  0  0  0  0  0
    7.3620  -16.4586   18.9891 C   0  0  0  0  0  0  0  0  0  0  0  0
    8.1328  -15.5881   19.9404 C   0  0  0  0  0  0  0  0  0  0  0  0
    9.0417  -16.4592   20.7785 C   0  0  2  0  0  0  0  0  0  0  0  0
    8.2995  -17.6448   21.1924 N   0  0  0  0  0  0  0  0  0  0  0  0
    9.4772  -15.7648   22.0188 C   0  0  0  0  0  0  0  0  0  0  0  0
   10.0311  -14.6135   21.9905 O   0  0  0  0  0  0  0  0  0  0  0  0
    9.3004  -16.3459   23.3064 N   0  0  0  0  0  0  0  0  0  0  0  0
    9.6719  -15.7055   24.5426 C   0  0  1  0  0  0  0  0  0  0  0  0
    8.7114  -15.9519   25.6382 C   0  0  0  0  0  0  0  0  0  0  0  0
    7.4872  -15.1758   25.6748 C   0  0  0  0  0  0  0  0  0  0  0  0
    6.1740  -15.6144   25.5447 C   0  0  0  0  0  0  0  0  0  0  0  0
    5.3519  -14.5543   25.6228 N   0  0  0  0  0  0  0  0  0  0  0  0
    6.0803  -13.4472   25.7987 C   0  0  0  0  0  0  0  0  0  0  0  0
    5.6889  -12.1230   25.9404 C   0  0  0  0  0  0  0  0  0  0  0  0
    6.6052  -11.1226   26.1217 C   0  0  0  0  0  0  0  0  0  0  0  0
    7.9340  -11.4494   26.1624 C   0  0  0  0  0  0  0  0  0  0  0  0
    8.3061  -12.7698   26.0198 C   0  0  0  0  0  0  0  0  0  0  0  0
    7.4212  -13.8117   25.8347 C   0  0  0  0  0  0  0  0  0  0  0  0
   11.0906  -15.9400   24.8911 C   0  0  0  0  0  0  0  0  0  0  0  0
   11.5597  -15.3727   25.9082 O   0  0  0  0  0  0  0  0  0  0  0  0
   10.9939  -16.0701   30.7229 O   0  0  0  0  0  0  0  0  0  0  0  0
   11.3633  -16.6253   29.5030 C   0  0  0  0  0  0  0  0  0  0  0  0
   12.2777  -16.0203   28.6592 C   0  0  0  0  0  0  0  0  0  0  0  0
   12.6418  -16.5790   27.4440 C   0  0  0  0  0  0  0  0  0  0  0  0
   12.0919  -17.7685   27.0436 C   0  0  0  0  0  0  0  0  0  0  0  0
   12.4098  -18.4401   25.7753 C   0  0  0  0  0  0  0  0  0  0  0  0
   13.0441  -17.5332   24.7496 C   0  0  2  0  0  0  0  0  0  0  0  0
   11.9675  -16.7702   24.1489 N   0  0  0  0  0  0  0  0  0  0  0  0
   13.8627  -18.2242   23.7538 C   0  0  0  0  0  0  0  0  0  0  0  0
   13.5241  -18.1338   22.4124 O   0  0  0  0  0  0  0  0  0  0  0  0
   11.1696  -18.3818   27.8913 C   0  0  0  0  0  0  0  0  0  0  0  0
   10.8074  -17.8287   29.0971 C   0  0  0  0  0  0  0  0  0  0  0  0
   14.8719  -18.9054   24.0554 O   0  0  0  0  0  0  0  0  0  0  0  0
  2  1  1  0
  3  2  2  0
  4  2  1  0
  5  4  1  0
  6  5  1  0
  6  7  1  1
  8  6  1  0
  8  9  2  0
 10  8  1  0
 11 10  1  0
 11 12  1  1
 12 13  1  0
 13 14  2  0
 13 21  1  0
 14 15  1  0
 15 16  1  0
 16 17  2  0
 17 18  1  0
 19 18  2  0
 20 19  1  0
 21 20  2  0
 21 16  1  0
 22 11  1  0
 23 22  2  0
 25 24  1  0
 25 35  2  0
 26 25  1  0
 27 26  2  0
 27 28  1  0
 28 34  2  0
 29 28  1  0
 30 29  1  1
 30 31  1  0
 31 22  1  0
 32 33  1  0
 32 30  1  0
 34 35  1  0
 36 32  2  0
M  END
$$$$
