QWY.pdb
     RDKit          3D

 36 38  0  0  1  0  0  0  0  0999 V2000
    9.4780  -15.6213   14.7894 N   0  0  0  0  0  0  0  0  0  0  0  0
    8.2596  -15.4795   15.4877 C   0  0  0  0  0  0  0  0  0  0  0  0
    7.1702  -15.5380   14.8876 O   0  0  0  0  0  0  0  0  0  0  0  0
    8.2846  -15.2595   16.9461 C   0  0  0  0  0  0  0  0  0  0  0  0
    9.6787  -15.0897   17.4794 C   0  0  0  0  0  0  0  0  0  0  0  0
    9.9399  -16.1536   18.5221 C   0  0  2  0  0  0  0  0  0  0  0  0
    8.9575  -17.2191   18.3571 N   0  0  0  0  0  0  0  0  0  0  0  0
    9.7770  -15.6226   19.9011 C   0  0  0  0  0  0  0  0  0  0  0  0
   10.4693  -14.6392   20.3334 O   0  0  0  0  0  0  0  0  0  0  0  0
    8.8398  -16.1817   20.8153 N   0  0  0  0  0  0  0  0  0  0  0  0
    8.7240  -15.7914   22.1976 C   0  0  1  0  0  0  0  0  0  0  0  0
    7.3488  -15.9131   22.7244 C   0  0  0  0  0  0  0  0  0  0  0  0
    7.0958  -15.5258   24.0986 C   0  0  0  0  0  0  0  0  0  0  0  0
    6.6215  -16.3034   25.1492 C   0  0  0  0  0  0  0  0  0  0  0  0
    6.5202  -15.5355   26.2472 N   0  0  0  0  0  0  0  0  0  0  0  0
    6.9104  -14.2920   25.9496 C   0  0  0  0  0  0  0  0  0  0  0  0
    6.9887  -13.1567   26.7443 C   0  0  0  0  0  0  0  0  0  0  0  0
    7.4289  -11.9620   26.2420 C   0  0  0  0  0  0  0  0  0  0  0  0
    7.7971  -11.8996   24.9250 C   0  0  0  0  0  0  0  0  0  0  0  0
    7.7131  -13.0368   24.1491 C   0  0  0  0  0  0  0  0  0  0  0  0
    7.2760  -14.2617   24.6088 C   0  0  0  0  0  0  0  0  0  0  0  0
    9.7730  -16.4037   23.0425 C   0  0  0  0  0  0  0  0  0  0  0  0
   10.2116  -17.5369   22.7264 O   0  0  0  0  0  0  0  0  0  0  0  0
    8.9873  -15.8244   30.8317 O   0  0  0  0  0  0  0  0  0  0  0  0
    9.6950  -15.7286   29.6389 C   0  0  0  0  0  0  0  0  0  0  0  0
   10.4030  -16.7926   29.1090 C   0  0  0  0  0  0  0  0  0  0  0  0
   11.1067  -16.6906   27.9190 C   0  0  0  0  0  0  0  0  0  0  0  0
   11.1165  -15.5079   27.2270 C   0  0  0  0  0  0  0  0  0  0  0  0
   11.8323  -15.2979   25.9605 C   0  0  0  0  0  0  0  0  0  0  0  0
   11.4878  -16.3073   24.8930 C   0  0  2  0  0  0  0  0  0  0  0  0
   10.3246  -15.7934   24.1967 N   0  0  0  0  0  0  0  0  0  0  0  0
   11.2864  -17.6684   25.3889 C   0  0  0  0  0  0  0  0  0  0  0  0
   10.0018  -18.1858   25.4556 O   0  0  0  0  0  0  0  0  0  0  0  0
   10.4041  -14.4327   27.7579 C   0  0  0  0  0  0  0  0  0  0  0  0
    9.7055  -14.5324   28.9382 C   0  0  0  0  0  0  0  0  0  0  0  0
   12.2309  -18.4040   25.7632 O   0  0  0  0  0  0  0  0  0  0  0  0
  2  1  1  0
  3  2  2  0
  4  2  1  0
  5  4  1  0
  6  5  1  0
  6  7  1  6
  8  6  1  0
  8  9  2  0
 10  8  1  0
 11 10  1  0
 11 12  1  1
 12 13  1  0
 13 14  2  0
 13 21  1  0
 14 15  1  0
 15 16  1  0
 16 17  2  0
 17 18  1  0
 19 18  2  0
 20 19  1  0
 21 20  2  0
 21 16  1  0
 22 11  1  0
 23 22  2  0
 25 24  1  0
 25 35  2  0
 26 25  1  0
 27 26  2  0
 27 28  1  0
 28 34  2  0
 29 28  1  0
 30 29  1  1
 30 31  1  0
 31 22  1  0
 32 33  1  0
 32 30  1  0
 34 35  1  0
 36 32  2  0
M  END
$$$$
