QWY.pdb
     RDKit          3D

 36 38  0  0  1  0  0  0  0  0999 V2000
    8.0854  -12.4645   16.8944 N   0  0  0  0  0  0  0  0  0  0  0  0
    7.9782  -13.7413   16.3025 C   0  0  0  0  0  0  0  0  0  0  0  0
    7.6170  -13.8666   15.1175 O   0  0  0  0  0  0  0  0  0  0  0  0
    8.2996  -14.9377   17.1034 C   0  0  0  0  0  0  0  0  0  0  0  0
    8.5882  -14.6086   18.5405 C   0  0  0  0  0  0  0  0  0  0  0  0
    9.2543  -15.7988   19.1939 C   0  0  2  0  0  0  0  0  0  0  0  0
    8.3163  -16.9158   19.1945 N   0  0  0  0  0  0  0  0  0  0  0  0
    9.6020  -15.5230   20.6128 C   0  0  0  0  0  0  0  0  0  0  0  0
   10.3186  -14.5204   20.9510 O   0  0  0  0  0  0  0  0  0  0  0  0
    9.1546  -16.3621   21.6723 N   0  0  0  0  0  0  0  0  0  0  0  0
    9.5631  -16.2194   23.0468 C   0  0  1  0  0  0  0  0  0  0  0  0
    8.4354  -16.2828   23.9996 C   0  0  0  0  0  0  0  0  0  0  0  0
    7.4190  -15.2504   23.9406 C   0  0  0  0  0  0  0  0  0  0  0  0
    6.3280  -15.1505   23.0842 C   0  0  0  0  0  0  0  0  0  0  0  0
    5.6550  -14.0224   23.3673 N   0  0  0  0  0  0  0  0  0  0  0  0
    6.2664  -13.3882   24.3729 C   0  0  0  0  0  0  0  0  0  0  0  0
    5.9489  -12.1997   25.0156 C   0  0  0  0  0  0  0  0  0  0  0  0
    6.7116  -11.7182   26.0450 C   0  0  0  0  0  0  0  0  0  0  0  0
    7.8091  -12.4350   26.4396 C   0  0  0  0  0  0  0  0  0  0  0  0
    8.1108  -13.6138   25.7904 C   0  0  0  0  0  0  0  0  0  0  0  0
    7.3743  -14.1390   24.7490 C   0  0  0  0  0  0  0  0  0  0  0  0
   10.7138  -17.0868   23.3823 C   0  0  0  0  0  0  0  0  0  0  0  0
   10.6389  -18.3115   23.1161 O   0  0  0  0  0  0  0  0  0  0  0  0
   10.6063  -15.8580   31.6667 O   0  0  0  0  0  0  0  0  0  0  0  0
   10.7470  -15.8495   30.2836 C   0  0  0  0  0  0  0  0  0  0  0  0
   11.1225  -16.9733   29.5693 C   0  0  0  0  0  0  0  0  0  0  0  0
   11.2611  -16.9583   28.1901 C   0  0  0  0  0  0  0  0  0  0  0  0
   11.0241  -15.8048   27.4894 C   0  0  0  0  0  0  0  0  0  0  0  0
   11.1456  -15.6856   26.0294 C   0  0  0  0  0  0  0  0  0  0  0  0
   12.1365  -16.6476   25.4213 C   0  0  2  0  0  0  0  0  0  0  0  0
   11.9091  -16.6268   23.9896 N   0  0  0  0  0  0  0  0  0  0  0  0
   12.0861  -18.0001   25.9758 C   0  0  0  0  0  0  0  0  0  0  0  0
   11.0262  -18.8315   25.6478 O   0  0  0  0  0  0  0  0  0  0  0  0
   10.6454  -14.6696   28.2057 C   0  0  0  0  0  0  0  0  0  0  0  0
   10.5075  -14.6830   29.5739 C   0  0  0  0  0  0  0  0  0  0  0  0
   12.9665  -18.4543   26.7452 O   0  0  0  0  0  0  0  0  0  0  0  0
  2  1  1  0
  3  2  2  0
  4  2  1  0
  5  4  1  0
  6  5  1  0
  6  7  1  1
  8  6  1  0
  8  9  2  0
 10  8  1  0
 11 10  1  0
 11 12  1  1
 12 13  1  0
 13 14  2  0
 13 21  1  0
 14 15  1  0
 15 16  1  0
 16 17  2  0
 17 18  1  0
 19 18  2  0
 20 19  1  0
 21 20  2  0
 21 16  1  0
 22 11  1  0
 23 22  2  0
 25 24  1  0
 25 35  2  0
 26 25  1  0
 27 26  2  0
 27 28  1  0
 28 34  2  0
 29 28  1  0
 30 29  1  1
 30 31  1  0
 31 22  1  0
 32 33  1  0
 32 30  1  0
 34 35  1  0
 36 32  2  0
M  END
$$$$
