QWY.pdb
     RDKit          3D

 36 38  0  0  1  0  0  0  0  0999 V2000
    7.9826  -12.6413   15.9561 N   0  0  0  0  0  0  0  0  0  0  0  0
    7.6009  -13.9738   15.6896 C   0  0  0  0  0  0  0  0  0  0  0  0
    7.2869  -14.3290   14.5383 O   0  0  0  0  0  0  0  0  0  0  0  0
    7.5759  -14.9521   16.7933 C   0  0  0  0  0  0  0  0  0  0  0  0
    8.1689  -14.4060   18.0610 C   0  0  0  0  0  0  0  0  0  0  0  0
    8.7581  -15.5469   18.8602 C   0  0  2  0  0  0  0  0  0  0  0  0
    7.7755  -16.6225   18.9313 N   0  0  0  0  0  0  0  0  0  0  0  0
    9.0585  -15.1402   20.2582 C   0  0  0  0  0  0  0  0  0  0  0  0
    9.7662  -14.1103   20.5258 O   0  0  0  0  0  0  0  0  0  0  0  0
    8.5732  -15.8772   21.3754 N   0  0  0  0  0  0  0  0  0  0  0  0
    9.0081  -15.6703   22.7336 C   0  0  1  0  0  0  0  0  0  0  0  0
    8.0844  -16.2428   23.7349 C   0  0  0  0  0  0  0  0  0  0  0  0
    7.2915  -15.3380   24.5442 C   0  0  0  0  0  0  0  0  0  0  0  0
    6.2938  -15.6400   25.4645 C   0  0  0  0  0  0  0  0  0  0  0  0
    5.8106  -14.4941   25.9736 N   0  0  0  0  0  0  0  0  0  0  0  0
    6.4558  -13.4624   25.4200 C   0  0  0  0  0  0  0  0  0  0  0  0
    6.3174  -12.0967   25.6255 C   0  0  0  0  0  0  0  0  0  0  0  0
    7.0927  -11.1908   24.9534 C   0  0  0  0  0  0  0  0  0  0  0  0
    8.0215  -11.6558   24.0618 C   0  0  0  0  0  0  0  0  0  0  0  0
    8.1462  -13.0158   23.8691 C   0  0  0  0  0  0  0  0  0  0  0  0
    7.3888  -13.9666   24.5212 C   0  0  0  0  0  0  0  0  0  0  0  0
   10.4326  -16.0208   22.9255 C   0  0  0  0  0  0  0  0  0  0  0  0
   10.9669  -16.8211   22.1190 O   0  0  0  0  0  0  0  0  0  0  0  0
   10.5202  -15.3988   31.3945 O   0  0  0  0  0  0  0  0  0  0  0  0
   10.4840  -15.6707   30.0316 C   0  0  0  0  0  0  0  0  0  0  0  0
   10.2804  -14.6837   29.0836 C   0  0  0  0  0  0  0  0  0  0  0  0
   10.2453  -14.9614   27.7259 C   0  0  0  0  0  0  0  0  0  0  0  0
   10.4153  -16.2472   27.2840 C   0  0  0  0  0  0  0  0  0  0  0  0
   10.3927  -16.6441   25.8689 C   0  0  0  0  0  0  0  0  0  0  0  0
   11.6537  -16.2918   25.1186 C   0  0  2  0  0  0  0  0  0  0  0  0
   11.2464  -15.5101   23.9676 N   0  0  0  0  0  0  0  0  0  0  0  0
   12.4801  -17.4409   24.7499 C   0  0  0  0  0  0  0  0  0  0  0  0
   13.8061  -17.4832   25.1525 O   0  0  0  0  0  0  0  0  0  0  0  0
   10.6208  -17.2452   28.2365 C   0  0  0  0  0  0  0  0  0  0  0  0
   10.6558  -16.9713   29.5836 C   0  0  0  0  0  0  0  0  0  0  0  0
   12.0443  -18.4058   24.0774 O   0  0  0  0  0  0  0  0  0  0  0  0
  2  1  1  0
  3  2  2  0
  4  2  1  0
  5  4  1  0
  6  5  1  0
  6  7  1  1
  8  6  1  0
  8  9  2  0
 10  8  1  0
 11 10  1  0
 11 12  1  1
 12 13  1  0
 13 14  2  0
 13 21  1  0
 14 15  1  0
 15 16  1  0
 16 17  2  0
 17 18  1  0
 19 18  2  0
 20 19  1  0
 21 20  2  0
 21 16  1  0
 22 11  1  0
 23 22  2  0
 25 24  1  0
 25 35  2  0
 26 25  1  0
 27 26  2  0
 27 28  1  0
 28 34  2  0
 29 28  1  0
 30 29  1  6
 30 31  1  0
 31 22  1  0
 32 33  1  0
 32 30  1  0
 34 35  1  0
 36 32  2  0
M  END
$$$$
