QWY.pdb
     RDKit          3D

 36 38  0  0  1  0  0  0  0  0999 V2000
    7.7540  -12.3809   17.0830 N   0  0  0  0  0  0  0  0  0  0  0  0
    7.5974  -13.6748   16.5413 C   0  0  0  0  0  0  0  0  0  0  0  0
    7.0848  -13.8382   15.4184 O   0  0  0  0  0  0  0  0  0  0  0  0
    8.0488  -14.8432   17.3203 C   0  0  0  0  0  0  0  0  0  0  0  0
    8.6263  -14.4590   18.6529 C   0  0  0  0  0  0  0  0  0  0  0  0
    9.1730  -15.6971   19.3279 C   0  0  2  0  0  0  0  0  0  0  0  0
    8.0775  -16.6377   19.5346 N   0  0  0  0  0  0  0  0  0  0  0  0
    9.7383  -15.3878   20.6676 C   0  0  0  0  0  0  0  0  0  0  0  0
   10.7469  -14.6168   20.8147 O   0  0  0  0  0  0  0  0  0  0  0  0
    9.1857  -15.9345   21.8603 N   0  0  0  0  0  0  0  0  0  0  0  0
    9.7210  -15.7092   23.1791 C   0  0  1  0  0  0  0  0  0  0  0  0
    8.7370  -15.9459   24.2558 C   0  0  0  0  0  0  0  0  0  0  0  0
    7.5497  -15.1151   24.3051 C   0  0  0  0  0  0  0  0  0  0  0  0
    6.3166  -15.3214   23.6964 C   0  0  0  0  0  0  0  0  0  0  0  0
    5.5070  -14.2911   23.9940 N   0  0  0  0  0  0  0  0  0  0  0  0
    6.1665  -13.4262   24.7714 C   0  0  0  0  0  0  0  0  0  0  0  0
    5.7563  -12.2262   25.3356 C   0  0  0  0  0  0  0  0  0  0  0  0
    6.5951  -11.4819   26.1201 C   0  0  0  0  0  0  0  0  0  0  0  0
    7.8643  -11.9429   26.3453 C   0  0  0  0  0  0  0  0  0  0  0  0
    8.2562  -13.1370   25.7771 C   0  0  0  0  0  0  0  0  0  0  0  0
    7.4485  -13.9214   24.9801 C   0  0  0  0  0  0  0  0  0  0  0  0
   11.0303  -16.3703   23.3730 C   0  0  0  0  0  0  0  0  0  0  0  0
   12.0169  -15.9493   22.7203 O   0  0  0  0  0  0  0  0  0  0  0  0
   11.0940  -15.9177   31.8490 O   0  0  0  0  0  0  0  0  0  0  0  0
   10.9518  -15.9831   30.4676 C   0  0  0  0  0  0  0  0  0  0  0  0
   10.2437  -15.0361   29.7492 C   0  0  0  0  0  0  0  0  0  0  0  0
   10.1055  -15.1070   28.3717 C   0  0  0  0  0  0  0  0  0  0  0  0
   10.6797  -16.1391   27.6769 C   0  0  0  0  0  0  0  0  0  0  0  0
   10.5892  -16.3047   26.2192 C   0  0  0  0  0  0  0  0  0  0  0  0
   11.5796  -17.2948   25.6573 C   0  0  2  0  0  0  0  0  0  0  0  0
   11.2520  -17.4579   24.2544 N   0  0  0  0  0  0  0  0  0  0  0  0
   11.6322  -18.5703   26.3710 C   0  0  0  0  0  0  0  0  0  0  0  0
   10.8070  -19.6097   25.9698 O   0  0  0  0  0  0  0  0  0  0  0  0
   11.3944  -17.0959   28.3973 C   0  0  0  0  0  0  0  0  0  0  0  0
   11.5323  -17.0269   29.7638 C   0  0  0  0  0  0  0  0  0  0  0  0
   12.3976  -18.7761   27.3432 O   0  0  0  0  0  0  0  0  0  0  0  0
  2  1  1  0
  3  2  2  0
  4  2  1  0
  5  4  1  0
  6  5  1  0
  6  7  1  1
  8  6  1  0
  8  9  2  0
 10  8  1  0
 11 10  1  0
 11 12  1  1
 12 13  1  0
 13 14  2  0
 13 21  1  0
 14 15  1  0
 15 16  1  0
 16 17  2  0
 17 18  1  0
 19 18  2  0
 20 19  1  0
 21 20  2  0
 21 16  1  0
 22 11  1  0
 23 22  2  0
 25 24  1  0
 25 35  2  0
 26 25  1  0
 27 26  2  0
 27 28  1  0
 28 34  2  0
 29 28  1  0
 30 29  1  1
 30 31  1  0
 31 22  1  0
 32 33  1  0
 32 30  1  0
 34 35  1  0
 36 32  2  0
M  END
$$$$
