QWY.pdb
     RDKit          3D

 36 38  0  0  1  0  0  0  0  0999 V2000
    8.2138  -12.3114   15.4922 N   0  0  0  0  0  0  0  0  0  0  0  0
    7.5153  -13.5219   15.2948 C   0  0  0  0  0  0  0  0  0  0  0  0
    6.8751  -13.7249   14.2463 O   0  0  0  0  0  0  0  0  0  0  0  0
    7.5484  -14.5546   16.3475 C   0  0  0  0  0  0  0  0  0  0  0  0
    8.3477  -14.1297   17.5465 C   0  0  0  0  0  0  0  0  0  0  0  0
    8.7675  -15.3601   18.3194 C   0  0  2  0  0  0  0  0  0  0  0  0
    7.7389  -16.3824   18.1631 N   0  0  0  0  0  0  0  0  0  0  0  0
    8.8843  -15.0808   19.7749 C   0  0  0  0  0  0  0  0  0  0  0  0
    9.7138  -14.2243   20.2348 O   0  0  0  0  0  0  0  0  0  0  0  0
    8.0774  -15.7534   20.7357 N   0  0  0  0  0  0  0  0  0  0  0  0
    8.1624  -15.5389   22.1582 C   0  0  1  0  0  0  0  0  0  0  0  0
    6.8607  -15.6672   22.8457 C   0  0  0  0  0  0  0  0  0  0  0  0
    6.7965  -15.3867   24.2669 C   0  0  0  0  0  0  0  0  0  0  0  0
    6.5066  -16.2549   25.3136 C   0  0  0  0  0  0  0  0  0  0  0  0
    6.5393  -15.5693   26.4689 N   0  0  0  0  0  0  0  0  0  0  0  0
    6.8391  -14.2922   26.2119 C   0  0  0  0  0  0  0  0  0  0  0  0
    6.9927  -13.2115   27.0694 C   0  0  0  0  0  0  0  0  0  0  0  0
    7.3139  -11.9667   26.5998 C   0  0  0  0  0  0  0  0  0  0  0  0
    7.4848  -11.7978   25.2520 C   0  0  0  0  0  0  0  0  0  0  0  0
    7.3284  -12.8818   24.4137 C   0  0  0  0  0  0  0  0  0  0  0  0
    7.0051  -14.1537   24.8387 C   0  0  0  0  0  0  0  0  0  0  0  0
    9.2719  -16.2994   22.7743 C   0  0  0  0  0  0  0  0  0  0  0  0
    9.4538  -17.4893   22.4172 O   0  0  0  0  0  0  0  0  0  0  0  0
   13.7993  -15.3661   18.4849 O   0  0  0  0  0  0  0  0  0  0  0  0
   13.4625  -15.4183   19.8327 C   0  0  0  0  0  0  0  0  0  0  0  0
   12.5878  -14.5176   20.4141 C   0  0  0  0  0  0  0  0  0  0  0  0
   12.2560  -14.5751   21.7588 C   0  0  0  0  0  0  0  0  0  0  0  0
   12.7991  -15.5462   22.5585 C   0  0  0  0  0  0  0  0  0  0  0  0
   12.5134  -15.6900   23.9932 C   0  0  0  0  0  0  0  0  0  0  0  0
   11.2813  -16.5097   24.2884 C   0  0  2  0  0  0  0  0  0  0  0  0
   10.1546  -15.7729   23.7502 N   0  0  0  0  0  0  0  0  0  0  0  0
   11.1040  -16.8499   25.6998 C   0  0  0  0  0  0  0  0  0  0  0  0
   12.0694  -17.6086   26.3439 O   0  0  0  0  0  0  0  0  0  0  0  0
   13.6814  -16.4561   21.9763 C   0  0  0  0  0  0  0  0  0  0  0  0
   14.0115  -16.4004   20.6425 C   0  0  0  0  0  0  0  0  0  0  0  0
   10.1077  -16.4850   26.3687 O   0  0  0  0  0  0  0  0  0  0  0  0
  2  1  1  0
  3  2  2  0
  4  2  1  0
  5  4  1  0
  6  5  1  0
  6  7  1  1
  8  6  1  0
  8  9  2  0
 10  8  1  0
 11 10  1  0
 11 12  1  1
 12 13  1  0
 13 14  2  0
 13 21  1  0
 14 15  1  0
 15 16  1  0
 16 17  2  0
 17 18  1  0
 19 18  2  0
 20 19  1  0
 21 20  2  0
 21 16  1  0
 22 11  1  0
 23 22  2  0
 25 24  1  0
 25 35  2  0
 26 25  1  0
 27 26  2  0
 27 28  1  0
 28 34  2  0
 29 28  1  0
 30 29  1  1
 30 31  1  0
 31 22  1  0
 32 33  1  0
 32 30  1  0
 34 35  1  0
 36 32  2  0
M  END
$$$$
