QWY.pdb
     RDKit          3D

 36 38  0  0  1  0  0  0  0  0999 V2000
    8.0472  -13.3939   15.1162 N   0  0  0  0  0  0  0  0  0  0  0  0
    7.8065  -14.7815   15.0224 C   0  0  0  0  0  0  0  0  0  0  0  0
    7.4660  -15.2980   13.9417 O   0  0  0  0  0  0  0  0  0  0  0  0
    7.9621  -15.6242   16.2231 C   0  0  0  0  0  0  0  0  0  0  0  0
    8.3702  -14.8331   17.4333 C   0  0  0  0  0  0  0  0  0  0  0  0
    9.1384  -15.7341   18.3743 C   0  0  2  0  0  0  0  0  0  0  0  0
    8.5147  -17.0527   18.3702 N   0  0  0  0  0  0  0  0  0  0  0  0
    9.0899  -15.2352   19.7739 C   0  0  0  0  0  0  0  0  0  0  0  0
    9.5965  -14.1109   20.1092 O   0  0  0  0  0  0  0  0  0  0  0  0
    8.4757  -15.9843   20.8172 N   0  0  0  0  0  0  0  0  0  0  0  0
    8.4028  -15.5526   22.1902 C   0  0  1  0  0  0  0  0  0  0  0  0
    7.0521  -15.6902   22.7734 C   0  0  0  0  0  0  0  0  0  0  0  0
    6.8601  -15.3420   24.1678 C   0  0  0  0  0  0  0  0  0  0  0  0
    6.5547  -16.1742   25.2391 C   0  0  0  0  0  0  0  0  0  0  0  0
    6.4501  -15.4291   26.3524 N   0  0  0  0  0  0  0  0  0  0  0  0
    6.6760  -14.1479   26.0448 C   0  0  0  0  0  0  0  0  0  0  0  0
    6.6858  -13.0157   26.8477 C   0  0  0  0  0  0  0  0  0  0  0  0
    6.9514  -11.7761   26.3316 C   0  0  0  0  0  0  0  0  0  0  0  0
    7.2117  -11.6649   24.9922 C   0  0  0  0  0  0  0  0  0  0  0  0
    7.1978  -12.7997   24.2085 C   0  0  0  0  0  0  0  0  0  0  0  0
    6.9354  -14.0687   24.6814 C   0  0  0  0  0  0  0  0  0  0  0  0
    9.4983  -16.1121   23.0124 C   0  0  0  0  0  0  0  0  0  0  0  0
    9.6383  -17.3590   23.0559 O   0  0  0  0  0  0  0  0  0  0  0  0
   10.6134  -17.0028   31.2451 O   0  0  0  0  0  0  0  0  0  0  0  0
   10.7181  -16.5063   29.9508 C   0  0  0  0  0  0  0  0  0  0  0  0
   11.2318  -17.2563   28.9079 C   0  0  0  0  0  0  0  0  0  0  0  0
   11.3335  -16.7553   27.6194 C   0  0  0  0  0  0  0  0  0  0  0  0
   10.9184  -15.4786   27.3450 C   0  0  0  0  0  0  0  0  0  0  0  0
   10.9864  -14.8557   26.0154 C   0  0  0  0  0  0  0  0  0  0  0  0
   11.1654  -15.8443   24.8895 C   0  0  2  0  0  0  0  0  0  0  0  0
   10.4118  -15.3301   23.7627 N   0  0  0  0  0  0  0  0  0  0  0  0
   10.7983  -17.2193   25.2267 C   0  0  0  0  0  0  0  0  0  0  0  0
   11.7963  -18.1575   25.4415 O   0  0  0  0  0  0  0  0  0  0  0  0
   10.3999  -14.7190   28.3936 C   0  0  0  0  0  0  0  0  0  0  0  0
   10.2984  -15.2147   29.6724 C   0  0  0  0  0  0  0  0  0  0  0  0
    9.6079  -17.6001   25.3335 O   0  0  0  0  0  0  0  0  0  0  0  0
  2  1  1  0
  3  2  2  0
  4  2  1  0
  5  4  1  0
  6  5  1  0
  6  7  1  1
  8  6  1  0
  8  9  2  0
 10  8  1  0
 11 10  1  0
 11 12  1  1
 12 13  1  0
 13 14  2  0
 13 21  1  0
 14 15  1  0
 15 16  1  0
 16 17  2  0
 17 18  1  0
 19 18  2  0
 20 19  1  0
 21 20  2  0
 21 16  1  0
 22 11  1  0
 23 22  2  0
 25 24  1  0
 25 35  2  0
 26 25  1  0
 27 26  2  0
 27 28  1  0
 28 34  2  0
 29 28  1  0
 30 29  1  1
 30 31  1  0
 31 22  1  0
 32 33  1  0
 32 30  1  0
 34 35  1  0
 36 32  2  0
M  END
$$$$
