YNC.pdb
     RDKit          3D

 27 27  0  0  1  0  0  0  0  0999 V2000
   19.4117  -16.4395  -23.4436 O   0  0  0  0  0  0  0  0  0  0  0  0
   19.7519  -15.5802  -22.3968 C   0  0  0  0  0  0  0  0  0  0  0  0
   20.7331  -14.6324  -22.5555 C   0  0  0  0  0  0  0  0  0  0  0  0
   21.0490  -13.7965  -21.5048 C   0  0  0  0  0  0  0  0  0  0  0  0
   20.4143  -13.8722  -20.2865 C   0  0  0  0  0  0  0  0  0  0  0  0
   20.7359  -12.9876  -19.1497 C   0  0  0  0  0  0  0  0  0  0  0  0
   21.9467  -13.5555  -18.4398 C   0  0  2  0  0  0  0  0  0  0  0  0
   21.5397  -14.7623  -17.7470 N   0  0  0  0  0  0  0  0  0  0  0  0
   22.4782  -12.6119  -17.4257 C   0  0  0  0  0  0  0  0  0  0  0  0
   22.0299  -12.6120  -16.2295 O   0  0  0  0  0  0  0  0  0  0  0  0
   19.4358  -14.8188  -20.1309 C   0  0  0  0  0  0  0  0  0  0  0  0
   19.1124  -15.6672  -21.1912 C   0  0  0  0  0  0  0  0  0  0  0  0
   25.7093   -9.2451  -14.8949 N   0  0  0  0  0  0  0  0  0  0  0  0
   26.3193  -10.0930  -15.8572 C   0  0  0  0  0  0  0  0  0  0  0  0
   27.5634  -10.0792  -15.9391 O   0  0  0  0  0  0  0  0  0  0  0  0
   25.5094  -10.9407  -16.7088 C   0  0  0  0  0  0  0  0  0  0  0  0
   24.0382  -10.7499  -16.6859 C   0  0  2  0  0  0  0  0  0  0  0  0
   23.4884  -11.6696  -17.6922 N   0  0  0  0  0  0  0  0  0  0  0  0
   23.5253   -9.4255  -16.9881 C   0  0  0  0  0  0  0  0  0  0  0  0
   23.6207   -8.9334  -18.1315 O   0  0  0  0  0  0  0  0  0  0  0  0
   22.8828   -8.6026  -16.0082 N   0  0  0  0  0  0  0  0  0  0  0  0
   22.3227   -7.3159  -16.3310 C   0  0  1  0  0  0  0  0  0  0  0  0
   21.1073   -7.1029  -15.4517 C   0  0  0  0  0  0  0  0  0  0  0  0
   19.7969   -8.2974  -15.8445 S   0  0  0  0  0  0  0  0  0  0  0  0
   23.2922   -6.2164  -16.1874 C   0  0  0  0  0  0  0  0  0  0  0  0
   24.4629   -6.4097  -15.7930 O   0  0  0  0  0  0  0  0  0  0  0  0
   22.9030   -4.9288  -16.4963 O   0  0  0  0  0  0  0  0  0  0  0  0
  1  2  1  0
  2 12  2  0
  3  4  2  0
  3  2  1  0
  4  5  1  0
  5  6  1  0
  5 11  2  0
  6  7  1  0
  7  8  1  1
  7  9  1  0
  9 10  2  0
 12 11  1  0
 13 14  1  0
 14 15  2  0
 16 14  1  0
 17 16  1  6
 17 19  1  0
 18  9  1  0
 18 17  1  0
 19 21  1  0
 20 19  2  0
 21 22  1  0
 22 25  1  0
 23 24  1  0
 22 23  1  1
 25 26  2  0
 25 27  1  0
M  END
$$$$
