YNC.pdb
     RDKit          3D

 27 27  0  0  1  0  0  0  0  0999 V2000
   20.1116  -18.4266  -18.5629 O   0  0  0  0  0  0  0  0  0  0  0  0
   20.3798  -17.0579  -18.6287 C   0  0  0  0  0  0  0  0  0  0  0  0
   21.0135  -16.5171  -19.7206 C   0  0  0  0  0  0  0  0  0  0  0  0
   21.2661  -15.1617  -19.7595 C   0  0  0  0  0  0  0  0  0  0  0  0
   20.9053  -14.3153  -18.7365 C   0  0  0  0  0  0  0  0  0  0  0  0
   21.1650  -12.8626  -18.7580 C   0  0  0  0  0  0  0  0  0  0  0  0
   19.9649  -12.1795  -19.3790 C   0  0  2  0  0  0  0  0  0  0  0  0
   19.8470  -12.6321  -20.7513 N   0  0  0  0  0  0  0  0  0  0  0  0
   20.1275  -10.7049  -19.4039 C   0  0  0  0  0  0  0  0  0  0  0  0
   20.3267  -10.0844  -20.5026 O   0  0  0  0  0  0  0  0  0  0  0  0
   20.2732  -14.8575  -17.6483 C   0  0  0  0  0  0  0  0  0  0  0  0
   20.0154  -16.2287  -17.6042 C   0  0  0  0  0  0  0  0  0  0  0  0
   17.7420   -5.8938  -19.3765 N   0  0  0  0  0  0  0  0  0  0  0  0
   19.0352   -6.4718  -19.2745 C   0  0  0  0  0  0  0  0  0  0  0  0
   20.0172   -5.7035  -19.2722 O   0  0  0  0  0  0  0  0  0  0  0  0
   19.1926   -7.9090  -19.1770 C   0  0  0  0  0  0  0  0  0  0  0  0
   20.2425   -8.4355  -18.2704 C   0  0  2  0  0  0  0  0  0  0  0  0
   20.0770   -9.8961  -18.2538 N   0  0  0  0  0  0  0  0  0  0  0  0
   20.2289   -7.9856  -16.8899 C   0  0  0  0  0  0  0  0  0  0  0  0
   19.3754   -8.3974  -16.0771 O   0  0  0  0  0  0  0  0  0  0  0  0
   21.1813   -7.0504  -16.3717 N   0  0  0  0  0  0  0  0  0  0  0  0
   21.1426   -6.5874  -15.0088 C   0  0  1  0  0  0  0  0  0  0  0  0
   22.5321   -6.1090  -14.6395 C   0  0  0  0  0  0  0  0  0  0  0  0
   22.5535   -5.3792  -12.9766 S   0  0  0  0  0  0  0  0  0  0  0  0
   20.1339   -5.5371  -14.7886 C   0  0  0  0  0  0  0  0  0  0  0  0
   20.0069   -4.5645  -15.5639 O   0  0  0  0  0  0  0  0  0  0  0  0
   19.2985   -5.6227  -13.6934 O   0  0  0  0  0  0  0  0  0  0  0  0
  1  2  1  0
  2 12  2  0
  3  4  2  0
  3  2  1  0
  4  5  1  0
  5  6  1  0
  5 11  2  0
  6  7  1  0
  7  8  1  6
  7  9  1  0
  9 10  2  0
 12 11  1  0
 13 14  1  0
 14 15  2  0
 16 14  1  0
 17 16  1  6
 17 19  1  0
 18  9  1  0
 18 17  1  0
 19 21  1  0
 20 19  2  0
 21 22  1  0
 22 25  1  0
 23 24  1  0
 22 23  1  6
 25 26  2  0
 25 27  1  0
M  END
$$$$
