YNC.pdb
     RDKit          3D

 27 27  0  0  1  0  0  0  0  0999 V2000
   18.7449  -19.2758  -19.4517 O   0  0  0  0  0  0  0  0  0  0  0  0
   19.1672  -18.0169  -19.0199 C   0  0  0  0  0  0  0  0  0  0  0  0
   20.3256  -17.8736  -18.2962 C   0  0  0  0  0  0  0  0  0  0  0  0
   20.7194  -16.6182  -17.8822 C   0  0  0  0  0  0  0  0  0  0  0  0
   19.9911  -15.4862  -18.1673 C   0  0  0  0  0  0  0  0  0  0  0  0
   20.3943  -14.1339  -17.7352 C   0  0  0  0  0  0  0  0  0  0  0  0
   20.9598  -13.4056  -18.9361 C   0  0  2  0  0  0  0  0  0  0  0  0
   22.2071  -14.0452  -19.3066 N   0  0  0  0  0  0  0  0  0  0  0  0
   21.2574  -11.9859  -18.6242 C   0  0  0  0  0  0  0  0  0  0  0  0
   22.3521  -11.6537  -18.0555 O   0  0  0  0  0  0  0  0  0  0  0  0
   18.8357  -15.6320  -18.8895 C   0  0  0  0  0  0  0  0  0  0  0  0
   18.4329  -16.9005  -19.3107 C   0  0  0  0  0  0  0  0  0  0  0  0
   20.8674   -6.6460  -18.6863 N   0  0  0  0  0  0  0  0  0  0  0  0
   20.0582   -7.2877  -19.6612 C   0  0  0  0  0  0  0  0  0  0  0  0
   19.4601   -6.5684  -20.4855 O   0  0  0  0  0  0  0  0  0  0  0  0
   19.9412   -8.7319  -19.6846 C   0  0  0  0  0  0  0  0  0  0  0  0
   20.6994   -9.5092  -18.6734 C   0  0  2  0  0  0  0  0  0  0  0  0
   20.3840  -10.9235  -18.9206 N   0  0  0  0  0  0  0  0  0  0  0  0
   20.4215   -9.2452  -17.2729 C   0  0  0  0  0  0  0  0  0  0  0  0
   19.8830  -10.1016  -16.5411 O   0  0  0  0  0  0  0  0  0  0  0  0
   20.7417   -8.0004  -16.6420 N   0  0  0  0  0  0  0  0  0  0  0  0
   20.4673   -7.7492  -15.2509 C   0  0  1  0  0  0  0  0  0  0  0  0
   21.1873   -8.8043  -14.4360 C   0  0  0  0  0  0  0  0  0  0  0  0
   21.0385   -8.4725  -12.6566 S   0  0  0  0  0  0  0  0  0  0  0  0
   20.8453   -6.3899  -14.8285 C   0  0  0  0  0  0  0  0  0  0  0  0
   20.0771   -5.6635  -14.1608 O   0  0  0  0  0  0  0  0  0  0  0  0
   22.0857   -5.8953  -15.1770 O   0  0  0  0  0  0  0  0  0  0  0  0
  1  2  1  0
  2 12  2  0
  3  4  2  0
  3  2  1  0
  4  5  1  0
  5  6  1  0
  5 11  2  0
  6  7  1  0
  7  8  1  1
  7  9  1  0
  9 10  2  0
 12 11  1  0
 13 14  1  0
 14 15  2  0
 16 14  1  0
 17 16  1  6
 17 19  1  0
 18  9  1  0
 18 17  1  0
 19 21  1  0
 20 19  2  0
 21 22  1  0
 22 25  1  0
 23 24  1  0
 22 23  1  1
 25 26  2  0
 25 27  1  0
M  END
$$$$
