YNC.pdb
     RDKit          3D

 27 27  0  0  1  0  0  0  0  0999 V2000
   29.9117  -20.1478   -6.5366 O   0  0  0  0  0  0  0  0  0  0  0  0
   28.8490  -20.3142   -7.4270 C   0  0  0  0  0  0  0  0  0  0  0  0
   27.6071  -19.8009   -7.1438 C   0  0  0  0  0  0  0  0  0  0  0  0
   26.5751  -19.9799   -8.0412 C   0  0  0  0  0  0  0  0  0  0  0  0
   26.7384  -20.6608   -9.2256 C   0  0  0  0  0  0  0  0  0  0  0  0
   25.6486  -20.8631  -10.2001 C   0  0  0  0  0  0  0  0  0  0  0  0
   26.2702  -21.0607  -11.5665 C   0  0  2  0  0  0  0  0  0  0  0  0
   27.2682  -20.0275  -11.7627 N   0  0  0  0  0  0  0  0  0  0  0  0
   25.2645  -20.9265  -12.6491 C   0  0  0  0  0  0  0  0  0  0  0  0
   25.1582  -19.8423  -13.3162 O   0  0  0  0  0  0  0  0  0  0  0  0
   27.9785  -21.1719   -9.5057 C   0  0  0  0  0  0  0  0  0  0  0  0
   29.0263  -20.9934   -8.6007 C   0  0  0  0  0  0  0  0  0  0  0  0
   22.8347  -23.2342  -17.1915 N   0  0  0  0  0  0  0  0  0  0  0  0
   22.3630  -23.2875  -15.8529 C   0  0  0  0  0  0  0  0  0  0  0  0
   21.1418  -23.4640  -15.6732 O   0  0  0  0  0  0  0  0  0  0  0  0
   23.2826  -23.1400  -14.7428 C   0  0  0  0  0  0  0  0  0  0  0  0
   23.3607  -21.8183  -14.0731 C   0  0  2  0  0  0  0  0  0  0  0  0
   24.3740  -21.9518  -13.0166 N   0  0  0  0  0  0  0  0  0  0  0  0
   22.1537  -21.3064  -13.4489 C   0  0  0  0  0  0  0  0  0  0  0  0
   22.0977  -21.0815  -12.2221 O   0  0  0  0  0  0  0  0  0  0  0  0
   20.9593  -21.0275  -14.1877 N   0  0  0  0  0  0  0  0  0  0  0  0
   20.0383  -19.9909  -13.7995 C   0  0  1  0  0  0  0  0  0  0  0  0
   20.8068  -18.6869  -13.7295 C   0  0  0  0  0  0  0  0  0  0  0  0
   19.7885  -17.3639  -13.0146 S   0  0  0  0  0  0  0  0  0  0  0  0
   18.8792  -19.8866  -14.7022 C   0  0  0  0  0  0  0  0  0  0  0  0
   18.9725  -20.0983  -15.9310 O   0  0  0  0  0  0  0  0  0  0  0  0
   17.6474  -19.5445  -14.1821 O   0  0  0  0  0  0  0  0  0  0  0  0
  1  2  1  0
  2 12  2  0
  3  4  2  0
  3  2  1  0
  4  5  1  0
  5  6  1  0
  5 11  2  0
  6  7  1  0
  7  8  1  6
  7  9  1  0
  9 10  2  0
 12 11  1  0
 13 14  1  0
 14 15  2  0
 16 14  1  0
 17 16  1  1
 17 19  1  0
 18  9  1  0
 18 17  1  0
 19 21  1  0
 20 19  2  0
 21 22  1  0
 22 25  1  0
 23 24  1  0
 22 23  1  6
 25 26  2  0
 25 27  1  0
M  END
$$$$
