YNC.pdb
     RDKit          3D

 27 27  0  0  1  0  0  0  0  0999 V2000
   19.1677  -14.2205  -21.0971 O   0  0  0  0  0  0  0  0  0  0  0  0
   19.1431  -13.1729  -20.1743 C   0  0  0  0  0  0  0  0  0  0  0  0
   19.4524  -11.8908  -20.5573 C   0  0  0  0  0  0  0  0  0  0  0  0
   19.4201  -10.8748  -19.6250 C   0  0  0  0  0  0  0  0  0  0  0  0
   19.0865  -11.0934  -18.3082 C   0  0  0  0  0  0  0  0  0  0  0  0
   19.0449  -10.0213  -17.2948 C   0  0  0  0  0  0  0  0  0  0  0  0
   20.4487   -9.8212  -16.7641 C   0  0  2  0  0  0  0  0  0  0  0  0
   20.8238  -11.0073  -16.0195 N   0  0  0  0  0  0  0  0  0  0  0  0
   20.5229   -8.6654  -15.8366 C   0  0  0  0  0  0  0  0  0  0  0  0
   20.5293   -8.8382  -14.5709 O   0  0  0  0  0  0  0  0  0  0  0  0
   18.7784  -12.3736  -17.9288 C   0  0  0  0  0  0  0  0  0  0  0  0
   18.8096  -13.4053  -18.8686 C   0  0  0  0  0  0  0  0  0  0  0  0
   22.2857   -5.5289  -12.3044 N   0  0  0  0  0  0  0  0  0  0  0  0
   22.4675   -5.3795  -13.7050 C   0  0  0  0  0  0  0  0  0  0  0  0
   23.0233   -4.3401  -14.1117 O   0  0  0  0  0  0  0  0  0  0  0  0
   22.0168   -6.4097  -14.6190 C   0  0  0  0  0  0  0  0  0  0  0  0
   20.7486   -6.1825  -15.3549 C   0  0  2  0  0  0  0  0  0  0  0  0
   20.5900   -7.3267  -16.2640 N   0  0  0  0  0  0  0  0  0  0  0  0
   20.6415   -4.9774  -16.1578 C   0  0  0  0  0  0  0  0  0  0  0  0
   21.0419   -4.9424  -17.3398 O   0  0  0  0  0  0  0  0  0  0  0  0
   20.0765   -3.7612  -15.6560 N   0  0  0  0  0  0  0  0  0  0  0  0
   19.8012   -2.6320  -16.5059 C   0  0  1  0  0  0  0  0  0  0  0  0
   18.9331   -3.1116  -17.6515 C   0  0  0  0  0  0  0  0  0  0  0  0
   18.3340   -1.7167  -18.6483 S   0  0  0  0  0  0  0  0  0  0  0  0
   19.1730   -1.5117  -15.7851 C   0  0  0  0  0  0  0  0  0  0  0  0
   18.2928   -1.6910  -14.9154 O   0  0  0  0  0  0  0  0  0  0  0  0
   19.5636   -0.2198  -16.0736 O   0  0  0  0  0  0  0  0  0  0  0  0
  1  2  1  0
  2 12  2  0
  3  4  2  0
  3  2  1  0
  4  5  1  0
  5  6  1  0
  5 11  2  0
  6  7  1  0
  7  8  1  1
  7  9  1  0
  9 10  2  0
 12 11  1  0
 13 14  1  0
 14 15  2  0
 16 14  1  0
 17 16  1  6
 17 19  1  0
 18  9  1  0
 18 17  1  0
 19 21  1  0
 20 19  2  0
 21 22  1  0
 22 25  1  0
 23 24  1  0
 22 23  1  6
 25 26  2  0
 25 27  1  0
M  END
$$$$
