YNC.pdb
     RDKit          3D

 27 27  0  0  1  0  0  0  0  0999 V2000
   17.7867  -16.4882  -14.3986 O   0  0  0  0  0  0  0  0  0  0  0  0
   18.6907  -17.4535  -13.9507 C   0  0  0  0  0  0  0  0  0  0  0  0
   18.6614  -18.7315  -14.4529 C   0  0  0  0  0  0  0  0  0  0  0  0
   19.5662  -19.6652  -13.9926 C   0  0  0  0  0  0  0  0  0  0  0  0
   20.5110  -19.3674  -13.0378 C   0  0  0  0  0  0  0  0  0  0  0  0
   21.4887  -20.3505  -12.5320 C   0  0  0  0  0  0  0  0  0  0  0  0
   22.6675  -20.3729  -13.4820 C   0  0  2  0  0  0  0  0  0  0  0  0
   22.2927  -21.1469  -14.6493 N   0  0  0  0  0  0  0  0  0  0  0  0
   23.8506  -21.0261  -12.8698 C   0  0  0  0  0  0  0  0  0  0  0  0
   23.9168  -22.2973  -12.7620 O   0  0  0  0  0  0  0  0  0  0  0  0
   20.5381  -18.0917  -12.5384 C   0  0  0  0  0  0  0  0  0  0  0  0
   19.6245  -17.1430  -13.0010 C   0  0  0  0  0  0  0  0  0  0  0  0
   29.6593  -20.2009  -11.8769 N   0  0  0  0  0  0  0  0  0  0  0  0
   28.5710  -21.1120  -11.9282 C   0  0  0  0  0  0  0  0  0  0  0  0
   28.7580  -22.2663  -11.4957 O   0  0  0  0  0  0  0  0  0  0  0  0
   27.2913  -20.6991  -12.4683 C   0  0  0  0  0  0  0  0  0  0  0  0
   26.0774  -20.9468  -11.6519 C   0  0  2  0  0  0  0  0  0  0  0  0
   24.9612  -20.3191  -12.3736 N   0  0  0  0  0  0  0  0  0  0  0  0
   26.0591  -20.4272  -10.2961 C   0  0  0  0  0  0  0  0  0  0  0  0
   25.9033  -19.2103  -10.0651 O   0  0  0  0  0  0  0  0  0  0  0  0
   26.2165  -21.2639   -9.1449 N   0  0  0  0  0  0  0  0  0  0  0  0
   26.5625  -20.7358   -7.8508 C   0  0  1  0  0  0  0  0  0  0  0  0
   26.3802  -21.8424   -6.8319 C   0  0  0  0  0  0  0  0  0  0  0  0
   26.9943  -21.3375   -5.1991 S   0  0  0  0  0  0  0  0  0  0  0  0
   27.9251  -20.1788   -7.8046 C   0  0  0  0  0  0  0  0  0  0  0  0
   28.8945  -20.7471   -8.3530 O   0  0  0  0  0  0  0  0  0  0  0  0
   28.1466  -18.9916   -7.1366 O   0  0  0  0  0  0  0  0  0  0  0  0
  1  2  1  0
  2 12  2  0
  3  4  2  0
  3  2  1  0
  4  5  1  0
  5  6  1  0
  5 11  2  0
  6  7  1  0
  7  8  1  6
  7  9  1  0
  9 10  2  0
 12 11  1  0
 13 14  1  0
 14 15  2  0
 16 14  1  0
 17 16  1  6
 17 19  1  0
 18  9  1  0
 18 17  1  0
 19 21  1  0
 20 19  2  0
 21 22  1  0
 22 25  1  0
 23 24  1  0
 22 23  1  1
 25 26  2  0
 25 27  1  0
M  END
$$$$
