YNC.pdb
     RDKit          3D

 27 27  0  0  1  0  0  0  0  0999 V2000
   29.2192  -19.7239   -3.9357 O   0  0  0  0  0  0  0  0  0  0  0  0
   28.4250  -19.7980   -5.0817 C   0  0  0  0  0  0  0  0  0  0  0  0
   28.0638  -18.6608   -5.7619 C   0  0  0  0  0  0  0  0  0  0  0  0
   27.2785  -18.7629   -6.8912 C   0  0  0  0  0  0  0  0  0  0  0  0
   26.8347  -19.9728   -7.3731 C   0  0  0  0  0  0  0  0  0  0  0  0
   25.9948  -20.1049   -8.5795 C   0  0  0  0  0  0  0  0  0  0  0  0
   26.8128  -20.7983   -9.6484 C   0  0  2  0  0  0  0  0  0  0  0  0
   28.0268  -20.0334   -9.8558 N   0  0  0  0  0  0  0  0  0  0  0  0
   26.0884  -20.8522  -10.9421 C   0  0  0  0  0  0  0  0  0  0  0  0
   26.0609  -19.8411  -11.7223 O   0  0  0  0  0  0  0  0  0  0  0  0
   27.1965  -21.1058   -6.6926 C   0  0  0  0  0  0  0  0  0  0  0  0
   27.9911  -21.0077   -5.5491 C   0  0  0  0  0  0  0  0  0  0  0  0
   23.8156  -25.1498  -14.6030 N   0  0  0  0  0  0  0  0  0  0  0  0
   24.2768  -23.8163  -14.4419 C   0  0  0  0  0  0  0  0  0  0  0  0
   24.0687  -23.0125  -15.3721 O   0  0  0  0  0  0  0  0  0  0  0  0
   24.9650  -23.4176  -13.2306 C   0  0  0  0  0  0  0  0  0  0  0  0
   24.7029  -22.0591  -12.6947 C   0  0  2  0  0  0  0  0  0  0  0  0
   25.3943  -21.9873  -11.3995 N   0  0  0  0  0  0  0  0  0  0  0  0
   23.3200  -21.6800  -12.4654 C   0  0  0  0  0  0  0  0  0  0  0  0
   22.7185  -22.0042  -11.4206 O   0  0  0  0  0  0  0  0  0  0  0  0
   22.5602  -20.9177  -13.4097 N   0  0  0  0  0  0  0  0  0  0  0  0
   21.1551  -20.6555  -13.2349 C   0  0  1  0  0  0  0  0  0  0  0  0
   20.8410  -19.3333  -13.9047 C   0  0  0  0  0  0  0  0  0  0  0  0
   19.0689  -18.9500  -13.7992 S   0  0  0  0  0  0  0  0  0  0  0  0
   20.3013  -21.7386  -13.7516 C   0  0  0  0  0  0  0  0  0  0  0  0
   20.5530  -22.3291  -14.8247 O   0  0  0  0  0  0  0  0  0  0  0  0
   19.1859  -22.1196  -13.0336 O   0  0  0  0  0  0  0  0  0  0  0  0
  1  2  1  0
  2 12  2  0
  3  4  2  0
  3  2  1  0
  4  5  1  0
  5  6  1  0
  5 11  2  0
  6  7  1  0
  7  8  1  6
  7  9  1  0
  9 10  2  0
 12 11  1  0
 13 14  1  0
 14 15  2  0
 16 14  1  0
 17 16  1  1
 17 19  1  0
 18  9  1  0
 18 17  1  0
 19 21  1  0
 20 19  2  0
 21 22  1  0
 22 25  1  0
 23 24  1  0
 22 23  1  6
 25 26  2  0
 25 27  1  0
M  END
$$$$
