CVQ.pdb
     RDKit          3D

 23 22  0  0  1  0  0  0  0  0999 V2000
    9.0950  -17.4486   16.2589 N   0  0  0  0  0  0  0  0  0  0  0  0
    8.0597  -17.0693   17.1809 C   0  0  1  0  0  0  0  0  0  0  0  0
    7.3313  -18.2951   17.6358 C   0  0  0  0  0  0  0  0  0  0  0  0
    6.2126  -18.8656   16.3097 S   0  0  0  0  0  0  0  0  0  0  0  0
    8.6906  -16.4272   18.3749 C   0  0  0  0  0  0  0  0  0  0  0  0
    9.8530  -16.7348   18.6527 O   0  0  0  0  0  0  0  0  0  0  0  0
    7.3419  -12.7240   19.5923 C   0  0  0  0  0  0  0  0  0  0  0  0
    7.3686  -13.7490   20.7129 C   0  0  2  0  0  0  0  0  0  0  0  0
    7.8780  -12.9978   21.9253 C   0  0  0  0  0  0  0  0  0  0  0  0
    8.4111  -14.7887   20.3278 C   0  0  2  0  0  0  0  0  0  0  0  0
    7.9791  -15.5168   19.1359 N   0  0  0  0  0  0  0  0  0  0  0  0
    8.7798  -15.7301   21.3827 C   0  0  0  0  0  0  0  0  0  0  0  0
    7.8744  -16.5751   21.7778 O   0  0  0  0  0  0  0  0  0  0  0  0
   12.1927  -20.5458   21.6218 N   0  0  0  0  0  0  0  0  0  0  0  0
   12.7782  -19.2534   21.5479 C   0  0  0  0  0  0  0  0  0  0  0  0
   13.9197  -19.2032   21.0280 O   0  0  0  0  0  0  0  0  0  0  0  0
   12.1423  -18.0329   22.0257 C   0  0  0  0  0  0  0  0  0  0  0  0
   10.7647  -18.1547   22.5592 C   0  0  0  0  0  0  0  0  0  0  0  0
   10.2190  -16.8878   23.1049 C   0  0  2  0  0  0  0  0  0  0  0  0
    9.9935  -15.8797   22.0614 N   0  0  0  0  0  0  0  0  0  0  0  0
   10.9642  -16.3611   24.2594 C   0  0  0  0  0  0  0  0  0  0  0  0
   11.1420  -17.1370   25.3823 O   0  0  0  0  0  0  0  0  0  0  0  0
   11.4376  -15.2132   24.2280 O   0  0  0  0  0  0  0  0  0  0  0  0
  2  5  1  0
  2  3  1  0
  2  1  1  6
  3  4  1  0
  5  6  2  0
  8  7  1  6
  8 10  1  0
  9  8  1  0
 10 12  1  0
 10 11  1  6
 11  5  1  0
 12 13  2  0
 12 20  1  0
 15 14  1  0
 16 15  2  0
 17 15  1  0
 18 17  1  0
 19 18  1  6
 20 19  1  0
 21 22  1  0
 21 19  1  0
 23 21  2  0
M  END
$$$$
