CVQ.pdb
     RDKit          3D

 23 22  0  0  1  0  0  0  0  0999 V2000
    5.6392  -17.3098   22.3050 N   0  0  0  0  0  0  0  0  0  0  0  0
    5.6860  -17.2249   23.7390 C   0  0  1  0  0  0  0  0  0  0  0  0
    5.9539  -18.5843   24.3049 C   0  0  0  0  0  0  0  0  0  0  0  0
    6.0680  -18.4745   26.1243 S   0  0  0  0  0  0  0  0  0  0  0  0
    6.8120  -16.3223   24.1309 C   0  0  0  0  0  0  0  0  0  0  0  0
    7.8643  -16.3959   23.4905 O   0  0  0  0  0  0  0  0  0  0  0  0
    6.2254  -12.5346   25.5315 C   0  0  0  0  0  0  0  0  0  0  0  0
    6.9421  -13.4184   26.5377 C   0  0  2  0  0  0  0  0  0  0  0  0
    8.0011  -12.5325   27.1601 C   0  0  0  0  0  0  0  0  0  0  0  0
    7.6450  -14.5067   25.7390 C   0  0  2  0  0  0  0  0  0  0  0  0
    6.6631  -15.4362   25.1829 N   0  0  0  0  0  0  0  0  0  0  0  0
    8.6809  -15.2447   26.4581 C   0  0  0  0  0  0  0  0  0  0  0  0
    8.2989  -16.0447   27.4089 O   0  0  0  0  0  0  0  0  0  0  0  0
   14.8281  -17.2302   25.5815 N   0  0  0  0  0  0  0  0  0  0  0  0
   14.1984  -16.0453   25.1147 C   0  0  0  0  0  0  0  0  0  0  0  0
   14.9493  -15.2236   24.5344 O   0  0  0  0  0  0  0  0  0  0  0  0
   12.7801  -15.7508   25.2694 C   0  0  0  0  0  0  0  0  0  0  0  0
   11.9495  -16.7731   25.9493 C   0  0  0  0  0  0  0  0  0  0  0  0
   10.9710  -16.2081   26.9105 C   0  0  2  0  0  0  0  0  0  0  0  0
   10.0685  -15.2342   26.2836 N   0  0  0  0  0  0  0  0  0  0  0  0
   11.5732  -15.7114   28.1581 C   0  0  0  0  0  0  0  0  0  0  0  0
   12.3139  -16.5553   28.9542 O   0  0  0  0  0  0  0  0  0  0  0  0
   11.4170  -14.5278   28.5006 O   0  0  0  0  0  0  0  0  0  0  0  0
  2  5  1  0
  2  3  1  0
  2  1  1  6
  3  4  1  0
  5  6  2  0
  8  7  1  6
  8 10  1  0
  9  8  1  0
 10 12  1  0
 10 11  1  1
 11  5  1  0
 12 13  2  0
 12 20  1  0
 15 14  1  0
 16 15  2  0
 17 15  1  0
 18 17  1  0
 19 18  1  6
 20 19  1  0
 21 22  1  0
 21 19  1  0
 23 21  2  0
M  END
$$$$
