CVQ.pdb
     RDKit          3D

 23 22  0  0  1  0  0  0  0  0999 V2000
    5.1643  -13.1537   26.6083 N   0  0  0  0  0  0  0  0  0  0  0  0
    6.3887  -12.7049   26.0040 C   0  0  1  0  0  0  0  0  0  0  0  0
    7.3371  -12.2691   27.0767 C   0  0  0  0  0  0  0  0  0  0  0  0
    7.5512  -10.4570   27.0003 S   0  0  0  0  0  0  0  0  0  0  0  0
    7.0078  -13.8482   25.2653 C   0  0  0  0  0  0  0  0  0  0  0  0
    7.0447  -14.9479   25.8239 O   0  0  0  0  0  0  0  0  0  0  0  0
    7.0695  -13.5921   21.1670 C   0  0  0  0  0  0  0  0  0  0  0  0
    8.4079  -14.0216   21.7425 C   0  0  2  0  0  0  0  0  0  0  0  0
    8.9075  -15.1097   20.8150 C   0  0  0  0  0  0  0  0  0  0  0  0
    8.1180  -14.6510   23.0975 C   0  0  2  0  0  0  0  0  0  0  0  0
    7.5199  -13.6627   23.9935 N   0  0  0  0  0  0  0  0  0  0  0  0
    9.2575  -15.2924   23.7496 C   0  0  0  0  0  0  0  0  0  0  0  0
   10.1445  -14.5214   24.3049 O   0  0  0  0  0  0  0  0  0  0  0  0
    9.3968  -19.3826   28.3486 N   0  0  0  0  0  0  0  0  0  0  0  0
   10.7530  -19.1887   27.9726 C   0  0  0  0  0  0  0  0  0  0  0  0
   11.6083  -19.6495   28.7676 O   0  0  0  0  0  0  0  0  0  0  0  0
   11.1814  -18.5096   26.7571 C   0  0  0  0  0  0  0  0  0  0  0  0
   10.1195  -17.9477   25.8887 C   0  0  0  0  0  0  0  0  0  0  0  0
   10.6366  -17.1603   24.7427 C   0  0  2  0  0  0  0  0  0  0  0  0
    9.5611  -16.6512   23.8824 N   0  0  0  0  0  0  0  0  0  0  0  0
   11.7062  -17.8314   23.9871 C   0  0  0  0  0  0  0  0  0  0  0  0
   12.9968  -17.8333   24.4655 O   0  0  0  0  0  0  0  0  0  0  0  0
   11.4514  -18.4004   22.9128 O   0  0  0  0  0  0  0  0  0  0  0  0
  2  5  1  0
  2  3  1  0
  2  1  1  1
  3  4  1  0
  5  6  2  0
  8  7  1  6
  8 10  1  0
  9  8  1  0
 10 12  1  0
 10 11  1  1
 11  5  1  0
 12 13  2  0
 12 20  1  0
 15 14  1  0
 16 15  2  0
 17 15  1  0
 18 17  1  0
 19 18  1  1
 20 19  1  0
 21 22  1  0
 21 19  1  0
 23 21  2  0
M  END
$$$$
