CVQ.pdb
     RDKit          3D

 23 22  0  0  1  0  0  0  0  0999 V2000
    8.1197  -15.0694   20.6083 N   0  0  0  0  0  0  0  0  0  0  0  0
    7.3957  -15.3115   21.8260 C   0  0  1  0  0  0  0  0  0  0  0  0
    7.2243  -16.7866   22.0127 C   0  0  0  0  0  0  0  0  0  0  0  0
    6.0188  -17.4182   20.7948 S   0  0  0  0  0  0  0  0  0  0  0  0
    8.1946  -14.7821   22.9739 C   0  0  0  0  0  0  0  0  0  0  0  0
    9.4247  -14.8539   22.9066 O   0  0  0  0  0  0  0  0  0  0  0  0
    7.8204  -12.3088   27.2792 C   0  0  0  0  0  0  0  0  0  0  0  0
    7.1311  -12.8252   26.0280 C   0  0  2  0  0  0  0  0  0  0  0  0
    6.0324  -13.7392   26.5290 C   0  0  0  0  0  0  0  0  0  0  0  0
    8.1529  -13.6754   25.2869 C   0  0  2  0  0  0  0  0  0  0  0  0
    7.5587  -14.2310   24.0721 N   0  0  0  0  0  0  0  0  0  0  0  0
    8.7731  -14.7401   26.0723 C   0  0  0  0  0  0  0  0  0  0  0  0
    8.0548  -15.7920   26.3320 O   0  0  0  0  0  0  0  0  0  0  0  0
   13.7120  -15.3107   24.6908 N   0  0  0  0  0  0  0  0  0  0  0  0
   12.5233  -16.0773   24.5575 C   0  0  0  0  0  0  0  0  0  0  0  0
   11.9317  -15.9748   23.4551 O   0  0  0  0  0  0  0  0  0  0  0  0
   11.9810  -16.9430   25.5961 C   0  0  0  0  0  0  0  0  0  0  0  0
   11.9130  -16.3879   26.9689 C   0  0  0  0  0  0  0  0  0  0  0  0
   10.5504  -15.9689   27.3793 C   0  0  2  0  0  0  0  0  0  0  0  0
   10.0624  -14.8183   26.6086 N   0  0  0  0  0  0  0  0  0  0  0  0
   10.3871  -15.7970   28.8317 C   0  0  0  0  0  0  0  0  0  0  0  0
   10.5967  -16.8579   29.6832 O   0  0  0  0  0  0  0  0  0  0  0  0
   10.0591  -14.6938   29.2984 O   0  0  0  0  0  0  0  0  0  0  0  0
  2  5  1  0
  2  3  1  0
  2  1  1  6
  3  4  1  0
  5  6  2  0
  8  7  1  1
  8 10  1  0
  9  8  1  0
 10 12  1  0
 10 11  1  6
 11  5  1  0
 12 13  2  0
 12 20  1  0
 15 14  1  0
 16 15  2  0
 17 15  1  0
 18 17  1  0
 19 18  1  1
 20 19  1  0
 21 22  1  0
 21 19  1  0
 23 21  2  0
M  END
$$$$
