CVQ.pdb
     RDKit          3D

 23 22  0  0  1  0  0  0  0  0999 V2000
    7.8054  -14.2350   20.4387 N   0  0  0  0  0  0  0  0  0  0  0  0
    6.9046  -14.2210   21.5586 C   0  0  1  0  0  0  0  0  0  0  0  0
    6.1651  -15.5212   21.6126 C   0  0  0  0  0  0  0  0  0  0  0  0
    7.3613  -16.8985   21.7002 S   0  0  0  0  0  0  0  0  0  0  0  0
    7.7022  -14.0813   22.8157 C   0  0  0  0  0  0  0  0  0  0  0  0
    8.9116  -14.3217   22.7652 O   0  0  0  0  0  0  0  0  0  0  0  0
    6.6909  -11.4208   25.8240 C   0  0  0  0  0  0  0  0  0  0  0  0
    6.7038  -12.8739   26.2659 C   0  0  2  0  0  0  0  0  0  0  0  0
    7.3129  -12.8613   27.6525 C   0  0  0  0  0  0  0  0  0  0  0  0
    7.6612  -13.6040   25.3350 C   0  0  2  0  0  0  0  0  0  0  0  0
    7.0880  -13.6931   23.9930 N   0  0  0  0  0  0  0  0  0  0  0  0
    8.0893  -14.9267   25.7847 C   0  0  0  0  0  0  0  0  0  0  0  0
    7.1961  -15.8709   25.8113 O   0  0  0  0  0  0  0  0  0  0  0  0
   12.7227  -16.9476   22.9173 N   0  0  0  0  0  0  0  0  0  0  0  0
   12.4566  -17.5421   24.1800 C   0  0  0  0  0  0  0  0  0  0  0  0
   12.9251  -18.6947   24.3471 O   0  0  0  0  0  0  0  0  0  0  0  0
   11.6983  -16.9035   25.2473 C   0  0  0  0  0  0  0  0  0  0  0  0
   10.3856  -17.4998   25.5916 C   0  0  0  0  0  0  0  0  0  0  0  0
    9.6340  -16.7409   26.6212 C   0  0  2  0  0  0  0  0  0  0  0  0
    9.3504  -15.3618   26.2046 N   0  0  0  0  0  0  0  0  0  0  0  0
   10.2141  -16.8243   27.9711 C   0  0  0  0  0  0  0  0  0  0  0  0
   10.5147  -15.6765   28.6686 O   0  0  0  0  0  0  0  0  0  0  0  0
   10.4361  -17.9309   28.4896 O   0  0  0  0  0  0  0  0  0  0  0  0
  2  5  1  0
  2  3  1  0
  2  1  1  6
  3  4  1  0
  5  6  2  0
  8  7  1  6
  8 10  1  0
  9  8  1  0
 10 12  1  0
 10 11  1  6
 11  5  1  0
 12 13  2  0
 12 20  1  0
 15 14  1  0
 16 15  2  0
 17 15  1  0
 18 17  1  0
 19 18  1  6
 20 19  1  0
 21 22  1  0
 21 19  1  0
 23 21  2  0
M  END
$$$$
