CVQ.pdb
     RDKit          3D

 23 22  0  0  1  0  0  0  0  0999 V2000
    4.9912  -13.2888   26.1910 N   0  0  0  0  0  0  0  0  0  0  0  0
    6.3369  -12.9971   25.7792 C   0  0  1  0  0  0  0  0  0  0  0  0
    7.1911  -12.7970   26.9917 C   0  0  0  0  0  0  0  0  0  0  0  0
    8.9244  -12.5363   26.4788 S   0  0  0  0  0  0  0  0  0  0  0  0
    6.8706  -14.1671   25.0161 C   0  0  0  0  0  0  0  0  0  0  0  0
    6.6539  -15.2976   25.4609 O   0  0  0  0  0  0  0  0  0  0  0  0
    6.9337  -14.0500   21.0687 C   0  0  0  0  0  0  0  0  0  0  0  0
    8.3290  -14.3998   21.5565 C   0  0  2  0  0  0  0  0  0  0  0  0
    8.8011  -15.5119   20.6432 C   0  0  0  0  0  0  0  0  0  0  0  0
    8.1700  -14.9731   22.9573 C   0  0  2  0  0  0  0  0  0  0  0  0
    7.5845  -13.9717   23.8472 N   0  0  0  0  0  0  0  0  0  0  0  0
    9.3857  -15.5223   23.5536 C   0  0  0  0  0  0  0  0  0  0  0  0
   10.3499  -14.6936   23.8242 O   0  0  0  0  0  0  0  0  0  0  0  0
   10.5567  -19.7537   28.0033 N   0  0  0  0  0  0  0  0  0  0  0  0
   10.0652  -18.4254   27.8916 C   0  0  0  0  0  0  0  0  0  0  0  0
    9.5269  -17.9568   28.9243 O   0  0  0  0  0  0  0  0  0  0  0  0
   10.1539  -17.6133   26.6854 C   0  0  0  0  0  0  0  0  0  0  0  0
   10.9233  -18.1749   25.5496 C   0  0  0  0  0  0  0  0  0  0  0  0
   11.0136  -17.2672   24.3797 C   0  0  2  0  0  0  0  0  0  0  0  0
    9.6935  -16.8427   23.8971 N   0  0  0  0  0  0  0  0  0  0  0  0
   11.8863  -17.7611   23.3027 C   0  0  0  0  0  0  0  0  0  0  0  0
   11.3452  -18.3989   22.2095 O   0  0  0  0  0  0  0  0  0  0  0  0
   13.1165  -17.6055   23.3730 O   0  0  0  0  0  0  0  0  0  0  0  0
  2  5  1  0
  2  3  1  0
  2  1  1  1
  3  4  1  0
  5  6  2  0
  8  7  1  6
  8 10  1  0
  9  8  1  0
 10 12  1  0
 10 11  1  1
 11  5  1  0
 12 13  2  0
 12 20  1  0
 15 14  1  0
 16 15  2  0
 17 15  1  0
 18 17  1  0
 19 18  1  1
 20 19  1  0
 21 22  1  0
 21 19  1  0
 23 21  2  0
M  END
$$$$
