TSA.pdb
     RDKit          3D

 19 18  0  0  1  0  0  0  0  0999 V2000
   25.2792  -12.7111  -15.6653 C   0  0  0  0  0  0  0  0  0  0  0  0
   25.3729  -13.5682  -16.9040 C   0  0  1  0  0  0  0  0  0  0  0  0
   26.1549  -14.6889  -16.7171 O   0  0  0  0  0  0  0  0  0  0  0  0
   23.9686  -14.0301  -17.2501 C   0  0  2  0  0  0  0  0  0  0  0  0
   24.0058  -14.9034  -18.4365 N   0  0  0  0  0  0  0  0  0  0  0  0
   23.0475  -12.9335  -17.5618 C   0  0  0  0  0  0  0  0  0  0  0  0
   23.0122  -12.3851  -18.7196 O   0  0  0  0  0  0  0  0  0  0  0  0
   19.8298  -12.0852  -15.1889 O   0  0  0  0  0  0  0  0  0  0  0  0
   19.8398  -11.7236  -16.5190 C   0  0  0  0  0  0  0  0  0  0  0  0
   21.2278  -11.2633  -16.9895 C   0  0  2  0  0  0  0  0  0  0  0  0
   22.1176  -12.3698  -16.6481 N   0  0  0  0  0  0  0  0  0  0  0  0
   21.6412  -10.0380  -16.3031 C   0  0  0  0  0  0  0  0  0  0  0  0
   22.2359  -10.1142  -15.2048 O   0  0  0  0  0  0  0  0  0  0  0  0
   21.5031   -6.3716  -17.1559 C   0  0  0  0  0  0  0  0  0  0  0  0
   21.7380   -7.5363  -16.2102 C   0  0  2  0  0  0  0  0  0  0  0  0
   21.3842   -8.7596  -16.8531 N   0  0  0  0  0  0  0  0  0  0  0  0
   20.9544   -7.3917  -14.9648 C   0  0  0  0  0  0  0  0  0  0  0  0
   21.3256   -6.5649  -13.9114 O   0  0  0  0  0  0  0  0  0  0  0  0
   19.8962   -8.0424  -14.8355 O   0  0  0  0  0  0  0  0  0  0  0  0
  2  3  1  0
  2  1  1  1
  4  2  1  0
  4  5  1  6
  6 11  1  0
  6  4  1  0
  7  6  2  0
  9  8  1  0
 10  9  1  1
 10 11  1  0
 10 12  1  0
 12 16  1  0
 13 12  2  0
 15 14  1  6
 15 17  1  0
 16 15  1  0
 17 19  2  0
 17 18  1  0
M  END
$$$$
