TSA.pdb
     RDKit          3D

 19 18  0  0  1  0  0  0  0  0999 V2000
   24.4785  -11.3140  -15.4008 C   0  0  0  0  0  0  0  0  0  0  0  0
   24.2401  -12.0713  -16.6842 C   0  0  1  0  0  0  0  0  0  0  0  0
   24.7133  -13.3659  -16.6333 O   0  0  0  0  0  0  0  0  0  0  0  0
   22.7400  -12.1301  -16.9108 C   0  0  2  0  0  0  0  0  0  0  0  0
   22.4512  -12.8155  -18.1829 N   0  0  0  0  0  0  0  0  0  0  0  0
   22.1034  -10.8121  -16.9875 C   0  0  0  0  0  0  0  0  0  0  0  0
   22.1617  -10.0907  -18.0452 O   0  0  0  0  0  0  0  0  0  0  0  0
   19.5632   -9.4809  -14.0265 O   0  0  0  0  0  0  0  0  0  0  0  0
   19.4199   -9.0072  -15.3130 C   0  0  0  0  0  0  0  0  0  0  0  0
   20.7659   -8.8769  -16.0415 C   0  0  2  0  0  0  0  0  0  0  0  0
   21.3719  -10.2013  -15.9342 N   0  0  0  0  0  0  0  0  0  0  0  0
   21.6164   -7.8674  -15.4082 C   0  0  0  0  0  0  0  0  0  0  0  0
   22.3016   -8.1747  -14.4073 O   0  0  0  0  0  0  0  0  0  0  0  0
   22.4705   -4.2836  -16.1963 C   0  0  0  0  0  0  0  0  0  0  0  0
   22.4906   -5.5214  -15.3168 C   0  0  2  0  0  0  0  0  0  0  0  0
   21.6848   -6.5429  -15.9019 N   0  0  0  0  0  0  0  0  0  0  0  0
   21.9982   -5.2279  -13.9540 C   0  0  0  0  0  0  0  0  0  0  0  0
   22.7828   -4.6645  -12.9550 O   0  0  0  0  0  0  0  0  0  0  0  0
   20.8123   -5.4953  -13.6674 O   0  0  0  0  0  0  0  0  0  0  0  0
  2  3  1  0
  2  1  1  1
  4  2  1  0
  4  5  1  6
  6 11  1  0
  6  4  1  0
  7  6  2  0
  9  8  1  0
 10  9  1  1
 10 11  1  0
 10 12  1  0
 12 16  1  0
 13 12  2  0
 15 14  1  6
 15 17  1  0
 16 15  1  0
 17 19  2  0
 17 18  1  0
M  END
$$$$
