TSA.pdb
     RDKit          3D

 19 18  0  0  1  0  0  0  0  0999 V2000
   22.0219  -10.6652  -17.1998 C   0  0  0  0  0  0  0  0  0  0  0  0
   20.8729  -11.1377  -18.0567 C   0  0  1  0  0  0  0  0  0  0  0  0
   21.0484  -12.4256  -18.5182 O   0  0  0  0  0  0  0  0  0  0  0  0
   19.6205  -11.1149  -17.1987 C   0  0  2  0  0  0  0  0  0  0  0  0
   18.4788  -11.6473  -17.9632 N   0  0  0  0  0  0  0  0  0  0  0  0
   19.2385   -9.7732  -16.7490 C   0  0  0  0  0  0  0  0  0  0  0  0
   18.8976   -8.8526  -17.5729 O   0  0  0  0  0  0  0  0  0  0  0  0
   19.0316   -8.7642  -12.7010 O   0  0  0  0  0  0  0  0  0  0  0  0
   18.2536   -8.0940  -13.6207 C   0  0  0  0  0  0  0  0  0  0  0  0
   18.9403   -7.9723  -14.9893 C   0  0  2  0  0  0  0  0  0  0  0  0
   19.2025   -9.3509  -15.3933 N   0  0  0  0  0  0  0  0  0  0  0  0
   20.1906   -7.2169  -14.8903 C   0  0  0  0  0  0  0  0  0  0  0  0
   21.2609   -7.8198  -14.6524 O   0  0  0  0  0  0  0  0  0  0  0  0
   21.1211   -3.6033  -15.4041 C   0  0  0  0  0  0  0  0  0  0  0  0
   21.4127   -5.0317  -14.9790 C   0  0  2  0  0  0  0  0  0  0  0  0
   20.2210   -5.8120  -15.0577 N   0  0  0  0  0  0  0  0  0  0  0  0
   21.9479   -5.0906  -13.6021 C   0  0  0  0  0  0  0  0  0  0  0  0
   21.2247   -5.5610  -12.5128 O   0  0  0  0  0  0  0  0  0  0  0  0
   23.1146   -4.6993  -13.3880 O   0  0  0  0  0  0  0  0  0  0  0  0
  2  3  1  0
  2  1  1  1
  4  2  1  0
  4  5  1  6
  6 11  1  0
  6  4  1  0
  7  6  2  0
  9  8  1  0
 10  9  1  1
 10 11  1  0
 10 12  1  0
 12 16  1  0
 13 12  2  0
 15 14  1  1
 15 17  1  0
 16 15  1  0
 17 19  2  0
 17 18  1  0
M  END
$$$$
