TSA.pdb
     RDKit          3D

 19 18  0  0  1  0  0  0  0  0999 V2000
   15.1887   -7.0471  -13.6885 C   0  0  0  0  0  0  0  0  0  0  0  0
   14.9506   -8.3955  -14.3232 C   0  0  1  0  0  0  0  0  0  0  0  0
   13.6316   -8.7920  -14.2501 O   0  0  0  0  0  0  0  0  0  0  0  0
   15.3252   -8.2850  -15.7903 C   0  0  2  0  0  0  0  0  0  0  0  0
   15.0940   -9.5742  -16.4657 N   0  0  0  0  0  0  0  0  0  0  0  0
   16.7311   -7.9369  -16.0151 C   0  0  0  0  0  0  0  0  0  0  0  0
   17.6587   -8.8212  -16.0090 O   0  0  0  0  0  0  0  0  0  0  0  0
   18.0312   -3.9883  -16.8003 O   0  0  0  0  0  0  0  0  0  0  0  0
   18.6400   -5.0876  -17.3667 C   0  0  0  0  0  0  0  0  0  0  0  0
   18.6284   -6.3079  -16.4338 C   0  0  2  0  0  0  0  0  0  0  0  0
   17.2134   -6.6231  -16.2580 N   0  0  0  0  0  0  0  0  0  0  0  0
   19.2518   -5.9972  -15.1460 C   0  0  0  0  0  0  0  0  0  0  0  0
   18.5954   -5.3895  -14.2711 O   0  0  0  0  0  0  0  0  0  0  0  0
   22.3976   -7.0509  -13.4245 C   0  0  0  0  0  0  0  0  0  0  0  0
   21.2410   -6.0876  -13.6257 C   0  0  2  0  0  0  0  0  0  0  0  0
   20.5875   -6.3689  -14.8622 N   0  0  0  0  0  0  0  0  0  0  0  0
   21.6976   -4.6814  -13.6205 C   0  0  0  0  0  0  0  0  0  0  0  0
   22.0398   -3.9857  -12.4673 O   0  0  0  0  0  0  0  0  0  0  0  0
   21.7865   -4.0690  -14.7055 O   0  0  0  0  0  0  0  0  0  0  0  0
  2  3  1  0
  2  1  1  6
  4  2  1  0
  4  5  1  6
  6 11  1  0
  6  4  1  0
  7  6  2  0
  9  8  1  0
 10  9  1  6
 10 11  1  0
 10 12  1  0
 12 16  1  0
 13 12  2  0
 15 14  1  6
 15 17  1  0
 16 15  1  0
 17 19  2  0
 17 18  1  0
M  END
$$$$
