TSA.pdb
     RDKit          3D

 19 18  0  0  1  0  0  0  0  0999 V2000
   16.0442  -11.3339  -16.9141 C   0  0  0  0  0  0  0  0  0  0  0  0
   17.1221  -10.4862  -16.2840 C   0  0  1  0  0  0  0  0  0  0  0  0
   17.0351  -10.4520  -14.9079 O   0  0  0  0  0  0  0  0  0  0  0  0
   18.4618  -11.0979  -16.6529 C   0  0  2  0  0  0  0  0  0  0  0  0
   18.5848  -12.4372  -16.0505 N   0  0  0  0  0  0  0  0  0  0  0  0
   19.6133  -10.3190  -16.1886 C   0  0  0  0  0  0  0  0  0  0  0  0
   20.0473  -10.4003  -14.9856 O   0  0  0  0  0  0  0  0  0  0  0  0
   23.0875   -9.4261  -18.2238 O   0  0  0  0  0  0  0  0  0  0  0  0
   22.3307   -8.3623  -17.7813 C   0  0  0  0  0  0  0  0  0  0  0  0
   21.5366   -8.6983  -16.5101 C   0  0  2  0  0  0  0  0  0  0  0  0
   20.3578   -9.4137  -16.9911 N   0  0  0  0  0  0  0  0  0  0  0  0
   21.1458   -7.4837  -15.7921 C   0  0  0  0  0  0  0  0  0  0  0  0
   20.1236   -6.8560  -16.1481 O   0  0  0  0  0  0  0  0  0  0  0  0
   22.2183   -5.9564  -12.5472 C   0  0  0  0  0  0  0  0  0  0  0  0
   21.4879   -5.9045  -13.8776 C   0  0  2  0  0  0  0  0  0  0  0  0
   21.8993   -6.9969  -14.6975 N   0  0  0  0  0  0  0  0  0  0  0  0
   21.7433   -4.6336  -14.5886 C   0  0  0  0  0  0  0  0  0  0  0  0
   21.0835   -3.4442  -14.3037 O   0  0  0  0  0  0  0  0  0  0  0  0
   22.5972   -4.6098  -15.4998 O   0  0  0  0  0  0  0  0  0  0  0  0
  2  3  1  0
  2  1  1  6
  4  2  1  0
  4  5  1  1
  6 11  1  0
  6  4  1  0
  7  6  2  0
  9  8  1  0
 10  9  1  6
 10 11  1  0
 10 12  1  0
 12 16  1  0
 13 12  2  0
 15 14  1  1
 15 17  1  0
 16 15  1  0
 17 19  2  0
 17 18  1  0
M  END
$$$$
