TSA.pdb
     RDKit          3D

 19 18  0  0  1  0  0  0  0  0999 V2000
   18.5300   -8.4028  -13.7199 C   0  0  0  0  0  0  0  0  0  0  0  0
   17.6049   -9.5509  -14.0416 C   0  0  1  0  0  0  0  0  0  0  0  0
   18.2564  -10.6049  -14.6474 O   0  0  0  0  0  0  0  0  0  0  0  0
   17.0220  -10.0517  -12.7322 C   0  0  2  0  0  0  0  0  0  0  0  0
   16.1475  -11.2109  -12.9831 N   0  0  0  0  0  0  0  0  0  0  0  0
   16.2098   -9.0547  -12.0290 C   0  0  0  0  0  0  0  0  0  0  0  0
   15.0539   -8.6993  -12.4532 O   0  0  0  0  0  0  0  0  0  0  0  0
   15.7706   -6.2015   -8.0706 O   0  0  0  0  0  0  0  0  0  0  0  0
   16.3362   -7.2419   -8.7762 C   0  0  0  0  0  0  0  0  0  0  0  0
   15.8019   -7.3323  -10.2136 C   0  0  2  0  0  0  0  0  0  0  0  0
   16.5959   -8.3886  -10.8354 N   0  0  0  0  0  0  0  0  0  0  0  0
   15.9796   -6.0658  -10.9263 C   0  0  0  0  0  0  0  0  0  0  0  0
   17.1228   -5.7212  -11.3007 O   0  0  0  0  0  0  0  0  0  0  0  0
   13.6293   -3.5009  -12.3445 C   0  0  0  0  0  0  0  0  0  0  0  0
   15.0027   -3.9765  -11.9044 C   0  0  2  0  0  0  0  0  0  0  0  0
   14.8842   -5.2142  -11.2052 N   0  0  0  0  0  0  0  0  0  0  0  0
   15.6690   -2.9834  -11.0352 C   0  0  0  0  0  0  0  0  0  0  0  0
   16.2666   -1.8216  -11.5085 O   0  0  0  0  0  0  0  0  0  0  0  0
   15.7060   -3.1844   -9.8030 O   0  0  0  0  0  0  0  0  0  0  0  0
  2  3  1  0
  2  1  1  1
  4  2  1  0
  4  5  1  6
  6 11  1  0
  6  4  1  0
  7  6  2  0
  9  8  1  0
 10  9  1  1
 10 11  1  0
 10 12  1  0
 12 16  1  0
 13 12  2  0
 15 14  1  1
 15 17  1  0
 16 15  1  0
 17 19  2  0
 17 18  1  0
M  END
$$$$
