TSA.pdb
     RDKit          3D

 19 18  0  0  1  0  0  0  0  0999 V2000
   19.0773  -10.7512  -19.7285 C   0  0  0  0  0  0  0  0  0  0  0  0
   19.1391   -9.7890  -18.5676 C   0  0  1  0  0  0  0  0  0  0  0  0
   17.8920   -9.3515  -18.1728 O   0  0  0  0  0  0  0  0  0  0  0  0
   19.7701  -10.5215  -17.3970 C   0  0  2  0  0  0  0  0  0  0  0  0
   18.9067  -11.6412  -16.9815 N   0  0  0  0  0  0  0  0  0  0  0  0
   19.9691   -9.6803  -16.2134 C   0  0  0  0  0  0  0  0  0  0  0  0
   19.0392   -9.4887  -15.3526 O   0  0  0  0  0  0  0  0  0  0  0  0
   22.4604   -9.6024  -13.1784 O   0  0  0  0  0  0  0  0  0  0  0  0
   22.6394   -8.5730  -14.0776 C   0  0  0  0  0  0  0  0  0  0  0  0
   21.3210   -8.1307  -14.7302 C   0  0  2  0  0  0  0  0  0  0  0  0
   21.1754   -9.0023  -15.8928 N   0  0  0  0  0  0  0  0  0  0  0  0
   21.3775   -6.7267  -15.1415 C   0  0  0  0  0  0  0  0  0  0  0  0
   21.9973   -6.4108  -16.1815 O   0  0  0  0  0  0  0  0  0  0  0  0
   19.6516   -3.5906  -14.0355 C   0  0  0  0  0  0  0  0  0  0  0  0
   20.7753   -4.3279  -14.7424 C   0  0  2  0  0  0  0  0  0  0  0  0
   20.7445   -5.7094  -14.3883 N   0  0  0  0  0  0  0  0  0  0  0  0
   22.0973   -3.7623  -14.3984 C   0  0  0  0  0  0  0  0  0  0  0  0
   22.6868   -2.7068  -15.0836 O   0  0  0  0  0  0  0  0  0  0  0  0
   22.7341   -4.2489  -13.4404 O   0  0  0  0  0  0  0  0  0  0  0  0
  2  3  1  0
  2  1  1  6
  4  2  1  0
  4  5  1  1
  6 11  1  0
  6  4  1  0
  7  6  2  0
  9  8  1  0
 10  9  1  6
 10 11  1  0
 10 12  1  0
 12 16  1  0
 13 12  2  0
 15 14  1  1
 15 17  1  0
 16 15  1  0
 17 19  2  0
 17 18  1  0
M  END
$$$$
