TSA.pdb
     RDKit          3D

 19 18  0  0  1  0  0  0  0  0999 V2000
   19.3087   -9.0636  -19.1075 C   0  0  0  0  0  0  0  0  0  0  0  0
   18.5690  -10.3017  -18.6631 C   0  0  1  0  0  0  0  0  0  0  0  0
   18.4887  -11.2575  -19.6543 O   0  0  0  0  0  0  0  0  0  0  0  0
   19.3348  -10.9004  -17.4969 C   0  0  2  0  0  0  0  0  0  0  0  0
   18.6770  -12.1404  -17.0482 N   0  0  0  0  0  0  0  0  0  0  0  0
   19.4144  -10.0184  -16.3290 C   0  0  0  0  0  0  0  0  0  0  0  0
   18.3902   -9.7580  -15.6041 O   0  0  0  0  0  0  0  0  0  0  0  0
   22.1030   -7.7249  -13.0275 O   0  0  0  0  0  0  0  0  0  0  0  0
   21.8857   -8.6523  -14.0238 C   0  0  0  0  0  0  0  0  0  0  0  0
   20.6062   -8.3629  -14.8231 C   0  0  2  0  0  0  0  0  0  0  0  0
   20.5962   -9.3714  -15.8793 N   0  0  0  0  0  0  0  0  0  0  0  0
   20.6319   -7.0159  -15.3961 C   0  0  0  0  0  0  0  0  0  0  0  0
   21.3462   -6.7821  -16.3965 O   0  0  0  0  0  0  0  0  0  0  0  0
   18.6553   -3.8779  -14.8225 C   0  0  0  0  0  0  0  0  0  0  0  0
   19.8565   -4.6338  -15.3628 C   0  0  2  0  0  0  0  0  0  0  0  0
   19.8641   -5.9628  -14.8444 N   0  0  0  0  0  0  0  0  0  0  0  0
   21.1252   -3.9619  -15.0098 C   0  0  0  0  0  0  0  0  0  0  0  0
   21.9806   -4.4057  -14.0085 O   0  0  0  0  0  0  0  0  0  0  0  0
   21.4627   -2.9359  -15.6370 O   0  0  0  0  0  0  0  0  0  0  0  0
  2  3  1  0
  2  1  1  6
  4  2  1  0
  4  5  1  1
  6 11  1  0
  6  4  1  0
  7  6  2  0
  9  8  1  0
 10  9  1  1
 10 11  1  0
 10 12  1  0
 12 16  1  0
 13 12  2  0
 15 14  1  1
 15 17  1  0
 16 15  1  0
 17 19  2  0
 17 18  1  0
M  END
$$$$
