TSA.pdb
     RDKit          3D

 19 18  0  0  1  0  0  0  0  0999 V2000
   16.5040  -11.3527  -18.4158 C   0  0  0  0  0  0  0  0  0  0  0  0
   16.9286  -10.6315  -17.1600 C   0  0  1  0  0  0  0  0  0  0  0  0
   17.2866  -11.4953  -16.1461 O   0  0  0  0  0  0  0  0  0  0  0  0
   18.1416   -9.7857  -17.5040 C   0  0  2  0  0  0  0  0  0  0  0  0
   19.2792  -10.6566  -17.8485 N   0  0  0  0  0  0  0  0  0  0  0  0
   18.5882   -8.9220  -16.4072 C   0  0  0  0  0  0  0  0  0  0  0  0
   17.7975   -8.0957  -15.8289 O   0  0  0  0  0  0  0  0  0  0  0  0
   22.5219   -9.0130  -14.9517 O   0  0  0  0  0  0  0  0  0  0  0  0
   21.4568   -8.9148  -14.0823 C   0  0  0  0  0  0  0  0  0  0  0  0
   20.2779   -8.1377  -14.6872 C   0  0  2  0  0  0  0  0  0  0  0  0
   19.9050   -8.9010  -15.8750 N   0  0  0  0  0  0  0  0  0  0  0  0
   20.6715   -6.7755  -15.0518 C   0  0  0  0  0  0  0  0  0  0  0  0
   21.2121   -6.5630  -16.1601 O   0  0  0  0  0  0  0  0  0  0  0  0
   19.8307   -3.3830  -13.8261 C   0  0  0  0  0  0  0  0  0  0  0  0
   20.8070   -4.3377  -14.4906 C   0  0  2  0  0  0  0  0  0  0  0  0
   20.4552   -5.6841  -14.1772 N   0  0  0  0  0  0  0  0  0  0  0  0
   22.1975   -4.0805  -14.0591 C   0  0  0  0  0  0  0  0  0  0  0  0
   23.0357   -3.1548  -14.6687 O   0  0  0  0  0  0  0  0  0  0  0  0
   22.6612   -4.7230  -13.0936 O   0  0  0  0  0  0  0  0  0  0  0  0
  2  3  1  0
  2  1  1  6
  4  2  1  0
  4  5  1  1
  6 11  1  0
  6  4  1  0
  7  6  2  0
  9  8  1  0
 10  9  1  6
 10 11  1  0
 10 12  1  0
 12 16  1  0
 13 12  2  0
 15 14  1  1
 15 17  1  0
 16 15  1  0
 17 19  2  0
 17 18  1  0
M  END
$$$$
