TSA.pdb
     RDKit          3D

 19 18  0  0  1  0  0  0  0  0999 V2000
   27.5952  -11.7986  -15.6285 C   0  0  0  0  0  0  0  0  0  0  0  0
   26.6223  -10.6762  -15.8950 C   0  0  1  0  0  0  0  0  0  0  0  0
   27.1117   -9.7503  -16.7926 O   0  0  0  0  0  0  0  0  0  0  0  0
   25.3674  -11.2881  -16.4916 C   0  0  2  0  0  0  0  0  0  0  0  0
   25.7012  -12.0052  -17.7350 N   0  0  0  0  0  0  0  0  0  0  0  0
   24.3377  -10.3035  -16.8357 C   0  0  0  0  0  0  0  0  0  0  0  0
   24.0886   -9.9779  -18.0499 O   0  0  0  0  0  0  0  0  0  0  0  0
   21.1779   -9.7207  -14.5786 O   0  0  0  0  0  0  0  0  0  0  0  0
   21.1785   -9.2639  -15.8791 C   0  0  0  0  0  0  0  0  0  0  0  0
   22.5195   -8.6277  -16.2749 C   0  0  2  0  0  0  0  0  0  0  0  0
   23.5230   -9.6184  -15.8952 N   0  0  0  0  0  0  0  0  0  0  0  0
   22.7409   -7.3691  -15.5605 C   0  0  0  0  0  0  0  0  0  0  0  0
   23.2019   -7.3902  -14.3974 O   0  0  0  0  0  0  0  0  0  0  0  0
   22.2849   -3.7327  -16.4499 C   0  0  0  0  0  0  0  0  0  0  0  0
   22.6901   -4.8646  -15.5221 C   0  0  2  0  0  0  0  0  0  0  0  0
   22.4451   -6.1193  -16.1551 N   0  0  0  0  0  0  0  0  0  0  0  0
   21.9526   -4.8084  -14.2419 C   0  0  0  0  0  0  0  0  0  0  0  0
   22.3736   -4.0726  -13.1408 O   0  0  0  0  0  0  0  0  0  0  0  0
   20.8890   -5.4528  -14.1263 O   0  0  0  0  0  0  0  0  0  0  0  0
  2  3  1  0
  2  1  1  6
  4  2  1  0
  4  5  1  6
  6 11  1  0
  6  4  1  0
  7  6  2  0
  9  8  1  0
 10  9  1  1
 10 11  1  0
 10 12  1  0
 12 16  1  0
 13 12  2  0
 15 14  1  6
 15 17  1  0
 16 15  1  0
 17 19  2  0
 17 18  1  0
M  END
$$$$
