DET.pdb
     RDKit          3D

 25 24  0  0  1  0  0  0  0  0999 V2000
   28.2786  -36.0880   -1.9118 N   0  0  0  0  0  0  0  0  0  0  0  0
   28.3797  -34.7171   -1.3489 C   0  0  1  0  0  0  0  0  0  0  0  0
   27.2457  -33.9682   -1.9974 C   0  0  0  0  0  0  0  0  0  0  0  0
   27.4825  -33.3990   -3.3086 C   0  0  0  0  0  0  0  0  0  0  0  0
   26.7544  -32.6683   -4.0010 O   0  0  0  0  0  0  0  0  0  0  0  0
   28.1553  -34.8930    0.1089 C   0  0  0  0  0  0  0  0  0  0  0  0
   27.3174  -35.7587    0.4877 O   0  0  0  0  0  0  0  0  0  0  0  0
   28.7280  -33.7117   -3.9087 O   0  0  0  0  0  0  0  0  0  0  0  0
   28.8147  -34.1631    1.1199 N   0  0  0  0  0  0  0  0  0  0  0  0
   28.5609  -34.4797    2.5531 C   0  0  1  0  0  0  0  0  0  0  0  0
   29.8620  -34.3024    3.2680 C   0  0  0  0  0  0  0  0  0  0  0  0
   29.8752  -34.5150    4.7325 C   0  0  0  0  0  0  0  0  0  0  0  0
   31.2629  -34.2478    5.2201 C   0  0  0  0  0  0  0  0  0  0  0  0
   31.9393  -35.1861    5.6889 O   0  0  0  0  0  0  0  0  0  0  0  0
   27.5728  -33.4955    3.0277 C   0  0  0  0  0  0  0  0  0  0  0  0
   27.7471  -32.2896    2.7176 O   0  0  0  0  0  0  0  0  0  0  0  0
   31.7922  -32.9860    5.1550 O   0  0  0  0  0  0  0  0  0  0  0  0
   23.5492  -33.4619    2.8082 C   0  0  0  0  0  0  0  0  0  0  0  0
   24.0842  -33.2010    4.1813 C   0  0  1  0  0  0  0  0  0  0  0  0
   23.9877  -34.3636    4.9248 O   0  0  0  0  0  0  0  0  0  0  0  0
   25.5284  -32.7629    4.1940 C   0  0  2  0  0  0  0  0  0  0  0  0
   26.4304  -33.8157    3.8096 N   0  0  0  0  0  0  0  0  0  0  0  0
   25.9286  -32.1577    5.4718 C   0  0  0  0  0  0  0  0  0  0  0  0
   26.8536  -32.6805    6.1384 O   0  0  0  0  0  0  0  0  0  0  0  0
   25.3431  -31.0221    6.0078 O   0  0  0  0  0  0  0  0  0  0  0  0
  2  1  1  6
  2  3  1  0
  3  4  1  0
  4  5  2  0
  6  2  1  0
  7  6  2  0
  8  4  1  0
  9  6  1  0
 10  9  1  0
 10 11  1  1
 11 12  1  0
 12 13  1  0
 13 17  1  0
 14 13  2  0
 15 10  1  0
 16 15  2  0
 19 18  1  6
 19 21  1  0
 19 20  1  0
 21 22  1  1
 22 15  1  0
 23 21  1  0
 23 25  1  0
 24 23  2  0
M  END
$$$$
