DET.pdb
     RDKit          3D

 25 24  0  0  1  0  0  0  0  0999 V2000
   20.9544  -11.0713  -20.1051 N   0  0  0  0  0  0  0  0  0  0  0  0
   21.6100  -11.0649  -18.7722 C   0  0  1  0  0  0  0  0  0  0  0  0
   23.0323  -10.6654  -19.0633 C   0  0  0  0  0  0  0  0  0  0  0  0
   23.9142  -11.6782  -19.6071 C   0  0  0  0  0  0  0  0  0  0  0  0
   25.0308  -11.5575  -20.1383 O   0  0  0  0  0  0  0  0  0  0  0  0
   20.8927  -10.0131  -18.0069 C   0  0  0  0  0  0  0  0  0  0  0  0
   20.6625   -8.9086  -18.5744 O   0  0  0  0  0  0  0  0  0  0  0  0
   23.4504  -13.0154  -19.5306 O   0  0  0  0  0  0  0  0  0  0  0  0
   20.4378  -10.1511  -16.6789 N   0  0  0  0  0  0  0  0  0  0  0  0
   19.7191   -9.0268  -16.0171 C   0  0  1  0  0  0  0  0  0  0  0  0
   18.7461   -9.6424  -15.0633 C   0  0  0  0  0  0  0  0  0  0  0  0
   17.5184  -10.2453  -15.6286 C   0  0  0  0  0  0  0  0  0  0  0  0
   16.7127  -10.7896  -14.4931 C   0  0  0  0  0  0  0  0  0  0  0  0
   15.6052  -10.2792  -14.2271 O   0  0  0  0  0  0  0  0  0  0  0  0
   20.7387   -8.2535  -15.2872 C   0  0  0  0  0  0  0  0  0  0  0  0
   21.6620   -8.8879  -14.7166 O   0  0  0  0  0  0  0  0  0  0  0  0
   17.1811  -11.8393  -13.7480 O   0  0  0  0  0  0  0  0  0  0  0  0
   22.0931   -4.4243  -16.3169 C   0  0  0  0  0  0  0  0  0  0  0  0
   22.7782   -5.4898  -15.5199 C   0  0  1  0  0  0  0  0  0  0  0  0
   23.8089   -4.9133  -14.7995 O   0  0  0  0  0  0  0  0  0  0  0  0
   21.8679   -6.1927  -14.5426 C   0  0  2  0  0  0  0  0  0  0  0  0
   20.7541   -6.8363  -15.1869 N   0  0  0  0  0  0  0  0  0  0  0  0
   21.4194   -5.3170  -13.4512 C   0  0  0  0  0  0  0  0  0  0  0  0
   20.1920   -5.1959  -13.2230 O   0  0  0  0  0  0  0  0  0  0  0  0
   22.2762   -4.5966  -12.6346 O   0  0  0  0  0  0  0  0  0  0  0  0
  2  1  1  6
  2  3  1  0
  3  4  1  0
  4  5  2  0
  6  2  1  0
  7  6  2  0
  8  4  1  0
  9  6  1  0
 10  9  1  0
 10 11  1  1
 11 12  1  0
 12 13  1  0
 13 17  1  0
 14 13  2  0
 15 10  1  0
 16 15  2  0
 19 18  1  1
 19 21  1  0
 19 20  1  0
 21 22  1  6
 22 15  1  0
 23 21  1  0
 23 25  1  0
 24 23  2  0
M  END
$$$$
