DET.pdb
     RDKit          3D

 25 24  0  0  1  0  0  0  0  0999 V2000
   14.7777  -11.5393  -11.7866 N   0  0  0  0  0  0  0  0  0  0  0  0
   14.7472  -10.1029  -12.1640 C   0  0  1  0  0  0  0  0  0  0  0  0
   14.8054   -9.3749  -10.8472 C   0  0  0  0  0  0  0  0  0  0  0  0
   13.6269   -9.4187  -10.0054 C   0  0  0  0  0  0  0  0  0  0  0  0
   13.4178   -8.8860   -8.9026 O   0  0  0  0  0  0  0  0  0  0  0  0
   15.9863   -9.8974  -12.9571 C   0  0  0  0  0  0  0  0  0  0  0  0
   16.9221  -10.7370  -12.8378 O   0  0  0  0  0  0  0  0  0  0  0  0
   12.5368  -10.1794  -10.4974 O   0  0  0  0  0  0  0  0  0  0  0  0
   16.2043   -8.8265  -13.8488 N   0  0  0  0  0  0  0  0  0  0  0  0
   17.3817   -8.8448  -14.7611 C   0  0  1  0  0  0  0  0  0  0  0  0
   16.8607   -8.5858  -16.1383 C   0  0  0  0  0  0  0  0  0  0  0  0
   16.3647   -9.7444  -16.9140 C   0  0  0  0  0  0  0  0  0  0  0  0
   15.9155   -9.2418  -18.2483 C   0  0  0  0  0  0  0  0  0  0  0  0
   16.7564   -9.0746  -19.1554 O   0  0  0  0  0  0  0  0  0  0  0  0
   18.2615   -7.7460  -14.3268 C   0  0  0  0  0  0  0  0  0  0  0  0
   17.7286   -6.7427  -13.7884 O   0  0  0  0  0  0  0  0  0  0  0  0
   14.5937   -8.9657  -18.4787 O   0  0  0  0  0  0  0  0  0  0  0  0
   21.1960   -7.5996  -11.8231 C   0  0  0  0  0  0  0  0  0  0  0  0
   21.5951   -7.0000  -13.1348 C   0  0  1  0  0  0  0  0  0  0  0  0
   22.3492   -7.9242  -13.8355 O   0  0  0  0  0  0  0  0  0  0  0  0
   20.4235   -6.6073  -14.0013 C   0  0  2  0  0  0  0  0  0  0  0  0
   19.6752   -7.7432  -14.4698 N   0  0  0  0  0  0  0  0  0  0  0  0
   20.8073   -5.7262  -15.1129 C   0  0  0  0  0  0  0  0  0  0  0  0
   21.3283   -4.6125  -14.8651 O   0  0  0  0  0  0  0  0  0  0  0  0
   20.6309   -6.0447  -16.4498 O   0  0  0  0  0  0  0  0  0  0  0  0
  2  1  1  1
  2  3  1  0
  3  4  1  0
  4  5  2  0
  6  2  1  0
  7  6  2  0
  8  4  1  0
  9  6  1  0
 10  9  1  0
 10 11  1  6
 11 12  1  0
 12 13  1  0
 13 17  1  0
 14 13  2  0
 15 10  1  0
 16 15  2  0
 19 18  1  1
 19 21  1  0
 19 20  1  0
 21 22  1  6
 22 15  1  0
 23 21  1  0
 23 25  1  0
 24 23  2  0
M  END
$$$$
