DET.pdb
     RDKit          3D

 25 24  0  0  1  0  0  0  0  0999 V2000
   16.3981  -12.4360  -15.7242 N   0  0  0  0  0  0  0  0  0  0  0  0
   16.4024  -10.9507  -15.7436 C   0  0  1  0  0  0  0  0  0  0  0  0
   15.8103  -10.5634  -14.4144 C   0  0  0  0  0  0  0  0  0  0  0  0
   14.3824  -10.7379  -14.2413 C   0  0  0  0  0  0  0  0  0  0  0  0
   13.7587  -11.3723  -13.3742 O   0  0  0  0  0  0  0  0  0  0  0  0
   17.8386  -10.5813  -15.8304 C   0  0  0  0  0  0  0  0  0  0  0  0
   18.6587  -11.1765  -15.0765 O   0  0  0  0  0  0  0  0  0  0  0  0
   13.5552  -10.0949  -15.1960 O   0  0  0  0  0  0  0  0  0  0  0  0
   18.3693   -9.6076  -16.7021 N   0  0  0  0  0  0  0  0  0  0  0  0
   19.8324   -9.3285  -16.7047 C   0  0  1  0  0  0  0  0  0  0  0  0
   20.2650   -9.3230  -18.1359 C   0  0  0  0  0  0  0  0  0  0  0  0
   20.5375  -10.6293  -18.7758 C   0  0  0  0  0  0  0  0  0  0  0  0
   21.8521  -11.1233  -18.2634 C   0  0  0  0  0  0  0  0  0  0  0  0
   22.8248  -10.3426  -18.2177 O   0  0  0  0  0  0  0  0  0  0  0  0
   20.0019   -7.9918  -16.1091 C   0  0  0  0  0  0  0  0  0  0  0  0
   19.0354   -7.1905  -16.1759 O   0  0  0  0  0  0  0  0  0  0  0  0
   21.9931  -12.4205  -17.8465 O   0  0  0  0  0  0  0  0  0  0  0  0
   21.7689   -4.9438  -12.7639 C   0  0  0  0  0  0  0  0  0  0  0  0
   21.6815   -6.2916  -13.4084 C   0  0  1  0  0  0  0  0  0  0  0  0
   20.8034   -7.0760  -12.6822 O   0  0  0  0  0  0  0  0  0  0  0  0
   21.1912   -6.2485  -14.8351 C   0  0  2  0  0  0  0  0  0  0  0  0
   21.1833   -7.5454  -15.4579 N   0  0  0  0  0  0  0  0  0  0  0  0
   21.9138   -5.2672  -15.6562 C   0  0  0  0  0  0  0  0  0  0  0  0
   22.9238   -5.6307  -16.3050 O   0  0  0  0  0  0  0  0  0  0  0  0
   21.5511   -3.9346  -15.7684 O   0  0  0  0  0  0  0  0  0  0  0  0
  2  1  1  1
  2  3  1  0
  3  4  1  0
  4  5  2  0
  6  2  1  0
  7  6  2  0
  8  4  1  0
  9  6  1  0
 10  9  1  0
 10 11  1  6
 11 12  1  0
 12 13  1  0
 13 17  1  0
 14 13  2  0
 15 10  1  0
 16 15  2  0
 19 18  1  1
 19 21  1  0
 19 20  1  0
 21 22  1  6
 22 15  1  0
 23 21  1  0
 23 25  1  0
 24 23  2  0
M  END
$$$$
