VDQ.pdb
     RDKit          3D

 25 24  0  0  1  0  0  0  0  0999 V2000
    7.2167  -14.8013   19.1835 C   0  0  0  0  0  0  0  0  0  0  0  0
    7.6206  -13.4488   19.7301 C   0  0  2  0  0  0  0  0  0  0  0  0
    7.5629  -12.3467   18.7374 C   0  0  0  0  0  0  0  0  0  0  0  0
    8.9996  -13.5377   20.3893 C   0  0  2  0  0  0  0  0  0  0  0  0
    9.8764  -14.0225   19.3060 N   0  0  0  0  0  0  0  0  0  0  0  0
    8.9270  -14.6245   21.4037 C   0  0  0  0  0  0  0  0  0  0  0  0
    8.0582  -14.5386   22.3143 O   0  0  0  0  0  0  0  0  0  0  0  0
    9.7600  -15.7522   21.4190 N   0  0  0  0  0  0  0  0  0  0  0  0
    9.6071  -16.7438   22.4798 C   0  0  1  0  0  0  0  0  0  0  0  0
   10.4629  -17.9527   22.1694 C   0  0  0  0  0  0  0  0  0  0  0  0
    9.9893  -18.6289   20.9581 C   0  0  0  0  0  0  0  0  0  0  0  0
   10.6380  -18.8638   19.9135 O   0  0  0  0  0  0  0  0  0  0  0  0
    9.9933  -16.1380   23.7837 C   0  0  0  0  0  0  0  0  0  0  0  0
   11.1076  -15.5614   23.9843 O   0  0  0  0  0  0  0  0  0  0  0  0
    8.6447  -19.1011   20.8892 O   0  0  0  0  0  0  0  0  0  0  0  0
    7.6378  -11.9618   27.2607 N   0  0  0  0  0  0  0  0  0  0  0  0
    6.7964  -13.0858   26.9806 C   0  0  0  0  0  0  0  0  0  0  0  0
    5.5602  -12.8811   27.0565 O   0  0  0  0  0  0  0  0  0  0  0  0
    7.3589  -14.4140   26.6216 C   0  0  0  0  0  0  0  0  0  0  0  0
    8.8558  -14.2603   26.4874 C   0  0  0  0  0  0  0  0  0  0  0  0
    9.5389  -15.5781   26.2102 C   0  0  2  0  0  0  0  0  0  0  0  0
    9.1502  -16.1401   24.9436 N   0  0  0  0  0  0  0  0  0  0  0  0
    9.3829  -16.5417   27.3068 C   0  0  0  0  0  0  0  0  0  0  0  0
    8.7929  -17.6475   27.1668 O   0  0  0  0  0  0  0  0  0  0  0  0
    9.8865  -16.2773   28.5723 O   0  0  0  0  0  0  0  0  0  0  0  0
  2  1  1  6
  2  3  1  0
  4  5  1  6
  4  6  1  0
  4  2  1  0
  6  8  1  0
  7  6  2  0
  8  9  1  0
  9 10  1  6
 10 11  1  0
 11 15  1  0
 11 12  2  0
 13 14  2  0
 13  9  1  0
 16 17  1  0
 17 19  1  0
 18 17  2  0
 19 20  1  0
 21 22  1  0
 21 20  1  1
 22 13  1  0
 23 21  1  0
 24 23  2  0
 25 23  1  0
M  END
$$$$
