VDQ.pdb
     RDKit          3D

 25 24  0  0  1  0  0  0  0  0999 V2000
    7.7586  -13.8254   21.4389 C   0  0  0  0  0  0  0  0  0  0  0  0
    8.3693  -13.6485   20.0654 C   0  0  2  0  0  0  0  0  0  0  0  0
    7.6754  -12.6519   19.2119 C   0  0  0  0  0  0  0  0  0  0  0  0
    8.4862  -15.0037   19.3626 C   0  0  2  0  0  0  0  0  0  0  0  0
    7.0860  -15.4461   19.2172 N   0  0  0  0  0  0  0  0  0  0  0  0
    9.1351  -15.9370   20.3235 C   0  0  0  0  0  0  0  0  0  0  0  0
    8.4108  -16.5197   21.1764 O   0  0  0  0  0  0  0  0  0  0  0  0
   10.5075  -16.2230   20.3477 N   0  0  0  0  0  0  0  0  0  0  0  0
   11.0356  -17.1238   21.3682 C   0  0  1  0  0  0  0  0  0  0  0  0
   12.4495  -17.5243   21.0067 C   0  0  0  0  0  0  0  0  0  0  0  0
   12.4637  -18.3481   19.7943 C   0  0  0  0  0  0  0  0  0  0  0  0
   11.7582  -19.3522   19.5470 O   0  0  0  0  0  0  0  0  0  0  0  0
   10.9955  -16.4483   22.6942 C   0  0  0  0  0  0  0  0  0  0  0  0
   11.2237  -15.2088   22.8548 O   0  0  0  0  0  0  0  0  0  0  0  0
   13.3594  -18.0289   18.7305 O   0  0  0  0  0  0  0  0  0  0  0  0
    7.3528  -13.3484   25.7236 N   0  0  0  0  0  0  0  0  0  0  0  0
    7.0811  -14.7197   25.4143 C   0  0  0  0  0  0  0  0  0  0  0  0
    5.9551  -14.9588   24.9135 O   0  0  0  0  0  0  0  0  0  0  0  0
    8.0772  -15.7922   25.6726 C   0  0  0  0  0  0  0  0  0  0  0  0
    9.3799  -15.3766   25.0303 C   0  0  0  0  0  0  0  0  0  0  0  0
   10.4433  -16.4401   25.1646 C   0  0  2  0  0  0  0  0  0  0  0  0
   10.6939  -17.1232   23.9230 N   0  0  0  0  0  0  0  0  0  0  0  0
   10.1738  -17.3793   26.2605 C   0  0  0  0  0  0  0  0  0  0  0  0
   10.1008  -17.0197   27.4670 O   0  0  0  0  0  0  0  0  0  0  0  0
    9.9829  -18.7318   26.0166 O   0  0  0  0  0  0  0  0  0  0  0  0
  2  1  1  1
  2  3  1  0
  4  5  1  1
  4  6  1  0
  4  2  1  0
  6  8  1  0
  7  6  2  0
  8  9  1  0
  9 10  1  6
 10 11  1  0
 11 15  1  0
 11 12  2  0
 13 14  2  0
 13  9  1  0
 16 17  1  0
 17 19  1  0
 18 17  2  0
 19 20  1  0
 21 22  1  0
 21 20  1  6
 22 13  1  0
 23 21  1  0
 24 23  2  0
 25 23  1  0
M  END
$$$$
