VDQ.pdb
     RDKit          3D

 25 24  0  0  1  0  0  0  0  0999 V2000
    7.4569  -13.3775   21.8574 C   0  0  0  0  0  0  0  0  0  0  0  0
    8.0908  -13.4898   20.4875 C   0  0  2  0  0  0  0  0  0  0  0  0
    7.4848  -12.6069   19.4596 C   0  0  0  0  0  0  0  0  0  0  0  0
    8.1058  -14.9516   20.0326 C   0  0  2  0  0  0  0  0  0  0  0  0
    6.6777  -15.2810   19.8614 N   0  0  0  0  0  0  0  0  0  0  0  0
    8.5995  -15.7592   21.1812 C   0  0  0  0  0  0  0  0  0  0  0  0
    7.7633  -16.1598   22.0366 O   0  0  0  0  0  0  0  0  0  0  0  0
    9.9406  -16.1155   21.3822 N   0  0  0  0  0  0  0  0  0  0  0  0
   10.3149  -16.8547   22.5845 C   0  0  1  0  0  0  0  0  0  0  0  0
   11.6875  -17.4637   22.3970 C   0  0  0  0  0  0  0  0  0  0  0  0
   11.6741  -18.4558   21.3178 C   0  0  0  0  0  0  0  0  0  0  0  0
   12.3705  -18.4596   20.2776 O   0  0  0  0  0  0  0  0  0  0  0  0
   10.2946  -15.9371   23.7566 C   0  0  0  0  0  0  0  0  0  0  0  0
   10.6358  -14.7149   23.6941 O   0  0  0  0  0  0  0  0  0  0  0  0
   10.7906  -19.5736   21.3932 O   0  0  0  0  0  0  0  0  0  0  0  0
    6.2760  -12.9498   25.4062 N   0  0  0  0  0  0  0  0  0  0  0  0
    7.0947  -12.6206   26.5336 C   0  0  0  0  0  0  0  0  0  0  0  0
    6.7477  -11.6081   27.1896 O   0  0  0  0  0  0  0  0  0  0  0  0
    8.2837  -13.4333   26.9010 C   0  0  0  0  0  0  0  0  0  0  0  0
    8.4750  -14.4816   25.8302 C   0  0  0  0  0  0  0  0  0  0  0  0
    9.6284  -15.4055   26.1402 C   0  0  2  0  0  0  0  0  0  0  0  0
    9.8871  -16.3352   25.0726 N   0  0  0  0  0  0  0  0  0  0  0  0
    9.4815  -16.0851   27.4333 C   0  0  0  0  0  0  0  0  0  0  0  0
    9.3888  -15.4629   28.5263 O   0  0  0  0  0  0  0  0  0  0  0  0
    9.4364  -17.4694   27.5161 O   0  0  0  0  0  0  0  0  0  0  0  0
  2  1  1  1
  2  3  1  0
  4  5  1  1
  4  6  1  0
  4  2  1  0
  6  8  1  0
  7  6  2  0
  8  9  1  0
  9 10  1  6
 10 11  1  0
 11 15  1  0
 11 12  2  0
 13 14  2  0
 13  9  1  0
 16 17  1  0
 17 19  1  0
 18 17  2  0
 19 20  1  0
 21 22  1  0
 21 20  1  6
 22 13  1  0
 23 21  1  0
 24 23  2  0
 25 23  1  0
M  END
$$$$
