VDQ.pdb
     RDKit          3D

 25 24  0  0  1  0  0  0  0  0999 V2000
    7.9436  -13.8278   20.6683 C   0  0  0  0  0  0  0  0  0  0  0  0
    8.6058  -13.3978   19.3769 C   0  0  2  0  0  0  0  0  0  0  0  0
    7.8232  -12.4146   18.5869 C   0  0  0  0  0  0  0  0  0  0  0  0
    8.9724  -14.6256   18.5389 C   0  0  2  0  0  0  0  0  0  0  0  0
    7.6666  -15.2294   18.2104 N   0  0  0  0  0  0  0  0  0  0  0  0
    9.6713  -15.5773   19.4451 C   0  0  0  0  0  0  0  0  0  0  0  0
    8.9750  -16.3822   20.1225 O   0  0  0  0  0  0  0  0  0  0  0  0
   11.0630  -15.6490   19.5994 N   0  0  0  0  0  0  0  0  0  0  0  0
   11.6319  -16.5956   20.5544 C   0  0  1  0  0  0  0  0  0  0  0  0
   13.1072  -16.7764   20.2697 C   0  0  0  0  0  0  0  0  0  0  0  0
   13.3100  -17.4956   19.0085 C   0  0  0  0  0  0  0  0  0  0  0  0
   14.1440  -17.2394   18.1108 O   0  0  0  0  0  0  0  0  0  0  0  0
   11.4139  -16.0941   21.9390 C   0  0  0  0  0  0  0  0  0  0  0  0
   11.2796  -14.8632   22.2240 O   0  0  0  0  0  0  0  0  0  0  0  0
   12.4995  -18.6286   18.7001 O   0  0  0  0  0  0  0  0  0  0  0  0
    7.7570  -13.9070   23.5075 N   0  0  0  0  0  0  0  0  0  0  0  0
    7.6732  -14.4989   24.8085 C   0  0  0  0  0  0  0  0  0  0  0  0
    6.9806  -13.8791   25.6522 O   0  0  0  0  0  0  0  0  0  0  0  0
    8.3671  -15.7723   25.1348 C   0  0  0  0  0  0  0  0  0  0  0  0
    9.1466  -16.1993   23.9133 C   0  0  0  0  0  0  0  0  0  0  0  0
   10.5527  -16.6279   24.2588 C   0  0  2  0  0  0  0  0  0  0  0  0
   11.3308  -16.9449   23.0904 N   0  0  0  0  0  0  0  0  0  0  0  0
   10.5904  -17.7097   25.2506 C   0  0  0  0  0  0  0  0  0  0  0  0
   10.6726  -18.9272   24.9320 O   0  0  0  0  0  0  0  0  0  0  0  0
   10.5366  -17.4395   26.6105 O   0  0  0  0  0  0  0  0  0  0  0  0
  2  1  1  1
  2  3  1  0
  4  5  1  1
  4  6  1  0
  4  2  1  0
  6  8  1  0
  7  6  2  0
  8  9  1  0
  9 10  1  6
 10 11  1  0
 11 15  1  0
 11 12  2  0
 13 14  2  0
 13  9  1  0
 16 17  1  0
 17 19  1  0
 18 17  2  0
 19 20  1  0
 21 22  1  0
 21 20  1  6
 22 13  1  0
 23 21  1  0
 24 23  2  0
 25 23  1  0
M  END
$$$$
