VDQ.pdb
     RDKit          3D

 25 24  0  0  1  0  0  0  0  0999 V2000
    8.7350  -13.4767   20.4218 C   0  0  0  0  0  0  0  0  0  0  0  0
    8.9859  -12.8214   19.0806 C   0  0  2  0  0  0  0  0  0  0  0  0
    7.8619  -11.9856   18.5893 C   0  0  0  0  0  0  0  0  0  0  0  0
    9.3938  -13.8754   18.0478 C   0  0  2  0  0  0  0  0  0  0  0  0
    8.2471  -14.8037   18.0212 N   0  0  0  0  0  0  0  0  0  0  0  0
   10.5426  -14.6264   18.6237 C   0  0  0  0  0  0  0  0  0  0  0  0
   10.3131  -15.7244   19.2009 O   0  0  0  0  0  0  0  0  0  0  0  0
   11.8772  -14.2004   18.5671 N   0  0  0  0  0  0  0  0  0  0  0  0
   12.9370  -15.0962   19.0215 C   0  0  1  0  0  0  0  0  0  0  0  0
   14.2631  -14.6405   18.4523 C   0  0  0  0  0  0  0  0  0  0  0  0
   14.5572  -15.3363   17.1959 C   0  0  0  0  0  0  0  0  0  0  0  0
   15.6823  -15.5658   16.6973 O   0  0  0  0  0  0  0  0  0  0  0  0
   12.9716  -15.1080   20.5097 C   0  0  0  0  0  0  0  0  0  0  0  0
   13.5236  -14.1980   21.2037 O   0  0  0  0  0  0  0  0  0  0  0  0
   13.4876  -15.8372   16.3954 O   0  0  0  0  0  0  0  0  0  0  0  0
    9.3460  -17.5147   25.1105 N   0  0  0  0  0  0  0  0  0  0  0  0
    9.0594  -16.5303   24.1111 C   0  0  0  0  0  0  0  0  0  0  0  0
    7.8896  -16.0748   24.1061 O   0  0  0  0  0  0  0  0  0  0  0  0
   10.0898  -16.0782   23.1400 C   0  0  0  0  0  0  0  0  0  0  0  0
   11.3584  -16.8488   23.4210 C   0  0  0  0  0  0  0  0  0  0  0  0
   12.5575  -16.2364   22.7375 C   0  0  2  0  0  0  0  0  0  0  0  0
   12.3859  -16.1424   21.3118 N   0  0  0  0  0  0  0  0  0  0  0  0
   13.8170  -16.9016   23.0937 C   0  0  0  0  0  0  0  0  0  0  0  0
   14.2701  -16.9230   24.2705 O   0  0  0  0  0  0  0  0  0  0  0  0
   14.5826  -17.5503   22.1356 O   0  0  0  0  0  0  0  0  0  0  0  0
  2  1  1  1
  2  3  1  0
  4  5  1  1
  4  6  1  0
  4  2  1  0
  6  8  1  0
  7  6  2  0
  8  9  1  0
  9 10  1  6
 10 11  1  0
 11 15  1  0
 11 12  2  0
 13 14  2  0
 13  9  1  0
 16 17  1  0
 17 19  1  0
 18 17  2  0
 19 20  1  0
 21 22  1  0
 21 20  1  6
 22 13  1  0
 23 21  1  0
 24 23  2  0
 25 23  1  0
M  END
$$$$
