VDQ.pdb
     RDKit          3D

 25 24  0  0  1  0  0  0  0  0999 V2000
    7.5811  -15.0748   18.8121 C   0  0  0  0  0  0  0  0  0  0  0  0
    7.5831  -13.7051   19.4562 C   0  0  2  0  0  0  0  0  0  0  0  0
    7.4335  -12.5799   18.4997 C   0  0  0  0  0  0  0  0  0  0  0  0
    8.8288  -13.5360   20.3301 C   0  0  2  0  0  0  0  0  0  0  0  0
    9.9476  -13.7636   19.3952 N   0  0  0  0  0  0  0  0  0  0  0  0
    8.8384  -14.6676   21.2968 C   0  0  0  0  0  0  0  0  0  0  0  0
    7.8479  -14.8088   22.0653 O   0  0  0  0  0  0  0  0  0  0  0  0
    9.8772  -15.6018   21.4144 N   0  0  0  0  0  0  0  0  0  0  0  0
    9.8533  -16.5689   22.5081 C   0  0  1  0  0  0  0  0  0  0  0  0
   10.9212  -17.6167   22.2803 C   0  0  0  0  0  0  0  0  0  0  0  0
   10.4433  -18.6570   21.3647 C   0  0  0  0  0  0  0  0  0  0  0  0
    9.6797  -18.5158   20.3829 O   0  0  0  0  0  0  0  0  0  0  0  0
   10.0680  -15.8611   23.8000 C   0  0  0  0  0  0  0  0  0  0  0  0
   10.6069  -14.7139   23.8879 O   0  0  0  0  0  0  0  0  0  0  0  0
   10.8540  -20.0104   21.5527 O   0  0  0  0  0  0  0  0  0  0  0  0
    7.0880  -11.3286   27.0290 N   0  0  0  0  0  0  0  0  0  0  0  0
    6.9760  -12.7374   26.7998 C   0  0  0  0  0  0  0  0  0  0  0  0
    5.9009  -13.1276   26.2825 O   0  0  0  0  0  0  0  0  0  0  0  0
    8.0712  -13.6774   27.1552 C   0  0  0  0  0  0  0  0  0  0  0  0
    8.3103  -14.5781   25.9662 C   0  0  0  0  0  0  0  0  0  0  0  0
    9.4060  -15.5838   26.2275 C   0  0  2  0  0  0  0  0  0  0  0  0
    9.6882  -16.3975   25.0746 N   0  0  0  0  0  0  0  0  0  0  0  0
    9.1576  -16.3980   27.4237 C   0  0  0  0  0  0  0  0  0  0  0  0
    8.6569  -17.5544   27.3721 O   0  0  0  0  0  0  0  0  0  0  0  0
    9.4676  -15.9259   28.6910 O   0  0  0  0  0  0  0  0  0  0  0  0
  2  1  1  6
  2  3  1  0
  4  5  1  6
  4  6  1  0
  4  2  1  0
  6  8  1  0
  7  6  2  0
  8  9  1  0
  9 10  1  6
 10 11  1  0
 11 15  1  0
 11 12  2  0
 13 14  2  0
 13  9  1  0
 16 17  1  0
 17 19  1  0
 18 17  2  0
 19 20  1  0
 21 22  1  0
 21 20  1  6
 22 13  1  0
 23 21  1  0
 24 23  2  0
 25 23  1  0
M  END
$$$$
