VDQ.pdb
     RDKit          3D

 25 24  0  0  1  0  0  0  0  0999 V2000
    7.2046  -12.6947   19.3037 C   0  0  0  0  0  0  0  0  0  0  0  0
    7.9187  -13.7387   20.1350 C   0  0  2  0  0  0  0  0  0  0  0  0
    8.9715  -13.1932   21.0280 C   0  0  0  0  0  0  0  0  0  0  0  0
    8.4683  -14.8456   19.2313 C   0  0  2  0  0  0  0  0  0  0  0  0
    7.2573  -15.4752   18.6704 N   0  0  0  0  0  0  0  0  0  0  0  0
    9.1064  -15.8551   20.1197 C   0  0  0  0  0  0  0  0  0  0  0  0
    8.3658  -16.5476   20.8704 O   0  0  0  0  0  0  0  0  0  0  0  0
   10.4858  -16.0990   20.1809 N   0  0  0  0  0  0  0  0  0  0  0  0
   11.0031  -17.0586   21.1522 C   0  0  1  0  0  0  0  0  0  0  0  0
   12.3867  -17.5062   20.7335 C   0  0  0  0  0  0  0  0  0  0  0  0
   12.3348  -18.2427   19.4671 C   0  0  0  0  0  0  0  0  0  0  0  0
   12.9509  -17.9829   18.4087 O   0  0  0  0  0  0  0  0  0  0  0  0
   11.0316  -16.4310   22.5019 C   0  0  0  0  0  0  0  0  0  0  0  0
   11.5914  -15.3163   22.7432 O   0  0  0  0  0  0  0  0  0  0  0  0
   11.5078  -19.3997   19.3530 O   0  0  0  0  0  0  0  0  0  0  0  0
    7.5847  -13.3846   25.4872 N   0  0  0  0  0  0  0  0  0  0  0  0
    7.1227  -14.6595   25.0276 C   0  0  0  0  0  0  0  0  0  0  0  0
    5.8883  -14.7565   24.8213 O   0  0  0  0  0  0  0  0  0  0  0  0
    8.0542  -15.7970   24.8092 C   0  0  0  0  0  0  0  0  0  0  0  0
    9.4498  -15.3200   25.1365 C   0  0  0  0  0  0  0  0  0  0  0  0
   10.4768  -16.4147   24.9717 C   0  0  2  0  0  0  0  0  0  0  0  0
   10.4306  -17.0161   23.6650 N   0  0  0  0  0  0  0  0  0  0  0  0
   10.4125  -17.4208   26.0390 C   0  0  0  0  0  0  0  0  0  0  0  0
   10.1573  -18.6360   25.8189 O   0  0  0  0  0  0  0  0  0  0  0  0
   10.6335  -17.0764   27.3648 O   0  0  0  0  0  0  0  0  0  0  0  0
  2  1  1  6
  2  3  1  0
  4  5  1  1
  4  6  1  0
  4  2  1  0
  6  8  1  0
  7  6  2  0
  8  9  1  0
  9 10  1  6
 10 11  1  0
 11 15  1  0
 11 12  2  0
 13 14  2  0
 13  9  1  0
 16 17  1  0
 17 19  1  0
 18 17  2  0
 19 20  1  0
 21 22  1  0
 21 20  1  1
 22 13  1  0
 23 21  1  0
 24 23  2  0
 25 23  1  0
M  END
$$$$
