VDQ.pdb
     RDKit          3D

 25 24  0  0  1  0  0  0  0  0999 V2000
    7.9511  -12.8083   18.5461 C   0  0  0  0  0  0  0  0  0  0  0  0
    7.9679  -13.6198   19.8237 C   0  0  2  0  0  0  0  0  0  0  0  0
    7.1144  -13.0713   20.9072 C   0  0  0  0  0  0  0  0  0  0  0  0
    9.4092  -13.8278   20.2964 C   0  0  2  0  0  0  0  0  0  0  0  0
   10.1213  -14.2538   19.0761 N   0  0  0  0  0  0  0  0  0  0  0  0
    9.3997  -14.9955   21.2193 C   0  0  0  0  0  0  0  0  0  0  0  0
    8.8109  -14.8786   22.3289 O   0  0  0  0  0  0  0  0  0  0  0  0
    9.9999  -16.2316   20.9409 N   0  0  0  0  0  0  0  0  0  0  0  0
    9.8872  -17.3190   21.9088 C   0  0  1  0  0  0  0  0  0  0  0  0
   10.4445  -18.5911   21.3077 C   0  0  0  0  0  0  0  0  0  0  0  0
   10.2611  -19.7227   22.2213 C   0  0  0  0  0  0  0  0  0  0  0  0
   10.0706  -20.9226   21.9194 O   0  0  0  0  0  0  0  0  0  0  0  0
   10.6183  -16.9526   23.1528 C   0  0  0  0  0  0  0  0  0  0  0  0
   11.8320  -16.5769   23.1660 O   0  0  0  0  0  0  0  0  0  0  0  0
   10.2907  -19.5077   23.6315 O   0  0  0  0  0  0  0  0  0  0  0  0
    9.9154  -13.4049   29.4017 N   0  0  0  0  0  0  0  0  0  0  0  0
    9.4526  -14.1007   28.2391 C   0  0  0  0  0  0  0  0  0  0  0  0
    8.4614  -13.5986   27.6549 O   0  0  0  0  0  0  0  0  0  0  0  0
   10.1108  -15.3431   27.7571 C   0  0  0  0  0  0  0  0  0  0  0  0
   10.1125  -15.3083   26.2468 C   0  0  0  0  0  0  0  0  0  0  0  0
   10.7170  -16.5573   25.6512 C   0  0  2  0  0  0  0  0  0  0  0  0
   10.0304  -16.9834   24.4604 N   0  0  0  0  0  0  0  0  0  0  0  0
   10.8478  -17.6471   26.6264 C   0  0  0  0  0  0  0  0  0  0  0  0
   10.1673  -18.7069   26.5629 O   0  0  0  0  0  0  0  0  0  0  0  0
   11.7426  -17.5615   27.6833 O   0  0  0  0  0  0  0  0  0  0  0  0
  2  1  1  6
  2  3  1  0
  4  5  1  6
  4  6  1  0
  4  2  1  0
  6  8  1  0
  7  6  2  0
  8  9  1  0
  9 10  1  6
 10 11  1  0
 11 15  1  0
 11 12  2  0
 13 14  2  0
 13  9  1  0
 16 17  1  0
 17 19  1  0
 18 17  2  0
 19 20  1  0
 21 22  1  0
 21 20  1  1
 22 13  1  0
 23 21  1  0
 24 23  2  0
 25 23  1  0
M  END
$$$$
