MLY.pdb
     RDKit          3D

 29 29  0  0  1  0  0  0  0  0999 V2000
   10.0922  -20.5064   25.9486 C   0  0  0  0  0  0  0  0  0  0  0  0
    8.8573  -21.7582   25.5429 S   0  0  0  0  0  0  0  0  0  0  0  0
    7.3808  -20.9007   24.9101 C   0  0  0  0  0  0  0  0  0  0  0  0
    7.6745  -19.4476   24.6697 C   0  0  0  0  0  0  0  0  0  0  0  0
    6.5063  -18.6987   24.1467 C   0  0  2  0  0  0  0  0  0  0  0  0
    6.0117  -19.3151   22.9063 N   0  0  0  0  0  0  0  0  0  0  0  0
    6.7684  -17.2539   23.8536 C   0  0  0  0  0  0  0  0  0  0  0  0
    7.2940  -16.9206   22.7620 O   0  0  0  0  0  0  0  0  0  0  0  0
    7.3222  -11.8228   25.0326 C   0  0  0  0  0  0  0  0  0  0  0  0
    6.3372  -12.6282   25.8265 C   0  0  2  0  0  0  0  0  0  0  0  0
    5.9053  -11.9319   27.0673 C   0  0  0  0  0  0  0  0  0  0  0  0
    6.5467  -14.0722   25.9088 C   0  0  0  0  0  0  0  0  0  0  0  0
    6.9972  -14.8738   24.7682 C   0  0  2  0  0  0  0  0  0  0  0  0
    6.4390  -16.2339   24.7787 N   0  0  0  0  0  0  0  0  0  0  0  0
    8.4417  -14.8830   24.5651 C   0  0  0  0  0  0  0  0  0  0  0  0
    8.9520  -14.4595   23.5103 O   0  0  0  0  0  0  0  0  0  0  0  0
    9.5756  -17.1297   31.3365 O   0  0  0  0  0  0  0  0  0  0  0  0
   10.0638  -16.5683   30.1609 C   0  0  0  0  0  0  0  0  0  0  0  0
    9.6022  -15.3428   29.7646 C   0  0  0  0  0  0  0  0  0  0  0  0
   10.0781  -14.7823   28.6073 C   0  0  0  0  0  0  0  0  0  0  0  0
   11.0267  -15.3943   27.7852 C   0  0  0  0  0  0  0  0  0  0  0  0
   11.4933  -14.7636   26.5463 C   0  0  0  0  0  0  0  0  0  0  0  0
   10.7904  -15.2627   25.3197 C   0  0  2  0  0  0  0  0  0  0  0  0
    9.3637  -15.3768   25.5569 N   0  0  0  0  0  0  0  0  0  0  0  0
   11.3641  -16.5433   24.8671 C   0  0  0  0  0  0  0  0  0  0  0  0
   12.6092  -16.6163   24.5924 O   0  0  0  0  0  0  0  0  0  0  0  0
   11.4598  -16.6351   28.2349 C   0  0  0  0  0  0  0  0  0  0  0  0
   11.0013  -17.2222   29.3905 C   0  0  0  0  0  0  0  0  0  0  0  0
   10.6411  -17.7092   24.7124 O   0  0  0  0  0  0  0  0  0  0  0  0
  2  1  1  0
  3  2  1  0
  4  3  1  0
  5  4  1  0
  5  6  1  6
  7  8  2  0
  7  5  1  0
 10 11  1  1
 10  9  1  0
 12 10  1  0
 13 12  1  1
 13 14  1  0
 14  7  1  0
 15 13  1  0
 15 16  2  0
 18 17  1  0
 19 18  2  0
 20 19  1  0
 21 20  2  0
 21 27  1  0
 22 21  1  0
 23 22  1  1
 23 24  1  0
 24 15  1  0
 25 23  1  0
 26 25  2  0
 27 28  2  0
 28 18  1  0
 29 25  1  0
M  END
$$$$
