MLY.pdb
     RDKit          3D

 29 29  0  0  1  0  0  0  0  0999 V2000
    7.9244  -11.6733   18.6081 C   0  0  0  0  0  0  0  0  0  0  0  0
    6.9864  -13.0111   17.8417 S   0  0  0  0  0  0  0  0  0  0  0  0
    7.3183  -14.5349   18.7819 C   0  0  0  0  0  0  0  0  0  0  0  0
    7.9631  -14.2143   20.0998 C   0  0  0  0  0  0  0  0  0  0  0  0
    8.3400  -15.4239   20.8704 C   0  0  2  0  0  0  0  0  0  0  0  0
    7.1709  -16.2940   21.0688 N   0  0  0  0  0  0  0  0  0  0  0  0
    8.9263  -15.1493   22.2205 C   0  0  0  0  0  0  0  0  0  0  0  0
   10.0815  -14.6640   22.3159 O   0  0  0  0  0  0  0  0  0  0  0  0
    7.5991  -12.1953   25.1700 C   0  0  0  0  0  0  0  0  0  0  0  0
    6.8722  -13.4891   25.3863 C   0  0  2  0  0  0  0  0  0  0  0  0
    5.6147  -13.3101   26.1593 C   0  0  0  0  0  0  0  0  0  0  0  0
    7.6701  -14.6791   25.6744 C   0  0  0  0  0  0  0  0  0  0  0  0
    8.7142  -15.1706   24.7717 C   0  0  2  0  0  0  0  0  0  0  0  0
    8.2127  -15.4219   23.4127 N   0  0  0  0  0  0  0  0  0  0  0  0
    9.4775  -16.3027   25.2851 C   0  0  0  0  0  0  0  0  0  0  0  0
    9.1507  -16.8822   26.3385 O   0  0  0  0  0  0  0  0  0  0  0  0
   10.6191  -16.1013   31.5631 O   0  0  0  0  0  0  0  0  0  0  0  0
   10.9794  -15.9588   30.2269 C   0  0  0  0  0  0  0  0  0  0  0  0
   11.4526  -17.0456   29.5436 C   0  0  0  0  0  0  0  0  0  0  0  0
   11.8099  -16.9138   28.2265 C   0  0  0  0  0  0  0  0  0  0  0  0
   11.7208  -15.7139   27.5177 C   0  0  0  0  0  0  0  0  0  0  0  0
   12.1318  -15.6169   26.1134 C   0  0  0  0  0  0  0  0  0  0  0  0
   11.9056  -16.8784   25.3356 C   0  0  2  0  0  0  0  0  0  0  0  0
   10.6460  -16.8197   24.6182 N   0  0  0  0  0  0  0  0  0  0  0  0
   11.9682  -18.0595   26.2160 C   0  0  0  0  0  0  0  0  0  0  0  0
   13.0451  -18.3173   26.8524 O   0  0  0  0  0  0  0  0  0  0  0  0
   11.2348  -14.6448   28.2594 C   0  0  0  0  0  0  0  0  0  0  0  0
   10.8686  -14.7462   29.5807 C   0  0  0  0  0  0  0  0  0  0  0  0
   10.9221  -18.9378   26.4163 O   0  0  0  0  0  0  0  0  0  0  0  0
  2  1  1  0
  3  2  1  0
  4  3  1  0
  5  4  1  0
  5  6  1  1
  7  8  2  0
  7  5  1  0
 10 11  1  1
 10  9  1  0
 12 10  1  0
 13 12  1  1
 13 14  1  0
 14  7  1  0
 15 13  1  0
 15 16  2  0
 18 17  1  0
 19 18  2  0
 20 19  1  0
 21 20  2  0
 21 27  1  0
 22 21  1  0
 23 22  1  1
 23 24  1  0
 24 15  1  0
 25 23  1  0
 26 25  2  0
 27 28  2  0
 28 18  1  0
 29 25  1  0
M  END
$$$$
