MLY.pdb
     RDKit          3D

 29 29  0  0  1  0  0  0  0  0999 V2000
    7.9202  -21.2494   22.3320 C   0  0  0  0  0  0  0  0  0  0  0  0
    8.6659  -20.9961   20.7082 S   0  0  0  0  0  0  0  0  0  0  0  0
    8.0491  -19.4135   20.0519 C   0  0  0  0  0  0  0  0  0  0  0  0
    8.3733  -18.2879   20.9918 C   0  0  0  0  0  0  0  0  0  0  0  0
    7.7772  -16.9953   20.5761 C   0  0  2  0  0  0  0  0  0  0  0  0
    8.1343  -16.6870   19.1830 N   0  0  0  0  0  0  0  0  0  0  0  0
    8.1829  -15.8207   21.4113 C   0  0  0  0  0  0  0  0  0  0  0  0
    9.1707  -15.1215   21.0730 O   0  0  0  0  0  0  0  0  0  0  0  0
    5.9362  -13.0033   26.6105 C   0  0  0  0  0  0  0  0  0  0  0  0
    6.9042  -13.0084   25.4650 C   0  0  2  0  0  0  0  0  0  0  0  0
    7.1602  -11.6434   24.9337 C   0  0  0  0  0  0  0  0  0  0  0  0
    6.8051  -14.0959   24.4938 C   0  0  0  0  0  0  0  0  0  0  0  0
    7.8155  -14.3280   23.4585 C   0  0  2  0  0  0  0  0  0  0  0  0
    7.4806  -15.4647   22.5881 N   0  0  0  0  0  0  0  0  0  0  0  0
    9.1849  -14.4107   23.9541 C   0  0  0  0  0  0  0  0  0  0  0  0
    9.8726  -13.3878   24.1361 O   0  0  0  0  0  0  0  0  0  0  0  0
   11.8716  -16.4276   31.7685 O   0  0  0  0  0  0  0  0  0  0  0  0
   11.2896  -16.2062   30.5243 C   0  0  0  0  0  0  0  0  0  0  0  0
   11.0069  -17.2762   29.7198 C   0  0  0  0  0  0  0  0  0  0  0  0
   10.4334  -17.0668   28.4921 C   0  0  0  0  0  0  0  0  0  0  0  0
   10.1103  -15.8023   27.9955 C   0  0  0  0  0  0  0  0  0  0  0  0
    9.5135  -15.6262   26.6676 C   0  0  0  0  0  0  0  0  0  0  0  0
   10.4846  -15.8298   25.5437 C   0  0  2  0  0  0  0  0  0  0  0  0
    9.8268  -15.6642   24.2612 N   0  0  0  0  0  0  0  0  0  0  0  0
   11.1405  -17.1464   25.6452 C   0  0  0  0  0  0  0  0  0  0  0  0
   12.1798  -17.2803   26.3754 O   0  0  0  0  0  0  0  0  0  0  0  0
   10.4186  -14.7538   28.8526 C   0  0  0  0  0  0  0  0  0  0  0  0
   10.9936  -14.9324   30.0887 C   0  0  0  0  0  0  0  0  0  0  0  0
   10.7074  -18.2844   24.9947 O   0  0  0  0  0  0  0  0  0  0  0  0
  2  1  1  0
  3  2  1  0
  4  3  1  0
  5  4  1  0
  5  6  1  6
  7  8  2  0
  7  5  1  0
 10 11  1  6
 10  9  1  0
 12 10  1  0
 13 12  1  1
 13 14  1  0
 14  7  1  0
 15 13  1  0
 15 16  2  0
 18 17  1  0
 19 18  2  0
 20 19  1  0
 21 20  2  0
 21 27  1  0
 22 21  1  0
 23 22  1  1
 23 24  1  0
 24 15  1  0
 25 23  1  0
 26 25  2  0
 27 28  2  0
 28 18  1  0
 29 25  1  0
M  END
$$$$
