MLY.pdb
     RDKit          3D

 29 29  0  0  1  0  0  0  0  0999 V2000
    7.3851  -12.1955   19.1848 C   0  0  0  0  0  0  0  0  0  0  0  0
    7.6200  -13.7978   18.3883 S   0  0  0  0  0  0  0  0  0  0  0  0
    7.7478  -15.0578   19.6968 C   0  0  0  0  0  0  0  0  0  0  0  0
    8.4204  -14.4909   20.9141 C   0  0  0  0  0  0  0  0  0  0  0  0
    8.5530  -15.4757   22.0149 C   0  0  2  0  0  0  0  0  0  0  0  0
    7.2684  -16.1475   22.2633 N   0  0  0  0  0  0  0  0  0  0  0  0
    9.0154  -14.9007   23.3177 C   0  0  0  0  0  0  0  0  0  0  0  0
   10.2028  -14.5096   23.4446 O   0  0  0  0  0  0  0  0  0  0  0  0
    7.0255  -11.2977   25.4854 C   0  0  0  0  0  0  0  0  0  0  0  0
    6.4043  -12.5976   25.9016 C   0  0  2  0  0  0  0  0  0  0  0  0
    5.1041  -12.4071   26.5974 C   0  0  0  0  0  0  0  0  0  0  0  0
    7.2887  -13.6430   26.4123 C   0  0  0  0  0  0  0  0  0  0  0  0
    8.4788  -14.0973   25.6885 C   0  0  2  0  0  0  0  0  0  0  0  0
    8.1470  -14.7804   24.4296 N   0  0  0  0  0  0  0  0  0  0  0  0
    9.4202  -14.8697   26.4917 C   0  0  0  0  0  0  0  0  0  0  0  0
    9.8666  -14.4316   27.5693 O   0  0  0  0  0  0  0  0  0  0  0  0
   12.8535  -20.1211   32.1903 O   0  0  0  0  0  0  0  0  0  0  0  0
   12.1302  -19.4323   31.2217 C   0  0  0  0  0  0  0  0  0  0  0  0
   12.2020  -18.0666   31.1806 C   0  0  0  0  0  0  0  0  0  0  0  0
   11.4923  -17.3801   30.2292 C   0  0  0  0  0  0  0  0  0  0  0  0
   10.6805  -17.9975   29.2753 C   0  0  0  0  0  0  0  0  0  0  0  0
    9.9256  -17.2198   28.2875 C   0  0  0  0  0  0  0  0  0  0  0  0
   10.6911  -16.9501   27.0270 C   0  0  2  0  0  0  0  0  0  0  0  0
    9.8921  -16.1734   26.0979 N   0  0  0  0  0  0  0  0  0  0  0  0
   11.1579  -18.2072   26.4139 C   0  0  0  0  0  0  0  0  0  0  0  0
   10.3768  -18.8642   25.6462 O   0  0  0  0  0  0  0  0  0  0  0  0
   10.6446  -19.3831   29.3634 C   0  0  0  0  0  0  0  0  0  0  0  0
   11.3449  -20.0988   30.3057 C   0  0  0  0  0  0  0  0  0  0  0  0
   12.4128  -18.7490   26.6073 O   0  0  0  0  0  0  0  0  0  0  0  0
  2  1  1  0
  3  2  1  0
  4  3  1  0
  5  4  1  0
  5  6  1  1
  7  8  2  0
  7  5  1  0
 10 11  1  1
 10  9  1  0
 12 10  1  0
 13 12  1  1
 13 14  1  0
 14  7  1  0
 15 13  1  0
 15 16  2  0
 18 17  1  0
 19 18  2  0
 20 19  1  0
 21 20  2  0
 21 27  1  0
 22 21  1  0
 23 22  1  1
 23 24  1  0
 24 15  1  0
 25 23  1  0
 26 25  2  0
 27 28  2  0
 28 18  1  0
 29 25  1  0
M  END
$$$$
