MLY.pdb
     RDKit          3D

 29 29  0  0  1  0  0  0  0  0999 V2000
    3.7948  -22.5763   22.8031 C   0  0  0  0  0  0  0  0  0  0  0  0
    4.9017  -21.2339   23.2824 S   0  0  0  0  0  0  0  0  0  0  0  0
    5.6230  -20.5363   21.7628 C   0  0  0  0  0  0  0  0  0  0  0  0
    6.5510  -19.4015   22.0896 C   0  0  0  0  0  0  0  0  0  0  0  0
    7.0645  -18.7069   20.8843 C   0  0  2  0  0  0  0  0  0  0  0  0
    7.5833  -19.6793   19.9103 N   0  0  0  0  0  0  0  0  0  0  0  0
    8.1547  -17.7155   21.1492 C   0  0  0  0  0  0  0  0  0  0  0  0
    9.3560  -18.0839   21.1303 O   0  0  0  0  0  0  0  0  0  0  0  0
    8.7881  -14.0599   18.9152 C   0  0  0  0  0  0  0  0  0  0  0  0
    7.9667  -13.6747   20.1094 C   0  0  2  0  0  0  0  0  0  0  0  0
    7.3087  -12.3519   19.9417 C   0  0  0  0  0  0  0  0  0  0  0  0
    8.4972  -13.9942   21.4331 C   0  0  0  0  0  0  0  0  0  0  0  0
    8.8724  -15.3540   21.8293 C   0  0  2  0  0  0  0  0  0  0  0  0
    7.8746  -16.3551   21.4248 N   0  0  0  0  0  0  0  0  0  0  0  0
    9.2447  -15.4969   23.2324 C   0  0  0  0  0  0  0  0  0  0  0  0
   10.2382  -14.9111   23.7038 O   0  0  0  0  0  0  0  0  0  0  0  0
    6.3321  -10.4951   26.0407 O   0  0  0  0  0  0  0  0  0  0  0  0
    6.6489  -11.8467   26.1337 C   0  0  0  0  0  0  0  0  0  0  0  0
    7.9106  -12.2116   26.5171 C   0  0  0  0  0  0  0  0  0  0  0  0
    8.2311  -13.5414   26.6112 C   0  0  0  0  0  0  0  0  0  0  0  0
    7.3330  -14.5744   26.3349 C   0  0  0  0  0  0  0  0  0  0  0  0
    7.7268  -15.9836   26.4324 C   0  0  0  0  0  0  0  0  0  0  0  0
    8.8870  -16.3426   25.5534 C   0  0  2  0  0  0  0  0  0  0  0  0
    8.4992  -16.3152   24.1557 N   0  0  0  0  0  0  0  0  0  0  0  0
    9.4485  -17.6529   25.9297 C   0  0  0  0  0  0  0  0  0  0  0  0
    9.4622  -18.6034   25.0767 O   0  0  0  0  0  0  0  0  0  0  0  0
    6.0685  -14.1472   25.9506 C   0  0  0  0  0  0  0  0  0  0  0  0
    5.7177  -12.8218   25.8473 C   0  0  0  0  0  0  0  0  0  0  0  0
    9.9799  -17.9453   27.1699 O   0  0  0  0  0  0  0  0  0  0  0  0
  2  1  1  0
  3  2  1  0
  4  3  1  0
  5  4  1  0
  5  6  1  6
  7  8  2  0
  7  5  1  0
 10 11  1  1
 10  9  1  0
 12 10  1  0
 13 12  1  1
 13 14  1  0
 14  7  1  0
 15 13  1  0
 15 16  2  0
 18 17  1  0
 19 18  2  0
 20 19  1  0
 21 20  2  0
 21 27  1  0
 22 21  1  0
 23 22  1  1
 23 24  1  0
 24 15  1  0
 25 23  1  0
 26 25  2  0
 27 28  2  0
 28 18  1  0
 29 25  1  0
M  END
$$$$
