MLY.pdb
     RDKit          3D

 29 29  0  0  1  0  0  0  0  0999 V2000
   12.3716  -19.9480   25.9644 C   0  0  0  0  0  0  0  0  0  0  0  0
   11.1919  -20.9354   25.0208 S   0  0  0  0  0  0  0  0  0  0  0  0
   10.9302  -20.1109   23.4184 C   0  0  0  0  0  0  0  0  0  0  0  0
   10.9060  -18.6189   23.5882 C   0  0  0  0  0  0  0  0  0  0  0  0
   10.5881  -17.8975   22.3322 C   0  0  2  0  0  0  0  0  0  0  0  0
   11.7521  -17.8896   21.4331 N   0  0  0  0  0  0  0  0  0  0  0  0
   10.1580  -16.4754   22.5181 C   0  0  0  0  0  0  0  0  0  0  0  0
   10.9897  -15.6128   22.8965 O   0  0  0  0  0  0  0  0  0  0  0  0
    8.7276  -12.9506   20.0349 C   0  0  0  0  0  0  0  0  0  0  0  0
    7.5976  -13.9144   20.2430 C   0  0  2  0  0  0  0  0  0  0  0  0
    6.4594  -13.6607   19.3205 C   0  0  0  0  0  0  0  0  0  0  0  0
    7.2730  -14.2979   21.6153 C   0  0  0  0  0  0  0  0  0  0  0  0
    8.2892  -14.7267   22.5797 C   0  0  2  0  0  0  0  0  0  0  0  0
    8.8251  -16.0622   22.2783 N   0  0  0  0  0  0  0  0  0  0  0  0
    7.8893  -14.6066   23.9773 C   0  0  0  0  0  0  0  0  0  0  0  0
    7.3089  -15.5368   24.5691 O   0  0  0  0  0  0  0  0  0  0  0  0
   11.3329  -17.5999   29.0597 O   0  0  0  0  0  0  0  0  0  0  0  0
   10.6475  -16.4833   28.5916 C   0  0  0  0  0  0  0  0  0  0  0  0
   11.2307  -15.6930   27.6392 C   0  0  0  0  0  0  0  0  0  0  0  0
   10.5620  -14.5907   27.1724 C   0  0  0  0  0  0  0  0  0  0  0  0
    9.2932  -14.2113   27.6154 C   0  0  0  0  0  0  0  0  0  0  0  0
    8.6240  -13.0129   27.0993 C   0  0  0  0  0  0  0  0  0  0  0  0
    7.5606  -13.3115   26.0856 C   0  0  2  0  0  0  0  0  0  0  0  0
    8.1340  -13.4194   24.7573 N   0  0  0  0  0  0  0  0  0  0  0  0
    6.4911  -12.2974   26.1284 C   0  0  0  0  0  0  0  0  0  0  0  0
    6.4408  -11.3933   25.2278 O   0  0  0  0  0  0  0  0  0  0  0  0
    8.7493  -15.0482   28.5813 C   0  0  0  0  0  0  0  0  0  0  0  0
    9.3953  -16.1599   29.0685 C   0  0  0  0  0  0  0  0  0  0  0  0
    5.5060  -12.2449   27.0941 O   0  0  0  0  0  0  0  0  0  0  0  0
  2  1  1  0
  3  2  1  0
  4  3  1  0
  5  4  1  0
  5  6  1  6
  7  8  2  0
  7  5  1  0
 10 11  1  1
 10  9  1  0
 12 10  1  0
 13 12  1  6
 13 14  1  0
 14  7  1  0
 15 13  1  0
 15 16  2  0
 18 17  1  0
 19 18  2  0
 20 19  1  0
 21 20  2  0
 21 27  1  0
 22 21  1  0
 23 22  1  1
 23 24  1  0
 24 15  1  0
 25 23  1  0
 26 25  2  0
 27 28  2  0
 28 18  1  0
 29 25  1  0
M  END
$$$$
