MLY.pdb
     RDKit          3D

 29 29  0  0  1  0  0  0  0  0999 V2000
    7.0182  -12.0315   20.2387 C   0  0  0  0  0  0  0  0  0  0  0  0
    7.5841  -12.3132   18.5484 S   0  0  0  0  0  0  0  0  0  0  0  0
    9.1505  -13.2381   18.6313 C   0  0  0  0  0  0  0  0  0  0  0  0
    9.1583  -14.1614   19.8159 C   0  0  0  0  0  0  0  0  0  0  0  0
   10.5121  -14.6679   20.1474 C   0  0  2  0  0  0  0  0  0  0  0  0
   11.2246  -15.0729   18.9261 N   0  0  0  0  0  0  0  0  0  0  0  0
   10.5321  -15.8358   21.0841 C   0  0  0  0  0  0  0  0  0  0  0  0
    9.7711  -15.8512   22.0840 O   0  0  0  0  0  0  0  0  0  0  0  0
   10.3472  -20.2008   19.5820 C   0  0  0  0  0  0  0  0  0  0  0  0
   11.7772  -19.7965   19.7835 C   0  0  2  0  0  0  0  0  0  0  0  0
   12.7289  -20.7404   19.1397 C   0  0  0  0  0  0  0  0  0  0  0  0
   12.1545  -19.2518   21.0860 C   0  0  0  0  0  0  0  0  0  0  0  0
   11.4335  -18.1457   21.7212 C   0  0  2  0  0  0  0  0  0  0  0  0
   11.3927  -16.9413   20.8789 N   0  0  0  0  0  0  0  0  0  0  0  0
   11.8647  -17.8410   23.0810 C   0  0  0  0  0  0  0  0  0  0  0  0
   12.7763  -17.0217   23.3052 O   0  0  0  0  0  0  0  0  0  0  0  0
   10.2933  -13.7876   30.4234 O   0  0  0  0  0  0  0  0  0  0  0  0
   10.3643  -14.4192   29.1858 C   0  0  0  0  0  0  0  0  0  0  0  0
   11.2049  -15.4872   29.0287 C   0  0  0  0  0  0  0  0  0  0  0  0
   11.2809  -16.1154   27.8123 C   0  0  0  0  0  0  0  0  0  0  0  0
   10.5388  -15.7279   26.6947 C   0  0  0  0  0  0  0  0  0  0  0  0
   10.6667  -16.4198   25.4080 C   0  0  0  0  0  0  0  0  0  0  0  0
   11.3173  -17.7662   25.5151 C   0  0  2  0  0  0  0  0  0  0  0  0
   11.2742  -18.4594   24.2414 N   0  0  0  0  0  0  0  0  0  0  0  0
   10.6964  -18.5687   26.5850 C   0  0  0  0  0  0  0  0  0  0  0  0
    9.6533  -19.2607   26.3317 O   0  0  0  0  0  0  0  0  0  0  0  0
    9.7032  -14.6396   26.9104 C   0  0  0  0  0  0  0  0  0  0  0  0
    9.6055  -13.9897   28.1181 C   0  0  0  0  0  0  0  0  0  0  0  0
   11.1675  -18.6364   27.8809 O   0  0  0  0  0  0  0  0  0  0  0  0
  2  1  1  0
  3  2  1  0
  4  3  1  0
  5  4  1  0
  5  6  1  6
  7  8  2  0
  7  5  1  0
 10 11  1  1
 10  9  1  0
 12 10  1  0
 13 12  1  6
 13 14  1  0
 14  7  1  0
 15 13  1  0
 15 16  2  0
 18 17  1  0
 19 18  2  0
 20 19  1  0
 21 20  2  0
 21 27  1  0
 22 21  1  0
 23 22  1  6
 23 24  1  0
 24 15  1  0
 25 23  1  0
 26 25  2  0
 27 28  2  0
 28 18  1  0
 29 25  1  0
M  END
$$$$
