MLY.pdb
     RDKit          3D

 29 29  0  0  1  0  0  0  0  0999 V2000
    3.6053  -20.9784   21.9017 C   0  0  0  0  0  0  0  0  0  0  0  0
    2.7252  -19.4033   21.8672 S   0  0  0  0  0  0  0  0  0  0  0  0
    3.4023  -18.4159   20.4951 C   0  0  0  0  0  0  0  0  0  0  0  0
    4.9038  -18.4477   20.5102 C   0  0  0  0  0  0  0  0  0  0  0  0
    5.4892  -17.6652   21.6255 C   0  0  2  0  0  0  0  0  0  0  0  0
    4.6669  -16.4796   21.9109 N   0  0  0  0  0  0  0  0  0  0  0  0
    6.8899  -17.1911   21.3908 C   0  0  0  0  0  0  0  0  0  0  0  0
    7.7949  -18.0190   21.1176 O   0  0  0  0  0  0  0  0  0  0  0  0
    7.5416  -13.9962   18.3961 C   0  0  0  0  0  0  0  0  0  0  0  0
    7.5648  -13.5085   19.8141 C   0  0  2  0  0  0  0  0  0  0  0  0
    7.1848  -12.0754   19.9266 C   0  0  0  0  0  0  0  0  0  0  0  0
    8.6407  -13.9846   20.6810 C   0  0  0  0  0  0  0  0  0  0  0  0
    8.6008  -15.2871   21.3508 C   0  0  2  0  0  0  0  0  0  0  0  0
    7.2355  -15.8201   21.4671 N   0  0  0  0  0  0  0  0  0  0  0  0
    9.3121  -15.3378   22.6233 C   0  0  0  0  0  0  0  0  0  0  0  0
   10.5160  -15.0280   22.7073 O   0  0  0  0  0  0  0  0  0  0  0  0
   11.1298  -15.1044   31.2732 O   0  0  0  0  0  0  0  0  0  0  0  0
   10.5049  -15.1320   30.0305 C   0  0  0  0  0  0  0  0  0  0  0  0
   10.5413  -14.0158   29.2401 C   0  0  0  0  0  0  0  0  0  0  0  0
    9.9280  -14.0347   28.0140 C   0  0  0  0  0  0  0  0  0  0  0  0
    9.2515  -15.1453   27.5051 C   0  0  0  0  0  0  0  0  0  0  0  0
    8.5949  -15.1127   26.1942 C   0  0  0  0  0  0  0  0  0  0  0  0
    9.4318  -15.6884   25.0916 C   0  0  2  0  0  0  0  0  0  0  0  0
    8.6792  -15.7451   23.8526 N   0  0  0  0  0  0  0  0  0  0  0  0
    9.9546  -17.0158   25.4641 C   0  0  0  0  0  0  0  0  0  0  0  0
   10.9875  -17.1018   26.2103 O   0  0  0  0  0  0  0  0  0  0  0  0
    9.2458  -16.2490   28.3482 C   0  0  0  0  0  0  0  0  0  0  0  0
    9.8517  -16.2601   29.5824 C   0  0  0  0  0  0  0  0  0  0  0  0
    9.3990  -18.2131   25.0597 O   0  0  0  0  0  0  0  0  0  0  0  0
  2  1  1  0
  3  2  1  0
  4  3  1  0
  5  4  1  0
  5  6  1  6
  7  8  2  0
  7  5  1  0
 10 11  1  6
 10  9  1  0
 12 10  1  0
 13 12  1  1
 13 14  1  0
 14  7  1  0
 15 13  1  0
 15 16  2  0
 18 17  1  0
 19 18  2  0
 20 19  1  0
 21 20  2  0
 21 27  1  0
 22 21  1  0
 23 22  1  1
 23 24  1  0
 24 15  1  0
 25 23  1  0
 26 25  2  0
 27 28  2  0
 28 18  1  0
 29 25  1  0
M  END
$$$$
