MLY.pdb
     RDKit          3D

 29 29  0  0  1  0  0  0  0  0999 V2000
    6.9479  -12.4536   18.7411 C   0  0  0  0  0  0  0  0  0  0  0  0
    7.0118  -14.0949   17.9936 S   0  0  0  0  0  0  0  0  0  0  0  0
    7.4745  -15.2825   19.2942 C   0  0  0  0  0  0  0  0  0  0  0  0
    8.2809  -14.6068   20.3660 C   0  0  0  0  0  0  0  0  0  0  0  0
    8.5861  -15.4983   21.5110 C   0  0  2  0  0  0  0  0  0  0  0  0
    7.3794  -16.2241   21.9355 N   0  0  0  0  0  0  0  0  0  0  0  0
    9.1363  -14.8028   22.7174 C   0  0  0  0  0  0  0  0  0  0  0  0
   10.2859  -14.2967   22.6800 O   0  0  0  0  0  0  0  0  0  0  0  0
    7.1230  -11.3994   25.3685 C   0  0  0  0  0  0  0  0  0  0  0  0
    6.7132  -12.7739   25.8062 C   0  0  2  0  0  0  0  0  0  0  0  0
    5.5540  -12.7500   26.7372 C   0  0  0  0  0  0  0  0  0  0  0  0
    7.7701  -13.7455   26.0799 C   0  0  0  0  0  0  0  0  0  0  0  0
    8.8591  -14.0179   25.1383 C   0  0  2  0  0  0  0  0  0  0  0  0
    8.3941  -14.6938   23.9183 N   0  0  0  0  0  0  0  0  0  0  0  0
   10.0138  -14.6904   25.7233 C   0  0  0  0  0  0  0  0  0  0  0  0
   10.8732  -14.0612   26.3699 O   0  0  0  0  0  0  0  0  0  0  0  0
   12.0538  -19.6573   32.3459 O   0  0  0  0  0  0  0  0  0  0  0  0
   11.5370  -18.9765   31.2481 C   0  0  0  0  0  0  0  0  0  0  0  0
   11.8287  -17.6494   31.0879 C   0  0  0  0  0  0  0  0  0  0  0  0
   11.3235  -16.9711   30.0087 C   0  0  0  0  0  0  0  0  0  0  0  0
   10.5106  -17.5592   29.0375 C   0  0  0  0  0  0  0  0  0  0  0  0
    9.9786  -16.7884   27.9091 C   0  0  0  0  0  0  0  0  0  0  0  0
   10.8497  -16.8344   26.6899 C   0  0  2  0  0  0  0  0  0  0  0  0
   10.2364  -16.1085   25.5936 N   0  0  0  0  0  0  0  0  0  0  0  0
   11.1525  -18.2265   26.3099 C   0  0  0  0  0  0  0  0  0  0  0  0
   10.3909  -18.8369   25.4861 O   0  0  0  0  0  0  0  0  0  0  0  0
   10.2468  -18.9063   29.2498 C   0  0  0  0  0  0  0  0  0  0  0  0
   10.7390  -19.6128   30.3217 C   0  0  0  0  0  0  0  0  0  0  0  0
   12.2290  -18.9473   26.7867 O   0  0  0  0  0  0  0  0  0  0  0  0
  2  1  1  0
  3  2  1  0
  4  3  1  0
  5  4  1  0
  5  6  1  1
  7  8  2  0
  7  5  1  0
 10 11  1  1
 10  9  1  0
 12 10  1  0
 13 12  1  1
 13 14  1  0
 14  7  1  0
 15 13  1  0
 15 16  2  0
 18 17  1  0
 19 18  2  0
 20 19  1  0
 21 20  2  0
 21 27  1  0
 22 21  1  0
 23 22  1  1
 23 24  1  0
 24 15  1  0
 25 23  1  0
 26 25  2  0
 27 28  2  0
 28 18  1  0
 29 25  1  0
M  END
$$$$
