MLY.pdb
     RDKit          3D

 29 29  0  0  1  0  0  0  0  0999 V2000
    7.4700  -13.6743   15.6554 C   0  0  0  0  0  0  0  0  0  0  0  0
    7.6149  -12.9974   17.3221 S   0  0  0  0  0  0  0  0  0  0  0  0
    7.8136  -14.3925   18.4755 C   0  0  0  0  0  0  0  0  0  0  0  0
    7.9967  -13.8958   19.8809 C   0  0  0  0  0  0  0  0  0  0  0  0
    8.3429  -14.9752   20.8370 C   0  0  2  0  0  0  0  0  0  0  0  0
    7.1722  -15.8253   21.1012 N   0  0  0  0  0  0  0  0  0  0  0  0
    8.8567  -14.4991   22.1603 C   0  0  0  0  0  0  0  0  0  0  0  0
    9.9815  -13.9435   22.2336 O   0  0  0  0  0  0  0  0  0  0  0  0
    7.1133  -11.4791   25.3091 C   0  0  0  0  0  0  0  0  0  0  0  0
    6.5002  -12.8374   25.4764 C   0  0  2  0  0  0  0  0  0  0  0  0
    5.3117  -12.8164   26.3699 C   0  0  0  0  0  0  0  0  0  0  0  0
    7.4011  -13.9825   25.5895 C   0  0  0  0  0  0  0  0  0  0  0  0
    8.5310  -14.1943   24.6812 C   0  0  2  0  0  0  0  0  0  0  0  0
    8.1071  -14.6558   23.3512 N   0  0  0  0  0  0  0  0  0  0  0  0
    9.6012  -15.0226   25.2259 C   0  0  0  0  0  0  0  0  0  0  0  0
   10.1530  -14.7423   26.3073 O   0  0  0  0  0  0  0  0  0  0  0  0
   11.1946  -14.8553   31.2826 O   0  0  0  0  0  0  0  0  0  0  0  0
   10.9526  -15.5707   30.1142 C   0  0  0  0  0  0  0  0  0  0  0  0
   10.4312  -14.9204   29.0292 C   0  0  0  0  0  0  0  0  0  0  0  0
   10.1897  -15.6180   27.8739 C   0  0  0  0  0  0  0  0  0  0  0  0
   10.4469  -16.9826   27.7268 C   0  0  0  0  0  0  0  0  0  0  0  0
   10.1554  -17.6906   26.4761 C   0  0  0  0  0  0  0  0  0  0  0  0
   10.9039  -17.1505   25.2947 C   0  0  2  0  0  0  0  0  0  0  0  0
   10.0867  -16.2043   24.5587 N   0  0  0  0  0  0  0  0  0  0  0  0
   11.3762  -18.2433   24.4248 C   0  0  0  0  0  0  0  0  0  0  0  0
   12.1860  -19.1154   24.8885 O   0  0  0  0  0  0  0  0  0  0  0  0
   10.9748  -17.5917   28.8580 C   0  0  0  0  0  0  0  0  0  0  0  0
   11.2277  -16.9188   30.0300 C   0  0  0  0  0  0  0  0  0  0  0  0
   11.0007  -18.4069   23.1065 O   0  0  0  0  0  0  0  0  0  0  0  0
  2  1  1  0
  3  2  1  0
  4  3  1  0
  5  4  1  0
  5  6  1  1
  7  8  2  0
  7  5  1  0
 10 11  1  1
 10  9  1  0
 12 10  1  0
 13 12  1  1
 13 14  1  0
 14  7  1  0
 15 13  1  0
 15 16  2  0
 18 17  1  0
 19 18  2  0
 20 19  1  0
 21 20  2  0
 21 27  1  0
 22 21  1  0
 23 22  1  1
 23 24  1  0
 24 15  1  0
 25 23  1  0
 26 25  2  0
 27 28  2  0
 28 18  1  0
 29 25  1  0
M  END
$$$$
