QVV.pdb
     RDKit          3D

 24 23  0  0  1  0  0  0  0  0999 V2000
   13.0875  -17.9793   17.2506 N   0  0  0  0  0  0  0  0  0  0  0  0
   11.9030  -18.7245   17.2287 C   0  0  0  0  0  0  0  0  0  0  0  0
   11.7779  -19.6281   16.3672 O   0  0  0  0  0  0  0  0  0  0  0  0
   10.7881  -18.4919   18.1721 C   0  0  0  0  0  0  0  0  0  0  0  0
   11.2020  -17.3784   19.1530 C   0  0  0  0  0  0  0  0  0  0  0  0
   10.8362  -17.7778   20.5499 C   0  0  2  0  0  0  0  0  0  0  0  0
    9.7847  -18.7809   20.4740 N   0  0  0  0  0  0  0  0  0  0  0  0
   10.5020  -16.6588   21.4430 C   0  0  0  0  0  0  0  0  0  0  0  0
   11.2023  -15.6412   21.5754 O   0  0  0  0  0  0  0  0  0  0  0  0
    7.0624  -15.0642   21.3512 C   0  0  0  0  0  0  0  0  0  0  0  0
    7.3537  -15.4027   22.8171 C   0  0  2  0  0  0  0  0  0  0  0  0
    6.8576  -14.2652   23.7060 C   0  0  0  0  0  0  0  0  0  0  0  0
    8.8018  -15.7116   23.0201 C   0  0  2  0  0  0  0  0  0  0  0  0
    9.2880  -16.7817   22.1954 N   0  0  0  0  0  0  0  0  0  0  0  0
    9.1361  -15.9984   24.4772 C   0  0  0  0  0  0  0  0  0  0  0  0
    9.1531  -17.1833   24.8626 O   0  0  0  0  0  0  0  0  0  0  0  0
    9.7271  -13.7296   28.8645 C   0  0  0  0  0  0  0  0  0  0  0  0
    9.0165  -13.8759   27.5189 C   0  0  1  0  0  0  0  0  0  0  0  0
    9.0213  -12.5738   26.8142 C   0  0  0  0  0  0  0  0  0  0  0  0
    9.7305  -14.9704   26.7563 C   0  0  2  0  0  0  0  0  0  0  0  0
    9.4063  -14.9568   25.3737 N   0  0  0  0  0  0  0  0  0  0  0  0
    9.6236  -16.2500   27.4780 C   0  0  0  0  0  0  0  0  0  0  0  0
    8.4410  -16.9749   27.4364 O   0  0  0  0  0  0  0  0  0  0  0  0
   10.5489  -16.7334   28.1738 O   0  0  0  0  0  0  0  0  0  0  0  0
  2  1  1  0
  2  3  2  0
  4  5  1  0
  4  2  1  0
  6  5  1  0
  6  7  1  6
  8 14  1  0
  8  6  1  0
  9  8  2  0
 11 10  1  6
 11 13  1  0
 11 12  1  0
 13 14  1  6
 15 13  1  0
 16 15  2  0
 18 20  1  0
 18 17  1  1
 19 18  1  0
 20 22  1  0
 20 21  1  6
 21 15  1  0
 22 23  1  0
 24 22  2  0
M  END
$$$$
