QVV.pdb
     RDKit          3D

 24 23  0  0  1  0  0  0  0  0999 V2000
    6.9831  -13.0045   18.4622 N   0  0  0  0  0  0  0  0  0  0  0  0
    8.2236  -13.0429   19.1089 C   0  0  0  0  0  0  0  0  0  0  0  0
    9.1855  -12.4178   18.6006 O   0  0  0  0  0  0  0  0  0  0  0  0
    8.4548  -13.7921   20.3628 C   0  0  0  0  0  0  0  0  0  0  0  0
    7.1130  -14.3866   20.8316 C   0  0  0  0  0  0  0  0  0  0  0  0
    7.3601  -15.3934   21.9132 C   0  0  2  0  0  0  0  0  0  0  0  0
    6.0917  -16.0268   22.2414 N   0  0  0  0  0  0  0  0  0  0  0  0
    8.0653  -14.8701   23.0924 C   0  0  0  0  0  0  0  0  0  0  0  0
    9.2920  -14.6808   23.1422 O   0  0  0  0  0  0  0  0  0  0  0  0
    6.4982  -11.9777   25.2545 C   0  0  0  0  0  0  0  0  0  0  0  0
    6.9655  -13.1023   26.1846 C   0  0  2  0  0  0  0  0  0  0  0  0
    7.6459  -12.4950   27.4087 C   0  0  0  0  0  0  0  0  0  0  0  0
    7.8361  -14.0751   25.4568 C   0  0  2  0  0  0  0  0  0  0  0  0
    7.2589  -14.5724   24.2397 N   0  0  0  0  0  0  0  0  0  0  0  0
    8.2613  -15.2439   26.3345 C   0  0  0  0  0  0  0  0  0  0  0  0
    7.4029  -16.0852   26.6634 O   0  0  0  0  0  0  0  0  0  0  0  0
   11.0314  -17.4061   25.5205 C   0  0  0  0  0  0  0  0  0  0  0  0
   11.4508  -16.9251   26.9097 C   0  0  1  0  0  0  0  0  0  0  0  0
   12.5478  -15.9393   26.7803 C   0  0  0  0  0  0  0  0  0  0  0  0
   10.2153  -16.3600   27.5757 C   0  0  2  0  0  0  0  0  0  0  0  0
    9.5840  -15.3695   26.7773 N   0  0  0  0  0  0  0  0  0  0  0  0
   10.4969  -16.0350   28.9844 C   0  0  0  0  0  0  0  0  0  0  0  0
   10.7773  -17.0490   29.8892 O   0  0  0  0  0  0  0  0  0  0  0  0
   10.4729  -14.8683   29.4453 O   0  0  0  0  0  0  0  0  0  0  0  0
  2  1  1  0
  2  3  2  0
  4  5  1  0
  4  2  1  0
  6  5  1  0
  6  7  1  1
  8 14  1  0
  8  6  1  0
  9  8  2  0
 11 10  1  6
 11 13  1  0
 11 12  1  0
 13 14  1  6
 15 13  1  0
 16 15  2  0
 18 20  1  0
 18 17  1  6
 19 18  1  0
 20 22  1  0
 20 21  1  6
 21 15  1  0
 22 23  1  0
 24 22  2  0
M  END
$$$$
