QVV.pdb
     RDKit          3D

 24 23  0  0  1  0  0  0  0  0999 V2000
   11.4356  -20.5848   22.5643 N   0  0  0  0  0  0  0  0  0  0  0  0
   12.0922  -20.4442   21.3364 C   0  0  0  0  0  0  0  0  0  0  0  0
   12.7768  -21.4045   20.9081 O   0  0  0  0  0  0  0  0  0  0  0  0
   12.0208  -19.2120   20.5219 C   0  0  0  0  0  0  0  0  0  0  0  0
   11.1446  -18.1851   21.2645 C   0  0  0  0  0  0  0  0  0  0  0  0
   10.8349  -17.0368   20.3535 C   0  0  2  0  0  0  0  0  0  0  0  0
   11.9624  -16.8568   19.4513 N   0  0  0  0  0  0  0  0  0  0  0  0
   10.4404  -15.7967   21.0378 C   0  0  0  0  0  0  0  0  0  0  0  0
   11.2227  -14.8683   21.3011 O   0  0  0  0  0  0  0  0  0  0  0  0
    6.2478  -14.6982   21.2268 C   0  0  0  0  0  0  0  0  0  0  0  0
    7.4787  -13.8071   21.4249 C   0  0  2  0  0  0  0  0  0  0  0  0
    7.9199  -13.2482   20.0747 C   0  0  0  0  0  0  0  0  0  0  0  0
    8.5680  -14.5449   22.1341 C   0  0  2  0  0  0  0  0  0  0  0  0
    9.0615  -15.6845   21.4133 N   0  0  0  0  0  0  0  0  0  0  0  0
    8.1644  -14.9663   23.5401 C   0  0  0  0  0  0  0  0  0  0  0  0
    7.9525  -16.1740   23.7625 O   0  0  0  0  0  0  0  0  0  0  0  0
    7.7858  -11.7311   26.1310 C   0  0  0  0  0  0  0  0  0  0  0  0
    6.9386  -12.9585   26.4671 C   0  0  1  0  0  0  0  0  0  0  0  0
    5.5853  -12.7973   25.8889 C   0  0  0  0  0  0  0  0  0  0  0  0
    7.6763  -14.1668   25.9332 C   0  0  2  0  0  0  0  0  0  0  0  0
    8.0194  -14.0205   24.5628 N   0  0  0  0  0  0  0  0  0  0  0  0
    6.9949  -15.4057   26.3459 C   0  0  0  0  0  0  0  0  0  0  0  0
    7.2640  -15.9673   27.5859 O   0  0  0  0  0  0  0  0  0  0  0  0
    6.1812  -16.0250   25.6189 O   0  0  0  0  0  0  0  0  0  0  0  0
  2  1  1  0
  2  3  2  0
  4  5  1  0
  4  2  1  0
  6  5  1  0
  6  7  1  1
  8 14  1  0
  8  6  1  0
  9  8  2  0
 11 10  1  6
 11 13  1  0
 11 12  1  0
 13 14  1  6
 15 13  1  0
 16 15  2  0
 18 20  1  0
 18 17  1  6
 19 18  1  0
 20 22  1  0
 20 21  1  6
 21 15  1  0
 22 23  1  0
 24 22  2  0
M  END
$$$$
