QVV.pdb
     RDKit          3D

 24 23  0  0  1  0  0  0  0  0999 V2000
   14.0651  -13.7626   18.5449 N   0  0  0  0  0  0  0  0  0  0  0  0
   14.2562  -15.1414   18.4003 C   0  0  0  0  0  0  0  0  0  0  0  0
   15.3257  -15.5488   17.8859 O   0  0  0  0  0  0  0  0  0  0  0  0
   13.2519  -16.1418   18.8216 C   0  0  0  0  0  0  0  0  0  0  0  0
   12.1534  -15.4224   19.6274 C   0  0  0  0  0  0  0  0  0  0  0  0
   11.7193  -16.2888   20.7699 C   0  0  2  0  0  0  0  0  0  0  0  0
   10.8792  -17.3518   20.2390 N   0  0  0  0  0  0  0  0  0  0  0  0
   11.0967  -15.5664   21.8888 C   0  0  0  0  0  0  0  0  0  0  0  0
   11.6318  -14.6199   22.4897 O   0  0  0  0  0  0  0  0  0  0  0  0
    7.2512  -14.6040   21.8634 C   0  0  0  0  0  0  0  0  0  0  0  0
    7.6040  -15.3256   23.1684 C   0  0  2  0  0  0  0  0  0  0  0  0
    6.8713  -14.6573   24.3289 C   0  0  0  0  0  0  0  0  0  0  0  0
    9.0841  -15.3815   23.3688 C   0  0  2  0  0  0  0  0  0  0  0  0
    9.7926  -16.0079   22.2884 N   0  0  0  0  0  0  0  0  0  0  0  0
    9.4677  -16.0459   24.6835 C   0  0  0  0  0  0  0  0  0  0  0  0
    9.4635  -17.2905   24.7456 O   0  0  0  0  0  0  0  0  0  0  0  0
   10.9321  -13.3887   27.5355 C   0  0  0  0  0  0  0  0  0  0  0  0
   10.0292  -14.4875   28.0965 C   0  0  1  0  0  0  0  0  0  0  0  0
    8.6554  -13.9608   28.2616 C   0  0  0  0  0  0  0  0  0  0  0  0
   10.1093  -15.6585   27.1417 C   0  0  2  0  0  0  0  0  0  0  0  0
    9.8062  -15.2807   25.8066 N   0  0  0  0  0  0  0  0  0  0  0  0
    9.4098  -16.8262   27.7045 C   0  0  0  0  0  0  0  0  0  0  0  0
    8.2017  -17.2408   27.1622 O   0  0  0  0  0  0  0  0  0  0  0  0
    9.8302  -17.4775   28.6910 O   0  0  0  0  0  0  0  0  0  0  0  0
  2  1  1  0
  2  3  2  0
  4  5  1  0
  4  2  1  0
  6  5  1  0
  6  7  1  6
  8 14  1  0
  8  6  1  0
  9  8  2  0
 11 10  1  6
 11 13  1  0
 11 12  1  0
 13 14  1  6
 15 13  1  0
 16 15  2  0
 18 20  1  0
 18 17  1  6
 19 18  1  0
 20 22  1  0
 20 21  1  6
 21 15  1  0
 22 23  1  0
 24 22  2  0
M  END
$$$$
