QVV.pdb
     RDKit          3D

 24 23  0  0  1  0  0  0  0  0999 V2000
   13.6930  -20.2587   22.3595 N   0  0  0  0  0  0  0  0  0  0  0  0
   13.6404  -20.2076   20.9619 C   0  0  0  0  0  0  0  0  0  0  0  0
   14.3198  -21.0329   20.3048 O   0  0  0  0  0  0  0  0  0  0  0  0
   12.8241  -19.2207   20.2226 C   0  0  0  0  0  0  0  0  0  0  0  0
   12.0392  -18.3735   21.2423 C   0  0  0  0  0  0  0  0  0  0  0  0
   11.1368  -17.4227   20.5170 C   0  0  2  0  0  0  0  0  0  0  0  0
   11.8125  -16.9944   19.3014 N   0  0  0  0  0  0  0  0  0  0  0  0
   10.6443  -16.3003   21.3288 C   0  0  0  0  0  0  0  0  0  0  0  0
   11.1331  -15.1584   21.3066 O   0  0  0  0  0  0  0  0  0  0  0  0
    7.2920  -14.8497   21.2623 C   0  0  0  0  0  0  0  0  0  0  0  0
    7.4928  -15.3088   22.7105 C   0  0  2  0  0  0  0  0  0  0  0  0
    6.8559  -14.2927   23.6550 C   0  0  0  0  0  0  0  0  0  0  0  0
    8.9386  -15.5494   23.0027 C   0  0  2  0  0  0  0  0  0  0  0  0
    9.5320  -16.5742   22.1907 N   0  0  0  0  0  0  0  0  0  0  0  0
    9.1916  -15.8531   24.4727 C   0  0  0  0  0  0  0  0  0  0  0  0
    9.0506  -17.0251   24.8719 O   0  0  0  0  0  0  0  0  0  0  0  0
    9.8826  -13.5421   28.8233 C   0  0  0  0  0  0  0  0  0  0  0  0
    9.1953  -13.6612   27.4629 C   0  0  1  0  0  0  0  0  0  0  0  0
    9.3721  -12.3995   26.7086 C   0  0  0  0  0  0  0  0  0  0  0  0
    9.7952  -14.8628   26.7661 C   0  0  2  0  0  0  0  0  0  0  0  0
    9.5619  -14.8394   25.3654 N   0  0  0  0  0  0  0  0  0  0  0  0
    9.4664  -16.0967   27.5002 C   0  0  0  0  0  0  0  0  0  0  0  0
   10.4319  -16.7221   28.2763 O   0  0  0  0  0  0  0  0  0  0  0  0
    8.3446  -16.6562   27.4492 O   0  0  0  0  0  0  0  0  0  0  0  0
  2  1  1  0
  2  3  2  0
  4  5  1  0
  4  2  1  0
  6  5  1  0
  6  7  1  6
  8 14  1  0
  8  6  1  0
  9  8  2  0
 11 10  1  6
 11 13  1  0
 11 12  1  0
 13 14  1  6
 15 13  1  0
 16 15  2  0
 18 20  1  0
 18 17  1  1
 19 18  1  0
 20 22  1  0
 20 21  1  6
 21 15  1  0
 22 23  1  0
 24 22  2  0
M  END
$$$$
