QVV.pdb
     RDKit          3D

 24 23  0  0  1  0  0  0  0  0999 V2000
   10.1125  -20.6309   24.2064 N   0  0  0  0  0  0  0  0  0  0  0  0
   11.3324  -19.9865   23.9709 C   0  0  0  0  0  0  0  0  0  0  0  0
   12.3002  -20.2371   24.7292 O   0  0  0  0  0  0  0  0  0  0  0  0
   11.5322  -19.0183   22.8710 C   0  0  0  0  0  0  0  0  0  0  0  0
   10.1829  -18.8014   22.1597 C   0  0  0  0  0  0  0  0  0  0  0  0
   10.3490  -17.7935   21.0637 C   0  0  2  0  0  0  0  0  0  0  0  0
   11.6417  -18.0174   20.4340 N   0  0  0  0  0  0  0  0  0  0  0  0
   10.1420  -16.3971   21.4745 C   0  0  0  0  0  0  0  0  0  0  0  0
   11.0505  -15.6441   21.8630 O   0  0  0  0  0  0  0  0  0  0  0  0
    8.0055  -13.7739   19.5397 C   0  0  0  0  0  0  0  0  0  0  0  0
    7.4767  -13.8822   20.9740 C   0  0  2  0  0  0  0  0  0  0  0  0
    7.1063  -12.4910   21.4817 C   0  0  0  0  0  0  0  0  0  0  0  0
    8.4579  -14.5826   21.8574 C   0  0  2  0  0  0  0  0  0  0  0  0
    8.7967  -15.9055   21.4137 N   0  0  0  0  0  0  0  0  0  0  0  0
    8.0008  -14.6326   23.3084 C   0  0  0  0  0  0  0  0  0  0  0  0
    7.1320  -15.4657   23.6311 O   0  0  0  0  0  0  0  0  0  0  0  0
    7.0119  -12.5334   27.4265 C   0  0  0  0  0  0  0  0  0  0  0  0
    6.9818  -12.9417   25.9536 C   0  0  1  0  0  0  0  0  0  0  0  0
    6.7490  -11.7445   25.1143 C   0  0  0  0  0  0  0  0  0  0  0  0
    8.2949  -13.6327   25.6575 C   0  0  2  0  0  0  0  0  0  0  0  0
    8.5312  -13.7551   24.2625 N   0  0  0  0  0  0  0  0  0  0  0  0
    8.4373  -14.8392   26.4903 C   0  0  0  0  0  0  0  0  0  0  0  0
    9.3620  -14.8648   27.5247 O   0  0  0  0  0  0  0  0  0  0  0  0
    7.7783  -15.8908   26.3063 O   0  0  0  0  0  0  0  0  0  0  0  0
  2  1  1  0
  2  3  2  0
  4  5  1  0
  4  2  1  0
  6  5  1  0
  6  7  1  1
  8 14  1  0
  8  6  1  0
  9  8  2  0
 11 10  1  6
 11 13  1  0
 11 12  1  0
 13 14  1  6
 15 13  1  0
 16 15  2  0
 18 20  1  0
 18 17  1  1
 19 18  1  0
 20 22  1  0
 20 21  1  6
 21 15  1  0
 22 23  1  0
 24 22  2  0
M  END
$$$$
