QVV.pdb
     RDKit          3D

 24 23  0  0  1  0  0  0  0  0999 V2000
   12.9385  -20.1265   23.1849 N   0  0  0  0  0  0  0  0  0  0  0  0
   12.7040  -20.5437   21.8697 C   0  0  0  0  0  0  0  0  0  0  0  0
   12.6068  -21.7730   21.6379 O   0  0  0  0  0  0  0  0  0  0  0  0
   12.5709  -19.6012   20.7379 C   0  0  0  0  0  0  0  0  0  0  0  0
   12.6664  -18.1641   21.2847 C   0  0  0  0  0  0  0  0  0  0  0  0
   11.4675  -17.3793   20.8473 C   0  0  2  0  0  0  0  0  0  0  0  0
   11.7275  -16.8603   19.5128 N   0  0  0  0  0  0  0  0  0  0  0  0
   11.0308  -16.3427   21.7940 C   0  0  0  0  0  0  0  0  0  0  0  0
   11.6311  -15.2707   21.9776 O   0  0  0  0  0  0  0  0  0  0  0  0
    7.6153  -14.7216   21.9910 C   0  0  0  0  0  0  0  0  0  0  0  0
    7.8817  -15.3747   23.3515 C   0  0  2  0  0  0  0  0  0  0  0  0
    7.3426  -14.4725   24.4587 C   0  0  0  0  0  0  0  0  0  0  0  0
    9.3312  -15.6985   23.5178 C   0  0  2  0  0  0  0  0  0  0  0  0
    9.8365  -16.6181   22.5376 N   0  0  0  0  0  0  0  0  0  0  0  0
    9.6554  -16.2119   24.9137 C   0  0  0  0  0  0  0  0  0  0  0  0
    9.6698  -17.4428   25.1074 O   0  0  0  0  0  0  0  0  0  0  0  0
   10.9385  -13.2146   27.4799 C   0  0  0  0  0  0  0  0  0  0  0  0
   10.1165  -14.3058   28.1661 C   0  0  1  0  0  0  0  0  0  0  0  0
    8.7160  -13.8490   28.3141 C   0  0  0  0  0  0  0  0  0  0  0  0
   10.2511  -15.5572   27.3264 C   0  0  2  0  0  0  0  0  0  0  0  0
    9.9195  -15.3251   25.9651 N   0  0  0  0  0  0  0  0  0  0  0  0
    9.6174  -16.6999   28.0061 C   0  0  0  0  0  0  0  0  0  0  0  0
   10.2689  -17.3335   29.0548 O   0  0  0  0  0  0  0  0  0  0  0  0
    8.5044  -17.1743   27.6741 O   0  0  0  0  0  0  0  0  0  0  0  0
  2  1  1  0
  2  3  2  0
  4  5  1  0
  4  2  1  0
  6  5  1  0
  6  7  1  6
  8 14  1  0
  8  6  1  0
  9  8  2  0
 11 10  1  6
 11 13  1  0
 11 12  1  0
 13 14  1  6
 15 13  1  0
 16 15  2  0
 18 20  1  0
 18 17  1  6
 19 18  1  0
 20 22  1  0
 20 21  1  6
 21 15  1  0
 22 23  1  0
 24 22  2  0
M  END
$$$$
