DPI.pdb
     RDKit          3D

 24 24  0  0  1  0  0  0  0  0999 V2000
   12.2082  -16.7344   19.8082 N   0  0  0  0  0  0  0  0  0  0  0  0
   10.9617  -17.2113   20.4016 C   0  0  1  0  0  0  0  0  0  0  0  0
   11.3210  -18.3692   21.2780 C   0  0  0  0  0  0  0  0  0  0  0  0
   11.1532  -19.6728   20.6102 C   0  0  0  0  0  0  0  0  0  0  0  0
   11.1589  -19.8285   19.3542 O   0  0  0  0  0  0  0  0  0  0  0  0
   10.2502  -16.1669   21.1612 C   0  0  0  0  0  0  0  0  0  0  0  0
   10.9507  -15.3034   21.7880 O   0  0  0  0  0  0  0  0  0  0  0  0
   10.9785  -20.7969   21.4161 O   0  0  0  0  0  0  0  0  0  0  0  0
    8.8391  -16.0566   21.2423 N   0  0  0  0  0  0  0  0  0  0  0  0
    7.9155  -16.9677   20.5921 C   0  0  0  0  0  0  0  0  0  0  0  0
    6.8175  -16.0368   20.1268 C   0  0  0  0  0  0  0  0  0  0  0  0
    6.6017  -15.2411   21.4243 C   0  0  0  0  0  0  0  0  0  0  0  0
    8.0406  -15.0827   21.9382 C   0  0  1  0  0  0  0  0  0  0  0  0
    8.0061  -15.3121   23.3995 C   0  0  0  0  0  0  0  0  0  0  0  0
    8.3898  -16.3994   23.8989 O   0  0  0  0  0  0  0  0  0  0  0  0
    6.2153  -10.9417   26.4615 C   0  0  0  0  0  0  0  0  0  0  0  0
    7.1896  -11.9803   26.0077 C   0  0  0  0  0  0  0  0  0  0  0  0
    6.8205  -13.3737   26.4241 C   0  0  2  0  0  0  0  0  0  0  0  0
    7.1027  -13.5212   27.8929 C   0  0  0  0  0  0  0  0  0  0  0  0
    7.5849  -14.4381   25.6784 C   0  0  2  0  0  0  0  0  0  0  0  0
    7.5297  -14.2831   24.2570 N   0  0  0  0  0  0  0  0  0  0  0  0
    6.9827  -15.7450   26.0387 C   0  0  0  0  0  0  0  0  0  0  0  0
    5.9240  -16.0951   25.4564 O   0  0  0  0  0  0  0  0  0  0  0  0
    7.5525  -16.5835   26.9932 O   0  0  0  0  0  0  0  0  0  0  0  0
  2  1  1  1
  2  3  1  0
  3  4  1  0
  4  8  1  0
  5  4  2  0
  6  7  2  0
  6  2  1  0
  9  6  1  0
 10  9  1  0
 11 10  1  0
 12 11  1  0
 12 13  1  0
 13 14  1  1
 13  9  1  0
 14 21  1  0
 15 14  2  0
 17 16  1  0
 18 20  1  0
 18 17  1  0
 18 19  1  1
 20 22  1  0
 20 21  1  6
 22 23  2  0
 22 24  1  0
M  END
$$$$
