DPI.pdb
     RDKit          3D

 24 24  0  0  1  0  0  0  0  0999 V2000
    8.2405  -17.1935   18.0489 N   0  0  0  0  0  0  0  0  0  0  0  0
    8.9026  -17.7512   19.2253 C   0  0  1  0  0  0  0  0  0  0  0  0
   10.1700  -18.3831   18.7432 C   0  0  0  0  0  0  0  0  0  0  0  0
   10.9427  -19.0240   19.8226 C   0  0  0  0  0  0  0  0  0  0  0  0
   12.1867  -18.8634   19.9916 O   0  0  0  0  0  0  0  0  0  0  0  0
    9.1711  -16.7421   20.2662 C   0  0  0  0  0  0  0  0  0  0  0  0
   10.0007  -17.0424   21.1885 O   0  0  0  0  0  0  0  0  0  0  0  0
   10.2563  -19.8553   20.7066 O   0  0  0  0  0  0  0  0  0  0  0  0
    8.5697  -15.4590   20.3117 N   0  0  0  0  0  0  0  0  0  0  0  0
    7.7247  -14.9214   19.2615 C   0  0  0  0  0  0  0  0  0  0  0  0
    8.1402  -13.4672   19.2253 C   0  0  0  0  0  0  0  0  0  0  0  0
    8.0875  -13.1576   20.7302 C   0  0  0  0  0  0  0  0  0  0  0  0
    8.6488  -14.4524   21.3368 C   0  0  1  0  0  0  0  0  0  0  0  0
    7.8167  -14.7736   22.5174 C   0  0  0  0  0  0  0  0  0  0  0  0
    6.6939  -15.3240   22.3944 O   0  0  0  0  0  0  0  0  0  0  0  0
    8.4917  -18.4004   25.6120 C   0  0  0  0  0  0  0  0  0  0  0  0
    7.9871  -17.1949   24.8868 C   0  0  0  0  0  0  0  0  0  0  0  0
    7.9571  -15.9545   25.7303 C   0  0  2  0  0  0  0  0  0  0  0  0
    7.0177  -16.1847   26.8806 C   0  0  0  0  0  0  0  0  0  0  0  0
    7.5003  -14.7330   24.9735 C   0  0  2  0  0  0  0  0  0  0  0  0
    8.2956  -14.4539   23.8172 N   0  0  0  0  0  0  0  0  0  0  0  0
    7.5912  -13.5808   25.9036 C   0  0  0  0  0  0  0  0  0  0  0  0
    8.6746  -12.9442   25.9608 O   0  0  0  0  0  0  0  0  0  0  0  0
    6.5210  -13.1913   26.7046 O   0  0  0  0  0  0  0  0  0  0  0  0
  2  1  1  6
  2  3  1  0
  3  4  1  0
  4  8  1  0
  5  4  2  0
  6  7  2  0
  6  2  1  0
  9  6  1  0
 10  9  1  0
 11 10  1  0
 12 11  1  0
 12 13  1  0
 13 14  1  1
 13  9  1  0
 14 21  1  0
 15 14  2  0
 17 16  1  0
 18 20  1  0
 18 17  1  0
 18 19  1  1
 20 22  1  0
 20 21  1  6
 22 23  2  0
 22 24  1  0
M  END
$$$$
