DPI.pdb
     RDKit          3D

 24 24  0  0  1  0  0  0  0  0999 V2000
   12.1226  -16.9959   19.8300 N   0  0  0  0  0  0  0  0  0  0  0  0
   10.7817  -17.3617   20.2790 C   0  0  1  0  0  0  0  0  0  0  0  0
   10.9346  -18.5797   21.1339 C   0  0  0  0  0  0  0  0  0  0  0  0
   11.5314  -19.7194   20.4140 C   0  0  0  0  0  0  0  0  0  0  0  0
   11.1692  -20.0935   19.2604 O   0  0  0  0  0  0  0  0  0  0  0  0
   10.1050  -16.2760   21.0121 C   0  0  0  0  0  0  0  0  0  0  0  0
   10.8335  -15.3990   21.5858 O   0  0  0  0  0  0  0  0  0  0  0  0
   12.5553  -20.4226   21.0471 O   0  0  0  0  0  0  0  0  0  0  0  0
    8.6981  -16.1400   21.1225 N   0  0  0  0  0  0  0  0  0  0  0  0
    7.7448  -17.0422   20.5034 C   0  0  0  0  0  0  0  0  0  0  0  0
    6.6531  -16.0975   20.0510 C   0  0  0  0  0  0  0  0  0  0  0  0
    6.4797  -15.2832   21.3432 C   0  0  0  0  0  0  0  0  0  0  0  0
    7.9320  -15.1442   21.8238 C   0  0  1  0  0  0  0  0  0  0  0  0
    7.9256  -15.3561   23.2882 C   0  0  0  0  0  0  0  0  0  0  0  0
    8.3369  -16.4300   23.7942 O   0  0  0  0  0  0  0  0  0  0  0  0
    6.5496  -10.8332   26.3742 C   0  0  0  0  0  0  0  0  0  0  0  0
    7.3868  -11.9654   25.8734 C   0  0  0  0  0  0  0  0  0  0  0  0
    6.8967  -13.3146   26.3100 C   0  0  2  0  0  0  0  0  0  0  0  0
    7.1895  -13.4752   27.7753 C   0  0  0  0  0  0  0  0  0  0  0  0
    7.5454  -14.4521   25.5626 C   0  0  2  0  0  0  0  0  0  0  0  0
    7.4449  -14.3251   24.1410 N   0  0  0  0  0  0  0  0  0  0  0  0
    6.8588  -15.6994   25.9791 C   0  0  0  0  0  0  0  0  0  0  0  0
    7.2816  -16.3011   26.9997 O   0  0  0  0  0  0  0  0  0  0  0  0
    5.7718  -16.2144   25.2776 O   0  0  0  0  0  0  0  0  0  0  0  0
  2  1  1  1
  2  3  1  0
  3  4  1  0
  4  8  1  0
  5  4  2  0
  6  7  2  0
  6  2  1  0
  9  6  1  0
 10  9  1  0
 11 10  1  0
 12 11  1  0
 12 13  1  0
 13 14  1  1
 13  9  1  0
 14 21  1  0
 15 14  2  0
 17 16  1  0
 18 20  1  0
 18 17  1  0
 18 19  1  1
 20 22  1  0
 20 21  1  6
 22 23  2  0
 22 24  1  0
M  END
$$$$
