DPI.pdb
     RDKit          3D

 24 24  0  0  1  0  0  0  0  0999 V2000
   11.9304  -16.8611   19.5344 N   0  0  0  0  0  0  0  0  0  0  0  0
   10.8030  -17.4195   20.2763 C   0  0  1  0  0  0  0  0  0  0  0  0
   11.3553  -18.5140   21.1335 C   0  0  0  0  0  0  0  0  0  0  0  0
   11.9339  -19.6227   20.3530 C   0  0  0  0  0  0  0  0  0  0  0  0
   13.1541  -19.9560   20.3976 O   0  0  0  0  0  0  0  0  0  0  0  0
   10.0931  -16.4128   21.0867 C   0  0  0  0  0  0  0  0  0  0  0  0
   10.7723  -15.4418   21.5610 O   0  0  0  0  0  0  0  0  0  0  0  0
   11.0808  -20.3428   19.5179 O   0  0  0  0  0  0  0  0  0  0  0  0
    8.7054  -16.4503   21.3746 N   0  0  0  0  0  0  0  0  0  0  0  0
    7.8108  -17.4991   20.9212 C   0  0  0  0  0  0  0  0  0  0  0  0
    6.5556  -16.7272   20.5788 C   0  0  0  0  0  0  0  0  0  0  0  0
    6.4378  -15.8706   21.8498 C   0  0  0  0  0  0  0  0  0  0  0  0
    7.9072  -15.5221   22.1306 C   0  0  1  0  0  0  0  0  0  0  0  0
    8.1114  -15.6510   23.5905 C   0  0  0  0  0  0  0  0  0  0  0  0
    8.5713  -16.7059   24.0946 O   0  0  0  0  0  0  0  0  0  0  0  0
    5.9230  -11.7613   27.2881 C   0  0  0  0  0  0  0  0  0  0  0  0
    6.2859  -12.9503   26.4584 C   0  0  0  0  0  0  0  0  0  0  0  0
    7.7284  -13.3464   26.5738 C   0  0  2  0  0  0  0  0  0  0  0  0
    8.5718  -12.2415   26.0023 C   0  0  0  0  0  0  0  0  0  0  0  0
    8.0529  -14.6254   25.8442 C   0  0  2  0  0  0  0  0  0  0  0  0
    7.7812  -14.5606   24.4409 N   0  0  0  0  0  0  0  0  0  0  0  0
    7.2179  -15.6959   26.4421 C   0  0  0  0  0  0  0  0  0  0  0  0
    7.5380  -16.1399   27.5747 O   0  0  0  0  0  0  0  0  0  0  0  0
    6.1029  -16.2152   25.7893 O   0  0  0  0  0  0  0  0  0  0  0  0
  2  1  1  1
  2  3  1  0
  3  4  1  0
  4  8  1  0
  5  4  2  0
  6  7  2  0
  6  2  1  0
  9  6  1  0
 10  9  1  0
 11 10  1  0
 12 11  1  0
 12 13  1  0
 13 14  1  1
 13  9  1  0
 14 21  1  0
 15 14  2  0
 17 16  1  0
 18 20  1  0
 18 17  1  0
 18 19  1  6
 20 22  1  0
 20 21  1  6
 22 23  2  0
 22 24  1  0
M  END
$$$$
