DPI.pdb
     RDKit          3D

 24 24  0  0  1  0  0  0  0  0999 V2000
    9.0390  -19.4055   20.0642 N   0  0  0  0  0  0  0  0  0  0  0  0
    8.2180  -18.5914   20.9567 C   0  0  1  0  0  0  0  0  0  0  0  0
    7.9240  -19.4357   22.1560 C   0  0  0  0  0  0  0  0  0  0  0  0
    7.3436  -20.7462   21.8115 C   0  0  0  0  0  0  0  0  0  0  0  0
    6.2923  -20.8935   21.1222 O   0  0  0  0  0  0  0  0  0  0  0  0
    8.8688  -17.3254   21.3411 C   0  0  0  0  0  0  0  0  0  0  0  0
   10.1391  -17.3213   21.4653 O   0  0  0  0  0  0  0  0  0  0  0  0
    7.9964  -21.8874   22.2755 O   0  0  0  0  0  0  0  0  0  0  0  0
    8.1783  -16.1108   21.5820 N   0  0  0  0  0  0  0  0  0  0  0  0
    6.7418  -15.9541   21.4483 C   0  0  0  0  0  0  0  0  0  0  0  0
    6.6226  -14.5727   20.8432 C   0  0  0  0  0  0  0  0  0  0  0  0
    7.5718  -13.8094   21.7810 C   0  0  0  0  0  0  0  0  0  0  0  0
    8.6993  -14.8321   21.9866 C   0  0  1  0  0  0  0  0  0  0  0  0
    9.0641  -14.7923   23.4200 C   0  0  0  0  0  0  0  0  0  0  0  0
   10.2495  -14.5950   23.7867 O   0  0  0  0  0  0  0  0  0  0  0  0
    5.5223  -12.4955   26.6802 C   0  0  0  0  0  0  0  0  0  0  0  0
    6.3142  -13.4977   25.9041 C   0  0  0  0  0  0  0  0  0  0  0  0
    7.6276  -13.8484   26.5390 C   0  0  2  0  0  0  0  0  0  0  0  0
    8.4806  -12.6118   26.5803 C   0  0  0  0  0  0  0  0  0  0  0  0
    8.3772  -14.9251   25.7960 C   0  0  2  0  0  0  0  0  0  0  0  0
    8.0545  -14.9807   24.4031 N   0  0  0  0  0  0  0  0  0  0  0  0
    8.0172  -16.2216   26.4204 C   0  0  0  0  0  0  0  0  0  0  0  0
    8.3642  -16.4268   27.6121 O   0  0  0  0  0  0  0  0  0  0  0  0
    7.3136  -17.2048   25.7296 O   0  0  0  0  0  0  0  0  0  0  0  0
  2  1  1  6
  2  3  1  0
  3  4  1  0
  4  8  1  0
  5  4  2  0
  6  7  2  0
  6  2  1  0
  9  6  1  0
 10  9  1  0
 11 10  1  0
 12 11  1  0
 12 13  1  0
 13 14  1  1
 13  9  1  0
 14 21  1  0
 15 14  2  0
 17 16  1  0
 18 20  1  0
 18 17  1  0
 18 19  1  6
 20 22  1  0
 20 21  1  6
 22 23  2  0
 22 24  1  0
M  END
$$$$
