DPI.pdb
     RDKit          3D

 24 24  0  0  1  0  0  0  0  0999 V2000
   10.1935  -17.3611   18.7704 N   0  0  0  0  0  0  0  0  0  0  0  0
    9.9008  -18.0171   20.0421 C   0  0  1  0  0  0  0  0  0  0  0  0
   11.2191  -18.3761   20.6514 C   0  0  0  0  0  0  0  0  0  0  0  0
   11.9781  -19.3541   19.8510 C   0  0  0  0  0  0  0  0  0  0  0  0
   11.4594  -20.0985   18.9685 O   0  0  0  0  0  0  0  0  0  0  0  0
    9.1029  -17.1756   20.9527 C   0  0  0  0  0  0  0  0  0  0  0  0
    9.2943  -15.9140   20.9207 O   0  0  0  0  0  0  0  0  0  0  0  0
   13.3484  -19.4602   20.0849 O   0  0  0  0  0  0  0  0  0  0  0  0
    8.1359  -17.6734   21.8622 N   0  0  0  0  0  0  0  0  0  0  0  0
    7.8637  -19.0844   22.0650 C   0  0  0  0  0  0  0  0  0  0  0  0
    6.3601  -19.1024   22.2316 C   0  0  0  0  0  0  0  0  0  0  0  0
    6.2101  -17.9571   23.2459 C   0  0  0  0  0  0  0  0  0  0  0  0
    7.2536  -16.9503   22.7391 C   0  0  1  0  0  0  0  0  0  0  0  0
    7.9481  -16.4105   23.9289 C   0  0  0  0  0  0  0  0  0  0  0  0
    8.9416  -16.9967   24.4268 O   0  0  0  0  0  0  0  0  0  0  0  0
    5.9695  -11.9899   27.2199 C   0  0  0  0  0  0  0  0  0  0  0  0
    6.2898  -13.1338   26.3128 C   0  0  0  0  0  0  0  0  0  0  0  0
    7.7372  -13.2064   25.9247 C   0  0  2  0  0  0  0  0  0  0  0  0
    7.9472  -12.3469   24.7099 C   0  0  0  0  0  0  0  0  0  0  0  0
    8.1973  -14.6069   25.6081 C   0  0  2  0  0  0  0  0  0  0  0  0
    7.4833  -15.2048   24.5218 N   0  0  0  0  0  0  0  0  0  0  0  0
    7.9832  -15.4255   26.8266 C   0  0  0  0  0  0  0  0  0  0  0  0
    8.7238  -15.2184   27.8223 O   0  0  0  0  0  0  0  0  0  0  0  0
    6.9958  -16.4048   26.8953 O   0  0  0  0  0  0  0  0  0  0  0  0
  2  1  1  6
  2  3  1  0
  3  4  1  0
  4  8  1  0
  5  4  2  0
  6  7  2  0
  6  2  1  0
  9  6  1  0
 10  9  1  0
 11 10  1  0
 12 11  1  0
 12 13  1  0
 13 14  1  1
 13  9  1  0
 14 21  1  0
 15 14  2  0
 17 16  1  0
 18 20  1  0
 18 17  1  0
 18 19  1  6
 20 22  1  0
 20 21  1  6
 22 23  2  0
 22 24  1  0
M  END
$$$$
