DPI.pdb
     RDKit          3D

 24 24  0  0  1  0  0  0  0  0999 V2000
   10.6316  -16.8198   18.7581 N   0  0  0  0  0  0  0  0  0  0  0  0
   10.2080  -17.6000   19.9179 C   0  0  1  0  0  0  0  0  0  0  0  0
   11.4560  -18.0656   20.5988 C   0  0  0  0  0  0  0  0  0  0  0  0
   12.1604  -19.1241   19.8528 C   0  0  0  0  0  0  0  0  0  0  0  0
   13.4032  -19.1116   19.6135 O   0  0  0  0  0  0  0  0  0  0  0  0
    9.3486  -16.8367   20.8413 C   0  0  0  0  0  0  0  0  0  0  0  0
    9.6117  -15.6001   21.0166 O   0  0  0  0  0  0  0  0  0  0  0  0
   11.4069  -20.2002   19.3859 O   0  0  0  0  0  0  0  0  0  0  0  0
    8.2482  -17.3839   21.5482 N   0  0  0  0  0  0  0  0  0  0  0  0
    7.8856  -18.7888   21.5232 C   0  0  0  0  0  0  0  0  0  0  0  0
    6.3740  -18.7318   21.4980 C   0  0  0  0  0  0  0  0  0  0  0  0
    6.1461  -17.7185   22.6313 C   0  0  0  0  0  0  0  0  0  0  0  0
    7.2933  -16.7240   22.3985 C   0  0  1  0  0  0  0  0  0  0  0  0
    7.8501  -16.3864   23.7272 C   0  0  0  0  0  0  0  0  0  0  0  0
    8.8264  -17.0166   24.2052 O   0  0  0  0  0  0  0  0  0  0  0  0
    6.2169  -11.4689   26.0025 C   0  0  0  0  0  0  0  0  0  0  0  0
    7.0978  -12.5654   25.4970 C   0  0  0  0  0  0  0  0  0  0  0  0
    7.1115  -13.7801   26.3776 C   0  0  2  0  0  0  0  0  0  0  0  0
    7.8148  -13.4302   27.6588 C   0  0  0  0  0  0  0  0  0  0  0  0
    7.8116  -14.9594   25.7512 C   0  0  2  0  0  0  0  0  0  0  0  0
    7.2701  -15.3285   24.4793 N   0  0  0  0  0  0  0  0  0  0  0  0
    7.6624  -16.1042   26.6828 C   0  0  0  0  0  0  0  0  0  0  0  0
    8.5431  -16.2746   27.5648 O   0  0  0  0  0  0  0  0  0  0  0  0
    6.5856  -16.9837   26.6066 O   0  0  0  0  0  0  0  0  0  0  0  0
  2  1  1  6
  2  3  1  0
  3  4  1  0
  4  8  1  0
  5  4  2  0
  6  7  2  0
  6  2  1  0
  9  6  1  0
 10  9  1  0
 11 10  1  0
 12 11  1  0
 12 13  1  0
 13 14  1  1
 13  9  1  0
 14 21  1  0
 15 14  2  0
 17 16  1  0
 18 20  1  0
 18 17  1  0
 18 19  1  1
 20 22  1  0
 20 21  1  6
 22 23  2  0
 22 24  1  0
M  END
$$$$
