DPI.pdb
     RDKit          3D

 24 24  0  0  1  0  0  0  0  0999 V2000
   12.2503  -17.2400   20.1734 N   0  0  0  0  0  0  0  0  0  0  0  0
   10.8740  -17.5233   20.5719 C   0  0  1  0  0  0  0  0  0  0  0  0
   10.9031  -18.8204   21.3166 C   0  0  0  0  0  0  0  0  0  0  0  0
   11.3891  -19.9457   20.4977 C   0  0  0  0  0  0  0  0  0  0  0  0
   12.2617  -20.7762   20.8859 O   0  0  0  0  0  0  0  0  0  0  0  0
   10.2804  -16.4504   21.3907 C   0  0  0  0  0  0  0  0  0  0  0  0
   11.0577  -15.7774   22.1469 O   0  0  0  0  0  0  0  0  0  0  0  0
   10.8513  -20.0986   19.2205 O   0  0  0  0  0  0  0  0  0  0  0  0
    8.9028  -16.1151   21.3945 N   0  0  0  0  0  0  0  0  0  0  0  0
    7.8956  -16.8140   20.6180 C   0  0  0  0  0  0  0  0  0  0  0  0
    6.9973  -15.6848   20.1634 C   0  0  0  0  0  0  0  0  0  0  0  0
    6.8171  -14.9569   21.5053 C   0  0  0  0  0  0  0  0  0  0  0  0
    8.2213  -15.0739   22.1169 C   0  0  1  0  0  0  0  0  0  0  0  0
    8.0439  -15.3958   23.5501 C   0  0  0  0  0  0  0  0  0  0  0  0
    8.0621  -16.5836   23.9595 O   0  0  0  0  0  0  0  0  0  0  0  0
    5.6683  -11.5433   26.9890 C   0  0  0  0  0  0  0  0  0  0  0  0
    6.1083  -12.6972   26.1471 C   0  0  0  0  0  0  0  0  0  0  0  0
    7.3066  -13.4168   26.6922 C   0  0  2  0  0  0  0  0  0  0  0  0
    8.4660  -12.4607   26.7135 C   0  0  0  0  0  0  0  0  0  0  0  0
    7.6947  -14.6249   25.8778 C   0  0  2  0  0  0  0  0  0  0  0  0
    7.8490  -14.3416   24.4838 N   0  0  0  0  0  0  0  0  0  0  0  0
    6.6166  -15.6305   26.0430 C   0  0  0  0  0  0  0  0  0  0  0  0
    5.7792  -15.7656   25.1141 O   0  0  0  0  0  0  0  0  0  0  0  0
    6.5097  -16.4186   27.1859 O   0  0  0  0  0  0  0  0  0  0  0  0
  2  1  1  1
  2  3  1  0
  3  4  1  0
  4  8  1  0
  5  4  2  0
  6  7  2  0
  6  2  1  0
  9  6  1  0
 10  9  1  0
 11 10  1  0
 12 11  1  0
 12 13  1  0
 13 14  1  1
 13  9  1  0
 14 21  1  0
 15 14  2  0
 17 16  1  0
 18 20  1  0
 18 17  1  0
 18 19  1  6
 20 22  1  0
 20 21  1  6
 22 23  2  0
 22 24  1  0
M  END
$$$$
