MWC.pdb
     RDKit          3D

 29 30  0  0  1  0  0  0  0  0999 V2000
   23.7320  -15.8105  -18.3878 C   0  0  0  0  0  0  0  0  0  0  0  0
   25.0832  -14.7560  -18.9788 S   0  0  0  0  0  0  0  0  0  0  0  0
   25.2811  -13.3701  -17.8091 C   0  0  0  0  0  0  0  0  0  0  0  0
   23.9510  -12.6304  -17.7138 C   0  0  0  0  0  0  0  0  0  0  0  0
   24.1989  -11.4393  -16.8106 C   0  0  2  0  0  0  0  0  0  0  0  0
   24.5212  -11.8515  -15.4764 N   0  0  0  0  0  0  0  0  0  0  0  0
   22.9955  -10.5425  -16.8272 C   0  0  0  0  0  0  0  0  0  0  0  0
   22.5902  -10.0340  -17.9011 O   0  0  0  0  0  0  0  0  0  0  0  0
   22.2748  -10.2339  -15.6547 N   0  0  0  0  0  0  0  0  0  0  0  0
   21.0867   -9.3530  -15.6773 C   0  0  1  0  0  0  0  0  0  0  0  0
   19.9309  -10.0457  -15.0656 C   0  0  0  0  0  0  0  0  0  0  0  0
   19.2897  -11.0022  -15.9700 C   0  0  0  0  0  0  0  0  0  0  0  0
   19.8048  -12.1793  -16.5102 C   0  0  0  0  0  0  0  0  0  0  0  0
   18.9068  -12.7516  -17.3292 N   0  0  0  0  0  0  0  0  0  0  0  0
   17.7966  -12.0030  -17.3649 C   0  0  0  0  0  0  0  0  0  0  0  0
   16.6199  -12.1891  -18.0611 C   0  0  0  0  0  0  0  0  0  0  0  0
   15.6338  -11.2401  -17.9037 C   0  0  0  0  0  0  0  0  0  0  0  0
   15.8216  -10.1489  -17.0810 C   0  0  0  0  0  0  0  0  0  0  0  0
   17.0108   -9.9912  -16.3978 C   0  0  0  0  0  0  0  0  0  0  0  0
   18.0086  -10.9139  -16.5316 C   0  0  0  0  0  0  0  0  0  0  0  0
   21.4835   -8.0610  -15.0810 C   0  0  0  0  0  0  0  0  0  0  0  0
   22.4101   -8.0222  -14.1833 O   0  0  0  0  0  0  0  0  0  0  0  0
   20.9557   -6.7857  -15.3876 N   0  0  0  0  0  0  0  0  0  0  0  0
   21.4504   -5.6051  -14.7744 C   0  0  1  0  0  0  0  0  0  0  0  0
   22.8596   -5.2408  -15.1749 C   0  0  0  0  0  0  0  0  0  0  0  0
   23.3559   -3.6676  -14.4307 S   0  0  0  0  0  0  0  0  0  0  0  0
   20.6008   -4.4467  -15.0962 C   0  0  0  0  0  0  0  0  0  0  0  0
   20.5833   -3.2557  -14.4039 O   0  0  0  0  0  0  0  0  0  0  0  0
   19.7885   -4.4905  -16.0933 O   0  0  0  0  0  0  0  0  0  0  0  0
  2  1  1  0
  3  2  1  0
  4  3  1  0
  5  4  1  0
  5  6  1  1
  7  8  2  0
  7  5  1  0
  9  7  1  0
 10  9  1  0
 10 11  1  1
 12 11  1  0
 12 20  1  0
 13 14  1  0
 13 12  2  0
 14 15  1  0
 15 16  1  0
 15 20  2  0
 16 17  2  0
 17 18  1  0
 19 18  2  0
 20 19  1  0
 21 10  1  0
 22 21  2  0
 23 21  1  0
 24 23  1  0
 25 26  1  0
 24 25  1  6
 27 24  1  0
 27 28  1  0
 29 27  2  0
M  END
$$$$
