MWC.pdb
     RDKit          3D

 29 30  0  0  1  0  0  0  0  0999 V2000
   30.1375  -17.4402  -16.6141 C   0  0  0  0  0  0  0  0  0  0  0  0
   29.1428  -16.1265  -15.8580 S   0  0  0  0  0  0  0  0  0  0  0  0
   27.4446  -16.7530  -15.6309 C   0  0  0  0  0  0  0  0  0  0  0  0
   27.5268  -18.1485  -15.0216 C   0  0  0  0  0  0  0  0  0  0  0  0
   26.1053  -18.6720  -14.9826 C   0  0  2  0  0  0  0  0  0  0  0  0
   25.2650  -17.8458  -14.1670 N   0  0  0  0  0  0  0  0  0  0  0  0
   26.1103  -20.0916  -14.4955 C   0  0  0  0  0  0  0  0  0  0  0  0
   26.9453  -20.9179  -14.9383 O   0  0  0  0  0  0  0  0  0  0  0  0
   25.1910  -20.5563  -13.5320 N   0  0  0  0  0  0  0  0  0  0  0  0
   25.2042  -21.9552  -13.0509 C   0  0  1  0  0  0  0  0  0  0  0  0
   24.8621  -21.9990  -11.6119 C   0  0  0  0  0  0  0  0  0  0  0  0
   25.7601  -21.1926  -10.7829 C   0  0  0  0  0  0  0  0  0  0  0  0
   25.4490  -20.1540   -9.9071 C   0  0  0  0  0  0  0  0  0  0  0  0
   26.5688  -19.6452   -9.3665 N   0  0  0  0  0  0  0  0  0  0  0  0
   27.6327  -20.3032   -9.8454 C   0  0  0  0  0  0  0  0  0  0  0  0
   28.9765  -20.1338   -9.5815 C   0  0  0  0  0  0  0  0  0  0  0  0
   29.8597  -20.9680  -10.2309 C   0  0  0  0  0  0  0  0  0  0  0  0
   29.4120  -21.9327  -11.1093 C   0  0  0  0  0  0  0  0  0  0  0  0
   28.0606  -22.0771  -11.3521 C   0  0  0  0  0  0  0  0  0  0  0  0
   27.1586  -21.2664  -10.7245 C   0  0  0  0  0  0  0  0  0  0  0  0
   24.3527  -22.7442  -13.9645 C   0  0  0  0  0  0  0  0  0  0  0  0
   23.3693  -22.1786  -14.5799 O   0  0  0  0  0  0  0  0  0  0  0  0
   24.4858  -24.1167  -14.2772 N   0  0  0  0  0  0  0  0  0  0  0  0
   23.6064  -24.7653  -15.1829 C   0  0  1  0  0  0  0  0  0  0  0  0
   24.1378  -26.0625  -15.7434 C   0  0  0  0  0  0  0  0  0  0  0  0
   25.8171  -25.8493  -16.3835 S   0  0  0  0  0  0  0  0  0  0  0  0
   22.3181  -25.0725  -14.5402 C   0  0  0  0  0  0  0  0  0  0  0  0
   21.2299  -25.6379  -15.1682 O   0  0  0  0  0  0  0  0  0  0  0  0
   22.1336  -24.8148  -13.2930 O   0  0  0  0  0  0  0  0  0  0  0  0
  2  1  1  0
  3  2  1  0
  4  3  1  0
  5  4  1  0
  5  6  1  1
  7  8  2  0
  7  5  1  0
  9  7  1  0
 10  9  1  0
 10 11  1  1
 12 11  1  0
 12 20  1  0
 13 14  1  0
 13 12  2  0
 14 15  1  0
 15 16  1  0
 15 20  2  0
 16 17  2  0
 17 18  1  0
 19 18  2  0
 20 19  1  0
 21 10  1  0
 22 21  2  0
 23 21  1  0
 24 23  1  0
 25 26  1  0
 24 25  1  1
 27 24  1  0
 27 28  1  0
 29 27  2  0
M  END
$$$$
