MWC.pdb
     RDKit          3D

 29 30  0  0  1  0  0  0  0  0999 V2000
   26.9746  -19.1058  -18.5366 C   0  0  0  0  0  0  0  0  0  0  0  0
   28.4821  -20.1108  -18.4692 S   0  0  0  0  0  0  0  0  0  0  0  0
   27.9992  -21.8697  -18.5001 C   0  0  0  0  0  0  0  0  0  0  0  0
   26.9779  -22.1052  -17.3924 C   0  0  0  0  0  0  0  0  0  0  0  0
   27.7790  -22.3223  -16.1246 C   0  0  2  0  0  0  0  0  0  0  0  0
   28.4966  -23.5622  -16.1641 N   0  0  0  0  0  0  0  0  0  0  0  0
   26.8608  -22.2626  -14.9388 C   0  0  0  0  0  0  0  0  0  0  0  0
   26.2694  -23.2933  -14.5339 O   0  0  0  0  0  0  0  0  0  0  0  0
   26.6233  -21.0637  -14.2348 N   0  0  0  0  0  0  0  0  0  0  0  0
   25.7254  -21.0125  -13.0603 C   0  0  1  0  0  0  0  0  0  0  0  0
   26.1684  -19.9503  -12.1300 C   0  0  0  0  0  0  0  0  0  0  0  0
   27.2886  -20.3604  -11.2811 C   0  0  0  0  0  0  0  0  0  0  0  0
   28.5472  -20.8280  -11.6551 C   0  0  0  0  0  0  0  0  0  0  0  0
   29.2752  -21.1354  -10.5686 N   0  0  0  0  0  0  0  0  0  0  0  0
   28.5538  -20.8925   -9.4665 C   0  0  0  0  0  0  0  0  0  0  0  0
   28.8801  -21.0552   -8.1356 C   0  0  0  0  0  0  0  0  0  0  0  0
   27.9234  -20.7193   -7.2031 C   0  0  0  0  0  0  0  0  0  0  0  0
   26.6896  -20.2398   -7.5909 C   0  0  0  0  0  0  0  0  0  0  0  0
   26.3936  -20.0884   -8.9309 C   0  0  0  0  0  0  0  0  0  0  0  0
   27.3197  -20.4120   -9.8807 C   0  0  0  0  0  0  0  0  0  0  0  0
   24.3407  -20.9222  -13.5669 C   0  0  0  0  0  0  0  0  0  0  0  0
   23.9774  -19.9058  -14.2745 O   0  0  0  0  0  0  0  0  0  0  0  0
   23.3020  -21.8617  -13.3731 N   0  0  0  0  0  0  0  0  0  0  0  0
   22.0243  -21.6965  -13.9687 C   0  0  1  0  0  0  0  0  0  0  0  0
   21.3738  -22.9850  -14.4110 C   0  0  0  0  0  0  0  0  0  0  0  0
   21.5196  -24.2548  -13.1297 S   0  0  0  0  0  0  0  0  0  0  0  0
   21.0889  -21.0415  -13.0397 C   0  0  0  0  0  0  0  0  0  0  0  0
   19.8123  -20.6296  -13.3541 O   0  0  0  0  0  0  0  0  0  0  0  0
   21.4347  -20.8083  -11.8223 O   0  0  0  0  0  0  0  0  0  0  0  0
  2  1  1  0
  3  2  1  0
  4  3  1  0
  5  4  1  0
  5  6  1  6
  7  8  2  0
  7  5  1  0
  9  7  1  0
 10  9  1  0
 10 11  1  1
 12 11  1  0
 12 20  1  0
 13 14  1  0
 13 12  2  0
 14 15  1  0
 15 16  1  0
 15 20  2  0
 16 17  2  0
 17 18  1  0
 19 18  2  0
 20 19  1  0
 21 10  1  0
 22 21  2  0
 23 21  1  0
 24 23  1  0
 25 26  1  0
 24 25  1  1
 27 24  1  0
 27 28  1  0
 29 27  2  0
M  END
$$$$
