MWC.pdb
     RDKit          3D

 29 30  0  0  1  0  0  0  0  0999 V2000
   30.5871  -17.2449  -17.4459 C   0  0  0  0  0  0  0  0  0  0  0  0
   30.0437  -17.9994  -15.8895 S   0  0  0  0  0  0  0  0  0  0  0  0
   29.4178  -19.6739  -16.2531 C   0  0  0  0  0  0  0  0  0  0  0  0
   28.8968  -20.2824  -14.9554 C   0  0  0  0  0  0  0  0  0  0  0  0
   27.4232  -19.9348  -14.8929 C   0  0  2  0  0  0  0  0  0  0  0  0
   27.2243  -18.5288  -14.6989 N   0  0  0  0  0  0  0  0  0  0  0  0
   26.7691  -20.7323  -13.8026 C   0  0  0  0  0  0  0  0  0  0  0  0
   26.8061  -21.9871  -13.8163 O   0  0  0  0  0  0  0  0  0  0  0  0
   26.0925  -20.1183  -12.7280 N   0  0  0  0  0  0  0  0  0  0  0  0
   25.2754  -20.8975  -11.7722 C   0  0  1  0  0  0  0  0  0  0  0  0
   25.4385  -20.3535  -10.4056 C   0  0  0  0  0  0  0  0  0  0  0  0
   26.7273  -20.6959   -9.8009 C   0  0  0  0  0  0  0  0  0  0  0  0
   27.7715  -21.4520  -10.3307 C   0  0  0  0  0  0  0  0  0  0  0  0
   28.7682  -21.5662   -9.4371 N   0  0  0  0  0  0  0  0  0  0  0  0
   28.4373  -20.9127   -8.3157 C   0  0  0  0  0  0  0  0  0  0  0  0
   29.1383  -20.7555   -7.1376 C   0  0  0  0  0  0  0  0  0  0  0  0
   28.5398  -20.0213   -6.1374 C   0  0  0  0  0  0  0  0  0  0  0  0
   27.2887  -19.4675   -6.3129 C   0  0  0  0  0  0  0  0  0  0  0  0
   26.6129  -19.6428   -7.5039 C   0  0  0  0  0  0  0  0  0  0  0  0
   27.1780  -20.3652   -8.5156 C   0  0  0  0  0  0  0  0  0  0  0  0
   23.9006  -20.9531  -12.3095 C   0  0  0  0  0  0  0  0  0  0  0  0
   23.2902  -19.8633  -12.6346 O   0  0  0  0  0  0  0  0  0  0  0  0
   23.1223  -22.1119  -12.5344 N   0  0  0  0  0  0  0  0  0  0  0  0
   21.8144  -22.0391  -13.0810 C   0  0  1  0  0  0  0  0  0  0  0  0
   21.3182  -23.3334  -13.6792 C   0  0  0  0  0  0  0  0  0  0  0  0
   22.4897  -23.9698  -14.9031 S   0  0  0  0  0  0  0  0  0  0  0  0
   20.8355  -21.6375  -12.0574 C   0  0  0  0  0  0  0  0  0  0  0  0
   19.4941  -21.4173  -12.2818 O   0  0  0  0  0  0  0  0  0  0  0  0
   21.2029  -21.4627  -10.8366 O   0  0  0  0  0  0  0  0  0  0  0  0
  2  1  1  0
  3  2  1  0
  4  3  1  0
  5  4  1  0
  5  6  1  1
  7  8  2  0
  7  5  1  0
  9  7  1  0
 10  9  1  0
 10 11  1  1
 12 11  1  0
 12 20  1  0
 13 14  1  0
 13 12  2  0
 14 15  1  0
 15 16  1  0
 15 20  2  0
 16 17  2  0
 17 18  1  0
 19 18  2  0
 20 19  1  0
 21 10  1  0
 22 21  2  0
 23 21  1  0
 24 23  1  0
 25 26  1  0
 24 25  1  1
 27 24  1  0
 27 28  1  0
 29 27  2  0
M  END
$$$$
