MWC.pdb
     RDKit          3D

 29 30  0  0  1  0  0  0  0  0999 V2000
   29.7346  -16.7634  -16.6452 C   0  0  0  0  0  0  0  0  0  0  0  0
   28.5559  -17.4282  -15.4388 S   0  0  0  0  0  0  0  0  0  0  0  0
   27.9987  -19.0637  -16.0243 C   0  0  0  0  0  0  0  0  0  0  0  0
   27.0565  -19.6509  -14.9789 C   0  0  0  0  0  0  0  0  0  0  0  0
   27.9423  -20.3095  -13.9407 C   0  0  2  0  0  0  0  0  0  0  0  0
   28.6880  -21.3970  -14.5021 N   0  0  0  0  0  0  0  0  0  0  0  0
   27.1006  -20.7661  -12.7851 C   0  0  0  0  0  0  0  0  0  0  0  0
   26.5262  -21.8820  -12.8123 O   0  0  0  0  0  0  0  0  0  0  0  0
   26.9186  -19.9746  -11.6319 N   0  0  0  0  0  0  0  0  0  0  0  0
   25.9304  -20.3286  -10.5896 C   0  0  1  0  0  0  0  0  0  0  0  0
   26.1931  -19.5517   -9.3578 C   0  0  0  0  0  0  0  0  0  0  0  0
   27.0036  -20.2808   -8.3804 C   0  0  0  0  0  0  0  0  0  0  0  0
   27.3582  -21.6286   -8.3660 C   0  0  0  0  0  0  0  0  0  0  0  0
   28.0809  -21.9118   -7.2694 N   0  0  0  0  0  0  0  0  0  0  0  0
   28.2303  -20.8009   -6.5361 C   0  0  0  0  0  0  0  0  0  0  0  0
   28.8888  -20.6067   -5.3391 C   0  0  0  0  0  0  0  0  0  0  0  0
   28.8759  -19.3357   -4.8079 C   0  0  0  0  0  0  0  0  0  0  0  0
   28.2284  -18.3021   -5.4520 C   0  0  0  0  0  0  0  0  0  0  0  0
   27.5784  -18.5288   -6.6488 C   0  0  0  0  0  0  0  0  0  0  0  0
   27.5723  -19.7770   -7.2025 C   0  0  0  0  0  0  0  0  0  0  0  0
   24.5877  -20.1945  -11.1906 C   0  0  0  0  0  0  0  0  0  0  0  0
   24.3590  -19.2674  -12.0589 O   0  0  0  0  0  0  0  0  0  0  0  0
   23.4555  -21.0002  -10.9294 N   0  0  0  0  0  0  0  0  0  0  0  0
   22.2829  -20.9217  -11.7253 C   0  0  1  0  0  0  0  0  0  0  0  0
   22.0600  -22.1152  -12.6225 C   0  0  0  0  0  0  0  0  0  0  0  0
   20.4680  -21.9940  -13.4745 S   0  0  0  0  0  0  0  0  0  0  0  0
   21.0818  -20.7876  -10.8849 C   0  0  0  0  0  0  0  0  0  0  0  0
   19.8993  -20.1976  -11.2746 O   0  0  0  0  0  0  0  0  0  0  0  0
   21.0754  -21.2386   -9.6797 O   0  0  0  0  0  0  0  0  0  0  0  0
  2  1  1  0
  3  2  1  0
  4  3  1  0
  5  4  1  0
  5  6  1  6
  7  8  2  0
  7  5  1  0
  9  7  1  0
 10  9  1  0
 10 11  1  1
 12 11  1  0
 12 20  1  0
 13 14  1  0
 13 12  2  0
 14 15  1  0
 15 16  1  0
 15 20  2  0
 16 17  2  0
 17 18  1  0
 19 18  2  0
 20 19  1  0
 21 10  1  0
 22 21  2  0
 23 21  1  0
 24 23  1  0
 25 26  1  0
 24 25  1  1
 27 24  1  0
 27 28  1  0
 29 27  2  0
M  END
$$$$
