MWC.pdb
     RDKit          3D

 29 30  0  0  1  0  0  0  0  0999 V2000
   27.4843  -16.6157  -14.6095 C   0  0  0  0  0  0  0  0  0  0  0  0
   28.1210  -17.1442  -16.2226 S   0  0  0  0  0  0  0  0  0  0  0  0
   28.3054  -18.9590  -16.1986 C   0  0  0  0  0  0  0  0  0  0  0  0
   27.2634  -19.5333  -15.2448 C   0  0  0  0  0  0  0  0  0  0  0  0
   27.8849  -20.7800  -14.6483 C   0  0  2  0  0  0  0  0  0  0  0  0
   27.8358  -21.8801  -15.5655 N   0  0  0  0  0  0  0  0  0  0  0  0
   27.1917  -21.1146  -13.3598 C   0  0  0  0  0  0  0  0  0  0  0  0
   26.1339  -21.7906  -13.3581 O   0  0  0  0  0  0  0  0  0  0  0  0
   27.6892  -20.6914  -12.1097 N   0  0  0  0  0  0  0  0  0  0  0  0
   26.9497  -20.9349  -10.8519 C   0  0  1  0  0  0  0  0  0  0  0  0
   27.7786  -20.5379   -9.6920 C   0  0  0  0  0  0  0  0  0  0  0  0
   27.0689  -20.6433   -8.4156 C   0  0  0  0  0  0  0  0  0  0  0  0
   25.7724  -21.0904   -8.1673 C   0  0  0  0  0  0  0  0  0  0  0  0
   25.4852  -20.9925   -6.8585 N   0  0  0  0  0  0  0  0  0  0  0  0
   26.5437  -20.4934   -6.2069 C   0  0  0  0  0  0  0  0  0  0  0  0
   26.7141  -20.2179   -4.8656 C   0  0  0  0  0  0  0  0  0  0  0  0
   27.9291  -19.6997   -4.4746 C   0  0  0  0  0  0  0  0  0  0  0  0
   28.9320  -19.4676   -5.3928 C   0  0  0  0  0  0  0  0  0  0  0  0
   28.7303  -19.7540   -6.7282 C   0  0  0  0  0  0  0  0  0  0  0  0
   27.5375  -20.2686   -7.1488 C   0  0  0  0  0  0  0  0  0  0  0  0
   25.6294  -20.2854  -10.9832 C   0  0  0  0  0  0  0  0  0  0  0  0
   25.5426  -18.9977  -11.0010 O   0  0  0  0  0  0  0  0  0  0  0  0
   24.3754  -20.9267  -11.1064 N   0  0  0  0  0  0  0  0  0  0  0  0
   23.2066  -20.2159  -11.4849 C   0  0  1  0  0  0  0  0  0  0  0  0
   22.6331  -20.6289  -12.8189 C   0  0  0  0  0  0  0  0  0  0  0  0
   22.5360  -22.4313  -12.9497 S   0  0  0  0  0  0  0  0  0  0  0  0
   22.1375  -20.3875  -10.4876 C   0  0  0  0  0  0  0  0  0  0  0  0
   22.1895  -21.2351   -9.4027 O   0  0  0  0  0  0  0  0  0  0  0  0
   21.0422  -19.7190  -10.5840 O   0  0  0  0  0  0  0  0  0  0  0  0
  2  1  1  0
  3  2  1  0
  4  3  1  0
  5  4  1  0
  5  6  1  6
  7  8  2  0
  7  5  1  0
  9  7  1  0
 10  9  1  0
 10 11  1  1
 12 11  1  0
 12 20  1  0
 13 14  1  0
 13 12  2  0
 14 15  1  0
 15 16  1  0
 15 20  2  0
 16 17  2  0
 17 18  1  0
 19 18  2  0
 20 19  1  0
 21 10  1  0
 22 21  2  0
 23 21  1  0
 24 23  1  0
 25 26  1  0
 24 25  1  6
 27 24  1  0
 27 28  1  0
 29 27  2  0
M  END
$$$$
