AVA.pdb
     RDKit          3D

 18 17  0  0  1  0  0  0  0  0999 V2000
   18.7181  -11.8198  -18.2053 C   0  0  0  0  0  0  0  0  0  0  0  0
   19.9390  -12.3072  -17.4993 C   0  0  2  0  0  0  0  0  0  0  0  0
   19.7184  -13.6921  -17.1287 N   0  0  0  0  0  0  0  0  0  0  0  0
   20.3490  -11.5496  -16.3357 C   0  0  0  0  0  0  0  0  0  0  0  0
   19.7046  -11.6597  -15.2526 O   0  0  0  0  0  0  0  0  0  0  0  0
   24.2510  -10.0101  -16.2122 C   0  0  0  0  0  0  0  0  0  0  0  0
   23.4337  -10.2292  -14.9715 C   0  0  2  0  0  0  0  0  0  0  0  0
   23.5404  -11.6938  -14.5999 C   0  0  0  0  0  0  0  0  0  0  0  0
   21.9738   -9.9357  -15.2520 C   0  0  2  0  0  0  0  0  0  0  0  0
   21.4741  -10.6732  -16.3830 N   0  0  0  0  0  0  0  0  0  0  0  0
   21.8432   -8.4518  -15.4805 C   0  0  0  0  0  0  0  0  0  0  0  0
   22.1640   -7.9434  -16.5823 O   0  0  0  0  0  0  0  0  0  0  0  0
   19.8044   -5.7418  -14.3907 C   0  0  0  0  0  0  0  0  0  0  0  0
   21.2064   -6.1809  -14.7023 C   0  0  2  0  0  0  0  0  0  0  0  0
   21.3530   -7.6038  -14.4476 N   0  0  0  0  0  0  0  0  0  0  0  0
   22.1766   -5.4419  -13.8422 C   0  0  0  0  0  0  0  0  0  0  0  0
   22.5910   -4.1627  -14.1850 O   0  0  0  0  0  0  0  0  0  0  0  0
   22.6370   -5.9522  -12.7996 O   0  0  0  0  0  0  0  0  0  0  0  0
  2  1  1  1
  3  2  1  0
  4 10  1  0
  4  2  1  0
  5  4  2  0
  7  6  1  6
  7  9  1  0
  8  7  1  0
  9 11  1  0
  9 10  1  6
 11 15  1  0
 12 11  2  0
 14 16  1  0
 14 13  1  1
 15 14  1  0
 16 17  1  0
 18 16  2  0
M  END
$$$$
