AVA.pdb
     RDKit          3D

 18 17  0  0  1  0  0  0  0  0999 V2000
   21.0238  -10.2704  -20.5209 C   0  0  0  0  0  0  0  0  0  0  0  0
   21.3547  -11.2142  -19.4135 C   0  0  2  0  0  0  0  0  0  0  0  0
   20.6522  -12.4587  -19.6617 N   0  0  0  0  0  0  0  0  0  0  0  0
   21.0678  -10.7505  -18.0723 C   0  0  0  0  0  0  0  0  0  0  0  0
   19.8831  -10.7936  -17.6303 O   0  0  0  0  0  0  0  0  0  0  0  0
   24.0210  -10.6385  -15.1502 C   0  0  0  0  0  0  0  0  0  0  0  0
   22.5629  -10.4752  -14.8293 C   0  0  2  0  0  0  0  0  0  0  0  0
   21.9371  -11.8545  -14.8063 C   0  0  0  0  0  0  0  0  0  0  0  0
   21.8759   -9.6816  -15.9222 C   0  0  2  0  0  0  0  0  0  0  0  0
   22.1003  -10.2411  -17.2295 N   0  0  0  0  0  0  0  0  0  0  0  0
   22.3903   -8.2669  -15.8497 C   0  0  0  0  0  0  0  0  0  0  0  0
   23.5439   -7.9841  -16.2553 O   0  0  0  0  0  0  0  0  0  0  0  0
   21.1696   -4.9451  -16.0184 C   0  0  0  0  0  0  0  0  0  0  0  0
   22.0868   -5.8707  -15.2716 C   0  0  2  0  0  0  0  0  0  0  0  0
   21.5732   -7.2291  -15.3191 N   0  0  0  0  0  0  0  0  0  0  0  0
   22.1856   -5.4499  -13.8432 C   0  0  0  0  0  0  0  0  0  0  0  0
   22.9343   -4.3375  -13.4859 O   0  0  0  0  0  0  0  0  0  0  0  0
   21.6013   -6.0834  -12.9396 O   0  0  0  0  0  0  0  0  0  0  0  0
  2  1  1  6
  3  2  1  0
  4 10  1  0
  4  2  1  0
  5  4  2  0
  7  6  1  6
  7  9  1  0
  8  7  1  0
  9 11  1  0
  9 10  1  6
 11 15  1  0
 12 11  2  0
 14 16  1  0
 14 13  1  6
 15 14  1  0
 16 17  1  0
 18 16  2  0
M  END
$$$$
