AVA.pdb
     RDKit          3D

 18 17  0  0  1  0  0  0  0  0999 V2000
   20.3881  -22.0344  -14.2269 C   0  0  0  0  0  0  0  0  0  0  0  0
   20.9693  -21.6049  -12.9214 C   0  0  2  0  0  0  0  0  0  0  0  0
   19.9572  -20.8488  -12.2085 N   0  0  0  0  0  0  0  0  0  0  0  0
   22.1948  -20.8371  -12.9897 C   0  0  0  0  0  0  0  0  0  0  0  0
   22.1479  -19.5729  -12.9805 O   0  0  0  0  0  0  0  0  0  0  0  0
   25.4256  -21.2966  -10.8586 C   0  0  0  0  0  0  0  0  0  0  0  0
   25.8004  -21.4033  -12.3090 C   0  0  2  0  0  0  0  0  0  0  0  0
   27.0689  -20.6024  -12.5191 C   0  0  0  0  0  0  0  0  0  0  0  0
   24.7211  -20.7815  -13.1720 C   0  0  2  0  0  0  0  0  0  0  0  0
   23.4663  -21.4797  -13.0680 N   0  0  0  0  0  0  0  0  0  0  0  0
   25.2183  -20.7831  -14.5947 C   0  0  0  0  0  0  0  0  0  0  0  0
   25.4999  -21.8609  -15.1728 O   0  0  0  0  0  0  0  0  0  0  0  0
   25.5236  -18.2711  -17.3508 C   0  0  0  0  0  0  0  0  0  0  0  0
   25.8094  -19.5897  -16.6910 C   0  0  2  0  0  0  0  0  0  0  0  0
   25.3760  -19.5593  -15.3045 N   0  0  0  0  0  0  0  0  0  0  0  0
   27.2746  -19.8712  -16.7246 C   0  0  0  0  0  0  0  0  0  0  0  0
   27.8601  -20.4279  -17.8529 O   0  0  0  0  0  0  0  0  0  0  0  0
   28.0058  -19.6150  -15.7454 O   0  0  0  0  0  0  0  0  0  0  0  0
  2  1  1  6
  3  2  1  0
  4 10  1  0
  4  2  1  0
  5  4  2  0
  7  6  1  1
  7  9  1  0
  8  7  1  0
  9 11  1  0
  9 10  1  6
 11 15  1  0
 12 11  2  0
 14 16  1  0
 14 13  1  1
 15 14  1  0
 16 17  1  0
 18 16  2  0
M  END
$$$$
