AVA.pdb
     RDKit          3D

 18 17  0  0  1  0  0  0  0  0999 V2000
   23.7059  -10.5140  -20.4789 C   0  0  0  0  0  0  0  0  0  0  0  0
   23.5426  -11.4794  -19.3528 C   0  0  2  0  0  0  0  0  0  0  0  0
   22.9447  -12.6893  -19.8843 N   0  0  0  0  0  0  0  0  0  0  0  0
   22.7743  -11.0126  -18.2180 C   0  0  0  0  0  0  0  0  0  0  0  0
   21.5112  -11.0807  -18.2410 O   0  0  0  0  0  0  0  0  0  0  0  0
   23.1401  -12.0899  -14.6354 C   0  0  0  0  0  0  0  0  0  0  0  0
   23.2743  -10.5943  -14.6148 C   0  0  2  0  0  0  0  0  0  0  0  0
   22.4343  -10.0703  -13.4682 C   0  0  0  0  0  0  0  0  0  0  0  0
   22.7168  -10.0045  -15.8944 C   0  0  2  0  0  0  0  0  0  0  0  0
   23.4151  -10.4724  -17.0632 N   0  0  0  0  0  0  0  0  0  0  0  0
   22.8070   -8.5044  -15.7817 C   0  0  0  0  0  0  0  0  0  0  0  0
   23.9225   -7.9289  -15.7791 O   0  0  0  0  0  0  0  0  0  0  0  0
   20.4517   -5.6637  -16.1993 C   0  0  0  0  0  0  0  0  0  0  0  0
   21.7305   -6.2680  -15.6940 C   0  0  2  0  0  0  0  0  0  0  0  0
   21.6258   -7.7171  -15.6762 N   0  0  0  0  0  0  0  0  0  0  0  0
   22.0062   -5.7945  -14.3059 C   0  0  0  0  0  0  0  0  0  0  0  0
   22.7226   -4.6261  -14.0886 O   0  0  0  0  0  0  0  0  0  0  0  0
   21.6023   -6.4331  -13.3118 O   0  0  0  0  0  0  0  0  0  0  0  0
  2  1  1  6
  3  2  1  0
  4 10  1  0
  4  2  1  0
  5  4  2  0
  7  6  1  6
  7  9  1  0
  8  7  1  0
  9 11  1  0
  9 10  1  6
 11 15  1  0
 12 11  2  0
 14 16  1  0
 14 13  1  1
 15 14  1  0
 16 17  1  0
 18 16  2  0
M  END
$$$$
