AVA.pdb
     RDKit          3D

 18 17  0  0  1  0  0  0  0  0999 V2000
   18.2751   -9.7147  -19.3362 C   0  0  0  0  0  0  0  0  0  0  0  0
   18.8334  -10.7255  -18.3911 C   0  0  2  0  0  0  0  0  0  0  0  0
   17.8216  -11.7420  -18.1745 N   0  0  0  0  0  0  0  0  0  0  0  0
   19.2983  -10.2198  -17.1167 C   0  0  0  0  0  0  0  0  0  0  0  0
   18.4621   -9.8876  -16.2274 O   0  0  0  0  0  0  0  0  0  0  0  0
   22.9995   -9.8644  -13.8762 C   0  0  0  0  0  0  0  0  0  0  0  0
   22.3966  -10.4670  -15.1127 C   0  0  2  0  0  0  0  0  0  0  0  0
   23.4472  -10.4328  -16.2035 C   0  0  0  0  0  0  0  0  0  0  0  0
   21.2254   -9.6280  -15.5821 C   0  0  2  0  0  0  0  0  0  0  0  0
   20.6914  -10.0863  -16.8380 N   0  0  0  0  0  0  0  0  0  0  0  0
   21.7012   -8.2022  -15.6910 C   0  0  0  0  0  0  0  0  0  0  0  0
   22.5336   -7.8709  -16.5701 O   0  0  0  0  0  0  0  0  0  0  0  0
   20.5670   -4.9457  -15.3718 C   0  0  0  0  0  0  0  0  0  0  0  0
   21.6859   -5.8408  -14.9216 C   0  0  2  0  0  0  0  0  0  0  0  0
   21.2123   -7.2087  -14.7964 N   0  0  0  0  0  0  0  0  0  0  0  0
   22.1972   -5.3916  -13.5935 C   0  0  0  0  0  0  0  0  0  0  0  0
   23.0265   -4.2834  -13.4952 O   0  0  0  0  0  0  0  0  0  0  0  0
   21.8938   -5.9971  -12.5444 O   0  0  0  0  0  0  0  0  0  0  0  0
  2  1  1  6
  3  2  1  0
  4 10  1  0
  4  2  1  0
  5  4  2  0
  7  6  1  1
  7  9  1  0
  8  7  1  0
  9 11  1  0
  9 10  1  6
 11 15  1  0
 12 11  2  0
 14 16  1  0
 14 13  1  1
 15 14  1  0
 16 17  1  0
 18 16  2  0
M  END
$$$$
