AVA.pdb
     RDKit          3D

 18 17  0  0  1  0  0  0  0  0999 V2000
   18.7293  -10.6407  -19.0413 C   0  0  0  0  0  0  0  0  0  0  0  0
   19.6050  -11.4947  -18.1866 C   0  0  2  0  0  0  0  0  0  0  0  0
   18.8949  -12.7294  -17.9120 N   0  0  0  0  0  0  0  0  0  0  0  0
   20.0562  -10.9042  -16.9441 C   0  0  0  0  0  0  0  0  0  0  0  0
   19.3124  -10.9422  -15.9214 O   0  0  0  0  0  0  0  0  0  0  0  0
   24.1703  -10.1624  -16.4770 C   0  0  0  0  0  0  0  0  0  0  0  0
   23.2457  -10.3442  -15.3076 C   0  0  2  0  0  0  0  0  0  0  0  0
   23.0571  -11.8320  -15.0941 C   0  0  0  0  0  0  0  0  0  0  0  0
   21.8863   -9.7536  -15.6229 C   0  0  2  0  0  0  0  0  0  0  0  0
   21.3327  -10.2744  -16.8456 N   0  0  0  0  0  0  0  0  0  0  0  0
   22.0473   -8.2573  -15.7028 C   0  0  0  0  0  0  0  0  0  0  0  0
   22.4764   -7.7149  -16.7502 O   0  0  0  0  0  0  0  0  0  0  0  0
   20.8289   -5.2743  -15.2307 C   0  0  0  0  0  0  0  0  0  0  0  0
   21.9975   -6.0119  -14.6426 C   0  0  2  0  0  0  0  0  0  0  0  0
   21.7142   -7.4360  -14.5889 N   0  0  0  0  0  0  0  0  0  0  0  0
   22.2624   -5.5276  -13.2561 C   0  0  0  0  0  0  0  0  0  0  0  0
   21.9054   -6.2991  -12.1593 O   0  0  0  0  0  0  0  0  0  0  0  0
   22.8083   -4.4238  -13.0491 O   0  0  0  0  0  0  0  0  0  0  0  0
  2  1  1  1
  3  2  1  0
  4 10  1  0
  4  2  1  0
  5  4  2  0
  7  6  1  6
  7  9  1  0
  8  7  1  0
  9 11  1  0
  9 10  1  6
 11 15  1  0
 12 11  2  0
 14 16  1  0
 14 13  1  1
 15 14  1  0
 16 17  1  0
 18 16  2  0
M  END
$$$$
