AVA.pdb
     RDKit          3D

 18 17  0  0  1  0  0  0  0  0999 V2000
   19.7044  -12.7865  -19.5052 C   0  0  0  0  0  0  0  0  0  0  0  0
   20.4219  -13.0291  -18.2195 C   0  0  2  0  0  0  0  0  0  0  0  0
   19.9960  -14.3171  -17.7059 N   0  0  0  0  0  0  0  0  0  0  0  0
   20.2593  -12.0174  -17.1967 C   0  0  0  0  0  0  0  0  0  0  0  0
   19.1930  -11.9736  -16.5174 O   0  0  0  0  0  0  0  0  0  0  0  0
   23.0545  -11.2591  -14.5963 C   0  0  0  0  0  0  0  0  0  0  0  0
   22.6067   -9.9529  -15.1870 C   0  0  2  0  0  0  0  0  0  0  0  0
   22.4428   -8.9637  -14.0515 C   0  0  0  0  0  0  0  0  0  0  0  0
   21.2525  -10.1176  -15.8466 C   0  0  2  0  0  0  0  0  0  0  0  0
   21.2839  -11.0595  -16.9349 N   0  0  0  0  0  0  0  0  0  0  0  0
   20.8116   -8.7589  -16.3270 C   0  0  0  0  0  0  0  0  0  0  0  0
   21.4497   -8.1604  -17.2270 O   0  0  0  0  0  0  0  0  0  0  0  0
   17.8310   -6.5507  -15.8549 C   0  0  0  0  0  0  0  0  0  0  0  0
   19.2534   -6.8265  -16.2503 C   0  0  2  0  0  0  0  0  0  0  0  0
   19.6626   -8.1337  -15.7656 N   0  0  0  0  0  0  0  0  0  0  0  0
   20.1573   -5.7964  -15.6595 C   0  0  0  0  0  0  0  0  0  0  0  0
   20.3913   -4.6000  -16.3222 O   0  0  0  0  0  0  0  0  0  0  0  0
   20.7219   -5.9836  -14.5616 O   0  0  0  0  0  0  0  0  0  0  0  0
  2  1  1  6
  3  2  1  0
  4 10  1  0
  4  2  1  0
  5  4  2  0
  7  6  1  1
  7  9  1  0
  8  7  1  0
  9 11  1  0
  9 10  1  6
 11 15  1  0
 12 11  2  0
 14 16  1  0
 14 13  1  1
 15 14  1  0
 16 17  1  0
 18 16  2  0
M  END
$$$$
