LYT.pdb
     RDKit          3D

 28 28  0  0  1  0  0  0  0  0999 V2000
   26.8637  -21.0011  -20.2211 C   0  0  0  0  0  0  0  0  0  0  0  0
   27.7959  -21.6858  -19.2409 C   0  0  1  0  0  0  0  0  0  0  0  0
   28.9989  -20.8244  -19.0531 C   0  0  0  0  0  0  0  0  0  0  0  0
   27.0298  -21.9163  -17.9618 C   0  0  0  0  0  0  0  0  0  0  0  0
   27.8445  -22.5701  -16.8977 C   0  0  2  0  0  0  0  0  0  0  0  0
   28.0195  -23.9629  -17.2522 N   0  0  0  0  0  0  0  0  0  0  0  0
   27.0607  -22.4473  -15.6156 C   0  0  0  0  0  0  0  0  0  0  0  0
   26.1922  -23.2908  -15.3120 O   0  0  0  0  0  0  0  0  0  0  0  0
   24.5414  -20.0817   -7.4043 O   0  0  0  0  0  0  0  0  0  0  0  0
   25.1967  -20.2092   -8.6197 C   0  0  0  0  0  0  0  0  0  0  0  0
   25.5928  -21.4412   -9.0292 C   0  0  0  0  0  0  0  0  0  0  0  0
   26.2399  -21.5933  -10.2221 C   0  0  0  0  0  0  0  0  0  0  0  0
   26.5374  -20.5485  -11.0847 C   0  0  0  0  0  0  0  0  0  0  0  0
   27.2226  -20.6897  -12.3689 C   0  0  0  0  0  0  0  0  0  0  0  0
   26.5360  -21.3533  -13.4524 C   0  0  2  0  0  0  0  0  0  0  0  0
   27.2515  -21.4059  -14.7059 N   0  0  0  0  0  0  0  0  0  0  0  0
   25.2088  -20.8185  -13.7878 C   0  0  0  0  0  0  0  0  0  0  0  0
   25.1848  -19.6994  -14.4334 O   0  0  0  0  0  0  0  0  0  0  0  0
   26.1114  -19.2915  -10.6249 C   0  0  0  0  0  0  0  0  0  0  0  0
   25.4597  -19.1393   -9.4231 C   0  0  0  0  0  0  0  0  0  0  0  0
   22.9031  -21.3958  -16.1370 C   0  0  0  0  0  0  0  0  0  0  0  0
   21.9885  -21.4053  -14.9258 C   0  0  1  0  0  0  0  0  0  0  0  0
   21.7803  -22.7305  -14.5483 O   0  0  0  0  0  0  0  0  0  0  0  0
   22.7527  -20.6939  -13.8055 C   0  0  2  0  0  0  0  0  0  0  0  0
   23.9530  -21.4262  -13.4749 N   0  0  0  0  0  0  0  0  0  0  0  0
   21.9218  -20.4674  -12.6408 C   0  0  0  0  0  0  0  0  0  0  0  0
   22.1183  -21.0392  -11.4326 O   0  0  0  0  0  0  0  0  0  0  0  0
   20.9312  -19.6713  -12.7600 O   0  0  0  0  0  0  0  0  0  0  0  0
  2  1  1  6
  3  2  1  0
  4  2  1  0
  4  5  1  0
  5  6  1  6
  7  5  1  0
  7  8  2  0
  9 10  1  0
 10 11  2  0
 10 20  1  0
 11 12  1  0
 12 13  2  0
 13 14  1  0
 15 14  1  1
 15 16  1  0
 15 17  1  0
 16  7  1  0
 17 25  1  0
 18 17  2  0
 19 13  1  0
 20 19  2  0
 22 24  1  0
 22 21  1  6
 22 23  1  0
 24 26  1  0
 24 25  1  1
 26 28  2  0
 26 27  1  0
M  END
$$$$
