LYT.pdb
     RDKit          3D

 28 28  0  0  1  0  0  0  0  0999 V2000
   27.1215  -21.2994   -3.9779 C   0  0  0  0  0  0  0  0  0  0  0  0
   27.8405  -20.2791   -4.8385 C   0  0  1  0  0  0  0  0  0  0  0  0
   29.2993  -20.5886   -4.8185 C   0  0  0  0  0  0  0  0  0  0  0  0
   27.2429  -20.3417   -6.2224 C   0  0  0  0  0  0  0  0  0  0  0  0
   27.9782  -19.5111   -7.2189 C   0  0  2  0  0  0  0  0  0  0  0  0
   28.0362  -18.1524   -6.7219 N   0  0  0  0  0  0  0  0  0  0  0  0
   27.1860  -19.5699   -8.5002 C   0  0  0  0  0  0  0  0  0  0  0  0
   26.2570  -18.7649   -8.7171 O   0  0  0  0  0  0  0  0  0  0  0  0
   26.7853  -20.0790  -17.3662 O   0  0  0  0  0  0  0  0  0  0  0  0
   27.0993  -20.1918  -16.0202 C   0  0  0  0  0  0  0  0  0  0  0  0
   27.0391  -21.4122  -15.4292 C   0  0  0  0  0  0  0  0  0  0  0  0
   27.3435  -21.5498  -14.1050 C   0  0  0  0  0  0  0  0  0  0  0  0
   27.7250  -20.5009  -13.2813 C   0  0  0  0  0  0  0  0  0  0  0  0
   28.0619  -20.6268  -11.8638 C   0  0  0  0  0  0  0  0  0  0  0  0
   27.0704  -20.2599  -10.8799 C   0  0  2  0  0  0  0  0  0  0  0  0
   27.4345  -20.5073   -9.5042 N   0  0  0  0  0  0  0  0  0  0  0  0
   25.7482  -20.8795  -11.0464 C   0  0  0  0  0  0  0  0  0  0  0  0
   25.5484  -21.9895  -10.4158 O   0  0  0  0  0  0  0  0  0  0  0  0
   27.7749  -19.2561  -13.9302 C   0  0  0  0  0  0  0  0  0  0  0  0
   27.4679  -19.1186  -15.2641 C   0  0  0  0  0  0  0  0  0  0  0  0
   22.1332  -19.1414  -11.5952 C   0  0  0  0  0  0  0  0  0  0  0  0
   22.3575  -20.5450  -11.0629 C   0  0  1  0  0  0  0  0  0  0  0  0
   21.1884  -21.2771  -11.2604 O   0  0  0  0  0  0  0  0  0  0  0  0
   23.4670  -21.1577  -11.9224 C   0  0  2  0  0  0  0  0  0  0  0  0
   24.6693  -20.3625  -11.8293 N   0  0  0  0  0  0  0  0  0  0  0  0
   23.0489  -21.3431  -13.2968 C   0  0  0  0  0  0  0  0  0  0  0  0
   22.0987  -22.2142  -13.7010 O   0  0  0  0  0  0  0  0  0  0  0  0
   23.6168  -20.6348  -14.1941 O   0  0  0  0  0  0  0  0  0  0  0  0
  2  1  1  1
  3  2  1  0
  4  2  1  0
  4  5  1  0
  5  6  1  1
  7  5  1  0
  7  8  2  0
  9 10  1  0
 10 11  2  0
 10 20  1  0
 11 12  1  0
 12 13  2  0
 13 14  1  0
 15 14  1  6
 15 16  1  0
 15 17  1  0
 16  7  1  0
 17 25  1  0
 18 17  2  0
 19 13  1  0
 20 19  2  0
 22 24  1  0
 22 21  1  6
 22 23  1  0
 24 26  1  0
 24 25  1  6
 26 28  2  0
 26 27  1  0
M  END
$$$$
