LYT.pdb
     RDKit          3D

 28 28  0  0  1  0  0  0  0  0999 V2000
   26.4806  -14.8848  -15.6011 C   0  0  0  0  0  0  0  0  0  0  0  0
   26.4699  -15.8950  -16.7316 C   0  0  1  0  0  0  0  0  0  0  0  0
   27.3912  -17.0124  -16.3750 C   0  0  0  0  0  0  0  0  0  0  0  0
   25.0444  -16.3465  -16.9317 C   0  0  0  0  0  0  0  0  0  0  0  0
   24.9176  -17.4940  -17.8754 C   0  0  2  0  0  0  0  0  0  0  0  0
   25.3666  -17.0588  -19.1812 N   0  0  0  0  0  0  0  0  0  0  0  0
   23.4560  -17.8614  -17.9163 C   0  0  0  0  0  0  0  0  0  0  0  0
   22.6205  -17.1079  -18.4571 O   0  0  0  0  0  0  0  0  0  0  0  0
   15.9276  -22.5494  -18.1490 O   0  0  0  0  0  0  0  0  0  0  0  0
   17.2379  -22.0958  -18.1279 C   0  0  0  0  0  0  0  0  0  0  0  0
   17.6588  -21.2504  -19.1027 C   0  0  0  0  0  0  0  0  0  0  0  0
   18.9444  -20.7896  -19.1042 C   0  0  0  0  0  0  0  0  0  0  0  0
   19.8937  -21.1290  -18.1514 C   0  0  0  0  0  0  0  0  0  0  0  0
   21.2725  -20.6421  -18.1300 C   0  0  0  0  0  0  0  0  0  0  0  0
   21.5562  -19.3912  -17.4662 C   0  0  2  0  0  0  0  0  0  0  0  0
   22.9538  -19.0412  -17.3646 N   0  0  0  0  0  0  0  0  0  0  0  0
   21.0254  -19.2593  -16.1021 C   0  0  0  0  0  0  0  0  0  0  0  0
   21.8143  -19.6093  -15.1404 O   0  0  0  0  0  0  0  0  0  0  0  0
   19.4189  -22.0048  -17.1612 C   0  0  0  0  0  0  0  0  0  0  0  0
   18.1238  -22.4685  -17.1606 C   0  0  0  0  0  0  0  0  0  0  0  0
   18.5154  -17.3284  -12.5324 C   0  0  0  0  0  0  0  0  0  0  0  0
   19.0686  -17.2633  -13.9443 C   0  0  1  0  0  0  0  0  0  0  0  0
   20.2526  -16.5290  -13.9141 O   0  0  0  0  0  0  0  0  0  0  0  0
   19.3992  -18.7045  -14.3425 C   0  0  2  0  0  0  0  0  0  0  0  0
   19.7286  -18.7729  -15.7472 N   0  0  0  0  0  0  0  0  0  0  0  0
   18.3338  -19.6219  -13.9937 C   0  0  0  0  0  0  0  0  0  0  0  0
   17.2577  -19.8813  -14.7682 O   0  0  0  0  0  0  0  0  0  0  0  0
   18.4131  -20.2309  -12.8747 O   0  0  0  0  0  0  0  0  0  0  0  0
  2  1  1  1
  3  2  1  0
  4  2  1  0
  4  5  1  0
  5  6  1  6
  7  5  1  0
  7  8  2  0
  9 10  1  0
 10 11  2  0
 10 20  1  0
 11 12  1  0
 12 13  2  0
 13 14  1  0
 15 14  1  1
 15 16  1  0
 15 17  1  0
 16  7  1  0
 17 25  1  0
 18 17  2  0
 19 13  1  0
 20 19  2  0
 22 24  1  0
 22 21  1  1
 22 23  1  0
 24 26  1  0
 24 25  1  6
 26 28  2  0
 26 27  1  0
M  END
$$$$
