LYT.pdb
     RDKit          3D

 28 28  0  0  1  0  0  0  0  0999 V2000
   16.1097  -22.1146    5.4484 C   0  0  0  0  0  0  0  0  0  0  0  0
   15.8551  -20.9361    4.5293 C   0  0  1  0  0  0  0  0  0  0  0  0
   14.4798  -20.4217    4.7910 C   0  0  0  0  0  0  0  0  0  0  0  0
   16.9289  -19.9090    4.7900 C   0  0  0  0  0  0  0  0  0  0  0  0
   16.7471  -18.6551    4.0036 C   0  0  2  0  0  0  0  0  0  0  0  0
   17.0115  -18.9510    2.6112 N   0  0  0  0  0  0  0  0  0  0  0  0
   17.7525  -17.6635    4.5315 C   0  0  0  0  0  0  0  0  0  0  0  0
   18.9527  -17.7261    4.1942 O   0  0  0  0  0  0  0  0  0  0  0  0
   21.3768  -10.0235    7.1360 O   0  0  0  0  0  0  0  0  0  0  0  0
   20.5436  -11.0639    6.7535 C   0  0  0  0  0  0  0  0  0  0  0  0
   19.3238  -11.1805    7.3373 C   0  0  0  0  0  0  0  0  0  0  0  0
   18.4847  -12.1963    6.9779 C   0  0  0  0  0  0  0  0  0  0  0  0
   18.7900  -13.1577    6.0258 C   0  0  0  0  0  0  0  0  0  0  0  0
   17.9044  -14.2488    5.6210 C   0  0  0  0  0  0  0  0  0  0  0  0
   18.3621  -15.6093    5.7808 C   0  0  2  0  0  0  0  0  0  0  0  0
   17.4139  -16.6344    5.4118 N   0  0  0  0  0  0  0  0  0  0  0  0
   18.8184  -15.9734    7.1295 C   0  0  0  0  0  0  0  0  0  0  0  0
   17.9343  -16.4916    7.9167 O   0  0  0  0  0  0  0  0  0  0  0  0
   20.0599  -13.0020    5.4460 C   0  0  0  0  0  0  0  0  0  0  0  0
   20.9045  -11.9786    5.8087 C   0  0  0  0  0  0  0  0  0  0  0  0
   22.0235  -17.1644   10.5713 C   0  0  0  0  0  0  0  0  0  0  0  0
   21.8731  -16.6469    9.1524 C   0  0  1  0  0  0  0  0  0  0  0  0
   22.1554  -17.6927    8.2758 O   0  0  0  0  0  0  0  0  0  0  0  0
   20.4003  -16.2599    8.9908 C   0  0  2  0  0  0  0  0  0  0  0  0
   20.1446  -15.8159    7.6402 N   0  0  0  0  0  0  0  0  0  0  0  0
   19.9876  -15.2744    9.9689 C   0  0  0  0  0  0  0  0  0  0  0  0
   20.2190  -13.9472    9.8687 O   0  0  0  0  0  0  0  0  0  0  0  0
   19.3602  -15.6852   11.0019 O   0  0  0  0  0  0  0  0  0  0  0  0
  2  1  1  1
  3  2  1  0
  4  2  1  0
  4  5  1  0
  5  6  1  6
  7  5  1  0
  7  8  2  0
  9 10  1  0
 10 11  2  0
 10 20  1  0
 11 12  1  0
 12 13  2  0
 13 14  1  0
 15 14  1  1
 15 16  1  0
 15 17  1  0
 16  7  1  0
 17 25  1  0
 18 17  2  0
 19 13  1  0
 20 19  2  0
 22 24  1  0
 22 21  1  1
 22 23  1  0
 24 26  1  0
 24 25  1  6
 26 28  2  0
 26 27  1  0
M  END
$$$$
