LYT.pdb
     RDKit          3D

 28 28  0  0  1  0  0  0  0  0999 V2000
   32.0349  -27.9426  -20.8394 C   0  0  0  0  0  0  0  0  0  0  0  0
   30.6945  -27.8442  -21.5410 C   0  0  1  0  0  0  0  0  0  0  0  0
   30.5731  -28.9887  -22.4897 C   0  0  0  0  0  0  0  0  0  0  0  0
   29.6201  -27.8391  -20.4818 C   0  0  0  0  0  0  0  0  0  0  0  0
   28.2410  -27.7588  -21.0432 C   0  0  2  0  0  0  0  0  0  0  0  0
   28.0200  -26.4066  -21.5109 N   0  0  0  0  0  0  0  0  0  0  0  0
   27.2951  -28.0875  -19.9161 C   0  0  0  0  0  0  0  0  0  0  0  0
   26.4811  -27.2403  -19.4947 O   0  0  0  0  0  0  0  0  0  0  0  0
   20.4818  -31.1097  -15.6477 O   0  0  0  0  0  0  0  0  0  0  0  0
   21.5529  -30.6948  -16.4245 C   0  0  0  0  0  0  0  0  0  0  0  0
   22.1427  -31.5842  -17.2632 C   0  0  0  0  0  0  0  0  0  0  0  0
   23.1993  -31.2003  -18.0388 C   0  0  0  0  0  0  0  0  0  0  0  0
   23.7405  -29.9231  -18.0393 C   0  0  0  0  0  0  0  0  0  0  0  0
   24.8661  -29.4890  -18.8660 C   0  0  0  0  0  0  0  0  0  0  0  0
   26.2083  -29.7004  -18.3768 C   0  0  2  0  0  0  0  0  0  0  0  0
   27.2692  -29.3324  -19.2852 N   0  0  0  0  0  0  0  0  0  0  0  0
   26.5227  -31.0717  -17.9517 C   0  0  0  0  0  0  0  0  0  0  0  0
   26.9202  -31.8842  -18.8746 O   0  0  0  0  0  0  0  0  0  0  0  0
   23.1027  -29.0338  -17.1588 C   0  0  0  0  0  0  0  0  0  0  0  0
   22.0386  -29.4215  -16.3779 C   0  0  0  0  0  0  0  0  0  0  0  0
   28.6365  -32.0618  -14.8854 C   0  0  0  0  0  0  0  0  0  0  0  0
   27.4811  -33.0429  -14.9638 C   0  0  1  0  0  0  0  0  0  0  0  0
   26.5035  -32.6370  -14.0575 O   0  0  0  0  0  0  0  0  0  0  0  0
   26.9119  -32.9232  -16.3804 C   0  0  2  0  0  0  0  0  0  0  0  0
   26.4382  -31.5794  -16.6178 N   0  0  0  0  0  0  0  0  0  0  0  0
   25.8833  -33.9101  -16.6372 C   0  0  0  0  0  0  0  0  0  0  0  0
   26.0987  -35.2410  -16.7248 O   0  0  0  0  0  0  0  0  0  0  0  0
   24.6855  -33.4972  -16.7930 O   0  0  0  0  0  0  0  0  0  0  0  0
  2  1  1  1
  3  2  1  0
  4  2  1  0
  4  5  1  0
  5  6  1  1
  7  5  1  0
  7  8  2  0
  9 10  1  0
 10 11  2  0
 10 20  1  0
 11 12  1  0
 12 13  2  0
 13 14  1  0
 15 14  1  6
 15 16  1  0
 15 17  1  0
 16  7  1  0
 17 25  1  0
 18 17  2  0
 19 13  1  0
 20 19  2  0
 22 24  1  0
 22 21  1  6
 22 23  1  0
 24 26  1  0
 24 25  1  1
 26 28  2  0
 26 27  1  0
M  END
$$$$
