AFS.pdb
     RDKit          3D

 23 23  0  0  1  0  0  0  0  0999 V2000
    9.3801  -18.6907   21.0024 C   0  0  0  0  0  0  0  0  0  0  0  0
    9.4231  -17.2453   20.5829 C   0  0  2  0  0  0  0  0  0  0  0  0
   10.4670  -17.0335   19.6235 N   0  0  0  0  0  0  0  0  0  0  0  0
    9.5621  -16.3518   21.7627 C   0  0  0  0  0  0  0  0  0  0  0  0
   10.7077  -16.0574   22.1868 O   0  0  0  0  0  0  0  0  0  0  0  0
    8.4541  -15.8040   22.4478 N   0  0  0  0  0  0  0  0  0  0  0  0
    8.5867  -14.9798   23.6336 C   0  0  1  0  0  0  0  0  0  0  0  0
    7.3000  -14.2275   23.7920 C   0  0  0  0  0  0  0  0  0  0  0  0
    7.1889  -13.4122   25.0157 C   0  0  0  0  0  0  0  0  0  0  0  0
    7.9270  -12.2706   25.2384 C   0  0  0  0  0  0  0  0  0  0  0  0
    7.7758  -11.5290   26.4163 C   0  0  0  0  0  0  0  0  0  0  0  0
    6.8850  -11.9304   27.3730 C   0  0  0  0  0  0  0  0  0  0  0  0
    6.1465  -13.0539   27.1742 C   0  0  0  0  0  0  0  0  0  0  0  0
    6.3007  -13.7847   26.0046 C   0  0  0  0  0  0  0  0  0  0  0  0
    8.7656  -15.8888   24.7852 C   0  0  0  0  0  0  0  0  0  0  0  0
    7.9894  -16.8719   25.0239 O   0  0  0  0  0  0  0  0  0  0  0  0
   12.3498  -16.7438   26.0258 O   0  0  0  0  0  0  0  0  0  0  0  0
   11.2736  -17.5262   26.3968 C   0  0  0  0  0  0  0  0  0  0  0  0
   10.0811  -16.6654   26.7546 C   0  0  2  0  0  0  0  0  0  0  0  0
    9.8307  -15.7085   25.6995 N   0  0  0  0  0  0  0  0  0  0  0  0
   10.2772  -15.9550   28.0209 C   0  0  0  0  0  0  0  0  0  0  0  0
   10.5216  -16.6397   29.1832 O   0  0  0  0  0  0  0  0  0  0  0  0
   10.2212  -14.7044   28.0452 O   0  0  0  0  0  0  0  0  0  0  0  0
  2  3  1  0
  2  4  1  0
  2  1  1  1
  4  5  2  0
  6  4  1  0
  6  7  1  0
  7 15  1  0
  8  9  1  0
  7  8  1  1
  9 10  2  0
  9 14  1  0
 10 11  1  0
 11 12  2  0
 13 12  1  0
 14 13  2  0
 15 20  1  0
 15 16  2  0
 19 18  1  6
 18 17  1  0
 19 21  1  0
 20 19  1  0
 21 22  1  0
 23 21  2  0
M  END
$$$$
