AFS.pdb
     RDKit          3D

 23 23  0  0  1  0  0  0  0  0999 V2000
    8.0327  -15.3546   18.3919 C   0  0  0  0  0  0  0  0  0  0  0  0
    7.8154  -13.9635   18.9255 C   0  0  2  0  0  0  0  0  0  0  0  0
    8.4390  -12.9965   18.0704 N   0  0  0  0  0  0  0  0  0  0  0  0
    8.2888  -13.8515   20.3302 C   0  0  0  0  0  0  0  0  0  0  0  0
    9.4674  -13.4812   20.5603 O   0  0  0  0  0  0  0  0  0  0  0  0
    7.4696  -14.1444   21.4438 N   0  0  0  0  0  0  0  0  0  0  0  0
    7.8774  -13.8934   22.8127 C   0  0  1  0  0  0  0  0  0  0  0  0
    6.6776  -13.3638   23.5384 C   0  0  0  0  0  0  0  0  0  0  0  0
    6.8937  -13.0241   24.9570 C   0  0  0  0  0  0  0  0  0  0  0  0
    7.7332  -12.0165   25.3783 C   0  0  0  0  0  0  0  0  0  0  0  0
    7.8955  -11.7309   26.7393 C   0  0  0  0  0  0  0  0  0  0  0  0
    7.2169  -12.4547   27.6803 C   0  0  0  0  0  0  0  0  0  0  0  0
    6.3835  -13.4536   27.2871 C   0  0  0  0  0  0  0  0  0  0  0  0
    6.2267  -13.7319   25.9366 C   0  0  0  0  0  0  0  0  0  0  0  0
    8.2705  -15.1908   23.4012 C   0  0  0  0  0  0  0  0  0  0  0  0
    7.5745  -16.2520   23.2762 O   0  0  0  0  0  0  0  0  0  0  0  0
   11.4248  -16.7396   22.8291 O   0  0  0  0  0  0  0  0  0  0  0  0
   11.3099  -16.8922   24.1971 C   0  0  0  0  0  0  0  0  0  0  0  0
    9.8949  -16.6074   24.6528 C   0  0  2  0  0  0  0  0  0  0  0  0
    9.4650  -15.3219   24.1488 N   0  0  0  0  0  0  0  0  0  0  0  0
    9.7746  -16.6239   26.1129 C   0  0  0  0  0  0  0  0  0  0  0  0
   10.0490  -17.7594   26.8305 O   0  0  0  0  0  0  0  0  0  0  0  0
    9.4162  -15.5875   26.7170 O   0  0  0  0  0  0  0  0  0  0  0  0
  2  3  1  0
  2  4  1  0
  2  1  1  6
  4  5  2  0
  6  4  1  0
  6  7  1  0
  7 15  1  0
  8  9  1  0
  7  8  1  1
  9 10  2  0
  9 14  1  0
 10 11  1  0
 11 12  2  0
 13 12  1  0
 14 13  2  0
 15 20  1  0
 15 16  2  0
 19 18  1  1
 18 17  1  0
 19 21  1  0
 20 19  1  0
 21 22  1  0
 23 21  2  0
M  END
$$$$
