AFS.pdb
     RDKit          3D

 23 23  0  0  1  0  0  0  0  0999 V2000
    8.1886  -18.2465   20.0458 C   0  0  0  0  0  0  0  0  0  0  0  0
    8.5909  -16.8094   19.8458 C   0  0  2  0  0  0  0  0  0  0  0  0
    9.6598  -16.7166   18.8951 N   0  0  0  0  0  0  0  0  0  0  0  0
    8.9408  -16.1687   21.1407 C   0  0  0  0  0  0  0  0  0  0  0  0
   10.1406  -16.1361   21.5129 O   0  0  0  0  0  0  0  0  0  0  0  0
    7.9788  -15.5822   21.9937 N   0  0  0  0  0  0  0  0  0  0  0  0
    8.3166  -14.9754   23.2668 C   0  0  1  0  0  0  0  0  0  0  0  0
    7.1363  -14.1535   23.6887 C   0  0  0  0  0  0  0  0  0  0  0  0
    7.2759  -13.4616   24.9834 C   0  0  0  0  0  0  0  0  0  0  0  0
    8.3344  -13.6612   25.8421 C   0  0  0  0  0  0  0  0  0  0  0  0
    8.4213  -12.9710   27.0571 C   0  0  0  0  0  0  0  0  0  0  0  0
    7.4474  -12.0798   27.4138 C   0  0  0  0  0  0  0  0  0  0  0  0
    6.3939  -11.8675   26.5818 C   0  0  0  0  0  0  0  0  0  0  0  0
    6.3134  -12.5545   25.3788 C   0  0  0  0  0  0  0  0  0  0  0  0
    8.5207  -16.0709   24.2376 C   0  0  0  0  0  0  0  0  0  0  0  0
    7.6203  -16.9288   24.5194 O   0  0  0  0  0  0  0  0  0  0  0  0
   12.2260  -17.4389   24.8271 O   0  0  0  0  0  0  0  0  0  0  0  0
   11.1179  -18.2188   25.0952 C   0  0  0  0  0  0  0  0  0  0  0  0
   10.0191  -17.3923   25.7279 C   0  0  2  0  0  0  0  0  0  0  0  0
    9.7526  -16.2247   24.9171 N   0  0  0  0  0  0  0  0  0  0  0  0
   10.3623  -16.9728   27.0891 C   0  0  0  0  0  0  0  0  0  0  0  0
   10.6329  -17.8969   28.0649 O   0  0  0  0  0  0  0  0  0  0  0  0
   10.4100  -15.7532   27.3684 O   0  0  0  0  0  0  0  0  0  0  0  0
  2  3  1  0
  2  4  1  0
  2  1  1  1
  4  5  2  0
  6  4  1  0
  6  7  1  0
  7 15  1  0
  8  9  1  0
  7  8  1  1
  9 10  2  0
  9 14  1  0
 10 11  1  0
 11 12  2  0
 13 12  1  0
 14 13  2  0
 15 20  1  0
 15 16  2  0
 19 18  1  6
 18 17  1  0
 19 21  1  0
 20 19  1  0
 21 22  1  0
 23 21  2  0
M  END
$$$$
