AFS.pdb
     RDKit          3D

 23 23  0  0  1  0  0  0  0  0999 V2000
    9.1157  -18.7927   20.9110 C   0  0  0  0  0  0  0  0  0  0  0  0
    9.1920  -17.3328   20.5503 C   0  0  2  0  0  0  0  0  0  0  0  0
   10.2152  -17.1122   19.5707 N   0  0  0  0  0  0  0  0  0  0  0  0
    9.3912  -16.4942   21.7614 C   0  0  0  0  0  0  0  0  0  0  0  0
   10.5561  -16.1884   22.1198 O   0  0  0  0  0  0  0  0  0  0  0  0
    8.3207  -16.0120   22.5479 N   0  0  0  0  0  0  0  0  0  0  0  0
    8.5077  -15.1179   23.6742 C   0  0  1  0  0  0  0  0  0  0  0  0
    7.1880  -14.4563   23.9338 C   0  0  0  0  0  0  0  0  0  0  0  0
    7.1498  -13.5536   25.0992 C   0  0  0  0  0  0  0  0  0  0  0  0
    7.8312  -12.3578   25.1576 C   0  0  0  0  0  0  0  0  0  0  0  0
    7.7534  -11.5345   26.2873 C   0  0  0  0  0  0  0  0  0  0  0  0
    6.9928  -11.9083   27.3605 C   0  0  0  0  0  0  0  0  0  0  0  0
    6.3123  -13.0842   27.3247 C   0  0  0  0  0  0  0  0  0  0  0  0
    6.3933  -13.8960   26.2020 C   0  0  0  0  0  0  0  0  0  0  0  0
    8.8754  -15.9480   24.8405 C   0  0  0  0  0  0  0  0  0  0  0  0
    8.1611  -16.9184   25.2579 O   0  0  0  0  0  0  0  0  0  0  0  0
   12.7368  -15.8356   26.1802 O   0  0  0  0  0  0  0  0  0  0  0  0
   11.9730  -16.9745   26.3465 C   0  0  0  0  0  0  0  0  0  0  0  0
   10.5218  -16.6180   26.5876 C   0  0  2  0  0  0  0  0  0  0  0  0
   10.0643  -15.7009   25.5673 N   0  0  0  0  0  0  0  0  0  0  0  0
   10.3157  -16.0198   27.9090 C   0  0  0  0  0  0  0  0  0  0  0  0
   10.6555  -16.6979   29.0511 O   0  0  0  0  0  0  0  0  0  0  0  0
    9.8223  -14.8727   28.0000 O   0  0  0  0  0  0  0  0  0  0  0  0
  2  3  1  0
  2  4  1  0
  2  1  1  1
  4  5  2  0
  6  4  1  0
  6  7  1  0
  7 15  1  0
  8  9  1  0
  7  8  1  1
  9 10  2  0
  9 14  1  0
 10 11  1  0
 11 12  2  0
 13 12  1  0
 14 13  2  0
 15 20  1  0
 15 16  2  0
 19 18  1  6
 18 17  1  0
 19 21  1  0
 20 19  1  0
 21 22  1  0
 23 21  2  0
M  END
$$$$
