AFS.pdb
     RDKit          3D

 23 23  0  0  1  0  0  0  0  0999 V2000
    7.7711  -20.1204   21.4252 C   0  0  0  0  0  0  0  0  0  0  0  0
    7.1075  -18.8188   21.0609 C   0  0  2  0  0  0  0  0  0  0  0  0
    7.2104  -18.5822   19.6508 N   0  0  0  0  0  0  0  0  0  0  0  0
    7.6672  -17.6943   21.8559 C   0  0  0  0  0  0  0  0  0  0  0  0
    8.6611  -17.0606   21.4205 O   0  0  0  0  0  0  0  0  0  0  0  0
    7.1322  -17.2906   23.1000 N   0  0  0  0  0  0  0  0  0  0  0  0
    7.6898  -16.2067   23.8858 C   0  0  1  0  0  0  0  0  0  0  0  0
    6.5614  -15.6054   24.6680 C   0  0  0  0  0  0  0  0  0  0  0  0
    6.9392  -14.5237   25.5963 C   0  0  0  0  0  0  0  0  0  0  0  0
    7.4535  -14.7466   26.8546 C   0  0  0  0  0  0  0  0  0  0  0  0
    7.8033  -13.6812   27.6929 C   0  0  0  0  0  0  0  0  0  0  0  0
    7.6381  -12.3907   27.2718 C   0  0  0  0  0  0  0  0  0  0  0  0
    7.1321  -12.1477   26.0340 C   0  0  0  0  0  0  0  0  0  0  0  0
    6.7873  -13.2079   25.2075 C   0  0  0  0  0  0  0  0  0  0  0  0
    8.6707  -16.7979   24.8199 C   0  0  0  0  0  0  0  0  0  0  0  0
    8.4099  -17.8032   25.5598 O   0  0  0  0  0  0  0  0  0  0  0  0
   12.6893  -15.7219   24.4036 O   0  0  0  0  0  0  0  0  0  0  0  0
   12.2560  -17.0171   24.6106 C   0  0  0  0  0  0  0  0  0  0  0  0
   11.0492  -17.0408   25.5239 C   0  0  2  0  0  0  0  0  0  0  0  0
    9.9762  -16.2654   24.9417 N   0  0  0  0  0  0  0  0  0  0  0  0
   11.3598  -16.5196   26.8574 C   0  0  0  0  0  0  0  0  0  0  0  0
   10.6837  -15.4421   27.3687 O   0  0  0  0  0  0  0  0  0  0  0  0
   12.2552  -17.0641   27.5427 O   0  0  0  0  0  0  0  0  0  0  0  0
  2  3  1  0
  2  4  1  0
  2  1  1  6
  4  5  2  0
  6  4  1  0
  6  7  1  0
  7 15  1  0
  8  9  1  0
  7  8  1  1
  9 10  2  0
  9 14  1  0
 10 11  1  0
 11 12  2  0
 13 12  1  0
 14 13  2  0
 15 20  1  0
 15 16  2  0
 19 18  1  6
 18 17  1  0
 19 21  1  0
 20 19  1  0
 21 22  1  0
 23 21  2  0
M  END
$$$$
