AFS.pdb
     RDKit          3D

 23 23  0  0  1  0  0  0  0  0999 V2000
    6.8493  -19.3877   26.0503 C   0  0  0  0  0  0  0  0  0  0  0  0
    5.9286  -18.8257   24.9998 C   0  0  2  0  0  0  0  0  0  0  0  0
    5.2054  -19.8805   24.3521 N   0  0  0  0  0  0  0  0  0  0  0  0
    6.6778  -17.9866   24.0280 C   0  0  0  0  0  0  0  0  0  0  0  0
    7.0430  -18.4819   22.9324 O   0  0  0  0  0  0  0  0  0  0  0  0
    7.0088  -16.6349   24.2734 N   0  0  0  0  0  0  0  0  0  0  0  0
    7.8534  -15.8549   23.3894 C   0  0  1  0  0  0  0  0  0  0  0  0
    7.4580  -14.4190   23.5579 C   0  0  0  0  0  0  0  0  0  0  0  0
    7.4626  -13.9187   24.9450 C   0  0  0  0  0  0  0  0  0  0  0  0
    8.5592  -13.3337   25.5389 C   0  0  0  0  0  0  0  0  0  0  0  0
    8.5060  -12.8684   26.8583 C   0  0  0  0  0  0  0  0  0  0  0  0
    7.3538  -12.9890   27.5849 C   0  0  0  0  0  0  0  0  0  0  0  0
    6.2597  -13.5633   27.0190 C   0  0  0  0  0  0  0  0  0  0  0  0
    6.3186  -14.0224   25.7107 C   0  0  0  0  0  0  0  0  0  0  0  0
    9.2492  -16.0332   23.8415 C   0  0  0  0  0  0  0  0  0  0  0  0
    9.5564  -16.5352   24.9728 O   0  0  0  0  0  0  0  0  0  0  0  0
   11.6927  -16.7298   20.7282 O   0  0  0  0  0  0  0  0  0  0  0  0
   12.3606  -16.1441   21.7859 C   0  0  0  0  0  0  0  0  0  0  0  0
   11.6015  -16.3467   23.0796 C   0  0  2  0  0  0  0  0  0  0  0  0
   10.3371  -15.6469   23.0229 N   0  0  0  0  0  0  0  0  0  0  0  0
   12.3637  -15.8834   24.2418 C   0  0  0  0  0  0  0  0  0  0  0  0
   13.5948  -16.4113   24.5340 O   0  0  0  0  0  0  0  0  0  0  0  0
   11.8866  -14.9924   24.9809 O   0  0  0  0  0  0  0  0  0  0  0  0
  2  3  1  0
  2  4  1  0
  2  1  1  1
  4  5  2  0
  6  4  1  0
  6  7  1  0
  7 15  1  0
  8  9  1  0
  7  8  1  1
  9 10  2  0
  9 14  1  0
 10 11  1  0
 11 12  2  0
 13 12  1  0
 14 13  2  0
 15 20  1  0
 15 16  2  0
 19 18  1  6
 18 17  1  0
 19 21  1  0
 20 19  1  0
 21 22  1  0
 23 21  2  0
M  END
$$$$
