AFS.pdb
     RDKit          3D

 23 23  0  0  1  0  0  0  0  0999 V2000
   10.3876  -16.2055   19.1350 C   0  0  0  0  0  0  0  0  0  0  0  0
    9.9238  -17.0193   20.3139 C   0  0  2  0  0  0  0  0  0  0  0  0
    8.6369  -17.5933   20.0503 N   0  0  0  0  0  0  0  0  0  0  0  0
    9.9255  -16.2049   21.5575 C   0  0  0  0  0  0  0  0  0  0  0  0
   11.0186  -15.8467   22.0633 O   0  0  0  0  0  0  0  0  0  0  0  0
    8.7413  -15.8030   22.2156 N   0  0  0  0  0  0  0  0  0  0  0  0
    8.7422  -15.0143   23.4326 C   0  0  1  0  0  0  0  0  0  0  0  0
    7.4150  -14.3218   23.5083 C   0  0  0  0  0  0  0  0  0  0  0  0
    7.1626  -13.5695   24.7512 C   0  0  0  0  0  0  0  0  0  0  0  0
    6.3231  -14.0109   25.7502 C   0  0  0  0  0  0  0  0  0  0  0  0
    6.1255  -13.2592   26.9147 C   0  0  0  0  0  0  0  0  0  0  0  0
    6.7686  -12.0638   27.0799 C   0  0  0  0  0  0  0  0  0  0  0  0
    7.6013  -11.6089   26.1069 C   0  0  0  0  0  0  0  0  0  0  0  0
    7.7933  -12.3585   24.9549 C   0  0  0  0  0  0  0  0  0  0  0  0
    8.8683  -15.9532   24.5671 C   0  0  0  0  0  0  0  0  0  0  0  0
    8.0757  -16.9353   24.7501 O   0  0  0  0  0  0  0  0  0  0  0  0
   12.4415  -16.8227   25.8410 O   0  0  0  0  0  0  0  0  0  0  0  0
   11.3638  -17.6448   26.1073 C   0  0  0  0  0  0  0  0  0  0  0  0
   10.1541  -16.8308   26.5135 C   0  0  2  0  0  0  0  0  0  0  0  0
    9.8976  -15.8049   25.5270 N   0  0  0  0  0  0  0  0  0  0  0  0
   10.3268  -16.2100   27.8293 C   0  0  0  0  0  0  0  0  0  0  0  0
   10.5715  -16.9723   28.9422 O   0  0  0  0  0  0  0  0  0  0  0  0
   10.2502  -14.9654   27.9423 O   0  0  0  0  0  0  0  0  0  0  0  0
  2  3  1  0
  2  4  1  0
  2  1  1  6
  4  5  2  0
  6  4  1  0
  6  7  1  0
  7 15  1  0
  8  9  1  0
  7  8  1  1
  9 10  2  0
  9 14  1  0
 10 11  1  0
 11 12  2  0
 13 12  1  0
 14 13  2  0
 15 20  1  0
 15 16  2  0
 19 18  1  6
 18 17  1  0
 19 21  1  0
 20 19  1  0
 21 22  1  0
 23 21  2  0
M  END
$$$$
