AFS.pdb
     RDKit          3D

 23 23  0  0  1  0  0  0  0  0999 V2000
    8.2962  -18.9065   20.0895 C   0  0  0  0  0  0  0  0  0  0  0  0
    7.9572  -17.4554   19.8737 C   0  0  2  0  0  0  0  0  0  0  0  0
    8.5131  -16.9903   18.6369 N   0  0  0  0  0  0  0  0  0  0  0  0
    8.3974  -16.6280   21.0275 C   0  0  0  0  0  0  0  0  0  0  0  0
    9.5654  -16.1651   21.0497 O   0  0  0  0  0  0  0  0  0  0  0  0
    7.5574  -16.3271   22.1234 N   0  0  0  0  0  0  0  0  0  0  0  0
    7.9394  -15.4161   23.1852 C   0  0  1  0  0  0  0  0  0  0  0  0
    6.6738  -14.9394   23.8315 C   0  0  0  0  0  0  0  0  0  0  0  0
    6.8518  -14.0473   24.9921 C   0  0  0  0  0  0  0  0  0  0  0  0
    6.7276  -14.4655   26.2988 C   0  0  0  0  0  0  0  0  0  0  0  0
    6.9151  -13.5768   27.3643 C   0  0  0  0  0  0  0  0  0  0  0  0
    7.2272  -12.2676   27.1222 C   0  0  0  0  0  0  0  0  0  0  0  0
    7.3544  -11.8334   25.8406 C   0  0  0  0  0  0  0  0  0  0  0  0
    7.1674  -12.7189   24.7887 C   0  0  0  0  0  0  0  0  0  0  0  0
    8.7280  -16.1891   24.1675 C   0  0  0  0  0  0  0  0  0  0  0  0
    8.3527  -17.3168   24.6298 O   0  0  0  0  0  0  0  0  0  0  0  0
   12.5300  -16.4119   23.7757 O   0  0  0  0  0  0  0  0  0  0  0  0
   12.2827  -16.2365   25.1234 C   0  0  0  0  0  0  0  0  0  0  0  0
   10.8365  -16.5423   25.4488 C   0  0  2  0  0  0  0  0  0  0  0  0
    9.9656  -15.7048   24.6541 N   0  0  0  0  0  0  0  0  0  0  0  0
   10.5399  -16.3444   26.8699 C   0  0  0  0  0  0  0  0  0  0  0  0
    9.8535  -15.2382   27.2998 O   0  0  0  0  0  0  0  0  0  0  0  0
   10.9174  -17.1962   27.7063 O   0  0  0  0  0  0  0  0  0  0  0  0
  2  3  1  0
  2  4  1  0
  2  1  1  1
  4  5  2  0
  6  4  1  0
  6  7  1  0
  7 15  1  0
  8  9  1  0
  7  8  1  1
  9 10  2  0
  9 14  1  0
 10 11  1  0
 11 12  2  0
 13 12  1  0
 14 13  2  0
 15 20  1  0
 15 16  2  0
 19 18  1  1
 18 17  1  0
 19 21  1  0
 20 19  1  0
 21 22  1  0
 23 21  2  0
M  END
$$$$
