HMN.pdb
     RDKit          3D

 27 27  0  0  1  0  0  0  0  0999 V2000
   30.5623  -10.6346  -23.0469 N   0  0  0  0  0  0  0  0  0  0  0  0
   29.6866  -11.4574  -22.2706 C   0  0  1  0  0  0  0  0  0  0  0  0
   28.8290  -12.2542  -23.2315 C   0  0  0  0  0  0  0  0  0  0  0  0
   27.8232  -11.3603  -23.8517 C   0  0  0  0  0  0  0  0  0  0  0  0
   26.4800  -11.2632  -23.5208 C   0  0  0  0  0  0  0  0  0  0  0  0
   25.9067  -10.3433  -24.3088 N   0  0  0  0  0  0  0  0  0  0  0  0
   26.8376   -9.8451  -25.1364 C   0  0  0  0  0  0  0  0  0  0  0  0
   28.0083  -10.4730  -24.8501 N   0  0  0  0  0  0  0  0  0  0  0  0
   30.4662  -12.3474  -21.3825 C   0  0  0  0  0  0  0  0  0  0  0  0
   31.5350  -12.8613  -21.7959 O   0  0  0  0  0  0  0  0  0  0  0  0
   31.5396   -8.5620  -16.9693 C   0  0  0  0  0  0  0  0  0  0  0  0
   30.5237  -10.0164  -17.2611 S   0  0  0  0  0  0  0  0  0  0  0  0
   31.5311  -11.4724  -17.6821 C   0  0  0  0  0  0  0  0  0  0  0  0
   30.7115  -12.6991  -17.8302 C   0  0  0  0  0  0  0  0  0  0  0  0
   30.8154  -13.4352  -19.1230 C   0  0  2  0  0  0  0  0  0  0  0  0
   30.0200  -12.6229  -20.0780 N   0  0  0  0  0  0  0  0  0  0  0  0
   30.3384  -14.8199  -19.1152 C   0  0  0  0  0  0  0  0  0  0  0  0
   30.7503  -15.6420  -18.2258 O   0  0  0  0  0  0  0  0  0  0  0  0
   27.9650  -19.2678  -19.6815 N   0  0  0  0  0  0  0  0  0  0  0  0
   27.6250  -18.2878  -18.6732 C   0  0  0  0  0  0  0  0  0  0  0  0
   26.9598  -18.6473  -17.6860 O   0  0  0  0  0  0  0  0  0  0  0  0
   28.0625  -16.8928  -18.8206 C   0  0  0  0  0  0  0  0  0  0  0  0
   28.8802  -16.6821  -20.0342 C   0  0  2  0  0  0  0  0  0  0  0  0
   29.4139  -15.3005  -20.0731 N   0  0  0  0  0  0  0  0  0  0  0  0
   28.0531  -16.8720  -21.2571 C   0  0  0  0  0  0  0  0  0  0  0  0
   27.1435  -16.0934  -21.5474 O   0  0  0  0  0  0  0  0  0  0  0  0
   28.2682  -17.9389  -22.1301 O   0  0  0  0  0  0  0  0  0  0  0  0
  2  1  1  6
  2  3  1  0
  4  8  1  0
  4  3  1  0
  5  4  2  0
  6  5  1  0
  6  7  1  0
  7  8  2  0
  9  2  1  0
 10  9  2  0
 12 11  1  0
 13 12  1  0
 14 13  1  0
 15 14  1  1
 15 16  1  0
 16  9  1  0
 17 15  1  0
 17 18  2  0
 20 21  2  0
 20 19  1  0
 22 20  1  0
 23 22  1  1
 23 24  1  0
 24 17  1  0
 25 23  1  0
 26 25  2  0
 27 25  1  0
M  END
$$$$
