HMN.pdb
     RDKit          3D

 27 27  0  0  1  0  0  0  0  0999 V2000
   28.2628  -19.4050  -17.5074 N   0  0  0  0  0  0  0  0  0  0  0  0
   27.6088  -19.0258  -16.2929 C   0  0  1  0  0  0  0  0  0  0  0  0
   26.5715  -17.9766  -16.6350 C   0  0  0  0  0  0  0  0  0  0  0  0
   27.2332  -16.8257  -17.2927 C   0  0  0  0  0  0  0  0  0  0  0  0
   26.8221  -16.1790  -18.4486 C   0  0  0  0  0  0  0  0  0  0  0  0
   27.6846  -15.1899  -18.7198 N   0  0  0  0  0  0  0  0  0  0  0  0
   28.6378  -15.1790  -17.7759 C   0  0  0  0  0  0  0  0  0  0  0  0
   28.3541  -16.1837  -16.9059 N   0  0  0  0  0  0  0  0  0  0  0  0
   26.9879  -20.2050  -15.6505 C   0  0  0  0  0  0  0  0  0  0  0  0
   26.8202  -21.2597  -16.3114 O   0  0  0  0  0  0  0  0  0  0  0  0
   25.1977  -19.9003   -8.6892 C   0  0  0  0  0  0  0  0  0  0  0  0
   25.6612  -21.1216   -9.9244 S   0  0  0  0  0  0  0  0  0  0  0  0
   26.6306  -20.3830  -11.2760 C   0  0  0  0  0  0  0  0  0  0  0  0
   26.9714  -21.3707  -12.3281 C   0  0  0  0  0  0  0  0  0  0  0  0
   26.1383  -21.3624  -13.5651 C   0  0  2  0  0  0  0  0  0  0  0  0
   26.5838  -20.1546  -14.3049 N   0  0  0  0  0  0  0  0  0  0  0  0
   24.6881  -21.3276  -13.3639 C   0  0  0  0  0  0  0  0  0  0  0  0
   24.0788  -22.3362  -12.8659 O   0  0  0  0  0  0  0  0  0  0  0  0
   19.9350  -20.7369  -15.1012 N   0  0  0  0  0  0  0  0  0  0  0  0
   20.9483  -21.7114  -15.4423 C   0  0  0  0  0  0  0  0  0  0  0  0
   20.6460  -22.6544  -16.1944 O   0  0  0  0  0  0  0  0  0  0  0  0
   22.3097  -21.5818  -14.9046 C   0  0  0  0  0  0  0  0  0  0  0  0
   22.5127  -20.3085  -14.1812 C   0  0  2  0  0  0  0  0  0  0  0  0
   23.9104  -20.1947  -13.7029 N   0  0  0  0  0  0  0  0  0  0  0  0
   21.6288  -20.2440  -12.9853 C   0  0  0  0  0  0  0  0  0  0  0  0
   22.0906  -20.1623  -11.8460 O   0  0  0  0  0  0  0  0  0  0  0  0
   20.2384  -20.2736  -13.0980 O   0  0  0  0  0  0  0  0  0  0  0  0
  2  1  1  6
  2  3  1  0
  4  8  1  0
  4  3  1  0
  5  4  2  0
  6  5  1  0
  6  7  1  0
  7  8  2  0
  9  2  1  0
 10  9  2  0
 12 11  1  0
 13 12  1  0
 14 13  1  0
 15 14  1  1
 15 16  1  0
 16  9  1  0
 17 15  1  0
 17 18  2  0
 20 21  2  0
 20 19  1  0
 22 20  1  0
 23 22  1  1
 23 24  1  0
 24 17  1  0
 25 23  1  0
 26 25  2  0
 27 25  1  0
M  END
$$$$
