HMN.pdb
     RDKit          3D

 27 27  0  0  1  0  0  0  0  0999 V2000
   34.3617  -31.6972  -18.3133 N   0  0  0  0  0  0  0  0  0  0  0  0
   33.0273  -32.1690  -18.5212 C   0  0  1  0  0  0  0  0  0  0  0  0
   33.0719  -33.6826  -18.5505 C   0  0  0  0  0  0  0  0  0  0  0  0
   33.6034  -34.1346  -19.8576 C   0  0  0  0  0  0  0  0  0  0  0  0
   32.8792  -34.3507  -21.0204 C   0  0  0  0  0  0  0  0  0  0  0  0
   33.7193  -34.7540  -21.9834 N   0  0  0  0  0  0  0  0  0  0  0  0
   34.9610  -34.8046  -21.4781 C   0  0  0  0  0  0  0  0  0  0  0  0
   34.8814  -34.4239  -20.1760 N   0  0  0  0  0  0  0  0  0  0  0  0
   32.1332  -31.6791  -17.4492 C   0  0  0  0  0  0  0  0  0  0  0  0
   32.5832  -31.5128  -16.2885 O   0  0  0  0  0  0  0  0  0  0  0  0
   29.3273  -25.8365  -16.4200 C   0  0  0  0  0  0  0  0  0  0  0  0
   28.2151  -27.0684  -17.1112 S   0  0  0  0  0  0  0  0  0  0  0  0
   28.5121  -28.7198  -16.4063 C   0  0  0  0  0  0  0  0  0  0  0  0
   29.4490  -29.5220  -17.2293 C   0  0  0  0  0  0  0  0  0  0  0  0
   29.8656  -30.8481  -16.6889 C   0  0  2  0  0  0  0  0  0  0  0  0
   30.7825  -31.3977  -17.7194 N   0  0  0  0  0  0  0  0  0  0  0  0
   28.7860  -31.7982  -16.4121 C   0  0  0  0  0  0  0  0  0  0  0  0
   28.3424  -32.5623  -17.3373 O   0  0  0  0  0  0  0  0  0  0  0  0
   25.3160  -34.8309  -14.0534 N   0  0  0  0  0  0  0  0  0  0  0  0
   25.7965  -33.9095  -13.0470 C   0  0  0  0  0  0  0  0  0  0  0  0
   25.3580  -34.0040  -11.8873 O   0  0  0  0  0  0  0  0  0  0  0  0
   26.7865  -32.8818  -13.3978 C   0  0  0  0  0  0  0  0  0  0  0  0
   27.1182  -32.8849  -14.8386 C   0  0  2  0  0  0  0  0  0  0  0  0
   28.1979  -31.9131  -15.1298 N   0  0  0  0  0  0  0  0  0  0  0  0
   25.9329  -32.4849  -15.6452 C   0  0  0  0  0  0  0  0  0  0  0  0
   25.2066  -33.3223  -16.1827 O   0  0  0  0  0  0  0  0  0  0  0  0
   25.5896  -31.1453  -15.8306 O   0  0  0  0  0  0  0  0  0  0  0  0
  2  1  1  1
  2  3  1  0
  4  8  1  0
  4  3  1  0
  5  4  2  0
  6  5  1  0
  6  7  1  0
  7  8  2  0
  9  2  1  0
 10  9  2  0
 12 11  1  0
 13 12  1  0
 14 13  1  0
 15 14  1  6
 15 16  1  0
 16  9  1  0
 17 15  1  0
 17 18  2  0
 20 21  2  0
 20 19  1  0
 22 20  1  0
 23 22  1  1
 23 24  1  0
 24 17  1  0
 25 23  1  0
 26 25  2  0
 27 25  1  0
M  END
$$$$
