HMN.pdb
     RDKit          3D

 27 27  0  0  1  0  0  0  0  0999 V2000
   23.7061  -15.9647  -20.0633 N   0  0  0  0  0  0  0  0  0  0  0  0
   23.0573  -14.6922  -19.9835 C   0  0  1  0  0  0  0  0  0  0  0  0
   21.5682  -14.9399  -19.8599 C   0  0  0  0  0  0  0  0  0  0  0  0
   21.0630  -15.5414  -21.1161 C   0  0  0  0  0  0  0  0  0  0  0  0
   20.2305  -16.6442  -21.2343 C   0  0  0  0  0  0  0  0  0  0  0  0
   20.0022  -16.8752  -22.5344 N   0  0  0  0  0  0  0  0  0  0  0  0
   20.6608  -15.9566  -23.2570 C   0  0  0  0  0  0  0  0  0  0  0  0
   21.3079  -15.1437  -22.3811 N   0  0  0  0  0  0  0  0  0  0  0  0
   23.5708  -13.9219  -18.8294 C   0  0  0  0  0  0  0  0  0  0  0  0
   23.5461  -14.4283  -17.6804 O   0  0  0  0  0  0  0  0  0  0  0  0
   27.9852  -10.9654  -14.4216 C   0  0  0  0  0  0  0  0  0  0  0  0
   26.9961  -11.8705  -15.6195 S   0  0  0  0  0  0  0  0  0  0  0  0
   27.0070  -11.0662  -17.2520 C   0  0  0  0  0  0  0  0  0  0  0  0
   26.1293  -11.7591  -18.2258 C   0  0  0  0  0  0  0  0  0  0  0  0
   24.6785  -11.8472  -17.8919 C   0  0  2  0  0  0  0  0  0  0  0  0
   24.0869  -12.6266  -19.0087 N   0  0  0  0  0  0  0  0  0  0  0  0
   23.9757  -10.5719  -17.7354 C   0  0  0  0  0  0  0  0  0  0  0  0
   23.7246   -9.8412  -18.7550 O   0  0  0  0  0  0  0  0  0  0  0  0
   21.4111   -6.4896  -15.8380 N   0  0  0  0  0  0  0  0  0  0  0  0
   21.4788   -7.4669  -14.7735 C   0  0  0  0  0  0  0  0  0  0  0  0
   20.9001   -7.2265  -13.6994 O   0  0  0  0  0  0  0  0  0  0  0  0
   22.2213   -8.7202  -14.9664 C   0  0  0  0  0  0  0  0  0  0  0  0
   22.8428   -8.8086  -16.3050 C   0  0  2  0  0  0  0  0  0  0  0  0
   23.5478  -10.1011  -16.4711 N   0  0  0  0  0  0  0  0  0  0  0  0
   23.8514   -7.7282  -16.4816 C   0  0  0  0  0  0  0  0  0  0  0  0
   25.0104   -7.8572  -16.0845 O   0  0  0  0  0  0  0  0  0  0  0  0
   23.5320   -6.5207  -17.1035 O   0  0  0  0  0  0  0  0  0  0  0  0
  2  1  1  1
  2  3  1  0
  4  8  1  0
  4  3  1  0
  5  4  2  0
  6  5  1  0
  6  7  1  0
  7  8  2  0
  9  2  1  0
 10  9  2  0
 12 11  1  0
 13 12  1  0
 14 13  1  0
 15 14  1  6
 15 16  1  0
 16  9  1  0
 17 15  1  0
 17 18  2  0
 20 21  2  0
 20 19  1  0
 22 20  1  0
 23 22  1  1
 23 24  1  0
 24 17  1  0
 25 23  1  0
 26 25  2  0
 27 25  1  0
M  END
$$$$
