HMN.pdb
     RDKit          3D

 27 27  0  0  1  0  0  0  0  0999 V2000
   26.0893  -19.7197  -15.3012 N   0  0  0  0  0  0  0  0  0  0  0  0
   27.2532  -20.0730  -14.5482 C   0  0  1  0  0  0  0  0  0  0  0  0
   28.1311  -18.8428  -14.4504 C   0  0  0  0  0  0  0  0  0  0  0  0
   28.4047  -18.3234  -15.8108 C   0  0  0  0  0  0  0  0  0  0  0  0
   27.9026  -18.8163  -17.0059 C   0  0  0  0  0  0  0  0  0  0  0  0
   28.3840  -18.0762  -18.0141 N   0  0  0  0  0  0  0  0  0  0  0  0
   29.1797  -17.1228  -17.5066 C   0  0  0  0  0  0  0  0  0  0  0  0
   29.1871  -17.2812  -16.1569 N   0  0  0  0  0  0  0  0  0  0  0  0
   26.8706  -20.5672  -13.2072 C   0  0  0  0  0  0  0  0  0  0  0  0
   27.7472  -21.0424  -12.4436 O   0  0  0  0  0  0  0  0  0  0  0  0
   25.1157  -20.7364   -7.1165 C   0  0  0  0  0  0  0  0  0  0  0  0
   26.6048  -20.0515   -7.8552 S   0  0  0  0  0  0  0  0  0  0  0  0
   26.8529  -20.6488   -9.5563 C   0  0  0  0  0  0  0  0  0  0  0  0
   25.9413  -19.9893  -10.5221 C   0  0  0  0  0  0  0  0  0  0  0  0
   25.1238  -20.8749  -11.4004 C   0  0  2  0  0  0  0  0  0  0  0  0
   25.5324  -20.5092  -12.7802 N   0  0  0  0  0  0  0  0  0  0  0  0
   23.6709  -20.7615  -11.2549 C   0  0  0  0  0  0  0  0  0  0  0  0
   23.1662  -19.9384  -10.4157 O   0  0  0  0  0  0  0  0  0  0  0  0
   21.1733  -18.2185  -14.7460 N   0  0  0  0  0  0  0  0  0  0  0  0
   21.6126  -19.5726  -15.0030 C   0  0  0  0  0  0  0  0  0  0  0  0
   21.2017  -20.1544  -16.0223 O   0  0  0  0  0  0  0  0  0  0  0  0
   22.5293  -20.2423  -14.0700 C   0  0  0  0  0  0  0  0  0  0  0  0
   21.8157  -20.9367  -12.9771 C   0  0  2  0  0  0  0  0  0  0  0  0
   22.7764  -21.5421  -12.0255 N   0  0  0  0  0  0  0  0  0  0  0  0
   20.9779  -22.0396  -13.5224 C   0  0  0  0  0  0  0  0  0  0  0  0
   21.4773  -22.9911  -14.1250 O   0  0  0  0  0  0  0  0  0  0  0  0
   19.5901  -22.0474  -13.3777 O   0  0  0  0  0  0  0  0  0  0  0  0
  2  1  1  6
  2  3  1  0
  4  8  1  0
  4  3  1  0
  5  4  2  0
  6  5  1  0
  6  7  1  0
  7  8  2  0
  9  2  1  0
 10  9  2  0
 12 11  1  0
 13 12  1  0
 14 13  1  0
 15 14  1  1
 15 16  1  0
 16  9  1  0
 17 15  1  0
 17 18  2  0
 20 21  2  0
 20 19  1  0
 22 20  1  0
 23 22  1  6
 23 24  1  0
 24 17  1  0
 25 23  1  0
 26 25  2  0
 27 25  1  0
M  END
$$$$
