HMN.pdb
     RDKit          3D

 27 27  0  0  1  0  0  0  0  0999 V2000
   18.4572  -21.3145  -23.6820 N   0  0  0  0  0  0  0  0  0  0  0  0
   18.7650  -20.1253  -22.9487 C   0  0  1  0  0  0  0  0  0  0  0  0
   20.1942  -19.7412  -23.2705 C   0  0  0  0  0  0  0  0  0  0  0  0
   21.0962  -20.8642  -22.9234 C   0  0  0  0  0  0  0  0  0  0  0  0
   21.5312  -21.2206  -21.6557 C   0  0  0  0  0  0  0  0  0  0  0  0
   22.3339  -22.2886  -21.7592 N   0  0  0  0  0  0  0  0  0  0  0  0
   22.4298  -22.6313  -23.0527 C   0  0  0  0  0  0  0  0  0  0  0  0
   21.6691  -21.7542  -23.7589 N   0  0  0  0  0  0  0  0  0  0  0  0
   17.8244  -19.0404  -23.3055 C   0  0  0  0  0  0  0  0  0  0  0  0
   17.1416  -19.1268  -24.3560 O   0  0  0  0  0  0  0  0  0  0  0  0
   12.6291  -18.7547  -20.9175 C   0  0  0  0  0  0  0  0  0  0  0  0
   12.6177  -17.9220  -22.5109 S   0  0  0  0  0  0  0  0  0  0  0  0
   14.0940  -16.8832  -22.7423 C   0  0  0  0  0  0  0  0  0  0  0  0
   15.3523  -17.6503  -22.5777 C   0  0  0  0  0  0  0  0  0  0  0  0
   16.6315  -16.8926  -22.6939 C   0  0  2  0  0  0  0  0  0  0  0  0
   17.6885  -17.9126  -22.4772 N   0  0  0  0  0  0  0  0  0  0  0  0
   16.8052  -15.7765  -21.7617 C   0  0  0  0  0  0  0  0  0  0  0  0
   17.0636  -15.9968  -20.5283 O   0  0  0  0  0  0  0  0  0  0  0  0
   17.3020  -11.0721  -19.6502 N   0  0  0  0  0  0  0  0  0  0  0  0
   17.4621  -10.9185  -21.0798 C   0  0  0  0  0  0  0  0  0  0  0  0
   17.7905   -9.8076  -21.5317 O   0  0  0  0  0  0  0  0  0  0  0  0
   17.2384  -12.0614  -21.9759 C   0  0  0  0  0  0  0  0  0  0  0  0
   16.8818  -13.2941  -21.2415 C   0  0  2  0  0  0  0  0  0  0  0  0
   16.6999  -14.4278  -22.1779 N   0  0  0  0  0  0  0  0  0  0  0  0
   15.5968  -13.1111  -20.5128 C   0  0  0  0  0  0  0  0  0  0  0  0
   14.5165  -13.4043  -21.0274 O   0  0  0  0  0  0  0  0  0  0  0  0
   15.5554  -12.5992  -19.2155 O   0  0  0  0  0  0  0  0  0  0  0  0
  2  1  1  6
  2  3  1  0
  4  8  1  0
  4  3  1  0
  5  4  2  0
  6  5  1  0
  6  7  1  0
  7  8  2  0
  9  2  1  0
 10  9  2  0
 12 11  1  0
 13 12  1  0
 14 13  1  0
 15 14  1  1
 15 16  1  0
 16  9  1  0
 17 15  1  0
 17 18  2  0
 20 21  2  0
 20 19  1  0
 22 20  1  0
 23 22  1  6
 23 24  1  0
 24 17  1  0
 25 23  1  0
 26 25  2  0
 27 25  1  0
M  END
$$$$
