HMN.pdb
     RDKit          3D

 27 27  0  0  1  0  0  0  0  0999 V2000
   26.5470  -18.2668  -14.3253 N   0  0  0  0  0  0  0  0  0  0  0  0
   27.0345  -19.5781  -14.6241 C   0  0  1  0  0  0  0  0  0  0  0  0
   28.4711  -19.4431  -15.0843 C   0  0  0  0  0  0  0  0  0  0  0  0
   28.5598  -18.3854  -16.1181 C   0  0  0  0  0  0  0  0  0  0  0  0
   27.5049  -17.6888  -16.6882 C   0  0  0  0  0  0  0  0  0  0  0  0
   27.9951  -16.8183  -17.5814 N   0  0  0  0  0  0  0  0  0  0  0  0
   29.3316  -16.9320  -17.6046 C   0  0  0  0  0  0  0  0  0  0  0  0
   29.6694  -17.8937  -16.7059 N   0  0  0  0  0  0  0  0  0  0  0  0
   26.9320  -20.4510  -13.4340 C   0  0  0  0  0  0  0  0  0  0  0  0
   27.2379  -21.6658  -13.5228 O   0  0  0  0  0  0  0  0  0  0  0  0
   28.5935  -19.9696   -7.1051 C   0  0  0  0  0  0  0  0  0  0  0  0
   26.8002  -19.8479   -7.1429 S   0  0  0  0  0  0  0  0  0  0  0  0
   26.0916  -20.7335   -8.5662 C   0  0  0  0  0  0  0  0  0  0  0  0
   26.5208  -20.1514   -9.8606 C   0  0  0  0  0  0  0  0  0  0  0  0
   26.0105  -20.8015  -11.1020 C   0  0  2  0  0  0  0  0  0  0  0  0
   26.4946  -19.9312  -12.2032 N   0  0  0  0  0  0  0  0  0  0  0  0
   24.5583  -20.9699  -11.1898 C   0  0  0  0  0  0  0  0  0  0  0  0
   23.9359  -21.6847  -10.3305 O   0  0  0  0  0  0  0  0  0  0  0  0
   19.6350  -19.4680  -14.1447 N   0  0  0  0  0  0  0  0  0  0  0  0
   20.2754  -19.2190  -12.8717 C   0  0  0  0  0  0  0  0  0  0  0  0
   19.5655  -19.0458  -11.8656 O   0  0  0  0  0  0  0  0  0  0  0  0
   21.7412  -19.1732  -12.7778 C   0  0  0  0  0  0  0  0  0  0  0  0
   22.3123  -20.4252  -12.2374 C   0  0  2  0  0  0  0  0  0  0  0  0
   23.7921  -20.3571  -12.2099 N   0  0  0  0  0  0  0  0  0  0  0  0
   21.9381  -21.5806  -13.0981 C   0  0  0  0  0  0  0  0  0  0  0  0
   20.7851  -22.0134  -13.1306 O   0  0  0  0  0  0  0  0  0  0  0  0
   22.8738  -22.2270  -13.9064 O   0  0  0  0  0  0  0  0  0  0  0  0
  2  1  1  1
  2  3  1  0
  4  8  1  0
  4  3  1  0
  5  4  2  0
  6  5  1  0
  6  7  1  0
  7  8  2  0
  9  2  1  0
 10  9  2  0
 12 11  1  0
 13 12  1  0
 14 13  1  0
 15 14  1  1
 15 16  1  0
 16  9  1  0
 17 15  1  0
 17 18  2  0
 20 21  2  0
 20 19  1  0
 22 20  1  0
 23 22  1  6
 23 24  1  0
 24 17  1  0
 25 23  1  0
 26 25  2  0
 27 25  1  0
M  END
$$$$
