HMN.pdb
     RDKit          3D

 27 27  0  0  1  0  0  0  0  0999 V2000
   27.8140  -21.3072  -16.0227 N   0  0  0  0  0  0  0  0  0  0  0  0
   27.3327  -20.3365  -15.0886 C   0  0  1  0  0  0  0  0  0  0  0  0
   26.3688  -19.4276  -15.8226 C   0  0  0  0  0  0  0  0  0  0  0  0
   27.1193  -18.5888  -16.7861 C   0  0  0  0  0  0  0  0  0  0  0  0
   27.4106  -18.8969  -18.1065 C   0  0  0  0  0  0  0  0  0  0  0  0
   28.1052  -17.8841  -18.6428 N   0  0  0  0  0  0  0  0  0  0  0  0
   28.2705  -16.9340  -17.7102 C   0  0  0  0  0  0  0  0  0  0  0  0
   27.6640  -17.3732  -16.5763 N   0  0  0  0  0  0  0  0  0  0  0  0
   26.6751  -21.0032  -13.9432 C   0  0  0  0  0  0  0  0  0  0  0  0
   26.1203  -22.1183  -14.1048 O   0  0  0  0  0  0  0  0  0  0  0  0
   26.4813  -20.2133   -6.0316 C   0  0  0  0  0  0  0  0  0  0  0  0
   26.8171  -19.5717   -7.6772 S   0  0  0  0  0  0  0  0  0  0  0  0
   26.1091  -20.6331   -8.9750 C   0  0  0  0  0  0  0  0  0  0  0  0
   26.4999  -20.1931  -10.3361 C   0  0  0  0  0  0  0  0  0  0  0  0
   26.1279  -21.0843  -11.4725 C   0  0  2  0  0  0  0  0  0  0  0  0
   26.6664  -20.3983  -12.6742 N   0  0  0  0  0  0  0  0  0  0  0  0
   24.6976  -21.3513  -11.6393 C   0  0  0  0  0  0  0  0  0  0  0  0
   24.0688  -22.0686  -10.7869 O   0  0  0  0  0  0  0  0  0  0  0  0
   19.7197  -20.6369  -12.6668 N   0  0  0  0  0  0  0  0  0  0  0  0
   20.4815  -19.7840  -11.7809 C   0  0  0  0  0  0  0  0  0  0  0  0
   19.8725  -19.0353  -10.9968 O   0  0  0  0  0  0  0  0  0  0  0  0
   21.9504  -19.8082  -11.8134 C   0  0  0  0  0  0  0  0  0  0  0  0
   22.4784  -20.8226  -12.7504 C   0  0  2  0  0  0  0  0  0  0  0  0
   23.9598  -20.8336  -12.7307 N   0  0  0  0  0  0  0  0  0  0  0  0
   22.0564  -20.5122  -14.1437 C   0  0  0  0  0  0  0  0  0  0  0  0
   20.8678  -20.4893  -14.4672 O   0  0  0  0  0  0  0  0  0  0  0  0
   22.9851  -20.2338  -15.1470 O   0  0  0  0  0  0  0  0  0  0  0  0
  2  1  1  6
  2  3  1  0
  4  8  1  0
  4  3  1  0
  5  4  2  0
  6  5  1  0
  6  7  1  0
  7  8  2  0
  9  2  1  0
 10  9  2  0
 12 11  1  0
 13 12  1  0
 14 13  1  0
 15 14  1  1
 15 16  1  0
 16  9  1  0
 17 15  1  0
 17 18  2  0
 20 21  2  0
 20 19  1  0
 22 20  1  0
 23 22  1  1
 23 24  1  0
 24 17  1  0
 25 23  1  0
 26 25  2  0
 27 25  1  0
M  END
$$$$
