HMN.pdb
     RDKit          3D

 27 27  0  0  1  0  0  0  0  0999 V2000
   20.9872  -14.6713  -18.2859 N   0  0  0  0  0  0  0  0  0  0  0  0
   20.3631  -14.4541  -17.0171 C   0  0  1  0  0  0  0  0  0  0  0  0
   19.7244  -15.7583  -16.5872 C   0  0  0  0  0  0  0  0  0  0  0  0
   18.7414  -16.1861  -17.6099 C   0  0  0  0  0  0  0  0  0  0  0  0
   18.2603  -17.4705  -17.8154 C   0  0  0  0  0  0  0  0  0  0  0  0
   17.3890  -17.4472  -18.8333 N   0  0  0  0  0  0  0  0  0  0  0  0
   17.2937  -16.1893  -19.2898 C   0  0  0  0  0  0  0  0  0  0  0  0
   18.1249  -15.4233  -18.5353 N   0  0  0  0  0  0  0  0  0  0  0  0
   21.3577  -13.9908  -16.0246 C   0  0  0  0  0  0  0  0  0  0  0  0
   21.2461  -14.3347  -14.8219 O   0  0  0  0  0  0  0  0  0  0  0  0
   28.9961  -13.0370  -15.3675 C   0  0  0  0  0  0  0  0  0  0  0  0
   27.4773  -13.5097  -16.2054 S   0  0  0  0  0  0  0  0  0  0  0  0
   26.0029  -12.9053  -15.3262 C   0  0  0  0  0  0  0  0  0  0  0  0
   24.7450  -13.2722  -16.0202 C   0  0  0  0  0  0  0  0  0  0  0  0
   23.4754  -12.7211  -15.4647 C   0  0  2  0  0  0  0  0  0  0  0  0
   22.4280  -13.1683  -16.4174 N   0  0  0  0  0  0  0  0  0  0  0  0
   23.4231  -11.2669  -15.2993 C   0  0  0  0  0  0  0  0  0  0  0  0
   24.1807  -10.6839  -14.4493 O   0  0  0  0  0  0  0  0  0  0  0  0
   22.4457   -6.2142  -15.9791 N   0  0  0  0  0  0  0  0  0  0  0  0
   22.5802   -6.8934  -17.2493 C   0  0  0  0  0  0  0  0  0  0  0  0
   22.6692   -6.2145  -18.2873 O   0  0  0  0  0  0  0  0  0  0  0  0
   22.6102   -8.3616  -17.3032 C   0  0  0  0  0  0  0  0  0  0  0  0
   22.5505   -8.9778  -15.9606 C   0  0  2  0  0  0  0  0  0  0  0  0
   22.5491  -10.4559  -16.0621 N   0  0  0  0  0  0  0  0  0  0  0  0
   21.2975   -8.5806  -15.2622 C   0  0  0  0  0  0  0  0  0  0  0  0
   21.0094   -7.3970  -15.0784 O   0  0  0  0  0  0  0  0  0  0  0  0
   20.3925   -9.5283  -14.7830 O   0  0  0  0  0  0  0  0  0  0  0  0
  2  1  1  6
  2  3  1  0
  4  8  1  0
  4  3  1  0
  5  4  2  0
  6  5  1  0
  6  7  1  0
  7  8  2  0
  9  2  1  0
 10  9  2  0
 12 11  1  0
 13 12  1  0
 14 13  1  0
 15 14  1  6
 15 16  1  0
 16  9  1  0
 17 15  1  0
 17 18  2  0
 20 21  2  0
 20 19  1  0
 22 20  1  0
 23 22  1  6
 23 24  1  0
 24 17  1  0
 25 23  1  0
 26 25  2  0
 27 25  1  0
M  END
$$$$
