HMN.pdb
     RDKit          3D

 27 27  0  0  1  0  0  0  0  0999 V2000
   18.4159  -12.8640  -17.2449 N   0  0  0  0  0  0  0  0  0  0  0  0
   18.3814  -11.4354  -17.3105 C   0  0  1  0  0  0  0  0  0  0  0  0
   16.9491  -10.9972  -17.0867 C   0  0  0  0  0  0  0  0  0  0  0  0
   16.1113  -11.4542  -18.2201 C   0  0  0  0  0  0  0  0  0  0  0  0
   15.0289  -12.3191  -18.1588 C   0  0  0  0  0  0  0  0  0  0  0  0
   14.5382  -12.4846  -19.3947 N   0  0  0  0  0  0  0  0  0  0  0  0
   15.2698  -11.7543  -20.2498 C   0  0  0  0  0  0  0  0  0  0  0  0
   16.2310  -11.1265  -19.5226 N   0  0  0  0  0  0  0  0  0  0  0  0
   19.2864  -10.8496  -16.2973 C   0  0  0  0  0  0  0  0  0  0  0  0
   19.2512  -11.2671  -15.1133 O   0  0  0  0  0  0  0  0  0  0  0  0
   26.4512  -10.1614  -14.4189 C   0  0  0  0  0  0  0  0  0  0  0  0
   25.0140  -10.6942  -15.3585 S   0  0  0  0  0  0  0  0  0  0  0  0
   23.5737   -9.6230  -15.0580 C   0  0  0  0  0  0  0  0  0  0  0  0
   22.4006  -10.0163  -15.8752 C   0  0  0  0  0  0  0  0  0  0  0  0
   21.1414   -9.2428  -15.6749 C   0  0  2  0  0  0  0  0  0  0  0  0
   20.1865   -9.8287  -16.6493 N   0  0  0  0  0  0  0  0  0  0  0  0
   21.2384   -7.7943  -15.8682 C   0  0  0  0  0  0  0  0  0  0  0  0
   21.5804   -7.3137  -17.0034 O   0  0  0  0  0  0  0  0  0  0  0  0
   21.1586   -2.6491  -15.1003 N   0  0  0  0  0  0  0  0  0  0  0  0
   19.9342   -3.2705  -14.6447 C   0  0  0  0  0  0  0  0  0  0  0  0
   18.9702   -2.5466  -14.3402 O   0  0  0  0  0  0  0  0  0  0  0  0
   19.8397   -4.7336  -14.5463 C   0  0  0  0  0  0  0  0  0  0  0  0
   21.0683   -5.4119  -15.0115 C   0  0  2  0  0  0  0  0  0  0  0  0
   20.9597   -6.8779  -14.8262 N   0  0  0  0  0  0  0  0  0  0  0  0
   22.2451   -4.9520  -14.2246 C   0  0  0  0  0  0  0  0  0  0  0  0
   22.6415   -3.7868  -14.2790 O   0  0  0  0  0  0  0  0  0  0  0  0
   22.9537   -5.8174  -13.3904 O   0  0  0  0  0  0  0  0  0  0  0  0
  2  1  1  1
  2  3  1  0
  4  8  1  0
  4  3  1  0
  5  4  2  0
  6  5  1  0
  6  7  1  0
  7  8  2  0
  9  2  1  0
 10  9  2  0
 12 11  1  0
 13 12  1  0
 14 13  1  0
 15 14  1  6
 15 16  1  0
 16  9  1  0
 17 15  1  0
 17 18  2  0
 20 21  2  0
 20 19  1  0
 22 20  1  0
 23 22  1  1
 23 24  1  0
 24 17  1  0
 25 23  1  0
 26 25  2  0
 27 25  1  0
M  END
$$$$
