RWS.pdb
     RDKit          3D

 32 33  0  0  1  0  0  0  0  0999 V2000
    8.6133  -12.2927   16.7838 N   0  0  0  0  0  0  0  0  0  0  0  0
    7.9797  -13.4590   17.3276 C   0  0  0  0  0  0  0  0  0  0  0  0
    7.3098  -14.1708   16.4698 N   0  0  0  0  0  0  0  0  0  0  0  0
    8.0717  -13.8167   18.6942 N   0  0  0  0  0  0  0  0  0  0  0  0
    6.9433  -13.6390   19.5614 C   0  0  0  0  0  0  0  0  0  0  0  0
    6.3778  -14.9698   20.0586 C   0  0  0  0  0  0  0  0  0  0  0  0
    6.8504  -15.1538   21.4627 C   0  0  0  0  0  0  0  0  0  0  0  0
    8.0383  -16.0656   21.5785 C   0  0  2  0  0  0  0  0  0  0  0  0
    7.6661  -17.4354   21.3800 N   0  0  0  0  0  0  0  0  0  0  0  0
    8.8045  -15.8542   22.8294 C   0  0  0  0  0  0  0  0  0  0  0  0
    9.4995  -14.8166   22.9642 O   0  0  0  0  0  0  0  0  0  0  0  0
    6.8915  -15.0583   16.8010 N   0  0  0  0  0  0  0  0  0  0  0  0
    8.7171  -16.8512   23.8366 C   0  0  1  0  0  0  0  0  0  0  0  0
    9.4006  -16.7243   25.0805 C   0  0  0  0  0  0  0  0  0  0  0  0
    8.4864  -16.6402   26.2718 C   0  0  0  0  0  0  0  0  0  0  0  0
    7.4835  -15.5515   26.1577 C   0  0  0  0  0  0  0  0  0  0  0  0
    6.1363  -15.6870   25.8389 N   0  0  0  0  0  0  0  0  0  0  0  0
    5.6271  -14.4453   25.8477 C   0  0  0  0  0  0  0  0  0  0  0  0
    6.5809  -13.5443   26.1540 C   0  0  0  0  0  0  0  0  0  0  0  0
    6.5779  -12.1640   26.2916 C   0  0  0  0  0  0  0  0  0  0  0  0
    7.7121  -11.4526   26.6201 C   0  0  0  0  0  0  0  0  0  0  0  0
    8.8998  -12.1536   26.8192 C   0  0  0  0  0  0  0  0  0  0  0  0
    8.9327  -13.5220   26.6896 C   0  0  0  0  0  0  0  0  0  0  0  0
    7.7794  -14.1983   26.3603 C   0  0  0  0  0  0  0  0  0  0  0  0
   10.3660  -17.8325   25.2944 O   0  0  0  0  0  0  0  0  0  0  0  0
    9.9662  -19.0225   25.3481 O   0  0  0  0  0  0  0  0  0  0  0  0
   14.2419  -17.0135   25.2713 C   0  0  0  0  0  0  0  0  0  0  0  0
   13.9924  -18.3654   25.0084 C   0  0  1  0  0  0  0  0  0  0  0  0
   12.6842  -18.7051   25.7264 N   0  0  0  0  0  0  0  0  0  0  0  0
   11.7634  -17.6209   25.4469 C   0  0  0  0  0  0  0  0  0  0  0  0
   12.8757  -18.8498   27.1681 O   0  0  0  0  0  0  0  0  0  0  0  0
   12.2746  -18.0948   27.9660 O   0  0  0  0  0  0  0  0  0  0  0  0
  1  2  1  0
  2  3  2  0
  4  5  1  0
  4  2  1  0
  6  5  1  0
  7  6  1  0
  8  9  1  1
  8  7  1  0
 10  8  1  0
 11 10  2  0
 12 10  1  0
 13 12  1  0
 13 24  1  0
 13 14  1  6
 15 14  1  0
 16 15  2  0
 17 16  1  0
 18 17  1  0
 18 23  2  0
 19 18  1  0
 20 19  2  0
 20 21  1  0
 21 22  2  0
 22 23  1  0
 23 15  1  0
 24 25  2  0
 27 26  1  0
 28 27  1  6
 29 24  1  0
 29 28  1  0
 30 28  1  0
 30 32  1  0
 31 30  2  0
M  END
$$$$
