RWS.pdb
     RDKit          3D

 32 33  0  0  1  0  0  0  0  0999 V2000
    7.7089  -23.0181   17.4200 N   0  0  0  0  0  0  0  0  0  0  0  0
    8.2840  -21.9265   16.6885 C   0  0  0  0  0  0  0  0  0  0  0  0
    7.9230  -21.8498   15.4415 N   0  0  0  0  0  0  0  0  0  0  0  0
    9.1781  -20.9969   17.2722 N   0  0  0  0  0  0  0  0  0  0  0  0
    9.6173  -21.1746   18.6258 C   0  0  0  0  0  0  0  0  0  0  0  0
    8.4933  -20.9428   19.6363 C   0  0  0  0  0  0  0  0  0  0  0  0
    9.0195  -20.0102   20.6765 C   0  0  0  0  0  0  0  0  0  0  0  0
    8.5787  -18.5877   20.4813 C   0  0  2  0  0  0  0  0  0  0  0  0
    8.8967  -18.1188   19.1647 N   0  0  0  0  0  0  0  0  0  0  0  0
    9.0702  -17.6829   21.5473 C   0  0  0  0  0  0  0  0  0  0  0  0
   10.2857  -17.6988   21.8639 O   0  0  0  0  0  0  0  0  0  0  0  0
    8.2859  -21.0579   14.8817 N   0  0  0  0  0  0  0  0  0  0  0  0
    8.1289  -16.8241   22.1738 C   0  0  1  0  0  0  0  0  0  0  0  0
    8.5066  -15.9278   23.2153 C   0  0  0  0  0  0  0  0  0  0  0  0
    7.7094  -14.6528   23.2403 C   0  0  0  0  0  0  0  0  0  0  0  0
    8.1362  -13.7227   24.3158 C   0  0  0  0  0  0  0  0  0  0  0  0
    9.3875  -13.1326   24.4620 N   0  0  0  0  0  0  0  0  0  0  0  0
    9.3143  -12.3793   25.5702 C   0  0  0  0  0  0  0  0  0  0  0  0
    8.0885  -12.4667   26.1225 C   0  0  0  0  0  0  0  0  0  0  0  0
    7.5081  -11.8990   27.2472 C   0  0  0  0  0  0  0  0  0  0  0  0
    6.2023  -12.1505   27.6105 C   0  0  0  0  0  0  0  0  0  0  0  0
    5.4457  -13.0071   26.8134 C   0  0  0  0  0  0  0  0  0  0  0  0
    5.9945  -13.5843   25.6927 C   0  0  0  0  0  0  0  0  0  0  0  0
    7.3024  -13.3093   25.3616 C   0  0  0  0  0  0  0  0  0  0  0  0
    8.4253  -16.5704   24.5518 O   0  0  0  0  0  0  0  0  0  0  0  0
    7.4321  -17.2764   24.8585 O   0  0  0  0  0  0  0  0  0  0  0  0
   10.7887  -18.8172   25.5850 C   0  0  0  0  0  0  0  0  0  0  0  0
    9.5688  -18.7053   26.2622 C   0  0  1  0  0  0  0  0  0  0  0  0
    9.4743  -17.2520   26.7328 N   0  0  0  0  0  0  0  0  0  0  0  0
    9.4385  -16.4304   25.5391 C   0  0  0  0  0  0  0  0  0  0  0  0
   10.6093  -16.8768   27.5739 O   0  0  0  0  0  0  0  0  0  0  0  0
   11.4126  -15.9935   27.1965 O   0  0  0  0  0  0  0  0  0  0  0  0
  1  2  1  0
  2  3  2  0
  4  5  1  0
  4  2  1  0
  6  5  1  0
  7  6  1  0
  8  9  1  6
  8  7  1  0
 10  8  1  0
 11 10  2  0
 12 10  1  0
 13 12  1  0
 13 24  1  0
 13 14  1  6
 15 14  1  0
 16 15  2  0
 17 16  1  0
 18 17  1  0
 18 23  2  0
 19 18  1  0
 20 19  2  0
 20 21  1  0
 21 22  2  0
 22 23  1  0
 23 15  1  0
 24 25  2  0
 27 26  1  0
 28 27  1  6
 29 24  1  0
 29 28  1  0
 30 28  1  0
 30 32  1  0
 31 30  2  0
M  END
$$$$
