RWS.pdb
     RDKit          3D

 32 33  0  0  1  0  0  0  0  0999 V2000
    8.1476  -14.3131   15.6046 N   0  0  0  0  0  0  0  0  0  0  0  0
    7.9509  -13.5299   16.7901 C   0  0  0  0  0  0  0  0  0  0  0  0
    8.6624  -12.4433   16.8552 N   0  0  0  0  0  0  0  0  0  0  0  0
    7.0514  -13.9037   17.8174 N   0  0  0  0  0  0  0  0  0  0  0  0
    7.4517  -14.8562   18.8120 C   0  0  0  0  0  0  0  0  0  0  0  0
    8.9171  -14.6921   19.2168 C   0  0  0  0  0  0  0  0  0  0  0  0
    8.9526  -14.5574   20.7031 C   0  0  0  0  0  0  0  0  0  0  0  0
    9.0498  -15.8737   21.4200 C   0  0  2  0  0  0  0  0  0  0  0  0
    7.7767  -16.5289   21.4830 N   0  0  0  0  0  0  0  0  0  0  0  0
    9.7027  -15.7586   22.7455 C   0  0  0  0  0  0  0  0  0  0  0  0
   10.7925  -15.1428   22.8498 O   0  0  0  0  0  0  0  0  0  0  0  0
    8.5326  -11.8299   17.6792 N   0  0  0  0  0  0  0  0  0  0  0  0
    9.0558  -16.3600   23.8573 C   0  0  1  0  0  0  0  0  0  0  0  0
    9.6268  -16.3346   25.1627 C   0  0  0  0  0  0  0  0  0  0  0  0
    8.6110  -16.2828   26.2707 C   0  0  0  0  0  0  0  0  0  0  0  0
    7.4805  -15.3659   25.9789 C   0  0  0  0  0  0  0  0  0  0  0  0
    6.2402  -15.7104   25.4516 N   0  0  0  0  0  0  0  0  0  0  0  0
    5.5470  -14.5652   25.3573 C   0  0  0  0  0  0  0  0  0  0  0  0
    6.2852  -13.5270   25.7960 C   0  0  0  0  0  0  0  0  0  0  0  0
    6.0427  -12.1657   25.9071 C   0  0  0  0  0  0  0  0  0  0  0  0
    6.9831  -11.2864   26.3999 C   0  0  0  0  0  0  0  0  0  0  0  0
    8.2190  -11.7920   26.7982 C   0  0  0  0  0  0  0  0  0  0  0  0
    8.4875  -13.1368   26.6995 C   0  0  0  0  0  0  0  0  0  0  0  0
    7.5231  -13.9845   26.2023 C   0  0  0  0  0  0  0  0  0  0  0  0
   10.5283  -17.4922   25.3925 O   0  0  0  0  0  0  0  0  0  0  0  0
   10.0532  -18.6357   25.6058 O   0  0  0  0  0  0  0  0  0  0  0  0
   14.6037  -17.0728   25.1688 C   0  0  0  0  0  0  0  0  0  0  0  0
   14.0607  -18.2902   24.7417 C   0  0  1  0  0  0  0  0  0  0  0  0
   12.8125  -18.5234   25.5960 N   0  0  0  0  0  0  0  0  0  0  0  0
   11.9456  -17.3809   25.3852 C   0  0  0  0  0  0  0  0  0  0  0  0
   13.1401  -18.6576   27.0141 O   0  0  0  0  0  0  0  0  0  0  0  0
   12.6845  -17.8435   27.8493 O   0  0  0  0  0  0  0  0  0  0  0  0
  1  2  1  0
  2  3  2  0
  4  5  1  0
  4  2  1  0
  6  5  1  0
  7  6  1  0
  8  9  1  1
  8  7  1  0
 10  8  1  0
 11 10  2  0
 12 10  1  0
 13 12  1  0
 13 24  1  0
 13 14  1  1
 15 14  1  0
 16 15  2  0
 17 16  1  0
 18 17  1  0
 18 23  2  0
 19 18  1  0
 20 19  2  0
 20 21  1  0
 21 22  2  0
 22 23  1  0
 23 15  1  0
 24 25  2  0
 27 26  1  0
 28 27  1  6
 29 24  1  0
 29 28  1  0
 30 28  1  0
 30 32  1  0
 31 30  2  0
M  END
$$$$
