RWS.pdb
     RDKit          3D

 32 33  0  0  1  0  0  0  0  0999 V2000
    9.4517  -13.7022   15.8930 N   0  0  0  0  0  0  0  0  0  0  0  0
    8.1355  -13.8882   16.4320 C   0  0  0  0  0  0  0  0  0  0  0  0
    7.4456  -14.8427   15.8803 N   0  0  0  0  0  0  0  0  0  0  0  0
    7.6180  -13.0972   17.4858 N   0  0  0  0  0  0  0  0  0  0  0  0
    7.9179  -13.4296   18.8483 C   0  0  0  0  0  0  0  0  0  0  0  0
    6.8035  -14.2442   19.5062 C   0  0  0  0  0  0  0  0  0  0  0  0
    7.1592  -14.3957   20.9482 C   0  0  0  0  0  0  0  0  0  0  0  0
    8.0915  -15.5424   21.2161 C   0  0  2  0  0  0  0  0  0  0  0  0
    7.3708  -16.7648   21.4175 N   0  0  0  0  0  0  0  0  0  0  0  0
    9.0540  -15.2570   22.3064 C   0  0  0  0  0  0  0  0  0  0  0  0
    9.8456  -14.2877   22.1982 O   0  0  0  0  0  0  0  0  0  0  0  0
    6.4699  -14.9793   16.1988 N   0  0  0  0  0  0  0  0  0  0  0  0
    9.0379  -16.1067   23.4439 C   0  0  1  0  0  0  0  0  0  0  0  0
    9.9330  -15.9165   24.5363 C   0  0  0  0  0  0  0  0  0  0  0  0
    9.2791  -16.0298   25.8860 C   0  0  0  0  0  0  0  0  0  0  0  0
    7.9729  -15.3280   25.9586 C   0  0  0  0  0  0  0  0  0  0  0  0
    6.7097  -15.9014   25.8552 N   0  0  0  0  0  0  0  0  0  0  0  0
    5.8339  -14.8916   25.9741 C   0  0  0  0  0  0  0  0  0  0  0  0
    6.4800  -13.7218   26.1457 C   0  0  0  0  0  0  0  0  0  0  0  0
    6.0518  -12.4132   26.3143 C   0  0  0  0  0  0  0  0  0  0  0  0
    6.9312  -11.3637   26.4746 C   0  0  0  0  0  0  0  0  0  0  0  0
    8.2976  -11.6365   26.4656 C   0  0  0  0  0  0  0  0  0  0  0  0
    8.7512  -12.9239   26.3004 C   0  0  0  0  0  0  0  0  0  0  0  0
    7.8424  -13.9464   26.1431 C   0  0  0  0  0  0  0  0  0  0  0  0
   11.0804  -16.8577   24.4790 O   0  0  0  0  0  0  0  0  0  0  0  0
   10.8971  -18.0930   24.6188 O   0  0  0  0  0  0  0  0  0  0  0  0
   14.9044  -15.4602   24.1896 C   0  0  0  0  0  0  0  0  0  0  0  0
   14.6717  -16.6541   23.4970 C   0  0  1  0  0  0  0  0  0  0  0  0
   13.5320  -17.3600   24.2352 N   0  0  0  0  0  0  0  0  0  0  0  0
   12.4198  -16.4308   24.2678 C   0  0  0  0  0  0  0  0  0  0  0  0
   13.9158  -17.7406   25.5932 O   0  0  0  0  0  0  0  0  0  0  0  0
   13.2881  -17.2901   26.5787 O   0  0  0  0  0  0  0  0  0  0  0  0
  1  2  1  0
  2  3  2  0
  4  5  1  0
  4  2  1  0
  6  5  1  0
  7  6  1  0
  8  9  1  1
  8  7  1  0
 10  8  1  0
 11 10  2  0
 12 10  1  0
 13 12  1  0
 13 24  1  0
 13 14  1  6
 15 14  1  0
 16 15  2  0
 17 16  1  0
 18 17  1  0
 18 23  2  0
 19 18  1  0
 20 19  2  0
 20 21  1  0
 21 22  2  0
 22 23  1  0
 23 15  1  0
 24 25  2  0
 27 26  1  0
 28 27  1  6
 29 24  1  0
 29 28  1  0
 30 28  1  0
 30 32  1  0
 31 30  2  0
M  END
$$$$
