RWS.pdb
     RDKit          3D

 32 33  0  0  1  0  0  0  0  0999 V2000
    7.6184  -13.7331   15.8508 N   0  0  0  0  0  0  0  0  0  0  0  0
    8.1847  -13.5256   17.1522 C   0  0  0  0  0  0  0  0  0  0  0  0
    9.2260  -12.7469   17.1806 N   0  0  0  0  0  0  0  0  0  0  0  0
    7.6562  -14.1192   18.3237 N   0  0  0  0  0  0  0  0  0  0  0  0
    8.3863  -14.0513   19.5562 C   0  0  0  0  0  0  0  0  0  0  0  0
    9.6214  -14.9528   19.5500 C   0  0  0  0  0  0  0  0  0  0  0  0
   10.2516  -14.8483   20.8994 C   0  0  0  0  0  0  0  0  0  0  0  0
   10.3530  -16.1651   21.6147 C   0  0  2  0  0  0  0  0  0  0  0  0
    9.3785  -17.0982   21.1311 N   0  0  0  0  0  0  0  0  0  0  0  0
   10.3273  -16.0206   23.0895 C   0  0  0  0  0  0  0  0  0  0  0  0
   11.0612  -15.1643   23.6426 O   0  0  0  0  0  0  0  0  0  0  0  0
    9.6338  -12.5197   18.1049 N   0  0  0  0  0  0  0  0  0  0  0  0
    9.4594  -16.8714   23.8237 C   0  0  1  0  0  0  0  0  0  0  0  0
    9.3408  -16.7812   25.2409 C   0  0  0  0  0  0  0  0  0  0  0  0
    7.9363  -16.5372   25.7202 C   0  0  0  0  0  0  0  0  0  0  0  0
    7.3499  -15.2832   25.1840 C   0  0  0  0  0  0  0  0  0  0  0  0
    6.7411  -15.1086   23.9454 N   0  0  0  0  0  0  0  0  0  0  0  0
    6.3699  -13.8200   23.8938 C   0  0  0  0  0  0  0  0  0  0  0  0
    6.7129  -13.1822   25.0300 C   0  0  0  0  0  0  0  0  0  0  0  0
    6.5606  -11.8762   25.4721 C   0  0  0  0  0  0  0  0  0  0  0  0
    7.0077  -11.4584   26.7074 C   0  0  0  0  0  0  0  0  0  0  0  0
    7.6339  -12.3882   27.5351 C   0  0  0  0  0  0  0  0  0  0  0  0
    7.7987  -13.6896   27.1233 C   0  0  0  0  0  0  0  0  0  0  0  0
    7.3390  -14.0700   25.8824 C   0  0  0  0  0  0  0  0  0  0  0  0
    9.8746  -17.9913   25.9167 O   0  0  0  0  0  0  0  0  0  0  0  0
    9.4235  -19.1292   25.6328 O   0  0  0  0  0  0  0  0  0  0  0  0
   12.9482  -17.6384   28.4909 C   0  0  0  0  0  0  0  0  0  0  0  0
   12.8577  -18.8959   27.8827 C   0  0  1  0  0  0  0  0  0  0  0  0
   11.3727  -19.1219   27.5898 N   0  0  0  0  0  0  0  0  0  0  0  0
   10.9008  -17.9381   26.8990 C   0  0  0  0  0  0  0  0  0  0  0  0
   10.6026  -19.3369   28.8134 O   0  0  0  0  0  0  0  0  0  0  0  0
    9.6996  -18.5343   29.1427 O   0  0  0  0  0  0  0  0  0  0  0  0
  1  2  1  0
  2  3  2  0
  4  5  1  0
  4  2  1  0
  6  5  1  0
  7  6  1  0
  8  9  1  6
  8  7  1  0
 10  8  1  0
 11 10  2  0
 12 10  1  0
 13 12  1  0
 13 24  1  0
 13 14  1  1
 15 14  1  0
 16 15  2  0
 17 16  1  0
 18 17  1  0
 18 23  2  0
 19 18  1  0
 20 19  2  0
 20 21  1  0
 21 22  2  0
 22 23  1  0
 23 15  1  0
 24 25  2  0
 27 26  1  0
 28 27  1  6
 29 24  1  0
 29 28  1  0
 30 28  1  0
 30 32  1  0
 31 30  2  0
M  END
$$$$
