RWS.pdb
     RDKit          3D

 32 33  0  0  1  0  0  0  0  0999 V2000
    9.1174  -15.0758   16.0972 N   0  0  0  0  0  0  0  0  0  0  0  0
    8.5748  -13.7791   16.3831 C   0  0  0  0  0  0  0  0  0  0  0  0
    8.1802  -13.1068   15.3422 N   0  0  0  0  0  0  0  0  0  0  0  0
    8.4720  -13.2620   17.6969 N   0  0  0  0  0  0  0  0  0  0  0  0
    9.0698  -13.9648   18.7949 C   0  0  0  0  0  0  0  0  0  0  0  0
    8.1525  -15.0512   19.3576 C   0  0  0  0  0  0  0  0  0  0  0  0
    8.2069  -14.9484   20.8459 C   0  0  0  0  0  0  0  0  0  0  0  0
    8.8798  -16.1204   21.5013 C   0  0  2  0  0  0  0  0  0  0  0  0
    8.1273  -17.3258   21.3143 N   0  0  0  0  0  0  0  0  0  0  0  0
    9.2162  -15.8682   22.9225 C   0  0  0  0  0  0  0  0  0  0  0  0
    9.8563  -14.8335   23.2350 O   0  0  0  0  0  0  0  0  0  0  0  0
    7.8325  -12.1432   15.4933 N   0  0  0  0  0  0  0  0  0  0  0  0
    8.7927  -16.8238   23.8835 C   0  0  1  0  0  0  0  0  0  0  0  0
    9.2053  -16.7530   25.2457 C   0  0  0  0  0  0  0  0  0  0  0  0
    8.0666  -16.6381   26.2215 C   0  0  0  0  0  0  0  0  0  0  0  0
    7.1862  -15.4738   25.9513 C   0  0  0  0  0  0  0  0  0  0  0  0
    5.9716  -15.4845   25.2731 N   0  0  0  0  0  0  0  0  0  0  0  0
    5.5396  -14.2140   25.2674 C   0  0  0  0  0  0  0  0  0  0  0  0
    6.4162  -13.4126   25.9036 C   0  0  0  0  0  0  0  0  0  0  0  0
    6.4422  -12.0515   26.1698 C   0  0  0  0  0  0  0  0  0  0  0  0
    7.4771  -11.4535   26.8568 C   0  0  0  0  0  0  0  0  0  0  0  0
    8.5307  -12.2529   27.2957 C   0  0  0  0  0  0  0  0  0  0  0  0
    8.5318  -13.6050   27.0463 C   0  0  0  0  0  0  0  0  0  0  0  0
    7.4805  -14.1666   26.3568 C   0  0  0  0  0  0  0  0  0  0  0  0
   10.0483  -17.9146   25.6272 O   0  0  0  0  0  0  0  0  0  0  0  0
    9.7660  -19.0677   25.2157 O   0  0  0  0  0  0  0  0  0  0  0  0
   13.3840  -18.7735   25.1788 C   0  0  0  0  0  0  0  0  0  0  0  0
   13.3635  -18.7966   26.5781 C   0  0  2  0  0  0  0  0  0  0  0  0
   11.8952  -18.9538   26.9805 N   0  0  0  0  0  0  0  0  0  0  0  0
   11.1955  -17.7964   26.4586 C   0  0  0  0  0  0  0  0  0  0  0  0
   11.7334  -19.0337   28.4309 O   0  0  0  0  0  0  0  0  0  0  0  0
   11.0364  -18.1889   29.0380 O   0  0  0  0  0  0  0  0  0  0  0  0
  1  2  1  0
  2  3  2  0
  4  5  1  0
  4  2  1  0
  6  5  1  0
  7  6  1  0
  8  9  1  1
  8  7  1  0
 10  8  1  0
 11 10  2  0
 12 10  1  0
 13 12  1  0
 13 24  1  0
 13 14  1  1
 15 14  1  0
 16 15  2  0
 17 16  1  0
 18 17  1  0
 18 23  2  0
 19 18  1  0
 20 19  2  0
 20 21  1  0
 21 22  2  0
 22 23  1  0
 23 15  1  0
 24 25  2  0
 27 26  1  0
 28 27  1  6
 29 24  1  0
 29 28  1  0
 30 28  1  0
 30 32  1  0
 31 30  2  0
M  END
$$$$
