RWS.pdb
     RDKit          3D

 32 33  0  0  1  0  0  0  0  0999 V2000
    9.2646  -15.0282   16.3246 N   0  0  0  0  0  0  0  0  0  0  0  0
    8.1750  -14.1726   15.9529 C   0  0  0  0  0  0  0  0  0  0  0  0
    7.6126  -14.4613   14.8164 N   0  0  0  0  0  0  0  0  0  0  0  0
    7.7373  -13.0927   16.7569 N   0  0  0  0  0  0  0  0  0  0  0  0
    8.1556  -12.9998   18.1256 C   0  0  0  0  0  0  0  0  0  0  0  0
    7.9266  -14.3028   18.8925 C   0  0  0  0  0  0  0  0  0  0  0  0
    8.4124  -14.0858   20.2873 C   0  0  0  0  0  0  0  0  0  0  0  0
    8.4516  -15.3428   21.1085 C   0  0  2  0  0  0  0  0  0  0  0  0
    7.2160  -16.0635   21.0186 N   0  0  0  0  0  0  0  0  0  0  0  0
    8.8749  -15.1012   22.5081 C   0  0  0  0  0  0  0  0  0  0  0  0
    9.0562  -13.9242   22.9078 O   0  0  0  0  0  0  0  0  0  0  0  0
    6.8594  -13.8365   14.4780 N   0  0  0  0  0  0  0  0  0  0  0  0
    9.0598  -16.2303   23.3489 C   0  0  1  0  0  0  0  0  0  0  0  0
    9.7790  -16.1434   24.5761 C   0  0  0  0  0  0  0  0  0  0  0  0
    8.9191  -16.3088   25.7989 C   0  0  0  0  0  0  0  0  0  0  0  0
    7.7162  -15.4389   25.7841 C   0  0  0  0  0  0  0  0  0  0  0  0
    6.4177  -15.8145   25.4555 N   0  0  0  0  0  0  0  0  0  0  0  0
    5.6700  -14.7066   25.5766 C   0  0  0  0  0  0  0  0  0  0  0  0
    6.4292  -13.6624   25.9619 C   0  0  0  0  0  0  0  0  0  0  0  0
    6.1520  -12.3286   26.2232 C   0  0  0  0  0  0  0  0  0  0  0  0
    7.1265  -11.4349   26.6133 C   0  0  0  0  0  0  0  0  0  0  0  0
    8.4342  -11.8969   26.7475 C   0  0  0  0  0  0  0  0  0  0  0  0
    8.7385  -13.2138   26.4952 C   0  0  0  0  0  0  0  0  0  0  0  0
    7.7383  -14.0770   26.1073 C   0  0  0  0  0  0  0  0  0  0  0  0
   10.8899  -17.1274   24.6346 O   0  0  0  0  0  0  0  0  0  0  0  0
   10.6463  -18.3576   24.7124 O   0  0  0  0  0  0  0  0  0  0  0  0
   14.6816  -15.8062   24.9589 C   0  0  0  0  0  0  0  0  0  0  0  0
   14.6106  -17.0229   24.2706 C   0  0  1  0  0  0  0  0  0  0  0  0
   13.3324  -17.7122   24.7537 N   0  0  0  0  0  0  0  0  0  0  0  0
   12.2598  -16.7483   24.6066 C   0  0  0  0  0  0  0  0  0  0  0  0
   13.4395  -18.1446   26.1458 O   0  0  0  0  0  0  0  0  0  0  0  0
   12.7034  -17.6399   27.0241 O   0  0  0  0  0  0  0  0  0  0  0  0
  1  2  1  0
  2  3  2  0
  4  5  1  0
  4  2  1  0
  6  5  1  0
  7  6  1  0
  8  9  1  1
  8  7  1  0
 10  8  1  0
 11 10  2  0
 12 10  1  0
 13 12  1  0
 13 24  1  0
 13 14  1  6
 15 14  1  0
 16 15  2  0
 17 16  1  0
 18 17  1  0
 18 23  2  0
 19 18  1  0
 20 19  2  0
 20 21  1  0
 21 22  2  0
 22 23  1  0
 23 15  1  0
 24 25  2  0
 27 26  1  0
 28 27  1  6
 29 24  1  0
 29 28  1  0
 30 28  1  0
 30 32  1  0
 31 30  2  0
M  END
$$$$
