RWS.pdb
     RDKit          3D

 32 33  0  0  1  0  0  0  0  0999 V2000
    7.1230  -12.7658   19.9762 N   0  0  0  0  0  0  0  0  0  0  0  0
    7.5963  -13.2557   18.7138 C   0  0  0  0  0  0  0  0  0  0  0  0
    6.6927  -13.3361   17.7819 N   0  0  0  0  0  0  0  0  0  0  0  0
    8.9442  -13.6258   18.4898 N   0  0  0  0  0  0  0  0  0  0  0  0
    9.7937  -13.9525   19.5981 C   0  0  0  0  0  0  0  0  0  0  0  0
    9.2684  -15.1430   20.4013 C   0  0  0  0  0  0  0  0  0  0  0  0
   10.3000  -15.4727   21.4287 C   0  0  0  0  0  0  0  0  0  0  0  0
    9.9691  -16.6949   22.2366 C   0  0  2  0  0  0  0  0  0  0  0  0
    8.5966  -17.0735   22.0719 N   0  0  0  0  0  0  0  0  0  0  0  0
   10.3624  -16.5661   23.6598 C   0  0  0  0  0  0  0  0  0  0  0  0
   11.4795  -16.0724   23.9532 O   0  0  0  0  0  0  0  0  0  0  0  0
    7.0019  -13.6085   16.8319 N   0  0  0  0  0  0  0  0  0  0  0  0
    9.4430  -17.0144   24.6446 C   0  0  1  0  0  0  0  0  0  0  0  0
    9.7771  -17.0360   26.0297 C   0  0  0  0  0  0  0  0  0  0  0  0
    8.9149  -16.1422   26.8781 C   0  0  0  0  0  0  0  0  0  0  0  0
    7.8540  -15.4525   26.1017 C   0  0  0  0  0  0  0  0  0  0  0  0
    6.8973  -16.0460   25.2846 N   0  0  0  0  0  0  0  0  0  0  0  0
    6.1589  -15.0410   24.7890 C   0  0  0  0  0  0  0  0  0  0  0  0
    6.6014  -13.8553   25.2511 C   0  0  0  0  0  0  0  0  0  0  0  0
    6.1968  -12.5438   25.0499 C   0  0  0  0  0  0  0  0  0  0  0  0
    6.8279  -11.4762   25.6517 C   0  0  0  0  0  0  0  0  0  0  0  0
    7.9104  -11.7330   26.4907 C   0  0  0  0  0  0  0  0  0  0  0  0
    8.3337  -13.0229   26.7087 C   0  0  0  0  0  0  0  0  0  0  0  0
    7.6782  -14.0637   26.0899 C   0  0  0  0  0  0  0  0  0  0  0  0
    9.7335  -18.4125   26.5857 O   0  0  0  0  0  0  0  0  0  0  0  0
    8.9028  -18.7111   27.4800 O   0  0  0  0  0  0  0  0  0  0  0  0
   14.0428  -19.2048   27.1716 C   0  0  0  0  0  0  0  0  0  0  0  0
   12.8749  -18.7947   26.5183 C   0  0  2  0  0  0  0  0  0  0  0  0
   11.7974  -19.8161   26.8898 N   0  0  0  0  0  0  0  0  0  0  0  0
   10.6049  -19.4487   26.1520 C   0  0  0  0  0  0  0  0  0  0  0  0
   11.5246  -19.8223   28.3257 O   0  0  0  0  0  0  0  0  0  0  0  0
   10.7416  -18.9824   28.8253 O   0  0  0  0  0  0  0  0  0  0  0  0
  1  2  1  0
  2  3  2  0
  4  5  1  0
  4  2  1  0
  6  5  1  0
  7  6  1  0
  8  9  1  1
  8  7  1  0
 10  8  1  0
 11 10  2  0
 12 10  1  0
 13 12  1  0
 13 24  1  0
 13 14  1  6
 15 14  1  0
 16 15  2  0
 17 16  1  0
 18 17  1  0
 18 23  2  0
 19 18  1  0
 20 19  2  0
 20 21  1  0
 21 22  2  0
 22 23  1  0
 23 15  1  0
 24 25  2  0
 27 26  1  0
 28 27  1  6
 29 24  1  0
 29 28  1  0
 30 28  1  0
 30 32  1  0
 31 30  2  0
M  END
$$$$
