RWS.pdb
     RDKit          3D

 32 33  0  0  1  0  0  0  0  0999 V2000
    8.6872  -14.1561   15.2155 N   0  0  0  0  0  0  0  0  0  0  0  0
    8.3076  -13.8516   16.5648 C   0  0  0  0  0  0  0  0  0  0  0  0
    7.4374  -12.8931   16.6879 N   0  0  0  0  0  0  0  0  0  0  0  0
    8.8351  -14.5382   17.6848 N   0  0  0  0  0  0  0  0  0  0  0  0
    8.0164  -15.4655   18.4106 C   0  0  0  0  0  0  0  0  0  0  0  0
    7.2158  -14.7865   19.5225 C   0  0  0  0  0  0  0  0  0  0  0  0
    8.1110  -14.6850   20.7129 C   0  0  0  0  0  0  0  0  0  0  0  0
    8.4775  -16.0181   21.2999 C   0  0  2  0  0  0  0  0  0  0  0  0
    7.3266  -16.8607   21.4402 N   0  0  0  0  0  0  0  0  0  0  0  0
    9.2575  -15.8980   22.5544 C   0  0  0  0  0  0  0  0  0  0  0  0
   10.2247  -15.0983   22.6102 O   0  0  0  0  0  0  0  0  0  0  0  0
    7.1459  -12.6256   17.6448 N   0  0  0  0  0  0  0  0  0  0  0  0
    8.8701  -16.7060   23.6557 C   0  0  1  0  0  0  0  0  0  0  0  0
    9.5310  -16.6257   24.9157 C   0  0  0  0  0  0  0  0  0  0  0  0
    8.5988  -16.4423   26.0816 C   0  0  0  0  0  0  0  0  0  0  0  0
    7.5228  -15.4551   25.8144 C   0  0  0  0  0  0  0  0  0  0  0  0
    6.2378  -15.7240   25.3544 N   0  0  0  0  0  0  0  0  0  0  0  0
    5.6228  -14.5351   25.2577 C   0  0  0  0  0  0  0  0  0  0  0  0
    6.4520  -13.5410   25.6314 C   0  0  0  0  0  0  0  0  0  0  0  0
    6.3110  -12.1635   25.7129 C   0  0  0  0  0  0  0  0  0  0  0  0
    7.3330  -11.3408   26.1360 C   0  0  0  0  0  0  0  0  0  0  0  0
    8.5479  -11.9226   26.4926 C   0  0  0  0  0  0  0  0  0  0  0  0
    8.7165  -13.2853   26.4219 C   0  0  0  0  0  0  0  0  0  0  0  0
    7.6726  -14.0749   25.9944 C   0  0  0  0  0  0  0  0  0  0  0  0
   10.3847  -17.8147   25.1669 O   0  0  0  0  0  0  0  0  0  0  0  0
    9.8727  -18.8947   25.5546 O   0  0  0  0  0  0  0  0  0  0  0  0
   14.3195  -17.6800   24.2658 C   0  0  0  0  0  0  0  0  0  0  0  0
   13.7237  -18.9413   24.1503 C   0  0  1  0  0  0  0  0  0  0  0  0
   12.6101  -18.9846   25.1993 N   0  0  0  0  0  0  0  0  0  0  0  0
   11.7951  -17.8045   24.9886 C   0  0  0  0  0  0  0  0  0  0  0  0
   13.1437  -18.9972   26.5600 O   0  0  0  0  0  0  0  0  0  0  0  0
   12.8677  -18.0718   27.3571 O   0  0  0  0  0  0  0  0  0  0  0  0
  1  2  1  0
  2  3  2  0
  4  5  1  0
  4  2  1  0
  6  5  1  0
  7  6  1  0
  8  9  1  1
  8  7  1  0
 10  8  1  0
 11 10  2  0
 12 10  1  0
 13 12  1  0
 13 24  1  0
 13 14  1  1
 15 14  1  0
 16 15  2  0
 17 16  1  0
 18 17  1  0
 18 23  2  0
 19 18  1  0
 20 19  2  0
 20 21  1  0
 21 22  2  0
 22 23  1  0
 23 15  1  0
 24 25  2  0
 27 26  1  0
 28 27  1  6
 29 24  1  0
 29 28  1  0
 30 28  1  0
 30 32  1  0
 31 30  2  0
M  END
$$$$
