AHV.pdb
     RDKit          3D

 23 23  0  0  1  0  0  0  0  0999 V2000
   14.6866   -9.3996  -14.5376 C   0  0  0  0  0  0  0  0  0  0  0  0
   15.4373   -9.6166  -15.8118 C   0  0  2  0  0  0  0  0  0  0  0  0
   15.1235  -10.8442  -16.4774 N   0  0  0  0  0  0  0  0  0  0  0  0
   16.9063   -9.4587  -15.5603 C   0  0  0  0  0  0  0  0  0  0  0  0
   17.3892  -10.1890  -14.6578 O   0  0  0  0  0  0  0  0  0  0  0  0
   17.6931   -8.5458  -16.2939 N   0  0  0  0  0  0  0  0  0  0  0  0
   19.1677   -8.5236  -16.2001 C   0  0  1  0  0  0  0  0  0  0  0  0
   19.7517   -8.7238  -17.5499 C   0  0  0  0  0  0  0  0  0  0  0  0
   19.6058  -10.0519  -18.1612 C   0  0  0  0  0  0  0  0  0  0  0  0
   18.6665  -10.4810  -19.1064 C   0  0  0  0  0  0  0  0  0  0  0  0
   18.8389  -11.7829  -19.3875 N   0  0  0  0  0  0  0  0  0  0  0  0
   19.8736  -12.2103  -18.6426 C   0  0  0  0  0  0  0  0  0  0  0  0
   20.3334  -11.1818  -17.9102 N   0  0  0  0  0  0  0  0  0  0  0  0
   19.5131   -7.2873  -15.4895 C   0  0  0  0  0  0  0  0  0  0  0  0
   18.7768   -6.2469  -15.6186 O   0  0  0  0  0  0  0  0  0  0  0  0
   19.6127   -6.3589  -11.9008 C   0  0  0  0  0  0  0  0  0  0  0  0
   20.9390   -5.9710  -12.4699 C   0  0  1  0  0  0  0  0  0  0  0  0
   21.9951   -6.8905  -11.9611 C   0  0  0  0  0  0  0  0  0  0  0  0
   20.9233   -5.8505  -13.9824 C   0  0  2  0  0  0  0  0  0  0  0  0
   20.6317   -7.1028  -14.6199 N   0  0  0  0  0  0  0  0  0  0  0  0
   22.1558   -5.1903  -14.4327 C   0  0  0  0  0  0  0  0  0  0  0  0
   22.4515   -3.8574  -14.2196 O   0  0  0  0  0  0  0  0  0  0  0  0
   23.0368   -5.8483  -15.0640 O   0  0  0  0  0  0  0  0  0  0  0  0
  2  1  1  1
  2  4  1  0
  3  2  1  0
  4  5  2  0
  4  6  1  0
  6  7  1  0
  7 14  1  0
  7  8  1  6
  9  8  1  0
 10  9  2  0
 11 10  1  0
 12 11  1  0
 12 13  2  0
 13  9  1  0
 14 20  1  0
 14 15  2  0
 17 18  1  6
 17 16  1  0
 19 21  1  0
 19 17  1  0
 19 20  1  6
 21 22  1  0
 23 21  2  0
M  END
$$$$
