AHV.pdb
     RDKit          3D

 23 23  0  0  1  0  0  0  0  0999 V2000
   22.6798  -16.1660  -16.3501 C   0  0  0  0  0  0  0  0  0  0  0  0
   24.1258  -16.1183  -16.7254 C   0  0  2  0  0  0  0  0  0  0  0  0
   24.3646  -15.8861  -18.1174 N   0  0  0  0  0  0  0  0  0  0  0  0
   24.8145  -17.3506  -16.2222 C   0  0  0  0  0  0  0  0  0  0  0  0
   24.1832  -18.4285  -16.3664 O   0  0  0  0  0  0  0  0  0  0  0  0
   26.0916  -17.2981  -15.6248 N   0  0  0  0  0  0  0  0  0  0  0  0
   26.8649  -18.5173  -15.3101 C   0  0  1  0  0  0  0  0  0  0  0  0
   28.2508  -18.3690  -15.8202 C   0  0  0  0  0  0  0  0  0  0  0  0
   28.4747  -18.6074  -17.2527 C   0  0  0  0  0  0  0  0  0  0  0  0
   27.5541  -19.0140  -18.2258 C   0  0  0  0  0  0  0  0  0  0  0  0
   28.1575  -19.1585  -19.4169 N   0  0  0  0  0  0  0  0  0  0  0  0
   29.4549  -18.8536  -19.2378 C   0  0  0  0  0  0  0  0  0  0  0  0
   29.6481  -18.5246  -17.9493 N   0  0  0  0  0  0  0  0  0  0  0  0
   26.6942  -18.7491  -13.8713 C   0  0  0  0  0  0  0  0  0  0  0  0
   26.9088  -17.7988  -13.0394 O   0  0  0  0  0  0  0  0  0  0  0  0
   24.9623  -21.1354   -9.9156 C   0  0  0  0  0  0  0  0  0  0  0  0
   25.0312  -20.9455  -11.3963 C   0  0  1  0  0  0  0  0  0  0  0  0
   23.7489  -20.3711  -11.8918 C   0  0  0  0  0  0  0  0  0  0  0  0
   26.2527  -20.1609  -11.8376 C   0  0  2  0  0  0  0  0  0  0  0  0
   26.2892  -19.9755  -13.2603 N   0  0  0  0  0  0  0  0  0  0  0  0
   27.4580  -20.7639  -11.2533 C   0  0  0  0  0  0  0  0  0  0  0  0
   27.8205  -20.6562   -9.9242 O   0  0  0  0  0  0  0  0  0  0  0  0
   28.2494  -21.4375  -11.9797 O   0  0  0  0  0  0  0  0  0  0  0  0
  2  1  1  6
  2  4  1  0
  3  2  1  0
  4  5  2  0
  4  6  1  0
  6  7  1  0
  7 14  1  0
  7  8  1  1
  9  8  1  0
 10  9  2  0
 11 10  1  0
 12 11  1  0
 12 13  2  0
 13  9  1  0
 14 20  1  0
 14 15  2  0
 17 18  1  1
 17 16  1  0
 19 21  1  0
 19 17  1  0
 19 20  1  6
 21 22  1  0
 23 21  2  0
M  END
$$$$
