AHV.pdb
     RDKit          3D

 23 23  0  0  1  0  0  0  0  0999 V2000
   15.7115  -12.2229  -14.8805 C   0  0  0  0  0  0  0  0  0  0  0  0
   15.8299  -11.8594  -16.3255 C   0  0  2  0  0  0  0  0  0  0  0  0
   15.5351  -12.9308  -17.2275 N   0  0  0  0  0  0  0  0  0  0  0  0
   17.1747  -11.2485  -16.5792 C   0  0  0  0  0  0  0  0  0  0  0  0
   18.1481  -11.8149  -16.0199 O   0  0  0  0  0  0  0  0  0  0  0  0
   17.3324  -10.1088  -17.3958 N   0  0  0  0  0  0  0  0  0  0  0  0
   18.6612   -9.5492  -17.7195 C   0  0  1  0  0  0  0  0  0  0  0  0
   18.5999   -8.8573  -19.0312 C   0  0  0  0  0  0  0  0  0  0  0  0
   19.8266   -8.2075  -19.5126 C   0  0  0  0  0  0  0  0  0  0  0  0
   21.0689   -8.1037  -18.8755 C   0  0  0  0  0  0  0  0  0  0  0  0
   21.9288   -7.3976  -19.6277 N   0  0  0  0  0  0  0  0  0  0  0  0
   21.2695   -7.0391  -20.7435 C   0  0  0  0  0  0  0  0  0  0  0  0
   20.0163   -7.5198  -20.6788 N   0  0  0  0  0  0  0  0  0  0  0  0
   19.0651   -8.7553  -16.5535 C   0  0  0  0  0  0  0  0  0  0  0  0
   18.2055   -8.0239  -15.9476 O   0  0  0  0  0  0  0  0  0  0  0  0
   20.1705   -9.7057  -13.1334 C   0  0  0  0  0  0  0  0  0  0  0  0
   21.2043   -8.7752  -13.6801 C   0  0  1  0  0  0  0  0  0  0  0  0
   22.4391   -9.5362  -14.0205 C   0  0  0  0  0  0  0  0  0  0  0  0
   20.6888   -7.9215  -14.8237 C   0  0  2  0  0  0  0  0  0  0  0  0
   20.3742   -8.7066  -15.9832 N   0  0  0  0  0  0  0  0  0  0  0  0
   21.6146   -6.8048  -15.0557 C   0  0  0  0  0  0  0  0  0  0  0  0
   21.7632   -5.7234  -14.2084 O   0  0  0  0  0  0  0  0  0  0  0  0
   22.3471   -6.7892  -16.0905 O   0  0  0  0  0  0  0  0  0  0  0  0
  2  1  1  1
  2  4  1  0
  3  2  1  0
  4  5  2  0
  4  6  1  0
  6  7  1  0
  7 14  1  0
  7  8  1  6
  9  8  1  0
 10  9  2  0
 11 10  1  0
 12 11  1  0
 12 13  2  0
 13  9  1  0
 14 20  1  0
 14 15  2  0
 17 18  1  6
 17 16  1  0
 19 21  1  0
 19 17  1  0
 19 20  1  6
 21 22  1  0
 23 21  2  0
M  END
$$$$
