AHV.pdb
     RDKit          3D

 23 23  0  0  1  0  0  0  0  0999 V2000
   21.9627   -9.1341  -20.2184 C   0  0  0  0  0  0  0  0  0  0  0  0
   21.4270  -10.1626  -19.2753 C   0  0  2  0  0  0  0  0  0  0  0  0
   20.6191  -11.1669  -19.8974 N   0  0  0  0  0  0  0  0  0  0  0  0
   20.7247   -9.4826  -18.1394 C   0  0  0  0  0  0  0  0  0  0  0  0
   19.7806   -8.7161  -18.4593 O   0  0  0  0  0  0  0  0  0  0  0  0
   21.1038   -9.6933  -16.7969 N   0  0  0  0  0  0  0  0  0  0  0  0
   20.4434   -8.9970  -15.6731 C   0  0  1  0  0  0  0  0  0  0  0  0
   19.9532   -9.9968  -14.6918 C   0  0  0  0  0  0  0  0  0  0  0  0
   18.6980  -10.6938  -15.0042 C   0  0  0  0  0  0  0  0  0  0  0  0
   17.8436  -10.5084  -16.0976 C   0  0  0  0  0  0  0  0  0  0  0  0
   16.7736  -11.3146  -16.0039 N   0  0  0  0  0  0  0  0  0  0  0  0
   16.9149  -12.0222  -14.8692 C   0  0  0  0  0  0  0  0  0  0  0  0
   18.0606  -11.6552  -14.2704 N   0  0  0  0  0  0  0  0  0  0  0  0
   21.4009   -7.9928  -15.1958 C   0  0  0  0  0  0  0  0  0  0  0  0
   22.6194   -8.3224  -14.9772 O   0  0  0  0  0  0  0  0  0  0  0  0
   22.8712   -5.0511  -16.7621 C   0  0  0  0  0  0  0  0  0  0  0  0
   22.3618   -4.5686  -15.4426 C   0  0  1  0  0  0  0  0  0  0  0  0
   21.1807   -3.6844  -15.6501 C   0  0  0  0  0  0  0  0  0  0  0  0
   22.1055   -5.6942  -14.4580 C   0  0  2  0  0  0  0  0  0  0  0  0
   21.1165   -6.6164  -14.9390 N   0  0  0  0  0  0  0  0  0  0  0  0
   21.8410   -5.1293  -13.1281 C   0  0  0  0  0  0  0  0  0  0  0  0
   22.7744   -4.4526  -12.3663 O   0  0  0  0  0  0  0  0  0  0  0  0
   20.6928   -5.2463  -12.6031 O   0  0  0  0  0  0  0  0  0  0  0  0
  2  1  1  6
  2  4  1  0
  3  2  1  0
  4  5  2  0
  4  6  1  0
  6  7  1  0
  7 14  1  0
  7  8  1  1
  9  8  1  0
 10  9  2  0
 11 10  1  0
 12 11  1  0
 12 13  2  0
 13  9  1  0
 14 20  1  0
 14 15  2  0
 17 18  1  6
 17 16  1  0
 19 21  1  0
 19 17  1  0
 19 20  1  6
 21 22  1  0
 23 21  2  0
M  END
$$$$
