AHV.pdb
     RDKit          3D

 23 23  0  0  1  0  0  0  0  0999 V2000
   15.8936  -11.1817  -15.6751 C   0  0  0  0  0  0  0  0  0  0  0  0
   16.2606   -9.7878  -16.0706 C   0  0  2  0  0  0  0  0  0  0  0  0
   15.9167   -9.4490  -17.4180 N   0  0  0  0  0  0  0  0  0  0  0  0
   17.7089   -9.5470  -15.7696 C   0  0  0  0  0  0  0  0  0  0  0  0
   18.0561   -9.7209  -14.5736 O   0  0  0  0  0  0  0  0  0  0  0  0
   18.6210   -9.1500  -16.7701 N   0  0  0  0  0  0  0  0  0  0  0  0
   20.0740   -9.0539  -16.5183 C   0  0  1  0  0  0  0  0  0  0  0  0
   20.8135   -9.6555  -17.6558 C   0  0  0  0  0  0  0  0  0  0  0  0
   20.9300  -11.1198  -17.6898 C   0  0  0  0  0  0  0  0  0  0  0  0
   20.5445  -12.0504  -16.7175 C   0  0  0  0  0  0  0  0  0  0  0  0
   20.8542  -13.2977  -17.1073 N   0  0  0  0  0  0  0  0  0  0  0  0
   21.4348  -13.1972  -18.3160 C   0  0  0  0  0  0  0  0  0  0  0  0
   21.4818  -11.9008  -18.6668 N   0  0  0  0  0  0  0  0  0  0  0  0
   20.3419   -7.6455  -16.2056 C   0  0  0  0  0  0  0  0  0  0  0  0
   19.8138   -6.7198  -16.9164 O   0  0  0  0  0  0  0  0  0  0  0  0
   21.6372   -6.2412  -12.4127 C   0  0  0  0  0  0  0  0  0  0  0  0
   20.9303   -5.4165  -13.4390 C   0  0  1  0  0  0  0  0  0  0  0  0
   21.0865   -3.9697  -13.1192 C   0  0  0  0  0  0  0  0  0  0  0  0
   21.3317   -5.7657  -14.8600 C   0  0  2  0  0  0  0  0  0  0  0  0
   21.1624   -7.1631  -15.1400 N   0  0  0  0  0  0  0  0  0  0  0  0
   22.6714   -5.2296  -15.1350 C   0  0  0  0  0  0  0  0  0  0  0  0
   22.9250   -3.9398  -15.5612 O   0  0  0  0  0  0  0  0  0  0  0  0
   23.6943   -5.9636  -14.9853 O   0  0  0  0  0  0  0  0  0  0  0  0
  2  1  1  6
  2  4  1  0
  3  2  1  0
  4  5  2  0
  4  6  1  0
  6  7  1  0
  7 14  1  0
  7  8  1  6
  9  8  1  0
 10  9  2  0
 11 10  1  0
 12 11  1  0
 12 13  2  0
 13  9  1  0
 14 20  1  0
 14 15  2  0
 17 18  1  1
 17 16  1  0
 19 21  1  0
 19 17  1  0
 19 20  1  1
 21 22  1  0
 23 21  2  0
M  END
$$$$
