AHV.pdb
     RDKit          3D

 23 23  0  0  1  0  0  0  0  0999 V2000
   27.2656  -19.1717  -17.4599 C   0  0  0  0  0  0  0  0  0  0  0  0
   25.8246  -19.2728  -17.8442 C   0  0  2  0  0  0  0  0  0  0  0  0
   25.4653  -18.4927  -18.9890 N   0  0  0  0  0  0  0  0  0  0  0  0
   24.9666  -18.9732  -16.6525 C   0  0  0  0  0  0  0  0  0  0  0  0
   25.1677  -17.8627  -16.0980 O   0  0  0  0  0  0  0  0  0  0  0  0
   23.9955  -19.8845  -16.1866 N   0  0  0  0  0  0  0  0  0  0  0  0
   23.1396  -19.5944  -15.0174 C   0  0  1  0  0  0  0  0  0  0  0  0
   21.7157  -19.5909  -15.4360 C   0  0  0  0  0  0  0  0  0  0  0  0
   21.2225  -18.4057  -16.1509 C   0  0  0  0  0  0  0  0  0  0  0  0
   21.8649  -17.1792  -16.3578 C   0  0  0  0  0  0  0  0  0  0  0  0
   21.0654  -16.3336  -17.0282 N   0  0  0  0  0  0  0  0  0  0  0  0
   19.9134  -16.9865  -17.2619 C   0  0  0  0  0  0  0  0  0  0  0  0
   20.0029  -18.2218  -16.7406 N   0  0  0  0  0  0  0  0  0  0  0  0
   23.5364  -20.5473  -13.9745 C   0  0  0  0  0  0  0  0  0  0  0  0
   23.5071  -21.8058  -14.2119 O   0  0  0  0  0  0  0  0  0  0  0  0
   26.4170  -21.3122  -11.4859 C   0  0  0  0  0  0  0  0  0  0  0  0
   25.1641  -21.0922  -10.7016 C   0  0  1  0  0  0  0  0  0  0  0  0
   25.2860  -19.8456   -9.8947 C   0  0  0  0  0  0  0  0  0  0  0  0
   23.9126  -21.1348  -11.5584 C   0  0  2  0  0  0  0  0  0  0  0  0
   23.9804  -20.2147  -12.6578 N   0  0  0  0  0  0  0  0  0  0  0  0
   22.7281  -20.9991  -10.7003 C   0  0  0  0  0  0  0  0  0  0  0  0
   21.8709  -19.9154  -10.7164 O   0  0  0  0  0  0  0  0  0  0  0  0
   22.4328  -21.9134   -9.8730 O   0  0  0  0  0  0  0  0  0  0  0  0
  2  1  1  1
  2  4  1  0
  3  2  1  0
  4  5  2  0
  4  6  1  0
  6  7  1  0
  7 14  1  0
  7  8  1  6
  9  8  1  0
 10  9  2  0
 11 10  1  0
 12 11  1  0
 12 13  2  0
 13  9  1  0
 14 20  1  0
 14 15  2  0
 17 18  1  6
 17 16  1  0
 19 21  1  0
 19 17  1  0
 19 20  1  6
 21 22  1  0
 23 21  2  0
M  END
$$$$
