AHV.pdb
     RDKit          3D

 23 23  0  0  1  0  0  0  0  0999 V2000
   22.1609  -12.2683  -19.8543 C   0  0  0  0  0  0  0  0  0  0  0  0
   22.9630  -11.3990  -18.9404 C   0  0  2  0  0  0  0  0  0  0  0  0
   23.8859  -12.1118  -18.1106 N   0  0  0  0  0  0  0  0  0  0  0  0
   22.0422  -10.5187  -18.1510 C   0  0  0  0  0  0  0  0  0  0  0  0
   21.2185   -9.8461  -18.8219 O   0  0  0  0  0  0  0  0  0  0  0  0
   22.1008  -10.4531  -16.7429 N   0  0  0  0  0  0  0  0  0  0  0  0
   21.1642   -9.6269  -15.9530 C   0  0  1  0  0  0  0  0  0  0  0  0
   20.4516  -10.4861  -14.9748 C   0  0  0  0  0  0  0  0  0  0  0  0
   19.1911  -11.1044  -15.4080 C   0  0  0  0  0  0  0  0  0  0  0  0
   18.5154  -10.9524  -16.6246 C   0  0  0  0  0  0  0  0  0  0  0  0
   17.3718  -11.6565  -16.6219 N   0  0  0  0  0  0  0  0  0  0  0  0
   17.2896  -12.2648  -15.4254 C   0  0  0  0  0  0  0  0  0  0  0  0
   18.3720  -11.9383  -14.6990 N   0  0  0  0  0  0  0  0  0  0  0  0
   21.9530   -8.5087  -15.4235 C   0  0  0  0  0  0  0  0  0  0  0  0
   23.0529   -8.7356  -14.8073 O   0  0  0  0  0  0  0  0  0  0  0  0
   23.7203   -5.8002  -17.1693 C   0  0  0  0  0  0  0  0  0  0  0  0
   22.9185   -5.1276  -16.1025 C   0  0  1  0  0  0  0  0  0  0  0  0
   21.8023   -4.3576  -16.7198 C   0  0  0  0  0  0  0  0  0  0  0  0
   22.4625   -6.0805  -15.0133 C   0  0  2  0  0  0  0  0  0  0  0  0
   21.6204   -7.1230  -15.5271 N   0  0  0  0  0  0  0  0  0  0  0  0
   21.8969   -5.3115  -13.8968 C   0  0  0  0  0  0  0  0  0  0  0  0
   22.6408   -4.5500  -13.0157 O   0  0  0  0  0  0  0  0  0  0  0  0
   20.6463   -5.3171  -13.6884 O   0  0  0  0  0  0  0  0  0  0  0  0
  2  1  1  1
  2  4  1  0
  3  2  1  0
  4  5  2  0
  4  6  1  0
  6  7  1  0
  7 14  1  0
  7  8  1  1
  9  8  1  0
 10  9  2  0
 11 10  1  0
 12 11  1  0
 12 13  2  0
 13  9  1  0
 14 20  1  0
 14 15  2  0
 17 18  1  6
 17 16  1  0
 19 21  1  0
 19 17  1  0
 19 20  1  6
 21 22  1  0
 23 21  2  0
M  END
$$$$
