AHV.pdb
     RDKit          3D

 23 23  0  0  1  0  0  0  0  0999 V2000
   19.2343  -15.7763  -16.0839 C   0  0  0  0  0  0  0  0  0  0  0  0
   18.9936  -15.2968  -17.4790 C   0  0  2  0  0  0  0  0  0  0  0  0
   19.5558  -16.1348  -18.4940 N   0  0  0  0  0  0  0  0  0  0  0  0
   19.4363  -13.8703  -17.6014 C   0  0  0  0  0  0  0  0  0  0  0  0
   20.6608  -13.6942  -17.8271 O   0  0  0  0  0  0  0  0  0  0  0  0
   18.5310  -12.7962  -17.4706 N   0  0  0  0  0  0  0  0  0  0  0  0
   18.9510  -11.3882  -17.6282 C   0  0  1  0  0  0  0  0  0  0  0  0
   17.7806  -10.5644  -18.0211 C   0  0  0  0  0  0  0  0  0  0  0  0
   17.9888   -9.1172  -18.1671 C   0  0  0  0  0  0  0  0  0  0  0  0
   19.1575   -8.3762  -17.9549 C   0  0  0  0  0  0  0  0  0  0  0  0
   18.9315   -7.0680  -18.1575 N   0  0  0  0  0  0  0  0  0  0  0  0
   17.6366   -6.9427  -18.4979 C   0  0  0  0  0  0  0  0  0  0  0  0
   17.0713   -8.1617  -18.5048 N   0  0  0  0  0  0  0  0  0  0  0  0
   19.6465  -11.0282  -16.3874 C   0  0  0  0  0  0  0  0  0  0  0  0
   19.1739  -11.4011  -15.2567 O   0  0  0  0  0  0  0  0  0  0  0  0
   23.8107   -9.8163  -15.9658 C   0  0  0  0  0  0  0  0  0  0  0  0
   22.9097  -10.4720  -14.9701 C   0  0  1  0  0  0  0  0  0  0  0  0
   23.5077  -10.3771  -13.6088 C   0  0  0  0  0  0  0  0  0  0  0  0
   21.4816   -9.9636  -15.0371 C   0  0  2  0  0  0  0  0  0  0  0  0
   20.8569  -10.2750  -16.2911 N   0  0  0  0  0  0  0  0  0  0  0  0
   21.4495   -8.5452  -14.6564 C   0  0  0  0  0  0  0  0  0  0  0  0
   21.3857   -8.0864  -13.3545 O   0  0  0  0  0  0  0  0  0  0  0  0
   21.4804   -7.6453  -15.5490 O   0  0  0  0  0  0  0  0  0  0  0  0
  2  1  1  1
  2  4  1  0
  3  2  1  0
  4  5  2  0
  4  6  1  0
  6  7  1  0
  7 14  1  0
  7  8  1  1
  9  8  1  0
 10  9  2  0
 11 10  1  0
 12 11  1  0
 12 13  2  0
 13  9  1  0
 14 20  1  0
 14 15  2  0
 17 18  1  1
 17 16  1  0
 19 21  1  0
 19 17  1  0
 19 20  1  6
 21 22  1  0
 23 21  2  0
M  END
$$$$
