HPA.pdb
     RDKit          3D

 23 24  0  0  1  0  0  0  0  0999 V2000
    7.9993  -14.9918   21.3134 N   0  0  0  0  0  0  0  0  0  0  0  0
    7.4491  -15.0553   22.6193 C   0  0  1  0  0  0  0  0  0  0  0  0
    6.9809  -16.4833   22.8338 C   0  0  0  0  0  0  0  0  0  0  0  0
    5.9870  -16.8903   21.8151 C   0  0  0  0  0  0  0  0  0  0  0  0
    4.6066  -16.8241   21.8697 C   0  0  0  0  0  0  0  0  0  0  0  0
    4.0753  -17.2971   20.7314 N   0  0  0  0  0  0  0  0  0  0  0  0
    5.1013  -17.6654   19.9486 C   0  0  0  0  0  0  0  0  0  0  0  0
    6.2453  -17.4184   20.6054 N   0  0  0  0  0  0  0  0  0  0  0  0
    8.3238  -14.6436   23.7323 C   0  0  0  0  0  0  0  0  0  0  0  0
    9.5864  -14.6676   23.4000 O   0  0  0  0  0  0  0  0  0  0  0  0
    7.9485  -14.2571   25.0213 N   0  0  0  0  0  0  0  0  0  0  0  0
    6.6670  -14.0956   25.5948 C   0  0  0  0  0  0  0  0  0  0  0  0
    6.7944  -12.6726   26.1361 C   0  0  0  0  0  0  0  0  0  0  0  0
    8.1895  -12.7102   26.6801 C   0  0  0  0  0  0  0  0  0  0  0  0
    8.8665  -13.9254   26.0872 C   0  0  1  0  0  0  0  0  0  0  0  0
    9.0115  -15.0384   27.0626 C   0  0  0  0  0  0  0  0  0  0  0  0
    7.9828  -15.6363   27.4503 O   0  0  0  0  0  0  0  0  0  0  0  0
   11.9315  -17.2346   27.5759 C   0  0  0  0  0  0  0  0  0  0  0  0
   10.5416  -16.7825   28.0427 C   0  0  2  0  0  0  0  0  0  0  0  0
   10.2603  -15.4604   27.5795 N   0  0  0  0  0  0  0  0  0  0  0  0
   10.5701  -16.8000   29.5234 C   0  0  0  0  0  0  0  0  0  0  0  0
   10.7738  -17.9609   30.2455 O   0  0  0  0  0  0  0  0  0  0  0  0
   10.4044  -15.7288   30.1397 O   0  0  0  0  0  0  0  0  0  0  0  0
  2  9  1  0
  2  1  1  6
  3  2  1  0
  4  3  1  0
  5  4  2  0
  6  5  1  0
  7  6  1  0
  7  8  2  0
  8  4  1  0
  9 10  2  0
 11  9  1  0
 11 15  1  0
 12 11  1  0
 12 13  1  0
 13 14  1  0
 15 14  1  0
 16 17  2  0
 15 16  1  1
 19 18  1  6
 19 20  1  0
 20 16  1  0
 21 22  1  0
 21 19  1  0
 23 21  2  0
M  END
$$$$
