HPA.pdb
     RDKit          3D

 23 24  0  0  1  0  0  0  0  0999 V2000
   10.1870  -15.7782   15.5817 N   0  0  0  0  0  0  0  0  0  0  0  0
    9.2267  -15.6422   16.6169 C   0  0  1  0  0  0  0  0  0  0  0  0
    8.6047  -17.0110   16.8265 C   0  0  0  0  0  0  0  0  0  0  0  0
    7.9892  -17.5268   15.5830 C   0  0  0  0  0  0  0  0  0  0  0  0
    7.0374  -16.9357   14.7721 C   0  0  0  0  0  0  0  0  0  0  0  0
    6.7474  -17.7399   13.7372 N   0  0  0  0  0  0  0  0  0  0  0  0
    7.5037  -18.8397   13.8773 C   0  0  0  0  0  0  0  0  0  0  0  0
    8.2462  -18.7048   14.9870 N   0  0  0  0  0  0  0  0  0  0  0  0
    9.7055  -15.1082   17.9049 C   0  0  0  0  0  0  0  0  0  0  0  0
   11.0076  -15.1385   17.9961 O   0  0  0  0  0  0  0  0  0  0  0  0
    8.9431  -14.6075   18.9631 N   0  0  0  0  0  0  0  0  0  0  0  0
    7.5425  -14.4894   19.1103 C   0  0  0  0  0  0  0  0  0  0  0  0
    7.4356  -13.0074   19.4659 C   0  0  0  0  0  0  0  0  0  0  0  0
    8.6033  -12.8632   20.3929 C   0  0  0  0  0  0  0  0  0  0  0  0
    9.4824  -14.0774   20.1947 C   0  0  1  0  0  0  0  0  0  0  0  0
    9.3792  -15.0530   21.3122 C   0  0  0  0  0  0  0  0  0  0  0  0
    8.3601  -15.7753   21.3880 O   0  0  0  0  0  0  0  0  0  0  0  0
   12.0739  -16.6083   23.3567 C   0  0  0  0  0  0  0  0  0  0  0  0
   10.5813  -16.3959   23.0717 C   0  0  2  0  0  0  0  0  0  0  0  0
   10.3797  -15.2091   22.3018 N   0  0  0  0  0  0  0  0  0  0  0  0
    9.9180  -16.2585   24.3887 C   0  0  0  0  0  0  0  0  0  0  0  0
    9.9381  -17.2653   25.3356 O   0  0  0  0  0  0  0  0  0  0  0  0
    9.3204  -15.1962   24.6520 O   0  0  0  0  0  0  0  0  0  0  0  0
  2  9  1  0
  2  1  1  6
  3  2  1  0
  4  3  1  0
  5  4  2  0
  6  5  1  0
  7  6  1  0
  7  8  2  0
  8  4  1  0
  9 10  2  0
 11  9  1  0
 11 15  1  0
 12 11  1  0
 12 13  1  0
 13 14  1  0
 15 14  1  0
 16 17  2  0
 15 16  1  1
 19 18  1  1
 19 20  1  0
 20 16  1  0
 21 22  1  0
 21 19  1  0
 23 21  2  0
M  END
$$$$
