HPA.pdb
     RDKit          3D

 23 24  0  0  1  0  0  0  0  0999 V2000
    9.2714  -18.0716   18.1208 N   0  0  0  0  0  0  0  0  0  0  0  0
    8.4310  -17.4639   19.0887 C   0  0  1  0  0  0  0  0  0  0  0  0
    7.5128  -18.5488   19.6219 C   0  0  0  0  0  0  0  0  0  0  0  0
    6.6360  -19.0919   18.5601 C   0  0  0  0  0  0  0  0  0  0  0  0
    6.0508  -18.4349   17.4930 C   0  0  0  0  0  0  0  0  0  0  0  0
    5.3263  -19.2955   16.7608 N   0  0  0  0  0  0  0  0  0  0  0  0
    5.4416  -20.4967   17.3482 C   0  0  0  0  0  0  0  0  0  0  0  0
    6.2290  -20.3669   18.4272 N   0  0  0  0  0  0  0  0  0  0  0  0
    9.0951  -16.7752   20.2104 C   0  0  0  0  0  0  0  0  0  0  0  0
   10.3863  -16.9690   20.2110 O   0  0  0  0  0  0  0  0  0  0  0  0
    8.5068  -15.9884   21.2037 N   0  0  0  0  0  0  0  0  0  0  0  0
    7.1494  -15.6780   21.4453 C   0  0  0  0  0  0  0  0  0  0  0  0
    7.2288  -14.1530   21.4923 C   0  0  0  0  0  0  0  0  0  0  0  0
    8.4999  -13.9684   22.2629 C   0  0  0  0  0  0  0  0  0  0  0  0
    9.2280  -15.2936   22.2458 C   0  0  1  0  0  0  0  0  0  0  0  0
    9.1529  -16.0100   23.5466 C   0  0  0  0  0  0  0  0  0  0  0  0
    8.0579  -16.5020   23.9001 O   0  0  0  0  0  0  0  0  0  0  0  0
   11.8030  -17.8849   25.1952 C   0  0  0  0  0  0  0  0  0  0  0  0
   10.4197  -17.2381   25.3441 C   0  0  2  0  0  0  0  0  0  0  0  0
   10.2622  -16.1662   24.4125 N   0  0  0  0  0  0  0  0  0  0  0  0
   10.3479  -16.7150   26.7278 C   0  0  0  0  0  0  0  0  0  0  0  0
   10.3648  -17.5440   27.8338 O   0  0  0  0  0  0  0  0  0  0  0  0
   10.2694  -15.4826   26.9004 O   0  0  0  0  0  0  0  0  0  0  0  0
  2  9  1  0
  2  1  1  6
  3  2  1  0
  4  3  1  0
  5  4  2  0
  6  5  1  0
  7  6  1  0
  7  8  2  0
  8  4  1  0
  9 10  2  0
 11  9  1  0
 11 15  1  0
 12 11  1  0
 12 13  1  0
 13 14  1  0
 15 14  1  0
 16 17  2  0
 15 16  1  1
 19 18  1  6
 19 20  1  0
 20 16  1  0
 21 22  1  0
 21 19  1  0
 23 21  2  0
M  END
$$$$
