HPA.pdb
     RDKit          3D

 23 24  0  0  1  0  0  0  0  0999 V2000
    8.2546  -13.7198   20.8352 N   0  0  0  0  0  0  0  0  0  0  0  0
    7.6533  -14.4489   21.8931 C   0  0  1  0  0  0  0  0  0  0  0  0
    7.3834  -15.8479   21.3693 C   0  0  0  0  0  0  0  0  0  0  0  0
    6.8384  -16.7302   22.4256 C   0  0  0  0  0  0  0  0  0  0  0  0
    7.4648  -17.2278   23.5538 C   0  0  0  0  0  0  0  0  0  0  0  0
    6.6144  -17.9938   24.2552 N   0  0  0  0  0  0  0  0  0  0  0  0
    5.4501  -17.9916   23.5877 C   0  0  0  0  0  0  0  0  0  0  0  0
    5.5920  -17.2314   22.4908 N   0  0  0  0  0  0  0  0  0  0  0  0
    8.4023  -14.5256   23.1605 C   0  0  0  0  0  0  0  0  0  0  0  0
    9.6822  -14.6952   22.9655 O   0  0  0  0  0  0  0  0  0  0  0  0
    7.8998  -14.4390   24.4611 N   0  0  0  0  0  0  0  0  0  0  0  0
    6.5698  -14.4874   24.9367 C   0  0  0  0  0  0  0  0  0  0  0  0
    6.5338  -13.2008   25.7596 C   0  0  0  0  0  0  0  0  0  0  0  0
    7.8823  -13.2532   26.4095 C   0  0  0  0  0  0  0  0  0  0  0  0
    8.7035  -14.2711   25.6506 C   0  0  1  0  0  0  0  0  0  0  0  0
    8.8701  -15.5481   26.3939 C   0  0  0  0  0  0  0  0  0  0  0  0
    7.8703  -16.2821   26.5602 O   0  0  0  0  0  0  0  0  0  0  0  0
   11.8533  -17.6709   26.7294 C   0  0  0  0  0  0  0  0  0  0  0  0
   10.4363  -17.3409   27.2167 C   0  0  2  0  0  0  0  0  0  0  0  0
   10.1083  -15.9806   26.9272 N   0  0  0  0  0  0  0  0  0  0  0  0
   10.4357  -17.5563   28.6820 C   0  0  0  0  0  0  0  0  0  0  0  0
   10.1774  -16.5371   29.5793 O   0  0  0  0  0  0  0  0  0  0  0  0
   10.6770  -18.6982   29.1210 O   0  0  0  0  0  0  0  0  0  0  0  0
  2  9  1  0
  2  1  1  6
  3  2  1  0
  4  3  1  0
  5  4  2  0
  6  5  1  0
  7  6  1  0
  7  8  2  0
  8  4  1  0
  9 10  2  0
 11  9  1  0
 11 15  1  0
 12 11  1  0
 12 13  1  0
 13 14  1  0
 15 14  1  0
 16 17  2  0
 15 16  1  1
 19 18  1  1
 19 20  1  0
 20 16  1  0
 21 22  1  0
 21 19  1  0
 23 21  2  0
M  END
$$$$
