HPA.pdb
     RDKit          3D

 23 24  0  0  1  0  0  0  0  0999 V2000
   10.4228  -14.5681   21.9522 N   0  0  0  0  0  0  0  0  0  0  0  0
    9.6275  -14.2565   23.0847 C   0  0  1  0  0  0  0  0  0  0  0  0
    8.1998  -14.6433   22.7433 C   0  0  0  0  0  0  0  0  0  0  0  0
    7.7753  -14.0720   21.4454 C   0  0  0  0  0  0  0  0  0  0  0  0
    7.9177  -12.7794   20.9744 C   0  0  0  0  0  0  0  0  0  0  0  0
    7.3948  -12.6756   19.7425 N   0  0  0  0  0  0  0  0  0  0  0  0
    6.9192  -13.8885   19.4200 C   0  0  0  0  0  0  0  0  0  0  0  0
    7.1510  -14.7213   20.4465 N   0  0  0  0  0  0  0  0  0  0  0  0
   10.0198  -14.8728   24.3652 C   0  0  0  0  0  0  0  0  0  0  0  0
   11.0203  -15.7003   24.2263 O   0  0  0  0  0  0  0  0  0  0  0  0
    9.4556  -14.6650   25.6262 N   0  0  0  0  0  0  0  0  0  0  0  0
    8.1812  -14.1764   25.9928 C   0  0  0  0  0  0  0  0  0  0  0  0
    8.5898  -13.0507   26.9414 C   0  0  0  0  0  0  0  0  0  0  0  0
    9.7126  -13.7102   27.6817 C   0  0  0  0  0  0  0  0  0  0  0  0
   10.1173  -14.9292   26.8837 C   0  0  1  0  0  0  0  0  0  0  0  0
    9.6545  -16.2013   27.4990 C   0  0  0  0  0  0  0  0  0  0  0  0
    8.4339  -16.4751   27.4685 O   0  0  0  0  0  0  0  0  0  0  0  0
   11.0627  -19.4662   27.7024 C   0  0  0  0  0  0  0  0  0  0  0  0
   10.1787  -18.4686   28.4625 C   0  0  2  0  0  0  0  0  0  0  0  0
   10.5277  -17.1256   28.1220 N   0  0  0  0  0  0  0  0  0  0  0  0
   10.4270  -18.7016   29.9039 C   0  0  0  0  0  0  0  0  0  0  0  0
   10.0092  -19.8498   30.5502 O   0  0  0  0  0  0  0  0  0  0  0  0
   11.0346  -17.8303   30.5569 O   0  0  0  0  0  0  0  0  0  0  0  0
  2  9  1  0
  2  1  1  6
  3  2  1  0
  4  3  1  0
  5  4  2  0
  6  5  1  0
  7  6  1  0
  7  8  2  0
  8  4  1  0
  9 10  2  0
 11  9  1  0
 11 15  1  0
 12 11  1  0
 12 13  1  0
 13 14  1  0
 15 14  1  0
 16 17  2  0
 15 16  1  1
 19 18  1  6
 19 20  1  0
 20 16  1  0
 21 22  1  0
 21 19  1  0
 23 21  2  0
M  END
$$$$
