HPA.pdb
     RDKit          3D

 23 24  0  0  1  0  0  0  0  0999 V2000
    9.8871  -14.1538   20.9799 N   0  0  0  0  0  0  0  0  0  0  0  0
    8.8250  -14.0594   21.9155 C   0  0  1  0  0  0  0  0  0  0  0  0
    7.6283  -14.7615   21.2995 C   0  0  0  0  0  0  0  0  0  0  0  0
    7.3902  -14.3147   19.9084 C   0  0  0  0  0  0  0  0  0  0  0  0
    7.4496  -13.0373   19.3817 C   0  0  0  0  0  0  0  0  0  0  0  0
    7.1645  -13.0639   18.0703 N   0  0  0  0  0  0  0  0  0  0  0  0
    6.9231  -14.3452   17.7521 C   0  0  0  0  0  0  0  0  0  0  0  0
    7.0604  -15.0900   18.8601 N   0  0  0  0  0  0  0  0  0  0  0  0
    9.0768  -14.5931   23.2665 C   0  0  0  0  0  0  0  0  0  0  0  0
   10.2568  -15.1432   23.3656 O   0  0  0  0  0  0  0  0  0  0  0  0
    8.2245  -14.5649   24.3731 N   0  0  0  0  0  0  0  0  0  0  0  0
    6.8245  -14.3882   24.4495 C   0  0  0  0  0  0  0  0  0  0  0  0
    6.7551  -13.2366   25.4509 C   0  0  0  0  0  0  0  0  0  0  0  0
    7.8137  -13.6555   26.4242 C   0  0  0  0  0  0  0  0  0  0  0  0
    8.6450  -14.7218   25.7469 C   0  0  1  0  0  0  0  0  0  0  0  0
    8.3624  -16.0877   26.2624 C   0  0  0  0  0  0  0  0  0  0  0  0
    7.1957  -16.5325   26.1792 O   0  0  0  0  0  0  0  0  0  0  0  0
   10.1622  -19.1992   26.5745 C   0  0  0  0  0  0  0  0  0  0  0  0
    9.1388  -18.2731   27.2447 C   0  0  2  0  0  0  0  0  0  0  0  0
    9.3501  -16.9173   26.8462 N   0  0  0  0  0  0  0  0  0  0  0  0
    9.3466  -18.4052   28.7051 C   0  0  0  0  0  0  0  0  0  0  0  0
    9.7913  -17.3555   29.4868 O   0  0  0  0  0  0  0  0  0  0  0  0
    9.1118  -19.5029   29.2480 O   0  0  0  0  0  0  0  0  0  0  0  0
  2  9  1  0
  2  1  1  6
  3  2  1  0
  4  3  1  0
  5  4  2  0
  6  5  1  0
  7  6  1  0
  7  8  2  0
  8  4  1  0
  9 10  2  0
 11  9  1  0
 11 15  1  0
 12 11  1  0
 12 13  1  0
 13 14  1  0
 15 14  1  0
 16 17  2  0
 15 16  1  1
 19 18  1  6
 19 20  1  0
 20 16  1  0
 21 22  1  0
 21 19  1  0
 23 21  2  0
M  END
$$$$
