HPA.pdb
     RDKit          3D

 23 24  0  0  1  0  0  0  0  0999 V2000
    7.8745  -17.3085   16.5918 N   0  0  0  0  0  0  0  0  0  0  0  0
    7.3515  -16.9963   17.8729 C   0  0  1  0  0  0  0  0  0  0  0  0
    6.7113  -18.2634   18.4107 C   0  0  0  0  0  0  0  0  0  0  0  0
    6.0059  -18.0181   19.6888 C   0  0  0  0  0  0  0  0  0  0  0  0
    6.4949  -18.0872   20.9807 C   0  0  0  0  0  0  0  0  0  0  0  0
    5.5243  -17.7907   21.8592 N   0  0  0  0  0  0  0  0  0  0  0  0
    4.4190  -17.5326   21.1430 C   0  0  0  0  0  0  0  0  0  0  0  0
    4.7155  -17.6710   19.8414 N   0  0  0  0  0  0  0  0  0  0  0  0
    8.2971  -16.4540   18.8654 C   0  0  0  0  0  0  0  0  0  0  0  0
    9.4973  -16.9477   18.7216 O   0  0  0  0  0  0  0  0  0  0  0  0
    8.0413  -15.5238   19.8757 N   0  0  0  0  0  0  0  0  0  0  0  0
    6.8251  -14.9470   20.3063 C   0  0  0  0  0  0  0  0  0  0  0  0
    7.1876  -13.4654   20.2214 C   0  0  0  0  0  0  0  0  0  0  0  0
    8.5842  -13.4935   20.7622 C   0  0  0  0  0  0  0  0  0  0  0  0
    9.0449  -14.9334   20.7319 C   0  0  1  0  0  0  0  0  0  0  0  0
    9.0651  -15.5612   22.0797 C   0  0  0  0  0  0  0  0  0  0  0  0
    7.9762  -15.8396   22.6300 O   0  0  0  0  0  0  0  0  0  0  0  0
   11.7686  -17.4236   23.8856 C   0  0  0  0  0  0  0  0  0  0  0  0
   10.3606  -16.8158   23.8380 C   0  0  2  0  0  0  0  0  0  0  0  0
   10.2591  -15.8627   22.7784 N   0  0  0  0  0  0  0  0  0  0  0  0
   10.1500  -16.1427   25.1403 C   0  0  0  0  0  0  0  0  0  0  0  0
    9.9826  -14.7747   25.2473 O   0  0  0  0  0  0  0  0  0  0  0  0
   10.1229  -16.8354   26.1767 O   0  0  0  0  0  0  0  0  0  0  0  0
  2  9  1  0
  2  1  1  6
  3  2  1  0
  4  3  1  0
  5  4  2  0
  6  5  1  0
  7  6  1  0
  7  8  2  0
  8  4  1  0
  9 10  2  0
 11  9  1  0
 11 15  1  0
 12 11  1  0
 12 13  1  0
 13 14  1  0
 15 14  1  0
 16 17  2  0
 15 16  1  1
 19 18  1  1
 19 20  1  0
 20 16  1  0
 21 22  1  0
 21 19  1  0
 23 21  2  0
M  END
$$$$
