HPA.pdb
     RDKit          3D

 23 24  0  0  1  0  0  0  0  0999 V2000
    8.7256  -17.0282   17.6540 N   0  0  0  0  0  0  0  0  0  0  0  0
    8.1108  -16.4087   18.7722 C   0  0  1  0  0  0  0  0  0  0  0  0
    6.9446  -17.2902   19.1812 C   0  0  0  0  0  0  0  0  0  0  0  0
    7.3488  -18.7093   19.3001 C   0  0  0  0  0  0  0  0  0  0  0  0
    8.4506  -19.3491   18.7620 C   0  0  0  0  0  0  0  0  0  0  0  0
    8.4482  -20.6456   19.1095 N   0  0  0  0  0  0  0  0  0  0  0  0
    7.3562  -20.8424   19.8645 C   0  0  0  0  0  0  0  0  0  0  0  0
    6.7013  -19.6761   19.9746 N   0  0  0  0  0  0  0  0  0  0  0  0
    8.9682  -16.1400   19.9409 C   0  0  0  0  0  0  0  0  0  0  0  0
   10.2215  -16.4210   19.7061 O   0  0  0  0  0  0  0  0  0  0  0  0
    8.5859  -15.6459   21.1905 N   0  0  0  0  0  0  0  0  0  0  0  0
    7.3015  -15.4479   21.7457 C   0  0  0  0  0  0  0  0  0  0  0  0
    7.4132  -13.9818   22.1604 C   0  0  0  0  0  0  0  0  0  0  0  0
    8.8073  -13.9572   22.7077 C   0  0  0  0  0  0  0  0  0  0  0  0
    9.4979  -15.2127   22.2246 C   0  0  1  0  0  0  0  0  0  0  0  0
    9.6518  -16.2344   23.2940 C   0  0  0  0  0  0  0  0  0  0  0  0
    8.6534  -16.9110   23.6277 O   0  0  0  0  0  0  0  0  0  0  0  0
   12.6310  -18.1092   24.4294 C   0  0  0  0  0  0  0  0  0  0  0  0
   11.1793  -17.6803   24.6797 C   0  0  2  0  0  0  0  0  0  0  0  0
   10.8765  -16.4841   23.9593 N   0  0  0  0  0  0  0  0  0  0  0  0
   11.0597  -17.4336   26.1351 C   0  0  0  0  0  0  0  0  0  0  0  0
   11.2716  -18.4262   27.0734 O   0  0  0  0  0  0  0  0  0  0  0  0
   10.7569  -16.2893   26.5271 O   0  0  0  0  0  0  0  0  0  0  0  0
  2  9  1  0
  2  1  1  6
  3  2  1  0
  4  3  1  0
  5  4  2  0
  6  5  1  0
  7  6  1  0
  7  8  2  0
  8  4  1  0
  9 10  2  0
 11  9  1  0
 11 15  1  0
 12 11  1  0
 12 13  1  0
 13 14  1  0
 15 14  1  0
 16 17  2  0
 15 16  1  1
 19 18  1  1
 19 20  1  0
 20 16  1  0
 21 22  1  0
 21 19  1  0
 23 21  2  0
M  END
$$$$
