HPA.pdb
     RDKit          3D

 23 24  0  0  1  0  0  0  0  0999 V2000
    9.7101  -14.0340   21.2088 N   0  0  0  0  0  0  0  0  0  0  0  0
    8.7362  -13.7483   22.1998 C   0  0  1  0  0  0  0  0  0  0  0  0
    7.4643  -14.4694   21.7917 C   0  0  0  0  0  0  0  0  0  0  0  0
    7.1742  -14.2909   20.3511 C   0  0  0  0  0  0  0  0  0  0  0  0
    6.8058  -13.1435   19.6725 C   0  0  0  0  0  0  0  0  0  0  0  0
    6.6366  -13.4116   18.3681 N   0  0  0  0  0  0  0  0  0  0  0  0
    6.8928  -14.7189   18.2049 C   0  0  0  0  0  0  0  0  0  0  0  0
    7.2147  -15.2400   19.3990 N   0  0  0  0  0  0  0  0  0  0  0  0
    9.0805  -14.0911   23.5917 C   0  0  0  0  0  0  0  0  0  0  0  0
   10.2667  -14.6286   23.6865 O   0  0  0  0  0  0  0  0  0  0  0  0
    8.3047  -13.9051   24.7385 N   0  0  0  0  0  0  0  0  0  0  0  0
    6.9076  -14.0033   24.9278 C   0  0  0  0  0  0  0  0  0  0  0  0
    6.6284  -12.6430   25.5645 C   0  0  0  0  0  0  0  0  0  0  0  0
    7.8052  -12.5237   26.4835 C   0  0  0  0  0  0  0  0  0  0  0  0
    8.8223  -13.5513   26.0407 C   0  0  1  0  0  0  0  0  0  0  0  0
    8.8894  -14.7258   26.9503 C   0  0  0  0  0  0  0  0  0  0  0  0
    7.8228  -15.2849   27.2904 O   0  0  0  0  0  0  0  0  0  0  0  0
    9.8179  -14.3799   29.7147 C   0  0  0  0  0  0  0  0  0  0  0  0
   10.3620  -15.5137   28.8357 C   0  0  2  0  0  0  0  0  0  0  0  0
   10.1044  -15.2485   27.4555 N   0  0  0  0  0  0  0  0  0  0  0  0
    9.6513  -16.7448   29.2513 C   0  0  0  0  0  0  0  0  0  0  0  0
    9.8167  -17.3074   30.5030 O   0  0  0  0  0  0  0  0  0  0  0  0
    8.8762  -17.2926   28.4427 O   0  0  0  0  0  0  0  0  0  0  0  0
  2  9  1  0
  2  1  1  6
  3  2  1  0
  4  3  1  0
  5  4  2  0
  6  5  1  0
  7  6  1  0
  7  8  2  0
  8  4  1  0
  9 10  2  0
 11  9  1  0
 11 15  1  0
 12 11  1  0
 12 13  1  0
 13 14  1  0
 15 14  1  0
 16 17  2  0
 15 16  1  1
 19 18  1  1
 19 20  1  0
 20 16  1  0
 21 22  1  0
 21 19  1  0
 23 21  2  0
M  END
$$$$
