HPA.pdb
     RDKit          3D

 23 24  0  0  1  0  0  0  0  0999 V2000
    8.5019  -17.5409   21.7415 N   0  0  0  0  0  0  0  0  0  0  0  0
    7.8082  -16.9725   22.8405 C   0  0  1  0  0  0  0  0  0  0  0  0
    7.3983  -18.1194   23.7467 C   0  0  0  0  0  0  0  0  0  0  0  0
    6.7314  -19.2020   22.9888 C   0  0  0  0  0  0  0  0  0  0  0  0
    5.7925  -19.1068   21.9778 C   0  0  0  0  0  0  0  0  0  0  0  0
    5.4409  -20.3316   21.5560 N   0  0  0  0  0  0  0  0  0  0  0  0
    6.1452  -21.2100   22.2865 C   0  0  0  0  0  0  0  0  0  0  0  0
    6.9174  -20.5250   23.1442 N   0  0  0  0  0  0  0  0  0  0  0  0
    8.5235  -15.9482   23.6232 C   0  0  0  0  0  0  0  0  0  0  0  0
    9.8040  -15.9401   23.3681 O   0  0  0  0  0  0  0  0  0  0  0  0
    7.9905  -15.0480   24.5491 N   0  0  0  0  0  0  0  0  0  0  0  0
    6.6776  -14.9228   25.0569 C   0  0  0  0  0  0  0  0  0  0  0  0
    6.4194  -13.4451   24.7674 C   0  0  0  0  0  0  0  0  0  0  0  0
    7.7469  -12.8575   25.1365 C   0  0  0  0  0  0  0  0  0  0  0  0
    8.7352  -13.9997   25.2088 C   0  0  1  0  0  0  0  0  0  0  0  0
    9.0927  -14.3657   26.6050 C   0  0  0  0  0  0  0  0  0  0  0  0
    8.2140  -14.8726   27.3377 O   0  0  0  0  0  0  0  0  0  0  0  0
    9.7796  -13.4408   29.3991 C   0  0  0  0  0  0  0  0  0  0  0  0
   10.7064  -14.3088   28.5380 C   0  0  2  0  0  0  0  0  0  0  0  0
   10.3834  -14.1698   27.1531 N   0  0  0  0  0  0  0  0  0  0  0  0
   10.4872  -15.7095   28.9664 C   0  0  0  0  0  0  0  0  0  0  0  0
   11.2706  -16.3202   29.9276 O   0  0  0  0  0  0  0  0  0  0  0  0
    9.5627  -16.3603   28.4406 O   0  0  0  0  0  0  0  0  0  0  0  0
  2  9  1  0
  2  1  1  6
  3  2  1  0
  4  3  1  0
  5  4  2  0
  6  5  1  0
  7  6  1  0
  7  8  2  0
  8  4  1  0
  9 10  2  0
 11  9  1  0
 11 15  1  0
 12 11  1  0
 12 13  1  0
 13 14  1  0
 15 14  1  0
 16 17  2  0
 15 16  1  1
 19 18  1  1
 19 20  1  0
 20 16  1  0
 21 22  1  0
 21 19  1  0
 23 21  2  0
M  END
$$$$
