HPA.pdb
     RDKit          3D

 23 24  0  0  1  0  0  0  0  0999 V2000
    9.6785  -13.9978   21.3086 N   0  0  0  0  0  0  0  0  0  0  0  0
    8.6279  -13.7682   22.2337 C   0  0  1  0  0  0  0  0  0  0  0  0
    7.3583  -14.3157   21.6069 C   0  0  0  0  0  0  0  0  0  0  0  0
    7.2807  -13.9960   20.1636 C   0  0  0  0  0  0  0  0  0  0  0  0
    7.3242  -12.7616   19.5413 C   0  0  0  0  0  0  0  0  0  0  0  0
    7.2214  -12.9102   18.2112 N   0  0  0  0  0  0  0  0  0  0  0  0
    7.1125  -14.2269   17.9756 C   0  0  0  0  0  0  0  0  0  0  0  0
    7.1488  -14.8722   19.1518 N   0  0  0  0  0  0  0  0  0  0  0  0
    8.7976  -14.3260   23.5877 C   0  0  0  0  0  0  0  0  0  0  0  0
    9.9318  -14.9594   23.7197 O   0  0  0  0  0  0  0  0  0  0  0  0
    7.9145  -14.2433   24.6670 N   0  0  0  0  0  0  0  0  0  0  0  0
    6.5240  -13.9930   24.6985 C   0  0  0  0  0  0  0  0  0  0  0  0
    6.4846  -12.8303   25.6887 C   0  0  0  0  0  0  0  0  0  0  0  0
    7.4894  -13.2952   26.6975 C   0  0  0  0  0  0  0  0  0  0  0  0
    8.2838  -14.4095   26.0544 C   0  0  1  0  0  0  0  0  0  0  0  0
    7.9142  -15.7540   26.5709 C   0  0  0  0  0  0  0  0  0  0  0  0
    6.7392  -16.1558   26.4160 O   0  0  0  0  0  0  0  0  0  0  0  0
    9.4212  -18.8877   26.6016 C   0  0  0  0  0  0  0  0  0  0  0  0
    8.5850  -17.9881   27.5212 C   0  0  2  0  0  0  0  0  0  0  0  0
    8.8274  -16.6097   27.2332 N   0  0  0  0  0  0  0  0  0  0  0  0
    9.0101  -18.2936   28.9067 C   0  0  0  0  0  0  0  0  0  0  0  0
    8.7105  -19.4932   29.5247 O   0  0  0  0  0  0  0  0  0  0  0  0
    9.6614  -17.4376   29.5373 O   0  0  0  0  0  0  0  0  0  0  0  0
  2  9  1  0
  2  1  1  6
  3  2  1  0
  4  3  1  0
  5  4  2  0
  6  5  1  0
  7  6  1  0
  7  8  2  0
  8  4  1  0
  9 10  2  0
 11  9  1  0
 11 15  1  0
 12 11  1  0
 12 13  1  0
 13 14  1  0
 15 14  1  0
 16 17  2  0
 15 16  1  1
 19 18  1  6
 19 20  1  0
 20 16  1  0
 21 22  1  0
 21 19  1  0
 23 21  2  0
M  END
$$$$
