HPA.pdb
     RDKit          3D

 23 24  0  0  1  0  0  0  0  0999 V2000
    7.6418  -14.3242   21.0959 N   0  0  0  0  0  0  0  0  0  0  0  0
    7.1186  -14.4557   22.4078 C   0  0  1  0  0  0  0  0  0  0  0  0
    6.6646  -15.8961   22.5613 C   0  0  0  0  0  0  0  0  0  0  0  0
    7.7932  -16.8425   22.4137 C   0  0  0  0  0  0  0  0  0  0  0  0
    8.4004  -17.3005   21.2585 C   0  0  0  0  0  0  0  0  0  0  0  0
    9.3916  -18.1527   21.5635 N   0  0  0  0  0  0  0  0  0  0  0  0
    9.4252  -18.2449   22.9020 C   0  0  0  0  0  0  0  0  0  0  0  0
    8.4632  -17.4561   23.4054 N   0  0  0  0  0  0  0  0  0  0  0  0
    8.0128  -14.0920   23.5220 C   0  0  0  0  0  0  0  0  0  0  0  0
    9.2581  -13.9955   23.1415 O   0  0  0  0  0  0  0  0  0  0  0  0
    7.6703  -13.8578   24.8560 N   0  0  0  0  0  0  0  0  0  0  0  0
    6.4304  -13.9859   25.5218 C   0  0  0  0  0  0  0  0  0  0  0  0
    6.3195  -12.5973   26.1489 C   0  0  0  0  0  0  0  0  0  0  0  0
    7.7330  -12.3851   26.5967 C   0  0  0  0  0  0  0  0  0  0  0  0
    8.5858  -13.4074   25.8797 C   0  0  1  0  0  0  0  0  0  0  0  0
    9.0202  -14.5198   26.7657 C   0  0  0  0  0  0  0  0  0  0  0  0
    8.1899  -15.4049   27.0710 O   0  0  0  0  0  0  0  0  0  0  0  0
   12.3509  -15.6449   28.2020 C   0  0  0  0  0  0  0  0  0  0  0  0
   10.8414  -15.7819   27.9632 C   0  0  2  0  0  0  0  0  0  0  0  0
   10.3324  -14.6315   27.2857 N   0  0  0  0  0  0  0  0  0  0  0  0
   10.2139  -15.8958   29.2999 C   0  0  0  0  0  0  0  0  0  0  0  0
   10.2755  -17.0555   30.0495 O   0  0  0  0  0  0  0  0  0  0  0  0
    9.6085  -14.9099   29.7648 O   0  0  0  0  0  0  0  0  0  0  0  0
  2  9  1  0
  2  1  1  6
  3  2  1  0
  4  3  1  0
  5  4  2  0
  6  5  1  0
  7  6  1  0
  7  8  2  0
  8  4  1  0
  9 10  2  0
 11  9  1  0
 11 15  1  0
 12 11  1  0
 12 13  1  0
 13 14  1  0
 15 14  1  0
 16 17  2  0
 15 16  1  1
 19 18  1  1
 19 20  1  0
 20 16  1  0
 21 22  1  0
 21 19  1  0
 23 21  2  0
M  END
$$$$
