CME.pdb
     RDKit          3D

 24 23  0  0  1  0  0  0  0  0999 V2000
    7.0703  -16.6755   19.3140 N   0  0  0  0  0  0  0  0  0  0  0  0
    6.6860  -16.9891   20.6540 C   0  0  1  0  0  0  0  0  0  0  0  0
    6.7881  -18.4979   20.8161 C   0  0  0  0  0  0  0  0  0  0  0  0
    5.2735  -19.3210   20.3087 S   0  0  0  0  0  0  0  0  0  0  0  0
    7.5194  -16.2876   21.6700 C   0  0  0  0  0  0  0  0  0  0  0  0
    8.7798  -16.2942   21.5633 O   0  0  0  0  0  0  0  0  0  0  0  0
    7.2014  -11.5040   28.0710 C   0  0  0  0  0  0  0  0  0  0  0  0
    6.4075  -12.3135   26.6441 S   0  0  0  0  0  0  0  0  0  0  0  0
    7.5725  -13.4746   25.8324 C   0  0  0  0  0  0  0  0  0  0  0  0
    6.8726  -14.0491   24.6416 C   0  0  0  0  0  0  0  0  0  0  0  0
    7.7076  -14.9672   23.8212 C   0  0  2  0  0  0  0  0  0  0  0  0
    6.9720  -15.5997   22.7710 N   0  0  0  0  0  0  0  0  0  0  0  0
    8.4749  -15.9416   24.6482 C   0  0  0  0  0  0  0  0  0  0  0  0
    7.8400  -16.9104   25.1296 O   0  0  0  0  0  0  0  0  0  0  0  0
    9.8548  -15.8305   24.9122 N   0  0  0  0  0  0  0  0  0  0  0  0
   10.6238  -16.9070   25.5176 C   0  0  1  0  0  0  0  0  0  0  0  0
   11.9337  -17.0714   24.8364 C   0  0  0  0  0  0  0  0  0  0  0  0
   12.9248  -15.9737   24.9437 C   0  0  0  0  0  0  0  0  0  0  0  0
   14.0953  -15.9884   24.0937 C   0  0  0  0  0  0  0  0  0  0  0  0
   15.2924  -16.0915   24.4170 O   0  0  0  0  0  0  0  0  0  0  0  0
   10.6425  -16.8279   26.9752 C   0  0  0  0  0  0  0  0  0  0  0  0
   11.2399  -17.8469   27.7201 O   0  0  0  0  0  0  0  0  0  0  0  0
   13.8933  -15.8719   22.6941 O   0  0  0  0  0  0  0  0  0  0  0  0
   10.1338  -15.8733   27.5956 O   0  0  0  0  0  0  0  0  0  0  0  0
  2  1  1  6
  3  4  1  0
  3  2  1  0
  5  6  2  0
  5  2  1  0
  7  8  1  0
  8  9  1  0
  9 10  1  0
 11 10  1  1
 11 13  1  0
 11 12  1  0
 12  5  1  0
 13 15  1  0
 14 13  2  0
 15 16  1  0
 16 21  1  0
 17 18  1  0
 16 17  1  6
 19 20  2  0
 19 18  1  0
 21 24  2  0
 21 22  1  0
 23 19  1  0
M  END
$$$$
