CME.pdb
     RDKit          3D

 24 23  0  0  1  0  0  0  0  0999 V2000
    7.4687  -16.1247   19.3295 N   0  0  0  0  0  0  0  0  0  0  0  0
    7.0295  -16.2627   20.6821 C   0  0  1  0  0  0  0  0  0  0  0  0
    6.9405  -17.7509   20.9828 C   0  0  0  0  0  0  0  0  0  0  0  0
    6.3078  -18.0542   22.6371 S   0  0  0  0  0  0  0  0  0  0  0  0
    7.9295  -15.5774   21.6513 C   0  0  0  0  0  0  0  0  0  0  0  0
    9.1765  -15.5490   21.4405 O   0  0  0  0  0  0  0  0  0  0  0  0
    6.8726  -11.7744   27.4573 C   0  0  0  0  0  0  0  0  0  0  0  0
    5.8004  -13.1095   26.8332 S   0  0  0  0  0  0  0  0  0  0  0  0
    6.7523  -14.2493   25.7567 C   0  0  0  0  0  0  0  0  0  0  0  0
    7.4269  -13.4174   24.7122 C   0  0  0  0  0  0  0  0  0  0  0  0
    8.2502  -14.1926   23.7456 C   0  0  2  0  0  0  0  0  0  0  0  0
    7.4614  -14.9430   22.8189 N   0  0  0  0  0  0  0  0  0  0  0  0
    9.2919  -15.0240   24.4133 C   0  0  0  0  0  0  0  0  0  0  0  0
   10.0162  -14.4588   25.2675 O   0  0  0  0  0  0  0  0  0  0  0  0
    9.5007  -16.3901   24.1372 N   0  0  0  0  0  0  0  0  0  0  0  0
   10.4503  -17.2018   24.8829 C   0  0  1  0  0  0  0  0  0  0  0  0
   10.2348  -17.0606   26.3460 C   0  0  0  0  0  0  0  0  0  0  0  0
    9.5808  -18.1764   27.0714 C   0  0  0  0  0  0  0  0  0  0  0  0
   10.1451  -18.6382   28.3209 C   0  0  0  0  0  0  0  0  0  0  0  0
    9.7554  -19.5616   29.0583 O   0  0  0  0  0  0  0  0  0  0  0  0
   10.5553  -18.5603   24.3587 C   0  0  0  0  0  0  0  0  0  0  0  0
   11.7096  -19.3101   24.5943 O   0  0  0  0  0  0  0  0  0  0  0  0
   11.3012  -17.9737   28.8060 O   0  0  0  0  0  0  0  0  0  0  0  0
    9.6427  -19.0881   23.6927 O   0  0  0  0  0  0  0  0  0  0  0  0
  2  1  1  6
  3  4  1  0
  3  2  1  0
  5  6  2  0
  5  2  1  0
  7  8  1  0
  8  9  1  0
  9 10  1  0
 11 10  1  1
 11 13  1  0
 11 12  1  0
 12  5  1  0
 13 15  1  0
 14 13  2  0
 15 16  1  0
 16 21  1  0
 17 18  1  0
 16 17  1  1
 19 20  2  0
 19 18  1  0
 21 24  2  0
 21 22  1  0
 23 19  1  0
M  END
$$$$
