CME.pdb
     RDKit          3D

 24 23  0  0  1  0  0  0  0  0999 V2000
    6.4612  -17.8053   20.1429 N   0  0  0  0  0  0  0  0  0  0  0  0
    6.0090  -17.6267   21.4865 C   0  0  1  0  0  0  0  0  0  0  0  0
    5.8086  -19.0094   22.0874 C   0  0  0  0  0  0  0  0  0  0  0  0
    7.3778  -19.8052   22.4523 S   0  0  0  0  0  0  0  0  0  0  0  0
    6.9547  -16.8215   22.3089 C   0  0  0  0  0  0  0  0  0  0  0  0
    8.1965  -16.8761   22.0743 O   0  0  0  0  0  0  0  0  0  0  0  0
    7.4068  -11.3968   28.1707 C   0  0  0  0  0  0  0  0  0  0  0  0
    6.4365  -12.3665   26.9707 S   0  0  0  0  0  0  0  0  0  0  0  0
    7.5052  -13.5875   26.1157 C   0  0  0  0  0  0  0  0  0  0  0  0
    6.6555  -14.2963   25.1088 C   0  0  0  0  0  0  0  0  0  0  0  0
    7.3876  -15.2868   24.2746 C   0  0  2  0  0  0  0  0  0  0  0  0
    6.5363  -15.9815   23.3598 N   0  0  0  0  0  0  0  0  0  0  0  0
    8.2304  -16.2115   25.0851 C   0  0  0  0  0  0  0  0  0  0  0  0
    7.6427  -17.1362   25.6960 O   0  0  0  0  0  0  0  0  0  0  0  0
    9.6307  -16.1005   25.1978 N   0  0  0  0  0  0  0  0  0  0  0  0
   10.4432  -17.1063   25.8650 C   0  0  1  0  0  0  0  0  0  0  0  0
   11.7181  -17.3279   25.1354 C   0  0  0  0  0  0  0  0  0  0  0  0
   12.4914  -16.1419   24.6945 C   0  0  0  0  0  0  0  0  0  0  0  0
   13.6606  -16.3258   23.8626 C   0  0  0  0  0  0  0  0  0  0  0  0
   14.1385  -17.3826   23.4122 O   0  0  0  0  0  0  0  0  0  0  0  0
   10.5361  -16.8831   27.3047 C   0  0  0  0  0  0  0  0  0  0  0  0
    9.9565  -15.7462   27.8718 O   0  0  0  0  0  0  0  0  0  0  0  0
   14.3894  -15.1677   23.4870 O   0  0  0  0  0  0  0  0  0  0  0  0
   11.1264  -17.6772   28.0637 O   0  0  0  0  0  0  0  0  0  0  0  0
  2  1  1  6
  3  4  1  0
  3  2  1  0
  5  6  2  0
  5  2  1  0
  7  8  1  0
  8  9  1  0
  9 10  1  0
 11 10  1  1
 11 13  1  0
 11 12  1  0
 12  5  1  0
 13 15  1  0
 14 13  2  0
 15 16  1  0
 16 21  1  0
 17 18  1  0
 16 17  1  6
 19 20  2  0
 19 18  1  0
 21 24  2  0
 21 22  1  0
 23 19  1  0
M  END
$$$$
