CME.pdb
     RDKit          3D

 24 23  0  0  1  0  0  0  0  0999 V2000
    8.6499  -15.7459   19.1092 N   0  0  0  0  0  0  0  0  0  0  0  0
    8.0455  -16.3121   20.2736 C   0  0  1  0  0  0  0  0  0  0  0  0
    8.2800  -17.8140   20.2242 C   0  0  0  0  0  0  0  0  0  0  0  0
    7.5286  -18.6468   21.6281 S   0  0  0  0  0  0  0  0  0  0  0  0
    8.5789  -15.7320   21.5378 C   0  0  0  0  0  0  0  0  0  0  0  0
    9.8282  -15.6189   21.7002 O   0  0  0  0  0  0  0  0  0  0  0  0
    6.4491  -10.6631   26.4106 C   0  0  0  0  0  0  0  0  0  0  0  0
    6.1377  -12.4556   26.5187 S   0  0  0  0  0  0  0  0  0  0  0  0
    7.5632  -13.3979   25.8522 C   0  0  0  0  0  0  0  0  0  0  0  0
    7.1199  -14.0307   24.5711 C   0  0  0  0  0  0  0  0  0  0  0  0
    8.1917  -14.7617   23.8432 C   0  0  2  0  0  0  0  0  0  0  0  0
    7.7522  -15.2910   22.5899 N   0  0  0  0  0  0  0  0  0  0  0  0
    8.8680  -15.7855   24.6899 C   0  0  0  0  0  0  0  0  0  0  0  0
    8.2991  -16.8970   24.8102 O   0  0  0  0  0  0  0  0  0  0  0  0
   10.0937  -15.5705   25.3514 N   0  0  0  0  0  0  0  0  0  0  0  0
   10.8309  -16.6446   25.9991 C   0  0  1  0  0  0  0  0  0  0  0  0
   12.2960  -16.4372   25.8673 C   0  0  0  0  0  0  0  0  0  0  0  0
   12.9237  -16.6747   24.5450 C   0  0  0  0  0  0  0  0  0  0  0  0
   14.2182  -16.0953   24.2593 C   0  0  0  0  0  0  0  0  0  0  0  0
   15.0989  -15.7235   25.0557 O   0  0  0  0  0  0  0  0  0  0  0  0
   10.3236  -16.9427   27.3352 C   0  0  0  0  0  0  0  0  0  0  0  0
    9.2481  -16.2154   27.8497 O   0  0  0  0  0  0  0  0  0  0  0  0
   14.5694  -15.9094   22.8972 O   0  0  0  0  0  0  0  0  0  0  0  0
   10.8221  -17.8327   28.0522 O   0  0  0  0  0  0  0  0  0  0  0  0
  2  1  1  6
  3  4  1  0
  3  2  1  0
  5  6  2  0
  5  2  1  0
  7  8  1  0
  8  9  1  0
  9 10  1  0
 11 10  1  1
 11 13  1  0
 11 12  1  0
 12  5  1  0
 13 15  1  0
 14 13  2  0
 15 16  1  0
 16 21  1  0
 17 18  1  0
 16 17  1  1
 19 20  2  0
 19 18  1  0
 21 24  2  0
 21 22  1  0
 23 19  1  0
M  END
$$$$
