CME.pdb
     RDKit          3D

 24 23  0  0  1  0  0  0  0  0999 V2000
    6.4906  -16.9801   20.7193 N   0  0  0  0  0  0  0  0  0  0  0  0
    7.5647  -16.0936   20.4004 C   0  0  1  0  0  0  0  0  0  0  0  0
    7.0181  -15.0384   19.4511 C   0  0  0  0  0  0  0  0  0  0  0  0
    8.3228  -13.9727   18.8256 S   0  0  0  0  0  0  0  0  0  0  0  0
    8.1664  -15.4620   21.6079 C   0  0  0  0  0  0  0  0  0  0  0  0
    9.3586  -15.0408   21.5698 O   0  0  0  0  0  0  0  0  0  0  0  0
    6.6137  -10.9275   26.8127 C   0  0  0  0  0  0  0  0  0  0  0  0
    6.1812  -12.6866   27.0139 S   0  0  0  0  0  0  0  0  0  0  0  0
    7.4692  -13.7559   26.2644 C   0  0  0  0  0  0  0  0  0  0  0  0
    6.9684  -14.1826   24.9209 C   0  0  0  0  0  0  0  0  0  0  0  0
    8.0045  -14.7893   24.0426 C   0  0  2  0  0  0  0  0  0  0  0  0
    7.4677  -15.3024   22.8208 N   0  0  0  0  0  0  0  0  0  0  0  0
    8.8531  -15.7856   24.7564 C   0  0  0  0  0  0  0  0  0  0  0  0
    8.3753  -16.9339   24.9196 O   0  0  0  0  0  0  0  0  0  0  0  0
   10.1437  -15.5066   25.2492 N   0  0  0  0  0  0  0  0  0  0  0  0
   11.0982  -16.5543   25.5774 C   0  0  1  0  0  0  0  0  0  0  0  0
   12.4148  -16.2908   24.9418 C   0  0  0  0  0  0  0  0  0  0  0  0
   13.5227  -17.2423   25.1983 C   0  0  0  0  0  0  0  0  0  0  0  0
   14.8017  -17.0327   24.5556 C   0  0  0  0  0  0  0  0  0  0  0  0
   15.2751  -15.9826   24.0852 O   0  0  0  0  0  0  0  0  0  0  0  0
   11.1048  -16.8767   27.0013 C   0  0  0  0  0  0  0  0  0  0  0  0
   11.7001  -18.0596   27.4445 O   0  0  0  0  0  0  0  0  0  0  0  0
   15.6633  -18.1525   24.4245 O   0  0  0  0  0  0  0  0  0  0  0  0
   10.5875  -16.1288   27.8545 O   0  0  0  0  0  0  0  0  0  0  0  0
  2  1  1  1
  3  4  1  0
  3  2  1  0
  5  6  2  0
  5  2  1  0
  7  8  1  0
  8  9  1  0
  9 10  1  0
 11 10  1  1
 11 13  1  0
 11 12  1  0
 12  5  1  0
 13 15  1  0
 14 13  2  0
 15 16  1  0
 16 21  1  0
 17 18  1  0
 16 17  1  1
 19 20  2  0
 19 18  1  0
 21 24  2  0
 21 22  1  0
 23 19  1  0
M  END
$$$$
