CME.pdb
     RDKit          3D

 24 23  0  0  1  0  0  0  0  0999 V2000
    8.8746  -15.0437   19.2350 N   0  0  0  0  0  0  0  0  0  0  0  0
    8.1672  -15.7046   20.2859 C   0  0  1  0  0  0  0  0  0  0  0  0
    8.3408  -17.2016   20.0809 C   0  0  0  0  0  0  0  0  0  0  0  0
    7.4924  -18.1456   21.3529 S   0  0  0  0  0  0  0  0  0  0  0  0
    8.6353  -15.2955   21.6396 C   0  0  0  0  0  0  0  0  0  0  0  0
    9.8623  -15.0592   21.8363 O   0  0  0  0  0  0  0  0  0  0  0  0
    5.0275  -12.0699   26.7433 C   0  0  0  0  0  0  0  0  0  0  0  0
    6.8358  -12.1990   26.5560 S   0  0  0  0  0  0  0  0  0  0  0  0
    7.3326  -13.9449   26.2932 C   0  0  0  0  0  0  0  0  0  0  0  0
    6.9894  -14.2986   24.8807 C   0  0  0  0  0  0  0  0  0  0  0  0
    8.1444  -14.7591   24.0640 C   0  0  2  0  0  0  0  0  0  0  0  0
    7.7694  -15.1531   22.7418 N   0  0  0  0  0  0  0  0  0  0  0  0
    8.9639  -15.7935   24.7573 C   0  0  0  0  0  0  0  0  0  0  0  0
    8.4569  -16.9332   24.8894 O   0  0  0  0  0  0  0  0  0  0  0  0
   10.2581  -15.5589   25.2636 N   0  0  0  0  0  0  0  0  0  0  0  0
   11.0079  -16.5713   25.9913 C   0  0  1  0  0  0  0  0  0  0  0  0
   12.4634  -16.4515   25.7191 C   0  0  0  0  0  0  0  0  0  0  0  0
   12.9221  -16.5060   24.3100 C   0  0  0  0  0  0  0  0  0  0  0  0
   14.3225  -16.3002   24.0109 C   0  0  0  0  0  0  0  0  0  0  0  0
   14.8540  -16.0208   22.9211 O   0  0  0  0  0  0  0  0  0  0  0  0
   10.6033  -16.6666   27.3908 C   0  0  0  0  0  0  0  0  0  0  0  0
    9.6376  -15.7942   27.8973 O   0  0  0  0  0  0  0  0  0  0  0  0
   15.2484  -16.4248   25.0788 O   0  0  0  0  0  0  0  0  0  0  0  0
   11.0960  -17.5068   28.1694 O   0  0  0  0  0  0  0  0  0  0  0  0
  2  1  1  6
  3  4  1  0
  3  2  1  0
  5  6  2  0
  5  2  1  0
  7  8  1  0
  8  9  1  0
  9 10  1  0
 11 10  1  1
 11 13  1  0
 11 12  1  0
 12  5  1  0
 13 15  1  0
 14 13  2  0
 15 16  1  0
 16 21  1  0
 17 18  1  0
 16 17  1  1
 19 20  2  0
 19 18  1  0
 21 24  2  0
 21 22  1  0
 23 19  1  0
M  END
$$$$
