CME.pdb
     RDKit          3D

 24 23  0  0  1  0  0  0  0  0999 V2000
    6.6649  -16.2669   19.6029 N   0  0  0  0  0  0  0  0  0  0  0  0
    6.2871  -16.5019   20.9607 C   0  0  1  0  0  0  0  0  0  0  0  0
    6.2137  -18.0080   21.1592 C   0  0  0  0  0  0  0  0  0  0  0  0
    5.6814  -18.4302   22.8228 S   0  0  0  0  0  0  0  0  0  0  0  0
    7.2288  -15.8825   21.9347 C   0  0  0  0  0  0  0  0  0  0  0  0
    8.4487  -15.7446   21.6299 O   0  0  0  0  0  0  0  0  0  0  0  0
    7.4894  -11.7253   27.4299 C   0  0  0  0  0  0  0  0  0  0  0  0
    5.9547  -12.1052   26.5232 S   0  0  0  0  0  0  0  0  0  0  0  0
    6.3301  -13.0137   24.9747 C   0  0  0  0  0  0  0  0  0  0  0  0
    6.9698  -14.3096   25.3617 C   0  0  0  0  0  0  0  0  0  0  0  0
    7.6967  -14.9906   24.2568 C   0  0  2  0  0  0  0  0  0  0  0  0
    6.8301  -15.4299   23.2079 N   0  0  0  0  0  0  0  0  0  0  0  0
    8.5998  -16.0726   24.7424 C   0  0  0  0  0  0  0  0  0  0  0  0
    8.0675  -17.1606   25.0687 O   0  0  0  0  0  0  0  0  0  0  0  0
    9.9983  -15.9367   24.8518 N   0  0  0  0  0  0  0  0  0  0  0  0
   10.8871  -17.0815   24.9788 C   0  0  1  0  0  0  0  0  0  0  0  0
   12.0403  -16.9635   24.0497 C   0  0  0  0  0  0  0  0  0  0  0  0
   13.1053  -17.9931   24.1162 C   0  0  0  0  0  0  0  0  0  0  0  0
   14.2099  -17.9332   23.1839 C   0  0  0  0  0  0  0  0  0  0  0  0
   14.8849  -16.9472   22.8372 O   0  0  0  0  0  0  0  0  0  0  0  0
   11.1902  -17.4006   26.3707 C   0  0  0  0  0  0  0  0  0  0  0  0
   10.6939  -16.5909   27.3946 O   0  0  0  0  0  0  0  0  0  0  0  0
   14.6089  -19.1427   22.5583 O   0  0  0  0  0  0  0  0  0  0  0  0
   11.8908  -18.3814   26.6904 O   0  0  0  0  0  0  0  0  0  0  0  0
  2  1  1  6
  3  4  1  0
  3  2  1  0
  5  6  2  0
  5  2  1  0
  7  8  1  0
  8  9  1  0
  9 10  1  0
 11 10  1  1
 11 13  1  0
 11 12  1  0
 12  5  1  0
 13 15  1  0
 14 13  2  0
 15 16  1  0
 16 21  1  0
 17 18  1  0
 16 17  1  6
 19 20  2  0
 19 18  1  0
 21 24  2  0
 21 22  1  0
 23 19  1  0
M  END
$$$$
