CME.pdb
     RDKit          3D

 24 23  0  0  1  0  0  0  0  0999 V2000
    7.7259  -15.8111   19.1884 N   0  0  0  0  0  0  0  0  0  0  0  0
    7.0040  -15.8903   20.4189 C   0  0  1  0  0  0  0  0  0  0  0  0
    6.5331  -17.3275   20.5792 C   0  0  0  0  0  0  0  0  0  0  0  0
    7.9031  -18.4371   20.9267 S   0  0  0  0  0  0  0  0  0  0  0  0
    7.8180  -15.4636   21.5912 C   0  0  0  0  0  0  0  0  0  0  0  0
    9.0808  -15.4785   21.5194 O   0  0  0  0  0  0  0  0  0  0  0  0
    5.8534  -11.0119   26.1439 C   0  0  0  0  0  0  0  0  0  0  0  0
    6.6395  -12.3449   27.1066 S   0  0  0  0  0  0  0  0  0  0  0  0
    7.8579  -13.2500   26.0769 C   0  0  0  0  0  0  0  0  0  0  0  0
    7.1143  -13.8385   24.9198 C   0  0  0  0  0  0  0  0  0  0  0  0
    7.9643  -14.6011   23.9663 C   0  0  2  0  0  0  0  0  0  0  0  0
    7.2492  -15.0337   22.8063 N   0  0  0  0  0  0  0  0  0  0  0  0
    8.7130  -15.7106   24.6226 C   0  0  0  0  0  0  0  0  0  0  0  0
    8.0603  -16.7335   24.9405 O   0  0  0  0  0  0  0  0  0  0  0  0
   10.0942  -15.6684   24.8993 N   0  0  0  0  0  0  0  0  0  0  0  0
   10.8032  -16.7825   25.5099 C   0  0  1  0  0  0  0  0  0  0  0  0
   12.2709  -16.6400   25.3297 C   0  0  0  0  0  0  0  0  0  0  0  0
   12.7991  -16.4901   23.9523 C   0  0  0  0  0  0  0  0  0  0  0  0
   14.2263  -16.3704   23.7484 C   0  0  0  0  0  0  0  0  0  0  0  0
   15.0672  -17.2708   23.5741 O   0  0  0  0  0  0  0  0  0  0  0  0
   10.3285  -17.0734   26.8595 C   0  0  0  0  0  0  0  0  0  0  0  0
    9.8413  -16.0410   27.6637 O   0  0  0  0  0  0  0  0  0  0  0  0
   14.7823  -15.0650   23.7390 O   0  0  0  0  0  0  0  0  0  0  0  0
   10.3441  -18.2258   27.3356 O   0  0  0  0  0  0  0  0  0  0  0  0
  2  1  1  6
  3  4  1  0
  3  2  1  0
  5  6  2  0
  5  2  1  0
  7  8  1  0
  8  9  1  0
  9 10  1  0
 11 10  1  1
 11 13  1  0
 11 12  1  0
 12  5  1  0
 13 15  1  0
 14 13  2  0
 15 16  1  0
 16 21  1  0
 17 18  1  0
 16 17  1  1
 19 20  2  0
 19 18  1  0
 21 24  2  0
 21 22  1  0
 23 19  1  0
M  END
$$$$
