VNC.pdb
     RDKit          3D

 22 21  0  0  1  0  0  0  0  0999 V2000
    7.9415  -13.5256   20.3110 C   0  0  0  0  0  0  0  0  0  0  0  0
    8.8964  -12.9276   19.3050 C   0  0  2  0  0  0  0  0  0  0  0  0
    8.0709  -11.9997   18.4249 C   0  0  0  0  0  0  0  0  0  0  0  0
    9.4991  -13.9688   18.3978 C   0  0  2  0  0  0  0  0  0  0  0  0
    8.3910  -14.7770   17.8908 N   0  0  0  0  0  0  0  0  0  0  0  0
   10.4165  -14.8866   19.1174 C   0  0  0  0  0  0  0  0  0  0  0  0
   10.0554  -16.0177   19.5537 O   0  0  0  0  0  0  0  0  0  0  0  0
   14.6944  -13.8745   17.5002 N   0  0  0  0  0  0  0  0  0  0  0  0
   14.3424  -15.1000   18.1321 C   0  0  0  0  0  0  0  0  0  0  0  0
   14.2307  -16.1226   17.4173 O   0  0  0  0  0  0  0  0  0  0  0  0
   14.1338  -15.0722   19.5947 C   0  0  0  0  0  0  0  0  0  0  0  0
   12.7235  -15.4280   19.9860 C   0  0  2  0  0  0  0  0  0  0  0  0
   11.7753  -14.5259   19.3538 N   0  0  0  0  0  0  0  0  0  0  0  0
   12.5547  -15.4092   21.4777 C   0  0  0  0  0  0  0  0  0  0  0  0
   13.1397  -14.5640   22.2069 O   0  0  0  0  0  0  0  0  0  0  0  0
   11.7211  -16.3519   22.1337 N   0  0  0  0  0  0  0  0  0  0  0  0
   11.5546  -16.4444   23.5473 C   0  0  1  0  0  0  0  0  0  0  0  0
   10.0510  -16.5296   23.8201 C   0  0  0  0  0  0  0  0  0  0  0  0
    9.1958  -15.0523   23.2316 S   0  0  0  0  0  0  0  0  0  0  0  0
   12.1540  -17.6922   24.0454 C   0  0  0  0  0  0  0  0  0  0  0  0
   12.5894  -18.5419   23.2435 O   0  0  0  0  0  0  0  0  0  0  0  0
   12.2370  -17.9277   25.3965 O   0  0  0  0  0  0  0  0  0  0  0  0
  2  1  1  1
  2  4  1  0
  2  3  1  0
  4  6  1  0
  4  5  1  1
  6 13  1  0
  6  7  2  0
  9  8  1  0
  9 11  1  0
 10  9  2  0
 12 11  1  1
 12 14  1  0
 13 12  1  0
 14 15  2  0
 16 17  1  0
 16 14  1  0
 17 20  1  0
 17 18  1  6
 18 19  1  0
 20 22  1  0
 21 20  2  0
M  END
$$$$
