VNC.pdb
     RDKit          3D

 22 21  0  0  1  0  0  0  0  0999 V2000
    7.8234  -12.6593   18.2241 C   0  0  0  0  0  0  0  0  0  0  0  0
    7.6084  -13.3925   19.5270 C   0  0  2  0  0  0  0  0  0  0  0  0
    8.2210  -12.5244   20.6170 C   0  0  0  0  0  0  0  0  0  0  0  0
    8.3285  -14.7154   19.5658 C   0  0  2  0  0  0  0  0  0  0  0  0
    7.7105  -15.5606   18.5450 N   0  0  0  0  0  0  0  0  0  0  0  0
    8.1677  -15.4117   20.8663 C   0  0  0  0  0  0  0  0  0  0  0  0
    7.1355  -16.0785   21.1666 O   0  0  0  0  0  0  0  0  0  0  0  0
    9.1757  -19.1635   24.6710 N   0  0  0  0  0  0  0  0  0  0  0  0
    9.8126  -17.8965   24.5526 C   0  0  0  0  0  0  0  0  0  0  0  0
   10.3128  -17.3880   25.5823 O   0  0  0  0  0  0  0  0  0  0  0  0
    9.8354  -17.2726   23.2132 C   0  0  0  0  0  0  0  0  0  0  0  0
    9.0517  -15.9874   23.1590 C   0  0  2  0  0  0  0  0  0  0  0  0
    9.1921  -15.3584   21.8563 N   0  0  0  0  0  0  0  0  0  0  0  0
    9.4799  -15.0463   24.2475 C   0  0  0  0  0  0  0  0  0  0  0  0
   10.6680  -14.6390   24.3513 O   0  0  0  0  0  0  0  0  0  0  0  0
    8.5547  -14.5722   25.2136 N   0  0  0  0  0  0  0  0  0  0  0  0
    8.8748  -13.6711   26.2719 C   0  0  1  0  0  0  0  0  0  0  0  0
    7.7290  -12.6609   26.3667 C   0  0  0  0  0  0  0  0  0  0  0  0
    6.1436  -13.4920   26.6034 S   0  0  0  0  0  0  0  0  0  0  0  0
    8.9196  -14.3929   27.5531 C   0  0  0  0  0  0  0  0  0  0  0  0
    8.5394  -15.5786   27.6179 O   0  0  0  0  0  0  0  0  0  0  0  0
    9.3805  -13.7644   28.6846 O   0  0  0  0  0  0  0  0  0  0  0  0
  2  1  1  6
  2  4  1  0
  2  3  1  0
  4  6  1  0
  4  5  1  6
  6 13  1  0
  6  7  2  0
  9  8  1  0
  9 11  1  0
 10  9  2  0
 12 11  1  6
 12 14  1  0
 13 12  1  0
 14 15  2  0
 16 17  1  0
 16 14  1  0
 17 20  1  0
 17 18  1  1
 18 19  1  0
 20 22  1  0
 21 20  2  0
M  END
$$$$
