VNC.pdb
     RDKit          3D

 22 21  0  0  1  0  0  0  0  0999 V2000
   11.1763  -19.7480   22.4948 C   0  0  0  0  0  0  0  0  0  0  0  0
   10.7716  -18.3233   22.7912 C   0  0  2  0  0  0  0  0  0  0  0  0
    9.6739  -18.3963   23.8432 C   0  0  0  0  0  0  0  0  0  0  0  0
   10.1798  -17.6338   21.5893 C   0  0  2  0  0  0  0  0  0  0  0  0
   11.2011  -17.6617   20.5432 N   0  0  0  0  0  0  0  0  0  0  0  0
    9.8612  -16.2085   21.8518 C   0  0  0  0  0  0  0  0  0  0  0  0
   10.7484  -15.3359   22.0793 O   0  0  0  0  0  0  0  0  0  0  0  0
    8.1835  -12.5863   19.2811 N   0  0  0  0  0  0  0  0  0  0  0  0
    7.6498  -13.8334   19.7114 C   0  0  0  0  0  0  0  0  0  0  0  0
    7.6571  -14.7899   18.9026 O   0  0  0  0  0  0  0  0  0  0  0  0
    7.1238  -13.9052   21.0905 C   0  0  0  0  0  0  0  0  0  0  0  0
    8.1619  -14.3570   22.0840 C   0  0  2  0  0  0  0  0  0  0  0  0
    8.5115  -15.7498   21.8592 N   0  0  0  0  0  0  0  0  0  0  0  0
    7.6864  -14.1539   23.4934 C   0  0  0  0  0  0  0  0  0  0  0  0
    6.7577  -14.8442   23.9926 O   0  0  0  0  0  0  0  0  0  0  0  0
    8.2695  -13.1662   24.3293 N   0  0  0  0  0  0  0  0  0  0  0  0
    7.8492  -12.8777   25.6614 C   0  0  1  0  0  0  0  0  0  0  0  0
    6.3751  -12.4719   25.5917 C   0  0  0  0  0  0  0  0  0  0  0  0
    5.7230  -12.0954   27.2327 S   0  0  0  0  0  0  0  0  0  0  0  0
    7.9227  -14.0924   26.4881 C   0  0  0  0  0  0  0  0  0  0  0  0
    7.7394  -15.2130   25.9729 O   0  0  0  0  0  0  0  0  0  0  0  0
    8.1936  -13.9985   27.8318 O   0  0  0  0  0  0  0  0  0  0  0  0
  2  1  1  6
  2  4  1  0
  2  3  1  0
  4  6  1  0
  4  5  1  6
  6 13  1  0
  6  7  2  0
  9  8  1  0
  9 11  1  0
 10  9  2  0
 12 11  1  6
 12 14  1  0
 13 12  1  0
 14 15  2  0
 16 17  1  0
 16 14  1  0
 17 20  1  0
 17 18  1  6
 18 19  1  0
 20 22  1  0
 21 20  2  0
M  END
$$$$
