VNC.pdb
     RDKit          3D

 22 21  0  0  1  0  0  0  0  0999 V2000
    7.6269  -13.0352   18.7617 C   0  0  0  0  0  0  0  0  0  0  0  0
    7.5722  -13.5698   20.1734 C   0  0  2  0  0  0  0  0  0  0  0  0
    8.4469  -12.6526   21.0165 C   0  0  0  0  0  0  0  0  0  0  0  0
    8.1562  -14.9543   20.2849 C   0  0  2  0  0  0  0  0  0  0  0  0
    7.3869  -15.8091   19.3818 N   0  0  0  0  0  0  0  0  0  0  0  0
    8.0166  -15.5214   21.6490 C   0  0  0  0  0  0  0  0  0  0  0  0
    6.9096  -15.9091   22.1228 O   0  0  0  0  0  0  0  0  0  0  0  0
   10.8322  -16.8841   22.0229 N   0  0  0  0  0  0  0  0  0  0  0  0
   10.5958  -17.8210   23.0676 C   0  0  0  0  0  0  0  0  0  0  0  0
   11.2698  -18.8768   23.0782 O   0  0  0  0  0  0  0  0  0  0  0  0
    9.5651  -17.4739   24.0680 C   0  0  0  0  0  0  0  0  0  0  0  0
    9.0334  -16.0757   23.8914 C   0  0  2  0  0  0  0  0  0  0  0  0
    9.1490  -15.6571   22.5044 N   0  0  0  0  0  0  0  0  0  0  0  0
    9.7429  -15.1089   24.7946 C   0  0  0  0  0  0  0  0  0  0  0  0
   10.7918  -15.4225   25.4189 O   0  0  0  0  0  0  0  0  0  0  0  0
    9.2563  -13.7893   24.9839 N   0  0  0  0  0  0  0  0  0  0  0  0
    8.7329  -13.2843   26.2110 C   0  0  1  0  0  0  0  0  0  0  0  0
    7.2447  -13.0065   25.9865 C   0  0  0  0  0  0  0  0  0  0  0  0
    6.4647  -12.3746   27.4873 S   0  0  0  0  0  0  0  0  0  0  0  0
    8.8258  -14.3117   27.2600 C   0  0  0  0  0  0  0  0  0  0  0  0
    8.4263  -15.4717   27.0380 O   0  0  0  0  0  0  0  0  0  0  0  0
    9.3531  -13.9983   28.4894 O   0  0  0  0  0  0  0  0  0  0  0  0
  2  1  1  6
  2  4  1  0
  2  3  1  0
  4  6  1  0
  4  5  1  6
  6 13  1  0
  6  7  2  0
  9  8  1  0
  9 11  1  0
 10  9  2  0
 12 11  1  6
 12 14  1  0
 13 12  1  0
 14 15  2  0
 16 17  1  0
 16 14  1  0
 17 20  1  0
 17 18  1  6
 18 19  1  0
 20 22  1  0
 21 20  2  0
M  END
$$$$
