VNC.pdb
     RDKit          3D

 22 21  0  0  1  0  0  0  0  0999 V2000
    7.5185  -12.8149   19.0801 C   0  0  0  0  0  0  0  0  0  0  0  0
    7.7890  -13.5908   20.3475 C   0  0  2  0  0  0  0  0  0  0  0  0
    8.7041  -12.7217   21.1987 C   0  0  0  0  0  0  0  0  0  0  0  0
    8.5281  -14.8773   20.0852 C   0  0  2  0  0  0  0  0  0  0  0  0
    7.6837  -15.6735   19.1956 N   0  0  0  0  0  0  0  0  0  0  0  0
    8.7368  -15.6742   21.3194 C   0  0  0  0  0  0  0  0  0  0  0  0
    7.7931  -16.2503   21.9341 O   0  0  0  0  0  0  0  0  0  0  0  0
   10.4996  -19.7551   22.6435 N   0  0  0  0  0  0  0  0  0  0  0  0
   11.1375  -18.6146   22.0800 C   0  0  0  0  0  0  0  0  0  0  0  0
   11.4093  -18.6334   20.8574 O   0  0  0  0  0  0  0  0  0  0  0  0
   11.4328  -17.4864   22.9875 C   0  0  0  0  0  0  0  0  0  0  0  0
   10.2728  -16.5358   23.1272 C   0  0  2  0  0  0  0  0  0  0  0  0
   10.0389  -15.8291   21.8789 N   0  0  0  0  0  0  0  0  0  0  0  0
   10.5016  -15.5639   24.2483 C   0  0  0  0  0  0  0  0  0  0  0  0
   11.3437  -14.6301   24.1632 O   0  0  0  0  0  0  0  0  0  0  0  0
    9.7715  -15.6582   25.4616 N   0  0  0  0  0  0  0  0  0  0  0  0
    9.9614  -14.8098   26.5924 C   0  0  1  0  0  0  0  0  0  0  0  0
    8.7055  -13.9451   26.7239 C   0  0  0  0  0  0  0  0  0  0  0  0
    8.8160  -12.8459   28.1521 S   0  0  0  0  0  0  0  0  0  0  0  0
   10.0585  -15.6173   27.8184 C   0  0  0  0  0  0  0  0  0  0  0  0
    9.6284  -16.7875   27.8337 O   0  0  0  0  0  0  0  0  0  0  0  0
   10.6235  -15.0862   28.9527 O   0  0  0  0  0  0  0  0  0  0  0  0
  2  1  1  6
  2  4  1  0
  2  3  1  0
  4  6  1  0
  4  5  1  6
  6 13  1  0
  6  7  2  0
  9  8  1  0
  9 11  1  0
 10  9  2  0
 12 11  1  6
 12 14  1  0
 13 12  1  0
 14 15  2  0
 16 17  1  0
 16 14  1  0
 17 20  1  0
 17 18  1  1
 18 19  1  0
 20 22  1  0
 21 20  2  0
M  END
$$$$
