VNC.pdb
     RDKit          3D

 22 21  0  0  1  0  0  0  0  0999 V2000
    7.5383  -13.0898   18.2082 C   0  0  0  0  0  0  0  0  0  0  0  0
    7.7598  -13.6150   19.6070 C   0  0  2  0  0  0  0  0  0  0  0  0
    8.8291  -12.7324   20.2351 C   0  0  0  0  0  0  0  0  0  0  0  0
    8.2967  -15.0228   19.6122 C   0  0  2  0  0  0  0  0  0  0  0  0
    7.3263  -15.8456   18.8915 N   0  0  0  0  0  0  0  0  0  0  0  0
    8.4123  -15.5814   20.9821 C   0  0  0  0  0  0  0  0  0  0  0  0
    7.4079  -15.8438   21.7050 O   0  0  0  0  0  0  0  0  0  0  0  0
   12.5662  -17.7114   24.8498 N   0  0  0  0  0  0  0  0  0  0  0  0
   11.2925  -17.9204   24.2506 C   0  0  0  0  0  0  0  0  0  0  0  0
   10.4443  -18.5902   24.8838 O   0  0  0  0  0  0  0  0  0  0  0  0
   11.0661  -17.3264   22.9165 C   0  0  0  0  0  0  0  0  0  0  0  0
    9.8410  -16.4513   22.8720 C   0  0  2  0  0  0  0  0  0  0  0  0
    9.6886  -15.8530   21.5562 N   0  0  0  0  0  0  0  0  0  0  0  0
    9.8964  -15.3885   23.9309 C   0  0  0  0  0  0  0  0  0  0  0  0
   10.6353  -14.3733   23.8224 O   0  0  0  0  0  0  0  0  0  0  0  0
    9.1111  -15.4850   25.1091 N   0  0  0  0  0  0  0  0  0  0  0  0
    9.1010  -14.5209   26.1603 C   0  0  1  0  0  0  0  0  0  0  0  0
    7.7292  -13.8427   26.1375 C   0  0  0  0  0  0  0  0  0  0  0  0
    7.5647  -12.6562   27.4885 S   0  0  0  0  0  0  0  0  0  0  0  0
    9.2274  -15.1931   27.4628 C   0  0  0  0  0  0  0  0  0  0  0  0
    9.0943  -16.4301   27.5450 O   0  0  0  0  0  0  0  0  0  0  0  0
    9.4928  -14.4615   28.5951 O   0  0  0  0  0  0  0  0  0  0  0  0
  2  1  1  6
  2  4  1  0
  2  3  1  0
  4  6  1  0
  4  5  1  6
  6 13  1  0
  6  7  2  0
  9  8  1  0
  9 11  1  0
 10  9  2  0
 12 11  1  6
 12 14  1  0
 13 12  1  0
 14 15  2  0
 16 17  1  0
 16 14  1  0
 17 20  1  0
 17 18  1  1
 18 19  1  0
 20 22  1  0
 21 20  2  0
M  END
$$$$
