VNC.pdb
     RDKit          3D

 22 21  0  0  1  0  0  0  0  0999 V2000
    7.7841  -12.4642   18.3698 C   0  0  0  0  0  0  0  0  0  0  0  0
    7.7345  -13.2675   19.6480 C   0  0  2  0  0  0  0  0  0  0  0  0
    8.4981  -12.4651   20.6920 C   0  0  0  0  0  0  0  0  0  0  0  0
    8.4358  -14.5948   19.5182 C   0  0  2  0  0  0  0  0  0  0  0  0
    7.7093  -15.3568   18.5034 N   0  0  0  0  0  0  0  0  0  0  0  0
    8.3922  -15.3853   20.7733 C   0  0  0  0  0  0  0  0  0  0  0  0
    7.3490  -15.9740   21.1796 O   0  0  0  0  0  0  0  0  0  0  0  0
   11.2565  -18.5644   20.7421 N   0  0  0  0  0  0  0  0  0  0  0  0
   10.3769  -18.4257   21.8521 C   0  0  0  0  0  0  0  0  0  0  0  0
    9.4304  -19.2389   21.9613 O   0  0  0  0  0  0  0  0  0  0  0  0
   10.6496  -17.3241   22.7987 C   0  0  0  0  0  0  0  0  0  0  0  0
    9.5498  -16.2952   22.8230 C   0  0  2  0  0  0  0  0  0  0  0  0
    9.5500  -15.5187   21.5944 N   0  0  0  0  0  0  0  0  0  0  0  0
    9.6789  -15.3935   24.0164 C   0  0  0  0  0  0  0  0  0  0  0  0
   10.6662  -14.6258   24.1716 O   0  0  0  0  0  0  0  0  0  0  0  0
    8.6842  -15.3687   25.0283 N   0  0  0  0  0  0  0  0  0  0  0  0
    8.7124  -14.5211   26.1751 C   0  0  1  0  0  0  0  0  0  0  0  0
    7.2592  -14.2314   26.5581 C   0  0  0  0  0  0  0  0  0  0  0  0
    6.7098  -12.6483   25.8859 S   0  0  0  0  0  0  0  0  0  0  0  0
    9.3242  -15.2286   27.3107 C   0  0  0  0  0  0  0  0  0  0  0  0
    9.5222  -14.6321   28.3875 O   0  0  0  0  0  0  0  0  0  0  0  0
    9.6805  -16.5501   27.1906 O   0  0  0  0  0  0  0  0  0  0  0  0
  2  1  1  6
  2  4  1  0
  2  3  1  0
  4  6  1  0
  4  5  1  6
  6 13  1  0
  6  7  2  0
  9  8  1  0
  9 11  1  0
 10  9  2  0
 12 11  1  6
 12 14  1  0
 13 12  1  0
 14 15  2  0
 16 17  1  0
 16 14  1  0
 17 20  1  0
 17 18  1  1
 18 19  1  0
 20 22  1  0
 21 20  2  0
M  END
$$$$
