VNC.pdb
     RDKit          3D

 22 21  0  0  1  0  0  0  0  0999 V2000
    7.8412  -13.0763   17.9711 C   0  0  0  0  0  0  0  0  0  0  0  0
    7.7490  -13.5433   19.4045 C   0  0  2  0  0  0  0  0  0  0  0  0
    8.6668  -12.6375   20.2135 C   0  0  0  0  0  0  0  0  0  0  0  0
    8.2567  -14.9507   19.5825 C   0  0  2  0  0  0  0  0  0  0  0  0
    7.3800  -15.8166   18.7953 N   0  0  0  0  0  0  0  0  0  0  0  0
    8.1752  -15.4101   20.9911 C   0  0  0  0  0  0  0  0  0  0  0  0
    7.0776  -15.5871   21.5946 O   0  0  0  0  0  0  0  0  0  0  0  0
   10.1601  -18.7609   25.1304 N   0  0  0  0  0  0  0  0  0  0  0  0
   10.5716  -17.4315   24.8329 C   0  0  0  0  0  0  0  0  0  0  0  0
   10.9532  -16.7053   25.7794 O   0  0  0  0  0  0  0  0  0  0  0  0
   10.5168  -17.0061   23.4188 C   0  0  0  0  0  0  0  0  0  0  0  0
    9.3167  -16.1469   23.1180 C   0  0  2  0  0  0  0  0  0  0  0  0
    9.3565  -15.6779   21.7429 N   0  0  0  0  0  0  0  0  0  0  0  0
    9.2296  -14.9876   24.0679 C   0  0  0  0  0  0  0  0  0  0  0  0
   10.0408  -14.0241   24.0244 O   0  0  0  0  0  0  0  0  0  0  0  0
    8.2199  -14.9291   25.0634 N   0  0  0  0  0  0  0  0  0  0  0  0
    8.0449  -13.8512   25.9811 C   0  0  1  0  0  0  0  0  0  0  0  0
    6.5777  -13.4233   25.9001 C   0  0  0  0  0  0  0  0  0  0  0  0
    6.2088  -12.1252   27.0996 S   0  0  0  0  0  0  0  0  0  0  0  0
    8.2826  -14.3159   27.3566 C   0  0  0  0  0  0  0  0  0  0  0  0
    8.3537  -13.4944   28.2919 O   0  0  0  0  0  0  0  0  0  0  0  0
    8.4273  -15.6570   27.6177 O   0  0  0  0  0  0  0  0  0  0  0  0
  2  1  1  6
  2  4  1  0
  2  3  1  0
  4  6  1  0
  4  5  1  6
  6 13  1  0
  6  7  2  0
  9  8  1  0
  9 11  1  0
 10  9  2  0
 12 11  1  1
 12 14  1  0
 13 12  1  0
 14 15  2  0
 16 17  1  0
 16 14  1  0
 17 20  1  0
 17 18  1  1
 18 19  1  0
 20 22  1  0
 21 20  2  0
M  END
$$$$
