VNC.pdb
     RDKit          3D

 22 21  0  0  1  0  0  0  0  0999 V2000
    7.2141  -12.9524   18.8926 C   0  0  0  0  0  0  0  0  0  0  0  0
    7.4182  -13.5511   20.2643 C   0  0  2  0  0  0  0  0  0  0  0  0
    8.2234  -12.5357   21.0630 C   0  0  0  0  0  0  0  0  0  0  0  0
    8.2325  -14.8180   20.2212 C   0  0  2  0  0  0  0  0  0  0  0  0
    7.5148  -15.7499   19.3526 N   0  0  0  0  0  0  0  0  0  0  0  0
    8.3501  -15.4631   21.5524 C   0  0  0  0  0  0  0  0  0  0  0  0
    7.4563  -16.2190   22.0320 O   0  0  0  0  0  0  0  0  0  0  0  0
   10.2571  -18.4684   22.4793 N   0  0  0  0  0  0  0  0  0  0  0  0
   11.3968  -17.8221   23.0347 C   0  0  0  0  0  0  0  0  0  0  0  0
   12.4932  -18.4271   23.0029 O   0  0  0  0  0  0  0  0  0  0  0  0
   11.1981  -16.4761   23.6112 C   0  0  0  0  0  0  0  0  0  0  0  0
    9.7591  -16.0333   23.5672 C   0  0  2  0  0  0  0  0  0  0  0  0
    9.5011  -15.2546   22.3674 N   0  0  0  0  0  0  0  0  0  0  0  0
    9.3972  -15.2469   24.7938 C   0  0  0  0  0  0  0  0  0  0  0  0
    9.5688  -15.7030   25.9560 O   0  0  0  0  0  0  0  0  0  0  0  0
    8.8416  -13.9449   24.6932 N   0  0  0  0  0  0  0  0  0  0  0  0
    8.2663  -13.2207   25.7791 C   0  0  1  0  0  0  0  0  0  0  0  0
    6.7890  -13.0029   25.4440 C   0  0  0  0  0  0  0  0  0  0  0  0
    5.9226  -12.1945   26.8064 S   0  0  0  0  0  0  0  0  0  0  0  0
    8.3147  -14.0295   27.0070 C   0  0  0  0  0  0  0  0  0  0  0  0
    8.0028  -15.2363   26.9752 O   0  0  0  0  0  0  0  0  0  0  0  0
    8.7038  -13.4594   28.1951 O   0  0  0  0  0  0  0  0  0  0  0  0
  2  1  1  6
  2  4  1  0
  2  3  1  0
  4  6  1  0
  4  5  1  6
  6 13  1  0
  6  7  2  0
  9  8  1  0
  9 11  1  0
 10  9  2  0
 12 11  1  1
 12 14  1  0
 13 12  1  0
 14 15  2  0
 16 17  1  0
 16 14  1  0
 17 20  1  0
 17 18  1  6
 18 19  1  0
 20 22  1  0
 21 20  2  0
M  END
$$$$
