VNC.pdb
     RDKit          3D

 22 21  0  0  1  0  0  0  0  0999 V2000
    7.7109  -12.4144   18.2351 C   0  0  0  0  0  0  0  0  0  0  0  0
    8.3127  -13.3882   19.2205 C   0  0  2  0  0  0  0  0  0  0  0  0
    9.2400  -12.5786   20.1159 C   0  0  0  0  0  0  0  0  0  0  0  0
    9.1608  -14.4352   18.5461 C   0  0  2  0  0  0  0  0  0  0  0  0
    8.2767  -15.1797   17.6505 N   0  0  0  0  0  0  0  0  0  0  0  0
    9.7309  -15.4105   19.5083 C   0  0  0  0  0  0  0  0  0  0  0  0
    9.0248  -16.2551   20.1315 O   0  0  0  0  0  0  0  0  0  0  0  0
   13.8775  -16.7993   18.1074 N   0  0  0  0  0  0  0  0  0  0  0  0
   13.4164  -17.4197   19.3022 C   0  0  0  0  0  0  0  0  0  0  0  0
   13.2371  -18.6594   19.2932 O   0  0  0  0  0  0  0  0  0  0  0  0
   13.1825  -16.5470   20.4716 C   0  0  0  0  0  0  0  0  0  0  0  0
   11.7180  -16.3396   20.7564 C   0  0  2  0  0  0  0  0  0  0  0  0
   11.1304  -15.4390   19.7787 N   0  0  0  0  0  0  0  0  0  0  0  0
   11.5060  -15.8178   22.1480 C   0  0  0  0  0  0  0  0  0  0  0  0
   12.0218  -14.7381   22.5438 O   0  0  0  0  0  0  0  0  0  0  0  0
   10.7082  -16.5262   23.0837 N   0  0  0  0  0  0  0  0  0  0  0  0
   10.4545  -16.1015   24.4216 C   0  0  1  0  0  0  0  0  0  0  0  0
    8.9411  -15.9194   24.5580 C   0  0  0  0  0  0  0  0  0  0  0  0
    8.4872  -15.4671   26.2460 S   0  0  0  0  0  0  0  0  0  0  0  0
   10.8485  -17.1558   25.3690 C   0  0  0  0  0  0  0  0  0  0  0  0
   11.0241  -18.3238   24.9693 O   0  0  0  0  0  0  0  0  0  0  0  0
   11.0250  -16.8591   26.6989 O   0  0  0  0  0  0  0  0  0  0  0  0
  2  1  1  6
  2  4  1  0
  2  3  1  0
  4  6  1  0
  4  5  1  6
  6 13  1  0
  6  7  2  0
  9  8  1  0
  9 11  1  0
 10  9  2  0
 12 11  1  6
 12 14  1  0
 13 12  1  0
 14 15  2  0
 16 17  1  0
 16 14  1  0
 17 20  1  0
 17 18  1  6
 18 19  1  0
 20 22  1  0
 21 20  2  0
M  END
$$$$
