VNC.pdb
     RDKit          3D

 22 21  0  0  1  0  0  0  0  0999 V2000
    7.3901  -12.6897   18.8326 C   0  0  0  0  0  0  0  0  0  0  0  0
    8.5742  -13.4585   19.3696 C   0  0  2  0  0  0  0  0  0  0  0  0
    9.4587  -12.4459   20.0834 C   0  0  0  0  0  0  0  0  0  0  0  0
    9.4068  -14.0688   18.2720 C   0  0  2  0  0  0  0  0  0  0  0  0
    8.5277  -14.9713   17.5298 N   0  0  0  0  0  0  0  0  0  0  0  0
   10.5290  -14.8851   18.7975 C   0  0  0  0  0  0  0  0  0  0  0  0
   10.3664  -16.0322   19.3053 O   0  0  0  0  0  0  0  0  0  0  0  0
   14.5843  -14.2810   16.1813 N   0  0  0  0  0  0  0  0  0  0  0  0
   14.3126  -15.2488   17.1886 C   0  0  0  0  0  0  0  0  0  0  0  0
   14.1288  -16.4358   16.8334 O   0  0  0  0  0  0  0  0  0  0  0  0
   14.2678  -14.7755   18.5878 C   0  0  0  0  0  0  0  0  0  0  0  0
   12.9898  -15.1567   19.2880 C   0  0  2  0  0  0  0  0  0  0  0  0
   11.8694  -14.4017   18.7521 N   0  0  0  0  0  0  0  0  0  0  0  0
   13.1030  -14.9508   20.7707 C   0  0  0  0  0  0  0  0  0  0  0  0
   13.5300  -13.8735   21.2663 O   0  0  0  0  0  0  0  0  0  0  0  0
   12.7300  -15.9712   21.6838 N   0  0  0  0  0  0  0  0  0  0  0  0
   12.8510  -15.8768   23.1019 C   0  0  1  0  0  0  0  0  0  0  0  0
   11.4480  -16.0535   23.6873 C   0  0  0  0  0  0  0  0  0  0  0  0
   10.6795  -17.5756   23.0934 S   0  0  0  0  0  0  0  0  0  0  0  0
   13.6735  -16.9843   23.6130 C   0  0  0  0  0  0  0  0  0  0  0  0
   13.9780  -17.9352   22.8662 O   0  0  0  0  0  0  0  0  0  0  0  0
   14.1104  -16.9767   24.9157 O   0  0  0  0  0  0  0  0  0  0  0  0
  2  1  1  6
  2  4  1  0
  2  3  1  0
  4  6  1  0
  4  5  1  1
  6 13  1  0
  6  7  2  0
  9  8  1  0
  9 11  1  0
 10  9  2  0
 12 11  1  6
 12 14  1  0
 13 12  1  0
 14 15  2  0
 16 17  1  0
 16 14  1  0
 17 20  1  0
 17 18  1  1
 18 19  1  0
 20 22  1  0
 21 20  2  0
M  END
$$$$
