VNC.pdb
     RDKit          3D

 22 21  0  0  1  0  0  0  0  0999 V2000
   10.6250  -18.6235   16.9108 C   0  0  0  0  0  0  0  0  0  0  0  0
   10.0869  -19.3346   18.1300 C   0  0  2  0  0  0  0  0  0  0  0  0
    9.4838  -20.6420   17.6361 C   0  0  0  0  0  0  0  0  0  0  0  0
    8.9763  -18.5660   18.7980 C   0  0  2  0  0  0  0  0  0  0  0  0
    7.9327  -18.3751   17.7918 N   0  0  0  0  0  0  0  0  0  0  0  0
    9.4068  -17.2174   19.2431 C   0  0  0  0  0  0  0  0  0  0  0  0
   10.6054  -16.8194   19.1713 O   0  0  0  0  0  0  0  0  0  0  0  0
    7.7362  -12.1849   18.6828 N   0  0  0  0  0  0  0  0  0  0  0  0
    7.5734  -13.5723   18.9544 C   0  0  0  0  0  0  0  0  0  0  0  0
    7.2534  -14.3264   18.0067 O   0  0  0  0  0  0  0  0  0  0  0  0
    7.7961  -14.0208   20.3447 C   0  0  0  0  0  0  0  0  0  0  0  0
    8.8756  -15.0659   20.4507 C   0  0  2  0  0  0  0  0  0  0  0  0
    8.4676  -16.2908   19.7831 N   0  0  0  0  0  0  0  0  0  0  0  0
    9.2255  -15.3388   21.8849 C   0  0  0  0  0  0  0  0  0  0  0  0
    8.3679  -15.2778   22.8064 O   0  0  0  0  0  0  0  0  0  0  0  0
   10.5496  -15.6799   22.2650 N   0  0  0  0  0  0  0  0  0  0  0  0
   10.9616  -15.9766   23.5980 C   0  0  1  0  0  0  0  0  0  0  0  0
   10.2161  -17.2416   24.0298 C   0  0  0  0  0  0  0  0  0  0  0  0
   10.7801  -17.8119   25.6474 S   0  0  0  0  0  0  0  0  0  0  0  0
   12.3980  -16.2935   23.6235 C   0  0  0  0  0  0  0  0  0  0  0  0
   13.0075  -16.5252   22.5607 O   0  0  0  0  0  0  0  0  0  0  0  0
   13.0753  -16.3356   24.8182 O   0  0  0  0  0  0  0  0  0  0  0  0
  2  1  1  6
  2  4  1  0
  2  3  1  0
  4  6  1  0
  4  5  1  6
  6 13  1  0
  6  7  2  0
  9  8  1  0
  9 11  1  0
 10  9  2  0
 12 11  1  1
 12 14  1  0
 13 12  1  0
 14 15  2  0
 16 17  1  0
 16 14  1  0
 17 20  1  0
 17 18  1  6
 18 19  1  0
 20 22  1  0
 21 20  2  0
M  END
$$$$
