NTE.pdb
     RDKit          3D

 25 24  0  0  1  0  0  0  0  0999 V2000
    8.2707  -15.7240   15.2760 N   0  0  0  0  0  0  0  0  0  0  0  0
    8.3543  -14.4122   15.7519 C   0  0  0  0  0  0  0  0  0  0  0  0
    8.0461  -13.4877   14.9405 O   0  0  0  0  0  0  0  0  0  0  0  0
    8.7604  -13.9858   17.0925 C   0  0  0  0  0  0  0  0  0  0  0  0
    9.0783  -15.0812   18.0537 C   0  0  2  0  0  0  0  0  0  0  0  0
    7.8520  -15.8938   18.1609 N   0  0  0  0  0  0  0  0  0  0  0  0
    9.3609  -14.6032   19.4300 C   0  0  0  0  0  0  0  0  0  0  0  0
   10.2925  -13.7866   19.7131 O   0  0  0  0  0  0  0  0  0  0  0  0
    6.9153  -13.3931   22.3326 C   0  0  0  0  0  0  0  0  0  0  0  0
    7.6957  -14.6237   22.7374 C   0  0  1  0  0  0  0  0  0  0  0  0
    6.9304  -15.7769   22.6633 O   0  0  0  0  0  0  0  0  0  0  0  0
    8.9726  -14.7630   21.9232 C   0  0  2  0  0  0  0  0  0  0  0  0
    8.5948  -15.0323   20.5564 N   0  0  0  0  0  0  0  0  0  0  0  0
    9.7244  -15.9156   22.5150 C   0  0  0  0  0  0  0  0  0  0  0  0
    9.6614  -17.0551   21.9900 O   0  0  0  0  0  0  0  0  0  0  0  0
   10.5216  -15.7548   23.6742 N   0  0  0  0  0  0  0  0  0  0  0  0
   11.3872  -16.8623   24.1301 C   0  0  1  0  0  0  0  0  0  0  0  0
   12.7951  -16.4626   23.8436 C   0  0  0  0  0  0  0  0  0  0  0  0
   13.7606  -17.5295   24.2415 C   0  0  0  0  0  0  0  0  0  0  0  0
   15.1594  -17.1034   23.9435 C   0  0  0  0  0  0  0  0  0  0  0  0
   16.0843  -17.9144   24.1054 O   0  0  0  0  0  0  0  0  0  0  0  0
   11.1930  -17.0548   25.5885 C   0  0  0  0  0  0  0  0  0  0  0  0
   11.6076  -18.1611   26.3052 O   0  0  0  0  0  0  0  0  0  0  0  0
   15.3899  -15.8279   23.4984 O   0  0  0  0  0  0  0  0  0  0  0  0
   10.5973  -16.1531   26.2759 O   0  0  0  0  0  0  0  0  0  0  0  0
  1  2  1  0
  2  4  1  0
  3  2  2  0
  4  5  1  0
  5  6  1  1
  7  5  1  0
  8  7  2  0
 10  9  1  6
 10 11  1  0
 12 10  1  0
 12 13  1  6
 13  7  1  0
 14 12  1  0
 14 15  2  0
 16 14  1  0
 17 16  1  0
 17 18  1  1
 19 18  1  0
 20 19  1  0
 21 20  2  0
 22 17  1  0
 22 23  1  0
 24 20  1  0
 25 22  2  0
M  END
$$$$
