NTE.pdb
     RDKit          3D

 25 24  0  0  1  0  0  0  0  0999 V2000
    9.6824  -17.8778   14.1860 N   0  0  0  0  0  0  0  0  0  0  0  0
   10.1596  -16.5740   14.3499 C   0  0  0  0  0  0  0  0  0  0  0  0
   10.6556  -16.0126   13.3268 O   0  0  0  0  0  0  0  0  0  0  0  0
   10.1491  -15.7804   15.5805 C   0  0  0  0  0  0  0  0  0  0  0  0
    9.6152  -16.4679   16.7918 C   0  0  2  0  0  0  0  0  0  0  0  0
    8.1496  -16.4951   16.6285 N   0  0  0  0  0  0  0  0  0  0  0  0
    9.8615  -15.7278   18.0544 C   0  0  0  0  0  0  0  0  0  0  0  0
   11.0218  -15.4421   18.4868 O   0  0  0  0  0  0  0  0  0  0  0  0
    7.3977  -12.8466   19.5930 C   0  0  0  0  0  0  0  0  0  0  0  0
    7.7229  -13.9517   20.5728 C   0  0  1  0  0  0  0  0  0  0  0  0
    6.6732  -14.8442   20.7229 O   0  0  0  0  0  0  0  0  0  0  0  0
    9.0036  -14.6755   20.1873 C   0  0  2  0  0  0  0  0  0  0  0  0
    8.7960  -15.2746   18.8906 N   0  0  0  0  0  0  0  0  0  0  0  0
    9.2283  -15.7199   21.2373 C   0  0  0  0  0  0  0  0  0  0  0  0
    9.1099  -16.9394   20.9596 O   0  0  0  0  0  0  0  0  0  0  0  0
    9.5781  -15.3652   22.5627 N   0  0  0  0  0  0  0  0  0  0  0  0
    9.8664  -16.4221   23.5545 C   0  0  1  0  0  0  0  0  0  0  0  0
   11.1515  -17.0616   23.1502 C   0  0  0  0  0  0  0  0  0  0  0  0
   12.2862  -16.0926   23.1987 C   0  0  0  0  0  0  0  0  0  0  0  0
   13.5607  -16.7632   22.8083 C   0  0  0  0  0  0  0  0  0  0  0  0
   13.5283  -17.9418   22.4219 O   0  0  0  0  0  0  0  0  0  0  0  0
   10.0000  -15.7998   24.8948 C   0  0  0  0  0  0  0  0  0  0  0  0
    9.9389  -14.4429   25.1495 O   0  0  0  0  0  0  0  0  0  0  0  0
   14.7363  -16.0629   22.8853 O   0  0  0  0  0  0  0  0  0  0  0  0
   10.1910  -16.5384   25.9237 O   0  0  0  0  0  0  0  0  0  0  0  0
  1  2  1  0
  2  4  1  0
  3  2  2  0
  4  5  1  0
  5  6  1  6
  7  5  1  0
  8  7  2  0
 10  9  1  6
 10 11  1  0
 12 10  1  0
 12 13  1  6
 13  7  1  0
 14 12  1  0
 14 15  2  0
 16 14  1  0
 17 16  1  0
 17 18  1  6
 19 18  1  0
 20 19  1  0
 21 20  2  0
 22 17  1  0
 22 23  1  0
 24 20  1  0
 25 22  2  0
M  END
$$$$
