NTE.pdb
     RDKit          3D

 25 24  0  0  1  0  0  0  0  0999 V2000
    9.1935  -19.2611   14.2025 N   0  0  0  0  0  0  0  0  0  0  0  0
    9.0856  -17.9933   13.6233 C   0  0  0  0  0  0  0  0  0  0  0  0
    8.4124  -17.9082   12.5520 O   0  0  0  0  0  0  0  0  0  0  0  0
    9.6675  -16.7452   14.1210 C   0  0  0  0  0  0  0  0  0  0  0  0
    8.7196  -15.8093   14.7922 C   0  0  2  0  0  0  0  0  0  0  0  0
    8.2812  -14.8615   13.7506 N   0  0  0  0  0  0  0  0  0  0  0  0
    9.3500  -14.9777   15.8475 C   0  0  0  0  0  0  0  0  0  0  0  0
   10.1629  -14.0315   15.6049 O   0  0  0  0  0  0  0  0  0  0  0  0
    7.4767  -13.0483   18.5079 C   0  0  0  0  0  0  0  0  0  0  0  0
    8.4630  -13.9625   19.1998 C   0  0  1  0  0  0  0  0  0  0  0  0
    7.8535  -15.0947   19.7171 O   0  0  0  0  0  0  0  0  0  0  0  0
    9.6141  -14.3351   18.2785 C   0  0  2  0  0  0  0  0  0  0  0  0
    9.0858  -15.1822   17.2361 N   0  0  0  0  0  0  0  0  0  0  0  0
   10.6075  -15.0713   19.1240 C   0  0  0  0  0  0  0  0  0  0  0  0
   10.7235  -16.3188   19.0315 O   0  0  0  0  0  0  0  0  0  0  0  0
   11.4380  -14.3874   20.0447 N   0  0  0  0  0  0  0  0  0  0  0  0
   12.3640  -15.1511   20.9068 C   0  0  1  0  0  0  0  0  0  0  0  0
   13.6330  -14.3714   20.9828 C   0  0  0  0  0  0  0  0  0  0  0  0
   14.7566  -15.0837   20.3053 C   0  0  0  0  0  0  0  0  0  0  0  0
   16.0243  -14.3093   20.4459 C   0  0  0  0  0  0  0  0  0  0  0  0
   16.4260  -14.0110   21.5813 O   0  0  0  0  0  0  0  0  0  0  0  0
   11.7619  -15.2879   22.2559 C   0  0  0  0  0  0  0  0  0  0  0  0
   12.2320  -16.1198   23.2543 O   0  0  0  0  0  0  0  0  0  0  0  0
   16.7149  -13.9457   19.3193 O   0  0  0  0  0  0  0  0  0  0  0  0
   10.7232  -14.6038   22.5620 O   0  0  0  0  0  0  0  0  0  0  0  0
  1  2  1  0
  2  4  1  0
  3  2  2  0
  4  5  1  0
  5  6  1  6
  7  5  1  0
  8  7  2  0
 10  9  1  6
 10 11  1  0
 12 10  1  0
 12 13  1  6
 13  7  1  0
 14 12  1  0
 14 15  2  0
 16 14  1  0
 17 16  1  0
 17 18  1  1
 19 18  1  0
 20 19  1  0
 21 20  2  0
 22 17  1  0
 22 23  1  0
 24 20  1  0
 25 22  2  0
M  END
$$$$
