NTE.pdb
     RDKit          3D

 25 24  0  0  1  0  0  0  0  0999 V2000
    6.2692  -17.3143   14.6149 N   0  0  0  0  0  0  0  0  0  0  0  0
    7.5655  -17.7093   14.9584 C   0  0  0  0  0  0  0  0  0  0  0  0
    7.9752  -18.8095   14.4791 O   0  0  0  0  0  0  0  0  0  0  0  0
    8.5081  -16.9876   15.8157 C   0  0  0  0  0  0  0  0  0  0  0  0
    8.7527  -17.5864   17.1597 C   0  0  2  0  0  0  0  0  0  0  0  0
    7.4271  -17.9748   17.6768 N   0  0  0  0  0  0  0  0  0  0  0  0
    9.3005  -16.6258   18.1495 C   0  0  0  0  0  0  0  0  0  0  0  0
   10.3594  -15.9491   17.9607 O   0  0  0  0  0  0  0  0  0  0  0  0
    7.3550  -13.8919   20.3871 C   0  0  0  0  0  0  0  0  0  0  0  0
    8.0857  -14.9266   21.2134 C   0  0  1  0  0  0  0  0  0  0  0  0
    7.2329  -15.9034   21.7029 O   0  0  0  0  0  0  0  0  0  0  0  0
    9.2357  -15.5465   20.4350 C   0  0  2  0  0  0  0  0  0  0  0  0
    8.6682  -16.3866   19.4077 N   0  0  0  0  0  0  0  0  0  0  0  0
   10.0238  -16.3531   21.4209 C   0  0  0  0  0  0  0  0  0  0  0  0
    9.7703  -17.5709   21.5964 O   0  0  0  0  0  0  0  0  0  0  0  0
   11.0692  -15.7703   22.1777 N   0  0  0  0  0  0  0  0  0  0  0  0
   11.9609  -16.6305   22.9833 C   0  0  1  0  0  0  0  0  0  0  0  0
   13.3360  -16.0656   22.8655 C   0  0  0  0  0  0  0  0  0  0  0  0
   14.3128  -16.8185   23.7068 C   0  0  0  0  0  0  0  0  0  0  0  0
   15.6855  -16.2578   23.5389 C   0  0  0  0  0  0  0  0  0  0  0  0
   16.3894  -16.6577   22.5987 O   0  0  0  0  0  0  0  0  0  0  0  0
   11.5104  -16.5991   24.3966 C   0  0  0  0  0  0  0  0  0  0  0  0
   11.8235  -17.5485   25.3508 O   0  0  0  0  0  0  0  0  0  0  0  0
   16.1365  -15.3153   24.4258 O   0  0  0  0  0  0  0  0  0  0  0  0
   10.7699  -15.6383   24.8077 O   0  0  0  0  0  0  0  0  0  0  0  0
  1  2  1  0
  2  4  1  0
  3  2  2  0
  4  5  1  0
  5  6  1  1
  7  5  1  0
  8  7  2  0
 10  9  1  6
 10 11  1  0
 12 10  1  0
 12 13  1  6
 13  7  1  0
 14 12  1  0
 14 15  2  0
 16 14  1  0
 17 16  1  0
 17 18  1  1
 19 18  1  0
 20 19  1  0
 21 20  2  0
 22 17  1  0
 22 23  1  0
 24 20  1  0
 25 22  2  0
M  END
$$$$
