NTE.pdb
     RDKit          3D

 25 24  0  0  1  0  0  0  0  0999 V2000
    6.0624  -20.1045   17.1458 N   0  0  0  0  0  0  0  0  0  0  0  0
    7.0933  -19.3603   16.5647 C   0  0  0  0  0  0  0  0  0  0  0  0
    7.2361  -19.4626   15.3089 O   0  0  0  0  0  0  0  0  0  0  0  0
    8.0316  -18.4699   17.2509 C   0  0  0  0  0  0  0  0  0  0  0  0
    7.7207  -17.0132   17.1711 C   0  0  2  0  0  0  0  0  0  0  0  0
    8.1290  -16.5858   15.8198 N   0  0  0  0  0  0  0  0  0  0  0  0
    8.5156  -16.1818   18.1089 C   0  0  0  0  0  0  0  0  0  0  0  0
    9.6254  -15.6435   17.8034 O   0  0  0  0  0  0  0  0  0  0  0  0
    7.3187  -13.1404   20.2481 C   0  0  0  0  0  0  0  0  0  0  0  0
    7.8612  -14.2390   21.1347 C   0  0  1  0  0  0  0  0  0  0  0  0
    6.8514  -14.9930   21.7116 O   0  0  0  0  0  0  0  0  0  0  0  0
    8.8419  -15.1250   20.3825 C   0  0  2  0  0  0  0  0  0  0  0  0
    8.0854  -15.9208   19.4456 N   0  0  0  0  0  0  0  0  0  0  0  0
    9.5058  -15.9860   21.4129 C   0  0  0  0  0  0  0  0  0  0  0  0
    9.1346  -17.1735   21.5871 O   0  0  0  0  0  0  0  0  0  0  0  0
   10.5628  -15.4898   22.2140 N   0  0  0  0  0  0  0  0  0  0  0  0
   11.2800  -16.4004   23.1307 C   0  0  1  0  0  0  0  0  0  0  0  0
   12.7322  -16.0821   23.0146 C   0  0  0  0  0  0  0  0  0  0  0  0
   13.5573  -16.9481   23.9081 C   0  0  0  0  0  0  0  0  0  0  0  0
   15.0057  -16.6231   23.7558 C   0  0  0  0  0  0  0  0  0  0  0  0
   15.3414  -15.4465   23.5503 O   0  0  0  0  0  0  0  0  0  0  0  0
   10.8083  -16.1568   24.5162 C   0  0  0  0  0  0  0  0  0  0  0  0
   11.0251  -17.0011   25.5885 O   0  0  0  0  0  0  0  0  0  0  0  0
   15.9307  -17.6304   23.8463 O   0  0  0  0  0  0  0  0  0  0  0  0
   10.1421  -15.0964   24.7848 O   0  0  0  0  0  0  0  0  0  0  0  0
  1  2  1  0
  2  4  1  0
  3  2  2  0
  4  5  1  0
  5  6  1  6
  7  5  1  0
  8  7  2  0
 10  9  1  6
 10 11  1  0
 12 10  1  0
 12 13  1  6
 13  7  1  0
 14 12  1  0
 14 15  2  0
 16 14  1  0
 17 16  1  0
 17 18  1  1
 19 18  1  0
 20 19  1  0
 21 20  2  0
 22 17  1  0
 22 23  1  0
 24 20  1  0
 25 22  2  0
M  END
$$$$
