PCW.pdb
     RDKit          3D

 28 30  0  0  1  0  0  0  0  0999 V2000
   27.9633  -20.5789  -15.5680 N   0  0  0  0  0  0  0  0  0  0  0  0
   27.8477  -19.2768  -16.2284 C   0  0  0  0  0  0  0  0  0  0  0  0
   28.9780  -18.4579  -15.6353 C   0  0  0  0  0  0  0  0  0  0  0  0
   29.4983  -19.2280  -14.4542 C   0  0  0  0  0  0  0  0  0  0  0  0
   28.4378  -20.2857  -14.2510 C   0  0  1  0  0  0  0  0  0  0  0  0
   27.3144  -19.8206  -13.4148 C   0  0  0  0  0  0  0  0  0  0  0  0
   26.9883  -18.6122  -13.4418 O   0  0  0  0  0  0  0  0  0  0  0  0
   26.5625  -20.6848  -12.5597 N   0  0  0  0  0  0  0  0  0  0  0  0
   25.5231  -20.1484  -11.7179 C   0  0  1  0  0  0  0  0  0  0  0  0
   24.1931  -20.2396  -12.4588 C   0  0  0  0  0  0  0  0  0  0  0  0
   23.9910  -21.9380  -13.0828 S   0  0  0  0  0  0  0  0  0  0  0  0
   25.3682  -20.9061  -10.4544 C   0  0  0  0  0  0  0  0  0  0  0  0
   25.6279  -22.1277  -10.4527 O   0  0  0  0  0  0  0  0  0  0  0  0
   24.9355  -20.2528   -9.2808 N   0  0  0  0  0  0  0  0  0  0  0  0
   24.6619  -20.9947   -8.0264 C   0  0  1  0  0  0  0  0  0  0  0  0
   25.2113  -20.1551   -6.9182 C   0  0  0  0  0  0  0  0  0  0  0  0
   26.6687  -19.9895   -6.8738 C   0  0  0  0  0  0  0  0  0  0  0  0
   27.4842  -20.0348   -7.9974 C   0  0  0  0  0  0  0  0  0  0  0  0
   28.7418  -19.8800   -7.5598 N   0  0  0  0  0  0  0  0  0  0  0  0
   28.7482  -19.7404   -6.2239 C   0  0  0  0  0  0  0  0  0  0  0  0
   29.7788  -19.5424   -5.3327 C   0  0  0  0  0  0  0  0  0  0  0  0
   29.4919  -19.4096   -3.9819 C   0  0  0  0  0  0  0  0  0  0  0  0
   28.2093  -19.4699   -3.5049 C   0  0  0  0  0  0  0  0  0  0  0  0
   27.1938  -19.6665   -4.3877 C   0  0  0  0  0  0  0  0  0  0  0  0
   27.4335  -19.8053   -5.7483 C   0  0  0  0  0  0  0  0  0  0  0  0
   23.2370  -21.2824   -7.8537 C   0  0  0  0  0  0  0  0  0  0  0  0
   22.4446  -20.6980   -8.6756 O   0  0  0  0  0  0  0  0  0  0  0  0
   22.7350  -22.1334   -6.8778 O   0  0  0  0  0  0  0  0  0  0  0  0
  1  5  1  0
  2  1  1  0
  2  3  1  0
  3  4  1  0
  5  4  1  0
  5  6  1  1
  6  7  2  0
  8  6  1  0
  9  8  1  0
  9 10  1  6
 11 10  1  0
 12  9  1  0
 13 12  2  0
 14 12  1  0
 15 14  1  0
 15 16  1  1
 17 16  1  0
 18 17  2  0
 19 20  1  0
 19 18  1  0
 20 25  2  0
 21 20  1  0
 21 22  2  0
 22 23  1  0
 23 24  2  0
 25 17  1  0
 25 24  1  0
 26 15  1  0
 27 26  2  0
 28 26  1  0
M  END
$$$$
