PCW.pdb
     RDKit          3D

 28 30  0  0  1  0  0  0  0  0999 V2000
   28.5093  -22.0185  -16.1497 N   0  0  0  0  0  0  0  0  0  0  0  0
   27.5012  -21.6408  -17.1428 C   0  0  0  0  0  0  0  0  0  0  0  0
   28.0589  -20.3815  -17.7777 C   0  0  0  0  0  0  0  0  0  0  0  0
   29.2079  -19.9345  -16.9181 C   0  0  0  0  0  0  0  0  0  0  0  0
   29.0449  -20.7799  -15.6758 C   0  0  1  0  0  0  0  0  0  0  0  0
   28.1179  -20.1860  -14.6934 C   0  0  0  0  0  0  0  0  0  0  0  0
   28.3178  -19.0181  -14.2890 O   0  0  0  0  0  0  0  0  0  0  0  0
   26.9839  -20.8784  -14.1662 N   0  0  0  0  0  0  0  0  0  0  0  0
   26.1254  -20.2376  -13.2023 C   0  0  1  0  0  0  0  0  0  0  0  0
   24.6822  -20.3371  -13.6854 C   0  0  0  0  0  0  0  0  0  0  0  0
   24.4774  -19.2505  -15.1318 S   0  0  0  0  0  0  0  0  0  0  0  0
   26.1827  -20.8859  -11.8715 C   0  0  0  0  0  0  0  0  0  0  0  0
   26.9668  -21.8437  -11.7049 O   0  0  0  0  0  0  0  0  0  0  0  0
   25.3644  -20.4241  -10.8187 N   0  0  0  0  0  0  0  0  0  0  0  0
   25.4273  -21.0151   -9.4602 C   0  0  1  0  0  0  0  0  0  0  0  0
   26.6908  -20.5070   -8.8436 C   0  0  0  0  0  0  0  0  0  0  0  0
   26.8235  -20.6550   -7.3897 C   0  0  0  0  0  0  0  0  0  0  0  0
   25.9786  -21.4389   -6.6144 C   0  0  0  0  0  0  0  0  0  0  0  0
   26.3875  -21.2971   -5.3457 N   0  0  0  0  0  0  0  0  0  0  0  0
   27.4422  -20.4668   -5.2943 C   0  0  0  0  0  0  0  0  0  0  0  0
   28.2086  -20.0306   -4.2370 C   0  0  0  0  0  0  0  0  0  0  0  0
   29.2720  -19.1730   -4.4779 C   0  0  0  0  0  0  0  0  0  0  0  0
   29.5847  -18.7444   -5.7408 C   0  0  0  0  0  0  0  0  0  0  0  0
   28.8252  -19.1765   -6.7827 C   0  0  0  0  0  0  0  0  0  0  0  0
   27.7509  -20.0346   -6.5892 C   0  0  0  0  0  0  0  0  0  0  0  0
   24.2460  -20.6882   -8.6598 C   0  0  0  0  0  0  0  0  0  0  0  0
   23.6527  -19.5914   -8.9600 O   0  0  0  0  0  0  0  0  0  0  0  0
   23.7623  -21.4915   -7.6354 O   0  0  0  0  0  0  0  0  0  0  0  0
  1  5  1  0
  2  1  1  0
  2  3  1  0
  3  4  1  0
  5  4  1  0
  5  6  1  1
  6  7  2  0
  8  6  1  0
  9  8  1  0
  9 10  1  6
 11 10  1  0
 12  9  1  0
 13 12  2  0
 14 12  1  0
 15 14  1  0
 15 16  1  1
 17 16  1  0
 18 17  2  0
 19 20  1  0
 19 18  1  0
 20 25  2  0
 21 20  1  0
 21 22  2  0
 22 23  1  0
 23 24  2  0
 25 17  1  0
 25 24  1  0
 26 15  1  0
 27 26  2  0
 28 26  1  0
M  END
$$$$
