PCW.pdb
     RDKit          3D

 28 30  0  0  1  0  0  0  0  0999 V2000
   27.3239  -18.6575  -16.6925 N   0  0  0  0  0  0  0  0  0  0  0  0
   27.6631  -17.2445  -16.5094 C   0  0  0  0  0  0  0  0  0  0  0  0
   29.0797  -17.2697  -15.9684 C   0  0  0  0  0  0  0  0  0  0  0  0
   29.3738  -18.6939  -15.5890 C   0  0  0  0  0  0  0  0  0  0  0  0
   28.0095  -19.3426  -15.6408 C   0  0  1  0  0  0  0  0  0  0  0  0
   27.2541  -19.1947  -14.3820 C   0  0  0  0  0  0  0  0  0  0  0  0
   27.6751  -18.4099  -13.5021 O   0  0  0  0  0  0  0  0  0  0  0  0
   26.0473  -19.9081  -14.1027 N   0  0  0  0  0  0  0  0  0  0  0  0
   25.3882  -19.7501  -12.8309 C   0  0  1  0  0  0  0  0  0  0  0  0
   23.8840  -19.8988  -13.0340 C   0  0  0  0  0  0  0  0  0  0  0  0
   23.2540  -18.3903  -13.8355 S   0  0  0  0  0  0  0  0  0  0  0  0
   25.7967  -20.7802  -11.8478 C   0  0  0  0  0  0  0  0  0  0  0  0
   25.7443  -21.9823  -12.1828 O   0  0  0  0  0  0  0  0  0  0  0  0
   26.2352  -20.4022  -10.5609 N   0  0  0  0  0  0  0  0  0  0  0  0
   26.2268  -21.3498   -9.4204 C   0  0  1  0  0  0  0  0  0  0  0  0
   27.5217  -21.1470   -8.7014 C   0  0  0  0  0  0  0  0  0  0  0  0
   27.5578  -20.0835   -7.6909 C   0  0  0  0  0  0  0  0  0  0  0  0
   26.8623  -18.8867   -7.8064 C   0  0  0  0  0  0  0  0  0  0  0  0
   27.1676  -18.1642   -6.7192 N   0  0  0  0  0  0  0  0  0  0  0  0
   28.0152  -18.8511   -5.9358 C   0  0  0  0  0  0  0  0  0  0  0  0
   28.5922  -18.5410   -4.7248 C   0  0  0  0  0  0  0  0  0  0  0  0
   29.4308  -19.4635   -4.1164 C   0  0  0  0  0  0  0  0  0  0  0  0
   29.7043  -20.6790   -4.6858 C   0  0  0  0  0  0  0  0  0  0  0  0
   29.1334  -20.9818   -5.8823 C   0  0  0  0  0  0  0  0  0  0  0  0
   28.2882  -20.0894   -6.5282 C   0  0  0  0  0  0  0  0  0  0  0  0
   25.0681  -21.1541   -8.5474 C   0  0  0  0  0  0  0  0  0  0  0  0
   24.9992  -21.9283   -7.5271 O   0  0  0  0  0  0  0  0  0  0  0  0
   24.0867  -20.1975   -8.7715 O   0  0  0  0  0  0  0  0  0  0  0  0
  1  5  1  0
  2  1  1  0
  2  3  1  0
  3  4  1  0
  5  4  1  0
  5  6  1  1
  6  7  2  0
  8  6  1  0
  9  8  1  0
  9 10  1  6
 11 10  1  0
 12  9  1  0
 13 12  2  0
 14 12  1  0
 15 14  1  0
 15 16  1  1
 17 16  1  0
 18 17  2  0
 19 20  1  0
 19 18  1  0
 20 25  2  0
 21 20  1  0
 21 22  2  0
 22 23  1  0
 23 24  2  0
 25 17  1  0
 25 24  1  0
 26 15  1  0
 27 26  2  0
 28 26  1  0
M  END
$$$$
