PCW.pdb
     RDKit          3D

 28 30  0  0  1  0  0  0  0  0999 V2000
   18.4961  -11.9052  -20.1090 N   0  0  0  0  0  0  0  0  0  0  0  0
   19.4992  -11.9408  -19.0424 C   0  0  0  0  0  0  0  0  0  0  0  0
   20.2635  -13.2262  -19.2941 C   0  0  0  0  0  0  0  0  0  0  0  0
   19.4754  -14.0084  -20.3068 C   0  0  0  0  0  0  0  0  0  0  0  0
   18.1545  -13.2743  -20.3423 C   0  0  1  0  0  0  0  0  0  0  0  0
   17.2141  -13.7318  -19.3014 C   0  0  0  0  0  0  0  0  0  0  0  0
   17.4843  -13.5255  -18.0965 O   0  0  0  0  0  0  0  0  0  0  0  0
   15.9896  -14.4093  -19.5932 N   0  0  0  0  0  0  0  0  0  0  0  0
   15.1134  -14.8180  -18.5246 C   0  0  1  0  0  0  0  0  0  0  0  0
   13.6792  -14.4599  -18.8995 C   0  0  0  0  0  0  0  0  0  0  0  0
   13.4633  -12.6611  -18.7189 S   0  0  0  0  0  0  0  0  0  0  0  0
   15.1478  -16.2803  -18.2900 C   0  0  0  0  0  0  0  0  0  0  0  0
   15.0234  -17.0471  -19.2680 O   0  0  0  0  0  0  0  0  0  0  0  0
   15.3183  -16.7882  -16.9844 N   0  0  0  0  0  0  0  0  0  0  0  0
   15.3947  -18.2441  -16.7138 C   0  0  1  0  0  0  0  0  0  0  0  0
   16.7164  -18.4760  -16.0549 C   0  0  0  0  0  0  0  0  0  0  0  0
   17.9060  -18.3888  -16.9097 C   0  0  0  0  0  0  0  0  0  0  0  0
   18.9050  -17.4377  -16.7455 C   0  0  0  0  0  0  0  0  0  0  0  0
   19.7963  -17.6510  -17.7237 N   0  0  0  0  0  0  0  0  0  0  0  0
   19.4023  -18.6851  -18.4851 C   0  0  0  0  0  0  0  0  0  0  0  0
   19.9819  -19.2834  -19.5813 C   0  0  0  0  0  0  0  0  0  0  0  0
   19.3543  -20.3700  -20.1726 C   0  0  0  0  0  0  0  0  0  0  0  0
   18.1701  -20.8686  -19.6978 C   0  0  0  0  0  0  0  0  0  0  0  0
   17.5998  -20.2748  -18.6155 C   0  0  0  0  0  0  0  0  0  0  0  0
   18.1915  -19.1846  -17.9917 C   0  0  0  0  0  0  0  0  0  0  0  0
   14.2746  -18.7141  -15.8967 C   0  0  0  0  0  0  0  0  0  0  0  0
   13.5131  -17.8021  -15.4135 O   0  0  0  0  0  0  0  0  0  0  0  0
   14.0149  -20.0544  -15.6421 O   0  0  0  0  0  0  0  0  0  0  0  0
  1  5  1  0
  2  1  1  0
  2  3  1  0
  3  4  1  0
  5  4  1  0
  5  6  1  1
  6  7  2  0
  8  6  1  0
  9  8  1  0
  9 10  1  6
 11 10  1  0
 12  9  1  0
 13 12  2  0
 14 12  1  0
 15 14  1  0
 15 16  1  1
 17 16  1  0
 18 17  2  0
 19 20  1  0
 19 18  1  0
 20 25  2  0
 21 20  1  0
 21 22  2  0
 22 23  1  0
 23 24  2  0
 25 17  1  0
 25 24  1  0
 26 15  1  0
 27 26  2  0
 28 26  1  0
M  END
$$$$
