PCW.pdb
     RDKit          3D

 28 30  0  0  1  0  0  0  0  0999 V2000
   28.4982  -20.0503  -16.5275 N   0  0  0  0  0  0  0  0  0  0  0  0
   27.5841  -19.2373  -17.3327 C   0  0  0  0  0  0  0  0  0  0  0  0
   28.2348  -17.8678  -17.3643 C   0  0  0  0  0  0  0  0  0  0  0  0
   29.3299  -17.8840  -16.3351 C   0  0  0  0  0  0  0  0  0  0  0  0
   29.0410  -19.1485  -15.5591 C   0  0  1  0  0  0  0  0  0  0  0  0
   28.0636  -18.9458  -14.4724 C   0  0  0  0  0  0  0  0  0  0  0  0
   28.2491  -18.0259  -13.6437 O   0  0  0  0  0  0  0  0  0  0  0  0
   26.8955  -19.7531  -14.3070 N   0  0  0  0  0  0  0  0  0  0  0  0
   26.0132  -19.5330  -13.1890 C   0  0  1  0  0  0  0  0  0  0  0  0
   24.5728  -19.5362  -13.6904 C   0  0  0  0  0  0  0  0  0  0  0  0
   23.4597  -19.3510  -12.2616 S   0  0  0  0  0  0  0  0  0  0  0  0
   26.1180  -20.5981  -12.1648 C   0  0  0  0  0  0  0  0  0  0  0  0
   26.0968  -21.7904  -12.5360 O   0  0  0  0  0  0  0  0  0  0  0  0
   26.2392  -20.2634  -10.7992 N   0  0  0  0  0  0  0  0  0  0  0  0
   26.2297  -21.2963   -9.7354 C   0  0  1  0  0  0  0  0  0  0  0  0
   27.4887  -21.1000   -8.9536 C   0  0  0  0  0  0  0  0  0  0  0  0
   27.4642  -20.0710   -7.9077 C   0  0  0  0  0  0  0  0  0  0  0  0
   26.6880  -18.9210   -7.9758 C   0  0  0  0  0  0  0  0  0  0  0  0
   26.9561  -18.2163   -6.8674 N   0  0  0  0  0  0  0  0  0  0  0  0
   27.8572  -18.8697   -6.1157 C   0  0  0  0  0  0  0  0  0  0  0  0
   28.4258  -18.5617   -4.9002 C   0  0  0  0  0  0  0  0  0  0  0  0
   29.3318  -19.4449   -4.3314 C   0  0  0  0  0  0  0  0  0  0  0  0
   29.6804  -20.6192   -4.9444 C   0  0  0  0  0  0  0  0  0  0  0  0
   29.1177  -20.9199   -6.1453 C   0  0  0  0  0  0  0  0  0  0  0  0
   28.2067  -20.0661   -6.7526 C   0  0  0  0  0  0  0  0  0  0  0  0
   25.0336  -21.2139   -8.8954 C   0  0  0  0  0  0  0  0  0  0  0  0
   24.2617  -20.2140   -9.1176 O   0  0  0  0  0  0  0  0  0  0  0  0
   24.7156  -22.1428   -7.9133 O   0  0  0  0  0  0  0  0  0  0  0  0
  1  5  1  0
  2  1  1  0
  2  3  1  0
  3  4  1  0
  5  4  1  0
  5  6  1  1
  6  7  2  0
  8  6  1  0
  9  8  1  0
  9 10  1  6
 11 10  1  0
 12  9  1  0
 13 12  2  0
 14 12  1  0
 15 14  1  0
 15 16  1  1
 17 16  1  0
 18 17  2  0
 19 20  1  0
 19 18  1  0
 20 25  2  0
 21 20  1  0
 21 22  2  0
 22 23  1  0
 23 24  2  0
 25 17  1  0
 25 24  1  0
 26 15  1  0
 27 26  2  0
 28 26  1  0
M  END
$$$$
