PCW.pdb
     RDKit          3D

 28 30  0  0  1  0  0  0  0  0999 V2000
   26.4019  -21.9461  -16.6324 N   0  0  0  0  0  0  0  0  0  0  0  0
   26.2519  -20.6875  -17.3661 C   0  0  0  0  0  0  0  0  0  0  0  0
   27.6730  -20.2893  -17.7151 C   0  0  0  0  0  0  0  0  0  0  0  0
   28.5818  -21.1774  -16.9126 C   0  0  0  0  0  0  0  0  0  0  0  0
   27.6359  -21.8158  -15.9213 C   0  0  1  0  0  0  0  0  0  0  0  0
   27.4250  -20.9923  -14.7152 C   0  0  0  0  0  0  0  0  0  0  0  0
   28.3834  -20.3408  -14.2416 O   0  0  0  0  0  0  0  0  0  0  0  0
   26.1673  -20.8927  -14.0432 N   0  0  0  0  0  0  0  0  0  0  0  0
   26.0533  -20.1315  -12.8248 C   0  0  1  0  0  0  0  0  0  0  0  0
   24.6790  -19.4715  -12.7834 C   0  0  0  0  0  0  0  0  0  0  0  0
   23.4082  -20.7753  -12.7793 S   0  0  0  0  0  0  0  0  0  0  0  0
   26.1645  -20.9777  -11.6141 C   0  0  0  0  0  0  0  0  0  0  0  0
   25.9048  -22.1957  -11.7085 O   0  0  0  0  0  0  0  0  0  0  0  0
   26.5567  -20.4109  -10.3827 N   0  0  0  0  0  0  0  0  0  0  0  0
   26.6835  -21.2254   -9.1501 C   0  0  1  0  0  0  0  0  0  0  0  0
   27.9587  -20.7973   -8.4979 C   0  0  0  0  0  0  0  0  0  0  0  0
   27.8430  -19.8861   -7.3535 C   0  0  0  0  0  0  0  0  0  0  0  0
   27.0278  -18.7614   -7.3431 C   0  0  0  0  0  0  0  0  0  0  0  0
   27.2133  -18.1695   -6.1547 N   0  0  0  0  0  0  0  0  0  0  0  0
   28.1002  -18.8690   -5.4279 C   0  0  0  0  0  0  0  0  0  0  0  0
   28.5954  -18.6730   -4.1582 C   0  0  0  0  0  0  0  0  0  0  0  0
   29.5050  -19.5812   -3.6367 C   0  0  0  0  0  0  0  0  0  0  0  0
   29.9283  -20.6720   -4.3490 C   0  0  0  0  0  0  0  0  0  0  0  0
   29.4379  -20.8623   -5.6031 C   0  0  0  0  0  0  0  0  0  0  0  0
   28.5263  -19.9792   -6.1661 C   0  0  0  0  0  0  0  0  0  0  0  0
   25.5269  -21.0736   -8.2656 C   0  0  0  0  0  0  0  0  0  0  0  0
   24.6912  -20.1562   -8.5899 O   0  0  0  0  0  0  0  0  0  0  0  0
   25.3087  -21.8574   -7.1403 O   0  0  0  0  0  0  0  0  0  0  0  0
  1  5  1  0
  2  1  1  0
  2  3  1  0
  3  4  1  0
  5  4  1  0
  5  6  1  1
  6  7  2  0
  8  6  1  0
  9  8  1  0
  9 10  1  6
 11 10  1  0
 12  9  1  0
 13 12  2  0
 14 12  1  0
 15 14  1  0
 15 16  1  1
 17 16  1  0
 18 17  2  0
 19 20  1  0
 19 18  1  0
 20 25  2  0
 21 20  1  0
 21 22  2  0
 22 23  1  0
 23 24  2  0
 25 17  1  0
 25 24  1  0
 26 15  1  0
 27 26  2  0
 28 26  1  0
M  END
$$$$
