PCW.pdb
     RDKit          3D

 28 30  0  0  1  0  0  0  0  0999 V2000
   40.5831  -29.2544    2.6597 N   0  0  0  0  0  0  0  0  0  0  0  0
   40.3074  -28.6356    1.3612 C   0  0  0  0  0  0  0  0  0  0  0  0
   40.9798  -27.2789    1.4461 C   0  0  0  0  0  0  0  0  0  0  0  0
   41.3508  -27.0679    2.8871 C   0  0  0  0  0  0  0  0  0  0  0  0
   40.5937  -28.1700    3.5922 C   0  0  1  0  0  0  0  0  0  0  0  0
   39.2066  -27.7930    3.9253 C   0  0  0  0  0  0  0  0  0  0  0  0
   38.4926  -27.2476    3.0534 O   0  0  0  0  0  0  0  0  0  0  0  0
   38.6190  -28.0179    5.2088 N   0  0  0  0  0  0  0  0  0  0  0  0
   37.2291  -27.7112    5.4350 C   0  0  1  0  0  0  0  0  0  0  0  0
   36.6638  -28.7042    6.4452 C   0  0  0  0  0  0  0  0  0  0  0  0
   36.5478  -30.3385    5.6511 S   0  0  0  0  0  0  0  0  0  0  0  0
   37.0315  -26.3568    6.0013 C   0  0  0  0  0  0  0  0  0  0  0  0
   37.8241  -25.9523    6.8778 O   0  0  0  0  0  0  0  0  0  0  0  0
   35.9665  -25.5462    5.5538 N   0  0  0  0  0  0  0  0  0  0  0  0
   35.6863  -24.2191    6.1529 C   0  0  1  0  0  0  0  0  0  0  0  0
   34.9573  -23.4366    5.1084 C   0  0  0  0  0  0  0  0  0  0  0  0
   34.4174  -22.1339    5.5144 C   0  0  0  0  0  0  0  0  0  0  0  0
   34.8840  -21.4124    6.6058 C   0  0  0  0  0  0  0  0  0  0  0  0
   34.1314  -20.3055    6.6786 N   0  0  0  0  0  0  0  0  0  0  0  0
   33.2233  -20.3029    5.6889 C   0  0  0  0  0  0  0  0  0  0  0  0
   32.2540  -19.3885    5.3432 C   0  0  0  0  0  0  0  0  0  0  0  0
   31.4514  -19.6349    4.2388 C   0  0  0  0  0  0  0  0  0  0  0  0
   31.5937  -20.7652    3.4782 C   0  0  0  0  0  0  0  0  0  0  0  0
   32.5516  -21.6668    3.8229 C   0  0  0  0  0  0  0  0  0  0  0  0
   33.3774  -21.4624    4.9203 C   0  0  0  0  0  0  0  0  0  0  0  0
   34.9279  -24.3248    7.4006 C   0  0  0  0  0  0  0  0  0  0  0  0
   35.3959  -23.6669    8.3972 O   0  0  0  0  0  0  0  0  0  0  0  0
   33.7669  -25.0746    7.5361 O   0  0  0  0  0  0  0  0  0  0  0  0
  1  5  1  0
  2  1  1  0
  2  3  1  0
  3  4  1  0
  5  4  1  0
  5  6  1  6
  6  7  2  0
  8  6  1  0
  9  8  1  0
  9 10  1  1
 11 10  1  0
 12  9  1  0
 13 12  2  0
 14 12  1  0
 15 14  1  0
 15 16  1  6
 17 16  1  0
 18 17  2  0
 19 20  1  0
 19 18  1  0
 20 25  2  0
 21 20  1  0
 21 22  2  0
 22 23  1  0
 23 24  2  0
 25 17  1  0
 25 24  1  0
 26 15  1  0
 27 26  2  0
 28 26  1  0
M  END
$$$$
