PCW.pdb
     RDKit          3D

 28 30  0  0  1  0  0  0  0  0999 V2000
   28.3501  -19.4814  -16.9112 N   0  0  0  0  0  0  0  0  0  0  0  0
   27.8280  -18.1807  -17.3361 C   0  0  0  0  0  0  0  0  0  0  0  0
   28.6062  -17.1786  -16.5054 C   0  0  0  0  0  0  0  0  0  0  0  0
   29.3196  -17.9606  -15.4385 C   0  0  0  0  0  0  0  0  0  0  0  0
   28.6641  -19.3199  -15.5253 C   0  0  1  0  0  0  0  0  0  0  0  0
   27.4276  -19.4143  -14.7257 C   0  0  0  0  0  0  0  0  0  0  0  0
   26.7516  -18.3815  -14.5164 O   0  0  0  0  0  0  0  0  0  0  0  0
   26.9470  -20.6384  -14.1655 N   0  0  0  0  0  0  0  0  0  0  0  0
   25.7581  -20.6468  -13.3511 C   0  0  1  0  0  0  0  0  0  0  0  0
   24.7868  -21.6822  -13.9085 C   0  0  0  0  0  0  0  0  0  0  0  0
   25.6453  -23.2839  -14.0195 S   0  0  0  0  0  0  0  0  0  0  0  0
   26.0351  -21.0248  -11.9458 C   0  0  0  0  0  0  0  0  0  0  0  0
   26.7926  -21.9928  -11.7240 O   0  0  0  0  0  0  0  0  0  0  0  0
   25.4509  -20.3003  -10.8851 N   0  0  0  0  0  0  0  0  0  0  0  0
   25.3260  -20.8703   -9.5220 C   0  0  1  0  0  0  0  0  0  0  0  0
   26.0181  -19.9131   -8.6057 C   0  0  0  0  0  0  0  0  0  0  0  0
   27.3323  -20.3194   -8.0946 C   0  0  0  0  0  0  0  0  0  0  0  0
   28.1666  -21.2208   -8.7434 C   0  0  0  0  0  0  0  0  0  0  0  0
   29.2479  -21.3653   -7.9644 N   0  0  0  0  0  0  0  0  0  0  0  0
   29.1276  -20.5999   -6.8671 C   0  0  0  0  0  0  0  0  0  0  0  0
   29.9715  -20.4001   -5.7978 C   0  0  0  0  0  0  0  0  0  0  0  0
   29.5968  -19.5205   -4.7926 C   0  0  0  0  0  0  0  0  0  0  0  0
   28.4076  -18.8417   -4.8307 C   0  0  0  0  0  0  0  0  0  0  0  0
   27.5761  -19.0421   -5.8879 C   0  0  0  0  0  0  0  0  0  0  0  0
   27.9091  -19.9131   -6.9166 C   0  0  0  0  0  0  0  0  0  0  0  0
   23.9301  -21.0948   -9.1422 C   0  0  0  0  0  0  0  0  0  0  0  0
   23.7427  -21.6397   -7.9964 O   0  0  0  0  0  0  0  0  0  0  0  0
   22.8484  -20.7482   -9.9412 O   0  0  0  0  0  0  0  0  0  0  0  0
  1  5  1  0
  2  1  1  0
  2  3  1  0
  3  4  1  0
  5  4  1  0
  5  6  1  1
  6  7  2  0
  8  6  1  0
  9  8  1  0
  9 10  1  6
 11 10  1  0
 12  9  1  0
 13 12  2  0
 14 12  1  0
 15 14  1  0
 15 16  1  1
 17 16  1  0
 18 17  2  0
 19 20  1  0
 19 18  1  0
 20 25  2  0
 21 20  1  0
 21 22  2  0
 22 23  1  0
 23 24  2  0
 25 17  1  0
 25 24  1  0
 26 15  1  0
 27 26  2  0
 28 26  1  0
M  END
$$$$
