PCW.pdb
     RDKit          3D

 28 30  0  0  1  0  0  0  0  0999 V2000
   29.2572  -17.8910  -18.5873 N   0  0  0  0  0  0  0  0  0  0  0  0
   29.4929  -16.5052  -18.1765 C   0  0  0  0  0  0  0  0  0  0  0  0
   30.6164  -16.6044  -17.1625 C   0  0  0  0  0  0  0  0  0  0  0  0
   30.7664  -18.0606  -16.8224 C   0  0  0  0  0  0  0  0  0  0  0  0
   29.5206  -18.6737  -17.4196 C   0  0  1  0  0  0  0  0  0  0  0  0
   28.3580  -18.6126  -16.5130 C   0  0  0  0  0  0  0  0  0  0  0  0
   27.9466  -17.4986  -16.1167 O   0  0  0  0  0  0  0  0  0  0  0  0
   27.6608  -19.7722  -16.0519 N   0  0  0  0  0  0  0  0  0  0  0  0
   26.5156  -19.6351  -15.1878 C   0  0  1  0  0  0  0  0  0  0  0  0
   25.2802  -19.3784  -16.0445 C   0  0  0  0  0  0  0  0  0  0  0  0
   25.0843  -20.7624  -17.2111 S   0  0  0  0  0  0  0  0  0  0  0  0
   26.2493  -20.8606  -14.3994 C   0  0  0  0  0  0  0  0  0  0  0  0
   26.5677  -21.9664  -14.8850 O   0  0  0  0  0  0  0  0  0  0  0  0
   25.6476  -20.7714  -13.1260 N   0  0  0  0  0  0  0  0  0  0  0  0
   24.8637  -21.8903  -12.5496 C   0  0  1  0  0  0  0  0  0  0  0  0
   25.6292  -22.3630  -11.3558 C   0  0  0  0  0  0  0  0  0  0  0  0
   26.0277  -21.3430  -10.3790 C   0  0  0  0  0  0  0  0  0  0  0  0
   25.1303  -20.5024   -9.7327 C   0  0  0  0  0  0  0  0  0  0  0  0
   25.8619  -19.6939   -8.9530 N   0  0  0  0  0  0  0  0  0  0  0  0
   27.1658  -19.9900   -9.0817 C   0  0  0  0  0  0  0  0  0  0  0  0
   28.2853  -19.4570   -8.4833 C   0  0  0  0  0  0  0  0  0  0  0  0
   29.5332  -19.9784   -8.7919 C   0  0  0  0  0  0  0  0  0  0  0  0
   29.6871  -21.0117   -9.6778 C   0  0  0  0  0  0  0  0  0  0  0  0
   28.5794  -21.5353  -10.2678 C   0  0  0  0  0  0  0  0  0  0  0  0
   27.3104  -21.0451   -9.9898 C   0  0  0  0  0  0  0  0  0  0  0  0
   23.4962  -21.4911  -12.2124 C   0  0  0  0  0  0  0  0  0  0  0  0
   22.7011  -22.4420  -11.8826 O   0  0  0  0  0  0  0  0  0  0  0  0
   23.0502  -20.1761  -12.2303 O   0  0  0  0  0  0  0  0  0  0  0  0
  1  5  1  0
  2  1  1  0
  2  3  1  0
  3  4  1  0
  5  4  1  0
  5  6  1  1
  6  7  2  0
  8  6  1  0
  9  8  1  0
  9 10  1  6
 11 10  1  0
 12  9  1  0
 13 12  2  0
 14 12  1  0
 15 14  1  0
 15 16  1  1
 17 16  1  0
 18 17  2  0
 19 20  1  0
 19 18  1  0
 20 25  2  0
 21 20  1  0
 21 22  2  0
 22 23  1  0
 23 24  2  0
 25 17  1  0
 25 24  1  0
 26 15  1  0
 27 26  2  0
 28 26  1  0
M  END
$$$$
