PCW.pdb
     RDKit          3D

 28 30  0  0  1  0  0  0  0  0999 V2000
   28.9903  -26.8866  -17.4837 N   0  0  0  0  0  0  0  0  0  0  0  0
   27.8919  -26.7724  -18.4457 C   0  0  0  0  0  0  0  0  0  0  0  0
   26.6449  -26.7375  -17.5833 C   0  0  0  0  0  0  0  0  0  0  0  0
   27.0662  -27.1310  -16.1954 C   0  0  0  0  0  0  0  0  0  0  0  0
   28.4622  -27.6695  -16.4096 C   0  0  1  0  0  0  0  0  0  0  0  0
   28.4769  -29.0962  -16.7862 C   0  0  0  0  0  0  0  0  0  0  0  0
   28.3866  -29.4131  -17.9939 O   0  0  0  0  0  0  0  0  0  0  0  0
   28.5904  -30.1575  -15.8354 N   0  0  0  0  0  0  0  0  0  0  0  0
   28.6617  -31.5264  -16.2803 C   0  0  1  0  0  0  0  0  0  0  0  0
   29.4524  -32.3359  -15.2577 C   0  0  0  0  0  0  0  0  0  0  0  0
   29.5646  -34.0572  -15.8405 S   0  0  0  0  0  0  0  0  0  0  0  0
   27.3261  -32.1570  -16.3933 C   0  0  0  0  0  0  0  0  0  0  0  0
   26.5404  -32.0736  -15.4261 O   0  0  0  0  0  0  0  0  0  0  0  0
   26.9570  -32.8365  -17.5738 N   0  0  0  0  0  0  0  0  0  0  0  0
   25.6134  -33.4404  -17.7429 C   0  0  1  0  0  0  0  0  0  0  0  0
   24.9034  -32.5991  -18.7543 C   0  0  0  0  0  0  0  0  0  0  0  0
   25.4240  -32.6330  -20.1258 C   0  0  0  0  0  0  0  0  0  0  0  0
   25.5552  -33.7973  -20.8719 C   0  0  0  0  0  0  0  0  0  0  0  0
   26.0912  -33.4368  -22.0465 N   0  0  0  0  0  0  0  0  0  0  0  0
   26.2983  -32.1098  -22.0676 C   0  0  0  0  0  0  0  0  0  0  0  0
   26.8056  -31.2815  -23.0434 C   0  0  0  0  0  0  0  0  0  0  0  0
   26.8910  -29.9186  -22.7997 C   0  0  0  0  0  0  0  0  0  0  0  0
   26.4845  -29.3685  -21.6128 C   0  0  0  0  0  0  0  0  0  0  0  0
   25.9847  -30.1895  -20.6509 C   0  0  0  0  0  0  0  0  0  0  0  0
   25.8812  -31.5597  -20.8502 C   0  0  0  0  0  0  0  0  0  0  0  0
   25.6857  -34.8474  -18.1405 C   0  0  0  0  0  0  0  0  0  0  0  0
   24.5840  -35.5019  -18.0849 O   0  0  0  0  0  0  0  0  0  0  0  0
   26.8527  -35.4703  -18.5631 O   0  0  0  0  0  0  0  0  0  0  0  0
  1  5  1  0
  2  1  1  0
  2  3  1  0
  3  4  1  0
  5  4  1  0
  5  6  1  6
  6  7  2  0
  8  6  1  0
  9  8  1  0
  9 10  1  1
 11 10  1  0
 12  9  1  0
 13 12  2  0
 14 12  1  0
 15 14  1  0
 15 16  1  6
 17 16  1  0
 18 17  2  0
 19 20  1  0
 19 18  1  0
 20 25  2  0
 21 20  1  0
 21 22  2  0
 22 23  1  0
 23 24  2  0
 25 17  1  0
 25 24  1  0
 26 15  1  0
 27 26  2  0
 28 26  1  0
M  END
$$$$
