PCW.pdb
     RDKit          3D

 28 30  0  0  1  0  0  0  0  0999 V2000
   27.6169  -19.0942  -17.0972 N   0  0  0  0  0  0  0  0  0  0  0  0
   27.3833  -17.6549  -17.2342 C   0  0  0  0  0  0  0  0  0  0  0  0
   28.5600  -17.0180  -16.5204 C   0  0  0  0  0  0  0  0  0  0  0  0
   29.2491  -18.1139  -15.7569 C   0  0  0  0  0  0  0  0  0  0  0  0
   28.2513  -19.2472  -15.8245 C   0  0  1  0  0  0  0  0  0  0  0  0
   27.2350  -19.1833  -14.7566 C   0  0  0  0  0  0  0  0  0  0  0  0
   26.8185  -18.0672  -14.3717 O   0  0  0  0  0  0  0  0  0  0  0  0
   26.6877  -20.3423  -14.1238 N   0  0  0  0  0  0  0  0  0  0  0  0
   25.7142  -20.2031  -13.0704 C   0  0  1  0  0  0  0  0  0  0  0  0
   24.4708  -21.0053  -13.4398 C   0  0  0  0  0  0  0  0  0  0  0  0
   24.9573  -22.7385  -13.7121 S   0  0  0  0  0  0  0  0  0  0  0  0
   26.2008  -20.7300  -11.7743 C   0  0  0  0  0  0  0  0  0  0  0  0
   26.9048  -21.7617  -11.7733 O   0  0  0  0  0  0  0  0  0  0  0  0
   25.8710  -20.0733  -10.5696 N   0  0  0  0  0  0  0  0  0  0  0  0
   26.1704  -20.6688   -9.2450 C   0  0  1  0  0  0  0  0  0  0  0  0
   26.9456  -19.6369   -8.4906 C   0  0  0  0  0  0  0  0  0  0  0  0
   27.9742  -20.1273   -7.5660 C   0  0  0  0  0  0  0  0  0  0  0  0
   28.7872  -21.2226   -7.8280 C   0  0  0  0  0  0  0  0  0  0  0  0
   29.5664  -21.3834   -6.7491 N   0  0  0  0  0  0  0  0  0  0  0  0
   29.2792  -20.4445   -5.8325 C   0  0  0  0  0  0  0  0  0  0  0  0
   29.8128  -20.1909   -4.5889 C   0  0  0  0  0  0  0  0  0  0  0  0
   29.3307  -19.1212   -3.8488 C   0  0  0  0  0  0  0  0  0  0  0  0
   28.3355  -18.3056   -4.3188 C   0  0  0  0  0  0  0  0  0  0  0  0
   27.8102  -18.5594   -5.5471 C   0  0  0  0  0  0  0  0  0  0  0  0
   28.2609  -19.6191   -6.3229 C   0  0  0  0  0  0  0  0  0  0  0  0
   24.9572  -21.0819   -8.5375 C   0  0  0  0  0  0  0  0  0  0  0  0
   23.8499  -20.6755   -9.0414 O   0  0  0  0  0  0  0  0  0  0  0  0
   24.9620  -21.8690   -7.3935 O   0  0  0  0  0  0  0  0  0  0  0  0
  1  5  1  0
  2  1  1  0
  2  3  1  0
  3  4  1  0
  5  4  1  0
  5  6  1  1
  6  7  2  0
  8  6  1  0
  9  8  1  0
  9 10  1  6
 11 10  1  0
 12  9  1  0
 13 12  2  0
 14 12  1  0
 15 14  1  0
 15 16  1  1
 17 16  1  0
 18 17  2  0
 19 20  1  0
 19 18  1  0
 20 25  2  0
 21 20  1  0
 21 22  2  0
 22 23  1  0
 23 24  2  0
 25 17  1  0
 25 24  1  0
 26 15  1  0
 27 26  2  0
 28 26  1  0
M  END
$$$$
