KLV.pdb
     RDKit          3D

 25 24  0  0  1  0  0  0  0  0999 V2000
    6.5474  -15.8637   20.7309 N   0  0  0  0  0  0  0  0  0  0  0  0
    7.9882  -16.0028   20.7384 C   0  0  1  0  0  0  0  0  0  0  0  0
    8.5467  -15.2558   19.5225 C   0  0  0  0  0  0  0  0  0  0  0  0
    8.0889  -15.9949   18.3105 C   0  0  0  0  0  0  0  0  0  0  0  0
    8.9919  -17.1230   17.9034 C   0  0  0  0  0  0  0  0  0  0  0  0
    8.5513  -17.8343   16.6676 C   0  0  0  0  0  0  0  0  0  0  0  0
    9.5119  -18.8901   16.3587 N   0  0  0  0  0  0  0  0  0  0  0  0
    8.4995  -15.4136   21.9948 C   0  0  0  0  0  0  0  0  0  0  0  0
    9.7385  -15.3356   22.2474 O   0  0  0  0  0  0  0  0  0  0  0  0
    6.1543  -12.4841   26.9062 C   0  0  0  0  0  0  0  0  0  0  0  0
    7.4338  -13.0963   26.3145 C   0  0  2  0  0  0  0  0  0  0  0  0
    8.4799  -12.0304   26.4014 C   0  0  0  0  0  0  0  0  0  0  0  0
    7.0852  -13.5608   24.9488 C   0  0  0  0  0  0  0  0  0  0  0  0
    8.0605  -14.4751   24.2886 C   0  0  2  0  0  0  0  0  0  0  0  0
    7.6215  -14.9085   22.9755 N   0  0  0  0  0  0  0  0  0  0  0  0
    8.4498  -15.5977   25.1698 C   0  0  0  0  0  0  0  0  0  0  0  0
    7.5716  -16.4264   25.5856 O   0  0  0  0  0  0  0  0  0  0  0  0
   11.2985  -17.8228   24.0693 C   0  0  0  0  0  0  0  0  0  0  0  0
   11.4388  -17.6153   25.5475 C   0  0  2  0  0  0  0  0  0  0  0  0
   11.9039  -18.8682   26.2438 C   0  0  0  0  0  0  0  0  0  0  0  0
   10.1509  -17.1042   26.1784 C   0  0  2  0  0  0  0  0  0  0  0  0
    9.7750  -15.8300   25.5994 N   0  0  0  0  0  0  0  0  0  0  0  0
   10.4314  -16.9468   27.6154 C   0  0  0  0  0  0  0  0  0  0  0  0
   10.4283  -18.0069   28.4872 O   0  0  0  0  0  0  0  0  0  0  0  0
   10.6862  -15.8055   28.0876 O   0  0  0  0  0  0  0  0  0  0  0  0
  2  3  1  0
  2  1  1  1
  4  3  1  0
  4  5  1  0
  6  5  1  0
  6  7  1  0
  8  2  1  0
  9  8  2  0
 11 10  1  6
 11 13  1  0
 12 11  1  0
 14 13  1  1
 14 15  1  0
 15  8  1  0
 16 14  1  0
 16 17  2  0
 19 18  1  6
 19 21  1  0
 20 19  1  0
 21 22  1  6
 22 16  1  0
 23 21  1  0
 24 23  1  0
 25 23  2  0
M  END
$$$$
