KLV.pdb
     RDKit          3D

 25 24  0  0  1  0  0  0  0  0999 V2000
    9.0220  -15.3617   19.6922 N   0  0  0  0  0  0  0  0  0  0  0  0
    7.9694  -15.5320   20.6710 C   0  0  1  0  0  0  0  0  0  0  0  0
    7.5869  -17.0154   20.7084 C   0  0  0  0  0  0  0  0  0  0  0  0
    7.1903  -17.3969   19.3220 C   0  0  0  0  0  0  0  0  0  0  0  0
    6.6988  -18.8095   19.1923 C   0  0  0  0  0  0  0  0  0  0  0  0
    6.3454  -19.2008   17.7961 C   0  0  0  0  0  0  0  0  0  0  0  0
    5.7658  -20.5413   17.8104 N   0  0  0  0  0  0  0  0  0  0  0  0
    8.4883  -15.0921   21.9842 C   0  0  0  0  0  0  0  0  0  0  0  0
    9.7100  -15.2070   22.2991 O   0  0  0  0  0  0  0  0  0  0  0  0
    6.1373  -12.4496   27.0699 C   0  0  0  0  0  0  0  0  0  0  0  0
    7.3886  -13.1170   26.4777 C   0  0  2  0  0  0  0  0  0  0  0  0
    8.5243  -12.1833   26.7541 C   0  0  0  0  0  0  0  0  0  0  0  0
    7.0893  -13.3777   25.0477 C   0  0  0  0  0  0  0  0  0  0  0  0
    8.0522  -14.2493   24.3154 C   0  0  2  0  0  0  0  0  0  0  0  0
    7.6372  -14.5201   22.9519 N   0  0  0  0  0  0  0  0  0  0  0  0
    8.3776  -15.4752   25.0768 C   0  0  0  0  0  0  0  0  0  0  0  0
    7.4532  -16.2877   25.4179 O   0  0  0  0  0  0  0  0  0  0  0  0
   10.9884  -17.9358   23.8100 C   0  0  0  0  0  0  0  0  0  0  0  0
   11.2103  -17.7263   25.2780 C   0  0  2  0  0  0  0  0  0  0  0  0
   11.6547  -18.9943   25.9603 C   0  0  0  0  0  0  0  0  0  0  0  0
    9.9784  -17.1560   25.9673 C   0  0  2  0  0  0  0  0  0  0  0  0
    9.6885  -15.8271   25.4671 N   0  0  0  0  0  0  0  0  0  0  0  0
   10.2998  -17.0999   27.4033 C   0  0  0  0  0  0  0  0  0  0  0  0
   10.3087  -18.2172   28.2005 O   0  0  0  0  0  0  0  0  0  0  0  0
   10.5802  -15.9961   27.9448 O   0  0  0  0  0  0  0  0  0  0  0  0
  2  3  1  0
  2  1  1  6
  4  3  1  0
  4  5  1  0
  6  5  1  0
  6  7  1  0
  8  2  1  0
  9  8  2  0
 11 10  1  6
 11 13  1  0
 12 11  1  0
 14 13  1  1
 14 15  1  0
 15  8  1  0
 16 14  1  0
 16 17  2  0
 19 18  1  6
 19 21  1  0
 20 19  1  0
 21 22  1  6
 22 16  1  0
 23 21  1  0
 24 23  1  0
 25 23  2  0
M  END
$$$$
