KLV.pdb
     RDKit          3D

 25 24  0  0  1  0  0  0  0  0999 V2000
    8.1800  -16.6399   21.4767 N   0  0  0  0  0  0  0  0  0  0  0  0
    7.3792  -16.5861   22.6813 C   0  0  1  0  0  0  0  0  0  0  0  0
    7.0531  -18.0227   23.1030 C   0  0  0  0  0  0  0  0  0  0  0  0
    6.1938  -18.6055   22.0321 C   0  0  0  0  0  0  0  0  0  0  0  0
    5.6478  -19.9657   22.3571 C   0  0  0  0  0  0  0  0  0  0  0  0
    4.8605  -20.5817   21.2490 C   0  0  0  0  0  0  0  0  0  0  0  0
    4.5113  -21.9509   21.6180 N   0  0  0  0  0  0  0  0  0  0  0  0
    8.1687  -15.9001   23.7270 C   0  0  0  0  0  0  0  0  0  0  0  0
    9.4354  -15.8832   23.7129 O   0  0  0  0  0  0  0  0  0  0  0  0
    7.6331  -11.7521   24.9725 C   0  0  0  0  0  0  0  0  0  0  0  0
    6.6600  -12.6808   25.7159 C   0  0  2  0  0  0  0  0  0  0  0  0
    5.6905  -11.7848   26.4197 C   0  0  0  0  0  0  0  0  0  0  0  0
    7.4907  -13.5541   26.5816 C   0  0  0  0  0  0  0  0  0  0  0  0
    8.2685  -14.6248   25.8945 C   0  0  2  0  0  0  0  0  0  0  0  0
    7.5394  -15.2287   24.7952 N   0  0  0  0  0  0  0  0  0  0  0  0
    8.8046  -15.6185   26.8502 C   0  0  0  0  0  0  0  0  0  0  0  0
    9.5008  -15.2404   27.8519 O   0  0  0  0  0  0  0  0  0  0  0  0
    9.0346  -19.9285   26.2569 C   0  0  0  0  0  0  0  0  0  0  0  0
    8.5126  -19.3177   27.5227 C   0  0  2  0  0  0  0  0  0  0  0  0
    7.0061  -19.2961   27.5504 C   0  0  0  0  0  0  0  0  0  0  0  0
    9.0681  -17.9192   27.7547 C   0  0  2  0  0  0  0  0  0  0  0  0
    8.5919  -17.0097   26.7318 N   0  0  0  0  0  0  0  0  0  0  0  0
   10.5338  -18.0420   27.6835 C   0  0  0  0  0  0  0  0  0  0  0  0
   11.2640  -18.7117   28.6334 O   0  0  0  0  0  0  0  0  0  0  0  0
   11.1652  -17.5207   26.7245 O   0  0  0  0  0  0  0  0  0  0  0  0
  2  3  1  0
  2  1  1  6
  4  3  1  0
  4  5  1  0
  6  5  1  0
  6  7  1  0
  8  2  1  0
  9  8  2  0
 11 10  1  1
 11 13  1  0
 12 11  1  0
 14 13  1  1
 14 15  1  0
 15  8  1  0
 16 14  1  0
 16 17  2  0
 19 18  1  6
 19 21  1  0
 20 19  1  0
 21 22  1  6
 22 16  1  0
 23 21  1  0
 24 23  1  0
 25 23  2  0
M  END
$$$$
