KLV.pdb
     RDKit          3D

 25 24  0  0  1  0  0  0  0  0999 V2000
    9.0258  -15.0651   20.3557 N   0  0  0  0  0  0  0  0  0  0  0  0
    8.0577  -15.4876   21.3453 C   0  0  1  0  0  0  0  0  0  0  0  0
    7.7702  -16.9769   21.1272 C   0  0  0  0  0  0  0  0  0  0  0  0
    7.6646  -17.1879   19.6544 C   0  0  0  0  0  0  0  0  0  0  0  0
    7.2239  -18.5687   19.2634 C   0  0  0  0  0  0  0  0  0  0  0  0
    7.0587  -18.7567   17.7922 C   0  0  0  0  0  0  0  0  0  0  0  0
    6.4915  -20.0792   17.5427 N   0  0  0  0  0  0  0  0  0  0  0  0
    8.6405  -15.2578   22.6849 C   0  0  0  0  0  0  0  0  0  0  0  0
    9.8894  -15.3021   22.8934 O   0  0  0  0  0  0  0  0  0  0  0  0
    8.2785  -11.9328   25.9402 C   0  0  0  0  0  0  0  0  0  0  0  0
    7.0321  -12.7981   25.6959 C   0  0  2  0  0  0  0  0  0  0  0  0
    5.9302  -12.1675   26.4872 C   0  0  0  0  0  0  0  0  0  0  0  0
    7.4010  -14.1840   26.0774 C   0  0  0  0  0  0  0  0  0  0  0  0
    8.3284  -14.9022   25.1570 C   0  0  2  0  0  0  0  0  0  0  0  0
    7.8234  -14.9766   23.7990 N   0  0  0  0  0  0  0  0  0  0  0  0
    8.7348  -16.2179   25.6975 C   0  0  0  0  0  0  0  0  0  0  0  0
    7.8904  -17.1729   25.7743 O   0  0  0  0  0  0  0  0  0  0  0  0
   11.7888  -18.3087   24.6531 C   0  0  0  0  0  0  0  0  0  0  0  0
   11.7359  -18.2631   26.1508 C   0  0  2  0  0  0  0  0  0  0  0  0
   12.1235  -19.5849   26.7620 C   0  0  0  0  0  0  0  0  0  0  0  0
   10.3716  -17.8214   26.6621 C   0  0  2  0  0  0  0  0  0  0  0  0
   10.0411  -16.5064   26.1504 N   0  0  0  0  0  0  0  0  0  0  0  0
   10.4752  -17.7843   28.1305 C   0  0  0  0  0  0  0  0  0  0  0  0
   10.5312  -18.9234   28.8942 O   0  0  0  0  0  0  0  0  0  0  0  0
   10.5150  -16.6771   28.7328 O   0  0  0  0  0  0  0  0  0  0  0  0
  2  3  1  0
  2  1  1  6
  4  3  1  0
  4  5  1  0
  6  5  1  0
  6  7  1  0
  8  2  1  0
  9  8  2  0
 11 10  1  1
 11 13  1  0
 12 11  1  0
 14 13  1  1
 14 15  1  0
 15  8  1  0
 16 14  1  0
 16 17  2  0
 19 18  1  6
 19 21  1  0
 20 19  1  0
 21 22  1  6
 22 16  1  0
 23 21  1  0
 24 23  1  0
 25 23  2  0
M  END
$$$$
