KLV.pdb
     RDKit          3D

 25 24  0  0  1  0  0  0  0  0999 V2000
    9.9927  -15.9096   20.6855 N   0  0  0  0  0  0  0  0  0  0  0  0
    8.7513  -15.9857   21.4260 C   0  0  1  0  0  0  0  0  0  0  0  0
    8.4387  -17.4634   21.6844 C   0  0  0  0  0  0  0  0  0  0  0  0
    8.3876  -18.1359   20.3540 C   0  0  0  0  0  0  0  0  0  0  0  0
    7.8864  -19.5502   20.4012 C   0  0  0  0  0  0  0  0  0  0  0  0
    7.8464  -20.2223   19.0693 C   0  0  0  0  0  0  0  0  0  0  0  0
    7.3932  -21.5994   19.2452 N   0  0  0  0  0  0  0  0  0  0  0  0
    8.9320  -15.2583   22.7009 C   0  0  0  0  0  0  0  0  0  0  0  0
   10.0653  -15.1403   23.2549 O   0  0  0  0  0  0  0  0  0  0  0  0
    5.3088  -12.2288   26.7159 C   0  0  0  0  0  0  0  0  0  0  0  0
    6.7511  -12.6622   26.4092 C   0  0  2  0  0  0  0  0  0  0  0  0
    7.5837  -11.4229   26.5051 C   0  0  0  0  0  0  0  0  0  0  0  0
    6.7174  -13.3265   25.0826 C   0  0  0  0  0  0  0  0  0  0  0  0
    7.9226  -14.1193   24.7056 C   0  0  2  0  0  0  0  0  0  0  0  0
    7.8401  -14.6588   23.3614 N   0  0  0  0  0  0  0  0  0  0  0  0
    8.2513  -15.1426   25.7220 C   0  0  0  0  0  0  0  0  0  0  0  0
    8.3411  -14.8222   26.9550 O   0  0  0  0  0  0  0  0  0  0  0  0
    6.8515  -18.9029   25.4834 C   0  0  0  0  0  0  0  0  0  0  0  0
    8.2623  -18.8650   25.9894 C   0  0  2  0  0  0  0  0  0  0  0  0
    8.4922  -19.8853   27.0743 C   0  0  0  0  0  0  0  0  0  0  0  0
    8.6598  -17.4771   26.4729 C   0  0  2  0  0  0  0  0  0  0  0  0
    8.4796  -16.5024   25.4158 N   0  0  0  0  0  0  0  0  0  0  0  0
   10.0813  -17.5639   26.8476 C   0  0  0  0  0  0  0  0  0  0  0  0
   10.4906  -17.9280   28.1061 O   0  0  0  0  0  0  0  0  0  0  0  0
   10.9752  -17.2980   25.9989 O   0  0  0  0  0  0  0  0  0  0  0  0
  2  3  1  0
  2  1  1  6
  4  3  1  0
  4  5  1  0
  6  5  1  0
  6  7  1  0
  8  2  1  0
  9  8  2  0
 11 10  1  6
 11 13  1  0
 12 11  1  0
 14 13  1  1
 14 15  1  0
 15  8  1  0
 16 14  1  0
 16 17  2  0
 19 18  1  1
 19 21  1  0
 20 19  1  0
 21 22  1  6
 22 16  1  0
 23 21  1  0
 24 23  1  0
 25 23  2  0
M  END
$$$$
