LGE.pdb
     RDKit          3D

 22 21  0  0  1  0  0  0  0  0999 V2000
    5.6959  -11.8379   26.0058 C   0  0  0  0  0  0  0  0  0  0  0  0
    6.6383  -12.6317   26.8906 C   0  0  2  0  0  0  0  0  0  0  0  0
    7.3675  -11.7494   27.8577 C   0  0  0  0  0  0  0  0  0  0  0  0
    7.5484  -13.5230   26.0695 C   0  0  0  0  0  0  0  0  0  0  0  0
    6.6436  -14.3640   25.2071 C   0  0  2  0  0  0  0  0  0  0  0  0
    5.6891  -14.9936   26.1194 N   0  0  0  0  0  0  0  0  0  0  0  0
    7.3494  -15.3612   24.4009 C   0  0  0  0  0  0  0  0  0  0  0  0
    8.1912  -14.8828   23.5536 O   0  0  0  0  0  0  0  0  0  0  0  0
    7.2093  -16.7449   24.4534 N   0  0  0  0  0  0  0  0  0  0  0  0
    7.9530  -17.6093   23.5762 C   0  0  0  0  0  0  0  0  0  0  0  0
    9.2599  -18.0437   24.0926 C   0  0  0  0  0  0  0  0  0  0  0  0
    9.6161  -19.2405   23.7929 O   0  0  0  0  0  0  0  0  0  0  0  0
   10.1299  -17.2887   24.8592 N   0  0  0  0  0  0  0  0  0  0  0  0
   11.2883  -17.8370   25.5858 C   0  0  1  0  0  0  0  0  0  0  0  0
   12.4583  -17.0036   25.0836 C   0  0  0  0  0  0  0  0  0  0  0  0
   12.5867  -17.0317   23.5883 C   0  0  0  0  0  0  0  0  0  0  0  0
   13.7993  -16.2511   23.2128 C   0  0  0  0  0  0  0  0  0  0  0  0
   14.4623  -15.6874   24.1119 O   0  0  0  0  0  0  0  0  0  0  0  0
   11.1089  -17.8584   27.0143 C   0  0  0  0  0  0  0  0  0  0  0  0
   11.9096  -18.4920   27.7741 O   0  0  0  0  0  0  0  0  0  0  0  0
   14.2409  -16.1108   21.9070 O   0  0  0  0  0  0  0  0  0  0  0  0
   10.0658  -17.1952   27.6237 O   0  0  0  0  0  0  0  0  0  0  0  0
  2  1  1  6
  2  4  1  0
  2  3  1  0
  4  5  1  0
  5  6  1  1
  5  7  1  0
  7  8  2  0
  9  7  1  0
  9 10  1  0
 10 11  1  0
 11 13  1  0
 11 12  2  0
 13 14  1  0
 14 19  1  0
 14 15  1  1
 16 15  1  0
 17 16  1  0
 17 21  1  0
 18 17  2  0
 19 22  1  0
 20 19  2  0
M  END
$$$$
