LGE.pdb
     RDKit          3D

 22 21  0  0  1  0  0  0  0  0999 V2000
    5.8956  -11.8462   26.0804 C   0  0  0  0  0  0  0  0  0  0  0  0
    6.8857  -12.6887   26.8619 C   0  0  2  0  0  0  0  0  0  0  0  0
    7.7032  -11.8560   27.8020 C   0  0  0  0  0  0  0  0  0  0  0  0
    7.7133  -13.5644   25.9427 C   0  0  0  0  0  0  0  0  0  0  0  0
    6.7325  -14.2763   25.0478 C   0  0  2  0  0  0  0  0  0  0  0  0
    5.8663  -15.0513   25.9360 N   0  0  0  0  0  0  0  0  0  0  0  0
    7.3604  -15.1285   24.0369 C   0  0  0  0  0  0  0  0  0  0  0  0
    8.1259  -14.5154   23.2041 O   0  0  0  0  0  0  0  0  0  0  0  0
    7.2202  -16.5048   23.8848 N   0  0  0  0  0  0  0  0  0  0  0  0
    7.8609  -17.2108   22.8073 C   0  0  0  0  0  0  0  0  0  0  0  0
    9.1464  -17.8370   23.1520 C   0  0  0  0  0  0  0  0  0  0  0  0
    9.4464  -18.9043   22.5039 O   0  0  0  0  0  0  0  0  0  0  0  0
   10.0508  -17.3848   24.0964 N   0  0  0  0  0  0  0  0  0  0  0  0
   11.1322  -18.2036   24.6714 C   0  0  1  0  0  0  0  0  0  0  0  0
   12.3655  -17.7751   23.8898 C   0  0  0  0  0  0  0  0  0  0  0  0
   12.7814  -16.3657   24.1956 C   0  0  0  0  0  0  0  0  0  0  0  0
   14.0533  -16.0901   23.4697 C   0  0  0  0  0  0  0  0  0  0  0  0
   14.5528  -14.9444   23.5311 O   0  0  0  0  0  0  0  0  0  0  0  0
   11.2344  -18.0913   26.1033 C   0  0  0  0  0  0  0  0  0  0  0  0
   10.5267  -17.2587   26.7557 O   0  0  0  0  0  0  0  0  0  0  0  0
   14.7240  -17.0425   22.7195 O   0  0  0  0  0  0  0  0  0  0  0  0
   12.0997  -18.8784   26.8320 O   0  0  0  0  0  0  0  0  0  0  0  0
  2  1  1  6
  2  4  1  0
  2  3  1  0
  4  5  1  0
  5  6  1  1
  5  7  1  0
  7  8  2  0
  9  7  1  0
  9 10  1  0
 10 11  1  0
 11 13  1  0
 11 12  2  0
 13 14  1  0
 14 19  1  0
 14 15  1  6
 16 15  1  0
 17 16  1  0
 17 21  1  0
 18 17  2  0
 19 22  1  0
 20 19  2  0
M  END
$$$$
