LGE.pdb
     RDKit          3D

 22 21  0  0  1  0  0  0  0  0999 V2000
    5.4947  -12.4848   26.9629 C   0  0  0  0  0  0  0  0  0  0  0  0
    6.7796  -12.4682   26.1569 C   0  0  2  0  0  0  0  0  0  0  0  0
    7.5926  -11.2400   26.4327 C   0  0  0  0  0  0  0  0  0  0  0  0
    6.5118  -12.7066   24.6844 C   0  0  0  0  0  0  0  0  0  0  0  0
    6.4798  -14.2016   24.5014 C   0  0  2  0  0  0  0  0  0  0  0  0
    6.5755  -14.7735   25.8444 N   0  0  0  0  0  0  0  0  0  0  0  0
    7.5336  -14.7159   23.6255 C   0  0  0  0  0  0  0  0  0  0  0  0
    7.5923  -14.1698   22.4620 O   0  0  0  0  0  0  0  0  0  0  0  0
    8.4610  -15.7131   23.9127 N   0  0  0  0  0  0  0  0  0  0  0  0
    9.8765  -15.4630   23.8519 C   0  0  0  0  0  0  0  0  0  0  0  0
   10.7266  -16.6368   24.1026 C   0  0  0  0  0  0  0  0  0  0  0  0
   10.3186  -17.4455   25.0128 O   0  0  0  0  0  0  0  0  0  0  0  0
   11.9087  -16.9459   23.4532 N   0  0  0  0  0  0  0  0  0  0  0  0
   12.8008  -18.0551   23.8329 C   0  0  1  0  0  0  0  0  0  0  0  0
   13.9993  -17.8880   22.9104 C   0  0  0  0  0  0  0  0  0  0  0  0
   14.9428  -16.8184   23.3785 C   0  0  0  0  0  0  0  0  0  0  0  0
   15.7367  -16.3552   22.2055 C   0  0  0  0  0  0  0  0  0  0  0  0
   16.5582  -15.4234   22.3566 O   0  0  0  0  0  0  0  0  0  0  0  0
   13.1009  -18.0907   25.2408 C   0  0  0  0  0  0  0  0  0  0  0  0
   13.5307  -19.1496   25.8010 O   0  0  0  0  0  0  0  0  0  0  0  0
   15.6155  -16.9039   20.9390 O   0  0  0  0  0  0  0  0  0  0  0  0
   12.9382  -16.9832   26.0447 O   0  0  0  0  0  0  0  0  0  0  0  0
  2  1  1  1
  2  4  1  0
  2  3  1  0
  4  5  1  0
  5  6  1  1
  5  7  1  0
  7  8  2  0
  9  7  1  0
  9 10  1  0
 10 11  1  0
 11 13  1  0
 11 12  2  0
 13 14  1  0
 14 19  1  0
 14 15  1  6
 16 15  1  0
 17 16  1  0
 17 21  1  0
 18 17  2  0
 19 22  1  0
 20 19  2  0
M  END
$$$$
