LGE.pdb
     RDKit          3D

 22 21  0  0  1  0  0  0  0  0999 V2000
    7.5152  -11.2052   25.3834 C   0  0  0  0  0  0  0  0  0  0  0  0
    6.3828  -12.2035   25.5327 C   0  0  2  0  0  0  0  0  0  0  0  0
    5.4069  -11.7826   26.5891 C   0  0  0  0  0  0  0  0  0  0  0  0
    6.9088  -13.6134   25.7125 C   0  0  0  0  0  0  0  0  0  0  0  0
    7.9185  -13.8266   24.6150 C   0  0  2  0  0  0  0  0  0  0  0  0
    7.2486  -13.4443   23.3720 N   0  0  0  0  0  0  0  0  0  0  0  0
    8.4386  -15.1929   24.5430 C   0  0  0  0  0  0  0  0  0  0  0  0
    8.8336  -15.6871   25.6633 O   0  0  0  0  0  0  0  0  0  0  0  0
    8.5482  -15.9982   23.4132 N   0  0  0  0  0  0  0  0  0  0  0  0
    9.1284  -17.3130   23.4810 C   0  0  0  0  0  0  0  0  0  0  0  0
   10.4745  -17.3688   24.0712 C   0  0  0  0  0  0  0  0  0  0  0  0
   11.2908  -16.4481   23.7039 O   0  0  0  0  0  0  0  0  0  0  0  0
   10.9338  -18.3092   24.9764 N   0  0  0  0  0  0  0  0  0  0  0  0
   12.3396  -18.4421   25.3962 C   0  0  1  0  0  0  0  0  0  0  0  0
   12.2744  -19.3896   26.5852 C   0  0  0  0  0  0  0  0  0  0  0  0
   11.3719  -18.8872   27.6743 C   0  0  0  0  0  0  0  0  0  0  0  0
   11.3216  -19.9199   28.7475 C   0  0  0  0  0  0  0  0  0  0  0  0
   10.2915  -20.0161   29.4513 O   0  0  0  0  0  0  0  0  0  0  0  0
   13.2191  -18.8441   24.3292 C   0  0  0  0  0  0  0  0  0  0  0  0
   14.4701  -18.6156   24.3789 O   0  0  0  0  0  0  0  0  0  0  0  0
   12.3648  -20.7916   29.0153 O   0  0  0  0  0  0  0  0  0  0  0  0
   12.7489  -19.4939   23.2085 O   0  0  0  0  0  0  0  0  0  0  0  0
  2  1  1  1
  2  4  1  0
  2  3  1  0
  4  5  1  0
  5  6  1  6
  5  7  1  0
  7  8  2  0
  9  7  1  0
  9 10  1  0
 10 11  1  0
 11 13  1  0
 11 12  2  0
 13 14  1  0
 14 19  1  0
 14 15  1  1
 16 15  1  0
 17 16  1  0
 17 21  1  0
 18 17  2  0
 19 22  1  0
 20 19  2  0
M  END
$$$$
