LGE.pdb
     RDKit          3D

 22 21  0  0  1  0  0  0  0  0999 V2000
    6.0615  -12.0502   24.7271 C   0  0  0  0  0  0  0  0  0  0  0  0
    6.2778  -13.0471   25.8497 C   0  0  2  0  0  0  0  0  0  0  0  0
    6.0130  -12.4375   27.1927 C   0  0  0  0  0  0  0  0  0  0  0  0
    7.6316  -13.7193   25.7391 C   0  0  0  0  0  0  0  0  0  0  0  0
    7.6708  -14.3598   24.3761 C   0  0  2  0  0  0  0  0  0  0  0  0
    6.4604  -15.1757   24.2799 N   0  0  0  0  0  0  0  0  0  0  0  0
    8.8732  -15.1568   24.1283 C   0  0  0  0  0  0  0  0  0  0  0  0
    9.9809  -14.5041   24.1752 O   0  0  0  0  0  0  0  0  0  0  0  0
    8.9436  -16.5193   23.8534 N   0  0  0  0  0  0  0  0  0  0  0  0
   10.1920  -17.1573   23.5306 C   0  0  0  0  0  0  0  0  0  0  0  0
   10.9579  -17.6459   24.6874 C   0  0  0  0  0  0  0  0  0  0  0  0
   12.0738  -18.2236   24.4227 O   0  0  0  0  0  0  0  0  0  0  0  0
   10.5912  -17.5383   26.0172 N   0  0  0  0  0  0  0  0  0  0  0  0
   11.3323  -18.1459   27.1361 C   0  0  1  0  0  0  0  0  0  0  0  0
   11.1705  -17.1400   28.2664 C   0  0  0  0  0  0  0  0  0  0  0  0
   11.2031  -15.7192   27.7831 C   0  0  0  0  0  0  0  0  0  0  0  0
   10.8723  -14.8311   28.9331 C   0  0  0  0  0  0  0  0  0  0  0  0
   10.7496  -15.3323   30.0731 O   0  0  0  0  0  0  0  0  0  0  0  0
   10.9128  -19.4903   27.4363 C   0  0  0  0  0  0  0  0  0  0  0  0
   11.5760  -20.2303   28.2315 O   0  0  0  0  0  0  0  0  0  0  0  0
   10.6896  -13.4630   28.8112 O   0  0  0  0  0  0  0  0  0  0  0  0
    9.7766  -20.0363   26.8794 O   0  0  0  0  0  0  0  0  0  0  0  0
  2  1  1  6
  2  4  1  0
  2  3  1  0
  4  5  1  0
  5  6  1  1
  5  7  1  0
  7  8  2  0
  9  7  1  0
  9 10  1  0
 10 11  1  0
 11 13  1  0
 11 12  2  0
 13 14  1  0
 14 19  1  0
 14 15  1  1
 16 15  1  0
 17 16  1  0
 17 21  1  0
 18 17  2  0
 19 22  1  0
 20 19  2  0
M  END
$$$$
