LGE.pdb
     RDKit          3D

 22 21  0  0  1  0  0  0  0  0999 V2000
    8.7230  -12.5550   18.4173 C   0  0  0  0  0  0  0  0  0  0  0  0
    7.9241  -13.4797   19.3160 C   0  0  2  0  0  0  0  0  0  0  0  0
    6.8628  -12.7396   20.0718 C   0  0  0  0  0  0  0  0  0  0  0  0
    8.8318  -14.3155   20.1961 C   0  0  0  0  0  0  0  0  0  0  0  0
    9.7850  -15.0191   19.2656 C   0  0  2  0  0  0  0  0  0  0  0  0
    8.9542  -15.8335   18.3788 N   0  0  0  0  0  0  0  0  0  0  0  0
   10.7921  -15.8319   19.9495 C   0  0  0  0  0  0  0  0  0  0  0  0
   10.5168  -17.0858   20.0345 O   0  0  0  0  0  0  0  0  0  0  0  0
   11.9925  -15.4002   20.5058 N   0  0  0  0  0  0  0  0  0  0  0  0
   12.9168  -16.3239   21.1079 C   0  0  0  0  0  0  0  0  0  0  0  0
   12.4971  -16.8634   22.4102 C   0  0  0  0  0  0  0  0  0  0  0  0
   11.5306  -16.2490   22.9911 O   0  0  0  0  0  0  0  0  0  0  0  0
   13.0400  -17.9601   23.0560 N   0  0  0  0  0  0  0  0  0  0  0  0
   12.5489  -18.4986   24.3364 C   0  0  1  0  0  0  0  0  0  0  0  0
   13.3204  -19.7997   24.5017 C   0  0  0  0  0  0  0  0  0  0  0  0
   12.9500  -20.5345   25.7572 C   0  0  0  0  0  0  0  0  0  0  0  0
   13.7480  -21.7918   25.8106 C   0  0  0  0  0  0  0  0  0  0  0  0
   14.4570  -22.0200   26.8162 O   0  0  0  0  0  0  0  0  0  0  0  0
   12.6608  -17.5670   25.4287 C   0  0  0  0  0  0  0  0  0  0  0  0
   13.5146  -16.6234   25.4110 O   0  0  0  0  0  0  0  0  0  0  0  0
   13.7509  -22.7359   24.7966 O   0  0  0  0  0  0  0  0  0  0  0  0
   11.8507  -17.6529   26.5403 O   0  0  0  0  0  0  0  0  0  0  0  0
  2  1  1  1
  2  4  1  0
  2  3  1  0
  4  5  1  0
  5  6  1  6
  5  7  1  0
  7  8  2  0
  9  7  1  0
  9 10  1  0
 10 11  1  0
 11 13  1  0
 11 12  2  0
 13 14  1  0
 14 19  1  0
 14 15  1  1
 16 15  1  0
 17 16  1  0
 17 21  1  0
 18 17  2  0
 19 22  1  0
 20 19  2  0
M  END
$$$$
