LGE.pdb
     RDKit          3D

 22 21  0  0  1  0  0  0  0  0999 V2000
    8.0641  -12.4324   18.3187 C   0  0  0  0  0  0  0  0  0  0  0  0
    8.1264  -13.9340   18.5239 C   0  0  2  0  0  0  0  0  0  0  0  0
    7.3728  -14.6719   17.4595 C   0  0  0  0  0  0  0  0  0  0  0  0
    7.7251  -14.3165   19.9344 C   0  0  0  0  0  0  0  0  0  0  0  0
    8.5477  -13.4510   20.8529 C   0  0  2  0  0  0  0  0  0  0  0  0
    9.8211  -13.2327   20.1668 N   0  0  0  0  0  0  0  0  0  0  0  0
    8.7499  -14.0224   22.1852 C   0  0  0  0  0  0  0  0  0  0  0  0
    7.6719  -14.3030   22.8290 O   0  0  0  0  0  0  0  0  0  0  0  0
    9.9611  -14.2897   22.8164 N   0  0  0  0  0  0  0  0  0  0  0  0
   10.0110  -14.8723   24.1309 C   0  0  0  0  0  0  0  0  0  0  0  0
   10.7405  -16.1464   24.2191 C   0  0  0  0  0  0  0  0  0  0  0  0
   10.3977  -17.0529   23.3766 O   0  0  0  0  0  0  0  0  0  0  0  0
   11.7511  -16.4515   25.1136 N   0  0  0  0  0  0  0  0  0  0  0  0
   12.4349  -17.7547   25.1830 C   0  0  1  0  0  0  0  0  0  0  0  0
   13.9082  -17.3981   25.0490 C   0  0  0  0  0  0  0  0  0  0  0  0
   14.2001  -16.6097   23.8055 C   0  0  0  0  0  0  0  0  0  0  0  0
   15.6653  -16.3422   23.7599 C   0  0  0  0  0  0  0  0  0  0  0  0
   16.1904  -15.6733   24.6778 O   0  0  0  0  0  0  0  0  0  0  0  0
   12.0852  -18.5220   26.3502 C   0  0  0  0  0  0  0  0  0  0  0  0
   11.4547  -17.9985   27.3239 O   0  0  0  0  0  0  0  0  0  0  0  0
   16.4916  -16.7973   22.7450 O   0  0  0  0  0  0  0  0  0  0  0  0
   12.4150  -19.8550   26.4667 O   0  0  0  0  0  0  0  0  0  0  0  0
  2  1  1  6
  2  4  1  0
  2  3  1  0
  4  5  1  0
  5  6  1  6
  5  7  1  0
  7  8  2  0
  9  7  1  0
  9 10  1  0
 10 11  1  0
 11 13  1  0
 11 12  2  0
 13 14  1  0
 14 19  1  0
 14 15  1  1
 16 15  1  0
 17 16  1  0
 17 21  1  0
 18 17  2  0
 19 22  1  0
 20 19  2  0
M  END
$$$$
