IEP.pdb
     RDKit          3D

 25 25  0  0  1  0  0  0  0  0999 V2000
   15.0226  -15.2463  -14.5518 C   0  0  0  0  0  0  0  0  0  0  0  0
   15.5551  -15.0282  -15.9515 C   0  0  0  0  0  0  0  0  0  0  0  0
   16.8010  -14.1876  -15.8877 C   0  0  2  0  0  0  0  0  0  0  0  0
   16.5014  -12.8650  -15.2152 C   0  0  0  0  0  0  0  0  0  0  0  0
   17.3732  -13.8830  -17.2486 C   0  0  2  0  0  0  0  0  0  0  0  0
   17.6901  -15.1315  -17.9327 N   0  0  0  0  0  0  0  0  0  0  0  0
   18.5694  -13.0487  -17.2174 C   0  0  0  0  0  0  0  0  0  0  0  0
   19.6742  -13.5506  -16.8954 O   0  0  0  0  0  0  0  0  0  0  0  0
   18.5984  -11.6491  -17.5354 N   0  0  0  0  0  0  0  0  0  0  0  0
   19.8067  -10.8743  -17.5114 C   0  0  1  0  0  0  0  0  0  0  0  0
   19.8115  -10.0245  -18.7815 C   0  0  0  0  0  0  0  0  0  0  0  0
   21.0646   -9.1679  -18.8214 C   0  0  0  0  0  0  0  0  0  0  0  0
   20.9805   -8.3248  -20.0536 C   0  0  0  0  0  0  0  0  0  0  0  0
   20.0943   -7.4446  -20.2071 O   0  0  0  0  0  0  0  0  0  0  0  0
   20.0210   -9.9873  -16.3811 C   0  0  0  0  0  0  0  0  0  0  0  0
   18.9146   -9.5174  -15.8978 O   0  0  0  0  0  0  0  0  0  0  0  0
   21.8925   -8.4891  -21.0842 O   0  0  0  0  0  0  0  0  0  0  0  0
   21.1945   -9.5731  -15.7532 N   0  0  0  0  0  0  0  0  0  0  0  0
   22.5933   -9.6908  -16.0508 C   0  0  0  0  0  0  0  0  0  0  0  0
   23.1480  -10.2441  -14.7296 C   0  0  0  0  0  0  0  0  0  0  0  0
   22.4169   -9.3566  -13.7343 C   0  0  0  0  0  0  0  0  0  0  0  0
   21.2029   -8.8271  -14.4691 C   0  0  1  0  0  0  0  0  0  0  0  0
   21.3121   -7.3960  -14.7928 C   0  0  0  0  0  0  0  0  0  0  0  0
   21.5676   -7.0140  -15.9476 O   0  0  0  0  0  0  0  0  0  0  0  0
   21.1267   -6.4258  -13.7869 O   0  0  0  0  0  0  0  0  0  0  0  0
  2  3  1  0
  2  1  1  0
  3  5  1  0
  3  4  1  6
  5  7  1  0
  5  6  1  1
  7  8  2  0
  9 10  1  0
  9  7  1  0
 10 11  1  6
 11 12  1  0
 13 12  1  0
 13 17  1  0
 14 13  2  0
 15 18  1  0
 15 10  1  0
 16 15  2  0
 18 19  1  0
 20 19  1  0
 21 20  1  0
 22 21  1  0
 22 18  1  0
 22 23  1  6
 24 23  2  0
 25 23  1  0
M  END
$$$$
