IEP.pdb
     RDKit          3D

 25 25  0  0  1  0  0  0  0  0999 V2000
   25.5381  -35.7716   -9.7080 C   0  0  0  0  0  0  0  0  0  0  0  0
   26.2287  -34.5791   -9.0826 C   0  0  0  0  0  0  0  0  0  0  0  0
   25.2875  -33.9010   -8.1248 C   0  0  2  0  0  0  0  0  0  0  0  0
   24.0578  -33.4148   -8.8617 C   0  0  0  0  0  0  0  0  0  0  0  0
   25.9053  -32.7082   -7.4410 C   0  0  2  0  0  0  0  0  0  0  0  0
   26.2939  -31.7216   -8.4424 N   0  0  0  0  0  0  0  0  0  0  0  0
   27.0693  -33.0290   -6.6225 C   0  0  0  0  0  0  0  0  0  0  0  0
   28.2155  -32.6861   -7.0028 O   0  0  0  0  0  0  0  0  0  0  0  0
   27.0202  -33.7292   -5.3701 N   0  0  0  0  0  0  0  0  0  0  0  0
   28.1904  -33.9828   -4.5782 C   0  0  1  0  0  0  0  0  0  0  0  0
   27.7046  -34.3329   -3.1722 C   0  0  0  0  0  0  0  0  0  0  0  0
   28.8935  -34.6469   -2.2816 C   0  0  0  0  0  0  0  0  0  0  0  0
   28.3543  -34.9439   -0.9187 C   0  0  0  0  0  0  0  0  0  0  0  0
   27.9201  -34.0420   -0.1560 O   0  0  0  0  0  0  0  0  0  0  0  0
   29.0889  -35.0376   -5.0146 C   0  0  0  0  0  0  0  0  0  0  0  0
   28.4695  -36.0064   -5.6114 O   0  0  0  0  0  0  0  0  0  0  0  0
   28.3149  -36.2454   -0.4440 O   0  0  0  0  0  0  0  0  0  0  0  0
   30.4714  -35.1687   -4.8954 N   0  0  0  0  0  0  0  0  0  0  0  0
   31.4978  -34.4412   -4.2053 C   0  0  0  0  0  0  0  0  0  0  0  0
   32.5217  -34.2070   -5.3261 C   0  0  0  0  0  0  0  0  0  0  0  0
   32.5435  -35.5857   -5.9676 C   0  0  0  0  0  0  0  0  0  0  0  0
   31.2409  -36.2467   -5.5675 C   0  0  1  0  0  0  0  0  0  0  0  0
   31.4282  -37.3289   -4.5885 C   0  0  0  0  0  0  0  0  0  0  0  0
   31.9881  -38.3930   -4.9031 O   0  0  0  0  0  0  0  0  0  0  0  0
   30.9705  -37.1734   -3.2641 O   0  0  0  0  0  0  0  0  0  0  0  0
  2  3  1  0
  2  1  1  0
  3  5  1  0
  3  4  1  6
  5  7  1  0
  5  6  1  6
  7  8  2  0
  9 10  1  0
  9  7  1  0
 10 11  1  1
 11 12  1  0
 13 12  1  0
 13 17  1  0
 14 13  2  0
 15 18  1  0
 15 10  1  0
 16 15  2  0
 18 19  1  0
 20 19  1  0
 21 20  1  0
 22 21  1  0
 22 18  1  0
 22 23  1  1
 24 23  2  0
 25 23  1  0
M  END
$$$$
