IEP.pdb
     RDKit          3D

 25 25  0  0  1  0  0  0  0  0999 V2000
   28.9635  -12.8974  -16.4348 C   0  0  0  0  0  0  0  0  0  0  0  0
   27.6361  -13.2699  -15.8107 C   0  0  0  0  0  0  0  0  0  0  0  0
   26.5953  -12.2586  -16.2069 C   0  0  2  0  0  0  0  0  0  0  0  0
   27.0035  -10.8802  -15.7329 C   0  0  0  0  0  0  0  0  0  0  0  0
   25.2379  -12.5539  -15.6217 C   0  0  2  0  0  0  0  0  0  0  0  0
   24.8371  -13.9086  -15.9840 N   0  0  0  0  0  0  0  0  0  0  0  0
   24.1938  -11.6271  -16.0443 C   0  0  0  0  0  0  0  0  0  0  0  0
   23.8131  -11.6166  -17.2406 O   0  0  0  0  0  0  0  0  0  0  0  0
   23.5352  -10.6884  -15.1805 N   0  0  0  0  0  0  0  0  0  0  0  0
   22.5781   -9.7328  -15.6616 C   0  0  1  0  0  0  0  0  0  0  0  0
   21.2201  -10.1442  -15.0940 C   0  0  0  0  0  0  0  0  0  0  0  0
   20.1408   -9.2149  -15.6203 C   0  0  0  0  0  0  0  0  0  0  0  0
   18.8416   -9.6814  -15.0451 C   0  0  0  0  0  0  0  0  0  0  0  0
   18.6764  -10.8547  -14.6212 O   0  0  0  0  0  0  0  0  0  0  0  0
   22.7927   -8.3340  -15.3336 C   0  0  0  0  0  0  0  0  0  0  0  0
   23.2959   -8.1696  -14.1511 O   0  0  0  0  0  0  0  0  0  0  0  0
   17.7589   -8.8205  -14.9591 O   0  0  0  0  0  0  0  0  0  0  0  0
   22.5492   -7.1747  -16.0680 N   0  0  0  0  0  0  0  0  0  0  0  0
   21.9207   -6.8912  -17.3265 C   0  0  0  0  0  0  0  0  0  0  0  0
   22.9851   -6.0274  -18.0194 C   0  0  0  0  0  0  0  0  0  0  0  0
   23.3742   -5.1046  -16.8749 C   0  0  0  0  0  0  0  0  0  0  0  0
   22.9644   -5.8252  -15.6074 C   0  0  1  0  0  0  0  0  0  0  0  0
   21.8013   -5.2075  -14.9514 C   0  0  0  0  0  0  0  0  0  0  0  0
   21.9087   -4.1450  -14.3156 O   0  0  0  0  0  0  0  0  0  0  0  0
   20.5334   -5.8183  -15.0351 O   0  0  0  0  0  0  0  0  0  0  0  0
  2  3  1  0
  2  1  1  0
  3  5  1  0
  3  4  1  1
  5  7  1  0
  5  6  1  6
  7  8  2  0
  9 10  1  0
  9  7  1  0
 10 11  1  1
 11 12  1  0
 13 12  1  0
 13 17  1  0
 14 13  2  0
 15 18  1  0
 15 10  1  0
 16 15  2  0
 18 19  1  0
 20 19  1  0
 21 20  1  0
 22 21  1  0
 22 18  1  0
 22 23  1  6
 24 23  2  0
 25 23  1  0
M  END
$$$$
