IEP.pdb
     RDKit          3D

 25 25  0  0  1  0  0  0  0  0999 V2000
   25.1902  -20.4719   -7.9798 C   0  0  0  0  0  0  0  0  0  0  0  0
   25.8748  -21.2077   -9.1114 C   0  0  0  0  0  0  0  0  0  0  0  0
   25.5816  -20.5104  -10.4117 C   0  0  2  0  0  0  0  0  0  0  0  0
   24.0907  -20.5048  -10.6733 C   0  0  0  0  0  0  0  0  0  0  0  0
   26.2451  -21.1702  -11.5935 C   0  0  2  0  0  0  0  0  0  0  0  0
   27.6721  -21.3169  -11.3300 N   0  0  0  0  0  0  0  0  0  0  0  0
   26.0718  -20.4509  -12.8506 C   0  0  0  0  0  0  0  0  0  0  0  0
   26.4353  -19.2526  -12.9412 O   0  0  0  0  0  0  0  0  0  0  0  0
   25.5010  -21.0127  -14.0420 N   0  0  0  0  0  0  0  0  0  0  0  0
   25.3864  -20.2750  -15.2682 C   0  0  1  0  0  0  0  0  0  0  0  0
   26.2018  -21.0313  -16.3162 C   0  0  0  0  0  0  0  0  0  0  0  0
   26.1719  -20.2760  -17.6331 C   0  0  0  0  0  0  0  0  0  0  0  0
   26.9808  -21.0673  -18.6109 C   0  0  0  0  0  0  0  0  0  0  0  0
   26.4724  -21.9600  -19.3377 O   0  0  0  0  0  0  0  0  0  0  0  0
   24.0552  -20.0609  -15.8089 C   0  0  0  0  0  0  0  0  0  0  0  0
   23.2647  -21.0666  -15.6031 O   0  0  0  0  0  0  0  0  0  0  0  0
   28.3406  -20.8382  -18.7501 O   0  0  0  0  0  0  0  0  0  0  0  0
   23.5101  -18.9769  -16.4947 N   0  0  0  0  0  0  0  0  0  0  0  0
   24.0452  -17.7805  -17.0790 C   0  0  0  0  0  0  0  0  0  0  0  0
   23.1328  -16.7028  -16.4746 C   0  0  0  0  0  0  0  0  0  0  0  0
   21.7759  -17.3683  -16.6442 C   0  0  0  0  0  0  0  0  0  0  0  0
   22.0582  -18.8500  -16.7808 C   0  0  1  0  0  0  0  0  0  0  0  0
   21.8341  -19.3493  -18.1465 C   0  0  0  0  0  0  0  0  0  0  0  0
   20.6908  -19.4134  -18.6299 O   0  0  0  0  0  0  0  0  0  0  0  0
   22.9247  -19.7672  -18.9361 O   0  0  0  0  0  0  0  0  0  0  0  0
  2  3  1  0
  2  1  1  0
  3  5  1  0
  3  4  1  6
  5  7  1  0
  5  6  1  1
  7  8  2  0
  9 10  1  0
  9  7  1  0
 10 11  1  6
 11 12  1  0
 13 12  1  0
 13 17  1  0
 14 13  2  0
 15 18  1  0
 15 10  1  0
 16 15  2  0
 18 19  1  0
 20 19  1  0
 21 20  1  0
 22 21  1  0
 22 18  1  0
 22 23  1  6
 24 23  2  0
 25 23  1  0
M  END
$$$$
