IEP.pdb
     RDKit          3D

 25 25  0  0  1  0  0  0  0  0999 V2000
   28.2433  -19.4249   -5.2643 C   0  0  0  0  0  0  0  0  0  0  0  0
   26.8176  -19.7695   -5.6367 C   0  0  0  0  0  0  0  0  0  0  0  0
   26.7624  -20.1758   -7.0841 C   0  0  2  0  0  0  0  0  0  0  0  0
   27.2625  -19.0468   -7.9598 C   0  0  0  0  0  0  0  0  0  0  0  0
   25.3689  -20.5207   -7.5437 C   0  0  2  0  0  0  0  0  0  0  0  0
   24.8196  -21.5654   -6.6870 N   0  0  0  0  0  0  0  0  0  0  0  0
   25.2933  -20.9642   -8.9313 C   0  0  0  0  0  0  0  0  0  0  0  0
   25.8486  -22.0358   -9.2769 O   0  0  0  0  0  0  0  0  0  0  0  0
   24.6129  -20.2576   -9.9795 N   0  0  0  0  0  0  0  0  0  0  0  0
   24.5933  -20.7192  -11.3386 C   0  0  1  0  0  0  0  0  0  0  0  0
   23.1474  -20.6097  -11.8212 C   0  0  0  0  0  0  0  0  0  0  0  0
   23.0380  -21.1406  -13.2396 C   0  0  0  0  0  0  0  0  0  0  0  0
   21.6122  -20.9775  -13.6601 C   0  0  0  0  0  0  0  0  0  0  0  0
   20.7662  -21.9016  -13.5417 O   0  0  0  0  0  0  0  0  0  0  0  0
   25.4372  -20.0316  -12.3005 C   0  0  0  0  0  0  0  0  0  0  0  0
   25.5052  -18.7560  -12.0837 O   0  0  0  0  0  0  0  0  0  0  0  0
   21.1694  -19.7818  -14.2033 O   0  0  0  0  0  0  0  0  0  0  0  0
   26.1635  -20.5127  -13.3884 N   0  0  0  0  0  0  0  0  0  0  0  0
   26.2640  -21.7806  -14.0529 C   0  0  0  0  0  0  0  0  0  0  0  0
   27.7848  -21.9917  -14.0943 C   0  0  0  0  0  0  0  0  0  0  0  0
   28.2404  -20.6066  -14.5264 C   0  0  0  0  0  0  0  0  0  0  0  0
   27.1067  -19.6692  -14.1661 C   0  0  1  0  0  0  0  0  0  0  0  0
   26.3816  -19.1721  -15.3458 C   0  0  0  0  0  0  0  0  0  0  0  0
   25.2602  -19.6153  -15.6472 O   0  0  0  0  0  0  0  0  0  0  0  0
   26.9541  -18.1745  -16.1611 O   0  0  0  0  0  0  0  0  0  0  0  0
  2  3  1  0
  2  1  1  0
  3  5  1  0
  3  4  1  6
  5  7  1  0
  5  6  1  1
  7  8  2  0
  9 10  1  0
  9  7  1  0
 10 11  1  6
 11 12  1  0
 13 12  1  0
 13 17  1  0
 14 13  2  0
 15 18  1  0
 15 10  1  0
 16 15  2  0
 18 19  1  0
 20 19  1  0
 21 20  1  0
 22 21  1  0
 22 18  1  0
 22 23  1  6
 24 23  2  0
 25 23  1  0
M  END
$$$$
