IEP.pdb
     RDKit          3D

 25 25  0  0  1  0  0  0  0  0999 V2000
   26.3453  -20.3752   -7.7947 C   0  0  0  0  0  0  0  0  0  0  0  0
   25.3377  -20.9831   -8.7463 C   0  0  0  0  0  0  0  0  0  0  0  0
   25.8176  -20.8095  -10.1614 C   0  0  2  0  0  0  0  0  0  0  0  0
   26.0220  -19.3404  -10.4639 C   0  0  0  0  0  0  0  0  0  0  0  0
   24.8470  -21.3497  -11.1803 C   0  0  2  0  0  0  0  0  0  0  0  0
   24.7008  -22.7891  -10.9964 N   0  0  0  0  0  0  0  0  0  0  0  0
   25.2311  -21.0902  -12.5634 C   0  0  0  0  0  0  0  0  0  0  0  0
   26.2041  -21.7025  -13.0680 O   0  0  0  0  0  0  0  0  0  0  0  0
   24.5696  -20.1610  -13.4351 N   0  0  0  0  0  0  0  0  0  0  0  0
   24.9552  -19.9753  -14.8053 C   0  0  1  0  0  0  0  0  0  0  0  0
   23.8220  -20.5373  -15.6628 C   0  0  0  0  0  0  0  0  0  0  0  0
   24.1506  -20.3517  -17.1336 C   0  0  0  0  0  0  0  0  0  0  0  0
   22.9884  -20.8798  -17.9126 C   0  0  0  0  0  0  0  0  0  0  0  0
   23.1274  -21.4428  -19.0295 O   0  0  0  0  0  0  0  0  0  0  0  0
   25.2255  -18.6211  -15.2561 C   0  0  0  0  0  0  0  0  0  0  0  0
   24.4012  -17.7547  -14.7578 O   0  0  0  0  0  0  0  0  0  0  0  0
   21.6981  -20.7638  -17.4202 O   0  0  0  0  0  0  0  0  0  0  0  0
   26.2023  -18.1211  -16.1155 N   0  0  0  0  0  0  0  0  0  0  0  0
   27.2170  -18.7109  -16.9413 C   0  0  0  0  0  0  0  0  0  0  0  0
   28.4627  -17.9174  -16.5196 C   0  0  0  0  0  0  0  0  0  0  0  0
   27.8942  -16.5070  -16.5019 C   0  0  0  0  0  0  0  0  0  0  0  0
   26.3949  -16.6691  -16.3611 C   0  0  1  0  0  0  0  0  0  0  0  0
   25.6670  -16.3315  -17.5943 C   0  0  0  0  0  0  0  0  0  0  0  0
   25.1782  -17.2167  -18.3171 O   0  0  0  0  0  0  0  0  0  0  0  0
   25.5113  -14.9842  -17.9790 O   0  0  0  0  0  0  0  0  0  0  0  0
  2  3  1  0
  2  1  1  0
  3  5  1  0
  3  4  1  6
  5  7  1  0
  5  6  1  6
  7  8  2  0
  9 10  1  0
  9  7  1  0
 10 11  1  6
 11 12  1  0
 13 12  1  0
 13 17  1  0
 14 13  2  0
 15 18  1  0
 15 10  1  0
 16 15  2  0
 18 19  1  0
 20 19  1  0
 21 20  1  0
 22 21  1  0
 22 18  1  0
 22 23  1  6
 24 23  2  0
 25 23  1  0
M  END
$$$$
