IEP.pdb
     RDKit          3D

 25 25  0  0  1  0  0  0  0  0999 V2000
   21.1006  -10.8500    7.1152 C   0  0  0  0  0  0  0  0  0  0  0  0
   20.2154  -11.3766    6.0064 C   0  0  0  0  0  0  0  0  0  0  0  0
   19.3797  -12.5126    6.5299 C   0  0  2  0  0  0  0  0  0  0  0  0
   20.2734  -13.6154    7.0558 C   0  0  0  0  0  0  0  0  0  0  0  0
   18.4874  -13.1180    5.4767 C   0  0  2  0  0  0  0  0  0  0  0  0
   17.4773  -12.1445    5.0777 N   0  0  0  0  0  0  0  0  0  0  0  0
   17.8171  -14.3432    5.8979 C   0  0  0  0  0  0  0  0  0  0  0  0
   17.0676  -14.3320    6.9050 O   0  0  0  0  0  0  0  0  0  0  0  0
   17.9417  -15.6118    5.2375 N   0  0  0  0  0  0  0  0  0  0  0  0
   17.2961  -16.8011    5.7166 C   0  0  1  0  0  0  0  0  0  0  0  0
   17.1553  -17.7400    4.5191 C   0  0  0  0  0  0  0  0  0  0  0  0
   16.2751  -18.9196    4.8922 C   0  0  0  0  0  0  0  0  0  0  0  0
   16.1145  -19.7535    3.6613 C   0  0  0  0  0  0  0  0  0  0  0  0
   15.7289  -19.2687    2.5659 O   0  0  0  0  0  0  0  0  0  0  0  0
   17.9428  -17.5392    6.7877 C   0  0  0  0  0  0  0  0  0  0  0  0
   19.2356  -17.4919    6.7173 O   0  0  0  0  0  0  0  0  0  0  0  0
   16.3903  -21.1115    3.6886 O   0  0  0  0  0  0  0  0  0  0  0  0
   17.4081  -18.2695    7.8476 N   0  0  0  0  0  0  0  0  0  0  0  0
   16.0801  -18.6224    8.2609 C   0  0  0  0  0  0  0  0  0  0  0  0
   16.0901  -18.1999    9.7377 C   0  0  0  0  0  0  0  0  0  0  0  0
   17.4416  -18.7481   10.1686 C   0  0  0  0  0  0  0  0  0  0  0  0
   18.2478  -18.9035    8.8958 C   0  0  1  0  0  0  0  0  0  0  0  0
   18.4416  -20.3106    8.5123 C   0  0  0  0  0  0  0  0  0  0  0  0
   19.2029  -21.0546    9.1539 O   0  0  0  0  0  0  0  0  0  0  0  0
   17.7591  -20.8421    7.3991 O   0  0  0  0  0  0  0  0  0  0  0  0
  2  3  1  0
  2  1  1  0
  3  5  1  0
  3  4  1  6
  5  7  1  0
  5  6  1  1
  7  8  2  0
  9 10  1  0
  9  7  1  0
 10 11  1  6
 11 12  1  0
 13 12  1  0
 13 17  1  0
 14 13  2  0
 15 18  1  0
 15 10  1  0
 16 15  2  0
 18 19  1  0
 20 19  1  0
 21 20  1  0
 22 21  1  0
 22 18  1  0
 22 23  1  6
 24 23  2  0
 25 23  1  0
M  END
$$$$
