IEP.pdb
     RDKit          3D

 25 25  0  0  1  0  0  0  0  0999 V2000
   13.4100  -13.3486  -10.9478 C   0  0  0  0  0  0  0  0  0  0  0  0
   13.7516  -12.2706   -9.9421 C   0  0  0  0  0  0  0  0  0  0  0  0
   14.2315  -11.0432  -10.6675 C   0  0  2  0  0  0  0  0  0  0  0  0
   15.4626  -11.3711  -11.4850 C   0  0  0  0  0  0  0  0  0  0  0  0
   14.5952   -9.9158   -9.7355 C   0  0  2  0  0  0  0  0  0  0  0  0
   13.4155   -9.5106   -8.9797 N   0  0  0  0  0  0  0  0  0  0  0  0
   15.1474   -8.7442  -10.4066 C   0  0  0  0  0  0  0  0  0  0  0  0
   14.4852   -8.1665  -11.3032 O   0  0  0  0  0  0  0  0  0  0  0  0
   16.4314   -8.1685  -10.1221 N   0  0  0  0  0  0  0  0  0  0  0  0
   16.9401   -7.0248  -10.8248 C   0  0  1  0  0  0  0  0  0  0  0  0
   16.6602   -5.8062   -9.9460 C   0  0  0  0  0  0  0  0  0  0  0  0
   17.1577   -4.5493  -10.6374 C   0  0  0  0  0  0  0  0  0  0  0  0
   16.9240   -3.4099   -9.6975 C   0  0  0  0  0  0  0  0  0  0  0  0
   16.3992   -3.5692   -8.5649 O   0  0  0  0  0  0  0  0  0  0  0  0
   18.3518   -7.0120  -11.1672 C   0  0  0  0  0  0  0  0  0  0  0  0
   19.1063   -7.4086  -10.1915 O   0  0  0  0  0  0  0  0  0  0  0  0
   17.2845   -2.1191  -10.0506 O   0  0  0  0  0  0  0  0  0  0  0  0
   19.0040   -6.6505  -12.3448 N   0  0  0  0  0  0  0  0  0  0  0  0
   18.5826   -6.1154  -13.6078 C   0  0  0  0  0  0  0  0  0  0  0  0
   19.2533   -7.0817  -14.5956 C   0  0  0  0  0  0  0  0  0  0  0  0
   20.6378   -7.1875  -13.9755 C   0  0  0  0  0  0  0  0  0  0  0  0
   20.4724   -6.7791  -12.5265 C   0  0  1  0  0  0  0  0  0  0  0  0
   21.0682   -5.4662  -12.2329 C   0  0  0  0  0  0  0  0  0  0  0  0
   20.3631   -4.4488  -12.1209 O   0  0  0  0  0  0  0  0  0  0  0  0
   22.4633   -5.3411  -12.0725 O   0  0  0  0  0  0  0  0  0  0  0  0
  2  3  1  0
  2  1  1  0
  3  5  1  0
  3  4  1  1
  5  7  1  0
  5  6  1  6
  7  8  2  0
  9 10  1  0
  9  7  1  0
 10 11  1  1
 11 12  1  0
 13 12  1  0
 13 17  1  0
 14 13  2  0
 15 18  1  0
 15 10  1  0
 16 15  2  0
 18 19  1  0
 20 19  1  0
 21 20  1  0
 22 21  1  0
 22 18  1  0
 22 23  1  6
 24 23  2  0
 25 23  1  0
M  END
$$$$
