IEP.pdb
     RDKit          3D

 25 25  0  0  1  0  0  0  0  0999 V2000
   16.1292  -13.1833  -18.2188 C   0  0  0  0  0  0  0  0  0  0  0  0
   17.3526  -12.9169  -17.3688 C   0  0  0  0  0  0  0  0  0  0  0  0
   17.3138  -11.4996  -16.8660 C   0  0  2  0  0  0  0  0  0  0  0  0
   17.3929  -10.5337  -18.0289 C   0  0  0  0  0  0  0  0  0  0  0  0
   18.4527  -11.1771  -15.9327 C   0  0  2  0  0  0  0  0  0  0  0  0
   18.4312  -12.0996  -14.8032 N   0  0  0  0  0  0  0  0  0  0  0  0
   18.4345   -9.8106  -15.4225 C   0  0  0  0  0  0  0  0  0  0  0  0
   17.4305   -9.3894  -14.7974 O   0  0  0  0  0  0  0  0  0  0  0  0
   19.5048   -8.8662  -15.5761 N   0  0  0  0  0  0  0  0  0  0  0  0
   19.4040   -7.5033  -15.1370 C   0  0  1  0  0  0  0  0  0  0  0  0
   20.7788   -7.1107  -14.5971 C   0  0  0  0  0  0  0  0  0  0  0  0
   20.7180   -5.7139  -14.0049 C   0  0  0  0  0  0  0  0  0  0  0  0
   22.0662   -5.4237  -13.4266 C   0  0  0  0  0  0  0  0  0  0  0  0
   23.1275   -5.5738  -14.0861 O   0  0  0  0  0  0  0  0  0  0  0  0
   19.0068   -6.5038  -16.1134 C   0  0  0  0  0  0  0  0  0  0  0  0
   19.4764   -6.7466  -17.2963 O   0  0  0  0  0  0  0  0  0  0  0  0
   22.1918   -4.9722  -12.1223 O   0  0  0  0  0  0  0  0  0  0  0  0
   18.2241   -5.3580  -15.9827 N   0  0  0  0  0  0  0  0  0  0  0  0
   17.5693   -4.7034  -14.8865 C   0  0  0  0  0  0  0  0  0  0  0  0
   16.1470   -4.5201  -15.4369 C   0  0  0  0  0  0  0  0  0  0  0  0
   16.4598   -4.0288  -16.8417 C   0  0  0  0  0  0  0  0  0  0  0  0
   17.8753   -4.4833  -17.1312 C   0  0  1  0  0  0  0  0  0  0  0  0
   18.8390   -3.3717  -17.1458 C   0  0  0  0  0  0  0  0  0  0  0  0
   19.6470   -3.2068  -16.2159 O   0  0  0  0  0  0  0  0  0  0  0  0
   18.8606   -2.4668  -18.2267 O   0  0  0  0  0  0  0  0  0  0  0  0
  2  3  1  0
  2  1  1  0
  3  5  1  0
  3  4  1  6
  5  7  1  0
  5  6  1  1
  7  8  2  0
  9 10  1  0
  9  7  1  0
 10 11  1  6
 11 12  1  0
 13 12  1  0
 13 17  1  0
 14 13  2  0
 15 18  1  0
 15 10  1  0
 16 15  2  0
 18 19  1  0
 20 19  1  0
 21 20  1  0
 22 21  1  0
 22 18  1  0
 22 23  1  1
 24 23  2  0
 25 23  1  0
M  END
$$$$
