GDF.pdb
     RDKit          3D

 24 24  0  0  1  0  0  0  0  0999 V2000
    5.3939  -15.2927   20.2229 N   0  0  0  0  0  0  0  0  0  0  0  0
    6.5224  -14.6422   20.8269 C   0  0  0  0  0  0  0  0  0  0  0  0
    7.2806  -15.5392   21.7353 C   0  0  0  0  0  0  0  0  0  0  0  0
    6.7310  -16.3447   22.5317 O   0  0  0  0  0  0  0  0  0  0  0  0
    8.6979  -15.4829   21.7014 N   0  0  0  0  0  0  0  0  0  0  0  0
    9.5559  -16.3090   22.4946 C   0  0  1  0  0  0  0  0  0  0  0  0
   10.9410  -16.2917   21.8913 C   0  0  0  0  0  0  0  0  0  0  0  0
   11.1195  -17.2745   20.8209 C   0  0  0  0  0  0  0  0  0  0  0  0
   12.0486  -17.0836   19.9888 O   0  0  0  0  0  0  0  0  0  0  0  0
    9.5756  -15.9522   23.9165 C   0  0  0  0  0  0  0  0  0  0  0  0
   10.2890  -14.9850   24.2828 O   0  0  0  0  0  0  0  0  0  0  0  0
   10.3570  -18.4013   20.6360 O   0  0  0  0  0  0  0  0  0  0  0  0
    8.8258  -16.6502   24.8949 N   0  0  0  0  0  0  0  0  0  0  0  0
    8.9277  -16.2713   26.3070 C   0  0  1  0  0  0  0  0  0  0  0  0
    7.6017  -15.8787   26.8604 C   0  0  0  0  0  0  0  0  0  0  0  0
    7.3449  -14.4488   26.6191 C   0  0  0  0  0  0  0  0  0  0  0  0
    6.2977  -14.0178   25.8168 C   0  0  0  0  0  0  0  0  0  0  0  0
    6.0392  -12.6704   25.6046 C   0  0  0  0  0  0  0  0  0  0  0  0
    6.8463  -11.7125   26.2081 C   0  0  0  0  0  0  0  0  0  0  0  0
    7.8858  -12.1132   27.0042 C   0  0  0  0  0  0  0  0  0  0  0  0
    8.1169  -13.4674   27.1958 C   0  0  0  0  0  0  0  0  0  0  0  0
    9.5430  -17.4061   26.9996 C   0  0  0  0  0  0  0  0  0  0  0  0
    9.8246  -17.3215   28.2169 O   0  0  0  0  0  0  0  0  0  0  0  0
    9.8340  -18.6084   26.3351 O   0  0  0  0  0  0  0  0  0  0  0  0
  2  1  1  0
  3  2  1  0
  4  3  2  0
  5  3  1  0
  6 10  1  0
  6  5  1  0
  6  7  1  6
  8  7  1  0
  9  8  2  0
 10 13  1  0
 11 10  2  0
 12  8  1  0
 13 14  1  0
 14 15  1  1
 14 22  1  0
 15 16  1  0
 16 17  2  0
 17 18  1  0
 19 18  2  0
 20 19  1  0
 21 20  2  0
 21 16  1  0
 22 23  2  0
 22 24  1  0
M  END
$$$$
