GDF.pdb
     RDKit          3D

 24 24  0  0  1  0  0  0  0  0999 V2000
    4.9763  -15.6207   20.3688 N   0  0  0  0  0  0  0  0  0  0  0  0
    6.1643  -14.9141   20.7572 C   0  0  0  0  0  0  0  0  0  0  0  0
    7.1171  -15.7683   21.5103 C   0  0  0  0  0  0  0  0  0  0  0  0
    6.7858  -16.8419   22.0785 O   0  0  0  0  0  0  0  0  0  0  0  0
    8.4703  -15.3497   21.5919 N   0  0  0  0  0  0  0  0  0  0  0  0
    9.4859  -16.0457   22.3213 C   0  0  1  0  0  0  0  0  0  0  0  0
   10.8293  -15.7290   21.7065 C   0  0  0  0  0  0  0  0  0  0  0  0
   11.8432  -16.7517   21.9702 C   0  0  0  0  0  0  0  0  0  0  0  0
   11.4564  -17.9405   22.1414 O   0  0  0  0  0  0  0  0  0  0  0  0
    9.4695  -15.7800   23.7630 C   0  0  0  0  0  0  0  0  0  0  0  0
   10.0497  -14.7508   24.1904 O   0  0  0  0  0  0  0  0  0  0  0  0
   13.1963  -16.5329   22.0502 O   0  0  0  0  0  0  0  0  0  0  0  0
    8.8283  -16.6330   24.6948 N   0  0  0  0  0  0  0  0  0  0  0  0
    8.8467  -16.3063   26.1234 C   0  0  1  0  0  0  0  0  0  0  0  0
    7.4963  -15.9022   26.6049 C   0  0  0  0  0  0  0  0  0  0  0  0
    7.3520  -14.4371   26.5658 C   0  0  0  0  0  0  0  0  0  0  0  0
    6.2262  -13.8260   26.0316 C   0  0  0  0  0  0  0  0  0  0  0  0
    6.0768  -12.4459   26.0128 C   0  0  0  0  0  0  0  0  0  0  0  0
    7.0778  -11.6391   26.5419 C   0  0  0  0  0  0  0  0  0  0  0  0
    8.1981  -12.2187   27.0746 C   0  0  0  0  0  0  0  0  0  0  0  0
    8.3163  -13.6008   27.0780 C   0  0  0  0  0  0  0  0  0  0  0  0
    9.3916  -17.4790   26.8120 C   0  0  0  0  0  0  0  0  0  0  0  0
    9.5529  -17.4597   28.0537 O   0  0  0  0  0  0  0  0  0  0  0  0
    9.7462  -18.6462   26.1167 O   0  0  0  0  0  0  0  0  0  0  0  0
  2  1  1  0
  3  2  1  0
  4  3  2  0
  5  3  1  0
  6 10  1  0
  6  5  1  0
  6  7  1  6
  8  7  1  0
  9  8  2  0
 10 13  1  0
 11 10  2  0
 12  8  1  0
 13 14  1  0
 14 15  1  1
 14 22  1  0
 15 16  1  0
 16 17  2  0
 17 18  1  0
 19 18  2  0
 20 19  1  0
 21 20  2  0
 21 16  1  0
 22 23  2  0
 22 24  1  0
M  END
$$$$
