GDF.pdb
     RDKit          3D

 24 24  0  0  1  0  0  0  0  0999 V2000
    7.8613  -12.4745   18.6964 N   0  0  0  0  0  0  0  0  0  0  0  0
    8.5178  -13.7373   18.8856 C   0  0  0  0  0  0  0  0  0  0  0  0
    8.2743  -14.3122   20.2328 C   0  0  0  0  0  0  0  0  0  0  0  0
    7.8336  -13.6418   21.2032 O   0  0  0  0  0  0  0  0  0  0  0  0
    8.5537  -15.6887   20.4333 N   0  0  0  0  0  0  0  0  0  0  0  0
    8.2716  -16.3999   21.6426 C   0  0  1  0  0  0  0  0  0  0  0  0
    8.2097  -17.8777   21.3342 C   0  0  0  0  0  0  0  0  0  0  0  0
    6.9538  -18.2860   20.7021 C   0  0  0  0  0  0  0  0  0  0  0  0
    6.9673  -18.5433   19.4669 O   0  0  0  0  0  0  0  0  0  0  0  0
    9.2057  -16.1091   22.7344 C   0  0  0  0  0  0  0  0  0  0  0  0
   10.4381  -16.1266   22.4908 O   0  0  0  0  0  0  0  0  0  0  0  0
    5.7445  -18.4160   21.3392 O   0  0  0  0  0  0  0  0  0  0  0  0
    8.7795  -15.8093   24.0518 N   0  0  0  0  0  0  0  0  0  0  0  0
    9.7597  -15.4260   25.0717 C   0  0  1  0  0  0  0  0  0  0  0  0
    9.8232  -13.9467   25.2341 C   0  0  0  0  0  0  0  0  0  0  0  0
    8.5126  -13.4164   25.6465 C   0  0  0  0  0  0  0  0  0  0  0  0
    7.4971  -13.1795   24.7306 C   0  0  0  0  0  0  0  0  0  0  0  0
    6.2532  -12.7003   25.1181 C   0  0  0  0  0  0  0  0  0  0  0  0
    6.0032  -12.4455   26.4619 C   0  0  0  0  0  0  0  0  0  0  0  0
    6.9893  -12.6715   27.3845 C   0  0  0  0  0  0  0  0  0  0  0  0
    8.2213  -13.1508   26.9642 C   0  0  0  0  0  0  0  0  0  0  0  0
    9.3867  -16.1380   26.2965 C   0  0  0  0  0  0  0  0  0  0  0  0
   10.0990  -16.0398   27.3218 O   0  0  0  0  0  0  0  0  0  0  0  0
    8.2374  -16.9419   26.3636 O   0  0  0  0  0  0  0  0  0  0  0  0
  2  1  1  0
  3  2  1  0
  4  3  2  0
  5  3  1  0
  6 10  1  0
  6  5  1  0
  6  7  1  6
  8  7  1  0
  9  8  2  0
 10 13  1  0
 11 10  2  0
 12  8  1  0
 13 14  1  0
 14 15  1  1
 14 22  1  0
 15 16  1  0
 16 17  2  0
 17 18  1  0
 19 18  2  0
 20 19  1  0
 21 20  2  0
 21 16  1  0
 22 23  2  0
 22 24  1  0
M  END
$$$$
