GDF.pdb
     RDKit          3D

 24 24  0  0  1  0  0  0  0  0999 V2000
    7.2655  -14.7183   18.4734 N   0  0  0  0  0  0  0  0  0  0  0  0
    7.8607  -15.8314   19.1577 C   0  0  0  0  0  0  0  0  0  0  0  0
    7.5307  -15.8555   20.6052 C   0  0  0  0  0  0  0  0  0  0  0  0
    7.2536  -14.8231   21.2703 O   0  0  0  0  0  0  0  0  0  0  0  0
    7.5286  -17.1090   21.2700 N   0  0  0  0  0  0  0  0  0  0  0  0
    7.2804  -17.2780   22.6691 C   0  0  1  0  0  0  0  0  0  0  0  0
    6.8644  -18.7087   22.9197 C   0  0  0  0  0  0  0  0  0  0  0  0
    6.6374  -19.0071   24.3349 C   0  0  0  0  0  0  0  0  0  0  0  0
    5.7901  -18.3115   24.9597 O   0  0  0  0  0  0  0  0  0  0  0  0
    8.4026  -16.8785   23.5239 C   0  0  0  0  0  0  0  0  0  0  0  0
    9.5560  -17.2777   23.2259 O   0  0  0  0  0  0  0  0  0  0  0  0
    7.2717  -19.9886   25.0559 O   0  0  0  0  0  0  0  0  0  0  0  0
    8.2431  -16.0623   24.6708 N   0  0  0  0  0  0  0  0  0  0  0  0
    9.4196  -15.5943   25.4087 C   0  0  1  0  0  0  0  0  0  0  0  0
    9.5545  -14.1129   25.3315 C   0  0  0  0  0  0  0  0  0  0  0  0
    8.3578  -13.4565   25.8846 C   0  0  0  0  0  0  0  0  0  0  0  0
    7.2058  -13.2786   25.1315 C   0  0  0  0  0  0  0  0  0  0  0  0
    6.0684  -12.6800   25.6561 C   0  0  0  0  0  0  0  0  0  0  0  0
    6.0695  -12.2405   26.9752 C   0  0  0  0  0  0  0  0  0  0  0  0
    7.1943  -12.4050   27.7384 C   0  0  0  0  0  0  0  0  0  0  0  0
    8.3141  -13.0072   27.1838 C   0  0  0  0  0  0  0  0  0  0  0  0
    9.2838  -16.1033   26.7757 C   0  0  0  0  0  0  0  0  0  0  0  0
   10.1823  -15.8839   27.6200 O   0  0  0  0  0  0  0  0  0  0  0  0
    8.1609  -16.8425   27.1812 O   0  0  0  0  0  0  0  0  0  0  0  0
  2  1  1  0
  3  2  1  0
  4  3  2  0
  5  3  1  0
  6 10  1  0
  6  5  1  0
  6  7  1  6
  8  7  1  0
  9  8  2  0
 10 13  1  0
 11 10  2  0
 12  8  1  0
 13 14  1  0
 14 15  1  1
 14 22  1  0
 15 16  1  0
 16 17  2  0
 17 18  1  0
 19 18  2  0
 20 19  1  0
 21 20  2  0
 21 16  1  0
 22 23  2  0
 22 24  1  0
M  END
$$$$
