GDF.pdb
     RDKit          3D

 24 24  0  0  1  0  0  0  0  0999 V2000
    4.9496  -15.7815   20.6928 N   0  0  0  0  0  0  0  0  0  0  0  0
    6.2420  -15.1640   20.7923 C   0  0  0  0  0  0  0  0  0  0  0  0
    7.2019  -15.9716   21.5866 C   0  0  0  0  0  0  0  0  0  0  0  0
    6.8975  -17.0577   22.1460 O   0  0  0  0  0  0  0  0  0  0  0  0
    8.5303  -15.4913   21.7201 N   0  0  0  0  0  0  0  0  0  0  0  0
    9.5544  -16.1530   22.4692 C   0  0  1  0  0  0  0  0  0  0  0  0
   10.8936  -15.8397   21.8437 C   0  0  0  0  0  0  0  0  0  0  0  0
   11.9823  -16.6733   22.3568 C   0  0  0  0  0  0  0  0  0  0  0  0
   13.1261  -16.1525   22.4692 O   0  0  0  0  0  0  0  0  0  0  0  0
    9.5359  -15.8438   23.9022 C   0  0  0  0  0  0  0  0  0  0  0  0
   10.1716  -14.8387   24.3077 O   0  0  0  0  0  0  0  0  0  0  0  0
   11.8718  -17.9895   22.7318 O   0  0  0  0  0  0  0  0  0  0  0  0
    8.8329  -16.6285   24.8492 N   0  0  0  0  0  0  0  0  0  0  0  0
    8.9832  -16.3601   26.2821 C   0  0  1  0  0  0  0  0  0  0  0  0
    7.7012  -15.9006   26.8853 C   0  0  0  0  0  0  0  0  0  0  0  0
    7.5040  -14.4614   26.6433 C   0  0  0  0  0  0  0  0  0  0  0  0
    8.2441  -13.4976   27.3138 C   0  0  0  0  0  0  0  0  0  0  0  0
    8.0764  -12.1408   27.0725 C   0  0  0  0  0  0  0  0  0  0  0  0
    7.1418  -11.7204   26.1329 C   0  0  0  0  0  0  0  0  0  0  0  0
    6.3996  -12.6525   25.4583 C   0  0  0  0  0  0  0  0  0  0  0  0
    6.5917  -14.0005   25.7229 C   0  0  0  0  0  0  0  0  0  0  0  0
    9.5107  -17.5877   26.8829 C   0  0  0  0  0  0  0  0  0  0  0  0
    9.7510  -17.6331   28.1111 O   0  0  0  0  0  0  0  0  0  0  0  0
    9.7614  -18.7374   26.1167 O   0  0  0  0  0  0  0  0  0  0  0  0
  2  1  1  0
  3  2  1  0
  4  3  2  0
  5  3  1  0
  6 10  1  0
  6  5  1  0
  6  7  1  6
  8  7  1  0
  9  8  2  0
 10 13  1  0
 11 10  2  0
 12  8  1  0
 13 14  1  0
 14 15  1  1
 14 22  1  0
 15 16  1  0
 16 17  2  0
 17 18  1  0
 19 18  2  0
 20 19  1  0
 21 20  2  0
 21 16  1  0
 22 23  2  0
 22 24  1  0
M  END
$$$$
