GDF.pdb
     RDKit          3D

 24 24  0  0  1  0  0  0  0  0999 V2000
    5.6257  -18.8409   23.0607 N   0  0  0  0  0  0  0  0  0  0  0  0
    6.7528  -19.3494   22.3311 C   0  0  0  0  0  0  0  0  0  0  0  0
    7.9124  -18.4223   22.3513 C   0  0  0  0  0  0  0  0  0  0  0  0
    9.1090  -18.8101   22.4055 O   0  0  0  0  0  0  0  0  0  0  0  0
    7.6550  -17.0278   22.3070 N   0  0  0  0  0  0  0  0  0  0  0  0
    8.6709  -16.0202   22.3271 C   0  0  1  0  0  0  0  0  0  0  0  0
    8.1855  -14.8247   21.5410 C   0  0  0  0  0  0  0  0  0  0  0  0
    7.9396  -15.1207   20.1284 C   0  0  0  0  0  0  0  0  0  0  0  0
    8.8769  -15.6342   19.4577 O   0  0  0  0  0  0  0  0  0  0  0  0
    9.1091  -15.6454   23.6751 C   0  0  0  0  0  0  0  0  0  0  0  0
   10.0342  -14.8035   23.7931 O   0  0  0  0  0  0  0  0  0  0  0  0
    6.7655  -14.8866   19.4561 O   0  0  0  0  0  0  0  0  0  0  0  0
    8.5352  -16.1910   24.8497 N   0  0  0  0  0  0  0  0  0  0  0  0
    9.0837  -15.8455   26.1641 C   0  0  1  0  0  0  0  0  0  0  0  0
    8.0057  -15.4628   27.1182 C   0  0  0  0  0  0  0  0  0  0  0  0
    7.4400  -14.1516   26.7582 C   0  0  0  0  0  0  0  0  0  0  0  0
    6.1527  -14.0221   26.2557 C   0  0  0  0  0  0  0  0  0  0  0  0
    5.6082  -12.7858   25.9357 C   0  0  0  0  0  0  0  0  0  0  0  0
    6.3645  -11.6337   26.1193 C   0  0  0  0  0  0  0  0  0  0  0  0
    7.6372  -11.7357   26.6138 C   0  0  0  0  0  0  0  0  0  0  0  0
    8.1515  -12.9862   26.9236 C   0  0  0  0  0  0  0  0  0  0  0  0
    9.8759  -16.9977   26.6011 C   0  0  0  0  0  0  0  0  0  0  0  0
    9.8743  -18.0532   25.9272 O   0  0  0  0  0  0  0  0  0  0  0  0
   10.6518  -16.9607   27.7708 O   0  0  0  0  0  0  0  0  0  0  0  0
  2  1  1  0
  3  2  1  0
  4  3  2  0
  5  3  1  0
  6 10  1  0
  6  5  1  0
  6  7  1  1
  8  7  1  0
  9  8  2  0
 10 13  1  0
 11 10  2  0
 12  8  1  0
 13 14  1  0
 14 15  1  1
 14 22  1  0
 15 16  1  0
 16 17  2  0
 17 18  1  0
 19 18  2  0
 20 19  1  0
 21 20  2  0
 21 16  1  0
 22 23  2  0
 22 24  1  0
M  END
$$$$
