GDF.pdb
     RDKit          3D

 24 24  0  0  1  0  0  0  0  0999 V2000
    6.5832  -13.4557   19.8973 N   0  0  0  0  0  0  0  0  0  0  0  0
    7.9344  -13.6550   20.3399 C   0  0  0  0  0  0  0  0  0  0  0  0
    8.0768  -14.8359   21.2286 C   0  0  0  0  0  0  0  0  0  0  0  0
    7.0971  -15.4631   21.7103 O   0  0  0  0  0  0  0  0  0  0  0  0
    9.3863  -15.2778   21.5495 N   0  0  0  0  0  0  0  0  0  0  0  0
    9.6759  -16.3521   22.4492 C   0  0  1  0  0  0  0  0  0  0  0  0
   10.9575  -17.0215   22.0107 C   0  0  0  0  0  0  0  0  0  0  0  0
   10.9003  -17.5445   20.6444 C   0  0  0  0  0  0  0  0  0  0  0  0
   10.1051  -18.4946   20.4054 O   0  0  0  0  0  0  0  0  0  0  0  0
    9.7250  -15.9500   23.8582 C   0  0  0  0  0  0  0  0  0  0  0  0
   10.5590  -15.0765   24.2045 O   0  0  0  0  0  0  0  0  0  0  0  0
   11.6442  -17.0901   19.5835 O   0  0  0  0  0  0  0  0  0  0  0  0
    8.8733  -16.5032   24.8459 N   0  0  0  0  0  0  0  0  0  0  0  0
    9.0763  -16.1734   26.2594 C   0  0  1  0  0  0  0  0  0  0  0  0
    7.8102  -15.7156   26.8968 C   0  0  0  0  0  0  0  0  0  0  0  0
    7.5723  -14.2916   26.6065 C   0  0  0  0  0  0  0  0  0  0  0  0
    6.4354  -13.8604   25.9373 C   0  0  0  0  0  0  0  0  0  0  0  0
    6.1970  -12.5170   25.6811 C   0  0  0  0  0  0  0  0  0  0  0  0
    7.1170  -11.5634   26.1021 C   0  0  0  0  0  0  0  0  0  0  0  0
    8.2464  -11.9642   26.7644 C   0  0  0  0  0  0  0  0  0  0  0  0
    8.4545  -13.3144   27.0046 C   0  0  0  0  0  0  0  0  0  0  0  0
    9.6548  -17.3645   26.8863 C   0  0  0  0  0  0  0  0  0  0  0  0
    9.6932  -18.4482   26.2599 O   0  0  0  0  0  0  0  0  0  0  0  0
   10.1777  -17.3343   28.1890 O   0  0  0  0  0  0  0  0  0  0  0  0
  2  1  1  0
  3  2  1  0
  4  3  2  0
  5  3  1  0
  6 10  1  0
  6  5  1  0
  6  7  1  6
  8  7  1  0
  9  8  2  0
 10 13  1  0
 11 10  2  0
 12  8  1  0
 13 14  1  0
 14 15  1  1
 14 22  1  0
 15 16  1  0
 16 17  2  0
 17 18  1  0
 19 18  2  0
 20 19  1  0
 21 20  2  0
 21 16  1  0
 22 23  2  0
 22 24  1  0
M  END
$$$$
