GDF.pdb
     RDKit          3D

 24 24  0  0  1  0  0  0  0  0999 V2000
    5.6557  -18.5974   23.5070 N   0  0  0  0  0  0  0  0  0  0  0  0
    6.8321  -19.3693   23.2213 C   0  0  0  0  0  0  0  0  0  0  0  0
    8.0474  -18.5282   23.0792 C   0  0  0  0  0  0  0  0  0  0  0  0
    9.2174  -18.9930   23.0915 O   0  0  0  0  0  0  0  0  0  0  0  0
    7.8775  -17.1284   22.9215 N   0  0  0  0  0  0  0  0  0  0  0  0
    8.9549  -16.1892   22.8523 C   0  0  1  0  0  0  0  0  0  0  0  0
    8.5859  -15.0974   21.8753 C   0  0  0  0  0  0  0  0  0  0  0  0
    8.3651  -15.5880   20.5137 C   0  0  0  0  0  0  0  0  0  0  0  0
    7.1760  -15.7783   20.1369 O   0  0  0  0  0  0  0  0  0  0  0  0
    9.3528  -15.6448   24.1541 C   0  0  0  0  0  0  0  0  0  0  0  0
   10.3288  -14.8550   24.2015 O   0  0  0  0  0  0  0  0  0  0  0  0
    9.3477  -15.8650   19.5955 O   0  0  0  0  0  0  0  0  0  0  0  0
    8.6852  -15.9703   25.3604 N   0  0  0  0  0  0  0  0  0  0  0  0
    9.1898  -15.4629   26.6393 C   0  0  1  0  0  0  0  0  0  0  0  0
    8.0836  -14.9442   27.4915 C   0  0  0  0  0  0  0  0  0  0  0  0
    7.4965  -13.7331   26.8936 C   0  0  0  0  0  0  0  0  0  0  0  0
    8.2795  -12.6566   26.5008 C   0  0  0  0  0  0  0  0  0  0  0  0
    7.7321  -11.5223   25.9170 C   0  0  0  0  0  0  0  0  0  0  0  0
    6.3586  -11.4490   25.7135 C   0  0  0  0  0  0  0  0  0  0  0  0
    5.5652  -12.4985   26.0926 C   0  0  0  0  0  0  0  0  0  0  0  0
    6.1438  -13.6174   26.6733 C   0  0  0  0  0  0  0  0  0  0  0  0
    9.9435  -16.5584   27.2542 C   0  0  0  0  0  0  0  0  0  0  0  0
   10.5181  -16.3862   28.3534 O   0  0  0  0  0  0  0  0  0  0  0  0
   10.0467  -17.8187   26.6437 O   0  0  0  0  0  0  0  0  0  0  0  0
  2  1  1  0
  3  2  1  0
  4  3  2  0
  5  3  1  0
  6 10  1  0
  6  5  1  0
  6  7  1  6
  8  7  1  0
  9  8  2  0
 10 13  1  0
 11 10  2  0
 12  8  1  0
 13 14  1  0
 14 15  1  1
 14 22  1  0
 15 16  1  0
 16 17  2  0
 17 18  1  0
 19 18  2  0
 20 19  1  0
 21 20  2  0
 21 16  1  0
 22 23  2  0
 22 24  1  0
M  END
$$$$
