WAR.pdb
     RDKit          3D

 31 32  0  0  1  0  0  0  0  0999 V2000
    6.4167  -17.1574   25.0422 N   0  0  0  0  0  0  0  0  0  0  0  0
    7.0167  -15.9357   24.4855 C   0  0  1  0  0  0  0  0  0  0  0  0
    8.2646  -15.5963   25.2200 C   0  0  0  0  0  0  0  0  0  0  0  0
    8.1241  -14.7400   26.3976 C   0  0  0  0  0  0  0  0  0  0  0  0
    8.5137  -14.9934   27.7071 C   0  0  0  0  0  0  0  0  0  0  0  0
    8.2015  -13.9576   28.4746 N   0  0  0  0  0  0  0  0  0  0  0  0
    7.6193  -13.0187   27.7380 C   0  0  0  0  0  0  0  0  0  0  0  0
    7.1298  -11.7685   28.0479 C   0  0  0  0  0  0  0  0  0  0  0  0
    6.5702  -10.9511   27.0779 C   0  0  0  0  0  0  0  0  0  0  0  0
    6.5030  -11.4013   25.7773 C   0  0  0  0  0  0  0  0  0  0  0  0
    6.9970  -12.6561   25.4807 C   0  0  0  0  0  0  0  0  0  0  0  0
    7.5538  -13.4714   26.4401 C   0  0  0  0  0  0  0  0  0  0  0  0
    7.1296  -16.1501   23.0417 C   0  0  0  0  0  0  0  0  0  0  0  0
    7.1906  -17.3178   22.5366 O   0  0  0  0  0  0  0  0  0  0  0  0
    7.3023  -13.8763   20.0820 C   0  0  0  0  0  0  0  0  0  0  0  0
    7.3236  -15.2782   20.7295 C   0  0  2  0  0  0  0  0  0  0  0  0
    7.1669  -15.0491   22.1621 N   0  0  0  0  0  0  0  0  0  0  0  0
    8.6658  -15.8143   20.4716 C   0  0  0  0  0  0  0  0  0  0  0  0
    9.7162  -15.3599   20.9798 O   0  0  0  0  0  0  0  0  0  0  0  0
    7.2690  -14.4578   14.6181 N   0  0  0  0  0  0  0  0  0  0  0  0
    8.2982  -14.0872   15.5229 C   0  0  0  0  0  0  0  0  0  0  0  0
    8.0730  -13.1340   16.3570 N   0  0  0  0  0  0  0  0  0  0  0  0
    9.5636  -14.7193   15.5499 N   0  0  0  0  0  0  0  0  0  0  0  0
    9.7545  -16.1411   15.3861 C   0  0  0  0  0  0  0  0  0  0  0  0
    9.3986  -16.8893   16.6473 C   0  0  0  0  0  0  0  0  0  0  0  0
   10.3411  -16.5234   17.7283 C   0  0  0  0  0  0  0  0  0  0  0  0
   10.1150  -17.2606   19.0243 C   0  0  2  0  0  0  0  0  0  0  0  0
    8.8274  -16.9221   19.5923 N   0  0  0  0  0  0  0  0  0  0  0  0
   11.2168  -17.0992   19.9934 C   0  0  0  0  0  0  0  0  0  0  0  0
   11.9956  -18.1187   20.4958 O   0  0  0  0  0  0  0  0  0  0  0  0
   11.4771  -15.9325   20.4042 O   0  0  0  0  0  0  0  0  0  0  0  0
  2  1  1  1
  2 13  1  0
  3  2  1  0
  3  4  1  0
  4 12  1  0
  4  5  2  0
  5  6  1  0
  7  6  1  0
  7  8  2  0
  9  8  1  0
 10  9  2  0
 11 10  1  0
 11 12  2  0
 12  7  1  0
 13 14  2  0
 16 15  1  6
 17 13  1  0
 17 16  1  0
 18 16  1  0
 18 19  2  0
 20 21  1  0
 21 22  2  0
 21 23  1  0
 23 24  1  0
 24 25  1  0
 25 26  1  0
 27 26  1  6
 27 28  1  0
 28 18  1  0
 29 27  1  0
 30 29  1  0
 31 29  2  0
M  END
$$$$
