WAR.pdb
     RDKit          3D

 31 32  0  0  1  0  0  0  0  0999 V2000
    7.8951  -17.5221   26.3000 N   0  0  0  0  0  0  0  0  0  0  0  0
    7.4624  -16.5843   25.2532 C   0  0  1  0  0  0  0  0  0  0  0  0
    8.3447  -15.3870   25.2405 C   0  0  0  0  0  0  0  0  0  0  0  0
    8.3118  -14.5314   26.4265 C   0  0  0  0  0  0  0  0  0  0  0  0
    9.1273  -14.5737   27.5508 C   0  0  0  0  0  0  0  0  0  0  0  0
    8.7643  -13.6234   28.4020 N   0  0  0  0  0  0  0  0  0  0  0  0
    7.7405  -12.9439   27.8989 C   0  0  0  0  0  0  0  0  0  0  0  0
    7.0181  -11.8705   28.3729 C   0  0  0  0  0  0  0  0  0  0  0  0
    5.9819  -11.3160   27.6374 C   0  0  0  0  0  0  0  0  0  0  0  0
    5.6698  -11.8520   26.4068 C   0  0  0  0  0  0  0  0  0  0  0  0
    6.4016  -12.9276   25.9441 C   0  0  0  0  0  0  0  0  0  0  0  0
    7.4316  -13.4816   26.6704 C   0  0  0  0  0  0  0  0  0  0  0  0
    7.3711  -17.3590   24.0144 C   0  0  0  0  0  0  0  0  0  0  0  0
    8.0094  -18.4493   23.8529 O   0  0  0  0  0  0  0  0  0  0  0  0
    5.2954  -17.1307   20.9347 C   0  0  0  0  0  0  0  0  0  0  0  0
    6.5271  -17.6577   21.7030 C   0  0  2  0  0  0  0  0  0  0  0  0
    6.5543  -16.9109   22.9564 N   0  0  0  0  0  0  0  0  0  0  0  0
    7.6918  -17.2807   20.8926 C   0  0  0  0  0  0  0  0  0  0  0  0
    7.9790  -17.7964   19.7882 O   0  0  0  0  0  0  0  0  0  0  0  0
    9.4003  -15.2993   17.0003 N   0  0  0  0  0  0  0  0  0  0  0  0
    8.5805  -14.2663   16.4749 C   0  0  0  0  0  0  0  0  0  0  0  0
    8.1949  -14.3470   15.2503 N   0  0  0  0  0  0  0  0  0  0  0  0
    8.1667  -13.1490   17.2379 N   0  0  0  0  0  0  0  0  0  0  0  0
    8.4297  -12.9991   18.6497 C   0  0  0  0  0  0  0  0  0  0  0  0
    8.3906  -14.3313   19.3574 C   0  0  0  0  0  0  0  0  0  0  0  0
    9.7042  -14.6040   19.9825 C   0  0  0  0  0  0  0  0  0  0  0  0
    9.8034  -15.9498   20.6556 C   0  0  2  0  0  0  0  0  0  0  0  0
    8.5776  -16.2675   21.3566 N   0  0  0  0  0  0  0  0  0  0  0  0
   10.9953  -16.0917   21.5150 C   0  0  0  0  0  0  0  0  0  0  0  0
   10.9832  -16.4419   22.8475 O   0  0  0  0  0  0  0  0  0  0  0  0
   12.1277  -15.8765   20.9963 O   0  0  0  0  0  0  0  0  0  0  0  0
  2  1  1  1
  2 13  1  0
  3  2  1  0
  3  4  1  0
  4 12  1  0
  4  5  2  0
  5  6  1  0
  7  6  1  0
  7  8  2  0
  9  8  1  0
 10  9  2  0
 11 10  1  0
 11 12  2  0
 12  7  1  0
 13 14  2  0
 16 15  1  6
 17 13  1  0
 17 16  1  0
 18 16  1  0
 18 19  2  0
 20 21  1  0
 21 22  2  0
 21 23  1  0
 23 24  1  0
 24 25  1  0
 25 26  1  0
 27 26  1  1
 27 28  1  0
 28 18  1  0
 29 27  1  0
 30 29  1  0
 31 29  2  0
M  END
$$$$
