WAR.pdb
     RDKit          3D

 31 32  0  0  1  0  0  0  0  0999 V2000
   10.5578  -16.0034   22.2718 N   0  0  0  0  0  0  0  0  0  0  0  0
    9.8521  -15.1934   23.2761 C   0  0  1  0  0  0  0  0  0  0  0  0
    8.3835  -15.3982   23.1605 C   0  0  0  0  0  0  0  0  0  0  0  0
    7.5461  -14.1993   23.1950 C   0  0  0  0  0  0  0  0  0  0  0  0
    7.0286  -13.4706   22.1311 C   0  0  0  0  0  0  0  0  0  0  0  0
    6.3218  -12.4473   22.5923 N   0  0  0  0  0  0  0  0  0  0  0  0
    6.3413  -12.4564   23.9199 C   0  0  0  0  0  0  0  0  0  0  0  0
    5.7614  -11.6339   24.8610 C   0  0  0  0  0  0  0  0  0  0  0  0
    5.9189  -11.8663   26.2187 C   0  0  0  0  0  0  0  0  0  0  0  0
    6.6724  -12.9431   26.6328 C   0  0  0  0  0  0  0  0  0  0  0  0
    7.2481  -13.7591   25.6792 C   0  0  0  0  0  0  0  0  0  0  0  0
    7.0945  -13.5327   24.3299 C   0  0  0  0  0  0  0  0  0  0  0  0
   10.4694  -15.5032   24.5669 C   0  0  0  0  0  0  0  0  0  0  0  0
   11.1631  -16.5561   24.7467 O   0  0  0  0  0  0  0  0  0  0  0  0
   10.2035  -14.0592   27.9788 C   0  0  0  0  0  0  0  0  0  0  0  0
   10.9142  -14.9584   26.9437 C   0  0  2  0  0  0  0  0  0  0  0  0
   10.3128  -14.6233   25.6571 N   0  0  0  0  0  0  0  0  0  0  0  0
   10.5528  -16.3361   27.2999 C   0  0  0  0  0  0  0  0  0  0  0  0
    9.3766  -16.7580   27.3809 O   0  0  0  0  0  0  0  0  0  0  0  0
   14.1345  -23.9930   24.7299 N   0  0  0  0  0  0  0  0  0  0  0  0
   12.7535  -23.9802   25.0586 C   0  0  0  0  0  0  0  0  0  0  0  0
   11.9754  -24.8307   24.4877 N   0  0  0  0  0  0  0  0  0  0  0  0
   12.1919  -23.0727   25.9875 N   0  0  0  0  0  0  0  0  0  0  0  0
   12.4843  -21.6589   26.0060 C   0  0  0  0  0  0  0  0  0  0  0  0
   11.9837  -21.0138   27.2749 C   0  0  0  0  0  0  0  0  0  0  0  0
   12.3397  -19.5771   27.2793 C   0  0  0  0  0  0  0  0  0  0  0  0
   11.2720  -18.6752   27.8457 C   0  0  2  0  0  0  0  0  0  0  0  0
   11.5762  -17.2854   27.5795 N   0  0  0  0  0  0  0  0  0  0  0  0
   10.9865  -18.9248   29.2724 C   0  0  0  0  0  0  0  0  0  0  0  0
   10.4239  -20.0727   29.7864 O   0  0  0  0  0  0  0  0  0  0  0  0
   11.2783  -18.0167   30.1018 O   0  0  0  0  0  0  0  0  0  0  0  0
  2  1  1  6
  2 13  1  0
  3  2  1  0
  3  4  1  0
  4 12  1  0
  4  5  2  0
  5  6  1  0
  7  6  1  0
  7  8  2  0
  9  8  1  0
 10  9  2  0
 11 10  1  0
 11 12  2  0
 12  7  1  0
 13 14  2  0
 16 15  1  1
 17 13  1  0
 17 16  1  0
 18 16  1  0
 18 19  2  0
 20 21  1  0
 21 22  2  0
 21 23  1  0
 23 24  1  0
 24 25  1  0
 25 26  1  0
 27 26  1  1
 27 28  1  0
 28 18  1  0
 29 27  1  0
 30 29  1  0
 31 29  2  0
M  END
$$$$
