WAR.pdb
     RDKit          3D

 31 32  0  0  1  0  0  0  0  0999 V2000
    9.1307  -17.5220   27.0470 N   0  0  0  0  0  0  0  0  0  0  0  0
    8.1523  -17.1278   26.0224 C   0  0  1  0  0  0  0  0  0  0  0  0
    8.5339  -15.8204   25.4247 C   0  0  0  0  0  0  0  0  0  0  0  0
    8.6124  -14.6777   26.3344 C   0  0  0  0  0  0  0  0  0  0  0  0
    9.6690  -14.2857   27.1473 C   0  0  0  0  0  0  0  0  0  0  0  0
    9.3329  -13.1939   27.8215 N   0  0  0  0  0  0  0  0  0  0  0  0
    8.0965  -12.8346   27.4971 C   0  0  0  0  0  0  0  0  0  0  0  0
    7.3015  -11.7832   27.8983 C   0  0  0  0  0  0  0  0  0  0  0  0
    6.0228  -11.6100   27.3913 C   0  0  0  0  0  0  0  0  0  0  0  0
    5.5391  -12.5103   26.4670 C   0  0  0  0  0  0  0  0  0  0  0  0
    6.3462  -13.5595   26.0739 C   0  0  0  0  0  0  0  0  0  0  0  0
    7.6166  -13.7356   26.5742 C   0  0  0  0  0  0  0  0  0  0  0  0
    8.0249  -18.2663   25.1109 C   0  0  0  0  0  0  0  0  0  0  0  0
    8.9514  -19.1302   24.9783 O   0  0  0  0  0  0  0  0  0  0  0  0
    5.2590  -19.6592   23.0475 C   0  0  0  0  0  0  0  0  0  0  0  0
    6.7550  -19.5552   23.4168 C   0  0  2  0  0  0  0  0  0  0  0  0
    6.8498  -18.4387   24.3515 N   0  0  0  0  0  0  0  0  0  0  0  0
    7.4476  -19.2011   22.1717 C   0  0  0  0  0  0  0  0  0  0  0  0
    7.5499  -19.9603   21.1812 O   0  0  0  0  0  0  0  0  0  0  0  0
    9.1272  -12.0290   18.5826 N   0  0  0  0  0  0  0  0  0  0  0  0
    8.5582  -13.1558   17.9331 C   0  0  0  0  0  0  0  0  0  0  0  0
    8.8312  -13.3560   16.6920 N   0  0  0  0  0  0  0  0  0  0  0  0
    7.7023  -14.0714   18.5895 N   0  0  0  0  0  0  0  0  0  0  0  0
    7.5120  -14.1085   20.0202 C   0  0  0  0  0  0  0  0  0  0  0  0
    8.4420  -15.1035   20.6698 C   0  0  0  0  0  0  0  0  0  0  0  0
    8.2043  -16.4515   20.1064 C   0  0  0  0  0  0  0  0  0  0  0  0
    8.8507  -17.5711   20.8828 C   0  0  2  0  0  0  0  0  0  0  0  0
    8.0566  -17.9209   22.0413 N   0  0  0  0  0  0  0  0  0  0  0  0
   10.2624  -17.3103   21.2270 C   0  0  0  0  0  0  0  0  0  0  0  0
   10.7457  -17.0747   22.4955 O   0  0  0  0  0  0  0  0  0  0  0  0
   11.1080  -17.2997   20.2877 O   0  0  0  0  0  0  0  0  0  0  0  0
  2  1  1  1
  2 13  1  0
  3  2  1  0
  3  4  1  0
  4 12  1  0
  4  5  2  0
  5  6  1  0
  7  6  1  0
  7  8  2  0
  9  8  1  0
 10  9  2  0
 11 10  1  0
 11 12  2  0
 12  7  1  0
 13 14  2  0
 16 15  1  6
 17 13  1  0
 17 16  1  0
 18 16  1  0
 18 19  2  0
 20 21  1  0
 21 22  2  0
 21 23  1  0
 23 24  1  0
 24 25  1  0
 25 26  1  0
 27 26  1  1
 27 28  1  0
 28 18  1  0
 29 27  1  0
 30 29  1  0
 31 29  2  0
M  END
$$$$
