WAR.pdb
     RDKit          3D

 31 32  0  0  1  0  0  0  0  0999 V2000
    6.2049  -17.1007   24.0681 N   0  0  0  0  0  0  0  0  0  0  0  0
    6.9542  -15.8682   23.7814 C   0  0  1  0  0  0  0  0  0  0  0  0
    8.0130  -15.6615   24.8053 C   0  0  0  0  0  0  0  0  0  0  0  0
    7.6324  -14.9180   26.0061 C   0  0  0  0  0  0  0  0  0  0  0  0
    7.3664  -15.4038   27.2805 C   0  0  0  0  0  0  0  0  0  0  0  0
    7.0524  -14.3976   28.0857 N   0  0  0  0  0  0  0  0  0  0  0  0
    7.0959  -13.2564   27.4083 C   0  0  0  0  0  0  0  0  0  0  0  0
    6.8722  -11.9487   27.7803 C   0  0  0  0  0  0  0  0  0  0  0  0
    6.9994  -10.9079   26.8733 C   0  0  0  0  0  0  0  0  0  0  0  0
    7.3569  -11.1902   25.5728 C   0  0  0  0  0  0  0  0  0  0  0  0
    7.5778  -12.5050   25.2134 C   0  0  0  0  0  0  0  0  0  0  0  0
    7.4530  -13.5420   26.1103 C   0  0  0  0  0  0  0  0  0  0  0  0
    7.3850  -15.9602   22.3853 C   0  0  0  0  0  0  0  0  0  0  0  0
    7.4640  -17.0762   21.7766 O   0  0  0  0  0  0  0  0  0  0  0  0
    8.5327  -13.4622   19.8550 C   0  0  0  0  0  0  0  0  0  0  0  0
    8.2493  -14.9096   20.3133 C   0  0  2  0  0  0  0  0  0  0  0  0
    7.7212  -14.7937   21.6686 N   0  0  0  0  0  0  0  0  0  0  0  0
    9.5576  -15.5741   20.3615 C   0  0  0  0  0  0  0  0  0  0  0  0
   10.3600  -15.4829   21.3184 O   0  0  0  0  0  0  0  0  0  0  0  0
   12.9225  -15.5954   14.6219 N   0  0  0  0  0  0  0  0  0  0  0  0
   11.8832  -16.2002   13.8674 C   0  0  0  0  0  0  0  0  0  0  0  0
   11.5861  -15.7045   12.7180 N   0  0  0  0  0  0  0  0  0  0  0  0
   11.1570  -17.3260   14.3222 N   0  0  0  0  0  0  0  0  0  0  0  0
   11.4331  -18.0121   15.5623 C   0  0  0  0  0  0  0  0  0  0  0  0
   11.3166  -17.0778   16.7415 C   0  0  0  0  0  0  0  0  0  0  0  0
   11.4591  -17.8423   18.0009 C   0  0  0  0  0  0  0  0  0  0  0  0
   11.2808  -17.0175   19.2507 C   0  0  2  0  0  0  0  0  0  0  0  0
    9.9796  -16.3838   19.2692 N   0  0  0  0  0  0  0  0  0  0  0  0
   12.3772  -16.0568   19.4834 C   0  0  0  0  0  0  0  0  0  0  0  0
   13.5678  -16.3402   20.1164 O   0  0  0  0  0  0  0  0  0  0  0  0
   12.2226  -14.8717   19.0720 O   0  0  0  0  0  0  0  0  0  0  0  0
  2  1  1  1
  2 13  1  0
  3  2  1  0
  3  4  1  0
  4 12  1  0
  4  5  2  0
  5  6  1  0
  7  6  1  0
  7  8  2  0
  9  8  1  0
 10  9  2  0
 11 10  1  0
 11 12  2  0
 12  7  1  0
 13 14  2  0
 16 15  1  1
 17 13  1  0
 17 16  1  0
 18 16  1  0
 18 19  2  0
 20 21  1  0
 21 22  2  0
 21 23  1  0
 23 24  1  0
 24 25  1  0
 25 26  1  0
 27 26  1  6
 27 28  1  0
 28 18  1  0
 29 27  1  0
 30 29  1  0
 31 29  2  0
M  END
$$$$
