WAR.pdb
     RDKit          3D

 31 32  0  0  1  0  0  0  0  0999 V2000
    6.9478  -18.4627   25.5759 N   0  0  0  0  0  0  0  0  0  0  0  0
    7.2999  -17.4675   24.5521 C   0  0  1  0  0  0  0  0  0  0  0  0
    8.2013  -16.4347   25.1290 C   0  0  0  0  0  0  0  0  0  0  0  0
    7.6006  -15.4839   26.0644 C   0  0  0  0  0  0  0  0  0  0  0  0
    6.9246  -15.7418   27.2507 C   0  0  0  0  0  0  0  0  0  0  0  0
    6.5335  -14.5994   27.7996 N   0  0  0  0  0  0  0  0  0  0  0  0
    6.9173  -13.5846   27.0342 C   0  0  0  0  0  0  0  0  0  0  0  0
    6.7740  -12.2203   27.1635 C   0  0  0  0  0  0  0  0  0  0  0  0
    7.2887  -11.3472   26.2175 C   0  0  0  0  0  0  0  0  0  0  0  0
    7.9568  -11.8573   25.1256 C   0  0  0  0  0  0  0  0  0  0  0  0
    8.0929  -13.2264   25.0083 C   0  0  0  0  0  0  0  0  0  0  0  0
    7.5839  -14.0976   25.9450 C   0  0  0  0  0  0  0  0  0  0  0  0
    7.7979  -18.2183   23.3981 C   0  0  0  0  0  0  0  0  0  0  0  0
    8.4871  -19.2809   23.5320 O   0  0  0  0  0  0  0  0  0  0  0  0
    7.1275  -18.2537   19.7777 C   0  0  0  0  0  0  0  0  0  0  0  0
    8.1061  -18.4741   20.9520 C   0  0  2  0  0  0  0  0  0  0  0  0
    7.5142  -17.7775   22.0894 N   0  0  0  0  0  0  0  0  0  0  0  0
    9.3493  -17.7955   20.5655 C   0  0  0  0  0  0  0  0  0  0  0  0
   10.1146  -18.1899   19.6562 O   0  0  0  0  0  0  0  0  0  0  0  0
    9.5004  -14.0424   16.7620 N   0  0  0  0  0  0  0  0  0  0  0  0
    8.2582  -13.4981   17.1819 C   0  0  0  0  0  0  0  0  0  0  0  0
    7.2421  -13.6043   16.4001 N   0  0  0  0  0  0  0  0  0  0  0  0
    8.0857  -12.8426   18.4237 N   0  0  0  0  0  0  0  0  0  0  0  0
    8.9265  -13.0701   19.5753 C   0  0  0  0  0  0  0  0  0  0  0  0
    9.8137  -14.2741   19.3750 C   0  0  0  0  0  0  0  0  0  0  0  0
   10.6748  -14.4638   20.5639 C   0  0  0  0  0  0  0  0  0  0  0  0
   10.9638  -15.9059   20.8967 C   0  0  2  0  0  0  0  0  0  0  0  0
    9.7471  -16.6090   21.2441 N   0  0  0  0  0  0  0  0  0  0  0  0
   12.0205  -16.0750   21.9136 C   0  0  0  0  0  0  0  0  0  0  0  0
   11.8479  -16.6351   23.1606 O   0  0  0  0  0  0  0  0  0  0  0  0
   13.1855  -15.6765   21.6280 O   0  0  0  0  0  0  0  0  0  0  0  0
  2  1  1  1
  2 13  1  0
  3  2  1  0
  3  4  1  0
  4 12  1  0
  4  5  2  0
  5  6  1  0
  7  6  1  0
  7  8  2  0
  9  8  1  0
 10  9  2  0
 11 10  1  0
 11 12  2  0
 12  7  1  0
 13 14  2  0
 16 15  1  6
 17 13  1  0
 17 16  1  0
 18 16  1  0
 18 19  2  0
 20 21  1  0
 21 22  2  0
 21 23  1  0
 23 24  1  0
 24 25  1  0
 25 26  1  0
 27 26  1  1
 27 28  1  0
 28 18  1  0
 29 27  1  0
 30 29  1  0
 31 29  2  0
M  END
$$$$
