WAR.pdb
     RDKit          3D

 31 32  0  0  1  0  0  0  0  0999 V2000
    7.6042  -15.3617   22.4579 N   0  0  0  0  0  0  0  0  0  0  0  0
    8.6438  -15.4514   23.4941 C   0  0  1  0  0  0  0  0  0  0  0  0
    8.0375  -15.8326   24.7976 C   0  0  0  0  0  0  0  0  0  0  0  0
    7.0835  -14.8899   25.3815 C   0  0  0  0  0  0  0  0  0  0  0  0
    5.7644  -15.1107   25.7583 C   0  0  0  0  0  0  0  0  0  0  0  0
    5.2449  -13.9908   26.2435 N   0  0  0  0  0  0  0  0  0  0  0  0
    6.1574  -13.0268   26.2096 C   0  0  0  0  0  0  0  0  0  0  0  0
    6.1263  -11.7070   26.6041 C   0  0  0  0  0  0  0  0  0  0  0  0
    7.2388  -10.8892   26.4786 C   0  0  0  0  0  0  0  0  0  0  0  0
    8.3987  -11.4100   25.9472 C   0  0  0  0  0  0  0  0  0  0  0  0
    8.4160  -12.7340   25.5558 C   0  0  0  0  0  0  0  0  0  0  0  0
    7.3141  -13.5502   25.6785 C   0  0  0  0  0  0  0  0  0  0  0  0
    9.6861  -16.3303   22.9606 C   0  0  0  0  0  0  0  0  0  0  0  0
    9.5874  -16.8730   21.8126 O   0  0  0  0  0  0  0  0  0  0  0  0
   13.2093  -16.9379   23.5795 C   0  0  0  0  0  0  0  0  0  0  0  0
   11.8358  -17.5390   23.2088 C   0  0  2  0  0  0  0  0  0  0  0  0
   10.8463  -16.5943   23.7166 N   0  0  0  0  0  0  0  0  0  0  0  0
   11.7350  -18.7942   23.9636 C   0  0  0  0  0  0  0  0  0  0  0  0
   11.1797  -18.9026   25.0807 O   0  0  0  0  0  0  0  0  0  0  0  0
   16.7785  -22.2024   19.3185 N   0  0  0  0  0  0  0  0  0  0  0  0
   15.4972  -22.2513   19.9277 C   0  0  0  0  0  0  0  0  0  0  0  0
   14.7088  -21.2444   19.7886 N   0  0  0  0  0  0  0  0  0  0  0  0
   15.0459  -23.3594   20.6829 N   0  0  0  0  0  0  0  0  0  0  0  0
   13.7786  -23.3977   21.3736 C   0  0  0  0  0  0  0  0  0  0  0  0
   13.6648  -22.2700   22.3698 C   0  0  0  0  0  0  0  0  0  0  0  0
   12.4036  -22.4026   23.1330 C   0  0  0  0  0  0  0  0  0  0  0  0
   12.1336  -21.2665   24.0872 C   0  0  2  0  0  0  0  0  0  0  0  0
   12.2923  -19.9888   23.4260 N   0  0  0  0  0  0  0  0  0  0  0  0
   12.9112  -21.3519   25.3392 C   0  0  0  0  0  0  0  0  0  0  0  0
   13.8687  -20.4499   25.7488 O   0  0  0  0  0  0  0  0  0  0  0  0
   12.6887  -22.3301   26.1082 O   0  0  0  0  0  0  0  0  0  0  0  0
  2  1  1  6
  2 13  1  0
  3  2  1  0
  3  4  1  0
  4 12  1  0
  4  5  2  0
  5  6  1  0
  7  6  1  0
  7  8  2  0
  9  8  1  0
 10  9  2  0
 11 10  1  0
 11 12  2  0
 12  7  1  0
 13 14  2  0
 16 15  1  1
 17 13  1  0
 17 16  1  0
 18 16  1  0
 18 19  2  0
 20 21  1  0
 21 22  2  0
 21 23  1  0
 23 24  1  0
 24 25  1  0
 25 26  1  0
 27 26  1  6
 27 28  1  0
 28 18  1  0
 29 27  1  0
 30 29  1  0
 31 29  2  0
M  END
$$$$
