WAR.pdb
     RDKit          3D

 31 32  0  0  1  0  0  0  0  0999 V2000
    7.6374  -16.3661   23.1791 N   0  0  0  0  0  0  0  0  0  0  0  0
    8.8701  -16.0699   23.9243 C   0  0  1  0  0  0  0  0  0  0  0  0
    8.5858  -16.0087   25.3829 C   0  0  0  0  0  0  0  0  0  0  0  0
    7.5268  -15.0945   25.8100 C   0  0  0  0  0  0  0  0  0  0  0  0
    6.1910  -15.3743   26.0712 C   0  0  0  0  0  0  0  0  0  0  0  0
    5.5636  -14.2623   26.4309 N   0  0  0  0  0  0  0  0  0  0  0  0
    6.4195  -13.2472   26.4233 C   0  0  0  0  0  0  0  0  0  0  0  0
    6.2752  -11.9111   26.7272 C   0  0  0  0  0  0  0  0  0  0  0  0
    7.3471  -11.0346   26.6574 C   0  0  0  0  0  0  0  0  0  0  0  0
    8.5818  -11.5125   26.2751 C   0  0  0  0  0  0  0  0  0  0  0  0
    8.7123  -12.8535   25.9731 C   0  0  0  0  0  0  0  0  0  0  0  0
    7.6510  -13.7279   26.0412 C   0  0  0  0  0  0  0  0  0  0  0  0
    9.8678  -17.0446   23.4794 C   0  0  0  0  0  0  0  0  0  0  0  0
   11.0016  -17.1561   24.0488 O   0  0  0  0  0  0  0  0  0  0  0  0
    9.9548  -19.7559   20.9301 C   0  0  0  0  0  0  0  0  0  0  0  0
   10.6586  -18.7112   21.8237 C   0  0  2  0  0  0  0  0  0  0  0  0
    9.5876  -17.9018   22.3958 N   0  0  0  0  0  0  0  0  0  0  0  0
   11.4551  -17.8808   20.9118 C   0  0  0  0  0  0  0  0  0  0  0  0
   11.1986  -17.7228   19.6963 O   0  0  0  0  0  0  0  0  0  0  0  0
    8.1047  -12.2673   18.3554 N   0  0  0  0  0  0  0  0  0  0  0  0
    8.2246  -13.6714   18.5267 C   0  0  0  0  0  0  0  0  0  0  0  0
    7.1696  -14.3991   18.4148 N   0  0  0  0  0  0  0  0  0  0  0  0
    9.4539  -14.3093   18.8158 N   0  0  0  0  0  0  0  0  0  0  0  0
   10.7014  -13.6047   18.9948 C   0  0  0  0  0  0  0  0  0  0  0  0
   11.8589  -14.5651   19.1172 C   0  0  0  0  0  0  0  0  0  0  0  0
   11.9962  -15.0058   20.5235 C   0  0  0  0  0  0  0  0  0  0  0  0
   13.1059  -16.0000   20.7564 C   0  0  2  0  0  0  0  0  0  0  0  0
   12.6019  -17.1938   21.4012 N   0  0  0  0  0  0  0  0  0  0  0  0
   14.2697  -15.4286   21.4623 C   0  0  0  0  0  0  0  0  0  0  0  0
   14.6482  -15.7280   22.7528 O   0  0  0  0  0  0  0  0  0  0  0  0
   14.9868  -14.5934   20.8411 O   0  0  0  0  0  0  0  0  0  0  0  0
  2  1  1  6
  2 13  1  0
  3  2  1  0
  3  4  1  0
  4 12  1  0
  4  5  2  0
  5  6  1  0
  7  6  1  0
  7  8  2  0
  9  8  1  0
 10  9  2  0
 11 10  1  0
 11 12  2  0
 12  7  1  0
 13 14  2  0
 16 15  1  6
 17 13  1  0
 17 16  1  0
 18 16  1  0
 18 19  2  0
 20 21  1  0
 21 22  2  0
 21 23  1  0
 23 24  1  0
 24 25  1  0
 25 26  1  0
 27 26  1  1
 27 28  1  0
 28 18  1  0
 29 27  1  0
 30 29  1  0
 31 29  2  0
M  END
$$$$
