WAR.pdb
     RDKit          3D

 31 32  0  0  1  0  0  0  0  0999 V2000
    7.5791  -16.0737   22.9675 N   0  0  0  0  0  0  0  0  0  0  0  0
    8.8445  -15.7283   23.6322 C   0  0  1  0  0  0  0  0  0  0  0  0
    8.7017  -15.8590   25.1069 C   0  0  0  0  0  0  0  0  0  0  0  0
    7.6054  -15.1185   25.7310 C   0  0  0  0  0  0  0  0  0  0  0  0
    6.3904  -15.5997   26.2033 C   0  0  0  0  0  0  0  0  0  0  0  0
    5.6735  -14.5976   26.6946 N   0  0  0  0  0  0  0  0  0  0  0  0
    6.3538  -13.4637   26.5735 C   0  0  0  0  0  0  0  0  0  0  0  0
    6.0643  -12.1662   26.9357 C   0  0  0  0  0  0  0  0  0  0  0  0
    6.9652  -11.1361   26.7132 C   0  0  0  0  0  0  0  0  0  0  0  0
    8.1748  -11.4188   26.1166 C   0  0  0  0  0  0  0  0  0  0  0  0
    8.4518  -12.7233   25.7585 C   0  0  0  0  0  0  0  0  0  0  0  0
    7.5607  -13.7497   25.9775 C   0  0  0  0  0  0  0  0  0  0  0  0
    9.8841  -16.5335   22.9887 C   0  0  0  0  0  0  0  0  0  0  0  0
   11.0762  -16.5763   23.4350 O   0  0  0  0  0  0  0  0  0  0  0  0
    9.8927  -19.1557   20.3691 C   0  0  0  0  0  0  0  0  0  0  0  0
   10.6302  -18.0916   21.2111 C   0  0  2  0  0  0  0  0  0  0  0  0
    9.5813  -17.2989   21.8442 N   0  0  0  0  0  0  0  0  0  0  0  0
   11.3521  -17.2525   20.2467 C   0  0  0  0  0  0  0  0  0  0  0  0
   12.2667  -17.6662   19.4980 O   0  0  0  0  0  0  0  0  0  0  0  0
    7.1953  -15.1458   15.9639 N   0  0  0  0  0  0  0  0  0  0  0  0
    8.1709  -14.1151   15.9991 C   0  0  0  0  0  0  0  0  0  0  0  0
    8.4082  -13.4530   14.9220 N   0  0  0  0  0  0  0  0  0  0  0  0
    8.8963  -13.7816   17.1671 N   0  0  0  0  0  0  0  0  0  0  0  0
    8.5859  -14.2970   18.4796 C   0  0  0  0  0  0  0  0  0  0  0  0
    9.5389  -13.7581   19.5180 C   0  0  0  0  0  0  0  0  0  0  0  0
   10.9135  -13.7328   18.9697 C   0  0  0  0  0  0  0  0  0  0  0  0
   11.6815  -15.0163   19.1615 C   0  0  2  0  0  0  0  0  0  0  0  0
   11.0218  -15.8733   20.1236 N   0  0  0  0  0  0  0  0  0  0  0  0
   13.1077  -14.8070   19.4802 C   0  0  0  0  0  0  0  0  0  0  0  0
   13.7364  -15.2131   20.6370 O   0  0  0  0  0  0  0  0  0  0  0  0
   13.8222  -14.2060   18.6283 O   0  0  0  0  0  0  0  0  0  0  0  0
  2  1  1  6
  2 13  1  0
  3  2  1  0
  3  4  1  0
  4 12  1  0
  4  5  2  0
  5  6  1  0
  7  6  1  0
  7  8  2  0
  9  8  1  0
 10  9  2  0
 11 10  1  0
 11 12  2  0
 12  7  1  0
 13 14  2  0
 16 15  1  6
 17 13  1  0
 17 16  1  0
 18 16  1  0
 18 19  2  0
 20 21  1  0
 21 22  2  0
 21 23  1  0
 23 24  1  0
 24 25  1  0
 25 26  1  0
 27 26  1  1
 27 28  1  0
 28 18  1  0
 29 27  1  0
 30 29  1  0
 31 29  2  0
M  END
$$$$
