WAR.pdb
     RDKit          3D

 31 32  0  0  1  0  0  0  0  0999 V2000
    7.6744  -17.4930   26.3534 N   0  0  0  0  0  0  0  0  0  0  0  0
    7.4267  -16.6183   25.1976 C   0  0  1  0  0  0  0  0  0  0  0  0
    8.4321  -15.5230   25.1583 C   0  0  0  0  0  0  0  0  0  0  0  0
    8.3484  -14.5133   26.2134 C   0  0  0  0  0  0  0  0  0  0  0  0
    9.0293  -14.4633   27.4236 C   0  0  0  0  0  0  0  0  0  0  0  0
    8.6639  -13.3808   28.0975 N   0  0  0  0  0  0  0  0  0  0  0  0
    7.7672  -12.7007   27.3930 C   0  0  0  0  0  0  0  0  0  0  0  0
    7.0983  -11.5210   27.6367 C   0  0  0  0  0  0  0  0  0  0  0  0
    6.2032  -10.9952   26.7177 C   0  0  0  0  0  0  0  0  0  0  0  0
    5.9794  -11.6690   25.5368 C   0  0  0  0  0  0  0  0  0  0  0  0
    6.6562  -12.8502   25.3056 C   0  0  0  0  0  0  0  0  0  0  0  0
    7.5461  -13.3763   26.2147 C   0  0  0  0  0  0  0  0  0  0  0  0
    7.3460  -17.4923   24.0259 C   0  0  0  0  0  0  0  0  0  0  0  0
    7.8977  -18.6400   24.0021 O   0  0  0  0  0  0  0  0  0  0  0  0
    5.4915  -17.4135   20.8073 C   0  0  0  0  0  0  0  0  0  0  0  0
    6.6701  -17.9034   21.6769 C   0  0  2  0  0  0  0  0  0  0  0  0
    6.6370  -17.0783   22.8800 N   0  0  0  0  0  0  0  0  0  0  0  0
    7.8841  -17.5915   20.9124 C   0  0  0  0  0  0  0  0  0  0  0  0
    8.1690  -18.0990   19.8037 O   0  0  0  0  0  0  0  0  0  0  0  0
    7.4338  -15.1284   16.4728 N   0  0  0  0  0  0  0  0  0  0  0  0
    7.6679  -13.7286   16.5046 C   0  0  0  0  0  0  0  0  0  0  0  0
    7.8265  -13.1039   15.3912 N   0  0  0  0  0  0  0  0  0  0  0  0
    7.7352  -12.9867   17.7073 N   0  0  0  0  0  0  0  0  0  0  0  0
    8.7395  -13.1943   18.7237 C   0  0  0  0  0  0  0  0  0  0  0  0
    8.8733  -14.6571   19.0691 C   0  0  0  0  0  0  0  0  0  0  0  0
    9.8296  -14.8214   20.1868 C   0  0  0  0  0  0  0  0  0  0  0  0
    9.9832  -16.2422   20.6680 C   0  0  2  0  0  0  0  0  0  0  0  0
    8.8247  -16.6568   21.4303 N   0  0  0  0  0  0  0  0  0  0  0  0
   11.2476  -16.4858   21.3900 C   0  0  0  0  0  0  0  0  0  0  0  0
   12.5071  -16.4456   20.8328 O   0  0  0  0  0  0  0  0  0  0  0  0
   11.1822  -16.7548   22.6233 O   0  0  0  0  0  0  0  0  0  0  0  0
  2  1  1  1
  2 13  1  0
  3  2  1  0
  3  4  1  0
  4 12  1  0
  4  5  2  0
  5  6  1  0
  7  6  1  0
  7  8  2  0
  9  8  1  0
 10  9  2  0
 11 10  1  0
 11 12  2  0
 12  7  1  0
 13 14  2  0
 16 15  1  6
 17 13  1  0
 17 16  1  0
 18 16  1  0
 18 19  2  0
 20 21  1  0
 21 22  2  0
 21 23  1  0
 23 24  1  0
 24 25  1  0
 25 26  1  0
 27 26  1  1
 27 28  1  0
 28 18  1  0
 29 27  1  0
 30 29  1  0
 31 29  2  0
M  END
$$$$
