WAR.pdb
     RDKit          3D

 31 32  0  0  1  0  0  0  0  0999 V2000
   10.1116  -17.6572   27.8073 N   0  0  0  0  0  0  0  0  0  0  0  0
    9.3685  -17.0822   26.6761 C   0  0  1  0  0  0  0  0  0  0  0  0
    9.7403  -15.6540   26.4908 C   0  0  0  0  0  0  0  0  0  0  0  0
    8.8745  -14.6600   27.1248 C   0  0  0  0  0  0  0  0  0  0  0  0
    8.7488  -14.3520   28.4739 C   0  0  0  0  0  0  0  0  0  0  0  0
    7.8492  -13.3899   28.6307 N   0  0  0  0  0  0  0  0  0  0  0  0
    7.3648  -13.0375   27.4456 C   0  0  0  0  0  0  0  0  0  0  0  0
    6.4354  -12.0930   27.0681 C   0  0  0  0  0  0  0  0  0  0  0  0
    6.1035  -11.8985   25.7361 C   0  0  0  0  0  0  0  0  0  0  0  0
    6.7173  -12.6678   24.7716 C   0  0  0  0  0  0  0  0  0  0  0  0
    7.6466  -13.6107   25.1639 C   0  0  0  0  0  0  0  0  0  0  0  0
    7.9798  -13.8075   26.4852 C   0  0  0  0  0  0  0  0  0  0  0  0
    9.5827  -17.9802   25.5399 C   0  0  0  0  0  0  0  0  0  0  0  0
   10.6398  -18.6812   25.4249 O   0  0  0  0  0  0  0  0  0  0  0  0
    7.6142  -19.1317   22.6171 C   0  0  0  0  0  0  0  0  0  0  0  0
    8.9544  -18.7028   23.2536 C   0  0  2  0  0  0  0  0  0  0  0  0
    8.6025  -18.0963   24.5333 N   0  0  0  0  0  0  0  0  0  0  0  0
    9.5031  -17.6701   22.3659 C   0  0  0  0  0  0  0  0  0  0  0  0
    9.4068  -16.4389   22.5726 O   0  0  0  0  0  0  0  0  0  0  0  0
    8.2704  -14.4016   15.4313 N   0  0  0  0  0  0  0  0  0  0  0  0
    8.0546  -13.6536   16.6185 C   0  0  0  0  0  0  0  0  0  0  0  0
    8.4296  -12.4235   16.6496 N   0  0  0  0  0  0  0  0  0  0  0  0
    7.4443  -14.2000   17.7720 N   0  0  0  0  0  0  0  0  0  0  0  0
    8.1431  -14.4408   19.0123 C   0  0  0  0  0  0  0  0  0  0  0  0
    9.0189  -15.6659   18.9173 C   0  0  0  0  0  0  0  0  0  0  0  0
    9.7282  -15.8741   20.1997 C   0  0  0  0  0  0  0  0  0  0  0  0
   10.6438  -17.0721   20.2147 C   0  0  2  0  0  0  0  0  0  0  0  0
   10.1965  -18.0511   21.1825 N   0  0  0  0  0  0  0  0  0  0  0  0
   12.0679  -16.7226   20.3860 C   0  0  0  0  0  0  0  0  0  0  0  0
   13.1174  -17.2797   19.6885 O   0  0  0  0  0  0  0  0  0  0  0  0
   12.3615  -15.8394   21.2412 O   0  0  0  0  0  0  0  0  0  0  0  0
  2  1  1  1
  2 13  1  0
  3  2  1  0
  3  4  1  0
  4 12  1  0
  4  5  2  0
  5  6  1  0
  7  6  1  0
  7  8  2  0
  9  8  1  0
 10  9  2  0
 11 10  1  0
 11 12  2  0
 12  7  1  0
 13 14  2  0
 16 15  1  6
 17 13  1  0
 17 16  1  0
 18 16  1  0
 18 19  2  0
 20 21  1  0
 21 22  2  0
 21 23  1  0
 23 24  1  0
 24 25  1  0
 25 26  1  0
 27 26  1  1
 27 28  1  0
 28 18  1  0
 29 27  1  0
 30 29  1  0
 31 29  2  0
M  END
$$$$
