ASC.pdb
     RDKit          3D

 18 17  0  0  1  0  0  0  0  0999 V2000
   14.1949  -18.1403   22.5700 C   0  0  0  0  0  0  0  0  0  0  0  0
   12.9734  -17.6834   21.8182 C   0  0  2  0  0  0  0  0  0  0  0  0
   13.2926  -16.9411   20.6368 N   0  0  0  0  0  0  0  0  0  0  0  0
   12.0879  -16.8885   22.6940 C   0  0  0  0  0  0  0  0  0  0  0  0
   12.1596  -15.6252   22.7535 O   0  0  0  0  0  0  0  0  0  0  0  0
    8.9161  -18.7478   24.9992 O   0  0  0  0  0  0  0  0  0  0  0  0
    8.8961  -17.5293   24.3730 C   0  0  0  0  0  0  0  0  0  0  0  0
   10.2304  -16.8241   24.3873 C   0  0  2  0  0  0  0  0  0  0  0  0
   11.1312  -17.5475   23.4913 N   0  0  0  0  0  0  0  0  0  0  0  0
   10.8397  -16.7872   25.7335 C   0  0  0  0  0  0  0  0  0  0  0  0
   11.8237  -17.5156   26.0134 O   0  0  0  0  0  0  0  0  0  0  0  0
   10.3124  -15.9252   26.7175 N   0  0  0  0  0  0  0  0  0  0  0  0
   10.8711  -15.8548   28.0775 C   0  0  1  0  0  0  0  0  0  0  0  0
   10.3169  -14.5603   28.6699 C   0  0  0  0  0  0  0  0  0  0  0  0
   10.8772  -13.1698   27.6851 S   0  0  0  0  0  0  0  0  0  0  0  0
   10.4696  -17.0391   28.8496 C   0  0  0  0  0  0  0  0  0  0  0  0
    9.5676  -17.7820   28.3973 O   0  0  0  0  0  0  0  0  0  0  0  0
   11.0244  -17.3990   30.0592 O   0  0  0  0  0  0  0  0  0  0  0  0
  2  1  1  1
  2  3  1  0
  4  2  1  0
  5  4  2  0
  7  6  1  0
  8  7  1  1
  8  9  1  0
  9  4  1  0
 10  8  1  0
 10 12  1  0
 11 10  2  0
 13 14  1  1
 13 12  1  0
 13 16  1  0
 14 15  1  0
 16 18  1  0
 17 16  2  0
M  END
$$$$
