ASC.pdb
     RDKit          3D

 18 17  0  0  1  0  0  0  0  0999 V2000
    7.0092  -15.2029   20.1883 C   0  0  0  0  0  0  0  0  0  0  0  0
    7.1639  -16.5703   20.7986 C   0  0  2  0  0  0  0  0  0  0  0  0
    6.4521  -17.5835   20.0810 N   0  0  0  0  0  0  0  0  0  0  0  0
    6.7439  -16.5606   22.2152 C   0  0  0  0  0  0  0  0  0  0  0  0
    5.5255  -16.6264   22.5552 O   0  0  0  0  0  0  0  0  0  0  0  0
    8.8516  -18.1616   25.3096 O   0  0  0  0  0  0  0  0  0  0  0  0
    7.5465  -17.7479   25.2567 C   0  0  0  0  0  0  0  0  0  0  0  0
    7.3739  -16.3800   24.6425 C   0  0  2  0  0  0  0  0  0  0  0  0
    7.7220  -16.4758   23.2258 N   0  0  0  0  0  0  0  0  0  0  0  0
    8.2421  -15.3614   25.2698 C   0  0  0  0  0  0  0  0  0  0  0  0
    9.3736  -15.0996   24.7921 O   0  0  0  0  0  0  0  0  0  0  0  0
    7.7978  -14.6737   26.4182 N   0  0  0  0  0  0  0  0  0  0  0  0
    8.6300  -13.6693   27.1004 C   0  0  1  0  0  0  0  0  0  0  0  0
    7.6397  -12.6849   27.7201 C   0  0  0  0  0  0  0  0  0  0  0  0
    6.2261  -12.5012   26.6314 S   0  0  0  0  0  0  0  0  0  0  0  0
    9.4779  -14.3186   28.1101 C   0  0  0  0  0  0  0  0  0  0  0  0
    9.3264  -15.5419   28.3349 O   0  0  0  0  0  0  0  0  0  0  0  0
   10.4471  -13.6664   28.8422 O   0  0  0  0  0  0  0  0  0  0  0  0
  2  1  1  6
  2  3  1  0
  4  2  1  0
  5  4  2  0
  7  6  1  0
  8  7  1  1
  8  9  1  0
  9  4  1  0
 10  8  1  0
 10 12  1  0
 11 10  2  0
 13 14  1  1
 13 12  1  0
 13 16  1  0
 14 15  1  0
 16 18  1  0
 17 16  2  0
M  END
$$$$
