ASC.pdb
     RDKit          3D

 18 17  0  0  1  0  0  0  0  0999 V2000
    8.4028  -17.6331   16.3593 C   0  0  0  0  0  0  0  0  0  0  0  0
    8.6278  -16.1506   16.2254 C   0  0  2  0  0  0  0  0  0  0  0  0
    9.4751  -15.8140   15.1221 N   0  0  0  0  0  0  0  0  0  0  0  0
    9.1772  -15.5904   17.4774 C   0  0  0  0  0  0  0  0  0  0  0  0
   10.4238  -15.5037   17.6845 O   0  0  0  0  0  0  0  0  0  0  0  0
    6.6061  -14.6766   20.7665 O   0  0  0  0  0  0  0  0  0  0  0  0
    7.6003  -13.8231   20.3661 C   0  0  0  0  0  0  0  0  0  0  0  0
    8.7691  -14.5241   19.7175 C   0  0  2  0  0  0  0  0  0  0  0  0
    8.2947  -15.1363   18.4775 N   0  0  0  0  0  0  0  0  0  0  0  0
    9.3425  -15.5843   20.5732 C   0  0  0  0  0  0  0  0  0  0  0  0
    8.9960  -16.7828   20.4300 O   0  0  0  0  0  0  0  0  0  0  0  0
   10.2901  -15.2494   21.5628 N   0  0  0  0  0  0  0  0  0  0  0  0
   10.8313  -16.2484   22.4986 C   0  0  1  0  0  0  0  0  0  0  0  0
   12.2679  -15.8049   22.7688 C   0  0  0  0  0  0  0  0  0  0  0  0
   13.2354  -15.9822   21.2689 S   0  0  0  0  0  0  0  0  0  0  0  0
   10.0185  -16.2852   23.7226 C   0  0  0  0  0  0  0  0  0  0  0  0
   10.3157  -17.1023   24.6248 O   0  0  0  0  0  0  0  0  0  0  0  0
    8.9314  -15.4698   23.9545 O   0  0  0  0  0  0  0  0  0  0  0  0
  2  1  1  1
  2  3  1  0
  4  2  1  0
  5  4  2  0
  7  6  1  0
  8  7  1  1
  8  9  1  0
  9  4  1  0
 10  8  1  0
 10 12  1  0
 11 10  2  0
 13 14  1  1
 13 12  1  0
 13 16  1  0
 14 15  1  0
 16 18  1  0
 17 16  2  0
M  END
$$$$
