ASC.pdb
     RDKit          3D

 18 17  0  0  1  0  0  0  0  0999 V2000
   10.0975  -12.7883   19.9696 C   0  0  0  0  0  0  0  0  0  0  0  0
    9.1486  -13.9399   19.7703 C   0  0  2  0  0  0  0  0  0  0  0  0
    8.0857  -13.6340   18.8620 N   0  0  0  0  0  0  0  0  0  0  0  0
    8.5971  -14.3922   21.0643 C   0  0  0  0  0  0  0  0  0  0  0  0
    7.4959  -13.9570   21.5142 O   0  0  0  0  0  0  0  0  0  0  0  0
    9.8541  -18.0203   22.7043 O   0  0  0  0  0  0  0  0  0  0  0  0
    8.6536  -17.3875   22.8933 C   0  0  0  0  0  0  0  0  0  0  0  0
    8.7827  -15.8943   23.0719 C   0  0  2  0  0  0  0  0  0  0  0  0
    9.3112  -15.3366   21.8281 N   0  0  0  0  0  0  0  0  0  0  0  0
    9.6982  -15.5305   24.1740 C   0  0  0  0  0  0  0  0  0  0  0  0
   10.9349  -15.4371   23.9772 O   0  0  0  0  0  0  0  0  0  0  0  0
    9.1800  -15.2847   25.4625 N   0  0  0  0  0  0  0  0  0  0  0  0
   10.0510  -15.0245   26.6202 C   0  0  1  0  0  0  0  0  0  0  0  0
    9.2404  -14.1038   27.5305 C   0  0  0  0  0  0  0  0  0  0  0  0
   10.2708  -13.5613   28.8948 S   0  0  0  0  0  0  0  0  0  0  0  0
   10.4060  -16.2896   27.2787 C   0  0  0  0  0  0  0  0  0  0  0  0
    9.5851  -17.2361   27.2586 O   0  0  0  0  0  0  0  0  0  0  0  0
   11.6002  -16.5149   27.9296 O   0  0  0  0  0  0  0  0  0  0  0  0
  2  1  1  1
  2  3  1  0
  4  2  1  0
  5  4  2  0
  7  6  1  0
  8  7  1  6
  8  9  1  0
  9  4  1  0
 10  8  1  0
 10 12  1  0
 11 10  2  0
 13 14  1  1
 13 12  1  0
 13 16  1  0
 14 15  1  0
 16 18  1  0
 17 16  2  0
M  END
$$$$
