ASC.pdb
     RDKit          3D

 18 17  0  0  1  0  0  0  0  0999 V2000
   11.8084  -18.3699   21.4178 C   0  0  0  0  0  0  0  0  0  0  0  0
   10.8147  -17.4389   20.7759 C   0  0  2  0  0  0  0  0  0  0  0  0
   11.4045  -16.5958   19.7810 N   0  0  0  0  0  0  0  0  0  0  0  0
   10.1321  -16.6183   21.7976 C   0  0  0  0  0  0  0  0  0  0  0  0
   10.4700  -15.4204   22.0329 O   0  0  0  0  0  0  0  0  0  0  0  0
    7.0719  -18.2933   24.3615 O   0  0  0  0  0  0  0  0  0  0  0  0
    6.9889  -17.0791   23.7321 C   0  0  0  0  0  0  0  0  0  0  0  0
    8.3279  -16.4108   23.5363 C   0  0  2  0  0  0  0  0  0  0  0  0
    9.0715  -17.1773   22.5378 N   0  0  0  0  0  0  0  0  0  0  0  0
    9.1266  -16.3626   24.7792 C   0  0  0  0  0  0  0  0  0  0  0  0
   10.1008  -17.1370   24.9471 O   0  0  0  0  0  0  0  0  0  0  0  0
    8.7934  -15.4374   25.7902 N   0  0  0  0  0  0  0  0  0  0  0  0
    9.4901  -15.4094   27.0866 C   0  0  1  0  0  0  0  0  0  0  0  0
    8.9503  -14.1729   27.8031 C   0  0  0  0  0  0  0  0  0  0  0  0
    9.2722  -12.7197   26.8023 S   0  0  0  0  0  0  0  0  0  0  0  0
    9.2210  -16.6480   27.8305 C   0  0  0  0  0  0  0  0  0  0  0  0
    8.2945  -17.3987   27.4457 O   0  0  0  0  0  0  0  0  0  0  0  0
    9.9281  -17.0518   28.9430 O   0  0  0  0  0  0  0  0  0  0  0  0
  2  1  1  1
  2  3  1  0
  4  2  1  0
  5  4  2  0
  7  6  1  0
  8  7  1  1
  8  9  1  0
  9  4  1  0
 10  8  1  0
 10 12  1  0
 11 10  2  0
 13 14  1  1
 13 12  1  0
 13 16  1  0
 14 15  1  0
 16 18  1  0
 17 16  2  0
M  END
$$$$
