ASC.pdb
     RDKit          3D

 18 17  0  0  1  0  0  0  0  0999 V2000
    6.5881  -21.8343   27.2142 C   0  0  0  0  0  0  0  0  0  0  0  0
    7.0311  -21.5279   25.8085 C   0  0  2  0  0  0  0  0  0  0  0  0
    7.7652  -22.6011   25.2102 N   0  0  0  0  0  0  0  0  0  0  0  0
    7.8281  -20.2843   25.7713 C   0  0  0  0  0  0  0  0  0  0  0  0
    8.9095  -20.1597   26.4191 O   0  0  0  0  0  0  0  0  0  0  0  0
    6.5136  -16.9887   23.3847 O   0  0  0  0  0  0  0  0  0  0  0  0
    7.8250  -17.3673   23.5034 C   0  0  0  0  0  0  0  0  0  0  0  0
    8.1575  -17.9695   24.8469 C   0  0  2  0  0  0  0  0  0  0  0  0
    7.3791  -19.1982   24.9941 N   0  0  0  0  0  0  0  0  0  0  0  0
    7.8270  -17.0687   25.9713 C   0  0  0  0  0  0  0  0  0  0  0  0
    6.6803  -17.0745   26.4833 O   0  0  0  0  0  0  0  0  0  0  0  0
    8.8085  -16.1914   26.4776 N   0  0  0  0  0  0  0  0  0  0  0  0
    8.4777  -15.0983   27.4062 C   0  0  1  0  0  0  0  0  0  0  0  0
    9.0420  -15.5371   28.7563 C   0  0  0  0  0  0  0  0  0  0  0  0
   10.8333  -15.5670   28.6690 S   0  0  0  0  0  0  0  0  0  0  0  0
    9.0718  -13.8393   26.9351 C   0  0  0  0  0  0  0  0  0  0  0  0
    8.7880  -12.7737   27.5301 O   0  0  0  0  0  0  0  0  0  0  0  0
    9.9358  -13.7439   25.8650 O   0  0  0  0  0  0  0  0  0  0  0  0
  2  1  1  1
  2  3  1  0
  4  2  1  0
  5  4  2  0
  7  6  1  0
  8  7  1  6
  8  9  1  0
  9  4  1  0
 10  8  1  0
 10 12  1  0
 11 10  2  0
 13 14  1  1
 13 12  1  0
 13 16  1  0
 14 15  1  0
 16 18  1  0
 17 16  2  0
M  END
$$$$
