ASC.pdb
     RDKit          3D

 18 17  0  0  1  0  0  0  0  0999 V2000
    8.3605  -12.6322   19.3851 C   0  0  0  0  0  0  0  0  0  0  0  0
    8.2031  -14.1275   19.4573 C   0  0  2  0  0  0  0  0  0  0  0  0
    7.4082  -14.6554   18.3905 N   0  0  0  0  0  0  0  0  0  0  0  0
    7.6364  -14.5308   20.7609 C   0  0  0  0  0  0  0  0  0  0  0  0
    6.3870  -14.5819   20.9635 O   0  0  0  0  0  0  0  0  0  0  0  0
    9.7293  -17.0331   23.2032 O   0  0  0  0  0  0  0  0  0  0  0  0
    8.3790  -16.8039   23.2385 C   0  0  0  0  0  0  0  0  0  0  0  0
    8.0133  -15.3453   23.1095 C   0  0  2  0  0  0  0  0  0  0  0  0
    8.5049  -14.8709   21.8170 N   0  0  0  0  0  0  0  0  0  0  0  0
    8.6137  -14.5123   24.1728 C   0  0  0  0  0  0  0  0  0  0  0  0
    9.7472  -13.9939   24.0195 O   0  0  0  0  0  0  0  0  0  0  0  0
    7.9081  -14.2952   25.3746 N   0  0  0  0  0  0  0  0  0  0  0  0
    8.4990  -13.5661   26.5087 C   0  0  1  0  0  0  0  0  0  0  0  0
    7.5647  -12.3823   26.7522 C   0  0  0  0  0  0  0  0  0  0  0  0
    5.8903  -12.9846   26.9774 S   0  0  0  0  0  0  0  0  0  0  0  0
    8.5982  -14.4493   27.6793 C   0  0  0  0  0  0  0  0  0  0  0  0
    8.0920  -15.5940   27.6212 O   0  0  0  0  0  0  0  0  0  0  0  0
    9.2202  -14.1027   28.8598 O   0  0  0  0  0  0  0  0  0  0  0  0
  2  1  1  1
  2  3  1  0
  4  2  1  0
  5  4  2  0
  7  6  1  0
  8  7  1  1
  8  9  1  0
  9  4  1  0
 10  8  1  0
 10 12  1  0
 11 10  2  0
 13 14  1  1
 13 12  1  0
 13 16  1  0
 14 15  1  0
 16 18  1  0
 17 16  2  0
M  END
$$$$
