ASC.pdb
     RDKit          3D

 18 17  0  0  1  0  0  0  0  0999 V2000
   14.5277  -18.7843   22.8008 C   0  0  0  0  0  0  0  0  0  0  0  0
   13.4687  -18.4103   21.7983 C   0  0  2  0  0  0  0  0  0  0  0  0
   14.0147  -17.9512   20.5575 N   0  0  0  0  0  0  0  0  0  0  0  0
   12.5549  -17.3934   22.3587 C   0  0  0  0  0  0  0  0  0  0  0  0
   12.6658  -16.1630   22.0785 O   0  0  0  0  0  0  0  0  0  0  0  0
    9.0249  -18.5528   24.4183 O   0  0  0  0  0  0  0  0  0  0  0  0
    9.2176  -17.3720   23.7506 C   0  0  0  0  0  0  0  0  0  0  0  0
   10.6238  -16.8368   23.8695 C   0  0  2  0  0  0  0  0  0  0  0  0
   11.5253  -17.7954   23.2325 N   0  0  0  0  0  0  0  0  0  0  0  0
   11.0475  -16.6582   25.2744 C   0  0  0  0  0  0  0  0  0  0  0  0
   11.7527  -17.5249   25.8476 O   0  0  0  0  0  0  0  0  0  0  0  0
   10.6569  -15.5025   25.9821 N   0  0  0  0  0  0  0  0  0  0  0  0
   10.9293  -15.3347   27.4189 C   0  0  1  0  0  0  0  0  0  0  0  0
   10.2201  -14.0397   27.8109 C   0  0  0  0  0  0  0  0  0  0  0  0
   10.5874  -13.6576   29.5245 S   0  0  0  0  0  0  0  0  0  0  0  0
   10.4259  -16.4955   28.1665 C   0  0  0  0  0  0  0  0  0  0  0  0
   11.1333  -16.9844   29.0779 O   0  0  0  0  0  0  0  0  0  0  0  0
    9.2078  -17.0975   27.9332 O   0  0  0  0  0  0  0  0  0  0  0  0
  2  1  1  1
  2  3  1  0
  4  2  1  0
  5  4  2  0
  7  6  1  0
  8  7  1  1
  8  9  1  0
  9  4  1  0
 10  8  1  0
 10 12  1  0
 11 10  2  0
 13 14  1  1
 13 12  1  0
 13 16  1  0
 14 15  1  0
 16 18  1  0
 17 16  2  0
M  END
$$$$
