ASC.pdb
     RDKit          3D

 18 17  0  0  1  0  0  0  0  0999 V2000
   13.7076  -17.7518   21.4319 C   0  0  0  0  0  0  0  0  0  0  0  0
   12.3437  -17.4294   20.8823 C   0  0  2  0  0  0  0  0  0  0  0  0
   12.3978  -16.6831   19.6622 N   0  0  0  0  0  0  0  0  0  0  0  0
   11.5340  -16.7065   21.8848 C   0  0  0  0  0  0  0  0  0  0  0  0
   11.5001  -15.4412   21.9352 O   0  0  0  0  0  0  0  0  0  0  0  0
    8.9639  -18.8921   24.5592 O   0  0  0  0  0  0  0  0  0  0  0  0
    8.6377  -17.7516   23.8737 C   0  0  0  0  0  0  0  0  0  0  0  0
    9.7977  -16.8016   23.7007 C   0  0  2  0  0  0  0  0  0  0  0  0
   10.7730  -17.4388   22.8174 N   0  0  0  0  0  0  0  0  0  0  0  0
   10.4650  -16.4800   24.9799 C   0  0  0  0  0  0  0  0  0  0  0  0
   11.5333  -17.0525   25.3088 O   0  0  0  0  0  0  0  0  0  0  0  0
    9.8981  -15.5197   25.8434 N   0  0  0  0  0  0  0  0  0  0  0  0
   10.4963  -15.1887   27.1470 C   0  0  1  0  0  0  0  0  0  0  0  0
    9.7312  -13.9605   27.6367 C   0  0  0  0  0  0  0  0  0  0  0  0
   10.4338  -13.4048   29.1907 S   0  0  0  0  0  0  0  0  0  0  0  0
   10.3679  -16.3293   28.0649 C   0  0  0  0  0  0  0  0  0  0  0  0
    9.3564  -17.0641   27.9830 O   0  0  0  0  0  0  0  0  0  0  0  0
   11.2983  -16.6558   29.0285 O   0  0  0  0  0  0  0  0  0  0  0  0
  2  1  1  1
  2  3  1  0
  4  2  1  0
  5  4  2  0
  7  6  1  0
  8  7  1  1
  8  9  1  0
  9  4  1  0
 10  8  1  0
 10 12  1  0
 11 10  2  0
 13 14  1  1
 13 12  1  0
 13 16  1  0
 14 15  1  0
 16 18  1  0
 17 16  2  0
M  END
$$$$
