FGT.pdb
     RDKit          3D

 23 23  0  0  1  0  0  0  0  0999 V2000
    8.1304  -15.8289   25.4102 N   0  0  0  0  0  0  0  0  0  0  0  0
    7.7444  -15.6910   24.0381 C   0  0  1  0  0  0  0  0  0  0  0  0
    7.6256  -14.1852   23.7650 C   0  0  0  0  0  0  0  0  0  0  0  0
    7.0865  -13.4850   24.9449 C   0  0  0  0  0  0  0  0  0  0  0  0
    6.1565  -14.1280   25.7325 C   0  0  0  0  0  0  0  0  0  0  0  0
    5.6408  -13.4782   26.8476 C   0  0  0  0  0  0  0  0  0  0  0  0
    6.0492  -12.1937   27.1775 C   0  0  0  0  0  0  0  0  0  0  0  0
    6.9935  -11.5660   26.3609 C   0  0  0  0  0  0  0  0  0  0  0  0
    7.5092  -12.2071   25.2516 C   0  0  0  0  0  0  0  0  0  0  0  0
    8.7650  -16.1968   23.0945 C   0  0  0  0  0  0  0  0  0  0  0  0
    8.6052  -15.9795   21.8713 O   0  0  0  0  0  0  0  0  0  0  0  0
    9.8799  -16.9047   23.6052 N   0  0  0  0  0  0  0  0  0  0  0  0
   11.1766  -16.2390   23.8133 C   0  0  0  0  0  0  0  0  0  0  0  0
   11.5515  -16.4058   25.2359 C   0  0  0  0  0  0  0  0  0  0  0  0
   12.4402  -17.2238   25.5923 O   0  0  0  0  0  0  0  0  0  0  0  0
   11.0213  -13.4612   28.1044 C   0  0  0  0  0  0  0  0  0  0  0  0
   10.4476  -14.8266   28.4062 C   0  0  1  0  0  0  0  0  0  0  0  0
    9.0911  -14.7840   28.0899 O   0  0  0  0  0  0  0  0  0  0  0  0
   11.1564  -15.9189   27.6307 C   0  0  2  0  0  0  0  0  0  0  0  0
   10.9169  -15.6468   26.2287 N   0  0  0  0  0  0  0  0  0  0  0  0
   10.7266  -17.2617   28.0287 C   0  0  0  0  0  0  0  0  0  0  0  0
   10.1023  -18.0206   27.2477 O   0  0  0  0  0  0  0  0  0  0  0  0
   11.0030  -17.7372   29.2996 O   0  0  0  0  0  0  0  0  0  0  0  0
  2  1  1  1
  2 10  1  0
  3  2  1  0
  4  5  2  0
  4  3  1  0
  6  5  1  0
  7  6  2  0
  8  7  1  0
  8  9  2  0
  9  4  1  0
 10 11  2  0
 10 12  1  0
 12 13  1  0
 13 14  1  0
 14 15  2  0
 17 16  1  6
 18 17  1  0
 19 17  1  0
 20 14  1  0
 19 20  1  6
 21 23  1  0
 21 19  1  0
 22 21  2  0
M  END
$$$$
