FGT.pdb
     RDKit          3D

 23 23  0  0  1  0  0  0  0  0999 V2000
    7.1840  -16.5963   25.9126 N   0  0  0  0  0  0  0  0  0  0  0  0
    7.1168  -16.7188   24.4875 C   0  0  1  0  0  0  0  0  0  0  0  0
    6.0958  -15.6790   24.0053 C   0  0  0  0  0  0  0  0  0  0  0  0
    6.3771  -14.3606   24.6017 C   0  0  0  0  0  0  0  0  0  0  0  0
    7.2557  -13.5146   23.9608 C   0  0  0  0  0  0  0  0  0  0  0  0
    7.5292  -12.2689   24.5132 C   0  0  0  0  0  0  0  0  0  0  0  0
    6.9306  -11.8670   25.6987 C   0  0  0  0  0  0  0  0  0  0  0  0
    6.0438  -12.7454   26.3269 C   0  0  0  0  0  0  0  0  0  0  0  0
    5.7684  -13.9844   25.7823 C   0  0  0  0  0  0  0  0  0  0  0  0
    8.3905  -16.3809   23.8154 C   0  0  0  0  0  0  0  0  0  0  0  0
    8.6393  -16.9123   22.7087 O   0  0  0  0  0  0  0  0  0  0  0  0
    9.2778  -15.4740   24.4438 N   0  0  0  0  0  0  0  0  0  0  0  0
   10.7206  -15.4908   24.1506 C   0  0  0  0  0  0  0  0  0  0  0  0
   11.4327  -15.8822   25.3883 C   0  0  0  0  0  0  0  0  0  0  0  0
   12.6820  -16.0395   25.4088 O   0  0  0  0  0  0  0  0  0  0  0  0
   11.1641  -13.7250   28.1660 C   0  0  0  0  0  0  0  0  0  0  0  0
   10.8714  -15.0965   28.7298 C   0  0  1  0  0  0  0  0  0  0  0  0
    9.4885  -15.2005   28.8664 O   0  0  0  0  0  0  0  0  0  0  0  0
   11.4183  -16.1976   27.8437 C   0  0  2  0  0  0  0  0  0  0  0  0
   10.7221  -16.0888   26.5785 N   0  0  0  0  0  0  0  0  0  0  0  0
   11.2878  -17.5251   28.4496 C   0  0  0  0  0  0  0  0  0  0  0  0
   10.6270  -18.4438   27.9064 O   0  0  0  0  0  0  0  0  0  0  0  0
   11.9011  -17.8058   29.6590 O   0  0  0  0  0  0  0  0  0  0  0  0
  2  1  1  1
  2 10  1  0
  3  2  1  0
  4  5  2  0
  4  3  1  0
  6  5  1  0
  7  6  2  0
  8  7  1  0
  8  9  2  0
  9  4  1  0
 10 11  2  0
 10 12  1  0
 12 13  1  0
 13 14  1  0
 14 15  2  0
 17 16  1  6
 18 17  1  0
 19 17  1  0
 20 14  1  0
 19 20  1  6
 21 23  1  0
 21 19  1  0
 22 21  2  0
M  END
$$$$
