FGT.pdb
     RDKit          3D

 23 23  0  0  1  0  0  0  0  0999 V2000
    6.9468  -17.3087   24.9705 N   0  0  0  0  0  0  0  0  0  0  0  0
    7.1111  -16.8604   23.6205 C   0  0  1  0  0  0  0  0  0  0  0  0
    6.2300  -15.6135   23.4619 C   0  0  0  0  0  0  0  0  0  0  0  0
    6.5962  -14.5897   24.4573 C   0  0  0  0  0  0  0  0  0  0  0  0
    6.0325  -14.6513   25.7130 C   0  0  0  0  0  0  0  0  0  0  0  0
    6.3698  -13.6917   26.6602 C   0  0  0  0  0  0  0  0  0  0  0  0
    7.2646  -12.6750   26.3586 C   0  0  0  0  0  0  0  0  0  0  0  0
    7.8208  -12.6372   25.0772 C   0  0  0  0  0  0  0  0  0  0  0  0
    7.4891  -13.5883   24.1323 C   0  0  0  0  0  0  0  0  0  0  0  0
    8.4918  -16.4247   23.3177 C   0  0  0  0  0  0  0  0  0  0  0  0
    8.7945  -16.1905   22.1250 O   0  0  0  0  0  0  0  0  0  0  0  0
    9.4166  -16.2888   24.3812 N   0  0  0  0  0  0  0  0  0  0  0  0
   10.8461  -16.0475   24.1235 C   0  0  0  0  0  0  0  0  0  0  0  0
   11.5422  -15.9955   25.4292 C   0  0  0  0  0  0  0  0  0  0  0  0
   12.7987  -15.9592   25.5059 O   0  0  0  0  0  0  0  0  0  0  0  0
   11.3019  -13.4451   27.8784 C   0  0  0  0  0  0  0  0  0  0  0  0
   10.9631  -14.7162   28.6228 C   0  0  1  0  0  0  0  0  0  0  0  0
    9.5767  -14.7597   28.7565 O   0  0  0  0  0  0  0  0  0  0  0  0
   11.4825  -15.9450   27.9036 C   0  0  2  0  0  0  0  0  0  0  0  0
   10.8077  -15.9855   26.6229 N   0  0  0  0  0  0  0  0  0  0  0  0
   11.2969  -17.1730   28.6809 C   0  0  0  0  0  0  0  0  0  0  0  0
   10.5825  -18.1199   28.2705 O   0  0  0  0  0  0  0  0  0  0  0  0
   11.9159  -17.3233   29.9104 O   0  0  0  0  0  0  0  0  0  0  0  0
  2  1  1  1
  2 10  1  0
  3  2  1  0
  4  5  2  0
  4  3  1  0
  6  5  1  0
  7  6  2  0
  8  7  1  0
  8  9  2  0
  9  4  1  0
 10 11  2  0
 10 12  1  0
 12 13  1  0
 13 14  1  0
 14 15  2  0
 17 16  1  6
 18 17  1  0
 19 17  1  0
 20 14  1  0
 19 20  1  6
 21 23  1  0
 21 19  1  0
 22 21  2  0
M  END
$$$$
