FGT.pdb
     RDKit          3D

 23 23  0  0  1  0  0  0  0  0999 V2000
    8.2016  -15.1812   20.7009 N   0  0  0  0  0  0  0  0  0  0  0  0
    8.3095  -14.7890   22.0739 C   0  0  1  0  0  0  0  0  0  0  0  0
    6.8970  -14.3990   22.5312 C   0  0  0  0  0  0  0  0  0  0  0  0
    6.9362  -13.7892   23.8727 C   0  0  0  0  0  0  0  0  0  0  0  0
    6.5784  -14.5539   24.9616 C   0  0  0  0  0  0  0  0  0  0  0  0
    6.6111  -13.9902   26.2316 C   0  0  0  0  0  0  0  0  0  0  0  0
    6.9984  -12.6707   26.4169 C   0  0  0  0  0  0  0  0  0  0  0  0
    7.3559  -11.9188   25.2946 C   0  0  0  0  0  0  0  0  0  0  0  0
    7.3252  -12.4740   24.0304 C   0  0  0  0  0  0  0  0  0  0  0  0
    8.7345  -15.8935   22.9612 C   0  0  0  0  0  0  0  0  0  0  0  0
    8.1578  -17.0002   22.8529 O   0  0  0  0  0  0  0  0  0  0  0  0
    9.7722  -15.6614   23.8961 N   0  0  0  0  0  0  0  0  0  0  0  0
   10.8206  -16.6665   24.1379 C   0  0  0  0  0  0  0  0  0  0  0  0
   11.2311  -16.5647   25.5568 C   0  0  0  0  0  0  0  0  0  0  0  0
   12.2885  -17.1038   25.9779 O   0  0  0  0  0  0  0  0  0  0  0  0
    9.9512  -13.4570   27.9485 C   0  0  0  0  0  0  0  0  0  0  0  0
    9.8360  -14.8458   28.5337 C   0  0  1  0  0  0  0  0  0  0  0  0
    8.5149  -15.2563   28.3668 O   0  0  0  0  0  0  0  0  0  0  0  0
   10.7977  -15.8152   27.8760 C   0  0  2  0  0  0  0  0  0  0  0  0
   10.4412  -15.8569   26.4731 N   0  0  0  0  0  0  0  0  0  0  0  0
   10.7809  -17.1386   28.5044 C   0  0  0  0  0  0  0  0  0  0  0  0
   10.4200  -18.1673   27.8822 O   0  0  0  0  0  0  0  0  0  0  0  0
   11.1696  -17.2915   29.8246 O   0  0  0  0  0  0  0  0  0  0  0  0
  2  1  1  6
  2 10  1  0
  3  2  1  0
  4  5  2  0
  4  3  1  0
  6  5  1  0
  7  6  2  0
  8  7  1  0
  8  9  2  0
  9  4  1  0
 10 11  2  0
 10 12  1  0
 12 13  1  0
 13 14  1  0
 14 15  2  0
 17 16  1  6
 18 17  1  0
 19 17  1  0
 20 14  1  0
 19 20  1  6
 21 23  1  0
 21 19  1  0
 22 21  2  0
M  END
$$$$
