FGT.pdb
     RDKit          3D

 23 23  0  0  1  0  0  0  0  0999 V2000
    7.8884  -16.7368   21.6819 N   0  0  0  0  0  0  0  0  0  0  0  0
    7.8118  -15.6077   22.5594 C   0  0  1  0  0  0  0  0  0  0  0  0
    6.6731  -14.7215   22.0358 C   0  0  0  0  0  0  0  0  0  0  0  0
    7.1262  -13.9221   20.8830 C   0  0  0  0  0  0  0  0  0  0  0  0
    6.8789  -14.3900   19.6109 C   0  0  0  0  0  0  0  0  0  0  0  0
    7.3013  -13.6454   18.5160 C   0  0  0  0  0  0  0  0  0  0  0  0
    7.9671  -12.4400   18.6867 C   0  0  0  0  0  0  0  0  0  0  0  0
    8.2043  -11.9900   19.9882 C   0  0  0  0  0  0  0  0  0  0  0  0
    7.7868  -12.7260   21.0797 C   0  0  0  0  0  0  0  0  0  0  0  0
    7.4402  -15.9729   23.9437 C   0  0  0  0  0  0  0  0  0  0  0  0
    7.3428  -15.0593   24.7951 O   0  0  0  0  0  0  0  0  0  0  0  0
    7.2092  -17.3347   24.2551 N   0  0  0  0  0  0  0  0  0  0  0  0
    6.8725  -17.7581   25.6245 C   0  0  0  0  0  0  0  0  0  0  0  0
    8.0151  -18.5361   26.1550 C   0  0  0  0  0  0  0  0  0  0  0  0
    8.3618  -19.6325   25.6414 O   0  0  0  0  0  0  0  0  0  0  0  0
   11.1450  -16.6069   27.0740 C   0  0  0  0  0  0  0  0  0  0  0  0
   10.9035  -17.6435   28.1473 C   0  0  1  0  0  0  0  0  0  0  0  0
   10.3912  -16.9763   29.2583 O   0  0  0  0  0  0  0  0  0  0  0  0
    9.9577  -18.7304   27.6772 C   0  0  2  0  0  0  0  0  0  0  0  0
    8.7444  -18.0624   27.2542 N   0  0  0  0  0  0  0  0  0  0  0  0
    9.7157  -19.7485   28.7026 C   0  0  0  0  0  0  0  0  0  0  0  0
   10.6091  -20.5502   29.0698 O   0  0  0  0  0  0  0  0  0  0  0  0
    8.4729  -19.8546   29.3040 O   0  0  0  0  0  0  0  0  0  0  0  0
  2  1  1  6
  2 10  1  0
  3  2  1  0
  4  5  2  0
  4  3  1  0
  6  5  1  0
  7  6  2  0
  8  7  1  0
  8  9  2  0
  9  4  1  0
 10 11  2  0
 10 12  1  0
 12 13  1  0
 13 14  1  0
 14 15  2  0
 17 16  1  6
 18 17  1  0
 19 17  1  0
 20 14  1  0
 19 20  1  1
 21 23  1  0
 21 19  1  0
 22 21  2  0
M  END
$$$$
