FGT.pdb
     RDKit          3D

 23 23  0  0  1  0  0  0  0  0999 V2000
    6.7150  -17.0338   26.5379 N   0  0  0  0  0  0  0  0  0  0  0  0
    6.7719  -16.3747   25.2679 C   0  0  1  0  0  0  0  0  0  0  0  0
    7.9546  -15.3985   25.3328 C   0  0  0  0  0  0  0  0  0  0  0  0
    7.4980  -14.0569   25.7388 C   0  0  0  0  0  0  0  0  0  0  0  0
    6.2974  -13.9360   26.4038 C   0  0  0  0  0  0  0  0  0  0  0  0
    5.8560  -12.6764   26.7917 C   0  0  0  0  0  0  0  0  0  0  0  0
    6.6068  -11.5419   26.5186 C   0  0  0  0  0  0  0  0  0  0  0  0
    7.8203  -11.6944   25.8428 C   0  0  0  0  0  0  0  0  0  0  0  0
    8.2636  -12.9437   25.4552 C   0  0  0  0  0  0  0  0  0  0  0  0
    7.0653  -17.2962   24.1486 C   0  0  0  0  0  0  0  0  0  0  0  0
    7.0406  -18.5289   24.3697 O   0  0  0  0  0  0  0  0  0  0  0  0
    7.3617  -16.7547   22.8744 N   0  0  0  0  0  0  0  0  0  0  0  0
    6.7082  -17.2645   21.6575 C   0  0  0  0  0  0  0  0  0  0  0  0
    7.2568  -16.5218   20.5002 C   0  0  0  0  0  0  0  0  0  0  0  0
    6.9218  -16.8005   19.3186 O   0  0  0  0  0  0  0  0  0  0  0  0
    6.7267  -13.2115   20.0101 C   0  0  0  0  0  0  0  0  0  0  0  0
    8.2182  -13.2915   19.7781 C   0  0  1  0  0  0  0  0  0  0  0  0
    8.8399  -12.7149   20.8838 O   0  0  0  0  0  0  0  0  0  0  0  0
    8.6800  -14.7204   19.5737 C   0  0  2  0  0  0  0  0  0  0  0  0
    8.1726  -15.4793   20.6979 N   0  0  0  0  0  0  0  0  0  0  0  0
   10.1339  -14.8270   19.4282 C   0  0  0  0  0  0  0  0  0  0  0  0
   10.7434  -14.3356   18.4471 O   0  0  0  0  0  0  0  0  0  0  0  0
   10.8869  -15.4844   20.3865 O   0  0  0  0  0  0  0  0  0  0  0  0
  2  1  1  1
  2 10  1  0
  3  2  1  0
  4  5  2  0
  4  3  1  0
  6  5  1  0
  7  6  2  0
  8  7  1  0
  8  9  2  0
  9  4  1  0
 10 11  2  0
 10 12  1  0
 12 13  1  0
 13 14  1  0
 14 15  2  0
 17 16  1  1
 18 17  1  0
 19 17  1  0
 20 14  1  0
 19 20  1  1
 21 23  1  0
 21 19  1  0
 22 21  2  0
M  END
$$$$
