FGT.pdb
     RDKit          3D

 23 23  0  0  1  0  0  0  0  0999 V2000
    9.2061  -14.8769   24.8909 N   0  0  0  0  0  0  0  0  0  0  0  0
    7.9542  -15.3035   24.3419 C   0  0  1  0  0  0  0  0  0  0  0  0
    7.2525  -14.0429   23.8179 C   0  0  0  0  0  0  0  0  0  0  0  0
    6.9976  -13.0958   24.9185 C   0  0  0  0  0  0  0  0  0  0  0  0
    5.9828  -13.3691   25.8094 C   0  0  0  0  0  0  0  0  0  0  0  0
    5.7327  -12.4837   26.8512 C   0  0  0  0  0  0  0  0  0  0  0  0
    6.4898  -11.3311   27.0055 C   0  0  0  0  0  0  0  0  0  0  0  0
    7.5125  -11.0796   26.0871 C   0  0  0  0  0  0  0  0  0  0  0  0
    7.7652  -11.9560   25.0501 C   0  0  0  0  0  0  0  0  0  0  0  0
    8.1076  -16.1993   23.1748 C   0  0  0  0  0  0  0  0  0  0  0  0
    8.9327  -15.8844   22.2866 O   0  0  0  0  0  0  0  0  0  0  0  0
    7.3204  -17.3741   23.1041 N   0  0  0  0  0  0  0  0  0  0  0  0
    7.4484  -18.3119   21.9762 C   0  0  0  0  0  0  0  0  0  0  0  0
    8.6302  -19.1678   22.2270 C   0  0  0  0  0  0  0  0  0  0  0  0
    8.9139  -20.1375   21.4752 O   0  0  0  0  0  0  0  0  0  0  0  0
   11.7487  -18.5337   21.6802 C   0  0  0  0  0  0  0  0  0  0  0  0
   11.8354  -18.9345   23.1351 C   0  0  1  0  0  0  0  0  0  0  0  0
   11.9497  -17.7626   23.8804 O   0  0  0  0  0  0  0  0  0  0  0  0
   10.6295  -19.7436   23.5687 C   0  0  2  0  0  0  0  0  0  0  0  0
    9.4690  -18.9135   23.3208 N   0  0  0  0  0  0  0  0  0  0  0  0
   10.7209  -20.1880   24.9618 C   0  0  0  0  0  0  0  0  0  0  0  0
   10.0051  -19.6945   25.8672 O   0  0  0  0  0  0  0  0  0  0  0  0
   11.6152  -21.1818   25.3221 O   0  0  0  0  0  0  0  0  0  0  0  0
  2  1  1  6
  2 10  1  0
  3  2  1  0
  4  5  2  0
  4  3  1  0
  6  5  1  0
  7  6  2  0
  8  7  1  0
  8  9  2  0
  9  4  1  0
 10 11  2  0
 10 12  1  0
 12 13  1  0
 13 14  1  0
 14 15  2  0
 17 16  1  6
 18 17  1  0
 19 17  1  0
 20 14  1  0
 19 20  1  1
 21 23  1  0
 21 19  1  0
 22 21  2  0
M  END
$$$$
