KTM.pdb
     RDKit          3D

 25 24  0  0  1  0  0  0  0  0999 V2000
   24.3249  -20.0859  -15.9445 N   0  0  0  0  0  0  0  0  0  0  0  0
   25.2387  -19.9543  -14.8846 C   0  0  1  0  0  0  0  0  0  0  0  0
   26.1479  -21.0852  -14.6642 C   0  0  0  0  0  0  0  0  0  0  0  0
   25.6219  -22.4296  -14.5979 C   0  0  0  0  0  0  0  0  0  0  0  0
   25.2891  -23.2150  -15.7684 C   0  0  0  0  0  0  0  0  0  0  0  0
   24.6889  -24.5464  -15.7550 C   0  0  0  0  0  0  0  0  0  0  0  0
   24.3398  -25.0891  -17.0481 N   0  0  0  0  0  0  0  0  0  0  0  0
   25.9964  -18.6665  -15.1094 C   0  0  0  0  0  0  0  0  0  0  0  0
   27.2511  -18.6514  -15.1882 O   0  0  0  0  0  0  0  0  0  0  0  0
   27.7651  -17.4970  -16.6086 C   0  0  0  0  0  0  0  0  0  0  0  0
   26.7881  -16.3529  -16.8277 C   0  0  1  0  0  0  0  0  0  0  0  0
   25.9663  -16.6696  -17.9013 O   0  0  0  0  0  0  0  0  0  0  0  0
   25.9262  -16.1982  -15.5810 C   0  0  2  0  0  0  0  0  0  0  0  0
   25.2950  -17.4509  -15.2351 N   0  0  0  0  0  0  0  0  0  0  0  0
   24.8799  -15.1704  -15.8106 C   0  0  0  0  0  0  0  0  0  0  0  0
   23.7353  -15.5057  -16.2257 O   0  0  0  0  0  0  0  0  0  0  0  0
   21.0878   -8.6877  -13.8534 C   0  0  0  0  0  0  0  0  0  0  0  0
   22.4269   -9.8644  -13.5009 S   0  0  0  0  0  0  0  0  0  0  0  0
   22.7681  -10.9125  -14.9443 C   0  0  0  0  0  0  0  0  0  0  0  0
   23.8085  -11.9367  -14.6265 C   0  0  0  0  0  0  0  0  0  0  0  0
   24.1029  -12.7758  -15.8488 C   0  0  2  0  0  0  0  0  0  0  0  0
   25.0998  -13.7899  -15.5834 N   0  0  0  0  0  0  0  0  0  0  0  0
   24.6259  -11.9035  -16.9344 C   0  0  0  0  0  0  0  0  0  0  0  0
   25.8604  -11.8758  -17.1803 O   0  0  0  0  0  0  0  0  0  0  0  0
   23.7817  -11.1011  -17.7034 O   0  0  0  0  0  0  0  0  0  0  0  0
  2  1  1  6
  3  2  1  0
  4  3  1  0
  5  6  1  0
  5  4  1  0
  7  6  1  0
  8  2  1  0
  8  9  2  0
 11 10  1  1
 11 13  1  0
 12 11  1  0
 13 14  1  6
 14  8  1  0
 15 13  1  0
 16 15  2  0
 18 19  1  0
 18 17  1  0
 19 20  1  0
 21 20  1  1
 21 23  1  0
 21 22  1  0
 22 15  1  0
 23 25  1  0
 24 23  2  0
M  END
$$$$
