KTM.pdb
     RDKit          3D

 25 24  0  0  1  0  0  0  0  0999 V2000
   25.8574  -20.3457  -16.4204 N   0  0  0  0  0  0  0  0  0  0  0  0
   26.4880  -20.9418  -15.3147 C   0  0  1  0  0  0  0  0  0  0  0  0
   27.9507  -21.0454  -15.3768 C   0  0  0  0  0  0  0  0  0  0  0  0
   28.5710  -21.8933  -16.3692 C   0  0  0  0  0  0  0  0  0  0  0  0
   28.3022  -23.3116  -16.4875 C   0  0  0  0  0  0  0  0  0  0  0  0
   28.8789  -24.2044  -17.4892 C   0  0  0  0  0  0  0  0  0  0  0  0
   30.2180  -24.6728  -17.2141 N   0  0  0  0  0  0  0  0  0  0  0  0
   26.0349  -20.1882  -14.0860 C   0  0  0  0  0  0  0  0  0  0  0  0
   26.1370  -18.9372  -14.0118 O   0  0  0  0  0  0  0  0  0  0  0  0
   22.8468  -19.6143  -12.8784 C   0  0  0  0  0  0  0  0  0  0  0  0
   23.4692  -20.3693  -11.7147 C   0  0  1  0  0  0  0  0  0  0  0  0
   23.1263  -21.7107  -11.8209 O   0  0  0  0  0  0  0  0  0  0  0  0
   24.9850  -20.2435  -11.8026 C   0  0  2  0  0  0  0  0  0  0  0  0
   25.4850  -20.8891  -12.9944 N   0  0  0  0  0  0  0  0  0  0  0  0
   25.6164  -20.8618  -10.6098 C   0  0  0  0  0  0  0  0  0  0  0  0
   25.9918  -22.0672  -10.6385 O   0  0  0  0  0  0  0  0  0  0  0  0
   28.2518  -17.7554   -5.5132 C   0  0  0  0  0  0  0  0  0  0  0  0
   28.2816  -19.4616   -4.8886 S   0  0  0  0  0  0  0  0  0  0  0  0
   27.4089  -20.5832   -6.0193 C   0  0  0  0  0  0  0  0  0  0  0  0
   27.0468  -19.8853   -7.2898 C   0  0  0  0  0  0  0  0  0  0  0  0
   26.2175  -20.7962   -8.1657 C   0  0  2  0  0  0  0  0  0  0  0  0
   25.8284  -20.1535   -9.4019 N   0  0  0  0  0  0  0  0  0  0  0  0
   24.9731  -21.1779   -7.4455 C   0  0  0  0  0  0  0  0  0  0  0  0
   23.8705  -20.6711   -7.7813 O   0  0  0  0  0  0  0  0  0  0  0  0
   24.9848  -22.0940   -6.3926 O   0  0  0  0  0  0  0  0  0  0  0  0
  2  1  1  6
  3  2  1  0
  4  3  1  0
  5  6  1  0
  5  4  1  0
  7  6  1  0
  8  2  1  0
  8  9  2  0
 11 10  1  6
 11 13  1  0
 12 11  1  0
 13 14  1  6
 14  8  1  0
 15 13  1  0
 16 15  2  0
 18 19  1  0
 18 17  1  0
 19 20  1  0
 21 20  1  1
 21 23  1  0
 21 22  1  0
 22 15  1  0
 23 25  1  0
 24 23  2  0
M  END
$$$$
