KTM.pdb
     RDKit          3D

 25 24  0  0  1  0  0  0  0  0999 V2000
   24.3919  -19.7532  -18.7206 N   0  0  0  0  0  0  0  0  0  0  0  0
   24.4398  -19.0163  -17.5246 C   0  0  1  0  0  0  0  0  0  0  0  0
   23.1951  -18.3537  -17.1175 C   0  0  0  0  0  0  0  0  0  0  0  0
   22.6501  -17.2864  -17.9252 C   0  0  0  0  0  0  0  0  0  0  0  0
   23.3384  -16.0345  -18.1631 C   0  0  0  0  0  0  0  0  0  0  0  0
   22.8347  -14.7089  -17.8136 C   0  0  0  0  0  0  0  0  0  0  0  0
   21.4076  -14.5256  -17.9479 N   0  0  0  0  0  0  0  0  0  0  0  0
   24.9522  -19.9471  -16.4503 C   0  0  0  0  0  0  0  0  0  0  0  0
   24.6532  -21.1684  -16.4464 O   0  0  0  0  0  0  0  0  0  0  0  0
   28.4219  -20.6323  -15.8130 C   0  0  0  0  0  0  0  0  0  0  0  0
   27.9186  -20.1437  -14.4640 C   0  0  1  0  0  0  0  0  0  0  0  0
   28.2436  -18.8005  -14.3283 O   0  0  0  0  0  0  0  0  0  0  0  0
   26.4023  -20.2864  -14.4250 C   0  0  2  0  0  0  0  0  0  0  0  0
   25.7825  -19.4495  -15.4263 N   0  0  0  0  0  0  0  0  0  0  0  0
   25.8902  -19.9060  -13.0845 C   0  0  0  0  0  0  0  0  0  0  0  0
   25.5827  -18.7069  -12.8349 O   0  0  0  0  0  0  0  0  0  0  0  0
   21.8807  -21.3048   -6.5484 C   0  0  0  0  0  0  0  0  0  0  0  0
   22.4118  -21.8916   -8.1842 S   0  0  0  0  0  0  0  0  0  0  0  0
   23.8291  -20.9315   -8.7907 C   0  0  0  0  0  0  0  0  0  0  0  0
   24.1539  -21.2935  -10.2035 C   0  0  0  0  0  0  0  0  0  0  0  0
   25.3192  -20.4672  -10.6974 C   0  0  2  0  0  0  0  0  0  0  0  0
   25.7217  -20.8422  -12.0353 N   0  0  0  0  0  0  0  0  0  0  0  0
   26.4883  -20.6737   -9.8010 C   0  0  0  0  0  0  0  0  0  0  0  0
   27.4002  -21.4770  -10.1302 O   0  0  0  0  0  0  0  0  0  0  0  0
   26.6122  -19.9964   -8.5869 O   0  0  0  0  0  0  0  0  0  0  0  0
  2  1  1  6
  3  2  1  0
  4  3  1  0
  5  6  1  0
  5  4  1  0
  7  6  1  0
  8  2  1  0
  8  9  2  0
 11 10  1  6
 11 13  1  0
 12 11  1  0
 13 14  1  6
 14  8  1  0
 15 13  1  0
 16 15  2  0
 18 19  1  0
 18 17  1  0
 19 20  1  0
 21 20  1  1
 21 23  1  0
 21 22  1  0
 22 15  1  0
 23 25  1  0
 24 23  2  0
M  END
$$$$
