KTM.pdb
     RDKit          3D

 25 24  0  0  1  0  0  0  0  0999 V2000
   26.3455  -21.8714  -11.6573 N   0  0  0  0  0  0  0  0  0  0  0  0
   25.4457  -21.8678  -12.7371 C   0  0  1  0  0  0  0  0  0  0  0  0
   24.0966  -22.3764  -12.4623 C   0  0  0  0  0  0  0  0  0  0  0  0
   23.6661  -23.6271  -13.0447 C   0  0  0  0  0  0  0  0  0  0  0  0
   23.8382  -23.9565  -14.4446 C   0  0  0  0  0  0  0  0  0  0  0  0
   23.4280  -25.2063  -15.0793 C   0  0  0  0  0  0  0  0  0  0  0  0
   22.0631  -25.6140  -14.8360 N   0  0  0  0  0  0  0  0  0  0  0  0
   25.4094  -20.4582  -13.2797 C   0  0  0  0  0  0  0  0  0  0  0  0
   25.2618  -19.4683  -12.5187 O   0  0  0  0  0  0  0  0  0  0  0  0
   27.8798  -18.5817  -15.1515 C   0  0  0  0  0  0  0  0  0  0  0  0
   26.6810  -18.6054  -16.0864 C   0  0  1  0  0  0  0  0  0  0  0  0
   26.8725  -19.6064  -17.0294 O   0  0  0  0  0  0  0  0  0  0  0  0
   25.4327  -18.9297  -15.2754 C   0  0  2  0  0  0  0  0  0  0  0  0
   25.5425  -20.2342  -14.6645 N   0  0  0  0  0  0  0  0  0  0  0  0
   24.2350  -18.8995  -16.1521 C   0  0  0  0  0  0  0  0  0  0  0  0
   23.8179  -19.9579  -16.7004 O   0  0  0  0  0  0  0  0  0  0  0  0
   18.4372  -17.8082  -15.0087 C   0  0  0  0  0  0  0  0  0  0  0  0
   18.3617  -17.1616  -16.7053 S   0  0  0  0  0  0  0  0  0  0  0  0
   19.9443  -17.4016  -17.5634 C   0  0  0  0  0  0  0  0  0  0  0  0
   21.0744  -17.4752  -16.5888 C   0  0  0  0  0  0  0  0  0  0  0  0
   22.3830  -17.6588  -17.3226 C   0  0  2  0  0  0  0  0  0  0  0  0
   23.5099  -17.7122  -16.4171 N   0  0  0  0  0  0  0  0  0  0  0  0
   22.5998  -16.5111  -18.2440 C   0  0  0  0  0  0  0  0  0  0  0  0
   22.1252  -16.5411  -19.4098 O   0  0  0  0  0  0  0  0  0  0  0  0
   23.3232  -15.3828  -17.8548 O   0  0  0  0  0  0  0  0  0  0  0  0
  2  1  1  1
  3  2  1  0
  4  3  1  0
  5  6  1  0
  5  4  1  0
  7  6  1  0
  8  2  1  0
  8  9  2  0
 11 10  1  1
 11 13  1  0
 12 11  1  0
 13 14  1  6
 14  8  1  0
 15 13  1  0
 16 15  2  0
 18 19  1  0
 18 17  1  0
 19 20  1  0
 21 20  1  1
 21 23  1  0
 21 22  1  0
 22 15  1  0
 23 25  1  0
 24 23  2  0
M  END
$$$$
