KTM.pdb
     RDKit          3D

 25 24  0  0  1  0  0  0  0  0999 V2000
   25.5202  -22.2049  -11.1182 N   0  0  0  0  0  0  0  0  0  0  0  0
   24.9209  -21.2993  -12.0106 C   0  0  1  0  0  0  0  0  0  0  0  0
   23.9757  -20.3396  -11.4279 C   0  0  0  0  0  0  0  0  0  0  0  0
   22.5541  -20.5327  -11.6023 C   0  0  0  0  0  0  0  0  0  0  0  0
   21.9809  -21.3102  -12.6814 C   0  0  0  0  0  0  0  0  0  0  0  0
   20.5539  -21.4683  -12.9492 C   0  0  0  0  0  0  0  0  0  0  0  0
   19.7613  -20.2638  -12.8526 N   0  0  0  0  0  0  0  0  0  0  0  0
   26.0379  -20.6011  -12.7508 C   0  0  0  0  0  0  0  0  0  0  0  0
   26.9738  -20.0306  -12.1348 O   0  0  0  0  0  0  0  0  0  0  0  0
   28.6654  -21.7682  -14.7072 C   0  0  0  0  0  0  0  0  0  0  0  0
   27.9049  -20.9122  -15.7074 C   0  0  1  0  0  0  0  0  0  0  0  0
   27.0679  -21.7343  -16.4502 O   0  0  0  0  0  0  0  0  0  0  0  0
   27.0515  -19.9070  -14.9441 C   0  0  2  0  0  0  0  0  0  0  0  0
   26.0430  -20.5814  -14.1597 N   0  0  0  0  0  0  0  0  0  0  0  0
   26.3913  -18.9761  -15.8935 C   0  0  0  0  0  0  0  0  0  0  0  0
   25.1460  -19.0438  -16.0926 O   0  0  0  0  0  0  0  0  0  0  0  0
   27.0803  -12.9724  -21.0822 C   0  0  0  0  0  0  0  0  0  0  0  0
   27.7780  -13.8288  -19.6393 S   0  0  0  0  0  0  0  0  0  0  0  0
   26.7673  -15.2681  -19.1861 C   0  0  0  0  0  0  0  0  0  0  0  0
   27.3743  -16.0065  -18.0377 C   0  0  0  0  0  0  0  0  0  0  0  0
   26.5017  -17.1794  -17.6539 C   0  0  2  0  0  0  0  0  0  0  0  0
   27.1019  -17.9841  -16.6123 N   0  0  0  0  0  0  0  0  0  0  0  0
   26.2993  -18.0553  -18.8392 C   0  0  0  0  0  0  0  0  0  0  0  0
   27.1652  -18.9185  -19.1396 O   0  0  0  0  0  0  0  0  0  0  0  0
   25.1636  -17.9520  -19.6439 O   0  0  0  0  0  0  0  0  0  0  0  0
  2  1  1  1
  3  2  1  0
  4  3  1  0
  5  6  1  0
  5  4  1  0
  7  6  1  0
  8  2  1  0
  8  9  2  0
 11 10  1  1
 11 13  1  0
 12 11  1  0
 13 14  1  6
 14  8  1  0
 15 13  1  0
 16 15  2  0
 18 19  1  0
 18 17  1  0
 19 20  1  0
 21 20  1  6
 21 23  1  0
 21 22  1  0
 22 15  1  0
 23 25  1  0
 24 23  2  0
M  END
$$$$
