KTM.pdb
     RDKit          3D

 25 24  0  0  1  0  0  0  0  0999 V2000
   19.8297  -12.3236  -20.2195 N   0  0  0  0  0  0  0  0  0  0  0  0
   18.5020  -12.7013  -19.9544 C   0  0  1  0  0  0  0  0  0  0  0  0
   17.7983  -13.4076  -21.0315 C   0  0  0  0  0  0  0  0  0  0  0  0
   17.3518  -12.6804  -22.1979 C   0  0  0  0  0  0  0  0  0  0  0  0
   17.4267  -11.2389  -22.3166 C   0  0  0  0  0  0  0  0  0  0  0  0
   16.9096  -10.4508  -23.4321 C   0  0  0  0  0  0  0  0  0  0  0  0
   17.1081   -9.0226  -23.3353 N   0  0  0  0  0  0  0  0  0  0  0  0
   18.5167  -13.5075  -18.6767 C   0  0  0  0  0  0  0  0  0  0  0  0
   19.5724  -14.0444  -18.2546 O   0  0  0  0  0  0  0  0  0  0  0  0
   17.8220  -12.3016  -15.3967 C   0  0  0  0  0  0  0  0  0  0  0  0
   16.8002  -13.4153  -15.5617 C   0  0  1  0  0  0  0  0  0  0  0  0
   15.5888  -12.8541  -15.9434 O   0  0  0  0  0  0  0  0  0  0  0  0
   17.2725  -14.3554  -16.6636 C   0  0  2  0  0  0  0  0  0  0  0  0
   17.3306  -13.6689  -17.9334 N   0  0  0  0  0  0  0  0  0  0  0  0
   16.3492  -15.5126  -16.7749 C   0  0  0  0  0  0  0  0  0  0  0  0
   15.3285  -15.4463  -17.5155 O   0  0  0  0  0  0  0  0  0  0  0  0
   16.8205  -21.4633  -13.4538 C   0  0  0  0  0  0  0  0  0  0  0  0
   15.9638  -21.7700  -15.0267 S   0  0  0  0  0  0  0  0  0  0  0  0
   15.2619  -20.2341  -15.6950 C   0  0  0  0  0  0  0  0  0  0  0  0
   16.2296  -19.1033  -15.5634 C   0  0  0  0  0  0  0  0  0  0  0  0
   15.6277  -17.8356  -16.1250 C   0  0  2  0  0  0  0  0  0  0  0  0
   16.5549  -16.7263  -16.0747 N   0  0  0  0  0  0  0  0  0  0  0  0
   14.4310  -17.4588  -15.3257 C   0  0  0  0  0  0  0  0  0  0  0  0
   13.2773  -17.7132  -15.7611 O   0  0  0  0  0  0  0  0  0  0  0  0
   14.5440  -16.8223  -14.0888 O   0  0  0  0  0  0  0  0  0  0  0  0
  2  1  1  6
  3  2  1  0
  4  3  1  0
  5  6  1  0
  5  4  1  0
  7  6  1  0
  8  2  1  0
  8  9  2  0
 11 10  1  6
 11 13  1  0
 12 11  1  0
 13 14  1  6
 14  8  1  0
 15 13  1  0
 16 15  2  0
 18 19  1  0
 18 17  1  0
 19 20  1  0
 21 20  1  1
 21 23  1  0
 21 22  1  0
 22 15  1  0
 23 25  1  0
 24 23  2  0
M  END
$$$$
