KTM.pdb
     RDKit          3D

 25 24  0  0  1  0  0  0  0  0999 V2000
   25.2123  -24.8644  -15.4191 N   0  0  0  0  0  0  0  0  0  0  0  0
   24.6131  -23.6123  -15.1982 C   0  0  1  0  0  0  0  0  0  0  0  0
   23.7691  -23.4959  -14.0031 C   0  0  0  0  0  0  0  0  0  0  0  0
   22.3316  -23.5800  -14.1257 C   0  0  0  0  0  0  0  0  0  0  0  0
   21.6371  -24.7704  -14.5710 C   0  0  0  0  0  0  0  0  0  0  0  0
   20.8754  -25.6784  -13.7175 C   0  0  0  0  0  0  0  0  0  0  0  0
   20.1679  -26.7362  -14.4022 N   0  0  0  0  0  0  0  0  0  0  0  0
   25.7202  -22.5841  -15.2003 C   0  0  0  0  0  0  0  0  0  0  0  0
   26.9220  -22.9173  -15.0407 O   0  0  0  0  0  0  0  0  0  0  0  0
   28.0045  -21.7522  -16.5445 C   0  0  0  0  0  0  0  0  0  0  0  0
   27.3124  -20.4061  -16.6882 C   0  0  1  0  0  0  0  0  0  0  0  0
   26.5223  -20.4321  -17.8297 O   0  0  0  0  0  0  0  0  0  0  0  0
   26.4150  -20.1841  -15.4771 C   0  0  2  0  0  0  0  0  0  0  0  0
   25.4136  -21.2212  -15.3839 N   0  0  0  0  0  0  0  0  0  0  0  0
   25.7439  -18.8637  -15.5770 C   0  0  0  0  0  0  0  0  0  0  0  0
   24.5259  -18.7892  -15.9021 O   0  0  0  0  0  0  0  0  0  0  0  0
   26.1702  -11.0057  -14.3749 C   0  0  0  0  0  0  0  0  0  0  0  0
   27.0938  -12.5449  -14.6578 S   0  0  0  0  0  0  0  0  0  0  0  0
   25.9662  -13.9246  -15.0090 C   0  0  0  0  0  0  0  0  0  0  0  0
   26.7040  -15.2235  -15.0366 C   0  0  0  0  0  0  0  0  0  0  0  0
   25.7491  -16.3581  -15.3287 C   0  0  2  0  0  0  0  0  0  0  0  0
   26.4141  -17.6428  -15.3202 N   0  0  0  0  0  0  0  0  0  0  0  0
   25.1526  -16.1689  -16.6783 C   0  0  0  0  0  0  0  0  0  0  0  0
   25.8159  -16.4639  -17.7070 O   0  0  0  0  0  0  0  0  0  0  0  0
   23.8612  -15.6672  -16.8472 O   0  0  0  0  0  0  0  0  0  0  0  0
  2  1  1  1
  3  2  1  0
  4  3  1  0
  5  6  1  0
  5  4  1  0
  7  6  1  0
  8  2  1  0
  8  9  2  0
 11 10  1  1
 11 13  1  0
 12 11  1  0
 13 14  1  6
 14  8  1  0
 15 13  1  0
 16 15  2  0
 18 19  1  0
 18 17  1  0
 19 20  1  0
 21 20  1  6
 21 23  1  0
 21 22  1  0
 22 15  1  0
 23 25  1  0
 24 23  2  0
M  END
$$$$
