KTM.pdb
     RDKit          3D

 25 24  0  0  1  0  0  0  0  0999 V2000
   27.9962  -17.5710  -18.6044 N   0  0  0  0  0  0  0  0  0  0  0  0
   27.9400  -18.6060  -17.6550 C   0  0  1  0  0  0  0  0  0  0  0  0
   29.1493  -19.4254  -17.5124 C   0  0  0  0  0  0  0  0  0  0  0  0
   30.3748  -19.0197  -18.1621 C   0  0  0  0  0  0  0  0  0  0  0  0
   30.7473  -19.4402  -19.4970 C   0  0  0  0  0  0  0  0  0  0  0  0
   31.9941  -19.1002  -20.1774 C   0  0  0  0  0  0  0  0  0  0  0  0
   32.1499  -19.6428  -21.5077 N   0  0  0  0  0  0  0  0  0  0  0  0
   27.5329  -17.9810  -16.3410 C   0  0  0  0  0  0  0  0  0  0  0  0
   27.4598  -16.7331  -16.2055 O   0  0  0  0  0  0  0  0  0  0  0  0
   25.3791  -16.5976  -15.4008 C   0  0  0  0  0  0  0  0  0  0  0  0
   25.1729  -17.7504  -14.4311 C   0  0  1  0  0  0  0  0  0  0  0  0
   24.4261  -18.7353  -15.0638 O   0  0  0  0  0  0  0  0  0  0  0  0
   26.5326  -18.3295  -14.0612 C   0  0  2  0  0  0  0  0  0  0  0  0
   27.2263  -18.8015  -15.2373 N   0  0  0  0  0  0  0  0  0  0  0  0
   26.3635  -19.4553  -13.1084 C   0  0  0  0  0  0  0  0  0  0  0  0
   26.3036  -20.6446  -13.5290 O   0  0  0  0  0  0  0  0  0  0  0  0
   27.8917  -19.2893   -6.6925 C   0  0  0  0  0  0  0  0  0  0  0  0
   26.6486  -20.6144   -6.7185 S   0  0  0  0  0  0  0  0  0  0  0  0
   26.2403  -21.0895   -8.4233 C   0  0  0  0  0  0  0  0  0  0  0  0
   26.3680  -19.9226   -9.3478 C   0  0  0  0  0  0  0  0  0  0  0  0
   26.1029  -20.3556  -10.7715 C   0  0  2  0  0  0  0  0  0  0  0  0
   26.2619  -19.2651  -11.7087 N   0  0  0  0  0  0  0  0  0  0  0  0
   24.7041  -20.8485  -10.8873 C   0  0  0  0  0  0  0  0  0  0  0  0
   23.7874  -20.0634  -11.2457 O   0  0  0  0  0  0  0  0  0  0  0  0
   24.3663  -22.1735  -10.6080 O   0  0  0  0  0  0  0  0  0  0  0  0
  2  1  1  6
  3  2  1  0
  4  3  1  0
  5  6  1  0
  5  4  1  0
  7  6  1  0
  8  2  1  0
  8  9  2  0
 11 10  1  6
 11 13  1  0
 12 11  1  0
 13 14  1  6
 14  8  1  0
 15 13  1  0
 16 15  2  0
 18 19  1  0
 18 17  1  0
 19 20  1  0
 21 20  1  1
 21 23  1  0
 21 22  1  0
 22 15  1  0
 23 25  1  0
 24 23  2  0
M  END
$$$$
