KTM.pdb
     RDKit          3D

 25 24  0  0  1  0  0  0  0  0999 V2000
   19.1290  -13.1652  -15.8513 N   0  0  0  0  0  0  0  0  0  0  0  0
   18.7731  -11.8900  -16.3234 C   0  0  1  0  0  0  0  0  0  0  0  0
   17.3358  -11.6176  -16.4434 C   0  0  0  0  0  0  0  0  0  0  0  0
   16.5084  -12.4677  -17.2687 C   0  0  0  0  0  0  0  0  0  0  0  0
   15.3170  -13.1342  -16.7850 C   0  0  0  0  0  0  0  0  0  0  0  0
   14.4147  -13.9518  -17.5915 C   0  0  0  0  0  0  0  0  0  0  0  0
   14.6771  -13.9585  -19.0126 N   0  0  0  0  0  0  0  0  0  0  0  0
   19.4587  -10.8800  -15.4329 C   0  0  0  0  0  0  0  0  0  0  0  0
   19.4227  -10.9820  -14.1803 O   0  0  0  0  0  0  0  0  0  0  0  0
   22.6852  -10.4385  -14.6874 C   0  0  0  0  0  0  0  0  0  0  0  0
   22.3888   -9.0851  -15.3136 C   0  0  1  0  0  0  0  0  0  0  0  0
   22.7612   -9.1228  -16.6507 O   0  0  0  0  0  0  0  0  0  0  0  0
   20.8902   -8.8235  -15.2304 C   0  0  2  0  0  0  0  0  0  0  0  0
   20.1559   -9.7973  -16.0048 N   0  0  0  0  0  0  0  0  0  0  0  0
   20.5828   -7.4627  -15.7377 C   0  0  0  0  0  0  0  0  0  0  0  0
   20.3778   -7.2712  -16.9691 O   0  0  0  0  0  0  0  0  0  0  0  0
   17.9116   -0.1538  -14.7271 C   0  0  0  0  0  0  0  0  0  0  0  0
   18.3804   -1.7036  -13.9021 S   0  0  0  0  0  0  0  0  0  0  0  0
   19.3953   -2.7405  -14.9945 C   0  0  0  0  0  0  0  0  0  0  0  0
   19.5000   -4.1330  -14.4631 C   0  0  0  0  0  0  0  0  0  0  0  0
   20.3424   -4.9808  -15.3885 C   0  0  2  0  0  0  0  0  0  0  0  0
   20.5040   -6.3298  -14.8916 N   0  0  0  0  0  0  0  0  0  0  0  0
   21.6983   -4.3814  -15.5129 C   0  0  0  0  0  0  0  0  0  0  0  0
   21.9708   -3.6383  -16.4920 O   0  0  0  0  0  0  0  0  0  0  0  0
   22.6960   -4.6179  -14.5660 O   0  0  0  0  0  0  0  0  0  0  0  0
  2  1  1  1
  3  2  1  0
  4  3  1  0
  5  6  1  0
  5  4  1  0
  7  6  1  0
  8  2  1  0
  8  9  2  0
 11 10  1  6
 11 13  1  0
 12 11  1  0
 13 14  1  6
 14  8  1  0
 15 13  1  0
 16 15  2  0
 18 19  1  0
 18 17  1  0
 19 20  1  0
 21 20  1  1
 21 23  1  0
 21 22  1  0
 22 15  1  0
 23 25  1  0
 24 23  2  0
M  END
$$$$
