KTM.pdb
     RDKit          3D

 25 24  0  0  1  0  0  0  0  0999 V2000
   18.4330  -11.3415  -15.3308 N   0  0  0  0  0  0  0  0  0  0  0  0
   18.0574  -10.0436  -15.7181 C   0  0  1  0  0  0  0  0  0  0  0  0
   16.6352   -9.7085  -15.5797 C   0  0  0  0  0  0  0  0  0  0  0  0
   15.6370  -10.5193  -16.2392 C   0  0  0  0  0  0  0  0  0  0  0  0
   14.2207  -10.2170  -16.2157 C   0  0  0  0  0  0  0  0  0  0  0  0
   13.1792  -10.9750  -16.9040 C   0  0  0  0  0  0  0  0  0  0  0  0
   13.0647  -12.3658  -16.5284 N   0  0  0  0  0  0  0  0  0  0  0  0
   18.9334   -9.0808  -14.9510 C   0  0  0  0  0  0  0  0  0  0  0  0
   19.1922   -9.2601  -13.7338 O   0  0  0  0  0  0  0  0  0  0  0  0
   22.1077   -8.8218  -14.5075 C   0  0  0  0  0  0  0  0  0  0  0  0
   21.8588   -7.5241  -15.2596 C   0  0  1  0  0  0  0  0  0  0  0  0
   21.9947   -7.7658  -16.6201 O   0  0  0  0  0  0  0  0  0  0  0  0
   20.4329   -7.0633  -14.9846 C   0  0  2  0  0  0  0  0  0  0  0  0
   19.4779   -7.9552  -15.6007 N   0  0  0  0  0  0  0  0  0  0  0  0
   20.2315   -5.6906  -15.5128 C   0  0  0  0  0  0  0  0  0  0  0  0
   19.7892   -5.5148  -16.6825 O   0  0  0  0  0  0  0  0  0  0  0  0
   18.8133    1.9273  -14.0688 C   0  0  0  0  0  0  0  0  0  0  0  0
   19.2598    0.3088  -13.3734 S   0  0  0  0  0  0  0  0  0  0  0  0
   19.7346   -0.8538  -14.6854 C   0  0  0  0  0  0  0  0  0  0  0  0
   19.9209   -2.2310  -14.1367 C   0  0  0  0  0  0  0  0  0  0  0  0
   20.2912   -3.1876  -15.2469 C   0  0  2  0  0  0  0  0  0  0  0  0
   20.5167   -4.5290  -14.7545 N   0  0  0  0  0  0  0  0  0  0  0  0
   21.5482   -2.7293  -15.8972 C   0  0  0  0  0  0  0  0  0  0  0  0
   22.6631   -3.0370  -15.3995 O   0  0  0  0  0  0  0  0  0  0  0  0
   21.5351   -1.9571  -17.0597 O   0  0  0  0  0  0  0  0  0  0  0  0
  2  1  1  1
  3  2  1  0
  4  3  1  0
  5  6  1  0
  5  4  1  0
  7  6  1  0
  8  2  1  0
  8  9  2  0
 11 10  1  1
 11 13  1  0
 12 11  1  0
 13 14  1  6
 14  8  1  0
 15 13  1  0
 16 15  2  0
 18 19  1  0
 18 17  1  0
 19 20  1  0
 21 20  1  1
 21 23  1  0
 21 22  1  0
 22 15  1  0
 23 25  1  0
 24 23  2  0
M  END
$$$$
