GAA.pdb
     RDKit          3D

 15 14  0  0  1  0  0  0  0  0999 V2000
    9.0186  -15.2632   15.0978 N   0  0  0  0  0  0  0  0  0  0  0  0
    8.1243  -15.0266   16.1912 C   0  0  0  0  0  0  0  0  0  0  0  0
    8.8370  -14.6286   17.4207 C   0  0  0  0  0  0  0  0  0  0  0  0
   10.0854  -14.7954   17.5887 O   0  0  0  0  0  0  0  0  0  0  0  0
    7.8002  -12.8703   20.6302 C   0  0  0  0  0  0  0  0  0  0  0  0
    8.7140  -13.7113   19.7479 C   0  0  2  0  0  0  0  0  0  0  0  0
    8.1314  -14.0277   18.4900 N   0  0  0  0  0  0  0  0  0  0  0  0
    9.1199  -14.8925   20.5405 C   0  0  0  0  0  0  0  0  0  0  0  0
    8.3676  -15.8967   20.5685 O   0  0  0  0  0  0  0  0  0  0  0  0
   12.1679  -16.1635   22.3855 C   0  0  0  0  0  0  0  0  0  0  0  0
   10.6877  -16.1558   22.0705 C   0  0  2  0  0  0  0  0  0  0  0  0
   10.3182  -14.9875   21.2903 N   0  0  0  0  0  0  0  0  0  0  0  0
    9.9647  -16.0608   23.3590 C   0  0  0  0  0  0  0  0  0  0  0  0
   10.0517  -17.0189   24.1596 O   0  0  0  0  0  0  0  0  0  0  0  0
    9.1993  -14.9706   23.7237 O   0  0  0  0  0  0  0  0  0  0  0  0
  2  3  1  0
  2  1  1  0
  3  7  1  0
  4  3  2  0
  6  5  1  1
  7  6  1  0
  8  6  1  0
  8 12  1  0
  9  8  2  0
 11 10  1  1
 11 12  1  0
 11 13  1  0
 13 15  1  0
 14 13  2  0
M  END
$$$$
