GAA.pdb
     RDKit          3D

 15 14  0  0  1  0  0  0  0  0999 V2000
   -2.2157  -28.1018   30.2523 N   0  0  0  0  0  0  0  0  0  0  0  0
   -3.6463  -28.1554   30.2143 C   0  0  0  0  0  0  0  0  0  0  0  0
   -4.2340  -26.9615   29.5761 C   0  0  0  0  0  0  0  0  0  0  0  0
   -3.6330  -25.8447   29.4982 O   0  0  0  0  0  0  0  0  0  0  0  0
   -7.3775  -26.3035   27.5612 C   0  0  0  0  0  0  0  0  0  0  0  0
   -6.2010  -25.9038   28.4427 C   0  0  2  0  0  0  0  0  0  0  0  0
   -5.5296  -27.0213   29.0103 N   0  0  0  0  0  0  0  0  0  0  0  0
   -6.7104  -24.9350   29.4378 C   0  0  0  0  0  0  0  0  0  0  0  0
   -7.0908  -25.3537   30.5581 O   0  0  0  0  0  0  0  0  0  0  0  0
   -6.9102  -21.1735   29.8625 C   0  0  0  0  0  0  0  0  0  0  0  0
   -7.2447  -22.5989   30.2451 C   0  0  2  0  0  0  0  0  0  0  0  0
   -6.8073  -23.5375   29.2264 N   0  0  0  0  0  0  0  0  0  0  0  0
   -8.7201  -22.6992   30.3195 C   0  0  0  0  0  0  0  0  0  0  0  0
   -9.3202  -23.3028   29.4020 O   0  0  0  0  0  0  0  0  0  0  0  0
   -9.4686  -22.1617   31.3482 O   0  0  0  0  0  0  0  0  0  0  0  0
  2  3  1  0
  2  1  1  0
  3  7  1  0
  4  3  2  0
  6  5  1  1
  7  6  1  0
  8  6  1  0
  8 12  1  0
  9  8  2  0
 11 10  1  6
 11 12  1  0
 11 13  1  0
 13 15  1  0
 14 13  2  0
M  END
$$$$
