GAA.pdb
     RDKit          3D

 15 14  0  0  1  0  0  0  0  0999 V2000
   -1.1062  -25.8990   30.7364 N   0  0  0  0  0  0  0  0  0  0  0  0
   -2.0580  -26.8633   30.2726 C   0  0  0  0  0  0  0  0  0  0  0  0
   -3.2561  -26.2302   29.6878 C   0  0  0  0  0  0  0  0  0  0  0  0
   -3.2030  -25.3290   28.7935 O   0  0  0  0  0  0  0  0  0  0  0  0
   -6.9632  -26.9639   29.8428 C   0  0  0  0  0  0  0  0  0  0  0  0
   -5.7539  -26.0694   29.6009 C   0  0  2  0  0  0  0  0  0  0  0  0
   -4.5476  -26.6176   30.1169 N   0  0  0  0  0  0  0  0  0  0  0  0
   -6.0871  -24.7309   30.1354 C   0  0  0  0  0  0  0  0  0  0  0  0
   -5.8614  -24.4831   31.3449 O   0  0  0  0  0  0  0  0  0  0  0  0
   -6.9818  -21.3288   28.7611 C   0  0  0  0  0  0  0  0  0  0  0  0
   -6.8444  -22.3311   29.8865 C   0  0  2  0  0  0  0  0  0  0  0  0
   -6.6544  -23.6778   29.3763 N   0  0  0  0  0  0  0  0  0  0  0  0
   -8.1219  -22.3292   30.6350 C   0  0  0  0  0  0  0  0  0  0  0  0
   -8.4468  -21.2890   31.2503 O   0  0  0  0  0  0  0  0  0  0  0  0
   -8.9735  -23.4151   30.6898 O   0  0  0  0  0  0  0  0  0  0  0  0
  2  3  1  0
  2  1  1  0
  3  7  1  0
  4  3  2  0
  6  5  1  1
  7  6  1  0
  8  6  1  0
  8 12  1  0
  9  8  2  0
 11 10  1  6
 11 12  1  0
 11 13  1  0
 13 15  1  0
 14 13  2  0
M  END
$$$$
