GAA.pdb
     RDKit          3D

 15 14  0  0  1  0  0  0  0  0999 V2000
    5.2216  -19.8770   23.1647 N   0  0  0  0  0  0  0  0  0  0  0  0
    5.1250  -18.4484   23.1958 C   0  0  0  0  0  0  0  0  0  0  0  0
    6.1963  -17.7983   22.4161 C   0  0  0  0  0  0  0  0  0  0  0  0
    7.1922  -18.4270   21.9392 O   0  0  0  0  0  0  0  0  0  0  0  0
    6.7608  -14.2792   21.1010 C   0  0  0  0  0  0  0  0  0  0  0  0
    7.1876  -15.6810   21.5179 C   0  0  2  0  0  0  0  0  0  0  0  0
    6.1497  -16.4065   22.1645 N   0  0  0  0  0  0  0  0  0  0  0  0
    8.4199  -15.5404   22.3241 C   0  0  0  0  0  0  0  0  0  0  0  0
    9.4635  -15.1117   21.7743 O   0  0  0  0  0  0  0  0  0  0  0  0
    9.5384  -14.9564   25.7410 C   0  0  0  0  0  0  0  0  0  0  0  0
    9.7541  -15.7379   24.4632 C   0  0  2  0  0  0  0  0  0  0  0  0
    8.5233  -15.8575   23.7010 N   0  0  0  0  0  0  0  0  0  0  0  0
   10.1575  -17.1092   24.8496 C   0  0  0  0  0  0  0  0  0  0  0  0
    9.3760  -18.0519   24.5911 O   0  0  0  0  0  0  0  0  0  0  0  0
   11.3507  -17.4023   25.4802 O   0  0  0  0  0  0  0  0  0  0  0  0
  2  3  1  0
  2  1  1  0
  3  7  1  0
  4  3  2  0
  6  5  1  1
  7  6  1  0
  8  6  1  0
  8 12  1  0
  9  8  2  0
 11 10  1  1
 11 12  1  0
 11 13  1  0
 13 15  1  0
 14 13  2  0
M  END
$$$$
