GAA.pdb
     RDKit          3D

 15 14  0  0  1  0  0  0  0  0999 V2000
    5.9706  -17.2753   12.5661 N   0  0  0  0  0  0  0  0  0  0  0  0
    5.8640  -18.5892   13.1260 C   0  0  0  0  0  0  0  0  0  0  0  0
    5.0374  -18.6110   14.3484 C   0  0  0  0  0  0  0  0  0  0  0  0
    4.7577  -17.5694   15.0203 O   0  0  0  0  0  0  0  0  0  0  0  0
    2.8167  -21.1372   16.0383 C   0  0  0  0  0  0  0  0  0  0  0  0
    3.7839  -19.9601   16.0458 C   0  0  2  0  0  0  0  0  0  0  0  0
    4.5104  -19.8327   14.8301 N   0  0  0  0  0  0  0  0  0  0  0  0
    4.6354  -20.1025   17.2470 C   0  0  0  0  0  0  0  0  0  0  0  0
    4.0965  -20.1054   18.3804 O   0  0  0  0  0  0  0  0  0  0  0  0
    7.9191  -21.4451   18.2439 C   0  0  0  0  0  0  0  0  0  0  0  0
    6.8585  -20.3800   18.4198 C   0  0  2  0  0  0  0  0  0  0  0  0
    6.0453  -20.2394   17.2244 N   0  0  0  0  0  0  0  0  0  0  0  0
    7.5591  -19.0910   18.6194 C   0  0  0  0  0  0  0  0  0  0  0  0
    7.3930  -18.1882   17.7688 O   0  0  0  0  0  0  0  0  0  0  0  0
    8.3863  -18.8328   19.6948 O   0  0  0  0  0  0  0  0  0  0  0  0
  2  3  1  0
  2  1  1  0
  3  7  1  0
  4  3  2  0
  6  5  1  6
  7  6  1  0
  8  6  1  0
  8 12  1  0
  9  8  2  0
 11 10  1  6
 11 12  1  0
 11 13  1  0
 13 15  1  0
 14 13  2  0
M  END
$$$$
