GAA.pdb
     RDKit          3D

 15 14  0  0  1  0  0  0  0  0999 V2000
    4.5672  -18.4612   21.1929 N   0  0  0  0  0  0  0  0  0  0  0  0
    4.6437  -17.0335   21.2770 C   0  0  0  0  0  0  0  0  0  0  0  0
    5.9621  -16.5185   20.8588 C   0  0  0  0  0  0  0  0  0  0  0  0
    6.9670  -17.2658   20.6439 O   0  0  0  0  0  0  0  0  0  0  0  0
    7.2831  -13.0995   19.8725 C   0  0  0  0  0  0  0  0  0  0  0  0
    7.4115  -14.5399   20.3517 C   0  0  2  0  0  0  0  0  0  0  0  0
    6.1588  -15.1290   20.6768 N   0  0  0  0  0  0  0  0  0  0  0  0
    8.3885  -14.5451   21.4623 C   0  0  0  0  0  0  0  0  0  0  0  0
    9.5923  -14.2879   21.2175 O   0  0  0  0  0  0  0  0  0  0  0  0
    8.5053  -14.3380   25.1767 C   0  0  0  0  0  0  0  0  0  0  0  0
    9.0595  -14.8806   23.8772 C   0  0  2  0  0  0  0  0  0  0  0  0
    8.0707  -14.8233   22.8146 N   0  0  0  0  0  0  0  0  0  0  0  0
    9.3747  -16.3105   24.0970 C   0  0  0  0  0  0  0  0  0  0  0  0
    8.6690  -17.1684   23.5206 O   0  0  0  0  0  0  0  0  0  0  0  0
   10.4064  -16.7471   24.9046 O   0  0  0  0  0  0  0  0  0  0  0  0
  2  3  1  0
  2  1  1  0
  3  7  1  0
  4  3  2  0
  6  5  1  1
  7  6  1  0
  8  6  1  0
  8 12  1  0
  9  8  2  0
 11 10  1  1
 11 12  1  0
 11 13  1  0
 13 15  1  0
 14 13  2  0
M  END
$$$$
