AVC.pdb
     RDKit          3D

 19 18  0  0  1  0  0  0  0  0999 V2000
    7.2287  -17.0115   22.0542 C   0  0  0  0  0  0  0  0  0  0  0  0
    7.5624  -15.5449   21.9335 C   0  0  2  0  0  0  0  0  0  0  0  0
    8.3309  -15.2262   20.7800 N   0  0  0  0  0  0  0  0  0  0  0  0
    8.2351  -15.0217   23.1429 C   0  0  0  0  0  0  0  0  0  0  0  0
    9.4882  -14.9583   23.2543 O   0  0  0  0  0  0  0  0  0  0  0  0
    6.6971  -12.0118   25.1723 C   0  0  0  0  0  0  0  0  0  0  0  0
    6.9389  -13.1951   26.0881 C   0  0  2  0  0  0  0  0  0  0  0  0
    7.2982  -12.6817   27.4366 C   0  0  0  0  0  0  0  0  0  0  0  0
    7.9326  -14.1134   25.4691 C   0  0  2  0  0  0  0  0  0  0  0  0
    7.4086  -14.5784   24.2096 N   0  0  0  0  0  0  0  0  0  0  0  0
    8.3499  -15.2492   26.2658 C   0  0  0  0  0  0  0  0  0  0  0  0
    7.6712  -16.2900   26.4739 O   0  0  0  0  0  0  0  0  0  0  0  0
    9.6297  -15.2341   26.8876 N   0  0  0  0  0  0  0  0  0  0  0  0
   10.1342  -16.3740   27.6303 C   0  0  1  0  0  0  0  0  0  0  0  0
   11.4272  -16.8972   27.0583 C   0  0  0  0  0  0  0  0  0  0  0  0
   12.6913  -15.6335   26.9062 S   0  0  0  0  0  0  0  0  0  0  0  0
   10.3324  -15.9971   29.0393 C   0  0  0  0  0  0  0  0  0  0  0  0
   10.2317  -14.7938   29.4057 O   0  0  0  0  0  0  0  0  0  0  0  0
   10.6337  -16.9237   30.0178 O   0  0  0  0  0  0  0  0  0  0  0  0
  2  1  1  1
  2  3  1  0
  4  2  1  0
  5  4  2  0
  7  6  1  6
  7  9  1  0
  8  7  1  0
  9 10  1  6
 10  4  1  0
 11  9  1  0
 11 12  2  0
 13 14  1  0
 13 11  1  0
 14 15  1  6
 16 15  1  0
 17 14  1  0
 18 17  2  0
 19 17  1  0
M  END
$$$$
