AVC.pdb
     RDKit          3D

 19 18  0  0  1  0  0  0  0  0999 V2000
    6.7601  -16.7902   22.1011 C   0  0  0  0  0  0  0  0  0  0  0  0
    7.3077  -15.3971   21.9098 C   0  0  2  0  0  0  0  0  0  0  0  0
    8.0483  -15.2340   20.7066 N   0  0  0  0  0  0  0  0  0  0  0  0
    8.1213  -14.9514   23.0623 C   0  0  0  0  0  0  0  0  0  0  0  0
    9.3802  -14.9948   23.0674 O   0  0  0  0  0  0  0  0  0  0  0  0
    5.9417  -13.2631   26.3369 C   0  0  0  0  0  0  0  0  0  0  0  0
    7.2916  -12.7624   25.8635 C   0  0  2  0  0  0  0  0  0  0  0  0
    7.0709  -11.6510   24.9005 C   0  0  0  0  0  0  0  0  0  0  0  0
    8.0969  -13.9027   25.3486 C   0  0  2  0  0  0  0  0  0  0  0  0
    7.4277  -14.4578   24.1992 N   0  0  0  0  0  0  0  0  0  0  0  0
    8.3960  -14.9625   26.2901 C   0  0  0  0  0  0  0  0  0  0  0  0
    7.7028  -15.9981   26.4754 O   0  0  0  0  0  0  0  0  0  0  0  0
    9.5637  -14.8704   27.0981 N   0  0  0  0  0  0  0  0  0  0  0  0
   10.0130  -15.9755   27.9240 C   0  0  1  0  0  0  0  0  0  0  0  0
   11.2383  -16.6464   27.3572 C   0  0  0  0  0  0  0  0  0  0  0  0
   11.8078  -18.0267   28.3514 S   0  0  0  0  0  0  0  0  0  0  0  0
   10.2980  -15.4914   29.2846 C   0  0  0  0  0  0  0  0  0  0  0  0
   10.3789  -14.2556   29.5260 O   0  0  0  0  0  0  0  0  0  0  0  0
   10.4886  -16.3487   30.3502 O   0  0  0  0  0  0  0  0  0  0  0  0
  2  1  1  1
  2  3  1  0
  4  2  1  0
  5  4  2  0
  7  6  1  6
  7  9  1  0
  8  7  1  0
  9 10  1  6
 10  4  1  0
 11  9  1  0
 11 12  2  0
 13 14  1  0
 13 11  1  0
 14 15  1  6
 16 15  1  0
 17 14  1  0
 18 17  2  0
 19 17  1  0
M  END
$$$$
