AVC.pdb
     RDKit          3D

 19 18  0  0  1  0  0  0  0  0999 V2000
    6.9083  -18.6513   18.1697 C   0  0  0  0  0  0  0  0  0  0  0  0
    7.6198  -17.4312   17.6384 C   0  0  2  0  0  0  0  0  0  0  0  0
    8.5000  -17.7083   16.5563 N   0  0  0  0  0  0  0  0  0  0  0  0
    8.3464  -16.6996   18.6995 C   0  0  0  0  0  0  0  0  0  0  0  0
    9.5735  -16.8684   18.9282 O   0  0  0  0  0  0  0  0  0  0  0  0
    7.2726  -12.9866   19.4412 C   0  0  0  0  0  0  0  0  0  0  0  0
    7.3602  -13.7677   20.7371 C   0  0  2  0  0  0  0  0  0  0  0  0
    7.8257  -12.8497   21.8102 C   0  0  0  0  0  0  0  0  0  0  0  0
    8.1913  -14.9850   20.5335 C   0  0  2  0  0  0  0  0  0  0  0  0
    7.6042  -15.7730   19.4791 N   0  0  0  0  0  0  0  0  0  0  0  0
    8.4102  -15.8222   21.6955 C   0  0  0  0  0  0  0  0  0  0  0  0
    7.5160  -16.4291   22.3431 O   0  0  0  0  0  0  0  0  0  0  0  0
    9.7336  -16.0053   22.1854 N   0  0  0  0  0  0  0  0  0  0  0  0
   10.0180  -16.8597   23.3232 C   0  0  1  0  0  0  0  0  0  0  0  0
   10.8813  -18.0370   22.9474 C   0  0  0  0  0  0  0  0  0  0  0  0
   10.2665  -18.9328   21.5200 S   0  0  0  0  0  0  0  0  0  0  0  0
   10.6820  -16.0748   24.3766 C   0  0  0  0  0  0  0  0  0  0  0  0
   11.0615  -14.8915   24.1574 O   0  0  0  0  0  0  0  0  0  0  0  0
   10.9209  -16.5825   25.6383 O   0  0  0  0  0  0  0  0  0  0  0  0
  2  1  1  1
  2  3  1  0
  4  2  1  0
  5  4  2  0
  7  6  1  6
  7  9  1  0
  8  7  1  0
  9 10  1  6
 10  4  1  0
 11  9  1  0
 11 12  2  0
 13 14  1  0
 13 11  1  0
 14 15  1  6
 16 15  1  0
 17 14  1  0
 18 17  2  0
 19 17  1  0
M  END
$$$$
