AVC.pdb
     RDKit          3D

 19 18  0  0  1  0  0  0  0  0999 V2000
    7.1906  -18.7747   18.7852 C   0  0  0  0  0  0  0  0  0  0  0  0
    8.0211  -17.6012   18.3267 C   0  0  2  0  0  0  0  0  0  0  0  0
    9.0900  -17.9609   17.4601 N   0  0  0  0  0  0  0  0  0  0  0  0
    8.5422  -16.8061   19.4604 C   0  0  0  0  0  0  0  0  0  0  0  0
    9.6709  -17.0142   19.9791 O   0  0  0  0  0  0  0  0  0  0  0  0
    7.7890  -12.9797   19.4851 C   0  0  0  0  0  0  0  0  0  0  0  0
    7.4276  -13.5717   20.8328 C   0  0  2  0  0  0  0  0  0  0  0  0
    7.6929  -12.5519   21.8820 C   0  0  0  0  0  0  0  0  0  0  0  0
    8.1292  -14.8713   21.0139 C   0  0  2  0  0  0  0  0  0  0  0  0
    7.7134  -15.7696   19.9663 N   0  0  0  0  0  0  0  0  0  0  0  0
    7.9675  -15.5218   22.2983 C   0  0  0  0  0  0  0  0  0  0  0  0
    6.9534  -16.1695   22.6716 O   0  0  0  0  0  0  0  0  0  0  0  0
    9.0186  -15.4505   23.2549 N   0  0  0  0  0  0  0  0  0  0  0  0
    9.1215  -16.3946   24.3519 C   0  0  1  0  0  0  0  0  0  0  0  0
    9.2286  -17.8182   23.8678 C   0  0  0  0  0  0  0  0  0  0  0  0
    9.5022  -18.9937   25.1949 S   0  0  0  0  0  0  0  0  0  0  0  0
   10.2923  -16.0636   25.1803 C   0  0  0  0  0  0  0  0  0  0  0  0
   11.2951  -15.4851   24.6784 O   0  0  0  0  0  0  0  0  0  0  0  0
   10.3545  -16.3631   26.5269 O   0  0  0  0  0  0  0  0  0  0  0  0
  2  1  1  1
  2  3  1  0
  4  2  1  0
  5  4  2  0
  7  6  1  6
  7  9  1  0
  8  7  1  0
  9 10  1  6
 10  4  1  0
 11  9  1  0
 11 12  2  0
 13 14  1  0
 13 11  1  0
 14 15  1  6
 16 15  1  0
 17 14  1  0
 18 17  2  0
 19 17  1  0
M  END
$$$$
