AVC.pdb
     RDKit          3D

 19 18  0  0  1  0  0  0  0  0999 V2000
    6.8375  -18.8096   17.9943 C   0  0  0  0  0  0  0  0  0  0  0  0
    7.5303  -17.6986   17.2443 C   0  0  2  0  0  0  0  0  0  0  0  0
    8.2885  -18.1481   16.1282 N   0  0  0  0  0  0  0  0  0  0  0  0
    8.3823  -16.8722   18.1276 C   0  0  0  0  0  0  0  0  0  0  0  0
    9.6184  -17.0711   18.2658 O   0  0  0  0  0  0  0  0  0  0  0  0
    8.5067  -12.7848   20.8526 C   0  0  0  0  0  0  0  0  0  0  0  0
    7.7014  -13.7298   19.9831 C   0  0  2  0  0  0  0  0  0  0  0  0
    6.3345  -13.8484   20.5564 C   0  0  0  0  0  0  0  0  0  0  0  0
    8.4386  -15.0119   19.8198 C   0  0  2  0  0  0  0  0  0  0  0  0
    7.7538  -15.8156   18.8388 N   0  0  0  0  0  0  0  0  0  0  0  0
    8.6514  -15.7947   21.0201 C   0  0  0  0  0  0  0  0  0  0  0  0
    7.8195  -16.5864   21.5384 O   0  0  0  0  0  0  0  0  0  0  0  0
    9.8925  -15.6943   21.7089 N   0  0  0  0  0  0  0  0  0  0  0  0
   10.2281  -16.5716   22.8148 C   0  0  1  0  0  0  0  0  0  0  0  0
   10.6845  -17.9292   22.3444 C   0  0  0  0  0  0  0  0  0  0  0  0
   11.1626  -19.0156   23.6894 S   0  0  0  0  0  0  0  0  0  0  0  0
   11.2815  -15.9516   23.6351 C   0  0  0  0  0  0  0  0  0  0  0  0
   12.0802  -15.1132   23.1337 O   0  0  0  0  0  0  0  0  0  0  0  0
   11.4488  -16.2492   24.9731 O   0  0  0  0  0  0  0  0  0  0  0  0
  2  1  1  1
  2  3  1  0
  4  2  1  0
  5  4  2  0
  7  6  1  1
  7  9  1  0
  8  7  1  0
  9 10  1  6
 10  4  1  0
 11  9  1  0
 11 12  2  0
 13 14  1  0
 13 11  1  0
 14 15  1  6
 16 15  1  0
 17 14  1  0
 18 17  2  0
 19 17  1  0
M  END
$$$$
