AVC.pdb
     RDKit          3D

 19 18  0  0  1  0  0  0  0  0999 V2000
    7.1106  -19.0161   18.8469 C   0  0  0  0  0  0  0  0  0  0  0  0
    7.5033  -17.8079   18.0326 C   0  0  2  0  0  0  0  0  0  0  0  0
    8.1759  -18.1287   16.8212 N   0  0  0  0  0  0  0  0  0  0  0  0
    8.3106  -16.8444   18.8129 C   0  0  0  0  0  0  0  0  0  0  0  0
    9.5688  -16.8846   18.8564 O   0  0  0  0  0  0  0  0  0  0  0  0
    7.3963  -13.0642   19.0090 C   0  0  0  0  0  0  0  0  0  0  0  0
    7.4755  -13.6327   20.4118 C   0  0  2  0  0  0  0  0  0  0  0  0
    7.9800  -12.5712   21.3227 C   0  0  0  0  0  0  0  0  0  0  0  0
    8.2681  -14.8919   20.3984 C   0  0  2  0  0  0  0  0  0  0  0  0
    7.6114  -15.8408   19.5349 N   0  0  0  0  0  0  0  0  0  0  0  0
    8.5265  -15.5089   21.6835 C   0  0  0  0  0  0  0  0  0  0  0  0
    7.6682  -16.0707   22.4149 O   0  0  0  0  0  0  0  0  0  0  0  0
    9.8497  -15.5050   22.2070 N   0  0  0  0  0  0  0  0  0  0  0  0
   10.2136  -16.2841   23.3757 C   0  0  1  0  0  0  0  0  0  0  0  0
    9.9723  -17.7583   23.1731 C   0  0  0  0  0  0  0  0  0  0  0  0
   10.3647  -18.7409   24.6217 S   0  0  0  0  0  0  0  0  0  0  0  0
   11.6306  -16.0542   23.7011 C   0  0  0  0  0  0  0  0  0  0  0  0
   12.4579  -15.7461   22.7995 O   0  0  0  0  0  0  0  0  0  0  0  0
   12.1213  -16.1616   24.9874 O   0  0  0  0  0  0  0  0  0  0  0  0
  2  1  1  1
  2  3  1  0
  4  2  1  0
  5  4  2  0
  7  6  1  6
  7  9  1  0
  8  7  1  0
  9 10  1  6
 10  4  1  0
 11  9  1  0
 11 12  2  0
 13 14  1  0
 13 11  1  0
 14 15  1  6
 16 15  1  0
 17 14  1  0
 18 17  2  0
 19 17  1  0
M  END
$$$$
