AVC.pdb
     RDKit          3D

 19 18  0  0  1  0  0  0  0  0999 V2000
    6.4354  -18.0158   23.6145 C   0  0  0  0  0  0  0  0  0  0  0  0
    6.5787  -16.6450   23.0005 C   0  0  2  0  0  0  0  0  0  0  0  0
    7.0188  -16.6672   21.6482 N   0  0  0  0  0  0  0  0  0  0  0  0
    7.4585  -15.7626   23.7982 C   0  0  0  0  0  0  0  0  0  0  0  0
    8.6805  -15.6012   23.5392 O   0  0  0  0  0  0  0  0  0  0  0  0
    6.2883  -12.2912   25.2683 C   0  0  0  0  0  0  0  0  0  0  0  0
    6.7440  -13.2195   26.3764 C   0  0  2  0  0  0  0  0  0  0  0  0
    7.3335  -12.3981   27.4668 C   0  0  0  0  0  0  0  0  0  0  0  0
    7.6359  -14.2701   25.8153 C   0  0  2  0  0  0  0  0  0  0  0  0
    6.8742  -15.0799   24.8982 N   0  0  0  0  0  0  0  0  0  0  0  0
    8.3085  -15.1272   26.7702 C   0  0  0  0  0  0  0  0  0  0  0  0
    7.7740  -16.0652   27.4197 O   0  0  0  0  0  0  0  0  0  0  0  0
    9.6936  -14.9311   27.0309 N   0  0  0  0  0  0  0  0  0  0  0  0
   10.4624  -15.8657   27.8313 C   0  0  1  0  0  0  0  0  0  0  0  0
   11.8445  -16.0890   27.2722 C   0  0  0  0  0  0  0  0  0  0  0  0
   12.6718  -14.5652   26.8120 S   0  0  0  0  0  0  0  0  0  0  0  0
   10.5614  -15.3679   29.2130 C   0  0  0  0  0  0  0  0  0  0  0  0
   10.9923  -16.1112   30.1373 O   0  0  0  0  0  0  0  0  0  0  0  0
   10.1947  -14.0841   29.5652 O   0  0  0  0  0  0  0  0  0  0  0  0
  2  1  1  1
  2  3  1  0
  4  2  1  0
  5  4  2  0
  7  6  1  6
  7  9  1  0
  8  7  1  0
  9 10  1  6
 10  4  1  0
 11  9  1  0
 11 12  2  0
 13 14  1  0
 13 11  1  0
 14 15  1  6
 16 15  1  0
 17 14  1  0
 18 17  2  0
 19 17  1  0
M  END
$$$$
