AVC.pdb
     RDKit          3D

 19 18  0  0  1  0  0  0  0  0999 V2000
    7.9376  -18.5859   17.6840 C   0  0  0  0  0  0  0  0  0  0  0  0
    8.5531  -17.2590   17.3133 C   0  0  2  0  0  0  0  0  0  0  0  0
    9.5682  -17.3564   16.3219 N   0  0  0  0  0  0  0  0  0  0  0  0
    9.0742  -16.5337   18.4930 C   0  0  0  0  0  0  0  0  0  0  0  0
   10.2917  -16.5394   18.8156 O   0  0  0  0  0  0  0  0  0  0  0  0
    7.4233  -13.0523   19.2827 C   0  0  0  0  0  0  0  0  0  0  0  0
    7.4966  -13.8954   20.5402 C   0  0  2  0  0  0  0  0  0  0  0  0
    7.6943  -12.9904   21.7034 C   0  0  0  0  0  0  0  0  0  0  0  0
    8.5274  -14.9554   20.3738 C   0  0  2  0  0  0  0  0  0  0  0  0
    8.1395  -15.8077   19.2782 N   0  0  0  0  0  0  0  0  0  0  0  0
    8.8150  -15.7684   21.5379 C   0  0  0  0  0  0  0  0  0  0  0  0
    8.1078  -16.7210   21.9620 O   0  0  0  0  0  0  0  0  0  0  0  0
    9.9870  -15.5063   22.3011 N   0  0  0  0  0  0  0  0  0  0  0  0
   10.3614  -16.3278   23.4370 C   0  0  1  0  0  0  0  0  0  0  0  0
   11.8512  -16.3333   23.6674 C   0  0  0  0  0  0  0  0  0  0  0  0
   12.7873  -16.7856   22.2055 S   0  0  0  0  0  0  0  0  0  0  0  0
    9.6751  -15.8424   24.6453 C   0  0  0  0  0  0  0  0  0  0  0  0
    9.0116  -14.7693   24.6234 O   0  0  0  0  0  0  0  0  0  0  0  0
    9.7199  -16.5233   25.8458 O   0  0  0  0  0  0  0  0  0  0  0  0
  2  1  1  1
  2  3  1  0
  4  2  1  0
  5  4  2  0
  7  6  1  6
  7  9  1  0
  8  7  1  0
  9 10  1  6
 10  4  1  0
 11  9  1  0
 11 12  2  0
 13 14  1  0
 13 11  1  0
 14 15  1  1
 16 15  1  0
 17 14  1  0
 18 17  2  0
 19 17  1  0
M  END
$$$$
