AVC.pdb
     RDKit          3D

 19 18  0  0  1  0  0  0  0  0999 V2000
    8.2313  -18.8292   18.1668 C   0  0  0  0  0  0  0  0  0  0  0  0
    8.7041  -17.4734   17.7030 C   0  0  2  0  0  0  0  0  0  0  0  0
    9.6926  -17.5308   16.6820 N   0  0  0  0  0  0  0  0  0  0  0  0
    9.1890  -16.6357   18.8220 C   0  0  0  0  0  0  0  0  0  0  0  0
   10.3956  -16.6085   19.1822 O   0  0  0  0  0  0  0  0  0  0  0  0
    7.5615  -13.0534   19.4183 C   0  0  0  0  0  0  0  0  0  0  0  0
    7.5419  -13.8893   20.6825 C   0  0  2  0  0  0  0  0  0  0  0  0
    7.6676  -12.9789   21.8515 C   0  0  0  0  0  0  0  0  0  0  0  0
    8.5727  -14.9586   20.5926 C   0  0  2  0  0  0  0  0  0  0  0  0
    8.2313  -15.8374   19.5025 N   0  0  0  0  0  0  0  0  0  0  0  0
    8.8000  -15.7422   21.7898 C   0  0  0  0  0  0  0  0  0  0  0  0
    8.0657  -16.6773   22.2065 O   0  0  0  0  0  0  0  0  0  0  0  0
    9.9388  -15.4688   22.5981 N   0  0  0  0  0  0  0  0  0  0  0  0
   10.2449  -16.2521   23.7805 C   0  0  1  0  0  0  0  0  0  0  0  0
   11.7277  -16.4590   23.9563 C   0  0  0  0  0  0  0  0  0  0  0  0
   12.5332  -17.0701   22.4745 S   0  0  0  0  0  0  0  0  0  0  0  0
    9.6932  -15.5853   24.9712 C   0  0  0  0  0  0  0  0  0  0  0  0
    9.2271  -14.4150   24.8976 O   0  0  0  0  0  0  0  0  0  0  0  0
    9.6569  -16.1941   26.2101 O   0  0  0  0  0  0  0  0  0  0  0  0
  2  1  1  1
  2  3  1  0
  4  2  1  0
  5  4  2  0
  7  6  1  6
  7  9  1  0
  8  7  1  0
  9 10  1  6
 10  4  1  0
 11  9  1  0
 11 12  2  0
 13 14  1  0
 13 11  1  0
 14 15  1  1
 16 15  1  0
 17 14  1  0
 18 17  2  0
 19 17  1  0
M  END
$$$$
