GDP.pdb
     RDKit          3D

 20 20  0  0  1  0  0  0  0  0999 V2000
    6.5809  -19.8315   24.1652 N   0  0  0  0  0  0  0  0  0  0  0  0
    6.0484  -18.5442   23.8321 C   0  0  0  0  0  0  0  0  0  0  0  0
    7.1186  -17.4738   23.9386 C   0  0  0  0  0  0  0  0  0  0  0  0
    8.1737  -17.7811   24.5330 O   0  0  0  0  0  0  0  0  0  0  0  0
    6.8999  -16.2037   23.3816 N   0  0  0  0  0  0  0  0  0  0  0  0
    7.7462  -15.0561   23.3621 C   0  0  1  0  0  0  0  0  0  0  0  0
    7.6407  -14.1133   22.2404 C   0  0  0  0  0  0  0  0  0  0  0  0
    8.0139  -14.7950   20.9407 C   0  0  0  0  0  0  0  0  0  0  0  0
    7.2394  -15.5190   20.2850 O   0  0  0  0  0  0  0  0  0  0  0  0
    8.0809  -14.6258   24.6964 C   0  0  0  0  0  0  0  0  0  0  0  0
    8.8640  -15.4512   25.3447 O   0  0  0  0  0  0  0  0  0  0  0  0
    9.2960  -14.5829   20.4811 O   0  0  0  0  0  0  0  0  0  0  0  0
    7.7331  -13.4875   25.4416 N   0  0  0  0  0  0  0  0  0  0  0  0
    7.0113  -12.3389   24.8600 C   0  0  0  0  0  0  0  0  0  0  0  0
    5.9816  -12.0048   25.9543 C   0  0  0  0  0  0  0  0  0  0  0  0
    6.3265  -12.9135   27.1301 C   0  0  0  0  0  0  0  0  0  0  0  0
    7.8278  -13.1462   26.8267 C   0  0  1  0  0  0  0  0  0  0  0  0
    8.3937  -14.0401   27.7966 C   0  0  0  0  0  0  0  0  0  0  0  0
    8.0542  -15.4242   27.5928 O   0  0  0  0  0  0  0  0  0  0  0  0
    9.1188  -13.8621   28.7787 O   0  0  0  0  0  0  0  0  0  0  0  0
  1  2  1  0
  3  4  2  0
  3  2  1  0
  5  3  1  0
  6  5  1  0
  6  7  1  1
  7  8  1  0
  8  9  2  0
  8 12  1  0
 10  6  1  0
 11 10  2  0
 13 10  1  0
 13 17  1  0
 14 15  1  0
 14 13  1  0
 15 16  1  0
 16 17  1  0
 18 19  1  0
 17 18  1  1
 20 18  2  0
M  END
$$$$
