GDP.pdb
     RDKit          3D

 20 20  0  0  1  0  0  0  0  0999 V2000
    7.7922  -12.3178   19.5035 N   0  0  0  0  0  0  0  0  0  0  0  0
    8.3700  -13.5208   20.0239 C   0  0  0  0  0  0  0  0  0  0  0  0
    7.6019  -14.0063   21.2391 C   0  0  0  0  0  0  0  0  0  0  0  0
    6.3865  -13.7222   21.2950 O   0  0  0  0  0  0  0  0  0  0  0  0
    8.2597  -14.7408   22.2386 N   0  0  0  0  0  0  0  0  0  0  0  0
    7.7286  -15.4085   23.3814 C   0  0  1  0  0  0  0  0  0  0  0  0
    7.2855  -16.8028   23.2486 C   0  0  0  0  0  0  0  0  0  0  0  0
    6.7759  -17.3237   24.5761 C   0  0  0  0  0  0  0  0  0  0  0  0
    7.4885  -17.9052   25.4174 O   0  0  0  0  0  0  0  0  0  0  0  0
    8.3006  -14.8988   24.6023 C   0  0  0  0  0  0  0  0  0  0  0  0
    9.2485  -15.6501   25.1042 O   0  0  0  0  0  0  0  0  0  0  0  0
    5.4373  -17.1278   24.8406 O   0  0  0  0  0  0  0  0  0  0  0  0
    8.0423  -13.7467   25.3626 N   0  0  0  0  0  0  0  0  0  0  0  0
    7.4181  -12.5356   24.7950 C   0  0  0  0  0  0  0  0  0  0  0  0
    6.4135  -12.1349   25.8904 C   0  0  0  0  0  0  0  0  0  0  0  0
    6.6786  -13.0850   27.0542 C   0  0  0  0  0  0  0  0  0  0  0  0
    8.1576  -13.4337   26.7528 C   0  0  1  0  0  0  0  0  0  0  0  0
    8.6451  -14.3839   27.7117 C   0  0  0  0  0  0  0  0  0  0  0  0
    9.4272  -13.8043   28.7723 O   0  0  0  0  0  0  0  0  0  0  0  0
    8.5292  -15.6079   27.8129 O   0  0  0  0  0  0  0  0  0  0  0  0
  1  2  1  0
  3  4  2  0
  3  2  1  0
  5  3  1  0
  6  5  1  0
  6  7  1  6
  7  8  1  0
  8  9  2  0
  8 12  1  0
 10  6  1  0
 11 10  2  0
 13 10  1  0
 13 17  1  0
 14 15  1  0
 14 13  1  0
 15 16  1  0
 16 17  1  0
 18 19  1  0
 17 18  1  1
 20 18  2  0
M  END
$$$$
