GDP.pdb
     RDKit          3D

 20 20  0  0  1  0  0  0  0  0999 V2000
    6.8077  -12.6310   19.1579 N   0  0  0  0  0  0  0  0  0  0  0  0
    7.9544  -12.8834   19.9783 C   0  0  0  0  0  0  0  0  0  0  0  0
    7.6063  -13.8239   21.1170 C   0  0  0  0  0  0  0  0  0  0  0  0
    6.4442  -14.2820   21.1419 O   0  0  0  0  0  0  0  0  0  0  0  0
    8.5728  -14.1446   22.0838 N   0  0  0  0  0  0  0  0  0  0  0  0
    8.5139  -15.0776   23.1606 C   0  0  1  0  0  0  0  0  0  0  0  0
    8.8367  -16.4868   22.8995 C   0  0  0  0  0  0  0  0  0  0  0  0
    8.7564  -17.2928   24.1790 C   0  0  0  0  0  0  0  0  0  0  0  0
    7.7067  -17.8017   24.6184 O   0  0  0  0  0  0  0  0  0  0  0  0
    8.8069  -14.4450   24.4222 C   0  0  0  0  0  0  0  0  0  0  0  0
    9.9512  -14.8037   24.9483 O   0  0  0  0  0  0  0  0  0  0  0  0
    9.9331  -17.4555   24.8782 O   0  0  0  0  0  0  0  0  0  0  0  0
    8.1042  -13.5119   25.2016 N   0  0  0  0  0  0  0  0  0  0  0  0
    7.2549  -12.4565   24.6157 C   0  0  0  0  0  0  0  0  0  0  0  0
    6.0134  -12.4858   25.5253 C   0  0  0  0  0  0  0  0  0  0  0  0
    6.3514  -13.4649   26.6454 C   0  0  0  0  0  0  0  0  0  0  0  0
    7.8962  -13.3555   26.6074 C   0  0  1  0  0  0  0  0  0  0  0  0
    8.4772  -14.2483   27.5694 C   0  0  0  0  0  0  0  0  0  0  0  0
    8.8626  -13.6164   28.8041 O   0  0  0  0  0  0  0  0  0  0  0  0
    8.7157  -15.4586   27.5533 O   0  0  0  0  0  0  0  0  0  0  0  0
  1  2  1  0
  3  4  2  0
  3  2  1  0
  5  3  1  0
  6  5  1  0
  6  7  1  6
  7  8  1  0
  8  9  2  0
  8 12  1  0
 10  6  1  0
 11 10  2  0
 13 10  1  0
 13 17  1  0
 14 15  1  0
 14 13  1  0
 15 16  1  0
 16 17  1  0
 18 19  1  0
 17 18  1  1
 20 18  2  0
M  END
$$$$
