GDP.pdb
     RDKit          3D

 20 20  0  0  1  0  0  0  0  0999 V2000
    7.6279  -12.5559   19.5995 N   0  0  0  0  0  0  0  0  0  0  0  0
    8.4762  -13.4482   20.3314 C   0  0  0  0  0  0  0  0  0  0  0  0
    7.8936  -13.7446   21.7008 C   0  0  0  0  0  0  0  0  0  0  0  0
    7.5141  -12.7680   22.3814 O   0  0  0  0  0  0  0  0  0  0  0  0
    7.7996  -15.0708   22.1522 N   0  0  0  0  0  0  0  0  0  0  0  0
    7.3803  -15.5782   23.4173 C   0  0  1  0  0  0  0  0  0  0  0  0
    6.9122  -16.9677   23.5068 C   0  0  0  0  0  0  0  0  0  0  0  0
    6.5538  -17.3131   24.9370 C   0  0  0  0  0  0  0  0  0  0  0  0
    7.1181  -18.2036   25.6022 O   0  0  0  0  0  0  0  0  0  0  0  0
    8.0779  -14.9328   24.5010 C   0  0  0  0  0  0  0  0  0  0  0  0
    9.1949  -15.5230   24.8458 O   0  0  0  0  0  0  0  0  0  0  0  0
    5.5367  -16.5804   25.5103 O   0  0  0  0  0  0  0  0  0  0  0  0
    7.7957  -13.7872   25.2625 N   0  0  0  0  0  0  0  0  0  0  0  0
    6.9464  -12.6859   24.7683 C   0  0  0  0  0  0  0  0  0  0  0  0
    6.0772  -12.3597   25.9961 C   0  0  0  0  0  0  0  0  0  0  0  0
    6.6321  -13.2184   27.1284 C   0  0  0  0  0  0  0  0  0  0  0  0
    8.0802  -13.4009   26.6093 C   0  0  1  0  0  0  0  0  0  0  0  0
    8.8222  -14.2424   27.5046 C   0  0  0  0  0  0  0  0  0  0  0  0
    9.7450  -13.5338   28.3524 O   0  0  0  0  0  0  0  0  0  0  0  0
    8.8301  -15.4609   27.6973 O   0  0  0  0  0  0  0  0  0  0  0  0
  1  2  1  0
  3  4  2  0
  3  2  1  0
  5  3  1  0
  6  5  1  0
  6  7  1  6
  7  8  1  0
  8  9  2  0
  8 12  1  0
 10  6  1  0
 11 10  2  0
 13 10  1  0
 13 17  1  0
 14 15  1  0
 14 13  1  0
 15 16  1  0
 16 17  1  0
 18 19  1  0
 17 18  1  1
 20 18  2  0
M  END
$$$$
