GDP.pdb
     RDKit          3D

 20 20  0  0  1  0  0  0  0  0999 V2000
    9.1704  -14.4740   13.5021 N   0  0  0  0  0  0  0  0  0  0  0  0
    9.4199  -15.5516   14.4121 C   0  0  0  0  0  0  0  0  0  0  0  0
    8.7094  -15.3181   15.7323 C   0  0  0  0  0  0  0  0  0  0  0  0
    8.1714  -14.2029   15.8997 O   0  0  0  0  0  0  0  0  0  0  0  0
    8.6767  -16.3333   16.7018 N   0  0  0  0  0  0  0  0  0  0  0  0
    8.1264  -16.3235   18.0173 C   0  0  1  0  0  0  0  0  0  0  0  0
    7.2741  -17.4427   18.4403 C   0  0  0  0  0  0  0  0  0  0  0  0
    7.0943  -18.4282   17.3046 C   0  0  0  0  0  0  0  0  0  0  0  0
    6.1976  -18.3437   16.4429 O   0  0  0  0  0  0  0  0  0  0  0  0
    8.9802  -15.6186   18.9402 C   0  0  0  0  0  0  0  0  0  0  0  0
   10.0870  -16.2525   19.2369 O   0  0  0  0  0  0  0  0  0  0  0  0
    7.9930  -19.4719   17.2481 O   0  0  0  0  0  0  0  0  0  0  0  0
    8.8598  -14.3771   19.5853 N   0  0  0  0  0  0  0  0  0  0  0  0
    8.3585  -13.1665   18.9059 C   0  0  0  0  0  0  0  0  0  0  0  0
    7.4220  -12.5553   19.9638 C   0  0  0  0  0  0  0  0  0  0  0  0
    7.6049  -13.4110   21.2135 C   0  0  0  0  0  0  0  0  0  0  0  0
    9.0327  -13.9449   20.9371 C   0  0  1  0  0  0  0  0  0  0  0  0
    9.4330  -14.8447   21.9813 C   0  0  0  0  0  0  0  0  0  0  0  0
    8.8071  -16.1396   21.9170 O   0  0  0  0  0  0  0  0  0  0  0  0
   10.2116  -14.7332   22.9316 O   0  0  0  0  0  0  0  0  0  0  0  0
  1  2  1  0
  3  4  2  0
  3  2  1  0
  5  3  1  0
  6  5  1  0
  6  7  1  1
  7  8  1  0
  8  9  2  0
  8 12  1  0
 10  6  1  0
 11 10  2  0
 13 10  1  0
 13 17  1  0
 14 15  1  0
 14 13  1  0
 15 16  1  0
 16 17  1  0
 18 19  1  0
 17 18  1  1
 20 18  2  0
M  END
$$$$
