GDP.pdb
     RDKit          3D

 20 20  0  0  1  0  0  0  0  0999 V2000
    7.4992  -12.5689   18.3786 N   0  0  0  0  0  0  0  0  0  0  0  0
    8.4685  -12.8669   19.3902 C   0  0  0  0  0  0  0  0  0  0  0  0
    7.8865  -13.7986   20.4370 C   0  0  0  0  0  0  0  0  0  0  0  0
    6.8595  -14.4371   20.1228 O   0  0  0  0  0  0  0  0  0  0  0  0
    8.5012  -13.9144   21.6941 N   0  0  0  0  0  0  0  0  0  0  0  0
    8.6170  -15.0460   22.5541 C   0  0  1  0  0  0  0  0  0  0  0  0
    9.0537  -16.3288   21.9871 C   0  0  0  0  0  0  0  0  0  0  0  0
    8.9745  -17.4223   23.0318 C   0  0  0  0  0  0  0  0  0  0  0  0
    7.9390  -18.0661   23.2909 O   0  0  0  0  0  0  0  0  0  0  0  0
    8.9443  -14.6522   23.9015 C   0  0  0  0  0  0  0  0  0  0  0  0
   10.1039  -15.0925   24.3215 O   0  0  0  0  0  0  0  0  0  0  0  0
   10.1353  -17.6987   23.7218 O   0  0  0  0  0  0  0  0  0  0  0  0
    8.2620  -13.8821   24.8573 N   0  0  0  0  0  0  0  0  0  0  0  0
    7.4481  -12.7029   24.5033 C   0  0  0  0  0  0  0  0  0  0  0  0
    6.1986  -12.8848   25.3837 C   0  0  0  0  0  0  0  0  0  0  0  0
    6.4991  -14.0860   26.2749 C   0  0  0  0  0  0  0  0  0  0  0  0
    8.0467  -14.0170   26.2642 C   0  0  1  0  0  0  0  0  0  0  0  0
    8.5937  -15.1081   27.0194 C   0  0  0  0  0  0  0  0  0  0  0  0
    9.0373  -14.7478   28.3408 O   0  0  0  0  0  0  0  0  0  0  0  0
    8.7628  -16.3031   26.7642 O   0  0  0  0  0  0  0  0  0  0  0  0
  1  2  1  0
  3  4  2  0
  3  2  1  0
  5  3  1  0
  6  5  1  0
  6  7  1  6
  7  8  1  0
  8  9  2  0
  8 12  1  0
 10  6  1  0
 11 10  2  0
 13 10  1  0
 13 17  1  0
 14 15  1  0
 14 13  1  0
 15 16  1  0
 16 17  1  0
 18 19  1  0
 17 18  1  6
 20 18  2  0
M  END
$$$$
