GDP.pdb
     RDKit          3D

 20 20  0  0  1  0  0  0  0  0999 V2000
   12.2337  -20.9730   31.6358 N   0  0  0  0  0  0  0  0  0  0  0  0
   11.4007  -20.5804   30.5387 C   0  0  0  0  0  0  0  0  0  0  0  0
   11.9734  -19.3642   29.8349 C   0  0  0  0  0  0  0  0  0  0  0  0
   13.1666  -19.0789   30.0717 O   0  0  0  0  0  0  0  0  0  0  0  0
   11.1694  -18.6145   28.9614 N   0  0  0  0  0  0  0  0  0  0  0  0
   11.5202  -17.9165   27.7683 C   0  0  1  0  0  0  0  0  0  0  0  0
   12.5112  -18.5112   26.8615 C   0  0  0  0  0  0  0  0  0  0  0  0
   12.9444  -17.5027   25.8182 C   0  0  0  0  0  0  0  0  0  0  0  0
   12.5471  -17.5066   24.6367 O   0  0  0  0  0  0  0  0  0  0  0  0
   10.4245  -17.1136   27.2864 C   0  0  0  0  0  0  0  0  0  0  0  0
    9.7783  -17.6401   26.2764 O   0  0  0  0  0  0  0  0  0  0  0  0
   13.8338  -16.5340   26.2313 O   0  0  0  0  0  0  0  0  0  0  0  0
    9.9083  -15.8718   27.6909 N   0  0  0  0  0  0  0  0  0  0  0  0
    9.9592  -15.3999   29.0885 C   0  0  0  0  0  0  0  0  0  0  0  0
   10.3696  -13.9251   28.9266 C   0  0  0  0  0  0  0  0  0  0  0  0
   10.3627  -13.6624   27.4239 C   0  0  0  0  0  0  0  0  0  0  0  0
    9.3548  -14.7557   26.9895 C   0  0  1  0  0  0  0  0  0  0  0  0
    9.2052  -14.7488   25.5620 C   0  0  0  0  0  0  0  0  0  0  0  0
    8.0270  -14.0660   25.0951 O   0  0  0  0  0  0  0  0  0  0  0  0
    9.8873  -15.2133   24.6450 O   0  0  0  0  0  0  0  0  0  0  0  0
  1  2  1  0
  3  4  2  0
  3  2  1  0
  5  3  1  0
  6  5  1  0
  6  7  1  6
  7  8  1  0
  8  9  2  0
  8 12  1  0
 10  6  1  0
 11 10  2  0
 13 10  1  0
 13 17  1  0
 14 15  1  0
 14 13  1  0
 15 16  1  0
 16 17  1  0
 18 19  1  0
 17 18  1  6
 20 18  2  0
M  END
$$$$
