GDP.pdb
     RDKit          3D

 20 20  0  0  1  0  0  0  0  0999 V2000
    7.7280  -12.5148   19.2675 N   0  0  0  0  0  0  0  0  0  0  0  0
    8.4908  -13.3964   20.0997 C   0  0  0  0  0  0  0  0  0  0  0  0
    7.6492  -13.9138   21.2514 C   0  0  0  0  0  0  0  0  0  0  0  0
    6.4591  -13.5366   21.3010 O   0  0  0  0  0  0  0  0  0  0  0  0
    8.2151  -14.7780   22.2023 N   0  0  0  0  0  0  0  0  0  0  0  0
    7.6429  -15.3406   23.3812 C   0  0  1  0  0  0  0  0  0  0  0  0
    7.1508  -16.7241   23.3426 C   0  0  0  0  0  0  0  0  0  0  0  0
    6.7796  -17.1917   24.7343 C   0  0  0  0  0  0  0  0  0  0  0  0
    7.6100  -17.4880   25.6154 O   0  0  0  0  0  0  0  0  0  0  0  0
    8.2149  -14.7632   24.5715 C   0  0  0  0  0  0  0  0  0  0  0  0
    9.3123  -15.3509   24.9778 O   0  0  0  0  0  0  0  0  0  0  0  0
    5.4328  -17.2855   25.0127 O   0  0  0  0  0  0  0  0  0  0  0  0
    7.8266  -13.6861   25.3847 N   0  0  0  0  0  0  0  0  0  0  0  0
    7.0280  -12.5508   24.8830 C   0  0  0  0  0  0  0  0  0  0  0  0
    6.0120  -12.3315   26.0185 C   0  0  0  0  0  0  0  0  0  0  0  0
    6.4378  -13.2794   27.1354 C   0  0  0  0  0  0  0  0  0  0  0  0
    7.9405  -13.4124   26.7833 C   0  0  1  0  0  0  0  0  0  0  0  0
    8.5804  -14.3227   27.6900 C   0  0  0  0  0  0  0  0  0  0  0  0
    9.3354  -13.6821   28.7350 O   0  0  0  0  0  0  0  0  0  0  0  0
    8.6153  -15.5541   27.7566 O   0  0  0  0  0  0  0  0  0  0  0  0
  1  2  1  0
  3  4  2  0
  3  2  1  0
  5  3  1  0
  6  5  1  0
  6  7  1  1
  7  8  1  0
  8  9  2  0
  8 12  1  0
 10  6  1  0
 11 10  2  0
 13 10  1  0
 13 17  1  0
 14 15  1  0
 14 13  1  0
 15 16  1  0
 16 17  1  0
 18 19  1  0
 17 18  1  1
 20 18  2  0
M  END
$$$$
