GDP.pdb
     RDKit          3D

 20 20  0  0  1  0  0  0  0  0999 V2000
    7.7890  -13.6920   15.8722 N   0  0  0  0  0  0  0  0  0  0  0  0
    8.3102  -13.4254   17.1795 C   0  0  0  0  0  0  0  0  0  0  0  0
    8.3761  -14.6978   18.0036 C   0  0  0  0  0  0  0  0  0  0  0  0
    7.5167  -15.5736   17.7681 O   0  0  0  0  0  0  0  0  0  0  0  0
    9.3732  -14.8515   18.9801 N   0  0  0  0  0  0  0  0  0  0  0  0
    9.6030  -15.9246   19.8907 C   0  0  1  0  0  0  0  0  0  0  0  0
   10.1294  -17.1953   19.3745 C   0  0  0  0  0  0  0  0  0  0  0  0
   10.1198  -18.2509   20.4602 C   0  0  0  0  0  0  0  0  0  0  0  0
    9.0956  -18.8505   20.8414 O   0  0  0  0  0  0  0  0  0  0  0  0
    9.9305  -15.4374   21.2071 C   0  0  0  0  0  0  0  0  0  0  0  0
   11.2065  -15.4925   21.4966 O   0  0  0  0  0  0  0  0  0  0  0  0
   11.3338  -18.5438   21.0438 O   0  0  0  0  0  0  0  0  0  0  0  0
    9.1465  -14.9092   22.2456 N   0  0  0  0  0  0  0  0  0  0  0  0
    8.1722  -13.8199   22.0393 C   0  0  0  0  0  0  0  0  0  0  0  0
    6.9626  -14.2952   22.8644 C   0  0  0  0  0  0  0  0  0  0  0  0
    7.4327  -15.5518   23.5906 C   0  0  0  0  0  0  0  0  0  0  0  0
    8.9546  -15.2636   23.6173 C   0  0  1  0  0  0  0  0  0  0  0  0
    9.6528  -16.3587   24.2281 C   0  0  0  0  0  0  0  0  0  0  0  0
   10.5853  -15.9668   25.2524 O   0  0  0  0  0  0  0  0  0  0  0  0
    9.6162  -17.5793   24.0522 O   0  0  0  0  0  0  0  0  0  0  0  0
  1  2  1  0
  3  4  2  0
  3  2  1  0
  5  3  1  0
  6  5  1  0
  6  7  1  6
  7  8  1  0
  8  9  2  0
  8 12  1  0
 10  6  1  0
 11 10  2  0
 13 10  1  0
 13 17  1  0
 14 15  1  0
 14 13  1  0
 15 16  1  0
 16 17  1  0
 18 19  1  0
 17 18  1  6
 20 18  2  0
M  END
$$$$
