GDP.pdb
     RDKit          3D

 20 20  0  0  1  0  0  0  0  0999 V2000
    7.8886  -12.8677   18.6865 N   0  0  0  0  0  0  0  0  0  0  0  0
    8.6120  -13.1667   19.8860 C   0  0  0  0  0  0  0  0  0  0  0  0
    7.7365  -13.9199   20.8702 C   0  0  0  0  0  0  0  0  0  0  0  0
    6.7229  -14.4882   20.4112 O   0  0  0  0  0  0  0  0  0  0  0  0
    8.0803  -13.9566   22.2311 N   0  0  0  0  0  0  0  0  0  0  0  0
    7.6833  -14.8722   23.2497 C   0  0  1  0  0  0  0  0  0  0  0  0
    7.4997  -16.2876   22.9019 C   0  0  0  0  0  0  0  0  0  0  0  0
    6.9931  -17.0642   24.0991 C   0  0  0  0  0  0  0  0  0  0  0  0
    7.6900  -17.8567   24.7626 O   0  0  0  0  0  0  0  0  0  0  0  0
    8.1580  -14.4565   24.5457 C   0  0  0  0  0  0  0  0  0  0  0  0
    9.1755  -15.1501   24.9912 O   0  0  0  0  0  0  0  0  0  0  0  0
    5.6760  -16.8611   24.4513 O   0  0  0  0  0  0  0  0  0  0  0  0
    7.7437  -13.4463   25.4287 N   0  0  0  0  0  0  0  0  0  0  0  0
    6.9132  -12.3023   25.0044 C   0  0  0  0  0  0  0  0  0  0  0  0
    5.8957  -12.1859   26.1536 C   0  0  0  0  0  0  0  0  0  0  0  0
    6.3506  -13.1935   27.2048 C   0  0  0  0  0  0  0  0  0  0  0  0
    7.8551  -13.2623   26.8422 C   0  0  1  0  0  0  0  0  0  0  0  0
    8.5223  -14.2127   27.6857 C   0  0  0  0  0  0  0  0  0  0  0  0
    8.3413  -15.5845   27.2881 O   0  0  0  0  0  0  0  0  0  0  0  0
    9.2261  -14.0922   28.6918 O   0  0  0  0  0  0  0  0  0  0  0  0
  1  2  1  0
  3  4  2  0
  3  2  1  0
  5  3  1  0
  6  5  1  0
  6  7  1  6
  7  8  1  0
  8  9  2  0
  8 12  1  0
 10  6  1  0
 11 10  2  0
 13 10  1  0
 13 17  1  0
 14 15  1  0
 14 13  1  0
 15 16  1  0
 16 17  1  0
 18 19  1  0
 17 18  1  1
 20 18  2  0
M  END
$$$$
