LNI.pdb
     RDKit          3D

 25 24  0  0  1  0  0  0  0  0999 V2000
   26.4775  -33.2233   -3.0827 C   0  0  0  0  0  0  0  0  0  0  0  0
   25.4041  -32.2631   -2.6183 C   0  0  2  0  0  0  0  0  0  0  0  0
   25.9020  -30.8674   -2.9468 C   0  0  0  0  0  0  0  0  0  0  0  0
   25.1434  -32.3618   -1.1443 C   0  0  0  0  0  0  0  0  0  0  0  0
   24.6455  -33.7009   -0.7180 C   0  0  2  0  0  0  0  0  0  0  0  0
   23.5038  -34.1452   -1.4766 N   0  0  0  0  0  0  0  0  0  0  0  0
   24.2678  -33.6890    0.7473 C   0  0  0  0  0  0  0  0  0  0  0  0
   23.1203  -33.3011    1.0847 O   0  0  0  0  0  0  0  0  0  0  0  0
   26.4387  -37.5547    3.2446 N   0  0  0  0  0  0  0  0  0  0  0  0
   25.4657  -36.5425    3.3883 C   0  0  0  0  0  0  0  0  0  0  0  0
   24.2644  -36.8404    3.0508 O   0  0  0  0  0  0  0  0  0  0  0  0
   25.7954  -35.1792    3.9072 C   0  0  0  0  0  0  0  0  0  0  0  0
   25.0160  -34.1315    3.1452 C   0  0  2  0  0  0  0  0  0  0  0  0
   25.1708  -34.1019    1.7402 N   0  0  0  0  0  0  0  0  0  0  0  0
   24.9095  -32.8292    3.8040 C   0  0  0  0  0  0  0  0  0  0  0  0
   25.8356  -32.0011    3.5822 O   0  0  0  0  0  0  0  0  0  0  0  0
   20.8314  -29.5025    3.5908 C   0  0  0  0  0  0  0  0  0  0  0  0
   22.1576  -30.2019    3.7383 C   0  0  0  0  0  0  0  0  0  0  0  0
   22.5847  -30.3611    5.1735 C   0  0  2  0  0  0  0  0  0  0  0  0
   22.6151  -29.0173    5.8898 C   0  0  0  0  0  0  0  0  0  0  0  0
   23.8448  -31.1322    5.3545 C   0  0  2  0  0  0  0  0  0  0  0  0
   23.8770  -32.3928    4.6664 N   0  0  0  0  0  0  0  0  0  0  0  0
   24.3192  -31.1838    6.7413 C   0  0  0  0  0  0  0  0  0  0  0  0
   25.1127  -30.2198    7.3383 O   0  0  0  0  0  0  0  0  0  0  0  0
   23.9948  -32.1700    7.4651 O   0  0  0  0  0  0  0  0  0  0  0  0
  2  1  1  1
  3  2  1  0
  4  2  1  0
  5  4  1  0
  5  6  1  6
  7  5  1  0
  7  8  2  0
 10 12  1  0
 10  9  1  0
 11 10  2  0
 13 12  1  1
 13 14  1  0
 14  7  1  0
 15 13  1  0
 16 15  2  0
 18 19  1  0
 18 17  1  0
 19 21  1  0
 19 20  1  6
 21 22  1  1
 21 23  1  0
 22 15  1  0
 23 24  1  0
 25 23  2  0
M  END
$$$$
