LNI.pdb
     RDKit          3D

 25 24  0  0  1  0  0  0  0  0999 V2000
   27.8201  -19.9723  -16.2664 C   0  0  0  0  0  0  0  0  0  0  0  0
   26.3861  -20.0835  -15.7961 C   0  0  2  0  0  0  0  0  0  0  0  0
   25.5310  -19.4144  -16.8567 C   0  0  0  0  0  0  0  0  0  0  0  0
   26.1596  -19.4056  -14.4771 C   0  0  0  0  0  0  0  0  0  0  0  0
   27.0865  -19.8687  -13.4051 C   0  0  2  0  0  0  0  0  0  0  0  0
   27.1312  -21.3035  -13.2800 N   0  0  0  0  0  0  0  0  0  0  0  0
   26.6883  -19.2866  -12.0662 C   0  0  0  0  0  0  0  0  0  0  0  0
   26.0973  -18.1775  -12.0277 O   0  0  0  0  0  0  0  0  0  0  0  0
   22.7087  -20.1500   -8.6520 N   0  0  0  0  0  0  0  0  0  0  0  0
   23.9091  -20.8650   -8.8510 C   0  0  0  0  0  0  0  0  0  0  0  0
   24.2891  -21.6371   -7.8995 O   0  0  0  0  0  0  0  0  0  0  0  0
   24.7175  -20.7448  -10.1034 C   0  0  0  0  0  0  0  0  0  0  0  0
   26.1092  -20.2519   -9.7774 C   0  0  2  0  0  0  0  0  0  0  0  0
   26.9645  -19.9578  -10.8640 N   0  0  0  0  0  0  0  0  0  0  0  0
   26.7416  -20.8850   -8.6195 C   0  0  0  0  0  0  0  0  0  0  0  0
   26.5730  -22.1287   -8.4875 O   0  0  0  0  0  0  0  0  0  0  0  0
   29.8556  -17.7405   -5.0994 C   0  0  0  0  0  0  0  0  0  0  0  0
   29.3730  -18.9066   -5.9223 C   0  0  0  0  0  0  0  0  0  0  0  0
   28.1493  -19.5690   -5.3466 C   0  0  2  0  0  0  0  0  0  0  0  0
   28.4179  -20.0934   -3.9422 C   0  0  0  0  0  0  0  0  0  0  0  0
   27.5370  -20.5972   -6.2317 C   0  0  2  0  0  0  0  0  0  0  0  0
   27.5263  -20.2538   -7.6265 N   0  0  0  0  0  0  0  0  0  0  0  0
   26.2708  -21.1401   -5.7290 C   0  0  0  0  0  0  0  0  0  0  0  0
   26.1437  -22.3357   -5.0436 O   0  0  0  0  0  0  0  0  0  0  0  0
   25.2031  -20.4891   -5.9234 O   0  0  0  0  0  0  0  0  0  0  0  0
  2  1  1  6
  3  2  1  0
  4  2  1  0
  5  4  1  0
  5  6  1  1
  7  5  1  0
  7  8  2  0
 10 12  1  0
 10  9  1  0
 11 10  2  0
 13 12  1  6
 13 14  1  0
 14  7  1  0
 15 13  1  0
 16 15  2  0
 18 19  1  0
 18 17  1  0
 19 21  1  0
 19 20  1  1
 21 22  1  6
 21 23  1  0
 22 15  1  0
 23 24  1  0
 25 23  2  0
M  END
$$$$
