LNI.pdb
     RDKit          3D

 25 24  0  0  1  0  0  0  0  0999 V2000
    2.8346  -39.4139  -77.4636 C   0  0  0  0  0  0  0  0  0  0  0  0
    2.3186  -40.8282  -77.3111 C   0  0  2  0  0  0  0  0  0  0  0  0
    2.6373  -41.5463  -78.6098 C   0  0  0  0  0  0  0  0  0  0  0  0
    0.8390  -40.8771  -77.0684 C   0  0  0  0  0  0  0  0  0  0  0  0
    0.0317  -40.3940  -78.2250 C   0  0  2  0  0  0  0  0  0  0  0  0
   -0.5949  -41.4631  -78.9604 N   0  0  0  0  0  0  0  0  0  0  0  0
    0.8923  -39.5986  -79.1824 C   0  0  0  0  0  0  0  0  0  0  0  0
    0.4642  -38.5055  -79.6329 O   0  0  0  0  0  0  0  0  0  0  0  0
    2.0820  -43.7627  -78.4872 N   0  0  0  0  0  0  0  0  0  0  0  0
    3.0015  -42.7609  -78.8655 C   0  0  0  0  0  0  0  0  0  0  0  0
    3.5637  -42.8922  -80.0112 O   0  0  0  0  0  0  0  0  0  0  0  0
    3.3218  -41.5923  -77.9892 C   0  0  0  0  0  0  0  0  0  0  0  0
    3.3098  -40.3166  -78.8006 C   0  0  2  0  0  0  0  0  0  0  0  0
    2.1597  -40.0541  -79.5798 N   0  0  0  0  0  0  0  0  0  0  0  0
    4.5900  -39.9488  -79.4067 C   0  0  0  0  0  0  0  0  0  0  0  0
    4.9461  -38.7431  -79.2981 O   0  0  0  0  0  0  0  0  0  0  0  0
    9.7756  -41.5371  -78.9511 C   0  0  0  0  0  0  0  0  0  0  0  0
    8.4886  -41.6301  -79.7288 C   0  0  0  0  0  0  0  0  0  0  0  0
    7.2909  -41.9024  -78.8577 C   0  0  2  0  0  0  0  0  0  0  0  0
    7.5475  -43.0767  -77.9223 C   0  0  0  0  0  0  0  0  0  0  0  0
    6.0101  -42.0372  -79.6039 C   0  0  2  0  0  0  0  0  0  0  0  0
    5.4780  -40.8003  -80.1042 N   0  0  0  0  0  0  0  0  0  0  0  0
    5.0246  -42.9021  -78.9469 C   0  0  0  0  0  0  0  0  0  0  0  0
    5.1011  -43.3249  -77.6312 O   0  0  0  0  0  0  0  0  0  0  0  0
    4.0238  -43.3055  -79.6082 O   0  0  0  0  0  0  0  0  0  0  0  0
  2  1  1  6
  3  2  1  0
  4  2  1  0
  5  4  1  0
  5  6  1  6
  7  5  1  0
  7  8  2  0
 10 12  1  0
 10  9  1  0
 11 10  2  0
 13 12  1  6
 13 14  1  0
 14  7  1  0
 15 13  1  0
 16 15  2  0
 18 19  1  0
 18 17  1  0
 19 21  1  0
 19 20  1  6
 21 22  1  1
 21 23  1  0
 22 15  1  0
 23 24  1  0
 25 23  2  0
M  END
$$$$
