LNI.pdb
     RDKit          3D

 25 24  0  0  1  0  0  0  0  0999 V2000
   13.9207  -10.7857  -16.0425 C   0  0  0  0  0  0  0  0  0  0  0  0
   13.3853  -10.7087  -14.6293 C   0  0  2  0  0  0  0  0  0  0  0  0
   11.8741  -10.6273  -14.7441 C   0  0  0  0  0  0  0  0  0  0  0  0
   13.8911   -9.5066  -13.8878 C   0  0  0  0  0  0  0  0  0  0  0  0
   15.3768   -9.4636  -13.7705 C   0  0  2  0  0  0  0  0  0  0  0  0
   15.9153  -10.5714  -13.0227 N   0  0  0  0  0  0  0  0  0  0  0  0
   15.8234   -8.1793  -13.1062 C   0  0  0  0  0  0  0  0  0  0  0  0
   15.5074   -7.0768  -13.6215 O   0  0  0  0  0  0  0  0  0  0  0  0
   14.5992   -6.7892  -10.0676 N   0  0  0  0  0  0  0  0  0  0  0  0
   15.6704   -7.1137   -9.2078 C   0  0  0  0  0  0  0  0  0  0  0  0
   15.3806   -7.3330   -7.9773 O   0  0  0  0  0  0  0  0  0  0  0  0
   17.0848   -7.2035   -9.6850 C   0  0  0  0  0  0  0  0  0  0  0  0
   17.1302   -7.1119  -11.1934 C   0  0  2  0  0  0  0  0  0  0  0  0
   16.5839   -8.1909  -11.9258 N   0  0  0  0  0  0  0  0  0  0  0  0
   18.3456   -6.5141  -11.7474 C   0  0  0  0  0  0  0  0  0  0  0  0
   18.8198   -5.5172  -11.1360 O   0  0  0  0  0  0  0  0  0  0  0  0
   22.4690   -9.5379  -13.0228 C   0  0  0  0  0  0  0  0  0  0  0  0
   21.5662   -8.4107  -12.5941 C   0  0  0  0  0  0  0  0  0  0  0  0
   21.3413   -7.3896  -13.6777 C   0  0  2  0  0  0  0  0  0  0  0  0
   22.6544   -6.7524  -14.1130 C   0  0  0  0  0  0  0  0  0  0  0  0
   20.2957   -6.3796  -13.3587 C   0  0  2  0  0  0  0  0  0  0  0  0
   19.0524   -6.9328  -12.8987 N   0  0  0  0  0  0  0  0  0  0  0  0
   20.1559   -5.3255  -14.3689 C   0  0  0  0  0  0  0  0  0  0  0  0
   20.8308   -4.1175  -14.3448 O   0  0  0  0  0  0  0  0  0  0  0  0
   19.3674   -5.5080  -15.3418 O   0  0  0  0  0  0  0  0  0  0  0  0
  2  1  1  6
  3  2  1  0
  4  2  1  0
  5  4  1  0
  5  6  1  1
  7  5  1  0
  7  8  2  0
 10 12  1  0
 10  9  1  0
 11 10  2  0
 13 12  1  1
 13 14  1  0
 14  7  1  0
 15 13  1  0
 16 15  2  0
 18 19  1  0
 18 17  1  0
 19 21  1  0
 19 20  1  1
 21 22  1  6
 21 23  1  0
 22 15  1  0
 23 24  1  0
 25 23  2  0
M  END
$$$$
