LNI.pdb
     RDKit          3D

 25 24  0  0  1  0  0  0  0  0999 V2000
   28.8459  -18.6154  -15.9906 C   0  0  0  0  0  0  0  0  0  0  0  0
   27.3831  -18.3821  -15.6814 C   0  0  2  0  0  0  0  0  0  0  0  0
   26.9579  -17.1723  -16.4935 C   0  0  0  0  0  0  0  0  0  0  0  0
   27.1393  -18.1121  -14.2259 C   0  0  0  0  0  0  0  0  0  0  0  0
   27.6379  -19.1944  -13.3300 C   0  0  2  0  0  0  0  0  0  0  0  0
   27.4463  -20.5130  -13.8787 N   0  0  0  0  0  0  0  0  0  0  0  0
   26.9484  -19.1343  -11.9843 C   0  0  0  0  0  0  0  0  0  0  0  0
   26.6352  -18.0162  -11.5018 O   0  0  0  0  0  0  0  0  0  0  0  0
   23.8510  -21.6680  -12.2860 N   0  0  0  0  0  0  0  0  0  0  0  0
   23.8552  -20.9750  -11.0564 C   0  0  0  0  0  0  0  0  0  0  0  0
   23.0117  -20.0170  -10.9274 O   0  0  0  0  0  0  0  0  0  0  0  0
   24.7896  -21.3226   -9.9417 C   0  0  0  0  0  0  0  0  0  0  0  0
   26.0201  -20.4463  -10.0037 C   0  0  2  0  0  0  0  0  0  0  0  0
   26.6500  -20.3004  -11.2610 N   0  0  0  0  0  0  0  0  0  0  0  0
   26.9134  -20.5399   -8.8485 C   0  0  0  0  0  0  0  0  0  0  0  0
   27.9586  -21.2326   -8.9912 O   0  0  0  0  0  0  0  0  0  0  0  0
   29.9636  -18.0240   -5.5712 C   0  0  0  0  0  0  0  0  0  0  0  0
   29.2373  -19.1315   -6.2893 C   0  0  0  0  0  0  0  0  0  0  0  0
   28.0510  -19.6536   -5.5227 C   0  0  2  0  0  0  0  0  0  0  0  0
   28.4866  -20.3247   -4.2267 C   0  0  0  0  0  0  0  0  0  0  0  0
   27.1315  -20.5058   -6.3249 C   0  0  2  0  0  0  0  0  0  0  0  0
   26.7344  -19.9358   -7.5822 N   0  0  0  0  0  0  0  0  0  0  0  0
   26.0340  -21.0939   -5.5498 C   0  0  0  0  0  0  0  0  0  0  0  0
   26.1984  -21.9823   -4.5015 O   0  0  0  0  0  0  0  0  0  0  0  0
   24.8419  -20.7843   -5.8407 O   0  0  0  0  0  0  0  0  0  0  0  0
  2  1  1  1
  3  2  1  0
  4  2  1  0
  5  4  1  0
  5  6  1  6
  7  5  1  0
  7  8  2  0
 10 12  1  0
 10  9  1  0
 11 10  2  0
 13 12  1  6
 13 14  1  0
 14  7  1  0
 15 13  1  0
 16 15  2  0
 18 19  1  0
 18 17  1  0
 19 21  1  0
 19 20  1  1
 21 22  1  6
 21 23  1  0
 22 15  1  0
 23 24  1  0
 25 23  2  0
M  END
$$$$
