LNI.pdb
     RDKit          3D

 25 24  0  0  1  0  0  0  0  0999 V2000
   33.2117  -17.7377  -18.1817 C   0  0  0  0  0  0  0  0  0  0  0  0
   32.9726  -17.3751  -19.6312 C   0  0  2  0  0  0  0  0  0  0  0  0
   34.0344  -18.0997  -20.4382 C   0  0  0  0  0  0  0  0  0  0  0  0
   33.0823  -15.8998  -19.8802 C   0  0  0  0  0  0  0  0  0  0  0  0
   32.3312  -15.0738  -18.8920 C   0  0  2  0  0  0  0  0  0  0  0  0
   30.9025  -15.2288  -18.9983 N   0  0  0  0  0  0  0  0  0  0  0  0
   32.6643  -13.6071  -19.0585 C   0  0  0  0  0  0  0  0  0  0  0  0
   33.8469  -13.2196  -18.8792 O   0  0  0  0  0  0  0  0  0  0  0  0
   32.9044  -11.8447  -22.1165 N   0  0  0  0  0  0  0  0  0  0  0  0
   31.7005  -11.1087  -22.0818 C   0  0  0  0  0  0  0  0  0  0  0  0
   31.1726  -10.8063  -23.2113 O   0  0  0  0  0  0  0  0  0  0  0  0
   31.0519  -10.6895  -20.8012 C   0  0  0  0  0  0  0  0  0  0  0  0
   31.7994  -11.2753  -19.6249 C   0  0  2  0  0  0  0  0  0  0  0  0
   31.6813  -12.6676  -19.4091 N   0  0  0  0  0  0  0  0  0  0  0  0
   31.8245  -10.4421  -18.4221 C   0  0  0  0  0  0  0  0  0  0  0  0
   30.8934  -10.6170  -17.5885 O   0  0  0  0  0  0  0  0  0  0  0  0
   35.4630   -9.8400  -14.8828 C   0  0  0  0  0  0  0  0  0  0  0  0
   35.0227   -9.4999  -16.2829 C   0  0  0  0  0  0  0  0  0  0  0  0
   34.0870   -8.3213  -16.3376 C   0  0  2  0  0  0  0  0  0  0  0  0
   33.9928   -7.6314  -14.9830 C   0  0  0  0  0  0  0  0  0  0  0  0
   32.7501   -8.6282  -16.9154 C   0  0  2  0  0  0  0  0  0  0  0  0
   32.7830   -9.4572  -18.0881 N   0  0  0  0  0  0  0  0  0  0  0  0
   31.8624   -7.4652  -17.0169 C   0  0  0  0  0  0  0  0  0  0  0  0
   31.5380   -6.8233  -18.1994 O   0  0  0  0  0  0  0  0  0  0  0  0
   31.3437   -6.9946  -15.9629 O   0  0  0  0  0  0  0  0  0  0  0  0
  2  1  1  1
  3  2  1  0
  4  2  1  0
  5  4  1  0
  5  6  1  6
  7  5  1  0
  7  8  2  0
 10 12  1  0
 10  9  1  0
 11 10  2  0
 13 12  1  6
 13 14  1  0
 14  7  1  0
 15 13  1  0
 16 15  2  0
 18 19  1  0
 18 17  1  0
 19 21  1  0
 19 20  1  1
 21 22  1  6
 21 23  1  0
 22 15  1  0
 23 24  1  0
 25 23  2  0
M  END
$$$$
