LNI.pdb
     RDKit          3D

 25 24  0  0  1  0  0  0  0  0999 V2000
   29.6403  -17.5380  -18.0657 C   0  0  0  0  0  0  0  0  0  0  0  0
   28.3252  -16.8841  -18.4297 C   0  0  2  0  0  0  0  0  0  0  0  0
   28.6393  -15.4357  -18.7570 C   0  0  0  0  0  0  0  0  0  0  0  0
   27.3291  -16.9337  -17.3090 C   0  0  0  0  0  0  0  0  0  0  0  0
   27.1256  -18.3032  -16.7561 C   0  0  2  0  0  0  0  0  0  0  0  0
   26.9644  -19.3055  -17.7787 N   0  0  0  0  0  0  0  0  0  0  0  0
   25.9091  -18.3412  -15.8568 C   0  0  0  0  0  0  0  0  0  0  0  0
   25.8468  -17.5627  -14.8714 O   0  0  0  0  0  0  0  0  0  0  0  0
   21.2388  -19.3136  -13.9704 N   0  0  0  0  0  0  0  0  0  0  0  0
   21.1473  -19.3042  -15.3788 C   0  0  0  0  0  0  0  0  0  0  0  0
   19.9678  -19.3043  -15.8835 O   0  0  0  0  0  0  0  0  0  0  0  0
   22.3539  -19.2947  -16.2621 C   0  0  0  0  0  0  0  0  0  0  0  0
   23.6108  -19.3594  -15.4244 C   0  0  2  0  0  0  0  0  0  0  0  0
   24.8469  -19.2275  -16.0979 N   0  0  0  0  0  0  0  0  0  0  0  0
   23.5814  -20.3261  -14.3262 C   0  0  0  0  0  0  0  0  0  0  0  0
   23.5471  -21.5472  -14.6429 O   0  0  0  0  0  0  0  0  0  0  0  0
   26.0764  -20.1601   -9.1345 C   0  0  0  0  0  0  0  0  0  0  0  0
   24.8750  -20.0016  -10.0296 C   0  0  0  0  0  0  0  0  0  0  0  0
   24.7483  -21.1033  -11.0483 C   0  0  2  0  0  0  0  0  0  0  0  0
   26.0191  -21.2334  -11.8777 C   0  0  0  0  0  0  0  0  0  0  0  0
   23.5239  -21.0196  -11.8905 C   0  0  2  0  0  0  0  0  0  0  0  0
   23.5879  -20.0418  -12.9408 N   0  0  0  0  0  0  0  0  0  0  0  0
   22.2727  -21.0098  -11.1255 C   0  0  0  0  0  0  0  0  0  0  0  0
   21.8650  -22.0185  -10.2701 O   0  0  0  0  0  0  0  0  0  0  0  0
   21.4915  -20.0206  -11.2384 O   0  0  0  0  0  0  0  0  0  0  0  0
  2  1  1  1
  3  2  1  0
  4  2  1  0
  5  4  1  0
  5  6  1  6
  7  5  1  0
  7  8  2  0
 10 12  1  0
 10  9  1  0
 11 10  2  0
 13 12  1  6
 13 14  1  0
 14  7  1  0
 15 13  1  0
 16 15  2  0
 18 19  1  0
 18 17  1  0
 19 21  1  0
 19 20  1  6
 21 22  1  1
 21 23  1  0
 22 15  1  0
 23 24  1  0
 25 23  2  0
M  END
$$$$
