LNI.pdb
     RDKit          3D

 25 24  0  0  1  0  0  0  0  0999 V2000
   28.8206  -19.0569  -20.7884 C   0  0  0  0  0  0  0  0  0  0  0  0
   27.6149  -18.2298  -20.3986 C   0  0  2  0  0  0  0  0  0  0  0  0
   27.6740  -16.9618  -21.2308 C   0  0  0  0  0  0  0  0  0  0  0  0
   27.6130  -17.8671  -18.9429 C   0  0  0  0  0  0  0  0  0  0  0  0
   27.5932  -19.0507  -18.0365 C   0  0  2  0  0  0  0  0  0  0  0  0
   27.1590  -20.2569  -18.6943 N   0  0  0  0  0  0  0  0  0  0  0  0
   26.6852  -18.8015  -16.8519 C   0  0  0  0  0  0  0  0  0  0  0  0
   26.9163  -17.8262  -16.0928 O   0  0  0  0  0  0  0  0  0  0  0  0
   21.2487  -20.1885  -14.2976 N   0  0  0  0  0  0  0  0  0  0  0  0
   22.4210  -19.4426  -14.5455 C   0  0  0  0  0  0  0  0  0  0  0  0
   22.7894  -18.6203  -13.6322 O   0  0  0  0  0  0  0  0  0  0  0  0
   23.2132  -19.5865  -15.8057 C   0  0  0  0  0  0  0  0  0  0  0  0
   24.6911  -19.6204  -15.4885 C   0  0  2  0  0  0  0  0  0  0  0  0
   25.5889  -19.6360  -16.5806 N   0  0  0  0  0  0  0  0  0  0  0  0
   25.0658  -20.4481  -14.3414 C   0  0  0  0  0  0  0  0  0  0  0  0
   24.9367  -21.6965  -14.4733 O   0  0  0  0  0  0  0  0  0  0  0  0
   29.6067  -20.7136  -11.8149 C   0  0  0  0  0  0  0  0  0  0  0  0
   28.2387  -21.0876  -12.3235 C   0  0  0  0  0  0  0  0  0  0  0  0
   27.1358  -20.7462  -11.3568 C   0  0  2  0  0  0  0  0  0  0  0  0
   27.2703  -21.5434  -10.0661 C   0  0  0  0  0  0  0  0  0  0  0  0
   25.7675  -20.8271  -11.9370 C   0  0  2  0  0  0  0  0  0  0  0  0
   25.5602  -20.0013  -13.0939 N   0  0  0  0  0  0  0  0  0  0  0  0
   24.6923  -20.7612  -10.9418 C   0  0  0  0  0  0  0  0  0  0  0  0
   24.2251  -21.8422  -10.2147 O   0  0  0  0  0  0  0  0  0  0  0  0
   24.1342  -19.6486  -10.7133 O   0  0  0  0  0  0  0  0  0  0  0  0
  2  1  1  1
  3  2  1  0
  4  2  1  0
  5  4  1  0
  5  6  1  6
  7  5  1  0
  7  8  2  0
 10 12  1  0
 10  9  1  0
 11 10  2  0
 13 12  1  6
 13 14  1  0
 14  7  1  0
 15 13  1  0
 16 15  2  0
 18 19  1  0
 18 17  1  0
 19 21  1  0
 19 20  1  1
 21 22  1  6
 21 23  1  0
 22 15  1  0
 23 24  1  0
 25 23  2  0
M  END
$$$$
