LNI.pdb
     RDKit          3D

 25 24  0  0  1  0  0  0  0  0999 V2000
   33.4526  -23.1610  -17.7418 C   0  0  0  0  0  0  0  0  0  0  0  0
   34.1119  -24.2976  -16.9912 C   0  0  2  0  0  0  0  0  0  0  0  0
   35.4537  -24.5353  -17.6596 C   0  0  0  0  0  0  0  0  0  0  0  0
   33.3049  -25.5614  -17.0374 C   0  0  0  0  0  0  0  0  0  0  0  0
   32.0436  -25.4892  -16.2457 C   0  0  2  0  0  0  0  0  0  0  0  0
   32.2664  -25.1691  -14.8586 N   0  0  0  0  0  0  0  0  0  0  0  0
   31.2924  -26.8010  -16.3165 C   0  0  0  0  0  0  0  0  0  0  0  0
   31.0945  -27.4555  -15.2614 O   0  0  0  0  0  0  0  0  0  0  0  0
   26.4942  -29.7081  -17.0699 N   0  0  0  0  0  0  0  0  0  0  0  0
   27.9044  -29.6594  -17.1017 C   0  0  0  0  0  0  0  0  0  0  0  0
   28.5172  -30.7571  -17.3576 O   0  0  0  0  0  0  0  0  0  0  0  0
   28.6705  -28.3996  -16.8519 C   0  0  0  0  0  0  0  0  0  0  0  0
   29.8622  -28.3245  -17.7792 C   0  0  2  0  0  0  0  0  0  0  0  0
   30.8107  -27.3047  -17.5356 N   0  0  0  0  0  0  0  0  0  0  0  0
   29.5791  -28.6110  -19.1861 C   0  0  0  0  0  0  0  0  0  0  0  0
   29.0611  -27.6810  -19.8638 O   0  0  0  0  0  0  0  0  0  0  0  0
   33.0238  -31.3672  -22.3107 C   0  0  0  0  0  0  0  0  0  0  0  0
   32.0030  -30.4938  -21.6289 C   0  0  0  0  0  0  0  0  0  0  0  0
   30.5845  -30.8692  -21.9674 C   0  0  2  0  0  0  0  0  0  0  0  0
   30.3710  -30.9069  -23.4749 C   0  0  0  0  0  0  0  0  0  0  0  0
   29.5531  -30.0573  -21.2657 C   0  0  2  0  0  0  0  0  0  0  0  0
   29.8238  -29.8218  -19.8747 N   0  0  0  0  0  0  0  0  0  0  0  0
   28.1741  -30.4627  -21.5571 C   0  0  0  0  0  0  0  0  0  0  0  0
   27.3502  -29.8441  -22.4811 O   0  0  0  0  0  0  0  0  0  0  0  0
   27.6776  -31.4448  -20.9321 O   0  0  0  0  0  0  0  0  0  0  0  0
  2  1  1  6
  3  2  1  0
  4  2  1  0
  5  4  1  0
  5  6  1  1
  7  5  1  0
  7  8  2  0
 10 12  1  0
 10  9  1  0
 11 10  2  0
 13 12  1  1
 13 14  1  0
 14  7  1  0
 15 13  1  0
 16 15  2  0
 18 19  1  0
 18 17  1  0
 19 21  1  0
 19 20  1  6
 21 22  1  1
 21 23  1  0
 22 15  1  0
 23 24  1  0
 25 23  2  0
M  END
$$$$
