LNI.pdb
     RDKit          3D

 25 24  0  0  1  0  0  0  0  0999 V2000
   18.8601  -14.6052  -15.1426 C   0  0  0  0  0  0  0  0  0  0  0  0
   19.4869  -14.0439  -16.4003 C   0  0  2  0  0  0  0  0  0  0  0  0
   20.9541  -14.4308  -16.3610 C   0  0  0  0  0  0  0  0  0  0  0  0
   19.3707  -12.5505  -16.4831 C   0  0  0  0  0  0  0  0  0  0  0  0
   17.9611  -12.0648  -16.4956 C   0  0  2  0  0  0  0  0  0  0  0  0
   17.2314  -12.4829  -17.6657 N   0  0  0  0  0  0  0  0  0  0  0  0
   17.9157  -10.5541  -16.4213 C   0  0  0  0  0  0  0  0  0  0  0  0
   18.1397   -9.8791  -17.4582 O   0  0  0  0  0  0  0  0  0  0  0  0
   13.9131   -8.6030  -14.7227 N   0  0  0  0  0  0  0  0  0  0  0  0
   15.1629   -8.1391  -15.1863 C   0  0  0  0  0  0  0  0  0  0  0  0
   15.2539   -7.8692  -16.4372 O   0  0  0  0  0  0  0  0  0  0  0  0
   16.3403   -7.9625  -14.2812 C   0  0  0  0  0  0  0  0  0  0  0  0
   17.5884   -8.5019  -14.9423 C   0  0  2  0  0  0  0  0  0  0  0  0
   17.6290   -9.8878  -15.2188 N   0  0  0  0  0  0  0  0  0  0  0  0
   18.8446   -7.9037  -14.4889 C   0  0  0  0  0  0  0  0  0  0  0  0
   19.2375   -8.2132  -13.3303 O   0  0  0  0  0  0  0  0  0  0  0  0
   23.4406   -8.7090  -16.5379 C   0  0  0  0  0  0  0  0  0  0  0  0
   22.2618   -8.3350  -15.6775 C   0  0  0  0  0  0  0  0  0  0  0  0
   22.1109   -6.8476  -15.4971 C   0  0  2  0  0  0  0  0  0  0  0  0
   23.3873   -6.2294  -14.9419 C   0  0  0  0  0  0  0  0  0  0  0  0
   20.9013   -6.4445  -14.7292 C   0  0  2  0  0  0  0  0  0  0  0  0
   19.6726   -7.0123  -15.2101 N   0  0  0  0  0  0  0  0  0  0  0  0
   20.8335   -5.0099  -14.4322 C   0  0  0  0  0  0  0  0  0  0  0  0
   19.8882   -4.1423  -14.9511 O   0  0  0  0  0  0  0  0  0  0  0  0
   21.6893   -4.5036  -13.6493 O   0  0  0  0  0  0  0  0  0  0  0  0
  2  1  1  1
  3  2  1  0
  4  2  1  0
  5  4  1  0
  5  6  1  6
  7  5  1  0
  7  8  2  0
 10 12  1  0
 10  9  1  0
 11 10  2  0
 13 12  1  1
 13 14  1  0
 14  7  1  0
 15 13  1  0
 16 15  2  0
 18 19  1  0
 18 17  1  0
 19 21  1  0
 19 20  1  1
 21 22  1  6
 21 23  1  0
 22 15  1  0
 23 24  1  0
 25 23  2  0
M  END
$$$$
