LNI.pdb
     RDKit          3D

 25 24  0  0  1  0  0  0  0  0999 V2000
   19.0456  -17.7452  -15.1365 C   0  0  0  0  0  0  0  0  0  0  0  0
   20.1405  -17.4883  -16.1490 C   0  0  2  0  0  0  0  0  0  0  0  0
   19.4493  -17.2201  -17.4734 C   0  0  0  0  0  0  0  0  0  0  0  0
   21.0677  -18.6577  -16.3020 C   0  0  0  0  0  0  0  0  0  0  0  0
   22.0596  -18.4884  -17.4021 C   0  0  2  0  0  0  0  0  0  0  0  0
   21.5818  -18.9747  -18.6715 N   0  0  0  0  0  0  0  0  0  0  0  0
   23.3504  -19.2065  -17.0729 C   0  0  0  0  0  0  0  0  0  0  0  0
   23.4326  -20.4461  -17.2665 O   0  0  0  0  0  0  0  0  0  0  0  0
   28.1049  -20.4076  -15.7777 N   0  0  0  0  0  0  0  0  0  0  0  0
   28.1208  -19.3643  -16.7283 C   0  0  0  0  0  0  0  0  0  0  0  0
   29.2307  -19.1486  -17.3345 O   0  0  0  0  0  0  0  0  0  0  0  0
   26.9135  -18.5355  -17.0315 C   0  0  0  0  0  0  0  0  0  0  0  0
   25.7397  -19.0059  -16.2029 C   0  0  2  0  0  0  0  0  0  0  0  0
   24.4600  -18.5189  -16.5553 N   0  0  0  0  0  0  0  0  0  0  0  0
   25.9999  -19.1397  -14.7691 C   0  0  0  0  0  0  0  0  0  0  0  0
   26.1581  -18.0711  -14.1167 O   0  0  0  0  0  0  0  0  0  0  0  0
   22.7952  -20.7794  -11.2760 C   0  0  0  0  0  0  0  0  0  0  0  0
   23.9590  -20.1751  -12.0176 C   0  0  0  0  0  0  0  0  0  0  0  0
   25.2520  -20.9119  -11.7881 C   0  0  2  0  0  0  0  0  0  0  0  0
   25.6010  -20.9606  -10.3063 C   0  0  0  0  0  0  0  0  0  0  0  0
   26.3856  -20.4331  -12.6254 C   0  0  2  0  0  0  0  0  0  0  0  0
   26.0935  -20.3411  -14.0288 N   0  0  0  0  0  0  0  0  0  0  0  0
   27.6697  -21.0684  -12.3114 C   0  0  0  0  0  0  0  0  0  0  0  0
   28.3813  -20.8694  -11.1412 O   0  0  0  0  0  0  0  0  0  0  0  0
   28.1862  -21.8586  -13.1543 O   0  0  0  0  0  0  0  0  0  0  0  0
  2  1  1  1
  3  2  1  0
  4  2  1  0
  5  4  1  0
  5  6  1  6
  7  5  1  0
  7  8  2  0
 10 12  1  0
 10  9  1  0
 11 10  2  0
 13 12  1  1
 13 14  1  0
 14  7  1  0
 15 13  1  0
 16 15  2  0
 18 19  1  0
 18 17  1  0
 19 21  1  0
 19 20  1  1
 21 22  1  6
 21 23  1  0
 22 15  1  0
 23 24  1  0
 25 23  2  0
M  END
$$$$
