CIH.pdb
     RDKit          3D

 25 25  0  0  1  0  0  0  0  0999 V2000
    8.6293  -14.5835   20.0606 N   0  0  0  0  0  0  0  0  0  0  0  0
    7.7828  -14.9577   21.1469 C   0  0  1  0  0  0  0  0  0  0  0  0
    7.4466  -16.4327   21.0773 C   0  0  0  0  0  0  0  0  0  0  0  0
    6.6551  -16.8583   19.5077 S   0  0  0  0  0  0  0  0  0  0  0  0
    8.3915  -14.6875   22.4753 C   0  0  0  0  0  0  0  0  0  0  0  0
    9.6342  -14.8017   22.6273 O   0  0  0  0  0  0  0  0  0  0  0  0
    5.6866  -11.8995   26.4279 C   0  0  0  0  0  0  0  0  0  0  0  0
    6.8683  -12.2985   25.5417 C   0  0  0  0  0  0  0  0  0  0  0  0
    7.2973  -13.6594   25.9649 C   0  0  2  0  0  0  0  0  0  0  0  0
    8.0078  -13.5846   27.2812 C   0  0  0  0  0  0  0  0  0  0  0  0
    8.1390  -14.3879   24.9662 C   0  0  2  0  0  0  0  0  0  0  0  0
    7.6463  -14.2971   23.6218 N   0  0  0  0  0  0  0  0  0  0  0  0
    8.4427  -15.7918   25.3619 C   0  0  0  0  0  0  0  0  0  0  0  0
    8.0856  -16.7161   24.5918 O   0  0  0  0  0  0  0  0  0  0  0  0
    9.1145  -16.1149   26.5668 N   0  0  0  0  0  0  0  0  0  0  0  0
   10.1663  -17.1467   26.6497 C   0  0  1  0  0  0  0  0  0  0  0  0
   11.2759  -16.8544   25.7102 C   0  0  0  0  0  0  0  0  0  0  0  0
   11.2108  -17.6554   24.4755 C   0  0  0  0  0  0  0  0  0  0  0  0
   10.2880  -18.5676   24.0201 C   0  0  0  0  0  0  0  0  0  0  0  0
   10.6163  -18.9960   22.7717 N   0  0  0  0  0  0  0  0  0  0  0  0
   11.7329  -18.3504   22.4599 C   0  0  0  0  0  0  0  0  0  0  0  0
   12.1204  -17.5410   23.4486 N   0  0  0  0  0  0  0  0  0  0  0  0
   10.6520  -17.1258   28.0906 C   0  0  0  0  0  0  0  0  0  0  0  0
   10.7564  -16.0079   28.7026 O   0  0  0  0  0  0  0  0  0  0  0  0
   11.0025  -18.2204   28.8175 O   0  0  0  0  0  0  0  0  0  0  0  0
  2  3  1  0
  2  1  1  6
  3  4  1  0
  5  2  1  0
  6  5  2  0
  7  8  1  0
  8  9  1  0
  9 11  1  0
  9 10  1  1
 11 12  1  6
 12  5  1  0
 13 11  1  0
 13 15  1  0
 14 13  2  0
 16 15  1  0
 16 23  1  0
 16 17  1  6
 18 17  1  0
 18 19  2  0
 20 19  1  0
 21 22  2  0
 21 20  1  0
 22 18  1  0
 23 25  1  0
 24 23  2  0
M  END
$$$$
