CIH.pdb
     RDKit          3D

 25 25  0  0  1  0  0  0  0  0999 V2000
   10.0227  -17.4143   15.8211 N   0  0  0  0  0  0  0  0  0  0  0  0
    9.0758  -17.4878   16.8862 C   0  0  1  0  0  0  0  0  0  0  0  0
    8.9179  -18.9170   17.3615 C   0  0  0  0  0  0  0  0  0  0  0  0
    7.2160  -19.4967   17.1639 S   0  0  0  0  0  0  0  0  0  0  0  0
    9.4543  -16.6537   18.0564 C   0  0  0  0  0  0  0  0  0  0  0  0
   10.6682  -16.4448   18.3074 O   0  0  0  0  0  0  0  0  0  0  0  0
    6.5208  -12.3545   19.9983 C   0  0  0  0  0  0  0  0  0  0  0  0
    7.7060  -13.2027   19.5328 C   0  0  0  0  0  0  0  0  0  0  0  0
    7.8837  -14.2958   20.5272 C   0  0  2  0  0  0  0  0  0  0  0  0
    8.2488  -13.7190   21.8603 C   0  0  0  0  0  0  0  0  0  0  0  0
    8.8732  -15.3452   20.1319 C   0  0  2  0  0  0  0  0  0  0  0  0
    8.5130  -16.0569   18.9395 N   0  0  0  0  0  0  0  0  0  0  0  0
    9.2384  -16.2626   21.2476 C   0  0  0  0  0  0  0  0  0  0  0  0
    8.4451  -17.1911   21.5365 O   0  0  0  0  0  0  0  0  0  0  0  0
   10.4394  -16.1229   21.9861 N   0  0  0  0  0  0  0  0  0  0  0  0
   10.9310  -17.1505   22.9244 C   0  0  1  0  0  0  0  0  0  0  0  0
   12.0960  -17.8745   22.3605 C   0  0  0  0  0  0  0  0  0  0  0  0
   11.7381  -19.1846   21.7894 C   0  0  0  0  0  0  0  0  0  0  0  0
   10.5377  -19.8489   21.6965 C   0  0  0  0  0  0  0  0  0  0  0  0
   10.6878  -21.0116   21.0070 N   0  0  0  0  0  0  0  0  0  0  0  0
   11.9718  -21.0619   20.6762 C   0  0  0  0  0  0  0  0  0  0  0  0
   12.6327  -19.9913   21.1234 N   0  0  0  0  0  0  0  0  0  0  0  0
   11.3151  -16.4023   24.1913 C   0  0  0  0  0  0  0  0  0  0  0  0
   11.7605  -15.2067   24.1048 O   0  0  0  0  0  0  0  0  0  0  0  0
   11.2314  -16.9004   25.4540 O   0  0  0  0  0  0  0  0  0  0  0  0
  2  3  1  0
  2  1  1  6
  3  4  1  0
  5  2  1  0
  6  5  2  0
  7  8  1  0
  8  9  1  0
  9 11  1  0
  9 10  1  1
 11 12  1  6
 12  5  1  0
 13 11  1  0
 13 15  1  0
 14 13  2  0
 16 15  1  0
 16 23  1  0
 16 17  1  6
 18 17  1  0
 18 19  2  0
 20 19  1  0
 21 22  2  0
 21 20  1  0
 22 18  1  0
 23 25  1  0
 24 23  2  0
M  END
$$$$
