CIH.pdb
     RDKit          3D

 25 25  0  0  1  0  0  0  0  0999 V2000
   10.0996  -17.4476   15.7649 N   0  0  0  0  0  0  0  0  0  0  0  0
    9.0580  -17.4179   16.7401 C   0  0  1  0  0  0  0  0  0  0  0  0
    8.5898  -18.8214   17.0630 C   0  0  0  0  0  0  0  0  0  0  0  0
    7.2858  -19.3614   15.9318 S   0  0  0  0  0  0  0  0  0  0  0  0
    9.4725  -16.7683   18.0107 C   0  0  0  0  0  0  0  0  0  0  0  0
   10.6725  -16.8292   18.3804 O   0  0  0  0  0  0  0  0  0  0  0  0
    6.7796  -12.3011   20.0561 C   0  0  0  0  0  0  0  0  0  0  0  0
    7.9039  -13.2021   19.5412 C   0  0  0  0  0  0  0  0  0  0  0  0
    8.0512  -14.3215   20.5108 C   0  0  2  0  0  0  0  0  0  0  0  0
    8.4677  -13.7883   21.8469 C   0  0  0  0  0  0  0  0  0  0  0  0
    8.9844  -15.4062   20.0757 C   0  0  2  0  0  0  0  0  0  0  0  0
    8.5819  -16.0611   18.8644 N   0  0  0  0  0  0  0  0  0  0  0  0
    9.3095  -16.3754   21.1596 C   0  0  0  0  0  0  0  0  0  0  0  0
    8.4463  -17.2325   21.4681 O   0  0  0  0  0  0  0  0  0  0  0  0
   10.5484  -16.3616   21.8469 N   0  0  0  0  0  0  0  0  0  0  0  0
   10.8917  -17.3303   22.9060 C   0  0  1  0  0  0  0  0  0  0  0  0
   12.3103  -17.7507   22.8052 C   0  0  0  0  0  0  0  0  0  0  0  0
   12.5363  -18.7690   21.7647 C   0  0  0  0  0  0  0  0  0  0  0  0
   11.6673  -19.4752   20.9666 C   0  0  0  0  0  0  0  0  0  0  0  0
   12.3527  -20.2561   20.0889 N   0  0  0  0  0  0  0  0  0  0  0  0
   13.6352  -20.0307   20.3439 C   0  0  0  0  0  0  0  0  0  0  0  0
   13.7876  -19.1500   21.3358 N   0  0  0  0  0  0  0  0  0  0  0  0
   10.6273  -16.6145   24.2212 C   0  0  0  0  0  0  0  0  0  0  0  0
   10.4906  -15.3431   24.2286 O   0  0  0  0  0  0  0  0  0  0  0  0
   10.5214  -17.2166   25.4360 O   0  0  0  0  0  0  0  0  0  0  0  0
  2  3  1  0
  2  1  1  6
  3  4  1  0
  5  2  1  0
  6  5  2  0
  7  8  1  0
  8  9  1  0
  9 11  1  0
  9 10  1  1
 11 12  1  6
 12  5  1  0
 13 11  1  0
 13 15  1  0
 14 13  2  0
 16 15  1  0
 16 23  1  0
 16 17  1  1
 18 17  1  0
 18 19  2  0
 20 19  1  0
 21 22  2  0
 21 20  1  0
 22 18  1  0
 23 25  1  0
 24 23  2  0
M  END
$$$$
