CIH.pdb
     RDKit          3D

 25 25  0  0  1  0  0  0  0  0999 V2000
    8.2530  -15.3469   20.4710 N   0  0  0  0  0  0  0  0  0  0  0  0
    7.5176  -15.7742   21.6170 C   0  0  1  0  0  0  0  0  0  0  0  0
    7.2886  -17.2707   21.5761 C   0  0  0  0  0  0  0  0  0  0  0  0
    6.2830  -17.8254   22.9734 S   0  0  0  0  0  0  0  0  0  0  0  0
    8.1987  -15.4485   22.8969 C   0  0  0  0  0  0  0  0  0  0  0  0
    9.4543  -15.4643   22.9574 O   0  0  0  0  0  0  0  0  0  0  0  0
    5.9645  -11.8837   26.3968 C   0  0  0  0  0  0  0  0  0  0  0  0
    6.9431  -12.6061   25.4686 C   0  0  0  0  0  0  0  0  0  0  0  0
    7.4094  -13.8260   26.1826 C   0  0  2  0  0  0  0  0  0  0  0  0
    8.2285  -13.4380   27.3749 C   0  0  0  0  0  0  0  0  0  0  0  0
    8.1653  -14.7969   25.3325 C   0  0  2  0  0  0  0  0  0  0  0  0
    7.5111  -15.1100   24.0947 N   0  0  0  0  0  0  0  0  0  0  0  0
    8.5926  -16.0191   26.0696 C   0  0  0  0  0  0  0  0  0  0  0  0
    7.7036  -16.7747   26.5320 O   0  0  0  0  0  0  0  0  0  0  0  0
    9.9556  -16.3534   26.2641 N   0  0  0  0  0  0  0  0  0  0  0  0
   10.3918  -17.5667   26.9821 C   0  0  1  0  0  0  0  0  0  0  0  0
   11.7587  -17.9681   26.5702 C   0  0  0  0  0  0  0  0  0  0  0  0
   11.8145  -18.4939   25.1951 C   0  0  0  0  0  0  0  0  0  0  0  0
   10.8371  -18.6978   24.2495 C   0  0  0  0  0  0  0  0  0  0  0  0
   11.3848  -19.1331   23.0831 N   0  0  0  0  0  0  0  0  0  0  0  0
   12.6909  -19.1952   23.3087 C   0  0  0  0  0  0  0  0  0  0  0  0
   12.9886  -18.8219   24.5557 N   0  0  0  0  0  0  0  0  0  0  0  0
   10.3505  -17.2089   28.4595 C   0  0  0  0  0  0  0  0  0  0  0  0
   10.3388  -15.9788   28.8084 O   0  0  0  0  0  0  0  0  0  0  0  0
   10.3275  -18.1029   29.4840 O   0  0  0  0  0  0  0  0  0  0  0  0
  2  3  1  0
  2  1  1  6
  3  4  1  0
  5  2  1  0
  6  5  2  0
  7  8  1  0
  8  9  1  0
  9 11  1  0
  9 10  1  1
 11 12  1  6
 12  5  1  0
 13 11  1  0
 13 15  1  0
 14 13  2  0
 16 15  1  0
 16 23  1  0
 16 17  1  6
 18 17  1  0
 18 19  2  0
 20 19  1  0
 21 22  2  0
 21 20  1  0
 22 18  1  0
 23 25  1  0
 24 23  2  0
M  END
$$$$
