CIH.pdb
     RDKit          3D

 25 25  0  0  1  0  0  0  0  0999 V2000
    7.9922  -18.6026   16.3716 N   0  0  0  0  0  0  0  0  0  0  0  0
    7.4522  -18.4024   17.6773 C   0  0  1  0  0  0  0  0  0  0  0  0
    7.3142  -19.7231   18.4054 C   0  0  0  0  0  0  0  0  0  0  0  0
    6.6173  -19.4982   20.0593 S   0  0  0  0  0  0  0  0  0  0  0  0
    8.2834  -17.5002   18.5160 C   0  0  0  0  0  0  0  0  0  0  0  0
    9.5365  -17.5946   18.4814 O   0  0  0  0  0  0  0  0  0  0  0  0
    8.1208  -11.9271   20.9730 C   0  0  0  0  0  0  0  0  0  0  0  0
    8.8736  -13.2588   20.9427 C   0  0  0  0  0  0  0  0  0  0  0  0
    7.9427  -14.2793   20.3885 C   0  0  2  0  0  0  0  0  0  0  0  0
    6.7228  -14.3799   21.2515 C   0  0  0  0  0  0  0  0  0  0  0  0
    8.5461  -15.6333   20.1903 C   0  0  2  0  0  0  0  0  0  0  0  0
    7.7466  -16.5075   19.3811 N   0  0  0  0  0  0  0  0  0  0  0  0
    8.9779  -16.2792   21.4615 C   0  0  0  0  0  0  0  0  0  0  0  0
    8.0944  -16.7524   22.2169 O   0  0  0  0  0  0  0  0  0  0  0  0
   10.3391  -16.3758   21.8424 N   0  0  0  0  0  0  0  0  0  0  0  0
   10.7781  -16.9910   23.1100 C   0  0  1  0  0  0  0  0  0  0  0  0
   11.6870  -18.1360   22.8607 C   0  0  0  0  0  0  0  0  0  0  0  0
   10.9737  -19.3591   22.4536 C   0  0  0  0  0  0  0  0  0  0  0  0
    9.6410  -19.6136   22.2297 C   0  0  0  0  0  0  0  0  0  0  0  0
    9.4662  -20.8878   21.7872 N   0  0  0  0  0  0  0  0  0  0  0  0
   10.6834  -21.4136   21.7374 C   0  0  0  0  0  0  0  0  0  0  0  0
   11.6104  -20.5348   22.1263 N   0  0  0  0  0  0  0  0  0  0  0  0
   11.4885  -15.8884   23.8793 C   0  0  0  0  0  0  0  0  0  0  0  0
   11.9094  -14.8558   23.2534 O   0  0  0  0  0  0  0  0  0  0  0  0
   11.7320  -15.8952   25.2173 O   0  0  0  0  0  0  0  0  0  0  0  0
  2  3  1  0
  2  1  1  6
  3  4  1  0
  5  2  1  0
  6  5  2  0
  7  8  1  0
  8  9  1  0
  9 11  1  0
  9 10  1  1
 11 12  1  1
 12  5  1  0
 13 11  1  0
 13 15  1  0
 14 13  2  0
 16 15  1  0
 16 23  1  0
 16 17  1  6
 18 17  1  0
 18 19  2  0
 20 19  1  0
 21 22  2  0
 21 20  1  0
 22 18  1  0
 23 25  1  0
 24 23  2  0
M  END
$$$$
