CIH.pdb
     RDKit          3D

 25 25  0  0  1  0  0  0  0  0999 V2000
    8.7538  -15.2887   19.8492 N   0  0  0  0  0  0  0  0  0  0  0  0
    7.7501  -15.2858   20.8636 C   0  0  1  0  0  0  0  0  0  0  0  0
    7.0760  -16.6392   20.9505 C   0  0  0  0  0  0  0  0  0  0  0  0
    6.1261  -17.0033   19.4550 S   0  0  0  0  0  0  0  0  0  0  0  0
    8.2868  -14.9528   22.2087 C   0  0  0  0  0  0  0  0  0  0  0  0
    9.4438  -15.3260   22.5289 O   0  0  0  0  0  0  0  0  0  0  0  0
    7.2570  -11.3328   27.0999 C   0  0  0  0  0  0  0  0  0  0  0  0
    7.9705  -12.5788   26.5712 C   0  0  0  0  0  0  0  0  0  0  0  0
    7.3626  -12.9093   25.2534 C   0  0  2  0  0  0  0  0  0  0  0  0
    5.8896  -13.1292   25.4113 C   0  0  0  0  0  0  0  0  0  0  0  0
    7.9850  -14.0750   24.5531 C   0  0  2  0  0  0  0  0  0  0  0  0
    7.5634  -14.2200   23.1894 N   0  0  0  0  0  0  0  0  0  0  0  0
    7.8746  -15.3499   25.3161 C   0  0  0  0  0  0  0  0  0  0  0  0
    6.9131  -16.1144   25.0589 O   0  0  0  0  0  0  0  0  0  0  0  0
    8.8095  -15.7242   26.3126 N   0  0  0  0  0  0  0  0  0  0  0  0
    9.2696  -17.1135   26.5029 C   0  0  1  0  0  0  0  0  0  0  0  0
    9.9507  -17.6213   25.2874 C   0  0  0  0  0  0  0  0  0  0  0  0
   10.4309  -19.0065   25.4329 C   0  0  0  0  0  0  0  0  0  0  0  0
   10.3219  -19.9131   26.4611 C   0  0  0  0  0  0  0  0  0  0  0  0
   10.8610  -21.1090   26.1021 N   0  0  0  0  0  0  0  0  0  0  0  0
   11.2975  -20.9403   24.8604 C   0  0  0  0  0  0  0  0  0  0  0  0
   11.0600  -19.7008   24.4244 N   0  0  0  0  0  0  0  0  0  0  0  0
   10.2239  -17.0735   27.6862 C   0  0  0  0  0  0  0  0  0  0  0  0
   10.7414  -18.1620   28.1135 O   0  0  0  0  0  0  0  0  0  0  0  0
   10.5917  -15.9519   28.3614 O   0  0  0  0  0  0  0  0  0  0  0  0
  2  3  1  0
  2  1  1  6
  3  4  1  0
  5  2  1  0
  6  5  2  0
  7  8  1  0
  8  9  1  0
  9 11  1  0
  9 10  1  1
 11 12  1  6
 12  5  1  0
 13 11  1  0
 13 15  1  0
 14 13  2  0
 16 15  1  0
 16 23  1  0
 16 17  1  6
 18 17  1  0
 18 19  2  0
 20 19  1  0
 21 22  2  0
 21 20  1  0
 22 18  1  0
 23 25  1  0
 24 23  2  0
M  END
$$$$
