CIH.pdb
     RDKit          3D

 25 25  0  0  1  0  0  0  0  0999 V2000
    5.5510  -19.3113   23.0909 N   0  0  0  0  0  0  0  0  0  0  0  0
    6.0246  -18.5979   24.2326 C   0  0  1  0  0  0  0  0  0  0  0  0
    6.9638  -19.4611   25.0488 C   0  0  0  0  0  0  0  0  0  0  0  0
    6.1003  -20.8733   25.7779 S   0  0  0  0  0  0  0  0  0  0  0  0
    6.7431  -17.3467   23.8768 C   0  0  0  0  0  0  0  0  0  0  0  0
    7.3596  -17.2703   22.7839 O   0  0  0  0  0  0  0  0  0  0  0  0
    5.4247  -12.5451   26.4725 C   0  0  0  0  0  0  0  0  0  0  0  0
    5.6377  -13.4805   25.2805 C   0  0  0  0  0  0  0  0  0  0  0  0
    7.0866  -13.8183   25.2383 C   0  0  2  0  0  0  0  0  0  0  0  0
    7.8819  -12.6089   24.8535 C   0  0  0  0  0  0  0  0  0  0  0  0
    7.4344  -14.9680   24.3473 C   0  0  2  0  0  0  0  0  0  0  0  0
    6.7845  -16.1947   24.7094 N   0  0  0  0  0  0  0  0  0  0  0  0
    8.9013  -15.1425   24.1540 C   0  0  0  0  0  0  0  0  0  0  0  0
    9.4881  -14.3829   23.3455 O   0  0  0  0  0  0  0  0  0  0  0  0
    9.6486  -16.1278   24.8455 N   0  0  0  0  0  0  0  0  0  0  0  0
   10.3371  -15.8652   26.1241 C   0  0  1  0  0  0  0  0  0  0  0  0
    9.3815  -15.4025   27.1596 C   0  0  0  0  0  0  0  0  0  0  0  0
   10.0017  -15.2471   28.4869 C   0  0  0  0  0  0  0  0  0  0  0  0
   10.3541  -14.1326   29.2112 C   0  0  0  0  0  0  0  0  0  0  0  0
   10.8289  -14.4890   30.4348 N   0  0  0  0  0  0  0  0  0  0  0  0
   10.7676  -15.8141   30.4643 C   0  0  0  0  0  0  0  0  0  0  0  0
   10.2797  -16.3051   29.3225 N   0  0  0  0  0  0  0  0  0  0  0  0
   10.9794  -17.1838   26.5252 C   0  0  0  0  0  0  0  0  0  0  0  0
   10.5279  -18.2768   26.0387 O   0  0  0  0  0  0  0  0  0  0  0  0
   12.0239  -17.3194   27.3855 O   0  0  0  0  0  0  0  0  0  0  0  0
  2  3  1  0
  2  1  1  6
  3  4  1  0
  5  2  1  0
  6  5  2  0
  7  8  1  0
  8  9  1  0
  9 11  1  0
  9 10  1  6
 11 12  1  1
 12  5  1  0
 13 11  1  0
 13 15  1  0
 14 13  2  0
 16 15  1  0
 16 23  1  0
 16 17  1  1
 18 17  1  0
 18 19  2  0
 20 19  1  0
 21 22  2  0
 21 20  1  0
 22 18  1  0
 23 25  1  0
 24 23  2  0
M  END
$$$$
