CIH.pdb
     RDKit          3D

 25 25  0  0  1  0  0  0  0  0999 V2000
    4.9409  -19.1114   19.6902 N   0  0  0  0  0  0  0  0  0  0  0  0
    4.8372  -18.0410   20.6284 C   0  0  1  0  0  0  0  0  0  0  0  0
    4.2813  -18.5391   21.9461 C   0  0  0  0  0  0  0  0  0  0  0  0
    2.5020  -18.8464   21.8407 S   0  0  0  0  0  0  0  0  0  0  0  0
    6.1403  -17.3804   20.8999 C   0  0  0  0  0  0  0  0  0  0  0  0
    7.2063  -18.0396   20.8030 O   0  0  0  0  0  0  0  0  0  0  0  0
    7.1424  -11.9928   20.0679 C   0  0  0  0  0  0  0  0  0  0  0  0
    7.3539  -13.5081   20.0576 C   0  0  0  0  0  0  0  0  0  0  0  0
    7.5579  -13.9346   21.4688 C   0  0  2  0  0  0  0  0  0  0  0  0
    8.8491  -13.3812   21.9880 C   0  0  0  0  0  0  0  0  0  0  0  0
    7.5062  -15.4131   21.6884 C   0  0  2  0  0  0  0  0  0  0  0  0
    6.2717  -16.0145   21.2728 N   0  0  0  0  0  0  0  0  0  0  0  0
    7.8950  -15.8191   23.0681 C   0  0  0  0  0  0  0  0  0  0  0  0
    7.0932  -15.5835   24.0044 O   0  0  0  0  0  0  0  0  0  0  0  0
    9.1276  -16.4559   23.3556 N   0  0  0  0  0  0  0  0  0  0  0  0
    9.4726  -16.9740   24.6936 C   0  0  1  0  0  0  0  0  0  0  0  0
    9.5096  -18.4566   24.6984 C   0  0  0  0  0  0  0  0  0  0  0  0
    8.1682  -19.0659   24.6934 C   0  0  0  0  0  0  0  0  0  0  0  0
    6.9089  -18.5140   24.6672 C   0  0  0  0  0  0  0  0  0  0  0  0
    5.9625  -19.4879   24.5923 N   0  0  0  0  0  0  0  0  0  0  0  0
    6.6347  -20.6317   24.5709 C   0  0  0  0  0  0  0  0  0  0  0  0
    7.9524  -20.4239   24.6290 N   0  0  0  0  0  0  0  0  0  0  0  0
   10.8394  -16.3935   25.0210 C   0  0  0  0  0  0  0  0  0  0  0  0
   11.5325  -15.8543   24.0914 O   0  0  0  0  0  0  0  0  0  0  0  0
   11.4195  -16.3949   26.2510 O   0  0  0  0  0  0  0  0  0  0  0  0
  2  3  1  0
  2  1  1  6
  3  4  1  0
  5  2  1  0
  6  5  2  0
  7  8  1  0
  8  9  1  0
  9 11  1  0
  9 10  1  6
 11 12  1  1
 12  5  1  0
 13 11  1  0
 13 15  1  0
 14 13  2  0
 16 15  1  0
 16 23  1  0
 16 17  1  6
 18 17  1  0
 18 19  2  0
 20 19  1  0
 21 22  2  0
 21 20  1  0
 22 18  1  0
 23 25  1  0
 24 23  2  0
M  END
$$$$
