CIH.pdb
     RDKit          3D

 25 25  0  0  1  0  0  0  0  0999 V2000
   10.4829  -17.4814   16.2027 N   0  0  0  0  0  0  0  0  0  0  0  0
    9.3790  -17.5009   17.1069 C   0  0  1  0  0  0  0  0  0  0  0  0
    9.0416  -18.9224   17.5057 C   0  0  0  0  0  0  0  0  0  0  0  0
    9.5388  -20.1042   16.2299 S   0  0  0  0  0  0  0  0  0  0  0  0
    9.6327  -16.7236   18.3477 C   0  0  0  0  0  0  0  0  0  0  0  0
   10.8015  -16.6381   18.8026 O   0  0  0  0  0  0  0  0  0  0  0  0
    6.6525  -12.2867   19.7454 C   0  0  0  0  0  0  0  0  0  0  0  0
    7.8577  -13.1889   19.4723 C   0  0  0  0  0  0  0  0  0  0  0  0
    7.8880  -14.2210   20.5442 C   0  0  2  0  0  0  0  0  0  0  0  0
    8.1663  -13.5756   21.8668 C   0  0  0  0  0  0  0  0  0  0  0  0
    8.8496  -15.3414   20.3057 C   0  0  2  0  0  0  0  0  0  0  0  0
    8.6171  -16.0491   19.0796 N   0  0  0  0  0  0  0  0  0  0  0  0
    8.9858  -16.2606   21.4703 C   0  0  0  0  0  0  0  0  0  0  0  0
    8.0345  -17.0377   21.7277 O   0  0  0  0  0  0  0  0  0  0  0  0
   10.1419  -16.2863   22.2889 N   0  0  0  0  0  0  0  0  0  0  0  0
   10.2800  -17.1757   23.4584 C   0  0  1  0  0  0  0  0  0  0  0  0
   10.1422  -18.5991   23.0656 C   0  0  0  0  0  0  0  0  0  0  0  0
   11.0321  -18.9782   21.9543 C   0  0  0  0  0  0  0  0  0  0  0  0
   12.0085  -18.2822   21.2811 C   0  0  0  0  0  0  0  0  0  0  0  0
   12.6248  -19.0836   20.3713 N   0  0  0  0  0  0  0  0  0  0  0  0
   12.0327  -20.2657   20.4848 C   0  0  0  0  0  0  0  0  0  0  0  0
   11.0778  -20.2451   21.4179 N   0  0  0  0  0  0  0  0  0  0  0  0
   11.6629  -16.8983   24.0266 C   0  0  0  0  0  0  0  0  0  0  0  0
   12.0619  -17.5462   25.0543 O   0  0  0  0  0  0  0  0  0  0  0  0
   12.5483  -15.9922   23.5321 O   0  0  0  0  0  0  0  0  0  0  0  0
  2  3  1  0
  2  1  1  6
  3  4  1  0
  5  2  1  0
  6  5  2  0
  7  8  1  0
  8  9  1  0
  9 11  1  0
  9 10  1  1
 11 12  1  6
 12  5  1  0
 13 11  1  0
 13 15  1  0
 14 13  2  0
 16 15  1  0
 16 23  1  0
 16 17  1  6
 18 17  1  0
 18 19  2  0
 20 19  1  0
 21 22  2  0
 21 20  1  0
 22 18  1  0
 23 25  1  0
 24 23  2  0
M  END
$$$$
