TAA.pdb
     RDKit          3D

 18 17  0  0  1  0  0  0  0  0999 V2000
   17.0331  -13.2011  -13.0780 C   0  0  0  0  0  0  0  0  0  0  0  0
   15.6815  -13.4326  -13.6654 C   0  0  1  0  0  0  0  0  0  0  0  0
   14.9805  -14.2486  -12.7448 O   0  0  0  0  0  0  0  0  0  0  0  0
   14.8424  -12.1856  -13.8162 C   0  0  2  0  0  0  0  0  0  0  0  0
   13.5841  -12.6383  -14.4330 N   0  0  0  0  0  0  0  0  0  0  0  0
   15.4262  -11.1742  -14.7071 C   0  0  0  0  0  0  0  0  0  0  0  0
   15.6902  -11.4448  -15.9293 O   0  0  0  0  0  0  0  0  0  0  0  0
   15.7220   -7.6182  -15.1917 C   0  0  0  0  0  0  0  0  0  0  0  0
   16.4771   -8.9297  -15.1762 C   0  0  2  0  0  0  0  0  0  0  0  0
   15.7476   -9.8412  -14.3252 N   0  0  0  0  0  0  0  0  0  0  0  0
   17.8810   -8.7521  -14.7241 C   0  0  0  0  0  0  0  0  0  0  0  0
   18.0733   -8.6123  -13.4969 O   0  0  0  0  0  0  0  0  0  0  0  0
   21.3572   -8.8270  -16.2598 C   0  0  0  0  0  0  0  0  0  0  0  0
   20.3545   -8.5810  -15.1741 C   0  0  2  0  0  0  0  0  0  0  0  0
   18.9906   -8.7330  -15.5913 N   0  0  0  0  0  0  0  0  0  0  0  0
   20.5932   -7.2881  -14.4797 C   0  0  0  0  0  0  0  0  0  0  0  0
   21.6409   -7.2383  -13.5748 O   0  0  0  0  0  0  0  0  0  0  0  0
   19.9038   -6.2721  -14.6755 O   0  0  0  0  0  0  0  0  0  0  0  0
  2  1  1  1
  3  2  1  0
  4  6  1  0
  4  5  1  6
  4  2  1  0
  6  7  2  0
  9  8  1  1
  9 11  1  0
 10  9  1  0
 10  6  1  0
 11 15  1  0
 11 12  2  0
 14 13  1  6
 14 16  1  0
 15 14  1  0
 16 18  2  0
 16 17  1  0
M  END
$$$$
