TAA.pdb
     RDKit          3D

 18 17  0  0  1  0  0  0  0  0999 V2000
   25.7509  -27.0443  -16.8415 C   0  0  0  0  0  0  0  0  0  0  0  0
   27.0971  -26.5638  -17.2682 C   0  0  1  0  0  0  0  0  0  0  0  0
   27.2286  -25.2465  -16.7658 O   0  0  0  0  0  0  0  0  0  0  0  0
   28.2536  -27.3357  -16.6778 C   0  0  2  0  0  0  0  0  0  0  0  0
   29.4584  -26.7683  -17.3062 N   0  0  0  0  0  0  0  0  0  0  0  0
   28.2355  -28.7717  -16.9861 C   0  0  0  0  0  0  0  0  0  0  0  0
   28.4747  -29.1958  -18.1692 O   0  0  0  0  0  0  0  0  0  0  0  0
   27.9537  -31.9920  -15.0940 C   0  0  0  0  0  0  0  0  0  0  0  0
   27.9588  -31.2065  -16.3877 C   0  0  2  0  0  0  0  0  0  0  0  0
   27.9623  -29.8032  -16.0440 N   0  0  0  0  0  0  0  0  0  0  0  0
   26.8053  -31.5626  -17.2533 C   0  0  0  0  0  0  0  0  0  0  0  0
   25.7237  -30.9751  -17.0352 O   0  0  0  0  0  0  0  0  0  0  0  0
   26.2324  -32.9522  -20.6290 C   0  0  0  0  0  0  0  0  0  0  0  0
   25.7949  -32.7963  -19.2046 C   0  0  2  0  0  0  0  0  0  0  0  0
   26.8641  -32.5127  -18.2913 N   0  0  0  0  0  0  0  0  0  0  0  0
   24.9531  -33.9361  -18.7538 C   0  0  0  0  0  0  0  0  0  0  0  0
   25.4364  -34.7071  -17.7092 O   0  0  0  0  0  0  0  0  0  0  0  0
   23.8563  -34.2178  -19.2670 O   0  0  0  0  0  0  0  0  0  0  0  0
  2  1  1  1
  3  2  1  0
  4  6  1  0
  4  5  1  6
  4  2  1  0
  6  7  2  0
  9  8  1  1
  9 11  1  0
 10  9  1  0
 10  6  1  0
 11 15  1  0
 11 12  2  0
 14 13  1  6
 14 16  1  0
 15 14  1  0
 16 18  2  0
 16 17  1  0
M  END
$$$$
