TAA.pdb
     RDKit          3D

 18 17  0  0  1  0  0  0  0  0999 V2000
   16.4206   -6.2835   -9.3443 C   0  0  0  0  0  0  0  0  0  0  0  0
   15.9906   -7.7086   -9.4423 C   0  0  1  0  0  0  0  0  0  0  0  0
   14.8880   -7.8542   -8.5660 O   0  0  0  0  0  0  0  0  0  0  0  0
   15.4777   -8.1157  -10.8036 C   0  0  2  0  0  0  0  0  0  0  0  0
   15.2562   -9.5688  -10.7149 N   0  0  0  0  0  0  0  0  0  0  0  0
   16.4311   -7.8853  -11.8970 C   0  0  0  0  0  0  0  0  0  0  0  0
   17.4351   -8.6589  -12.0711 O   0  0  0  0  0  0  0  0  0  0  0  0
   16.7554   -5.5913  -14.8430 C   0  0  0  0  0  0  0  0  0  0  0  0
   17.3270   -6.6093  -13.8799 C   0  0  2  0  0  0  0  0  0  0  0  0
   16.3460   -6.8234  -12.8411 N   0  0  0  0  0  0  0  0  0  0  0  0
   18.6341   -6.1711  -13.3265 C   0  0  0  0  0  0  0  0  0  0  0  0
   18.6093   -5.3915  -12.3497 O   0  0  0  0  0  0  0  0  0  0  0  0
   22.2933   -7.0672  -13.7720 C   0  0  0  0  0  0  0  0  0  0  0  0
   21.1525   -6.2380  -13.2662 C   0  0  2  0  0  0  0  0  0  0  0  0
   19.8815   -6.5811  -13.8359 N   0  0  0  0  0  0  0  0  0  0  0  0
   21.4397   -4.7821  -13.3589 C   0  0  0  0  0  0  0  0  0  0  0  0
   22.3105   -4.2468  -12.4238 O   0  0  0  0  0  0  0  0  0  0  0  0
   20.9395   -4.0427  -14.2243 O   0  0  0  0  0  0  0  0  0  0  0  0
  2  1  1  6
  3  2  1  0
  4  6  1  0
  4  5  1  1
  4  2  1  0
  6  7  2  0
  9  8  1  6
  9 11  1  0
 10  9  1  0
 10  6  1  0
 11 15  1  0
 11 12  2  0
 14 13  1  6
 14 16  1  0
 15 14  1  0
 16 18  2  0
 16 17  1  0
M  END
$$$$
