TAA.pdb
     RDKit          3D

 18 17  0  0  1  0  0  0  0  0999 V2000
   15.6188   -9.0750  -14.8577 C   0  0  0  0  0  0  0  0  0  0  0  0
   16.1801  -10.4449  -14.6746 C   0  0  1  0  0  0  0  0  0  0  0  0
   15.1028  -11.3455  -14.8564 O   0  0  0  0  0  0  0  0  0  0  0  0
   17.2125  -10.8412  -15.7036 C   0  0  2  0  0  0  0  0  0  0  0  0
   17.5933  -12.2211  -15.3580 N   0  0  0  0  0  0  0  0  0  0  0  0
   18.4359  -10.0291  -15.6692 C   0  0  0  0  0  0  0  0  0  0  0  0
   19.1953  -10.0231  -14.6395 O   0  0  0  0  0  0  0  0  0  0  0  0
   20.3892   -7.8907  -18.0504 C   0  0  0  0  0  0  0  0  0  0  0  0
   20.1094   -8.4238  -16.6618 C   0  0  2  0  0  0  0  0  0  0  0  0
   18.8908   -9.1968  -16.7306 N   0  0  0  0  0  0  0  0  0  0  0  0
   20.0171   -7.3309  -15.6600 C   0  0  0  0  0  0  0  0  0  0  0  0
   18.8995   -6.7940  -15.5006 O   0  0  0  0  0  0  0  0  0  0  0  0
   22.1513   -5.7733  -12.9546 C   0  0  0  0  0  0  0  0  0  0  0  0
   21.0569   -5.7691  -13.9778 C   0  0  2  0  0  0  0  0  0  0  0  0
   21.1052   -6.8738  -14.8915 N   0  0  0  0  0  0  0  0  0  0  0  0
   20.9547   -4.4607  -14.6768 C   0  0  0  0  0  0  0  0  0  0  0  0
   20.5639   -3.3671  -13.9214 O   0  0  0  0  0  0  0  0  0  0  0  0
   21.2009   -4.3134  -15.8865 O   0  0  0  0  0  0  0  0  0  0  0  0
  2  1  1  6
  3  2  1  0
  4  6  1  0
  4  5  1  1
  4  2  1  0
  6  7  2  0
  9  8  1  6
  9 11  1  0
 10  9  1  0
 10  6  1  0
 11 15  1  0
 11 12  2  0
 14 13  1  6
 14 16  1  0
 15 14  1  0
 16 18  2  0
 16 17  1  0
M  END
$$$$
