TAA.pdb
     RDKit          3D

 18 17  0  0  1  0  0  0  0  0999 V2000
   16.1834   -8.6462  -10.7448 C   0  0  0  0  0  0  0  0  0  0  0  0
   16.0152  -10.0089  -11.3279 C   0  0  1  0  0  0  0  0  0  0  0  0
   14.8244  -10.5367  -10.7726 O   0  0  0  0  0  0  0  0  0  0  0  0
   15.8035  -10.0283  -12.8234 C   0  0  2  0  0  0  0  0  0  0  0  0
   15.6898  -11.4526  -13.1796 N   0  0  0  0  0  0  0  0  0  0  0  0
   16.9236   -9.4734  -13.5947 C   0  0  0  0  0  0  0  0  0  0  0  0
   18.0639  -10.0534  -13.6127 O   0  0  0  0  0  0  0  0  0  0  0  0
   17.3902   -6.8313  -16.1922 C   0  0  0  0  0  0  0  0  0  0  0  0
   17.9561   -7.8287  -15.2045 C   0  0  2  0  0  0  0  0  0  0  0  0
   16.8657   -8.2827  -14.3725 N   0  0  0  0  0  0  0  0  0  0  0  0
   19.0601   -7.2433  -14.4014 C   0  0  0  0  0  0  0  0  0  0  0  0
   18.7418   -6.5540  -13.4083 O   0  0  0  0  0  0  0  0  0  0  0  0
   22.8197   -7.5746  -14.1424 C   0  0  0  0  0  0  0  0  0  0  0  0
   21.5074   -6.8878  -13.9168 C   0  0  2  0  0  0  0  0  0  0  0  0
   20.4262   -7.4207  -14.6944 N   0  0  0  0  0  0  0  0  0  0  0  0
   21.6235   -5.4111  -14.0464 C   0  0  0  0  0  0  0  0  0  0  0  0
   22.2553   -4.7320  -13.0174 O   0  0  0  0  0  0  0  0  0  0  0  0
   21.1849   -4.7761  -15.0212 O   0  0  0  0  0  0  0  0  0  0  0  0
  2  1  1  1
  3  2  1  0
  4  6  1  0
  4  5  1  6
  4  2  1  0
  6  7  2  0
  9  8  1  6
  9 11  1  0
 10  9  1  0
 10  6  1  0
 11 15  1  0
 11 12  2  0
 14 13  1  6
 14 16  1  0
 15 14  1  0
 16 18  2  0
 16 17  1  0
M  END
$$$$
