TAA.pdb
     RDKit          3D

 18 17  0  0  1  0  0  0  0  0999 V2000
   33.1010  -29.8780  -17.6468 C   0  0  0  0  0  0  0  0  0  0  0  0
   31.7958  -30.5838  -17.7995 C   0  0  1  0  0  0  0  0  0  0  0  0
   31.7219  -30.9987  -19.1513 O   0  0  0  0  0  0  0  0  0  0  0  0
   31.6689  -31.8490  -16.9840 C   0  0  2  0  0  0  0  0  0  0  0  0
   32.5355  -32.8314  -17.6566 N   0  0  0  0  0  0  0  0  0  0  0  0
   30.3120  -32.4107  -16.9560 C   0  0  0  0  0  0  0  0  0  0  0  0
   29.9934  -33.4036  -17.6973 O   0  0  0  0  0  0  0  0  0  0  0  0
   27.2666  -32.0529  -14.8163 C   0  0  0  0  0  0  0  0  0  0  0  0
   27.9661  -32.5896  -16.0464 C   0  0  2  0  0  0  0  0  0  0  0  0
   29.2500  -31.9334  -16.1372 N   0  0  0  0  0  0  0  0  0  0  0  0
   27.1533  -32.3902  -17.2737 C   0  0  0  0  0  0  0  0  0  0  0  0
   27.3090  -31.3165  -17.8947 O   0  0  0  0  0  0  0  0  0  0  0  0
   24.6994  -34.4032  -19.3699 C   0  0  0  0  0  0  0  0  0  0  0  0
   25.4747  -33.1825  -18.9781 C   0  0  2  0  0  0  0  0  0  0  0  0
   26.2303  -33.3322  -17.7680 N   0  0  0  0  0  0  0  0  0  0  0  0
   24.6235  -31.9635  -18.9666 C   0  0  0  0  0  0  0  0  0  0  0  0
   24.1207  -31.5526  -17.7428 O   0  0  0  0  0  0  0  0  0  0  0  0
   24.3515  -31.3127  -19.9905 O   0  0  0  0  0  0  0  0  0  0  0  0
  2  1  1  6
  3  2  1  0
  4  6  1  0
  4  5  1  6
  4  2  1  0
  6  7  2  0
  9  8  1  1
  9 11  1  0
 10  9  1  0
 10  6  1  0
 11 15  1  0
 11 12  2  0
 14 13  1  1
 14 16  1  0
 15 14  1  0
 16 18  2  0
 16 17  1  0
M  END
$$$$
