TAA.pdb
     RDKit          3D

 18 17  0  0  1  0  0  0  0  0999 V2000
   18.3195   -9.2807  -18.8785 C   0  0  0  0  0  0  0  0  0  0  0  0
   18.1654  -10.4955  -18.0266 C   0  0  1  0  0  0  0  0  0  0  0  0
   18.3957  -11.6078  -18.8718 O   0  0  0  0  0  0  0  0  0  0  0  0
   19.1844  -10.6161  -16.9180 C   0  0  2  0  0  0  0  0  0  0  0  0
   18.8426  -11.8627  -16.2124 N   0  0  0  0  0  0  0  0  0  0  0  0
   19.1303   -9.5279  -15.9329 C   0  0  0  0  0  0  0  0  0  0  0  0
   18.0746   -9.3148  -15.2422 O   0  0  0  0  0  0  0  0  0  0  0  0
   21.4790   -7.1443  -14.2929 C   0  0  0  0  0  0  0  0  0  0  0  0
   20.0806   -7.5259  -14.7281 C   0  0  2  0  0  0  0  0  0  0  0  0
   20.1992   -8.6312  -15.6509 N   0  0  0  0  0  0  0  0  0  0  0  0
   19.3575   -6.3762  -15.3297 C   0  0  0  0  0  0  0  0  0  0  0  0
   19.6011   -6.1103  -16.5266 O   0  0  0  0  0  0  0  0  0  0  0  0
   16.3713   -4.2282  -14.5676 C   0  0  0  0  0  0  0  0  0  0  0  0
   17.7068   -4.4766  -15.1997 C   0  0  2  0  0  0  0  0  0  0  0  0
   18.4260   -5.5813  -14.6341 N   0  0  0  0  0  0  0  0  0  0  0  0
   18.5294   -3.2397  -15.2651 C   0  0  0  0  0  0  0  0  0  0  0  0
   18.0246   -2.1806  -16.0018 O   0  0  0  0  0  0  0  0  0  0  0  0
   19.6289   -3.1218  -14.6966 O   0  0  0  0  0  0  0  0  0  0  0  0
  2  1  1  6
  3  2  1  0
  4  6  1  0
  4  5  1  1
  4  2  1  0
  6  7  2  0
  9  8  1  6
  9 11  1  0
 10  9  1  0
 10  6  1  0
 11 15  1  0
 11 12  2  0
 14 13  1  1
 14 16  1  0
 15 14  1  0
 16 18  2  0
 16 17  1  0
M  END
$$$$
