TAA.pdb
     RDKit          3D

 18 17  0  0  1  0  0  0  0  0999 V2000
   17.1723   -9.7838  -14.1745 C   0  0  0  0  0  0  0  0  0  0  0  0
   17.9116  -10.8794  -14.8662 C   0  0  1  0  0  0  0  0  0  0  0  0
   17.0643  -12.0134  -14.8368 O   0  0  0  0  0  0  0  0  0  0  0  0
   18.1873  -10.6224  -16.3290 C   0  0  2  0  0  0  0  0  0  0  0  0
   18.8357  -11.8492  -16.8219 N   0  0  0  0  0  0  0  0  0  0  0  0
   19.1125   -9.5091  -16.5782 C   0  0  0  0  0  0  0  0  0  0  0  0
   20.3310   -9.5647  -16.1919 O   0  0  0  0  0  0  0  0  0  0  0  0
   19.1052   -6.2273  -18.3804 C   0  0  0  0  0  0  0  0  0  0  0  0
   19.6573   -7.1626  -17.3264 C   0  0  2  0  0  0  0  0  0  0  0  0
   18.7703   -8.3003  -17.2473 N   0  0  0  0  0  0  0  0  0  0  0  0
   19.8089   -6.4851  -16.0131 C   0  0  0  0  0  0  0  0  0  0  0  0
   18.8024   -6.4403  -15.2731 O   0  0  0  0  0  0  0  0  0  0  0  0
   22.5815   -5.1436  -13.8285 C   0  0  0  0  0  0  0  0  0  0  0  0
   21.1663   -5.2095  -14.3158 C   0  0  2  0  0  0  0  0  0  0  0  0
   21.0082   -5.8992  -15.5636 N   0  0  0  0  0  0  0  0  0  0  0  0
   20.5180   -3.8715  -14.3227 C   0  0  0  0  0  0  0  0  0  0  0  0
   20.3411   -3.2462  -13.0992 O   0  0  0  0  0  0  0  0  0  0  0  0
   20.1368   -3.3044  -15.3615 O   0  0  0  0  0  0  0  0  0  0  0  0
  2  1  1  6
  3  2  1  0
  4  6  1  0
  4  5  1  1
  4  2  1  0
  6  7  2  0
  9  8  1  6
  9 11  1  0
 10  9  1  0
 10  6  1  0
 11 15  1  0
 11 12  2  0
 14 13  1  6
 14 16  1  0
 15 14  1  0
 16 18  2  0
 16 17  1  0
M  END
$$$$
