TAA.pdb
     RDKit          3D

 18 17  0  0  1  0  0  0  0  0999 V2000
   15.8522   -7.1708  -15.9838 C   0  0  0  0  0  0  0  0  0  0  0  0
   15.9996   -8.6505  -15.8656 C   0  0  1  0  0  0  0  0  0  0  0  0
   14.7554   -9.2075  -16.2482 O   0  0  0  0  0  0  0  0  0  0  0  0
   17.0160   -9.2555  -16.8051 C   0  0  2  0  0  0  0  0  0  0  0  0
   16.9777  -10.7029  -16.5364 N   0  0  0  0  0  0  0  0  0  0  0  0
   18.3937   -8.8040  -16.5695 C   0  0  0  0  0  0  0  0  0  0  0  0
   18.9984   -9.0739  -15.4748 O   0  0  0  0  0  0  0  0  0  0  0  0
   21.0944   -7.0338  -18.4751 C   0  0  0  0  0  0  0  0  0  0  0  0
   20.4891   -7.5415  -17.1842 C   0  0  2  0  0  0  0  0  0  0  0  0
   19.1726   -8.0505  -17.4923 N   0  0  0  0  0  0  0  0  0  0  0  0
   20.4450   -6.4834  -16.1425 C   0  0  0  0  0  0  0  0  0  0  0  0
   19.4575   -5.7170  -16.1473 O   0  0  0  0  0  0  0  0  0  0  0  0
   22.2337   -5.6375  -12.9304 C   0  0  0  0  0  0  0  0  0  0  0  0
   21.4041   -5.3042  -14.1326 C   0  0  2  0  0  0  0  0  0  0  0  0
   21.4414   -6.3002  -15.1642 N   0  0  0  0  0  0  0  0  0  0  0  0
   21.6982   -3.9418  -14.6505 C   0  0  0  0  0  0  0  0  0  0  0  0
   21.3469   -2.8688  -13.8477 O   0  0  0  0  0  0  0  0  0  0  0  0
   22.2356   -3.7330  -15.7521 O   0  0  0  0  0  0  0  0  0  0  0  0
  2  1  1  6
  3  2  1  0
  4  6  1  0
  4  5  1  1
  4  2  1  0
  6  7  2  0
  9  8  1  6
  9 11  1  0
 10  9  1  0
 10  6  1  0
 11 15  1  0
 11 12  2  0
 14 13  1  1
 14 16  1  0
 15 14  1  0
 16 18  2  0
 16 17  1  0
M  END
$$$$
