TAA.pdb
     RDKit          3D

 18 17  0  0  1  0  0  0  0  0999 V2000
   23.8956  -10.9831  -14.8510 C   0  0  0  0  0  0  0  0  0  0  0  0
   23.6354  -11.3284  -16.2786 C   0  0  1  0  0  0  0  0  0  0  0  0
   23.9877  -12.6914  -16.4304 O   0  0  0  0  0  0  0  0  0  0  0  0
   22.1844  -11.2410  -16.6895 C   0  0  2  0  0  0  0  0  0  0  0  0
   22.1634  -11.6075  -18.1156 N   0  0  0  0  0  0  0  0  0  0  0  0
   21.6093   -9.8941  -16.5764 C   0  0  0  0  0  0  0  0  0  0  0  0
   22.0192   -8.9370  -17.3199 O   0  0  0  0  0  0  0  0  0  0  0  0
   18.7538   -8.2477  -14.8088 C   0  0  0  0  0  0  0  0  0  0  0  0
   20.0629   -8.1770  -15.5650 C   0  0  2  0  0  0  0  0  0  0  0  0
   20.5786   -9.5227  -15.6677 N   0  0  0  0  0  0  0  0  0  0  0  0
   21.0303   -7.2609  -14.9080 C   0  0  0  0  0  0  0  0  0  0  0  0
   21.6826   -7.7145  -13.9430 O   0  0  0  0  0  0  0  0  0  0  0  0
   22.4023   -3.7574  -15.4210 C   0  0  0  0  0  0  0  0  0  0  0  0
   22.1172   -5.0034  -14.6394 C   0  0  2  0  0  0  0  0  0  0  0  0
   21.2486   -5.9284  -15.3082 N   0  0  0  0  0  0  0  0  0  0  0  0
   21.6636   -4.7001  -13.2562 C   0  0  0  0  0  0  0  0  0  0  0  0
   22.6203   -4.2553  -12.3583 O   0  0  0  0  0  0  0  0  0  0  0  0
   20.4846   -4.8276  -12.8824 O   0  0  0  0  0  0  0  0  0  0  0  0
  2  1  1  1
  3  2  1  0
  4  6  1  0
  4  5  1  6
  4  2  1  0
  6  7  2  0
  9  8  1  1
  9 11  1  0
 10  9  1  0
 10  6  1  0
 11 15  1  0
 11 12  2  0
 14 13  1  6
 14 16  1  0
 15 14  1  0
 16 18  2  0
 16 17  1  0
M  END
$$$$
