TAA.pdb
     RDKit          3D

 18 17  0  0  1  0  0  0  0  0999 V2000
   14.9440   -7.1849  -12.2393 C   0  0  0  0  0  0  0  0  0  0  0  0
   15.1895   -8.1730  -11.1491 C   0  0  1  0  0  0  0  0  0  0  0  0
   13.9181   -8.6521  -10.7506 O   0  0  0  0  0  0  0  0  0  0  0  0
   15.9638   -9.3976  -11.5766 C   0  0  2  0  0  0  0  0  0  0  0  0
   16.1258  -10.1998  -10.3523 N   0  0  0  0  0  0  0  0  0  0  0  0
   17.3092   -9.1074  -12.0896 C   0  0  0  0  0  0  0  0  0  0  0  0
   18.2288   -8.6658  -11.3175 O   0  0  0  0  0  0  0  0  0  0  0  0
   19.1537   -9.4490  -15.3410 C   0  0  0  0  0  0  0  0  0  0  0  0
   19.0520   -8.9723  -13.9081 C   0  0  2  0  0  0  0  0  0  0  0  0
   17.7193   -9.2784  -13.4419 N   0  0  0  0  0  0  0  0  0  0  0  0
   19.3639   -7.5251  -13.7852 C   0  0  0  0  0  0  0  0  0  0  0  0
   18.4342   -6.7190  -14.0049 O   0  0  0  0  0  0  0  0  0  0  0  0
   22.2212   -5.3475  -12.5823 C   0  0  0  0  0  0  0  0  0  0  0  0
   20.9623   -5.6273  -13.3448 C   0  0  2  0  0  0  0  0  0  0  0  0
   20.6324   -7.0201  -13.4395 N   0  0  0  0  0  0  0  0  0  0  0  0
   20.9532   -4.9523  -14.6696 C   0  0  0  0  0  0  0  0  0  0  0  0
   21.0613   -5.7570  -15.7921 O   0  0  0  0  0  0  0  0  0  0  0  0
   20.8545   -3.7204  -14.8059 O   0  0  0  0  0  0  0  0  0  0  0  0
  2  1  1  6
  3  2  1  0
  4  6  1  0
  4  5  1  1
  4  2  1  0
  6  7  2  0
  9  8  1  6
  9 11  1  0
 10  9  1  0
 10  6  1  0
 11 15  1  0
 11 12  2  0
 14 13  1  6
 14 16  1  0
 15 14  1  0
 16 18  2  0
 16 17  1  0
M  END
$$$$
