TAA.pdb
     RDKit          3D

 18 17  0  0  1  0  0  0  0  0999 V2000
   16.5996  -11.8027  -14.5912 C   0  0  0  0  0  0  0  0  0  0  0  0
   17.4833  -10.6352  -14.8758 C   0  0  1  0  0  0  0  0  0  0  0  0
   18.7176  -10.9032  -14.2357 O   0  0  0  0  0  0  0  0  0  0  0  0
   17.8212  -10.4468  -16.3360 C   0  0  2  0  0  0  0  0  0  0  0  0
   18.5780  -11.6513  -16.7165 N   0  0  0  0  0  0  0  0  0  0  0  0
   18.6807   -9.2872  -16.6078 C   0  0  0  0  0  0  0  0  0  0  0  0
   19.9330   -9.4309  -16.8270 O   0  0  0  0  0  0  0  0  0  0  0  0
   18.2418   -5.6316  -17.2725 C   0  0  0  0  0  0  0  0  0  0  0  0
   19.1118   -6.8239  -16.9378 C   0  0  2  0  0  0  0  0  0  0  0  0
   18.2345   -7.9363  -16.6552 N   0  0  0  0  0  0  0  0  0  0  0  0
   20.0271   -6.5372  -15.8035 C   0  0  0  0  0  0  0  0  0  0  0  0
   19.5928   -6.7485  -14.6506 O   0  0  0  0  0  0  0  0  0  0  0  0
   23.6479   -5.4973  -15.3052 C   0  0  0  0  0  0  0  0  0  0  0  0
   22.2379   -5.7631  -14.8742 C   0  0  2  0  0  0  0  0  0  0  0  0
   21.3388   -6.0472  -15.9552 N   0  0  0  0  0  0  0  0  0  0  0  0
   21.7218   -4.6982  -13.9739 C   0  0  0  0  0  0  0  0  0  0  0  0
   22.2071   -4.6744  -12.6766 O   0  0  0  0  0  0  0  0  0  0  0  0
   20.8897   -3.8468  -14.3327 O   0  0  0  0  0  0  0  0  0  0  0  0
  2  1  1  6
  3  2  1  0
  4  6  1  0
  4  5  1  1
  4  2  1  0
  6  7  2  0
  9  8  1  1
  9 11  1  0
 10  9  1  0
 10  6  1  0
 11 15  1  0
 11 12  2  0
 14 13  1  6
 14 16  1  0
 15 14  1  0
 16 18  2  0
 16 17  1  0
M  END
$$$$
