TAA.pdb
     RDKit          3D

 18 17  0  0  1  0  0  0  0  0999 V2000
   17.7967  -12.5312  -15.6204 C   0  0  0  0  0  0  0  0  0  0  0  0
   18.6897  -11.3535  -15.8228 C   0  0  1  0  0  0  0  0  0  0  0  0
   19.6440  -11.3917  -14.7775 O   0  0  0  0  0  0  0  0  0  0  0  0
   19.4933  -11.3894  -17.1013 C   0  0  2  0  0  0  0  0  0  0  0  0
   20.3959  -12.5442  -16.9587 N   0  0  0  0  0  0  0  0  0  0  0  0
   20.3325  -10.2031  -17.3155 C   0  0  0  0  0  0  0  0  0  0  0  0
   21.5774  -10.2134  -17.0203 O   0  0  0  0  0  0  0  0  0  0  0  0
   20.0480   -6.9171  -19.0599 C   0  0  0  0  0  0  0  0  0  0  0  0
   20.7384   -7.8308  -18.0704 C   0  0  2  0  0  0  0  0  0  0  0  0
   19.8733   -8.9670  -17.8514 N   0  0  0  0  0  0  0  0  0  0  0  0
   21.0613   -7.1270  -16.8027 C   0  0  0  0  0  0  0  0  0  0  0  0
   20.2149   -7.1851  -15.8846 O   0  0  0  0  0  0  0  0  0  0  0  0
   24.0022   -5.2371  -15.3089 C   0  0  0  0  0  0  0  0  0  0  0  0
   22.5900   -5.7346  -15.3624 C   0  0  2  0  0  0  0  0  0  0  0  0
   22.2524   -6.4083  -16.5829 N   0  0  0  0  0  0  0  0  0  0  0  0
   21.6121   -4.6700  -15.0145 C   0  0  0  0  0  0  0  0  0  0  0  0
   21.5695   -4.2553  -13.6933 O   0  0  0  0  0  0  0  0  0  0  0  0
   20.8479   -4.1489  -15.8453 O   0  0  0  0  0  0  0  0  0  0  0  0
  2  1  1  1
  3  2  1  0
  4  6  1  0
  4  5  1  1
  4  2  1  0
  6  7  2  0
  9  8  1  6
  9 11  1  0
 10  9  1  0
 10  6  1  0
 11 15  1  0
 11 12  2  0
 14 13  1  6
 14 16  1  0
 15 14  1  0
 16 18  2  0
 16 17  1  0
M  END
$$$$
