TTK.pdb
     RDKit          3D

 24 23  0  0  1  0  0  0  0  0999 V2000
   20.3298  -15.3738  -16.3684 C   0  0  0  0  0  0  0  0  0  0  0  0
   18.8737  -15.4281  -16.0059 C   0  0  1  0  0  0  0  0  0  0  0  0
   18.6352  -14.8033  -14.7837 O   0  0  0  0  0  0  0  0  0  0  0  0
   18.1079  -14.6270  -17.0523 C   0  0  2  0  0  0  0  0  0  0  0  0
   18.1900  -15.3661  -18.2926 N   0  0  0  0  0  0  0  0  0  0  0  0
   18.6746  -13.2561  -17.1903 C   0  0  0  0  0  0  0  0  0  0  0  0
   19.7588  -13.0359  -17.7875 O   0  0  0  0  0  0  0  0  0  0  0  0
   16.4508   -9.9890  -17.6935 C   0  0  0  0  0  0  0  0  0  0  0  0
   17.4867   -9.7112  -16.6216 C   0  0  1  0  0  0  0  0  0  0  0  0
   16.8688   -9.7118  -15.3892 O   0  0  0  0  0  0  0  0  0  0  0  0
   18.5539  -10.7689  -16.7539 C   0  0  2  0  0  0  0  0  0  0  0  0
   18.0141  -12.1055  -16.6483 N   0  0  0  0  0  0  0  0  0  0  0  0
   19.7068  -10.5411  -15.8531 C   0  0  0  0  0  0  0  0  0  0  0  0
   20.1681  -11.5436  -15.2600 O   0  0  0  0  0  0  0  0  0  0  0  0
   20.3028   -9.2793  -15.6308 N   0  0  0  0  0  0  0  0  0  0  0  0
   21.6335   -9.0914  -15.0162 C   0  0  1  0  0  0  0  0  0  0  0  0
   22.6733   -9.8716  -15.6544 C   0  0  0  0  0  0  0  0  0  0  0  0
   24.0811   -9.7307  -15.2273 C   0  0  0  0  0  0  0  0  0  0  0  0
   25.1286  -10.5719  -15.8441 C   0  0  0  0  0  0  0  0  0  0  0  0
   26.5345  -10.5137  -15.4413 C   0  0  0  0  0  0  0  0  0  0  0  0
   27.4471  -11.4197  -16.0667 N   0  0  0  0  0  0  0  0  0  0  0  0
   21.9106   -7.5987  -15.0418 C   0  0  0  0  0  0  0  0  0  0  0  0
   21.3850   -6.7606  -16.0074 O   0  0  0  0  0  0  0  0  0  0  0  0
   22.6276   -7.1101  -14.1712 O   0  0  0  0  0  0  0  0  0  0  0  0
  2  3  1  0
  2  1  1  6
  4  2  1  0
  4  5  1  6
  6  7  2  0
  6  4  1  0
  9  8  1  6
  9 10  1  0
  9 11  1  0
 11 12  1  1
 12  6  1  0
 13 11  1  0
 13 15  1  0
 14 13  2  0
 16 15  1  0
 16 22  1  0
 16 17  1  6
 17 18  1  0
 19 18  1  0
 20 19  1  0
 20 21  1  0
 22 23  1  0
 24 22  2  0
M  END
$$$$
