TTK.pdb
     RDKit          3D

 24 23  0  0  1  0  0  0  0  0999 V2000
   27.0430  -18.6317  -13.9977 C   0  0  0  0  0  0  0  0  0  0  0  0
   27.5719  -19.9089  -13.4116 C   0  0  1  0  0  0  0  0  0  0  0  0
   28.6596  -19.6669  -12.5752 O   0  0  0  0  0  0  0  0  0  0  0  0
   26.4777  -20.4995  -12.5301 C   0  0  2  0  0  0  0  0  0  0  0  0
   27.0443  -21.6559  -11.8722 N   0  0  0  0  0  0  0  0  0  0  0  0
   25.2802  -20.8591  -13.3402 C   0  0  0  0  0  0  0  0  0  0  0  0
   25.3493  -21.6241  -14.3354 O   0  0  0  0  0  0  0  0  0  0  0  0
   22.4272  -22.7601  -12.5791 C   0  0  0  0  0  0  0  0  0  0  0  0
   21.7834  -21.4479  -12.9826 C   0  0  1  0  0  0  0  0  0  0  0  0
   21.3856  -20.7750  -11.8470 O   0  0  0  0  0  0  0  0  0  0  0  0
   22.8000  -20.6899  -13.7994 C   0  0  2  0  0  0  0  0  0  0  0  0
   23.9761  -20.3518  -13.0304 N   0  0  0  0  0  0  0  0  0  0  0  0
   22.2198  -19.5250  -14.5057 C   0  0  0  0  0  0  0  0  0  0  0  0
   22.3685  -18.4044  -13.9656 O   0  0  0  0  0  0  0  0  0  0  0  0
   21.5215  -19.6074  -15.7315 N   0  0  0  0  0  0  0  0  0  0  0  0
   20.9642  -18.4392  -16.4445 C   0  0  1  0  0  0  0  0  0  0  0  0
   21.5758  -18.2136  -17.7377 C   0  0  0  0  0  0  0  0  0  0  0  0
   21.0942  -17.1234  -18.6115 C   0  0  0  0  0  0  0  0  0  0  0  0
   21.7005  -16.9217  -19.9446 C   0  0  0  0  0  0  0  0  0  0  0  0
   21.3323  -15.8126  -20.8258 C   0  0  0  0  0  0  0  0  0  0  0  0
   21.9995  -15.7107  -22.0865 N   0  0  0  0  0  0  0  0  0  0  0  0
   19.4647  -18.6629  -16.5276 C   0  0  0  0  0  0  0  0  0  0  0  0
   18.5614  -17.6218  -16.6325 O   0  0  0  0  0  0  0  0  0  0  0  0
   19.0310  -19.8128  -16.5034 O   0  0  0  0  0  0  0  0  0  0  0  0
  2  3  1  0
  2  1  1  1
  4  2  1  0
  4  5  1  6
  6  7  2  0
  6  4  1  0
  9  8  1  1
  9 10  1  0
  9 11  1  0
 11 12  1  1
 12  6  1  0
 13 11  1  0
 13 15  1  0
 14 13  2  0
 16 15  1  0
 16 22  1  0
 16 17  1  6
 17 18  1  0
 19 18  1  0
 20 19  1  0
 20 21  1  0
 22 23  1  0
 24 22  2  0
M  END
$$$$
