TTK.pdb
     RDKit          3D

 24 23  0  0  1  0  0  0  0  0999 V2000
   18.4070  -10.9884  -18.8177 C   0  0  0  0  0  0  0  0  0  0  0  0
   18.2409  -12.1369  -17.8649 C   0  0  1  0  0  0  0  0  0  0  0  0
   18.1538  -13.3487  -18.5469 O   0  0  0  0  0  0  0  0  0  0  0  0
   19.5024  -12.2153  -17.0130 C   0  0  2  0  0  0  0  0  0  0  0  0
   19.4714  -13.4895  -16.3297 N   0  0  0  0  0  0  0  0  0  0  0  0
   19.5660  -11.0777  -16.0532 C   0  0  0  0  0  0  0  0  0  0  0  0
   18.7180  -10.9249  -15.1377 O   0  0  0  0  0  0  0  0  0  0  0  0
   21.7660   -7.0837  -14.2163 C   0  0  0  0  0  0  0  0  0  0  0  0
   21.9305   -8.4264  -14.9015 C   0  0  1  0  0  0  0  0  0  0  0  0
   22.5150   -9.3113  -14.0207 O   0  0  0  0  0  0  0  0  0  0  0  0
   20.5602   -8.8591  -15.3599 C   0  0  2  0  0  0  0  0  0  0  0  0
   20.6011  -10.0886  -16.1185 N   0  0  0  0  0  0  0  0  0  0  0  0
   19.8159   -7.7814  -16.0505 C   0  0  0  0  0  0  0  0  0  0  0  0
   20.1942   -7.4841  -17.2073 O   0  0  0  0  0  0  0  0  0  0  0  0
   18.7238   -7.0841  -15.4865 N   0  0  0  0  0  0  0  0  0  0  0  0
   18.0202   -5.9706  -16.1567 C   0  0  1  0  0  0  0  0  0  0  0  0
   16.5833   -6.1461  -16.2002 C   0  0  0  0  0  0  0  0  0  0  0  0
   15.9833   -7.1793  -17.0699 C   0  0  0  0  0  0  0  0  0  0  0  0
   14.8451   -7.9867  -16.5820 C   0  0  0  0  0  0  0  0  0  0  0  0
   14.1383   -8.9541  -17.4226 C   0  0  0  0  0  0  0  0  0  0  0  0
   13.1036   -9.7345  -16.8185 N   0  0  0  0  0  0  0  0  0  0  0  0
   18.4421   -4.7020  -15.4369 C   0  0  0  0  0  0  0  0  0  0  0  0
   18.4809   -3.4695  -16.0617 O   0  0  0  0  0  0  0  0  0  0  0  0
   18.7608   -4.7666  -14.2516 O   0  0  0  0  0  0  0  0  0  0  0  0
  2  3  1  0
  2  1  1  6
  4  2  1  0
  4  5  1  1
  6  7  2  0
  6  4  1  0
  9  8  1  1
  9 10  1  0
  9 11  1  0
 11 12  1  6
 12  6  1  0
 13 11  1  0
 13 15  1  0
 14 13  2  0
 16 15  1  0
 16 22  1  0
 16 17  1  1
 17 18  1  0
 19 18  1  0
 20 19  1  0
 20 21  1  0
 22 23  1  0
 24 22  2  0
M  END
$$$$
