TTK.pdb
     RDKit          3D

 24 23  0  0  1  0  0  0  0  0999 V2000
   17.4055   -9.2929  -17.4731 C   0  0  0  0  0  0  0  0  0  0  0  0
   17.0606  -10.4615  -16.5957 C   0  0  1  0  0  0  0  0  0  0  0  0
   16.2396  -11.3677  -17.2633 O   0  0  0  0  0  0  0  0  0  0  0  0
   18.3554  -11.2043  -16.2873 C   0  0  2  0  0  0  0  0  0  0  0  0
   17.9897  -12.4192  -15.5934 N   0  0  0  0  0  0  0  0  0  0  0  0
   19.2707  -10.3586  -15.4708 C   0  0  0  0  0  0  0  0  0  0  0  0
   18.9740   -9.9773  -14.3102 O   0  0  0  0  0  0  0  0  0  0  0  0
   22.9027  -10.9681  -14.6159 C   0  0  0  0  0  0  0  0  0  0  0  0
   22.8727   -9.5974  -15.2636 C   0  0  1  0  0  0  0  0  0  0  0  0
   23.3489   -9.6997  -16.5533 O   0  0  0  0  0  0  0  0  0  0  0  0
   21.4485   -9.1057  -15.1912 C   0  0  2  0  0  0  0  0  0  0  0  0
   20.5464   -9.9297  -15.9633 N   0  0  0  0  0  0  0  0  0  0  0  0
   21.3195   -7.6638  -15.5022 C   0  0  0  0  0  0  0  0  0  0  0  0
   21.1662   -7.3564  -16.7070 O   0  0  0  0  0  0  0  0  0  0  0  0
   21.3592   -6.6364  -14.5328 N   0  0  0  0  0  0  0  0  0  0  0  0
   21.4211   -5.1961  -14.8580 C   0  0  1  0  0  0  0  0  0  0  0  0
   20.1384   -4.5316  -14.7571 C   0  0  0  0  0  0  0  0  0  0  0  0
   19.0958   -4.7618  -15.7789 C   0  0  0  0  0  0  0  0  0  0  0  0
   17.7647   -5.2640  -15.3771 C   0  0  0  0  0  0  0  0  0  0  0  0
   16.6749   -5.4783  -16.3303 C   0  0  0  0  0  0  0  0  0  0  0  0
   15.4278   -5.9595  -15.8226 N   0  0  0  0  0  0  0  0  0  0  0  0
   22.4748   -4.5954  -13.9446 C   0  0  0  0  0  0  0  0  0  0  0  0
   22.9537   -3.3087  -14.1060 O   0  0  0  0  0  0  0  0  0  0  0  0
   22.9216   -5.2740  -13.0223 O   0  0  0  0  0  0  0  0  0  0  0  0
  2  3  1  0
  2  1  1  6
  4  2  1  0
  4  5  1  1
  6  7  2  0
  6  4  1  0
  9  8  1  6
  9 10  1  0
  9 11  1  0
 11 12  1  6
 12  6  1  0
 13 11  1  0
 13 15  1  0
 14 13  2  0
 16 15  1  0
 16 22  1  0
 16 17  1  1
 17 18  1  0
 19 18  1  0
 20 19  1  0
 20 21  1  0
 22 23  1  0
 24 22  2  0
M  END
$$$$
