TTK.pdb
     RDKit          3D

 24 23  0  0  1  0  0  0  0  0999 V2000
   16.4856  -11.1169  -17.4062 C   0  0  0  0  0  0  0  0  0  0  0  0
   16.2638  -11.8087  -16.0921 C   0  0  1  0  0  0  0  0  0  0  0  0
   15.5689  -13.0041  -16.2631 O   0  0  0  0  0  0  0  0  0  0  0  0
   17.6308  -12.1849  -15.5328 C   0  0  2  0  0  0  0  0  0  0  0  0
   17.3987  -13.0573  -14.4030 N   0  0  0  0  0  0  0  0  0  0  0  0
   18.3966  -10.9687  -15.1405 C   0  0  0  0  0  0  0  0  0  0  0  0
   17.9985  -10.1875  -14.2395 O   0  0  0  0  0  0  0  0  0  0  0  0
   22.2316  -10.7116  -14.4971 C   0  0  0  0  0  0  0  0  0  0  0  0
   21.8729   -9.6478  -15.5164 C   0  0  1  0  0  0  0  0  0  0  0  0
   22.2855  -10.0642  -16.7642 O   0  0  0  0  0  0  0  0  0  0  0  0
   20.3831   -9.4308  -15.4229 C   0  0  2  0  0  0  0  0  0  0  0  0
   19.6355  -10.6180  -15.7699 N   0  0  0  0  0  0  0  0  0  0  0  0
   19.9279   -8.2288  -16.1579 C   0  0  0  0  0  0  0  0  0  0  0  0
   19.2478   -8.4219  -17.1923 O   0  0  0  0  0  0  0  0  0  0  0  0
   20.2134   -6.9021  -15.7636 N   0  0  0  0  0  0  0  0  0  0  0  0
   19.7562   -5.7053  -16.5001 C   0  0  1  0  0  0  0  0  0  0  0  0
   18.3254   -5.6829  -16.7225 C   0  0  0  0  0  0  0  0  0  0  0  0
   17.6827   -4.4992  -17.3305 C   0  0  0  0  0  0  0  0  0  0  0  0
   16.2208   -4.4824  -17.5499 C   0  0  0  0  0  0  0  0  0  0  0  0
   15.5273   -3.3700  -18.2009 C   0  0  0  0  0  0  0  0  0  0  0  0
   14.1039   -3.4446  -18.3148 N   0  0  0  0  0  0  0  0  0  0  0  0
   20.2544   -4.5038  -15.7167 C   0  0  0  0  0  0  0  0  0  0  0  0
   20.4561   -3.2667  -16.2997 O   0  0  0  0  0  0  0  0  0  0  0  0
   20.4871   -4.6291  -14.5164 O   0  0  0  0  0  0  0  0  0  0  0  0
  2  3  1  0
  2  1  1  6
  4  2  1  0
  4  5  1  1
  6  7  2  0
  6  4  1  0
  9  8  1  1
  9 10  1  0
  9 11  1  0
 11 12  1  6
 12  6  1  0
 13 11  1  0
 13 15  1  0
 14 13  2  0
 16 15  1  0
 16 22  1  0
 16 17  1  1
 17 18  1  0
 19 18  1  0
 20 19  1  0
 20 21  1  0
 22 23  1  0
 24 22  2  0
M  END
$$$$
