TTK.pdb
     RDKit          3D

 24 23  0  0  1  0  0  0  0  0999 V2000
   28.7978  -11.7310  -15.3738 C   0  0  0  0  0  0  0  0  0  0  0  0
   27.4989  -11.0588  -15.7141 C   0  0  1  0  0  0  0  0  0  0  0  0
   27.6762   -9.6912  -15.9121 O   0  0  0  0  0  0  0  0  0  0  0  0
   27.0219  -11.6255  -17.0463 C   0  0  2  0  0  0  0  0  0  0  0  0
   28.0150  -11.2701  -18.0356 N   0  0  0  0  0  0  0  0  0  0  0  0
   25.6772  -11.0901  -17.3995 C   0  0  0  0  0  0  0  0  0  0  0  0
   25.5196  -10.1917  -18.2647 O   0  0  0  0  0  0  0  0  0  0  0  0
   20.8027  -11.5654  -17.4569 C   0  0  0  0  0  0  0  0  0  0  0  0
   22.1104  -12.1595  -16.9708 C   0  0  1  0  0  0  0  0  0  0  0  0
   22.3822  -13.3002  -17.6958 O   0  0  0  0  0  0  0  0  0  0  0  0
   23.1644  -11.0913  -17.1228 C   0  0  2  0  0  0  0  0  0  0  0  0
   24.4819  -11.5701  -16.7712 N   0  0  0  0  0  0  0  0  0  0  0  0
   22.8089   -9.8284  -16.4364 C   0  0  0  0  0  0  0  0  0  0  0  0
   23.1095   -9.7398  -15.2233 O   0  0  0  0  0  0  0  0  0  0  0  0
   22.1620   -8.7395  -17.0631 N   0  0  0  0  0  0  0  0  0  0  0  0
   21.7048   -7.5288  -16.3496 C   0  0  1  0  0  0  0  0  0  0  0  0
   21.2705   -6.4712  -17.2384 C   0  0  0  0  0  0  0  0  0  0  0  0
   20.6338   -5.2533  -16.6947 C   0  0  0  0  0  0  0  0  0  0  0  0
   20.2699   -4.1424  -17.5996 C   0  0  0  0  0  0  0  0  0  0  0  0
   19.5390   -2.9570  -17.1491 C   0  0  0  0  0  0  0  0  0  0  0  0
   19.3427   -1.8961  -18.0875 N   0  0  0  0  0  0  0  0  0  0  0  0
   20.6189   -7.9814  -15.3897 C   0  0  0  0  0  0  0  0  0  0  0  0
   20.5491   -7.5381  -14.0822 O   0  0  0  0  0  0  0  0  0  0  0  0
   19.7641   -8.7710  -15.7855 O   0  0  0  0  0  0  0  0  0  0  0  0
  2  3  1  0
  2  1  1  6
  4  2  1  0
  4  5  1  6
  6  7  2  0
  6  4  1  0
  9  8  1  6
  9 10  1  0
  9 11  1  0
 11 12  1  1
 12  6  1  0
 13 11  1  0
 13 15  1  0
 14 13  2  0
 16 15  1  0
 16 22  1  0
 16 17  1  6
 17 18  1  0
 19 18  1  0
 20 19  1  0
 20 21  1  0
 22 23  1  0
 24 22  2  0
M  END
$$$$
