TTK.pdb
     RDKit          3D

 24 23  0  0  1  0  0  0  0  0999 V2000
   18.5377  -12.4835  -19.1194 C   0  0  0  0  0  0  0  0  0  0  0  0
   19.0373  -11.6171  -17.9995 C   0  0  1  0  0  0  0  0  0  0  0  0
   18.1093  -11.5493  -16.9625 O   0  0  0  0  0  0  0  0  0  0  0  0
   20.2789  -12.2841  -17.4193 C   0  0  2  0  0  0  0  0  0  0  0  0
   19.8665  -13.5738  -16.9114 N   0  0  0  0  0  0  0  0  0  0  0  0
   20.8845  -11.4402  -16.3512 C   0  0  0  0  0  0  0  0  0  0  0  0
   20.4857  -11.4790  -15.1595 O   0  0  0  0  0  0  0  0  0  0  0  0
   24.2733  -11.3249  -15.1251 C   0  0  0  0  0  0  0  0  0  0  0  0
   24.0366   -9.8739  -15.4965 C   0  0  1  0  0  0  0  0  0  0  0  0
   24.7101   -9.5943  -16.6664 O   0  0  0  0  0  0  0  0  0  0  0  0
   22.5443   -9.6843  -15.6079 C   0  0  2  0  0  0  0  0  0  0  0  0
   21.9601  -10.5327  -16.6217 N   0  0  0  0  0  0  0  0  0  0  0  0
   22.1524   -8.2636  -15.7506 C   0  0  0  0  0  0  0  0  0  0  0  0
   21.6474   -7.9232  -16.8455 O   0  0  0  0  0  0  0  0  0  0  0  0
   22.3140   -7.2904  -14.7388 N   0  0  0  0  0  0  0  0  0  0  0  0
   21.8987   -5.8789  -14.8768 C   0  0  1  0  0  0  0  0  0  0  0  0
   20.4921   -5.7243  -15.1846 C   0  0  0  0  0  0  0  0  0  0  0  0
   19.8669   -4.3853  -15.1679 C   0  0  0  0  0  0  0  0  0  0  0  0
   18.4108   -4.2464  -15.3825 C   0  0  0  0  0  0  0  0  0  0  0  0
   17.7382   -2.9485  -15.4554 C   0  0  0  0  0  0  0  0  0  0  0  0
   16.3573   -2.9312  -15.8261 N   0  0  0  0  0  0  0  0  0  0  0  0
   22.3047   -5.1848  -13.5889 C   0  0  0  0  0  0  0  0  0  0  0  0
   22.6515   -5.8805  -12.4458 O   0  0  0  0  0  0  0  0  0  0  0  0
   22.3302   -3.9563  -13.5558 O   0  0  0  0  0  0  0  0  0  0  0  0
  2  3  1  0
  2  1  1  6
  4  2  1  0
  4  5  1  1
  6  7  2  0
  6  4  1  0
  9  8  1  6
  9 10  1  0
  9 11  1  0
 11 12  1  6
 12  6  1  0
 13 11  1  0
 13 15  1  0
 14 13  2  0
 16 15  1  0
 16 22  1  0
 16 17  1  1
 17 18  1  0
 19 18  1  0
 20 19  1  0
 20 21  1  0
 22 23  1  0
 24 22  2  0
M  END
$$$$
