TTK.pdb
     RDKit          3D

 24 23  0  0  1  0  0  0  0  0999 V2000
   18.7329  -10.9703  -18.8844 C   0  0  0  0  0  0  0  0  0  0  0  0
   18.7021  -12.0720  -17.8647 C   0  0  1  0  0  0  0  0  0  0  0  0
   18.8920  -13.3164  -18.4616 O   0  0  0  0  0  0  0  0  0  0  0  0
   19.8840  -11.8636  -16.9250 C   0  0  2  0  0  0  0  0  0  0  0  0
   19.9640  -13.0356  -16.0816 N   0  0  0  0  0  0  0  0  0  0  0  0
   19.7117  -10.6197  -16.1235 C   0  0  0  0  0  0  0  0  0  0  0  0
   18.6654  -10.3845  -15.4674 O   0  0  0  0  0  0  0  0  0  0  0  0
   21.6474   -6.7154  -13.8712 C   0  0  0  0  0  0  0  0  0  0  0  0
   21.9220   -7.9610  -14.6913 C   0  0  1  0  0  0  0  0  0  0  0  0
   22.5247   -8.9044  -13.8868 O   0  0  0  0  0  0  0  0  0  0  0  0
   20.6006   -8.4170  -15.2579 C   0  0  2  0  0  0  0  0  0  0  0  0
   20.7324   -9.6160  -16.0541 N   0  0  0  0  0  0  0  0  0  0  0  0
   19.8706   -7.3372  -15.9602 C   0  0  0  0  0  0  0  0  0  0  0  0
   20.2853   -7.0222  -17.0997 O   0  0  0  0  0  0  0  0  0  0  0  0
   18.7537   -6.6564  -15.4254 N   0  0  0  0  0  0  0  0  0  0  0  0
   18.0036   -5.6067  -16.1462 C   0  0  1  0  0  0  0  0  0  0  0  0
   16.6063   -5.5429  -15.7712 C   0  0  0  0  0  0  0  0  0  0  0  0
   15.7339   -4.4831  -16.3188 C   0  0  0  0  0  0  0  0  0  0  0  0
   14.3399   -4.3541  -15.8437 C   0  0  0  0  0  0  0  0  0  0  0  0
   13.4182   -3.3364  -16.3507 C   0  0  0  0  0  0  0  0  0  0  0  0
   12.1712   -3.1663  -15.6720 N   0  0  0  0  0  0  0  0  0  0  0  0
   18.7447   -4.3046  -15.8998 C   0  0  0  0  0  0  0  0  0  0  0  0
   19.2635   -3.9656  -14.6641 O   0  0  0  0  0  0  0  0  0  0  0  0
   18.8945   -3.5179  -16.8323 O   0  0  0  0  0  0  0  0  0  0  0  0
  2  3  1  0
  2  1  1  6
  4  2  1  0
  4  5  1  1
  6  7  2  0
  6  4  1  0
  9  8  1  1
  9 10  1  0
  9 11  1  0
 11 12  1  6
 12  6  1  0
 13 11  1  0
 13 15  1  0
 14 13  2  0
 16 15  1  0
 16 22  1  0
 16 17  1  1
 17 18  1  0
 19 18  1  0
 20 19  1  0
 20 21  1  0
 22 23  1  0
 24 22  2  0
M  END
$$$$
