HTN.pdb
     RDKit          3D

 26 26  0  0  1  0  0  0  0  0999 V2000
    9.4931  -16.8876   16.5007 N   0  0  0  0  0  0  0  0  0  0  0  0
    8.8311  -17.3315   17.7060 C   0  0  1  0  0  0  0  0  0  0  0  0
    9.0486  -18.7962   17.8564 C   0  0  0  0  0  0  0  0  0  0  0  0
    8.5778  -19.5920   16.7032 C   0  0  0  0  0  0  0  0  0  0  0  0
    7.2981  -19.7080   16.2205 C   0  0  0  0  0  0  0  0  0  0  0  0
    7.3394  -20.5305   15.1476 N   0  0  0  0  0  0  0  0  0  0  0  0
    8.6007  -20.9281   14.9483 C   0  0  0  0  0  0  0  0  0  0  0  0
    9.3611  -20.3593   15.8935 N   0  0  0  0  0  0  0  0  0  0  0  0
    9.3150  -16.5067   18.8455 C   0  0  0  0  0  0  0  0  0  0  0  0
   10.5436  -16.2190   18.9643 O   0  0  0  0  0  0  0  0  0  0  0  0
    7.5762  -13.1916   20.1673 C   0  0  0  0  0  0  0  0  0  0  0  0
    7.7873  -14.1771   21.2887 C   0  0  1  0  0  0  0  0  0  0  0  0
    6.5442  -14.6600   21.6413 O   0  0  0  0  0  0  0  0  0  0  0  0
    8.7825  -15.2319   20.9943 C   0  0  2  0  0  0  0  0  0  0  0  0
    8.4213  -16.0231   19.8270 N   0  0  0  0  0  0  0  0  0  0  0  0
    9.2546  -16.0434   22.1348 C   0  0  0  0  0  0  0  0  0  0  0  0
    8.9749  -17.2902   22.2623 O   0  0  0  0  0  0  0  0  0  0  0  0
   13.7349  -15.5023   22.8879 N   0  0  0  0  0  0  0  0  0  0  0  0
   12.9063  -16.3696   23.6065 C   0  0  0  0  0  0  0  0  0  0  0  0
   13.0534  -17.6223   23.3597 O   0  0  0  0  0  0  0  0  0  0  0  0
   11.8950  -16.0429   24.6029 C   0  0  0  0  0  0  0  0  0  0  0  0
   10.4916  -16.4139   24.3030 C   0  0  2  0  0  0  0  0  0  0  0  0
   10.0561  -15.5511   23.1976 N   0  0  0  0  0  0  0  0  0  0  0  0
    9.6211  -16.1281   25.4573 C   0  0  0  0  0  0  0  0  0  0  0  0
    8.7636  -15.2334   25.4827 O   0  0  0  0  0  0  0  0  0  0  0  0
    9.7281  -16.8948   26.6412 O   0  0  0  0  0  0  0  0  0  0  0  0
  2  1  1  6
  2  9  1  0
  3  4  1  0
  3  2  1  0
  4  8  1  0
  5  4  2  0
  5  6  1  0
  6  7  1  0
  8  7  2  0
  9 10  2  0
 12 11  1  6
 12 14  1  0
 13 12  1  0
 14 16  1  0
 14 15  1  6
 15  9  1  0
 16 17  2  0
 16 23  1  0
 18 19  1  0
 19 21  1  0
 20 19  2  0
 22 21  1  1
 22 24  1  0
 23 22  1  0
 24 25  2  0
 24 26  1  0
M  END
$$$$
