HTN.pdb
     RDKit          3D

 26 26  0  0  1  0  0  0  0  0999 V2000
    9.2866  -15.1857   13.8683 N   0  0  0  0  0  0  0  0  0  0  0  0
    9.0358  -15.8822   15.1094 C   0  0  1  0  0  0  0  0  0  0  0  0
    9.4983  -17.2896   14.9669 C   0  0  0  0  0  0  0  0  0  0  0  0
    8.8317  -18.0303   13.8751 C   0  0  0  0  0  0  0  0  0  0  0  0
    7.5901  -18.6155   13.8839 C   0  0  0  0  0  0  0  0  0  0  0  0
    7.3916  -19.1703   12.6665 N   0  0  0  0  0  0  0  0  0  0  0  0
    8.4672  -18.9491   11.9033 C   0  0  0  0  0  0  0  0  0  0  0  0
    9.3493  -18.2542   12.6343 N   0  0  0  0  0  0  0  0  0  0  0  0
    9.6741  -15.1228   16.2180 C   0  0  0  0  0  0  0  0  0  0  0  0
   10.8140  -14.5893   16.0686 O   0  0  0  0  0  0  0  0  0  0  0  0
    7.6750  -12.7045   18.7672 C   0  0  0  0  0  0  0  0  0  0  0  0
    8.5454  -13.7021   19.4886 C   0  0  1  0  0  0  0  0  0  0  0  0
    7.7020  -14.6069   20.0991 O   0  0  0  0  0  0  0  0  0  0  0  0
    9.5880  -14.3252   18.6434 C   0  0  2  0  0  0  0  0  0  0  0  0
    9.0303  -14.9766   17.4670 N   0  0  0  0  0  0  0  0  0  0  0  0
   10.6153  -15.1316   19.3336 C   0  0  0  0  0  0  0  0  0  0  0  0
   10.6108  -16.4157   19.3255 O   0  0  0  0  0  0  0  0  0  0  0  0
   14.9865  -15.8314   18.6312 N   0  0  0  0  0  0  0  0  0  0  0  0
   14.6722  -14.7540   19.4652 C   0  0  0  0  0  0  0  0  0  0  0  0
   15.0537  -13.5964   19.0575 O   0  0  0  0  0  0  0  0  0  0  0  0
   13.9660  -14.7670   20.7393 C   0  0  0  0  0  0  0  0  0  0  0  0
   12.6523  -15.4518   20.7885 C   0  0  2  0  0  0  0  0  0  0  0  0
   11.7038  -14.5931   20.0682 N   0  0  0  0  0  0  0  0  0  0  0  0
   12.1782  -15.5661   22.1792 C   0  0  0  0  0  0  0  0  0  0  0  0
   12.7288  -16.2526   23.0521 O   0  0  0  0  0  0  0  0  0  0  0  0
   11.0229  -14.8674   22.6009 O   0  0  0  0  0  0  0  0  0  0  0  0
  2  1  1  6
  2  9  1  0
  3  4  1  0
  3  2  1  0
  4  8  1  0
  5  4  2  0
  5  6  1  0
  6  7  1  0
  8  7  2  0
  9 10  2  0
 12 11  1  6
 12 14  1  0
 13 12  1  0
 14 16  1  0
 14 15  1  6
 15  9  1  0
 16 17  2  0
 16 23  1  0
 18 19  1  0
 19 21  1  0
 20 19  2  0
 22 21  1  1
 22 24  1  0
 23 22  1  0
 24 25  2  0
 24 26  1  0
M  END
$$$$
