HTN.pdb
     RDKit          3D

 26 26  0  0  1  0  0  0  0  0999 V2000
   12.3110  -17.6727   17.9548 N   0  0  0  0  0  0  0  0  0  0  0  0
   11.9371  -18.5698   19.0242 C   0  0  1  0  0  0  0  0  0  0  0  0
   12.7680  -19.8006   18.9252 C   0  0  0  0  0  0  0  0  0  0  0  0
   12.4822  -20.6200   17.7286 C   0  0  0  0  0  0  0  0  0  0  0  0
   11.5724  -20.3731   16.7309 C   0  0  0  0  0  0  0  0  0  0  0  0
   11.6624  -21.3840   15.8368 N   0  0  0  0  0  0  0  0  0  0  0  0
   12.5968  -22.2489   16.2458 C   0  0  0  0  0  0  0  0  0  0  0  0
   13.1008  -21.7889   17.3989 N   0  0  0  0  0  0  0  0  0  0  0  0
   12.0490  -17.8414   20.3165 C   0  0  0  0  0  0  0  0  0  0  0  0
   13.0481  -17.1008   20.5610 O   0  0  0  0  0  0  0  0  0  0  0  0
    9.9364  -15.3077   22.0230 C   0  0  0  0  0  0  0  0  0  0  0  0
   10.0192  -16.4867   22.9591 C   0  0  1  0  0  0  0  0  0  0  0  0
    8.7714  -17.0745   22.9798 O   0  0  0  0  0  0  0  0  0  0  0  0
   11.1231  -17.4259   22.6609 C   0  0  2  0  0  0  0  0  0  0  0  0
   11.0482  -17.9557   21.3071 N   0  0  0  0  0  0  0  0  0  0  0  0
   11.4229  -18.4515   23.6807 C   0  0  0  0  0  0  0  0  0  0  0  0
   11.0802  -19.6821   23.5491 O   0  0  0  0  0  0  0  0  0  0  0  0
   14.3902  -20.4802   24.1277 N   0  0  0  0  0  0  0  0  0  0  0  0
   14.6600  -19.8486   25.3458 C   0  0  0  0  0  0  0  0  0  0  0  0
   15.8974  -19.7921   25.6886 O   0  0  0  0  0  0  0  0  0  0  0  0
   13.7232  -19.2420   26.2820 C   0  0  0  0  0  0  0  0  0  0  0  0
   12.2871  -19.2459   25.9148 C   0  0  2  0  0  0  0  0  0  0  0  0
   12.1111  -18.2025   24.8968 N   0  0  0  0  0  0  0  0  0  0  0  0
   11.4539  -18.8789   27.0737 C   0  0  0  0  0  0  0  0  0  0  0  0
   10.8963  -17.7810   27.2152 O   0  0  0  0  0  0  0  0  0  0  0  0
   11.2425  -19.8027   28.1238 O   0  0  0  0  0  0  0  0  0  0  0  0
  2  1  1  6
  2  9  1  0
  3  4  1  0
  3  2  1  0
  4  8  1  0
  5  4  2  0
  5  6  1  0
  6  7  1  0
  8  7  2  0
  9 10  2  0
 12 11  1  6
 12 14  1  0
 13 12  1  0
 14 16  1  0
 14 15  1  6
 15  9  1  0
 16 17  2  0
 16 23  1  0
 18 19  1  0
 19 21  1  0
 20 19  2  0
 22 21  1  1
 22 24  1  0
 23 22  1  0
 24 25  2  0
 24 26  1  0
M  END
$$$$
