HTN.pdb
     RDKit          3D

 26 26  0  0  1  0  0  0  0  0999 V2000
    9.5157  -15.0289   13.6818 N   0  0  0  0  0  0  0  0  0  0  0  0
    9.7328  -15.8894   14.8223 C   0  0  1  0  0  0  0  0  0  0  0  0
   10.6931  -16.9586   14.4356 C   0  0  0  0  0  0  0  0  0  0  0  0
   10.1277  -17.9643   13.5115 C   0  0  0  0  0  0  0  0  0  0  0  0
    8.9015  -17.9526   12.8948 C   0  0  0  0  0  0  0  0  0  0  0  0
    8.8171  -19.0668   12.1327 N   0  0  0  0  0  0  0  0  0  0  0  0
    9.9488  -19.7688   12.2557 C   0  0  0  0  0  0  0  0  0  0  0  0
   10.7524  -19.1019   13.0951 N   0  0  0  0  0  0  0  0  0  0  0  0
   10.1597  -15.0518   15.9752 C   0  0  0  0  0  0  0  0  0  0  0  0
   11.1661  -14.2866   15.8856 O   0  0  0  0  0  0  0  0  0  0  0  0
    7.8543  -12.8507   18.2206 C   0  0  0  0  0  0  0  0  0  0  0  0
    8.6684  -13.7700   19.0955 C   0  0  1  0  0  0  0  0  0  0  0  0
    7.7935  -14.6836   19.6456 O   0  0  0  0  0  0  0  0  0  0  0  0
    9.8331  -14.3826   18.4189 C   0  0  2  0  0  0  0  0  0  0  0  0
    9.4583  -15.0867   17.2011 N   0  0  0  0  0  0  0  0  0  0  0  0
   10.7810  -15.1335   19.2672 C   0  0  0  0  0  0  0  0  0  0  0  0
   10.9195  -16.4080   19.1929 O   0  0  0  0  0  0  0  0  0  0  0  0
   15.2804  -15.4845   19.2727 N   0  0  0  0  0  0  0  0  0  0  0  0
   14.6694  -14.4553   19.9956 C   0  0  0  0  0  0  0  0  0  0  0  0
   14.8928  -13.2618   19.5742 O   0  0  0  0  0  0  0  0  0  0  0  0
   13.8087  -14.5543   21.1668 C   0  0  0  0  0  0  0  0  0  0  0  0
   12.5652  -15.3509   21.0387 C   0  0  2  0  0  0  0  0  0  0  0  0
   11.6316  -14.5467   20.2402 N   0  0  0  0  0  0  0  0  0  0  0  0
   11.9475  -15.5650   22.3596 C   0  0  0  0  0  0  0  0  0  0  0  0
   10.8956  -15.0279   22.7356 O   0  0  0  0  0  0  0  0  0  0  0  0
   12.5525  -16.4309   23.3003 O   0  0  0  0  0  0  0  0  0  0  0  0
  2  1  1  6
  2  9  1  0
  3  4  1  0
  3  2  1  0
  4  8  1  0
  5  4  2  0
  5  6  1  0
  6  7  1  0
  8  7  2  0
  9 10  2  0
 12 11  1  6
 12 14  1  0
 13 12  1  0
 14 16  1  0
 14 15  1  6
 15  9  1  0
 16 17  2  0
 16 23  1  0
 18 19  1  0
 19 21  1  0
 20 19  2  0
 22 21  1  1
 22 24  1  0
 23 22  1  0
 24 25  2  0
 24 26  1  0
M  END
$$$$
