HTN.pdb
     RDKit          3D

 26 26  0  0  1  0  0  0  0  0999 V2000
   11.1210  -15.5469   15.3265 N   0  0  0  0  0  0  0  0  0  0  0  0
   10.1960  -16.1305   16.2710 C   0  0  1  0  0  0  0  0  0  0  0  0
   10.3716  -17.6084   16.2576 C   0  0  0  0  0  0  0  0  0  0  0  0
    9.9721  -18.2463   14.9854 C   0  0  0  0  0  0  0  0  0  0  0  0
    8.7033  -18.4644   14.5094 C   0  0  0  0  0  0  0  0  0  0  0  0
    8.8173  -19.0660   13.3035 N   0  0  0  0  0  0  0  0  0  0  0  0
   10.1132  -19.2282   13.0153 C   0  0  0  0  0  0  0  0  0  0  0  0
   10.8229  -18.7303   14.0369 N   0  0  0  0  0  0  0  0  0  0  0  0
   10.4016  -15.4878   17.5967 C   0  0  0  0  0  0  0  0  0  0  0  0
   11.5674  -15.2200   18.0157 O   0  0  0  0  0  0  0  0  0  0  0  0
    7.8717  -12.6811   19.0984 C   0  0  0  0  0  0  0  0  0  0  0  0
    8.1884  -13.7715   20.0902 C   0  0  1  0  0  0  0  0  0  0  0  0
    7.0402  -14.5194   20.2488 O   0  0  0  0  0  0  0  0  0  0  0  0
    9.3873  -14.5715   19.7549 C   0  0  2  0  0  0  0  0  0  0  0  0
    9.3057  -15.1601   18.4260 N   0  0  0  0  0  0  0  0  0  0  0  0
    9.8766  -15.5084   20.7868 C   0  0  0  0  0  0  0  0  0  0  0  0
    9.6327  -16.7687   20.7518 O   0  0  0  0  0  0  0  0  0  0  0  0
   13.6940  -16.4422   21.3758 N   0  0  0  0  0  0  0  0  0  0  0  0
   13.5840  -15.8076   22.6169 C   0  0  0  0  0  0  0  0  0  0  0  0
   14.6719  -15.3222   23.0994 O   0  0  0  0  0  0  0  0  0  0  0  0
   12.3966  -15.6206   23.4398 C   0  0  0  0  0  0  0  0  0  0  0  0
   11.1062  -16.1168   22.9050 C   0  0  2  0  0  0  0  0  0  0  0  0
   10.6576  -15.1335   21.9111 N   0  0  0  0  0  0  0  0  0  0  0  0
   10.0880  -16.1669   23.9692 C   0  0  0  0  0  0  0  0  0  0  0  0
    9.1780  -15.3366   24.1069 O   0  0  0  0  0  0  0  0  0  0  0  0
   10.1024  -17.2101   24.9244 O   0  0  0  0  0  0  0  0  0  0  0  0
  2  1  1  6
  2  9  1  0
  3  4  1  0
  3  2  1  0
  4  8  1  0
  5  4  2  0
  5  6  1  0
  6  7  1  0
  8  7  2  0
  9 10  2  0
 12 11  1  6
 12 14  1  0
 13 12  1  0
 14 16  1  0
 14 15  1  6
 15  9  1  0
 16 17  2  0
 16 23  1  0
 18 19  1  0
 19 21  1  0
 20 19  2  0
 22 21  1  1
 22 24  1  0
 23 22  1  0
 24 25  2  0
 24 26  1  0
M  END
$$$$
