HTN.pdb
     RDKit          3D

 26 26  0  0  1  0  0  0  0  0999 V2000
   -2.0344  -26.7908   28.6547 N   0  0  0  0  0  0  0  0  0  0  0  0
   -1.7963  -25.3992   28.9632 C   0  0  1  0  0  0  0  0  0  0  0  0
   -0.4340  -25.0331   28.4887 C   0  0  0  0  0  0  0  0  0  0  0  0
    0.6548  -25.7446   29.1910 C   0  0  0  0  0  0  0  0  0  0  0  0
    0.5573  -26.5890   30.2688 C   0  0  0  0  0  0  0  0  0  0  0  0
    1.8055  -27.0156   30.5677 N   0  0  0  0  0  0  0  0  0  0  0  0
    2.6735  -26.4650   29.7121 C   0  0  0  0  0  0  0  0  0  0  0  0
    1.9783  -25.6888   28.8698 N   0  0  0  0  0  0  0  0  0  0  0  0
   -2.9001  -24.5881   28.3828 C   0  0  0  0  0  0  0  0  0  0  0  0
   -2.8333  -23.3227   28.3575 O   0  0  0  0  0  0  0  0  0  0  0  0
   -4.1557  -24.7441   24.8873 C   0  0  0  0  0  0  0  0  0  0  0  0
   -5.3412  -24.9841   25.7873 C   0  0  1  0  0  0  0  0  0  0  0  0
   -5.6672  -26.3200   25.6783 O   0  0  0  0  0  0  0  0  0  0  0  0
   -5.1530  -24.5212   27.1802 C   0  0  2  0  0  0  0  0  0  0  0  0
   -4.0529  -25.2037   27.8461 N   0  0  0  0  0  0  0  0  0  0  0  0
   -6.3656  -24.4015   28.0151 C   0  0  0  0  0  0  0  0  0  0  0  0
   -6.7894  -25.3546   28.7642 O   0  0  0  0  0  0  0  0  0  0  0  0
   -6.8312  -23.4875   31.3829 N   0  0  0  0  0  0  0  0  0  0  0  0
   -7.5644  -22.3527   31.0223 C   0  0  0  0  0  0  0  0  0  0  0  0
   -7.5482  -21.3811   31.8635 O   0  0  0  0  0  0  0  0  0  0  0  0
   -8.3466  -22.1220   29.8151 C   0  0  0  0  0  0  0  0  0  0  0  0
   -8.4452  -23.2331   28.8389 C   0  0  2  0  0  0  0  0  0  0  0  0
   -7.1843  -23.2444   28.0866 N   0  0  0  0  0  0  0  0  0  0  0  0
   -9.5330  -22.9834   27.8764 C   0  0  0  0  0  0  0  0  0  0  0  0
   -9.3732  -22.4807   26.7547 O   0  0  0  0  0  0  0  0  0  0  0  0
  -10.8676  -23.3205   28.2018 O   0  0  0  0  0  0  0  0  0  0  0  0
  2  1  1  6
  2  9  1  0
  3  4  1  0
  3  2  1  0
  4  8  1  0
  5  4  2  0
  5  6  1  0
  6  7  1  0
  8  7  2  0
  9 10  2  0
 12 11  1  6
 12 14  1  0
 13 12  1  0
 14 16  1  0
 14 15  1  1
 15  9  1  0
 16 17  2  0
 16 23  1  0
 18 19  1  0
 19 21  1  0
 20 19  2  0
 22 21  1  1
 22 24  1  0
 23 22  1  0
 24 25  2  0
 24 26  1  0
M  END
$$$$
