CWY.pdb
     RDKit          3D

 33 35  0  0  1  0  0  0  0  0999 V2000
   26.8227  -23.8142  -18.0299 N   0  0  0  0  0  0  0  0  0  0  0  0
   25.5827  -24.2065  -17.3679 C   0  0  1  0  0  0  0  0  0  0  0  0
   25.8810  -25.5031  -16.6532 C   0  0  0  0  0  0  0  0  0  0  0  0
   25.6706  -26.8870  -17.7932 S   0  0  0  0  0  0  0  0  0  0  0  0
   25.2094  -23.1036  -16.4466 C   0  0  0  0  0  0  0  0  0  0  0  0
   26.0965  -22.2653  -16.0572 O   0  0  0  0  0  0  0  0  0  0  0  0
   23.9164  -22.8784  -15.9360 N   0  0  0  0  0  0  0  0  0  0  0  0
   23.5639  -21.7849  -15.0512 C   0  0  1  0  0  0  0  0  0  0  0  0
   22.1187  -21.3964  -15.2162 C   0  0  0  0  0  0  0  0  0  0  0  0
   21.8657  -20.2801  -16.1308 C   0  0  0  0  0  0  0  0  0  0  0  0
   22.7660  -19.2272  -16.3632 C   0  0  0  0  0  0  0  0  0  0  0  0
   22.2560  -18.3762  -17.2585 N   0  0  0  0  0  0  0  0  0  0  0  0
   21.0392  -18.8172  -17.6409 C   0  0  0  0  0  0  0  0  0  0  0  0
   20.1371  -18.2883  -18.5264 C   0  0  0  0  0  0  0  0  0  0  0  0
   18.9286  -18.9334  -18.7529 C   0  0  0  0  0  0  0  0  0  0  0  0
   18.7022  -20.0934  -18.0581 C   0  0  0  0  0  0  0  0  0  0  0  0
   19.6048  -20.6402  -17.1595 C   0  0  0  0  0  0  0  0  0  0  0  0
   20.8067  -20.0018  -16.9331 C   0  0  0  0  0  0  0  0  0  0  0  0
   24.0424  -21.9309  -13.6780 C   0  0  0  0  0  0  0  0  0  0  0  0
   23.8653  -23.0028  -12.9989 O   0  0  0  0  0  0  0  0  0  0  0  0
   27.9932  -19.8593   -6.1215 O   0  0  0  0  0  0  0  0  0  0  0  0
   27.5686  -19.9131   -7.4390 C   0  0  0  0  0  0  0  0  0  0  0  0
   28.1952  -20.7915   -8.2730 C   0  0  0  0  0  0  0  0  0  0  0  0
   27.7862  -20.8559   -9.5778 C   0  0  0  0  0  0  0  0  0  0  0  0
   26.7532  -20.0307  -10.0103 C   0  0  0  0  0  0  0  0  0  0  0  0
   26.3413  -20.1056  -11.4177 C   0  0  0  0  0  0  0  0  0  0  0  0
   25.1598  -21.0812  -11.5876 C   0  0  2  0  0  0  0  0  0  0  0  0
   24.7521  -20.8889  -12.9912 N   0  0  0  0  0  0  0  0  0  0  0  0
   24.0727  -20.6365  -10.6991 C   0  0  0  0  0  0  0  0  0  0  0  0
   23.9163  -21.0650   -9.5257 O   0  0  0  0  0  0  0  0  0  0  0  0
   26.1241  -19.1481   -9.1720 C   0  0  0  0  0  0  0  0  0  0  0  0
   26.5442  -19.0875   -7.8464 C   0  0  0  0  0  0  0  0  0  0  0  0
   23.1430  -19.6956  -11.1262 O   0  0  0  0  0  0  0  0  0  0  0  0
  2  1  1  1
  3  2  1  0
  4  3  1  0
  5  2  1  0
  5  6  2  0
  7  5  1  0
  8  7  1  0
  8  9  1  1
 10  9  1  0
 10 18  1  0
 11 12  1  0
 11 10  2  0
 12 13  1  0
 13 14  2  0
 13 18  1  0
 14 15  1  0
 15 16  2  0
 17 16  1  0
 18 17  2  0
 19  8  1  0
 20 19  2  0
 22 23  2  0
 22 21  1  0
 24 23  1  0
 25 24  2  0
 27 26  1  1
 26 25  1  0
 27 28  1  0
 28 19  1  0
 29 27  1  0
 29 33  1  0
 30 29  2  0
 31 25  1  0
 31 32  2  0
 32 22  1  0
M  END
$$$$
