CWY.pdb
     RDKit          3D

 33 35  0  0  1  0  0  0  0  0999 V2000
   28.7990  -20.6972  -14.8914 N   0  0  0  0  0  0  0  0  0  0  0  0
   28.1889  -19.7298  -13.9849 C   0  0  1  0  0  0  0  0  0  0  0  0
   27.7675  -18.5599  -14.8420 C   0  0  0  0  0  0  0  0  0  0  0  0
   26.9652  -17.3118  -13.8136 S   0  0  0  0  0  0  0  0  0  0  0  0
   27.0476  -20.4095  -13.3215 C   0  0  0  0  0  0  0  0  0  0  0  0
   26.3946  -21.3202  -13.9426 O   0  0  0  0  0  0  0  0  0  0  0  0
   26.5924  -20.1391  -12.0166 N   0  0  0  0  0  0  0  0  0  0  0  0
   25.4772  -20.8143  -11.3815 C   0  0  1  0  0  0  0  0  0  0  0  0
   25.6682  -20.8946   -9.8903 C   0  0  0  0  0  0  0  0  0  0  0  0
   27.0597  -20.9329   -9.4334 C   0  0  0  0  0  0  0  0  0  0  0  0
   28.1203  -21.4849  -10.1708 C   0  0  0  0  0  0  0  0  0  0  0  0
   29.2662  -21.3536   -9.4957 N   0  0  0  0  0  0  0  0  0  0  0  0
   29.0176  -20.7308   -8.3245 C   0  0  0  0  0  0  0  0  0  0  0  0
   29.8626  -20.3802   -7.3044 C   0  0  0  0  0  0  0  0  0  0  0  0
   29.3616  -19.7405   -6.1784 C   0  0  0  0  0  0  0  0  0  0  0  0
   28.0139  -19.4905   -6.1523 C   0  0  0  0  0  0  0  0  0  0  0  0
   27.1471  -19.8391   -7.1761 C   0  0  0  0  0  0  0  0  0  0  0  0
   27.6422  -20.4741   -8.2963 C   0  0  0  0  0  0  0  0  0  0  0  0
   24.1589  -20.3844  -11.8432 C   0  0  0  0  0  0  0  0  0  0  0  0
   23.8512  -19.1493  -11.9898 O   0  0  0  0  0  0  0  0  0  0  0  0
   18.3951  -18.4040  -17.4568 O   0  0  0  0  0  0  0  0  0  0  0  0
   19.4117  -18.9165  -16.6675 C   0  0  0  0  0  0  0  0  0  0  0  0
   19.6759  -20.2513  -16.7597 C   0  0  0  0  0  0  0  0  0  0  0  0
   20.6778  -20.7721  -15.9859 C   0  0  0  0  0  0  0  0  0  0  0  0
   21.3900  -19.9320  -15.1361 C   0  0  0  0  0  0  0  0  0  0  0  0
   22.4501  -20.5150  -14.3039 C   0  0  0  0  0  0  0  0  0  0  0  0
   21.9174  -20.8427  -12.8949 C   0  0  2  0  0  0  0  0  0  0  0  0
   23.1145  -21.3123  -12.1737 N   0  0  0  0  0  0  0  0  0  0  0  0
   20.9571  -21.9524  -13.0196 C   0  0  0  0  0  0  0  0  0  0  0  0
   19.7264  -21.8349  -12.7823 O   0  0  0  0  0  0  0  0  0  0  0  0
   21.1240  -18.5911  -15.0437 C   0  0  0  0  0  0  0  0  0  0  0  0
   20.1043  -18.0674  -15.8332 C   0  0  0  0  0  0  0  0  0  0  0  0
   21.3766  -23.2166  -13.4170 O   0  0  0  0  0  0  0  0  0  0  0  0
  2  1  1  6
  3  2  1  0
  4  3  1  0
  5  2  1  0
  5  6  2  0
  7  5  1  0
  8  7  1  0
  8  9  1  1
 10  9  1  0
 10 18  1  0
 11 12  1  0
 11 10  2  0
 12 13  1  0
 13 14  2  0
 13 18  1  0
 14 15  1  0
 15 16  2  0
 17 16  1  0
 18 17  2  0
 19  8  1  0
 20 19  2  0
 22 23  2  0
 22 21  1  0
 24 23  1  0
 25 24  2  0
 27 26  1  6
 26 25  1  0
 27 28  1  0
 28 19  1  0
 29 27  1  0
 29 33  1  0
 30 29  2  0
 31 25  1  0
 31 32  2  0
 32 22  1  0
M  END
$$$$
