CWY.pdb
     RDKit          3D

 33 35  0  0  1  0  0  0  0  0999 V2000
   30.3640  -25.1478  -16.1114 N   0  0  0  0  0  0  0  0  0  0  0  0
   29.7659  -24.2849  -17.1251 C   0  0  1  0  0  0  0  0  0  0  0  0
   28.8550  -25.1688  -17.9436 C   0  0  0  0  0  0  0  0  0  0  0  0
   27.5570  -25.8462  -16.8875 S   0  0  0  0  0  0  0  0  0  0  0  0
   29.0428  -23.2036  -16.4094 C   0  0  0  0  0  0  0  0  0  0  0  0
   28.7328  -23.3474  -15.1746 O   0  0  0  0  0  0  0  0  0  0  0  0
   28.6466  -21.9790  -16.9812 N   0  0  0  0  0  0  0  0  0  0  0  0
   27.9198  -20.9420  -16.2746 C   0  0  1  0  0  0  0  0  0  0  0  0
   28.2473  -19.5787  -16.8231 C   0  0  0  0  0  0  0  0  0  0  0  0
   27.5049  -18.4642  -16.2286 C   0  0  0  0  0  0  0  0  0  0  0  0
   27.8610  -17.8260  -15.0290 C   0  0  0  0  0  0  0  0  0  0  0  0
   27.0000  -16.8399  -14.7604 N   0  0  0  0  0  0  0  0  0  0  0  0
   26.0714  -16.7884  -15.7383 C   0  0  0  0  0  0  0  0  0  0  0  0
   24.9933  -15.9583  -15.9012 C   0  0  0  0  0  0  0  0  0  0  0  0
   24.1657  -16.1061  -17.0063 C   0  0  0  0  0  0  0  0  0  0  0  0
   24.4840  -17.1012  -17.8940 C   0  0  0  0  0  0  0  0  0  0  0  0
   25.5707  -17.9482  -17.7425 C   0  0  0  0  0  0  0  0  0  0  0  0
   26.3951  -17.8032  -16.6459 C   0  0  0  0  0  0  0  0  0  0  0  0
   26.5036  -21.2287  -16.0557 C   0  0  0  0  0  0  0  0  0  0  0  0
   25.8193  -21.9609  -16.8540 O   0  0  0  0  0  0  0  0  0  0  0  0
   18.9657  -23.5494  -12.8158 O   0  0  0  0  0  0  0  0  0  0  0  0
   20.2803  -23.1824  -13.0525 C   0  0  0  0  0  0  0  0  0  0  0  0
   20.9550  -23.8382  -14.0398 C   0  0  0  0  0  0  0  0  0  0  0  0
   22.2549  -23.4862  -14.2853 C   0  0  0  0  0  0  0  0  0  0  0  0
   22.8436  -22.4794  -13.5272 C   0  0  0  0  0  0  0  0  0  0  0  0
   24.2437  -22.1289  -13.7975 C   0  0  0  0  0  0  0  0  0  0  0  0
   24.3286  -20.9722  -14.8131 C   0  0  2  0  0  0  0  0  0  0  0  0
   25.7764  -20.7188  -14.9277 N   0  0  0  0  0  0  0  0  0  0  0  0
   23.6738  -19.7956  -14.2165 C   0  0  0  0  0  0  0  0  0  0  0  0
   24.2107  -19.0756  -13.3342 O   0  0  0  0  0  0  0  0  0  0  0  0
   22.1655  -21.8210  -12.5352 C   0  0  0  0  0  0  0  0  0  0  0  0
   20.8440  -22.1832  -12.2905 C   0  0  0  0  0  0  0  0  0  0  0  0
   22.3970  -19.4139  -14.6114 O   0  0  0  0  0  0  0  0  0  0  0  0
  2  1  1  1
  3  2  1  0
  4  3  1  0
  5  2  1  0
  5  6  2  0
  7  5  1  0
  8  7  1  0
  8  9  1  6
 10  9  1  0
 10 18  1  0
 11 12  1  0
 11 10  2  0
 12 13  1  0
 13 14  2  0
 13 18  1  0
 14 15  1  0
 15 16  2  0
 17 16  1  0
 18 17  2  0
 19  8  1  0
 20 19  2  0
 22 23  2  0
 22 21  1  0
 24 23  1  0
 25 24  2  0
 27 26  1  1
 26 25  1  0
 27 28  1  0
 28 19  1  0
 29 27  1  0
 29 33  1  0
 30 29  2  0
 31 25  1  0
 31 32  2  0
 32 22  1  0
M  END
$$$$
