CWY.pdb
     RDKit          3D

 33 35  0  0  1  0  0  0  0  0999 V2000
   23.0972  -14.9888  -20.0842 N   0  0  0  0  0  0  0  0  0  0  0  0
   22.7424  -15.3844  -18.7250 C   0  0  1  0  0  0  0  0  0  0  0  0
   22.1291  -14.1643  -18.0799 C   0  0  0  0  0  0  0  0  0  0  0  0
   23.4330  -13.1161  -17.4016 S   0  0  0  0  0  0  0  0  0  0  0  0
   21.7986  -16.5255  -18.8326 C   0  0  0  0  0  0  0  0  0  0  0  0
   20.7102  -16.3973  -19.4960 O   0  0  0  0  0  0  0  0  0  0  0  0
   21.9921  -17.7932  -18.2504 N   0  0  0  0  0  0  0  0  0  0  0  0
   21.0131  -18.8627  -18.2720 C   0  0  1  0  0  0  0  0  0  0  0  0
   21.5168  -20.0449  -19.0565 C   0  0  0  0  0  0  0  0  0  0  0  0
   21.4314  -19.9179  -20.5137 C   0  0  0  0  0  0  0  0  0  0  0  0
   22.2474  -19.0729  -21.2840 C   0  0  0  0  0  0  0  0  0  0  0  0
   21.9394  -19.1926  -22.5789 N   0  0  0  0  0  0  0  0  0  0  0  0
   20.9411  -20.0909  -22.7122 C   0  0  0  0  0  0  0  0  0  0  0  0
   20.2906  -20.5414  -23.8309 C   0  0  0  0  0  0  0  0  0  0  0  0
   19.2752  -21.4809  -23.7111 C   0  0  0  0  0  0  0  0  0  0  0  0
   18.9743  -21.9145  -22.4458 C   0  0  0  0  0  0  0  0  0  0  0  0
   19.6233  -21.4681  -21.3053 C   0  0  0  0  0  0  0  0  0  0  0  0
   20.6330  -20.5353  -21.4215 C   0  0  0  0  0  0  0  0  0  0  0  0
   20.4012  -19.1577  -16.9780 C   0  0  0  0  0  0  0  0  0  0  0  0
   21.0353  -19.0276  -15.8722 O   0  0  0  0  0  0  0  0  0  0  0  0
   13.7837  -16.9422  -18.2629 O   0  0  0  0  0  0  0  0  0  0  0  0
   14.8052  -17.3810  -17.4363 C   0  0  0  0  0  0  0  0  0  0  0  0
   16.0215  -16.7754  -17.5532 C   0  0  0  0  0  0  0  0  0  0  0  0
   17.0405  -17.1984  -16.7429 C   0  0  0  0  0  0  0  0  0  0  0  0
   16.8072  -18.2242  -15.8328 C   0  0  0  0  0  0  0  0  0  0  0  0
   17.9188  -18.6723  -14.9844 C   0  0  0  0  0  0  0  0  0  0  0  0
   18.5196  -19.9855  -15.5236 C   0  0  2  0  0  0  0  0  0  0  0  0
   19.0438  -19.6071  -16.8486 N   0  0  0  0  0  0  0  0  0  0  0  0
   17.4209  -20.9517  -15.6921 C   0  0  0  0  0  0  0  0  0  0  0  0
   17.0097  -21.3460  -16.8148 O   0  0  0  0  0  0  0  0  0  0  0  0
   15.5850  -18.8325  -15.7159 C   0  0  0  0  0  0  0  0  0  0  0  0
   14.5528  -18.3978  -16.5423 C   0  0  0  0  0  0  0  0  0  0  0  0
   16.7689  -21.4890  -14.5885 O   0  0  0  0  0  0  0  0  0  0  0  0
  2  1  1  6
  3  2  1  0
  4  3  1  0
  5  2  1  0
  5  6  2  0
  7  5  1  0
  8  7  1  0
  8  9  1  1
 10  9  1  0
 10 18  1  0
 11 12  1  0
 11 10  2  0
 12 13  1  0
 13 14  2  0
 13 18  1  0
 14 15  1  0
 15 16  2  0
 17 16  1  0
 18 17  2  0
 19  8  1  0
 20 19  2  0
 22 23  2  0
 22 21  1  0
 24 23  1  0
 25 24  2  0
 27 26  1  6
 26 25  1  0
 27 28  1  0
 28 19  1  0
 29 27  1  0
 29 33  1  0
 30 29  2  0
 31 25  1  0
 31 32  2  0
 32 22  1  0
M  END
$$$$
