CWY.pdb
     RDKit          3D

 33 35  0  0  1  0  0  0  0  0999 V2000
   28.0723  -22.1152  -15.6281 N   0  0  0  0  0  0  0  0  0  0  0  0
   28.2256  -20.9518  -14.7605 C   0  0  1  0  0  0  0  0  0  0  0  0
   27.6291  -19.7861  -15.5130 C   0  0  0  0  0  0  0  0  0  0  0  0
   27.9326  -18.2568  -14.6030 S   0  0  0  0  0  0  0  0  0  0  0  0
   27.5154  -21.2539  -13.4922 C   0  0  0  0  0  0  0  0  0  0  0  0
   26.3593  -21.8053  -13.5201 O   0  0  0  0  0  0  0  0  0  0  0  0
   28.0113  -20.9816  -12.2024 N   0  0  0  0  0  0  0  0  0  0  0  0
   27.2263  -21.0734  -10.9866 C   0  0  1  0  0  0  0  0  0  0  0  0
   28.1018  -20.9758   -9.7657 C   0  0  0  0  0  0  0  0  0  0  0  0
   27.4097  -20.6438   -8.5177 C   0  0  0  0  0  0  0  0  0  0  0  0
   26.0157  -20.6873   -8.3496 C   0  0  0  0  0  0  0  0  0  0  0  0
   25.6934  -20.3468   -7.0981 N   0  0  0  0  0  0  0  0  0  0  0  0
   26.8229  -20.0736   -6.4120 C   0  0  0  0  0  0  0  0  0  0  0  0
   27.0031  -19.6816   -5.1114 C   0  0  0  0  0  0  0  0  0  0  0  0
   28.2844  -19.4521   -4.6279 C   0  0  0  0  0  0  0  0  0  0  0  0
   29.3227  -19.6359   -5.5042 C   0  0  0  0  0  0  0  0  0  0  0  0
   29.1559  -20.0320   -6.8219 C   0  0  0  0  0  0  0  0  0  0  0  0
   27.8841  -20.2614   -7.3047 C   0  0  0  0  0  0  0  0  0  0  0  0
   26.0124  -20.2595  -10.9796 C   0  0  0  0  0  0  0  0  0  0  0  0
   26.0426  -18.9799  -11.0391 O   0  0  0  0  0  0  0  0  0  0  0  0
   22.3929  -24.2128  -15.6488 O   0  0  0  0  0  0  0  0  0  0  0  0
   22.7062  -23.0873  -14.9042 C   0  0  0  0  0  0  0  0  0  0  0  0
   21.6777  -22.3949  -14.3362 C   0  0  0  0  0  0  0  0  0  0  0  0
   21.9720  -21.2806  -13.5975 C   0  0  0  0  0  0  0  0  0  0  0  0
   23.2993  -20.8912  -13.4499 C   0  0  0  0  0  0  0  0  0  0  0  0
   23.5905  -19.6841  -12.6661 C   0  0  0  0  0  0  0  0  0  0  0  0
   23.5156  -19.9848  -11.1560 C   0  0  2  0  0  0  0  0  0  0  0  0
   24.6976  -20.8320  -10.9134 N   0  0  0  0  0  0  0  0  0  0  0  0
   22.2943  -20.7702  -10.9097 C   0  0  0  0  0  0  0  0  0  0  0  0
   22.3045  -21.9916  -10.6045 O   0  0  0  0  0  0  0  0  0  0  0  0
   24.3322  -21.5871  -14.0210 C   0  0  0  0  0  0  0  0  0  0  0  0
   24.0267  -22.7194  -14.7706 C   0  0  0  0  0  0  0  0  0  0  0  0
   21.0381  -20.1829  -11.0046 O   0  0  0  0  0  0  0  0  0  0  0  0
  2  1  1  6
  3  2  1  0
  4  3  1  0
  5  2  1  0
  5  6  2  0
  7  5  1  0
  8  7  1  0
  8  9  1  1
 10  9  1  0
 10 18  1  0
 11 12  1  0
 11 10  2  0
 12 13  1  0
 13 14  2  0
 13 18  1  0
 14 15  1  0
 15 16  2  0
 17 16  1  0
 18 17  2  0
 19  8  1  0
 20 19  2  0
 22 23  2  0
 22 21  1  0
 24 23  1  0
 25 24  2  0
 27 26  1  6
 26 25  1  0
 27 28  1  0
 28 19  1  0
 29 27  1  0
 29 33  1  0
 30 29  2  0
 31 25  1  0
 31 32  2  0
 32 22  1  0
M  END
$$$$
