NHF.pdb
     RDKit          3D

 30 31  0  0  1  0  0  0  0  0999 V2000
   25.2660  -14.1433  -16.5859 N   0  0  0  0  0  0  0  0  0  0  0  0
   24.0039  -14.7296  -16.6903 C   0  0  0  0  0  0  0  0  0  0  0  0
   23.0499  -14.0665  -17.1750 O   0  0  0  0  0  0  0  0  0  0  0  0
   23.6816  -16.1122  -16.2641 C   0  0  0  0  0  0  0  0  0  0  0  0
   24.8147  -16.7828  -15.5563 C   0  0  2  0  0  0  0  0  0  0  0  0
   25.8595  -17.1865  -16.4851 N   0  0  0  0  0  0  0  0  0  0  0  0
   24.3202  -17.9833  -14.8526 C   0  0  0  0  0  0  0  0  0  0  0  0
   23.3090  -17.9300  -14.0719 O   0  0  0  0  0  0  0  0  0  0  0  0
   24.9052  -19.2635  -14.9763 N   0  0  0  0  0  0  0  0  0  0  0  0
   24.4114  -20.4575  -14.2849 C   0  0  1  0  0  0  0  0  0  0  0  0
   24.1445  -21.5645  -15.2316 C   0  0  0  0  0  0  0  0  0  0  0  0
   23.0152  -21.2584  -16.1214 C   0  0  0  0  0  0  0  0  0  0  0  0
   21.6582  -21.4655  -15.7705 C   0  0  0  0  0  0  0  0  0  0  0  0
   20.8650  -21.0930  -16.7860 N   0  0  0  0  0  0  0  0  0  0  0  0
   21.6570  -20.6575  -17.7692 C   0  0  0  0  0  0  0  0  0  0  0  0
   22.9128  -20.7626  -17.3599 N   0  0  0  0  0  0  0  0  0  0  0  0
   25.3771  -20.7670  -13.2043 C   0  0  0  0  0  0  0  0  0  0  0  0
   26.6095  -20.8595  -13.3792 O   0  0  0  0  0  0  0  0  0  0  0  0
   24.8809  -20.9748  -11.8745 N   0  0  0  0  0  0  0  0  0  0  0  0
   25.7689  -21.1756  -10.7405 C   0  0  1  0  0  0  0  0  0  0  0  0
   26.7378  -20.0179  -10.6276 C   0  0  0  0  0  0  0  0  0  0  0  0
   27.5802  -20.1111   -9.4165 C   0  0  0  0  0  0  0  0  0  0  0  0
   28.7042  -20.9052   -9.3950 C   0  0  0  0  0  0  0  0  0  0  0  0
   29.5009  -21.0016   -8.2746 C   0  0  0  0  0  0  0  0  0  0  0  0
   29.1889  -20.2987   -7.1375 C   0  0  0  0  0  0  0  0  0  0  0  0
   28.0670  -19.4970   -7.1375 C   0  0  0  0  0  0  0  0  0  0  0  0
   27.2717  -19.4079   -8.2725 C   0  0  0  0  0  0  0  0  0  0  0  0
   24.9746  -21.3747   -9.5252 C   0  0  0  0  0  0  0  0  0  0  0  0
   25.3493  -22.2686   -8.5330 O   0  0  0  0  0  0  0  0  0  0  0  0
   23.9182  -20.7242   -9.3595 O   0  0  0  0  0  0  0  0  0  0  0  0
  2  1  1  0
  3  2  2  0
  4  2  1  0
  4  5  1  0
  5  6  1  6
  7  5  1  0
  7  8  2  0
  9  7  1  0
 10  9  1  0
 10 11  1  6
 12 11  1  0
 12 13  2  0
 14 13  1  0
 15 16  2  0
 15 14  1  0
 16 12  1  0
 17 10  1  0
 18 17  2  0
 19 17  1  0
 20 19  1  0
 20 21  1  1
 22 21  1  0
 23 22  2  0
 24 23  1  0
 25 26  1  0
 25 24  2  0
 26 27  2  0
 27 22  1  0
 28 20  1  0
 29 28  1  0
 30 28  2  0
M  END
$$$$
