NHF.pdb
     RDKit          3D

 30 31  0  0  1  0  0  0  0  0999 V2000
   29.7002  -24.7125  -17.5204 N   0  0  0  0  0  0  0  0  0  0  0  0
   30.3838  -23.7827  -16.7356 C   0  0  0  0  0  0  0  0  0  0  0  0
   31.6116  -23.9449  -16.5096 O   0  0  0  0  0  0  0  0  0  0  0  0
   29.7655  -22.5815  -16.1257 C   0  0  0  0  0  0  0  0  0  0  0  0
   28.2787  -22.5508  -16.2774 C   0  0  2  0  0  0  0  0  0  0  0  0
   27.8886  -22.2264  -17.6412 N   0  0  0  0  0  0  0  0  0  0  0  0
   27.7075  -21.5354  -15.3698 C   0  0  0  0  0  0  0  0  0  0  0  0
   28.4339  -20.6197  -14.8513 O   0  0  0  0  0  0  0  0  0  0  0  0
   26.3437  -21.4869  -15.0035 N   0  0  0  0  0  0  0  0  0  0  0  0
   25.7359  -20.3785  -14.2624 C   0  0  1  0  0  0  0  0  0  0  0  0
   24.9469  -19.4956  -15.1516 C   0  0  0  0  0  0  0  0  0  0  0  0
   25.8126  -18.6863  -16.0214 C   0  0  0  0  0  0  0  0  0  0  0  0
   26.7907  -17.7828  -15.5373 C   0  0  0  0  0  0  0  0  0  0  0  0
   27.4154  -17.1951  -16.5685 N   0  0  0  0  0  0  0  0  0  0  0  0
   26.8784  -17.6845  -17.6891 C   0  0  0  0  0  0  0  0  0  0  0  0
   25.9414  -18.5565  -17.3468 N   0  0  0  0  0  0  0  0  0  0  0  0
   24.9858  -20.9702  -13.1295 C   0  0  0  0  0  0  0  0  0  0  0  0
   24.4216  -22.0827  -13.1751 O   0  0  0  0  0  0  0  0  0  0  0  0
   24.8946  -20.2328  -11.9025 N   0  0  0  0  0  0  0  0  0  0  0  0
   24.1806  -20.7451  -10.7437 C   0  0  1  0  0  0  0  0  0  0  0  0
   24.5669  -19.9621   -9.5070 C   0  0  0  0  0  0  0  0  0  0  0  0
   25.9996  -20.1127   -9.1760 C   0  0  0  0  0  0  0  0  0  0  0  0
   26.6858  -19.1113   -8.5274 C   0  0  0  0  0  0  0  0  0  0  0  0
   28.0210  -19.2370   -8.2101 C   0  0  0  0  0  0  0  0  0  0  0  0
   28.7087  -20.3791   -8.5376 C   0  0  0  0  0  0  0  0  0  0  0  0
   28.0403  -21.3949   -9.1878 C   0  0  0  0  0  0  0  0  0  0  0  0
   26.6947  -21.2568   -9.5024 C   0  0  0  0  0  0  0  0  0  0  0  0
   22.7391  -20.7212  -11.0064 C   0  0  0  0  0  0  0  0  0  0  0  0
   21.8323  -21.4268  -10.2294 O   0  0  0  0  0  0  0  0  0  0  0  0
   22.2922  -20.0461  -11.9610 O   0  0  0  0  0  0  0  0  0  0  0  0
  2  1  1  0
  3  2  2  0
  4  2  1  0
  4  5  1  0
  5  6  1  6
  7  5  1  0
  7  8  2  0
  9  7  1  0
 10  9  1  0
 10 11  1  6
 12 11  1  0
 12 13  2  0
 14 13  1  0
 15 16  2  0
 15 14  1  0
 16 12  1  0
 17 10  1  0
 18 17  2  0
 19 17  1  0
 20 19  1  0
 20 21  1  1
 22 21  1  0
 23 22  2  0
 24 23  1  0
 25 26  1  0
 25 24  2  0
 26 27  2  0
 27 22  1  0
 28 20  1  0
 29 28  1  0
 30 28  2  0
M  END
$$$$
