NHF.pdb
     RDKit          3D

 30 31  0  0  1  0  0  0  0  0999 V2000
   19.7797  -14.5900  -17.1626 N   0  0  0  0  0  0  0  0  0  0  0  0
   20.6672  -13.5670  -17.4993 C   0  0  0  0  0  0  0  0  0  0  0  0
   21.8406  -13.8549  -17.8530 O   0  0  0  0  0  0  0  0  0  0  0  0
   20.3337  -12.1230  -17.4742 C   0  0  0  0  0  0  0  0  0  0  0  0
   18.9679  -11.8498  -16.9315 C   0  0  2  0  0  0  0  0  0  0  0  0
   17.9309  -12.3555  -17.8182 N   0  0  0  0  0  0  0  0  0  0  0  0
   18.7799  -10.3940  -16.7687 C   0  0  0  0  0  0  0  0  0  0  0  0
   18.8733   -9.5940  -17.7618 O   0  0  0  0  0  0  0  0  0  0  0  0
   18.4878   -9.7726  -15.5339 N   0  0  0  0  0  0  0  0  0  0  0  0
   18.2741   -8.3315  -15.3750 C   0  0  1  0  0  0  0  0  0  0  0  0
   16.9014   -8.0322  -14.9071 C   0  0  0  0  0  0  0  0  0  0  0  0
   15.9046   -8.2648  -15.9622 C   0  0  0  0  0  0  0  0  0  0  0  0
   15.8110   -7.4858  -17.1419 C   0  0  0  0  0  0  0  0  0  0  0  0
   14.8071   -7.9398  -17.9070 N   0  0  0  0  0  0  0  0  0  0  0  0
   14.2566   -8.9744  -17.2665 C   0  0  0  0  0  0  0  0  0  0  0  0
   14.9141   -9.1485  -16.1295 N   0  0  0  0  0  0  0  0  0  0  0  0
   19.3637   -7.8214  -14.5097 C   0  0  0  0  0  0  0  0  0  0  0  0
   19.4876   -8.1147  -13.3028 O   0  0  0  0  0  0  0  0  0  0  0  0
   20.3402   -6.9382  -15.0789 N   0  0  0  0  0  0  0  0  0  0  0  0
   21.5031   -6.4866  -14.3314 C   0  0  1  0  0  0  0  0  0  0  0  0
   22.7725   -6.9346  -15.0240 C   0  0  0  0  0  0  0  0  0  0  0  0
   22.8596   -8.4062  -15.1322 C   0  0  0  0  0  0  0  0  0  0  0  0
   23.2585   -9.1728  -14.0609 C   0  0  0  0  0  0  0  0  0  0  0  0
   23.3432  -10.5458  -14.1450 C   0  0  0  0  0  0  0  0  0  0  0  0
   23.0277  -11.1912  -15.3148 C   0  0  0  0  0  0  0  0  0  0  0  0
   22.6257  -10.4422  -16.4005 C   0  0  0  0  0  0  0  0  0  0  0  0
   22.5442   -9.0592  -16.3038 C   0  0  0  0  0  0  0  0  0  0  0  0
   21.4350   -5.0340  -14.1498 C   0  0  0  0  0  0  0  0  0  0  0  0
   22.3171   -4.3476  -13.3284 O   0  0  0  0  0  0  0  0  0  0  0  0
   20.5569   -4.3731  -14.7487 O   0  0  0  0  0  0  0  0  0  0  0  0
  2  1  1  0
  3  2  2  0
  4  2  1  0
  4  5  1  0
  5  6  1  6
  7  5  1  0
  7  8  2  0
  9  7  1  0
 10  9  1  0
 10 11  1  1
 12 11  1  0
 12 13  2  0
 14 13  1  0
 15 16  2  0
 15 14  1  0
 16 12  1  0
 17 10  1  0
 18 17  2  0
 19 17  1  0
 20 19  1  0
 20 21  1  6
 22 21  1  0
 23 22  2  0
 24 23  1  0
 25 26  1  0
 25 24  2  0
 26 27  2  0
 27 22  1  0
 28 20  1  0
 29 28  1  0
 30 28  2  0
M  END
$$$$
