NHF.pdb
     RDKit          3D

 30 31  0  0  1  0  0  0  0  0999 V2000
   18.4582  -15.4186  -19.5101 N   0  0  0  0  0  0  0  0  0  0  0  0
   17.8683  -14.3394  -20.1696 C   0  0  0  0  0  0  0  0  0  0  0  0
   17.3590  -14.5112  -21.3080 O   0  0  0  0  0  0  0  0  0  0  0  0
   17.7889  -12.9631  -19.6249 C   0  0  0  0  0  0  0  0  0  0  0  0
   18.4322  -12.8299  -18.2822 C   0  0  2  0  0  0  0  0  0  0  0  0
   17.5697  -13.3362  -17.2252 N   0  0  0  0  0  0  0  0  0  0  0  0
   18.7255  -11.4082  -18.0105 C   0  0  0  0  0  0  0  0  0  0  0  0
   19.4867  -10.7255  -18.7783 O   0  0  0  0  0  0  0  0  0  0  0  0
   18.2049  -10.6952  -16.9074 N   0  0  0  0  0  0  0  0  0  0  0  0
   18.5658   -9.3120  -16.5849 C   0  0  1  0  0  0  0  0  0  0  0  0
   17.4713   -8.6151  -15.8714 C   0  0  0  0  0  0  0  0  0  0  0  0
   16.3231   -8.3605  -16.7534 C   0  0  0  0  0  0  0  0  0  0  0  0
   16.3500   -7.4474  -17.8365 C   0  0  0  0  0  0  0  0  0  0  0  0
   15.1569   -7.4351  -18.4492 N   0  0  0  0  0  0  0  0  0  0  0  0
   14.3704   -8.3005  -17.8041 C   0  0  0  0  0  0  0  0  0  0  0  0
   15.0725   -8.8320  -16.8141 N   0  0  0  0  0  0  0  0  0  0  0  0
   19.8625   -9.3549  -15.8686 C   0  0  0  0  0  0  0  0  0  0  0  0
   20.0145   -9.8574  -14.7362 O   0  0  0  0  0  0  0  0  0  0  0  0
   21.0190   -8.7897  -16.5015 N   0  0  0  0  0  0  0  0  0  0  0  0
   22.3428   -8.8676  -15.9043 C   0  0  1  0  0  0  0  0  0  0  0  0
   23.1893   -9.8794  -16.6469 C   0  0  0  0  0  0  0  0  0  0  0  0
   24.5838   -9.9070  -16.1574 C   0  0  0  0  0  0  0  0  0  0  0  0
   24.9199  -10.5971  -15.0149 C   0  0  0  0  0  0  0  0  0  0  0  0
   26.2154  -10.6341  -14.5464 C   0  0  0  0  0  0  0  0  0  0  0  0
   27.2158   -9.9747  -15.2165 C   0  0  0  0  0  0  0  0  0  0  0  0
   26.9010   -9.2771  -16.3635 C   0  0  0  0  0  0  0  0  0  0  0  0
   25.5918   -9.2470  -16.8259 C   0  0  0  0  0  0  0  0  0  0  0  0
   22.9459   -7.5324  -15.8738 C   0  0  0  0  0  0  0  0  0  0  0  0
   23.6816   -7.0761  -14.7901 O   0  0  0  0  0  0  0  0  0  0  0  0
   22.8028   -6.7631  -16.8507 O   0  0  0  0  0  0  0  0  0  0  0  0
  2  1  1  0
  3  2  2  0
  4  2  1  0
  4  5  1  0
  5  6  1  1
  7  5  1  0
  7  8  2  0
  9  7  1  0
 10  9  1  0
 10 11  1  1
 12 11  1  0
 12 13  2  0
 14 13  1  0
 15 16  2  0
 15 14  1  0
 16 12  1  0
 17 10  1  0
 18 17  2  0
 19 17  1  0
 20 19  1  0
 20 21  1  6
 22 21  1  0
 23 22  2  0
 24 23  1  0
 25 26  1  0
 25 24  2  0
 26 27  2  0
 27 22  1  0
 28 20  1  0
 29 28  1  0
 30 28  2  0
M  END
$$$$
