NHF.pdb
     RDKit          3D

 30 31  0  0  1  0  0  0  0  0999 V2000
   12.2241  -11.5106  -17.2286 N   0  0  0  0  0  0  0  0  0  0  0  0
   13.3312  -11.5789  -16.3817 C   0  0  0  0  0  0  0  0  0  0  0  0
   13.2260  -12.1567  -15.2682 O   0  0  0  0  0  0  0  0  0  0  0  0
   14.6638  -11.0094  -16.6931 C   0  0  0  0  0  0  0  0  0  0  0  0
   14.6846  -10.2432  -17.9765 C   0  0  2  0  0  0  0  0  0  0  0  0
   14.6986  -11.1324  -19.1282 N   0  0  0  0  0  0  0  0  0  0  0  0
   15.8884   -9.3892  -18.0260 C   0  0  0  0  0  0  0  0  0  0  0  0
   17.0148   -9.8460  -18.4230 O   0  0  0  0  0  0  0  0  0  0  0  0
   15.9021   -8.0276  -17.6489 N   0  0  0  0  0  0  0  0  0  0  0  0
   17.0628   -7.1473  -17.8086 C   0  0  1  0  0  0  0  0  0  0  0  0
   16.6648   -5.7992  -18.2744 C   0  0  0  0  0  0  0  0  0  0  0  0
   16.2105   -5.8193  -19.6723 C   0  0  0  0  0  0  0  0  0  0  0  0
   17.0876   -5.8488  -20.7845 C   0  0  0  0  0  0  0  0  0  0  0  0
   16.3774   -5.8609  -21.9223 N   0  0  0  0  0  0  0  0  0  0  0  0
   15.0856   -5.8405  -21.5841 C   0  0  0  0  0  0  0  0  0  0  0  0
   15.0093   -5.8163  -20.2616 N   0  0  0  0  0  0  0  0  0  0  0  0
   17.8144   -7.1801  -16.5317 C   0  0  0  0  0  0  0  0  0  0  0  0
   17.2974   -6.9690  -15.4154 O   0  0  0  0  0  0  0  0  0  0  0  0
   19.2188   -7.4702  -16.5655 N   0  0  0  0  0  0  0  0  0  0  0  0
   19.9987   -7.6585  -15.3525 C   0  0  1  0  0  0  0  0  0  0  0  0
   20.2879   -9.1298  -15.1436 C   0  0  0  0  0  0  0  0  0  0  0  0
   21.2052   -9.3625  -14.0081 C   0  0  0  0  0  0  0  0  0  0  0  0
   22.5313   -9.6646  -14.2194 C   0  0  0  0  0  0  0  0  0  0  0  0
   23.3997   -9.8826  -13.1716 C   0  0  0  0  0  0  0  0  0  0  0  0
   22.9576   -9.8029  -11.8744 C   0  0  0  0  0  0  0  0  0  0  0  0
   21.6326   -9.5015  -11.6404 C   0  0  0  0  0  0  0  0  0  0  0  0
   20.7669   -9.2839  -12.7042 C   0  0  0  0  0  0  0  0  0  0  0  0
   21.2141   -6.8425  -15.4196 C   0  0  0  0  0  0  0  0  0  0  0  0
   21.7702   -6.2474  -14.2970 O   0  0  0  0  0  0  0  0  0  0  0  0
   21.7839   -6.6654  -16.5199 O   0  0  0  0  0  0  0  0  0  0  0  0
  2  1  1  0
  3  2  2  0
  4  2  1  0
  4  5  1  0
  5  6  1  6
  7  5  1  0
  7  8  2  0
  9  7  1  0
 10  9  1  0
 10 11  1  1
 12 11  1  0
 12 13  2  0
 14 13  1  0
 15 16  2  0
 15 14  1  0
 16 12  1  0
 17 10  1  0
 18 17  2  0
 19 17  1  0
 20 19  1  0
 20 21  1  6
 22 21  1  0
 23 22  2  0
 24 23  1  0
 25 26  1  0
 25 24  2  0
 26 27  2  0
 27 22  1  0
 28 20  1  0
 29 28  1  0
 30 28  2  0
M  END
$$$$
