NHF.pdb
     RDKit          3D

 30 31  0  0  1  0  0  0  0  0999 V2000
   29.8333  -23.1947  -17.2324 N   0  0  0  0  0  0  0  0  0  0  0  0
   28.5826  -23.0089  -16.6417 C   0  0  0  0  0  0  0  0  0  0  0  0
   27.5881  -23.6428  -17.0821 O   0  0  0  0  0  0  0  0  0  0  0  0
   28.3181  -22.0978  -15.5028 C   0  0  0  0  0  0  0  0  0  0  0  0
   27.0267  -21.3571  -15.6369 C   0  0  2  0  0  0  0  0  0  0  0  0
   27.0413  -20.4636  -16.7853 N   0  0  0  0  0  0  0  0  0  0  0  0
   26.7844  -20.5563  -14.4199 C   0  0  0  0  0  0  0  0  0  0  0  0
   27.4380  -19.4823  -14.1868 O   0  0  0  0  0  0  0  0  0  0  0  0
   25.8341  -20.8967  -13.4313 N   0  0  0  0  0  0  0  0  0  0  0  0
   25.6144  -20.1208  -12.2078 C   0  0  1  0  0  0  0  0  0  0  0  0
   24.2603  -19.5223  -12.1774 C   0  0  0  0  0  0  0  0  0  0  0  0
   23.3987  -20.0732  -13.2334 C   0  0  0  0  0  0  0  0  0  0  0  0
   23.0207  -19.3553  -14.3949 C   0  0  0  0  0  0  0  0  0  0  0  0
   22.2345  -20.1212  -15.1658 N   0  0  0  0  0  0  0  0  0  0  0  0
   22.0946  -21.2962  -14.5465 C   0  0  0  0  0  0  0  0  0  0  0  0
   22.7844  -21.2476  -13.4163 N   0  0  0  0  0  0  0  0  0  0  0  0
   25.9417  -21.0058  -11.0650 C   0  0  0  0  0  0  0  0  0  0  0  0
   25.8325  -22.2489  -11.0952 O   0  0  0  0  0  0  0  0  0  0  0  0
   26.4126  -20.4131   -9.8465 N   0  0  0  0  0  0  0  0  0  0  0  0
   26.7292  -21.2094   -8.6714 C   0  0  1  0  0  0  0  0  0  0  0  0
   28.1504  -20.9372   -8.2266 C   0  0  0  0  0  0  0  0  0  0  0  0
   28.2095  -20.3702   -6.8628 C   0  0  0  0  0  0  0  0  0  0  0  0
   28.5974  -21.1419   -5.7911 C   0  0  0  0  0  0  0  0  0  0  0  0
   28.6594  -20.6278   -4.5139 C   0  0  0  0  0  0  0  0  0  0  0  0
   28.3314  -19.3162   -4.2760 C   0  0  0  0  0  0  0  0  0  0  0  0
   27.9401  -18.5254   -5.3356 C   0  0  0  0  0  0  0  0  0  0  0  0
   27.8813  -19.0545   -6.6182 C   0  0  0  0  0  0  0  0  0  0  0  0
   25.7426  -20.9457   -7.6204 C   0  0  0  0  0  0  0  0  0  0  0  0
   25.5990  -21.7706   -6.5147 O   0  0  0  0  0  0  0  0  0  0  0  0
   24.9946  -19.9458   -7.7066 O   0  0  0  0  0  0  0  0  0  0  0  0
  2  1  1  0
  3  2  2  0
  4  2  1  0
  4  5  1  0
  5  6  1  6
  7  5  1  0
  7  8  2  0
  9  7  1  0
 10  9  1  0
 10 11  1  1
 12 11  1  0
 12 13  2  0
 14 13  1  0
 15 16  2  0
 15 14  1  0
 16 12  1  0
 17 10  1  0
 18 17  2  0
 19 17  1  0
 20 19  1  0
 20 21  1  1
 22 21  1  0
 23 22  2  0
 24 23  1  0
 25 26  1  0
 25 24  2  0
 26 27  2  0
 27 22  1  0
 28 20  1  0
 29 28  1  0
 30 28  2  0
M  END
$$$$
