NHF.pdb
     RDKit          3D

 30 31  0  0  1  0  0  0  0  0999 V2000
   26.6931  -16.8902  -20.2800 N   0  0  0  0  0  0  0  0  0  0  0  0
   25.3251  -16.6334  -20.3820 C   0  0  0  0  0  0  0  0  0  0  0  0
   24.9141  -15.7808  -21.2121 O   0  0  0  0  0  0  0  0  0  0  0  0
   24.2817  -17.3015  -19.5684 C   0  0  0  0  0  0  0  0  0  0  0  0
   24.8425  -18.3004  -18.6080 C   0  0  2  0  0  0  0  0  0  0  0  0
   25.9753  -19.0123  -19.1800 N   0  0  0  0  0  0  0  0  0  0  0  0
   23.8007  -19.2836  -18.2490 C   0  0  0  0  0  0  0  0  0  0  0  0
   22.6337  -19.2396  -18.7698 O   0  0  0  0  0  0  0  0  0  0  0  0
   23.9957  -20.3325  -17.3226 N   0  0  0  0  0  0  0  0  0  0  0  0
   22.9711  -21.3235  -16.9828 C   0  0  1  0  0  0  0  0  0  0  0  0
   23.3682  -22.6856  -17.4064 C   0  0  0  0  0  0  0  0  0  0  0  0
   23.3185  -22.8366  -18.8678 C   0  0  0  0  0  0  0  0  0  0  0  0
   22.2200  -23.3987  -19.5640 C   0  0  0  0  0  0  0  0  0  0  0  0
   22.4708  -23.4006  -20.8817 N   0  0  0  0  0  0  0  0  0  0  0  0
   23.6814  -22.8641  -21.0560 C   0  0  0  0  0  0  0  0  0  0  0  0
   24.1610  -22.5404  -19.8641 N   0  0  0  0  0  0  0  0  0  0  0  0
   22.6769  -21.1697  -15.5385 C   0  0  0  0  0  0  0  0  0  0  0  0
   23.5244  -21.3282  -14.6360 O   0  0  0  0  0  0  0  0  0  0  0  0
   21.3446  -20.8182  -15.1397 N   0  0  0  0  0  0  0  0  0  0  0  0
   20.9977  -20.5515  -13.7527 C   0  0  1  0  0  0  0  0  0  0  0  0
   21.7398  -19.3286  -13.2573 C   0  0  0  0  0  0  0  0  0  0  0  0
   21.2727  -18.0887  -13.9127 C   0  0  0  0  0  0  0  0  0  0  0  0
   21.8632  -17.6334  -15.0696 C   0  0  0  0  0  0  0  0  0  0  0  0
   21.4383  -16.4805  -15.6938 C   0  0  0  0  0  0  0  0  0  0  0  0
   20.4021  -15.7481  -15.1700 C   0  0  0  0  0  0  0  0  0  0  0  0
   19.7963  -16.1864  -14.0114 C   0  0  0  0  0  0  0  0  0  0  0  0
   20.2332  -17.3497  -13.3913 C   0  0  0  0  0  0  0  0  0  0  0  0
   19.5431  -20.4255  -13.6269 C   0  0  0  0  0  0  0  0  0  0  0  0
   18.9017  -20.4385  -12.3971 O   0  0  0  0  0  0  0  0  0  0  0  0
   18.8388  -20.3010  -14.6540 O   0  0  0  0  0  0  0  0  0  0  0  0
  2  1  1  0
  3  2  2  0
  4  2  1  0
  4  5  1  0
  5  6  1  6
  7  5  1  0
  7  8  2  0
  9  7  1  0
 10  9  1  0
 10 11  1  1
 12 11  1  0
 12 13  2  0
 14 13  1  0
 15 16  2  0
 15 14  1  0
 16 12  1  0
 17 10  1  0
 18 17  2  0
 19 17  1  0
 20 19  1  0
 20 21  1  6
 22 21  1  0
 23 22  2  0
 24 23  1  0
 25 26  1  0
 25 24  2  0
 26 27  2  0
 27 22  1  0
 28 20  1  0
 29 28  1  0
 30 28  2  0
M  END
$$$$
