NHF.pdb
     RDKit          3D

 30 31  0  0  1  0  0  0  0  0999 V2000
   21.9409  -10.6982  -22.3557 N   0  0  0  0  0  0  0  0  0  0  0  0
   20.9230  -10.0345  -21.6693 C   0  0  0  0  0  0  0  0  0  0  0  0
   20.1102   -9.3159  -22.3078 O   0  0  0  0  0  0  0  0  0  0  0  0
   20.7119  -10.1068  -20.2039 C   0  0  0  0  0  0  0  0  0  0  0  0
   21.7140  -10.9745  -19.5129 C   0  0  2  0  0  0  0  0  0  0  0  0
   21.3870  -12.3851  -19.6566 N   0  0  0  0  0  0  0  0  0  0  0  0
   21.7500  -10.6433  -18.0741 C   0  0  0  0  0  0  0  0  0  0  0  0
   20.6781  -10.5570  -17.3823 O   0  0  0  0  0  0  0  0  0  0  0  0
   22.9404  -10.3989  -17.3535 N   0  0  0  0  0  0  0  0  0  0  0  0
   22.9826  -10.1249  -15.9145 C   0  0  1  0  0  0  0  0  0  0  0  0
   24.0326  -10.9206  -15.2384 C   0  0  0  0  0  0  0  0  0  0  0  0
   23.7584  -12.3626  -15.3192 C   0  0  0  0  0  0  0  0  0  0  0  0
   24.4477  -13.2474  -16.1849 C   0  0  0  0  0  0  0  0  0  0  0  0
   23.9748  -14.4931  -16.0308 N   0  0  0  0  0  0  0  0  0  0  0  0
   23.0140  -14.4412  -15.1046 C   0  0  0  0  0  0  0  0  0  0  0  0
   22.9029  -13.1843  -14.7004 N   0  0  0  0  0  0  0  0  0  0  0  0
   23.0982   -8.6562  -15.7530 C   0  0  0  0  0  0  0  0  0  0  0  0
   23.7206   -7.9171  -16.5430 O   0  0  0  0  0  0  0  0  0  0  0  0
   22.4625   -8.0341  -14.6276 N   0  0  0  0  0  0  0  0  0  0  0  0
   22.3248   -6.5904  -14.5180 C   0  0  1  0  0  0  0  0  0  0  0  0
   21.5993   -6.0441  -15.7292 C   0  0  0  0  0  0  0  0  0  0  0  0
   21.3588   -4.5892  -15.6264 C   0  0  0  0  0  0  0  0  0  0  0  0
   22.3985   -3.6916  -15.7129 C   0  0  0  0  0  0  0  0  0  0  0  0
   22.1907   -2.3323  -15.6208 C   0  0  0  0  0  0  0  0  0  0  0  0
   20.9248   -1.8336  -15.4381 C   0  0  0  0  0  0  0  0  0  0  0  0
   19.8687   -2.7155  -15.3488 C   0  0  0  0  0  0  0  0  0  0  0  0
   20.0904   -4.0832  -15.4430 C   0  0  0  0  0  0  0  0  0  0  0  0
   21.6592   -6.2560  -13.2560 C   0  0  0  0  0  0  0  0  0  0  0  0
   20.6417   -7.0352  -12.7255 O   0  0  0  0  0  0  0  0  0  0  0  0
   22.0077   -5.2354  -12.6208 O   0  0  0  0  0  0  0  0  0  0  0  0
  2  1  1  0
  3  2  2  0
  4  2  1  0
  4  5  1  0
  5  6  1  1
  7  5  1  0
  7  8  2  0
  9  7  1  0
 10  9  1  0
 10 11  1  6
 12 11  1  0
 12 13  2  0
 14 13  1  0
 15 16  2  0
 15 14  1  0
 16 12  1  0
 17 10  1  0
 18 17  2  0
 19 17  1  0
 20 19  1  0
 20 21  1  6
 22 21  1  0
 23 22  2  0
 24 23  1  0
 25 26  1  0
 25 24  2  0
 26 27  2  0
 27 22  1  0
 28 20  1  0
 29 28  1  0
 30 28  2  0
M  END
$$$$
