IEN.pdb
     RDKit          3D

 26 25  0  0  1  0  0  0  0  0999 V2000
   20.4211  -16.7944  -19.5311 C   0  0  0  0  0  0  0  0  0  0  0  0
   21.2074  -17.8104  -18.7754 C   0  0  0  0  0  0  0  0  0  0  0  0
   22.1842  -17.2327  -17.7695 C   0  0  2  0  0  0  0  0  0  0  0  0
   23.1723  -16.4033  -18.5733 C   0  0  0  0  0  0  0  0  0  0  0  0
   22.8787  -18.3641  -17.0948 C   0  0  2  0  0  0  0  0  0  0  0  0
   23.6451  -19.0763  -18.0860 N   0  0  0  0  0  0  0  0  0  0  0  0
   21.9980  -19.2424  -16.2790 C   0  0  0  0  0  0  0  0  0  0  0  0
   21.5579  -20.2991  -16.7947 O   0  0  0  0  0  0  0  0  0  0  0  0
   21.6407  -18.9301  -14.9482 N   0  0  0  0  0  0  0  0  0  0  0  0
   20.7863  -19.7446  -14.0848 C   0  0  1  0  0  0  0  0  0  0  0  0
   21.0666  -19.3708  -12.6314 C   0  0  0  0  0  0  0  0  0  0  0  0
   20.3802  -20.2084  -11.6179 C   0  0  0  0  0  0  0  0  0  0  0  0
   20.7575  -19.6616  -10.2772 C   0  0  0  0  0  0  0  0  0  0  0  0
   21.4372  -18.6176  -10.2304 O   0  0  0  0  0  0  0  0  0  0  0  0
   19.3857  -19.5906  -14.3842 C   0  0  0  0  0  0  0  0  0  0  0  0
   19.0760  -18.5614  -15.1127 O   0  0  0  0  0  0  0  0  0  0  0  0
   20.3626  -20.3018   -9.1388 O   0  0  0  0  0  0  0  0  0  0  0  0
   16.6488  -18.8832  -18.0763 N   0  0  0  0  0  0  0  0  0  0  0  0
   16.6132  -18.9204  -16.6657 C   0  0  0  0  0  0  0  0  0  0  0  0
   16.4684  -17.8422  -16.0238 O   0  0  0  0  0  0  0  0  0  0  0  0
   16.7453  -20.2092  -15.9735 C   0  0  0  0  0  0  0  0  0  0  0  0
   16.9213  -20.0768  -14.4708 C   0  0  2  0  0  0  0  0  0  0  0  0
   18.2710  -20.3711  -14.0302 N   0  0  0  0  0  0  0  0  0  0  0  0
   16.0128  -21.0773  -13.8617 C   0  0  0  0  0  0  0  0  0  0  0  0
   14.6315  -20.9704  -13.8618 O   0  0  0  0  0  0  0  0  0  0  0  0
   16.4764  -22.1087  -13.2937 O   0  0  0  0  0  0  0  0  0  0  0  0
  2  1  1  0
  3  5  1  0
  3  2  1  0
  3  4  1  6
  5  6  1  6
  7  5  1  0
  7  8  2  0
  9  7  1  0
 10  9  1  0
 10 11  1  1
 12 11  1  0
 12 13  1  0
 13 14  2  0
 15 10  1  0
 16 15  2  0
 17 13  1  0
 18 19  1  0
 19 20  2  0
 19 21  1  0
 22 21  1  6
 22 23  1  0
 22 24  1  0
 23 15  1  0
 24 25  1  0
 26 24  2  0
M  END
$$$$
