IEN.pdb
     RDKit          3D

 26 25  0  0  1  0  0  0  0  0999 V2000
   17.6349  -13.1188  -19.3899 C   0  0  0  0  0  0  0  0  0  0  0  0
   18.7866  -12.3203  -18.8826 C   0  0  0  0  0  0  0  0  0  0  0  0
   18.4318  -11.3152  -17.8038 C   0  0  2  0  0  0  0  0  0  0  0  0
   17.4630  -10.3357  -18.4458 C   0  0  0  0  0  0  0  0  0  0  0  0
   19.6813  -10.6189  -17.3895 C   0  0  2  0  0  0  0  0  0  0  0  0
   20.5979  -11.6065  -16.8783 N   0  0  0  0  0  0  0  0  0  0  0  0
   19.4802   -9.4632  -16.4748 C   0  0  0  0  0  0  0  0  0  0  0  0
   18.8381   -9.6425  -15.4109 O   0  0  0  0  0  0  0  0  0  0  0  0
   19.9850   -8.1749  -16.7605 N   0  0  0  0  0  0  0  0  0  0  0  0
   19.6927   -6.9604  -16.0001 C   0  0  1  0  0  0  0  0  0  0  0  0
   20.9445   -6.5600  -15.2233 C   0  0  0  0  0  0  0  0  0  0  0  0
   20.8086   -5.3437  -14.3855 C   0  0  0  0  0  0  0  0  0  0  0  0
   22.1469   -5.0941  -13.7647 C   0  0  0  0  0  0  0  0  0  0  0  0
   22.3035   -5.3680  -12.5586 O   0  0  0  0  0  0  0  0  0  0  0  0
   19.2489   -5.8745  -16.8361 C   0  0  0  0  0  0  0  0  0  0  0  0
   20.1574   -5.3415  -17.5953 O   0  0  0  0  0  0  0  0  0  0  0  0
   23.1643   -4.5757  -14.5116 O   0  0  0  0  0  0  0  0  0  0  0  0
   16.5696   -1.4607  -16.3150 N   0  0  0  0  0  0  0  0  0  0  0  0
   17.6722   -1.8662  -15.5326 C   0  0  0  0  0  0  0  0  0  0  0  0
   18.0262   -1.1552  -14.5504 O   0  0  0  0  0  0  0  0  0  0  0  0
   18.3850   -3.1040  -15.8754 C   0  0  0  0  0  0  0  0  0  0  0  0
   17.7832   -3.8447  -17.0569 C   0  0  2  0  0  0  0  0  0  0  0  0
   17.9843   -5.2790  -16.9884 N   0  0  0  0  0  0  0  0  0  0  0  0
   18.4882   -3.3406  -18.2594 C   0  0  0  0  0  0  0  0  0  0  0  0
   19.8586   -3.1507  -18.3309 O   0  0  0  0  0  0  0  0  0  0  0  0
   17.8454   -3.0503  -19.3101 O   0  0  0  0  0  0  0  0  0  0  0  0
  2  1  1  0
  3  5  1  0
  3  2  1  0
  3  4  1  6
  5  6  1  1
  7  5  1  0
  7  8  2  0
  9  7  1  0
 10  9  1  0
 10 11  1  6
 12 11  1  0
 12 13  1  0
 13 14  2  0
 15 10  1  0
 16 15  2  0
 17 13  1  0
 18 19  1  0
 19 20  2  0
 19 21  1  0
 22 21  1  1
 22 23  1  0
 22 24  1  0
 23 15  1  0
 24 25  1  0
 26 24  2  0
M  END
$$$$
