IEN.pdb
     RDKit          3D

 26 25  0  0  1  0  0  0  0  0999 V2000
   22.4173  -14.1378  -20.5826 C   0  0  0  0  0  0  0  0  0  0  0  0
   22.5193  -13.3620  -19.3139 C   0  0  0  0  0  0  0  0  0  0  0  0
   21.6136  -12.1478  -19.2417 C   0  0  2  0  0  0  0  0  0  0  0  0
   22.0947  -11.2009  -20.3290 C   0  0  0  0  0  0  0  0  0  0  0  0
   21.7768  -11.5268  -17.8981 C   0  0  2  0  0  0  0  0  0  0  0  0
   21.7746  -12.5789  -16.9133 N   0  0  0  0  0  0  0  0  0  0  0  0
   20.8216  -10.4270  -17.5965 C   0  0  0  0  0  0  0  0  0  0  0  0
   20.8160   -9.4145  -18.3388 O   0  0  0  0  0  0  0  0  0  0  0  0
   19.9233  -10.4819  -16.5073 N   0  0  0  0  0  0  0  0  0  0  0  0
   19.0108   -9.4125  -16.1043 C   0  0  1  0  0  0  0  0  0  0  0  0
   17.8421  -10.0321  -15.3421 C   0  0  0  0  0  0  0  0  0  0  0  0
   16.8602  -10.7672  -16.1758 C   0  0  0  0  0  0  0  0  0  0  0  0
   15.8261  -11.3159  -15.2438 C   0  0  0  0  0  0  0  0  0  0  0  0
   14.8184  -11.8653  -15.7304 O   0  0  0  0  0  0  0  0  0  0  0  0
   19.6562   -8.4031  -15.3045 C   0  0  0  0  0  0  0  0  0  0  0  0
   20.7417   -8.7756  -14.6972 O   0  0  0  0  0  0  0  0  0  0  0  0
   15.9926  -11.2088  -13.8938 O   0  0  0  0  0  0  0  0  0  0  0  0
   23.2322   -4.1942  -15.2041 N   0  0  0  0  0  0  0  0  0  0  0  0
   22.4509   -5.0391  -14.3867 C   0  0  0  0  0  0  0  0  0  0  0  0
   22.5156   -4.9148  -13.1313 O   0  0  0  0  0  0  0  0  0  0  0  0
   21.5803   -6.0443  -15.0105 C   0  0  0  0  0  0  0  0  0  0  0  0
   20.2022   -6.1314  -14.3782 C   0  0  2  0  0  0  0  0  0  0  0  0
   19.3224   -7.0589  -15.0623 N   0  0  0  0  0  0  0  0  0  0  0  0
   19.6135   -4.7755  -14.4896 C   0  0  0  0  0  0  0  0  0  0  0  0
   19.5644   -3.8645  -13.4470 O   0  0  0  0  0  0  0  0  0  0  0  0
   19.1109   -4.3778  -15.5808 O   0  0  0  0  0  0  0  0  0  0  0  0
  2  1  1  0
  3  5  1  0
  3  2  1  0
  3  4  1  6
  5  6  1  1
  7  5  1  0
  7  8  2  0
  9  7  1  0
 10  9  1  0
 10 11  1  1
 12 11  1  0
 12 13  1  0
 13 14  2  0
 15 10  1  0
 16 15  2  0
 17 13  1  0
 18 19  1  0
 19 20  2  0
 19 21  1  0
 22 21  1  6
 22 23  1  0
 22 24  1  0
 23 15  1  0
 24 25  1  0
 26 24  2  0
M  END
$$$$
