IEN.pdb
     RDKit          3D

 26 25  0  0  1  0  0  0  0  0999 V2000
   28.6521  -12.8979  -16.2074 C   0  0  0  0  0  0  0  0  0  0  0  0
   27.2690  -12.4008  -15.9591 C   0  0  0  0  0  0  0  0  0  0  0  0
   26.8950  -11.1569  -16.7418 C   0  0  2  0  0  0  0  0  0  0  0  0
   27.8402  -10.0644  -16.2692 C   0  0  0  0  0  0  0  0  0  0  0  0
   25.4856  -10.8075  -16.4117 C   0  0  2  0  0  0  0  0  0  0  0  0
   24.7067  -12.0199  -16.4260 N   0  0  0  0  0  0  0  0  0  0  0  0
   24.9019   -9.7151  -17.2355 C   0  0  0  0  0  0  0  0  0  0  0  0
   25.3871   -8.5614  -17.1360 O   0  0  0  0  0  0  0  0  0  0  0  0
   23.8240   -9.9298  -18.1234 N   0  0  0  0  0  0  0  0  0  0  0  0
   23.1698   -8.8998  -18.9296 C   0  0  1  0  0  0  0  0  0  0  0  0
   22.2254   -9.5818  -19.9164 C   0  0  0  0  0  0  0  0  0  0  0  0
   21.4646   -8.6666  -20.8014 C   0  0  0  0  0  0  0  0  0  0  0  0
   20.6151   -9.5254  -21.6844 C   0  0  0  0  0  0  0  0  0  0  0  0
   19.6237  -10.0936  -21.1860 O   0  0  0  0  0  0  0  0  0  0  0  0
   22.4550   -7.9385  -18.1296 C   0  0  0  0  0  0  0  0  0  0  0  0
   21.8111   -8.4219  -17.1110 O   0  0  0  0  0  0  0  0  0  0  0  0
   20.9304   -9.6774  -23.0032 O   0  0  0  0  0  0  0  0  0  0  0  0
   22.5040   -4.9326  -13.6374 N   0  0  0  0  0  0  0  0  0  0  0  0
   21.8106   -5.0341  -14.8626 C   0  0  0  0  0  0  0  0  0  0  0  0
   20.5613   -4.8485  -14.8815 O   0  0  0  0  0  0  0  0  0  0  0  0
   22.5536   -5.3533  -16.0888 C   0  0  0  0  0  0  0  0  0  0  0  0
   21.6614   -5.7167  -17.2630 C   0  0  2  0  0  0  0  0  0  0  0  0
   22.3307   -6.5430  -18.2487 N   0  0  0  0  0  0  0  0  0  0  0  0
   21.2958   -4.4353  -17.9123 C   0  0  0  0  0  0  0  0  0  0  0  0
   20.0041   -4.0934  -18.2781 O   0  0  0  0  0  0  0  0  0  0  0  0
   22.1799   -3.5676  -18.1710 O   0  0  0  0  0  0  0  0  0  0  0  0
  2  1  1  0
  3  5  1  0
  3  2  1  0
  3  4  1  1
  5  6  1  6
  7  5  1  0
  7  8  2  0
  9  7  1  0
 10  9  1  0
 10 11  1  6
 12 11  1  0
 12 13  1  0
 13 14  2  0
 15 10  1  0
 16 15  2  0
 17 13  1  0
 18 19  1  0
 19 20  2  0
 19 21  1  0
 22 21  1  1
 22 23  1  0
 22 24  1  0
 23 15  1  0
 24 25  1  0
 26 24  2  0
M  END
$$$$
