IEN.pdb
     RDKit          3D

 26 25  0  0  1  0  0  0  0  0999 V2000
   27.7189  -19.7808   -6.4607 C   0  0  0  0  0  0  0  0  0  0  0  0
   27.6848  -20.6626   -7.6619 C   0  0  0  0  0  0  0  0  0  0  0  0
   26.6970  -20.2362   -8.7305 C   0  0  2  0  0  0  0  0  0  0  0  0
   25.3200  -20.5931   -8.1949 C   0  0  0  0  0  0  0  0  0  0  0  0
   26.9920  -21.0080   -9.9694 C   0  0  2  0  0  0  0  0  0  0  0  0
   28.4188  -21.1917  -10.0556 N   0  0  0  0  0  0  0  0  0  0  0  0
   26.3869  -20.4550  -11.2107 C   0  0  0  0  0  0  0  0  0  0  0  0
   26.7483  -19.3179  -11.6014 O   0  0  0  0  0  0  0  0  0  0  0  0
   25.4227  -21.1624  -11.9631 N   0  0  0  0  0  0  0  0  0  0  0  0
   24.8219  -20.7069  -13.2162 C   0  0  1  0  0  0  0  0  0  0  0  0
   25.4707  -21.4665  -14.3707 C   0  0  0  0  0  0  0  0  0  0  0  0
   26.6588  -20.8127  -14.9713 C   0  0  0  0  0  0  0  0  0  0  0  0
   27.1388  -21.7106  -16.0678 C   0  0  0  0  0  0  0  0  0  0  0  0
   26.9720  -21.3486  -17.2490 O   0  0  0  0  0  0  0  0  0  0  0  0
   23.3917  -20.8771  -13.2410 C   0  0  0  0  0  0  0  0  0  0  0  0
   22.9417  -21.9431  -12.6521 O   0  0  0  0  0  0  0  0  0  0  0  0
   27.7418  -22.8975  -15.7687 O   0  0  0  0  0  0  0  0  0  0  0  0
   20.3014  -19.5554  -11.0703 N   0  0  0  0  0  0  0  0  0  0  0  0
   19.8376  -18.7369  -12.1226 C   0  0  0  0  0  0  0  0  0  0  0  0
   19.2003  -17.6814  -11.8481 O   0  0  0  0  0  0  0  0  0  0  0  0
   20.1040  -19.1281  -13.5132 C   0  0  0  0  0  0  0  0  0  0  0  0
   20.9615  -20.3752  -13.6402 C   0  0  2  0  0  0  0  0  0  0  0  0
   22.3728  -20.0795  -13.7915 N   0  0  0  0  0  0  0  0  0  0  0  0
   20.5038  -21.0640  -14.8704 C   0  0  0  0  0  0  0  0  0  0  0  0
   19.3355  -21.8037  -14.9547 O   0  0  0  0  0  0  0  0  0  0  0  0
   21.1858  -21.0051  -15.9348 O   0  0  0  0  0  0  0  0  0  0  0  0
  2  1  1  0
  3  5  1  0
  3  2  1  0
  3  4  1  1
  5  6  1  6
  7  5  1  0
  7  8  2  0
  9  7  1  0
 10  9  1  0
 10 11  1  6
 12 11  1  0
 12 13  1  0
 13 14  2  0
 15 10  1  0
 16 15  2  0
 17 13  1  0
 18 19  1  0
 19 20  2  0
 19 21  1  0
 22 21  1  6
 22 23  1  0
 22 24  1  0
 23 15  1  0
 24 25  1  0
 26 24  2  0
M  END
$$$$
