IEN.pdb
     RDKit          3D

 26 25  0  0  1  0  0  0  0  0999 V2000
   24.2691  -12.0856  -17.0505 C   0  0  0  0  0  0  0  0  0  0  0  0
   22.9103  -11.6749  -16.5962 C   0  0  0  0  0  0  0  0  0  0  0  0
   22.9011  -10.6636  -15.4661 C   0  0  2  0  0  0  0  0  0  0  0  0
   23.4832  -11.3796  -14.2583 C   0  0  0  0  0  0  0  0  0  0  0  0
   21.4886  -10.2684  -15.2088 C   0  0  2  0  0  0  0  0  0  0  0  0
   20.9135   -9.8207  -16.4520 N   0  0  0  0  0  0  0  0  0  0  0  0
   21.3011   -9.3100  -14.0868 C   0  0  0  0  0  0  0  0  0  0  0  0
   21.5932   -9.6809  -12.9234 O   0  0  0  0  0  0  0  0  0  0  0  0
   20.8074   -8.0009  -14.2839 N   0  0  0  0  0  0  0  0  0  0  0  0
   20.6066   -7.0021  -13.2347 C   0  0  1  0  0  0  0  0  0  0  0  0
   20.9699   -5.6290  -13.7947 C   0  0  0  0  0  0  0  0  0  0  0  0
   20.7882   -4.4940  -12.8575 C   0  0  0  0  0  0  0  0  0  0  0  0
   21.1646   -3.2525  -13.6033 C   0  0  0  0  0  0  0  0  0  0  0  0
   20.7500   -2.1557  -13.1801 O   0  0  0  0  0  0  0  0  0  0  0  0
   19.2606   -6.9976  -12.7218 C   0  0  0  0  0  0  0  0  0  0  0  0
   18.3224   -7.1710  -13.6024 O   0  0  0  0  0  0  0  0  0  0  0  0
   21.9425   -3.3326  -14.7214 O   0  0  0  0  0  0  0  0  0  0  0  0
   15.2702   -7.2275   -8.1050 N   0  0  0  0  0  0  0  0  0  0  0  0
   15.6226   -7.5561   -9.4317 C   0  0  0  0  0  0  0  0  0  0  0  0
   14.7098   -7.8025  -10.2693 O   0  0  0  0  0  0  0  0  0  0  0  0
   17.0407   -7.6053   -9.8113 C   0  0  0  0  0  0  0  0  0  0  0  0
   17.3541   -6.8491  -11.0906 C   0  0  2  0  0  0  0  0  0  0  0  0
   18.7675   -6.8438  -11.4140 N   0  0  0  0  0  0  0  0  0  0  0  0
   16.9340   -5.4477  -10.8521 C   0  0  0  0  0  0  0  0  0  0  0  0
   15.6221   -5.0090  -10.9276 O   0  0  0  0  0  0  0  0  0  0  0  0
   17.7865   -4.5593  -10.5600 O   0  0  0  0  0  0  0  0  0  0  0  0
  2  1  1  0
  3  5  1  0
  3  2  1  0
  3  4  1  1
  5  6  1  6
  7  5  1  0
  7  8  2  0
  9  7  1  0
 10  9  1  0
 10 11  1  6
 12 11  1  0
 12 13  1  0
 13 14  2  0
 15 10  1  0
 16 15  2  0
 17 13  1  0
 18 19  1  0
 19 20  2  0
 19 21  1  0
 22 21  1  1
 22 23  1  0
 22 24  1  0
 23 15  1  0
 24 25  1  0
 26 24  2  0
M  END
$$$$
