IEN.pdb
     RDKit          3D

 26 25  0  0  1  0  0  0  0  0999 V2000
   16.6864  -14.5009  -16.1489 C   0  0  0  0  0  0  0  0  0  0  0  0
   17.0172  -13.1627  -16.7159 C   0  0  0  0  0  0  0  0  0  0  0  0
   17.9251  -12.3151  -15.8456 C   0  0  2  0  0  0  0  0  0  0  0  0
   17.1344  -12.0151  -14.5827 C   0  0  0  0  0  0  0  0  0  0  0  0
   18.2311  -11.0573  -16.5817 C   0  0  2  0  0  0  0  0  0  0  0  0
   18.7389  -11.4104  -17.8834 N   0  0  0  0  0  0  0  0  0  0  0  0
   19.0956  -10.0958  -15.8461 C   0  0  0  0  0  0  0  0  0  0  0  0
   18.8407   -9.8586  -14.6399 O   0  0  0  0  0  0  0  0  0  0  0  0
   20.1901   -9.4424  -16.4555 N   0  0  0  0  0  0  0  0  0  0  0  0
   21.1327   -8.5530  -15.7779 C   0  0  1  0  0  0  0  0  0  0  0  0
   22.5471   -8.9089  -16.2291 C   0  0  0  0  0  0  0  0  0  0  0  0
   23.1413  -10.0987  -15.5725 C   0  0  0  0  0  0  0  0  0  0  0  0
   24.5520  -10.2028  -16.0602 C   0  0  0  0  0  0  0  0  0  0  0  0
   25.3097   -9.2255  -15.9021 O   0  0  0  0  0  0  0  0  0  0  0  0
   20.8595   -7.1606  -16.0259 C   0  0  0  0  0  0  0  0  0  0  0  0
   20.5942   -6.8502  -17.2584 O   0  0  0  0  0  0  0  0  0  0  0  0
   24.9867  -11.3460  -16.6652 O   0  0  0  0  0  0  0  0  0  0  0  0
   18.0404   -2.6156  -16.4699 N   0  0  0  0  0  0  0  0  0  0  0  0
   18.7466   -2.8919  -15.2794 C   0  0  0  0  0  0  0  0  0  0  0  0
   19.0574   -1.9385  -14.5113 O   0  0  0  0  0  0  0  0  0  0  0  0
   19.1059   -4.2794  -14.9581 C   0  0  0  0  0  0  0  0  0  0  0  0
   20.4177   -4.7270  -15.5790 C   0  0  2  0  0  0  0  0  0  0  0  0
   20.8199   -6.0549  -15.1581 N   0  0  0  0  0  0  0  0  0  0  0  0
   21.4437   -3.7669  -15.1068 C   0  0  0  0  0  0  0  0  0  0  0  0
   21.7620   -2.5889  -15.7627 O   0  0  0  0  0  0  0  0  0  0  0  0
   22.0975   -3.9907  -14.0467 O   0  0  0  0  0  0  0  0  0  0  0  0
  2  1  1  0
  3  5  1  0
  3  2  1  0
  3  4  1  1
  5  6  1  6
  7  5  1  0
  7  8  2  0
  9  7  1  0
 10  9  1  0
 10 11  1  6
 12 11  1  0
 12 13  1  0
 13 14  2  0
 15 10  1  0
 16 15  2  0
 17 13  1  0
 18 19  1  0
 19 20  2  0
 19 21  1  0
 22 21  1  1
 22 23  1  0
 22 24  1  0
 23 15  1  0
 24 25  1  0
 26 24  2  0
M  END
$$$$
