IEN.pdb
     RDKit          3D

 26 25  0  0  1  0  0  0  0  0999 V2000
   12.5930  -12.9651  -11.0665 C   0  0  0  0  0  0  0  0  0  0  0  0
   13.9643  -12.5540  -11.4816 C   0  0  0  0  0  0  0  0  0  0  0  0
   14.6096  -11.5133  -10.5869 C   0  0  2  0  0  0  0  0  0  0  0  0
   13.7335  -10.2751  -10.6851 C   0  0  0  0  0  0  0  0  0  0  0  0
   15.9739  -11.2313  -11.1128 C   0  0  2  0  0  0  0  0  0  0  0  0
   16.7241  -12.4617  -11.0995 N   0  0  0  0  0  0  0  0  0  0  0  0
   16.6771  -10.0982  -10.4538 C   0  0  0  0  0  0  0  0  0  0  0  0
   17.0158  -10.2181   -9.2508 O   0  0  0  0  0  0  0  0  0  0  0  0
   16.9763   -8.8954  -11.1322 N   0  0  0  0  0  0  0  0  0  0  0  0
   17.6136   -7.7210  -10.5378 C   0  0  1  0  0  0  0  0  0  0  0  0
   18.6752   -7.2024  -11.5046 C   0  0  0  0  0  0  0  0  0  0  0  0
   19.3810   -5.9723  -11.0705 C   0  0  0  0  0  0  0  0  0  0  0  0
   20.4479   -5.7048  -12.0849 C   0  0  0  0  0  0  0  0  0  0  0  0
   21.1340   -4.6705  -11.9680 O   0  0  0  0  0  0  0  0  0  0  0  0
   16.6712   -6.6797  -10.2174 C   0  0  0  0  0  0  0  0  0  0  0  0
   15.8336   -6.3696  -11.1598 O   0  0  0  0  0  0  0  0  0  0  0  0
   20.6539   -6.5796  -13.1116 O   0  0  0  0  0  0  0  0  0  0  0  0
   13.5765   -2.9493   -8.3540 N   0  0  0  0  0  0  0  0  0  0  0  0
   13.9885   -3.7229   -7.2477 C   0  0  0  0  0  0  0  0  0  0  0  0
   13.5011   -3.4785   -6.1083 O   0  0  0  0  0  0  0  0  0  0  0  0
   14.9742   -4.7944   -7.4425 C   0  0  0  0  0  0  0  0  0  0  0  0
   15.4234   -4.9523   -8.8847 C   0  0  2  0  0  0  0  0  0  0  0  0
   16.4844   -5.9276   -9.0442 N   0  0  0  0  0  0  0  0  0  0  0  0
   15.9516   -3.6300   -9.2969 C   0  0  0  0  0  0  0  0  0  0  0  0
   15.2210   -2.6914  -10.0071 O   0  0  0  0  0  0  0  0  0  0  0  0
   17.1358   -3.2897   -9.0085 O   0  0  0  0  0  0  0  0  0  0  0  0
  2  1  1  0
  3  5  1  0
  3  2  1  0
  3  4  1  6
  5  6  1  1
  7  5  1  0
  7  8  2  0
  9  7  1  0
 10  9  1  0
 10 11  1  6
 12 11  1  0
 12 13  1  0
 13 14  2  0
 15 10  1  0
 16 15  2  0
 17 13  1  0
 18 19  1  0
 19 20  2  0
 19 21  1  0
 22 21  1  1
 22 23  1  0
 22 24  1  0
 23 15  1  0
 24 25  1  0
 26 24  2  0
M  END
$$$$
