RDK.pdb
     RDKit          3D

 29 28  0  0  1  0  0  0  0  0999 V2000
    8.5231  -14.7048   14.4479 N   0  0  0  0  0  0  0  0  0  0  0  0
    7.3351  -13.9446   14.6962 C   0  0  0  0  0  0  0  0  0  0  0  0
    6.8936  -13.1340   13.8092 N   0  0  0  0  0  0  0  0  0  0  0  0
    6.6179  -14.0659   15.9238 N   0  0  0  0  0  0  0  0  0  0  0  0
    7.0346  -14.9641   16.9772 C   0  0  0  0  0  0  0  0  0  0  0  0
    8.0798  -14.2281   17.7827 C   0  0  0  0  0  0  0  0  0  0  0  0
    8.5655  -14.9914   18.9750 C   0  0  0  0  0  0  0  0  0  0  0  0
    9.5677  -14.0937   19.6925 C   0  0  2  0  0  0  0  0  0  0  0  0
    9.7484  -12.8499   18.9736 N   0  0  0  0  0  0  0  0  0  0  0  0
   10.8935  -14.7440   19.8137 C   0  0  0  0  0  0  0  0  0  0  0  0
   11.0193  -15.8789   20.3447 O   0  0  0  0  0  0  0  0  0  0  0  0
    6.0586  -12.5587   13.9310 N   0  0  0  0  0  0  0  0  0  0  0  0
   12.0632  -14.1115   19.3364 C   0  0  1  0  0  0  0  0  0  0  0  0
   13.3744  -14.8259   19.2545 C   0  0  0  0  0  0  0  0  0  0  0  0
   14.3426  -13.8534   18.6073 C   0  0  0  0  0  0  0  0  0  0  0  0
   15.6405  -14.3747   18.2982 O   0  0  0  0  0  0  0  0  0  0  0  0
   16.7055  -13.7730   18.1427 C   0  0  0  0  0  0  0  0  0  0  0  0
   13.7680  -14.9223   20.6930 O   0  0  0  0  0  0  0  0  0  0  0  0
   14.1399  -13.8326   21.2481 O   0  0  0  0  0  0  0  0  0  0  0  0
   15.7422  -15.7877   18.1434 N   0  0  0  0  0  0  0  0  0  0  0  0
   13.7728  -16.0571   21.4994 C   0  0  2  0  0  0  0  0  0  0  0  0
   14.3034  -15.9586   22.8497 C   0  0  0  0  0  0  0  0  0  0  0  0
   13.8050  -17.0899   23.7470 C   0  0  0  0  0  0  0  0  0  0  0  0
   12.3363  -16.9622   23.8984 C   0  0  0  0  0  0  0  0  0  0  0  0
   11.6738  -18.0817   24.6329 C   0  0  0  0  0  0  0  0  0  0  0  0
   10.1961  -17.9262   24.8366 N   0  0  0  0  0  0  0  0  0  0  0  0
    9.6424  -19.0457   25.5290 C   0  0  0  0  0  0  0  0  0  0  0  0
   15.7851  -16.0470   22.8064 O   0  0  0  0  0  0  0  0  0  0  0  0
   16.3529  -16.3309   21.7394 O   0  0  0  0  0  0  0  0  0  0  0  0
  2  1  1  0
  3  2  2  0
  4  2  1  0
  5  4  1  0
  6  5  1  0
  7  6  1  0
  8 10  1  0
  8  7  1  0
  8  9  1  6
 10 11  2  0
 12 10  1  0
 13 12  1  0
 13 14  1  6
 15 14  1  0
 15 19  1  0
 16 15  2  0
 17 13  1  0
 18 17  2  0
 20 17  1  0
 21 27  1  0
 21 20  1  0
 21 22  1  6
 23 22  1  0
 24 23  1  0
 24 25  1  0
 25 26  1  0
 27 29  1  0
 28 27  2  0
M  END
$$$$
