RDK.pdb
     RDKit          3D

 29 28  0  0  1  0  0  0  0  0999 V2000
    8.3989  -12.1557   19.3740 N   0  0  0  0  0  0  0  0  0  0  0  0
    8.6724  -13.0338   18.2763 C   0  0  0  0  0  0  0  0  0  0  0  0
    9.5943  -12.7449   17.4363 N   0  0  0  0  0  0  0  0  0  0  0  0
    7.9350  -14.2408   18.0881 N   0  0  0  0  0  0  0  0  0  0  0  0
    7.1839  -14.8623   19.1557 C   0  0  0  0  0  0  0  0  0  0  0  0
    8.0261  -14.7381   20.4040 C   0  0  0  0  0  0  0  0  0  0  0  0
    7.8424  -15.8694   21.3666 C   0  0  0  0  0  0  0  0  0  0  0  0
    8.8959  -16.9160   21.0202 C   0  0  2  0  0  0  0  0  0  0  0  0
    8.3247  -17.9685   20.2063 N   0  0  0  0  0  0  0  0  0  0  0  0
    9.4641  -17.5417   22.2370 C   0  0  0  0  0  0  0  0  0  0  0  0
    8.7796  -18.3187   22.9535 O   0  0  0  0  0  0  0  0  0  0  0  0
    9.8641  -13.3496   16.6589 N   0  0  0  0  0  0  0  0  0  0  0  0
   10.7956  -17.2870   22.6350 C   0  0  2  0  0  0  0  0  0  0  0  0
   11.3716  -17.8593   23.8909 C   0  0  0  0  0  0  0  0  0  0  0  0
   12.8711  -17.6472   23.7997 C   0  0  0  0  0  0  0  0  0  0  0  0
   13.6413  -18.1407   24.9020 O   0  0  0  0  0  0  0  0  0  0  0  0
   13.2575  -18.6882   25.9381 C   0  0  0  0  0  0  0  0  0  0  0  0
   10.8705  -16.9059   24.9270 O   0  0  0  0  0  0  0  0  0  0  0  0
   11.3002  -15.7052   24.8405 O   0  0  0  0  0  0  0  0  0  0  0  0
   15.0555  -17.9896   24.8130 N   0  0  0  0  0  0  0  0  0  0  0  0
    9.9885  -17.1706   25.9710 C   0  0  1  0  0  0  0  0  0  0  0  0
    9.7295  -16.1310   26.9541 C   0  0  0  0  0  0  0  0  0  0  0  0
    8.3008  -15.5979   26.8641 C   0  0  0  0  0  0  0  0  0  0  0  0
    8.3523  -14.1204   26.7610 C   0  0  0  0  0  0  0  0  0  0  0  0
    7.0239  -13.4438   26.6634 C   0  0  0  0  0  0  0  0  0  0  0  0
    7.0724  -11.9460   26.6062 N   0  0  0  0  0  0  0  0  0  0  0  0
    5.7623  -11.3821   26.5359 C   0  0  0  0  0  0  0  0  0  0  0  0
    9.9106  -16.6856   28.3197 O   0  0  0  0  0  0  0  0  0  0  0  0
   10.0271  -15.9144   29.2858 O   0  0  0  0  0  0  0  0  0  0  0  0
  2  1  1  0
  3  2  2  0
  4  2  1  0
  5  4  1  0
  6  5  1  0
  7  6  1  0
  8 10  1  0
  8  7  1  0
  8  9  1  6
 10 11  2  0
 12 10  1  0
 13 12  1  0
 13 14  1  6
 15 14  1  0
 15 19  1  0
 16 15  2  0
 17 13  1  0
 18 17  2  0
 20 17  1  0
 21 27  1  0
 21 20  1  0
 21 22  1  1
 23 22  1  0
 24 23  1  0
 24 25  1  0
 25 26  1  0
 27 29  1  0
 28 27  2  0
M  END
$$$$
