RDK.pdb
     RDKit          3D

 29 28  0  0  1  0  0  0  0  0999 V2000
    7.0605  -13.0215   16.4503 N   0  0  0  0  0  0  0  0  0  0  0  0
    8.2528  -13.5989   16.9943 C   0  0  0  0  0  0  0  0  0  0  0  0
    9.1474  -12.8497   17.5209 N   0  0  0  0  0  0  0  0  0  0  0  0
    8.4766  -15.0079   16.9653 N   0  0  0  0  0  0  0  0  0  0  0  0
    7.4045  -15.9644   17.1252 C   0  0  0  0  0  0  0  0  0  0  0  0
    6.9769  -15.8945   18.5728 C   0  0  0  0  0  0  0  0  0  0  0  0
    7.6529  -16.9037   19.4473 C   0  0  0  0  0  0  0  0  0  0  0  0
    8.2500  -16.1367   20.6221 C   0  0  2  0  0  0  0  0  0  0  0  0
    9.2625  -15.2074   20.1662 N   0  0  0  0  0  0  0  0  0  0  0  0
    8.8810  -17.0484   21.6047 C   0  0  0  0  0  0  0  0  0  0  0  0
    8.2542  -18.0308   22.0820 O   0  0  0  0  0  0  0  0  0  0  0  0
   10.0367  -13.1966   17.8841 N   0  0  0  0  0  0  0  0  0  0  0  0
   10.2098  -16.8460   22.0400 C   0  0  2  0  0  0  0  0  0  0  0  0
   10.8936  -17.7967   22.9701 C   0  0  0  0  0  0  0  0  0  0  0  0
   12.3794  -17.6558   22.6968 C   0  0  0  0  0  0  0  0  0  0  0  0
   12.7786  -17.7827   21.3270 O   0  0  0  0  0  0  0  0  0  0  0  0
   13.5850  -17.1066   20.6842 C   0  0  0  0  0  0  0  0  0  0  0  0
   10.6453  -17.1642   24.3013 O   0  0  0  0  0  0  0  0  0  0  0  0
   11.4901  -16.2782   24.6687 O   0  0  0  0  0  0  0  0  0  0  0  0
   12.1720  -18.8326   20.5784 N   0  0  0  0  0  0  0  0  0  0  0  0
    9.6009  -17.4232   25.1845 C   0  0  2  0  0  0  0  0  0  0  0  0
    9.8304  -18.3273   26.3000 C   0  0  0  0  0  0  0  0  0  0  0  0
    9.7307  -19.7932   25.8815 C   0  0  0  0  0  0  0  0  0  0  0  0
    9.9016  -20.6416   27.0845 C   0  0  0  0  0  0  0  0  0  0  0  0
    9.9100  -22.1133   26.8277 C   0  0  0  0  0  0  0  0  0  0  0  0
   10.0147  -22.9747   28.0509 N   0  0  0  0  0  0  0  0  0  0  0  0
    9.9007  -24.3608   27.7264 C   0  0  0  0  0  0  0  0  0  0  0  0
   11.1977  -18.1119   26.8378 O   0  0  0  0  0  0  0  0  0  0  0  0
   12.1695  -18.1138   26.0650 O   0  0  0  0  0  0  0  0  0  0  0  0
  2  1  1  0
  3  2  2  0
  4  2  1  0
  5  4  1  0
  6  5  1  0
  7  6  1  0
  8 10  1  0
  8  7  1  0
  8  9  1  6
 10 11  2  0
 12 10  1  0
 13 12  1  0
 13 14  1  6
 15 14  1  0
 15 19  1  0
 16 15  2  0
 17 13  1  0
 18 17  2  0
 20 17  1  0
 21 27  1  0
 21 20  1  0
 21 22  1  6
 23 22  1  0
 24 23  1  0
 24 25  1  0
 25 26  1  0
 27 29  1  0
 28 27  2  0
M  END
$$$$
