RDK.pdb
     RDKit          3D

 29 28  0  0  1  0  0  0  0  0999 V2000
    6.6863  -13.3247   15.7479 N   0  0  0  0  0  0  0  0  0  0  0  0
    7.9700  -13.5096   15.1407 C   0  0  0  0  0  0  0  0  0  0  0  0
    8.1206  -13.3157   13.8842 N   0  0  0  0  0  0  0  0  0  0  0  0
    9.1044  -13.9108   15.9076 N   0  0  0  0  0  0  0  0  0  0  0  0
    8.9780  -14.5677   17.1893 C   0  0  0  0  0  0  0  0  0  0  0  0
    7.7867  -13.9434   17.8779 C   0  0  0  0  0  0  0  0  0  0  0  0
    7.4875  -14.5401   19.2175 C   0  0  0  0  0  0  0  0  0  0  0  0
    8.7967  -14.5424   19.9993 C   0  0  2  0  0  0  0  0  0  0  0  0
    9.9306  -14.5913   19.1002 N   0  0  0  0  0  0  0  0  0  0  0  0
    8.8877  -15.7093   20.9076 C   0  0  0  0  0  0  0  0  0  0  0  0
    7.9648  -15.9786   21.7209 O   0  0  0  0  0  0  0  0  0  0  0  0
    9.0148  -13.4050   13.3991 N   0  0  0  0  0  0  0  0  0  0  0  0
   10.0151  -16.5607   20.8917 C   0  0  1  0  0  0  0  0  0  0  0  0
   10.1345  -17.7364   21.8081 C   0  0  0  0  0  0  0  0  0  0  0  0
   11.3777  -18.4868   21.3685 C   0  0  0  0  0  0  0  0  0  0  0  0
   11.6798  -19.6805   22.1003 O   0  0  0  0  0  0  0  0  0  0  0  0
   11.1430  -20.1295   23.1155 C   0  0  0  0  0  0  0  0  0  0  0  0
   10.4708  -17.0845   23.1103 O   0  0  0  0  0  0  0  0  0  0  0  0
   11.4438  -16.2559   23.0891 O   0  0  0  0  0  0  0  0  0  0  0  0
   12.7494  -20.4814   21.6048 N   0  0  0  0  0  0  0  0  0  0  0  0
    9.8467  -17.2701   24.3408 C   0  0  1  0  0  0  0  0  0  0  0  0
   10.2727  -16.4653   25.4744 C   0  0  0  0  0  0  0  0  0  0  0  0
    9.2066  -15.4554   25.8953 C   0  0  0  0  0  0  0  0  0  0  0  0
    9.7422  -14.6383   27.0097 C   0  0  0  0  0  0  0  0  0  0  0  0
    8.8186  -13.5829   27.5243 C   0  0  0  0  0  0  0  0  0  0  0  0
    9.3741  -12.7290   28.6250 N   0  0  0  0  0  0  0  0  0  0  0  0
    8.4237  -11.7580   29.0646 C   0  0  0  0  0  0  0  0  0  0  0  0
   10.5306  -17.3493   26.6394 O   0  0  0  0  0  0  0  0  0  0  0  0
    9.6869  -18.2005   26.9636 O   0  0  0  0  0  0  0  0  0  0  0  0
  2  1  1  0
  3  2  2  0
  4  2  1  0
  5  4  1  0
  6  5  1  0
  7  6  1  0
  8 10  1  0
  8  7  1  0
  8  9  1  6
 10 11  2  0
 12 10  1  0
 13 12  1  0
 13 14  1  1
 15 14  1  0
 15 19  1  0
 16 15  2  0
 17 13  1  0
 18 17  2  0
 20 17  1  0
 21 27  1  0
 21 20  1  0
 21 22  1  1
 23 22  1  0
 24 23  1  0
 24 25  1  0
 25 26  1  0
 27 29  1  0
 28 27  2  0
M  END
$$$$
