RDK.pdb
     RDKit          3D

 29 28  0  0  1  0  0  0  0  0999 V2000
    7.7933  -12.5814   16.0213 N   0  0  0  0  0  0  0  0  0  0  0  0
    8.3480  -13.7911   15.4923 C   0  0  0  0  0  0  0  0  0  0  0  0
    9.0092  -13.7696   14.3963 N   0  0  0  0  0  0  0  0  0  0  0  0
    8.1818  -15.0402   16.1619 N   0  0  0  0  0  0  0  0  0  0  0  0
    7.4525  -15.1604   17.4043 C   0  0  0  0  0  0  0  0  0  0  0  0
    8.4072  -14.7600   18.5049 C   0  0  0  0  0  0  0  0  0  0  0  0
    7.8389  -14.9215   19.8801 C   0  0  0  0  0  0  0  0  0  0  0  0
    8.9662  -14.6145   20.8598 C   0  0  2  0  0  0  0  0  0  0  0  0
   10.2499  -14.6465   20.1907 N   0  0  0  0  0  0  0  0  0  0  0  0
    9.0082  -15.5966   21.9683 C   0  0  0  0  0  0  0  0  0  0  0  0
    7.9796  -15.8656   22.6432 O   0  0  0  0  0  0  0  0  0  0  0  0
    9.3440  -14.6078   13.9185 N   0  0  0  0  0  0  0  0  0  0  0  0
   10.2060  -16.2656   22.3060 C   0  0  1  0  0  0  0  0  0  0  0  0
   10.2776  -17.2426   23.4359 C   0  0  0  0  0  0  0  0  0  0  0  0
   11.6868  -17.8047   23.4162 C   0  0  0  0  0  0  0  0  0  0  0  0
   11.9683  -18.8225   24.3840 O   0  0  0  0  0  0  0  0  0  0  0  0
   11.1911  -19.4352   25.1195 C   0  0  0  0  0  0  0  0  0  0  0  0
   10.1950  -16.3466   24.6293 O   0  0  0  0  0  0  0  0  0  0  0  0
   11.2322  -15.6412   24.8751 O   0  0  0  0  0  0  0  0  0  0  0  0
   13.3342  -19.1989   24.5378 N   0  0  0  0  0  0  0  0  0  0  0  0
    9.1210  -16.1869   25.5005 C   0  0  1  0  0  0  0  0  0  0  0  0
    9.2668  -15.2976   26.6416 C   0  0  0  0  0  0  0  0  0  0  0  0
    7.9456  -14.6335   27.0252 C   0  0  0  0  0  0  0  0  0  0  0  0
    7.7753  -13.4102   26.2063 C   0  0  0  0  0  0  0  0  0  0  0  0
    6.4879  -12.6812   26.4136 C   0  0  0  0  0  0  0  0  0  0  0  0
    6.3434  -11.4062   25.6373 N   0  0  0  0  0  0  0  0  0  0  0  0
    5.0790  -10.7874   25.8777 C   0  0  0  0  0  0  0  0  0  0  0  0
    9.7302  -16.0755   27.8187 O   0  0  0  0  0  0  0  0  0  0  0  0
   10.0319  -15.4827   28.8670 O   0  0  0  0  0  0  0  0  0  0  0  0
  2  1  1  0
  3  2  2  0
  4  2  1  0
  5  4  1  0
  6  5  1  0
  7  6  1  0
  8 10  1  0
  8  7  1  0
  8  9  1  6
 10 11  2  0
 12 10  1  0
 13 12  1  0
 13 14  1  1
 15 14  1  0
 15 19  1  0
 16 15  2  0
 17 13  1  0
 18 17  2  0
 20 17  1  0
 21 27  1  0
 21 20  1  0
 21 22  1  1
 23 22  1  0
 24 23  1  0
 24 25  1  0
 25 26  1  0
 27 29  1  0
 28 27  2  0
M  END
$$$$
