RDK.pdb
     RDKit          3D

 29 28  0  0  1  0  0  0  0  0999 V2000
    6.9665  -13.1052   18.1899 N   0  0  0  0  0  0  0  0  0  0  0  0
    8.1794  -13.5810   17.5955 C   0  0  0  0  0  0  0  0  0  0  0  0
    9.0874  -12.7528   17.2368 N   0  0  0  0  0  0  0  0  0  0  0  0
    8.4089  -14.9739   17.3876 N   0  0  0  0  0  0  0  0  0  0  0  0
    7.4756  -15.9857   17.8294 C   0  0  0  0  0  0  0  0  0  0  0  0
    7.6298  -16.0889   19.3290 C   0  0  0  0  0  0  0  0  0  0  0  0
    8.3956  -17.2964   19.7715 C   0  0  0  0  0  0  0  0  0  0  0  0
    8.4629  -17.2400   21.2937 C   0  0  2  0  0  0  0  0  0  0  0  0
    7.9981  -15.9580   21.7804 N   0  0  0  0  0  0  0  0  0  0  0  0
    9.8462  -17.4375   21.7863 C   0  0  0  0  0  0  0  0  0  0  0  0
   10.3708  -18.5818   21.8216 O   0  0  0  0  0  0  0  0  0  0  0  0
    9.9471  -13.0252   16.7575 N   0  0  0  0  0  0  0  0  0  0  0  0
   10.6245  -16.3466   22.2338 C   0  0  1  0  0  0  0  0  0  0  0  0
   11.9894  -16.5318   22.8163 C   0  0  0  0  0  0  0  0  0  0  0  0
   12.8112  -15.3466   22.3452 C   0  0  0  0  0  0  0  0  0  0  0  0
   13.1768  -15.3494   20.9602 O   0  0  0  0  0  0  0  0  0  0  0  0
   12.9048  -14.5293   20.0804 C   0  0  0  0  0  0  0  0  0  0  0  0
   11.7379  -16.3209   24.2744 O   0  0  0  0  0  0  0  0  0  0  0  0
   12.7751  -16.2174   25.0142 O   0  0  0  0  0  0  0  0  0  0  0  0
   13.9681  -16.4456   20.5095 N   0  0  0  0  0  0  0  0  0  0  0  0
   10.5086  -16.2194   24.9197 C   0  0  1  0  0  0  0  0  0  0  0  0
   10.4839  -16.0356   26.3619 C   0  0  0  0  0  0  0  0  0  0  0  0
    9.1456  -15.4823   26.8480 C   0  0  0  0  0  0  0  0  0  0  0  0
    8.8676  -14.2162   26.1297 C   0  0  0  0  0  0  0  0  0  0  0  0
    7.5663  -13.5658   26.4694 C   0  0  0  0  0  0  0  0  0  0  0  0
    7.2614  -12.3106   25.7074 N   0  0  0  0  0  0  0  0  0  0  0  0
    6.0040  -11.7553   26.0950 C   0  0  0  0  0  0  0  0  0  0  0  0
   10.6917  -17.3450   27.0308 O   0  0  0  0  0  0  0  0  0  0  0  0
   10.6486  -18.3904   26.3622 O   0  0  0  0  0  0  0  0  0  0  0  0
  2  1  1  0
  3  2  2  0
  4  2  1  0
  5  4  1  0
  6  5  1  0
  7  6  1  0
  8 10  1  0
  8  7  1  0
  8  9  1  6
 10 11  2  0
 12 10  1  0
 13 12  1  0
 13 14  1  6
 15 14  1  0
 15 19  1  0
 16 15  2  0
 17 13  1  0
 18 17  2  0
 20 17  1  0
 21 27  1  0
 21 20  1  0
 21 22  1  1
 23 22  1  0
 24 23  1  0
 24 25  1  0
 25 26  1  0
 27 29  1  0
 28 27  2  0
M  END
$$$$
