RDK.pdb
     RDKit          3D

 29 28  0  0  1  0  0  0  0  0999 V2000
    9.3405  -15.2514   17.1159 N   0  0  0  0  0  0  0  0  0  0  0  0
    8.4470  -14.1481   16.9280 C   0  0  0  0  0  0  0  0  0  0  0  0
    8.6909  -13.2694   16.0294 N   0  0  0  0  0  0  0  0  0  0  0  0
    7.2741  -13.9969   17.7264 N   0  0  0  0  0  0  0  0  0  0  0  0
    6.9080  -14.9492   18.7506 C   0  0  0  0  0  0  0  0  0  0  0  0
    7.7209  -14.5988   19.9752 C   0  0  0  0  0  0  0  0  0  0  0  0
    7.5440  -15.5608   21.1080 C   0  0  0  0  0  0  0  0  0  0  0  0
    8.6318  -16.6188   20.9594 C   0  0  2  0  0  0  0  0  0  0  0  0
    8.1054  -17.8102   20.3271 N   0  0  0  0  0  0  0  0  0  0  0  0
    9.1927  -17.0129   22.2729 C   0  0  0  0  0  0  0  0  0  0  0  0
    8.4767  -17.5609   23.1521 O   0  0  0  0  0  0  0  0  0  0  0  0
    8.1244  -12.4320   15.8855 N   0  0  0  0  0  0  0  0  0  0  0  0
   10.5523  -16.7868   22.5837 C   0  0  2  0  0  0  0  0  0  0  0  0
   11.1504  -17.2149   23.8857 C   0  0  0  0  0  0  0  0  0  0  0  0
   12.6506  -17.0465   23.7341 C   0  0  0  0  0  0  0  0  0  0  0  0
   13.3796  -18.2257   23.3737 O   0  0  0  0  0  0  0  0  0  0  0  0
   13.0361  -19.1644   22.6517 C   0  0  0  0  0  0  0  0  0  0  0  0
   10.6933  -16.1332   24.8102 O   0  0  0  0  0  0  0  0  0  0  0  0
   11.0294  -14.9420   24.4908 O   0  0  0  0  0  0  0  0  0  0  0  0
   14.6921  -18.3565   23.9134 N   0  0  0  0  0  0  0  0  0  0  0  0
    9.9418  -16.2700   25.9740 C   0  0  1  0  0  0  0  0  0  0  0  0
    9.6269  -15.0825   26.7519 C   0  0  0  0  0  0  0  0  0  0  0  0
    8.2217  -14.5596   26.4592 C   0  0  0  0  0  0  0  0  0  0  0  0
    7.9662  -13.3809   27.3203 C   0  0  0  0  0  0  0  0  0  0  0  0
    6.6239  -12.7479   27.1486 C   0  0  0  0  0  0  0  0  0  0  0  0
    6.3940  -11.5076   27.9598 N   0  0  0  0  0  0  0  0  0  0  0  0
    5.0533  -11.0346   27.8243 C   0  0  0  0  0  0  0  0  0  0  0  0
    9.6857  -15.4096   28.1992 O   0  0  0  0  0  0  0  0  0  0  0  0
   10.0474  -14.5425   29.0110 O   0  0  0  0  0  0  0  0  0  0  0  0
  2  1  1  0
  3  2  2  0
  4  2  1  0
  5  4  1  0
  6  5  1  0
  7  6  1  0
  8 10  1  0
  8  7  1  0
  8  9  1  1
 10 11  2  0
 12 10  1  0
 13 12  1  0
 13 14  1  6
 15 14  1  0
 15 19  1  0
 16 15  2  0
 17 13  1  0
 18 17  2  0
 20 17  1  0
 21 27  1  0
 21 20  1  0
 21 22  1  1
 23 22  1  0
 24 23  1  0
 24 25  1  0
 25 26  1  0
 27 29  1  0
 28 27  2  0
M  END
$$$$
