RDK.pdb
     RDKit          3D

 29 28  0  0  1  0  0  0  0  0999 V2000
    7.3401  -13.4220   16.4684 N   0  0  0  0  0  0  0  0  0  0  0  0
    8.5434  -13.7843   17.1552 C   0  0  0  0  0  0  0  0  0  0  0  0
    9.3154  -12.8760   17.6219 N   0  0  0  0  0  0  0  0  0  0  0  0
    8.9132  -15.1504   17.3369 N   0  0  0  0  0  0  0  0  0  0  0  0
    8.0139  -16.2415   17.0351 C   0  0  0  0  0  0  0  0  0  0  0  0
    7.1525  -16.4414   18.2603 C   0  0  0  0  0  0  0  0  0  0  0  0
    7.5641  -17.6111   19.0985 C   0  0  0  0  0  0  0  0  0  0  0  0
    7.3802  -17.1946   20.5538 C   0  0  2  0  0  0  0  0  0  0  0  0
    7.1297  -15.7719   20.6522 N   0  0  0  0  0  0  0  0  0  0  0  0
    8.5818  -17.5005   21.3648 C   0  0  0  0  0  0  0  0  0  0  0  0
    8.9030  -18.6875   21.6361 O   0  0  0  0  0  0  0  0  0  0  0  0
   10.2297  -13.0653   18.0356 N   0  0  0  0  0  0  0  0  0  0  0  0
    9.4092  -16.4687   21.8618 C   0  0  2  0  0  0  0  0  0  0  0  0
   10.4698  -16.7254   22.8844 C   0  0  0  0  0  0  0  0  0  0  0  0
   11.7906  -16.4106   22.2073 C   0  0  0  0  0  0  0  0  0  0  0  0
   11.7115  -15.6092   21.0227 O   0  0  0  0  0  0  0  0  0  0  0  0
   10.7240  -15.3141   20.3457 C   0  0  0  0  0  0  0  0  0  0  0  0
   10.2260  -15.6282   23.8694 O   0  0  0  0  0  0  0  0  0  0  0  0
    9.5587  -14.6259   23.4405 O   0  0  0  0  0  0  0  0  0  0  0  0
   12.9347  -15.0630   20.5368 N   0  0  0  0  0  0  0  0  0  0  0  0
   10.6358  -15.5718   25.1987 C   0  0  2  0  0  0  0  0  0  0  0  0
    9.6688  -15.8590   26.2459 C   0  0  0  0  0  0  0  0  0  0  0  0
    8.2304  -15.7811   25.7372 C   0  0  0  0  0  0  0  0  0  0  0  0
    7.4875  -14.8024   26.5658 C   0  0  0  0  0  0  0  0  0  0  0  0
    7.0816  -13.5504   25.8590 C   0  0  0  0  0  0  0  0  0  0  0  0
    6.3123  -12.5678   26.6909 N   0  0  0  0  0  0  0  0  0  0  0  0
    6.0758  -11.3521   25.9799 C   0  0  0  0  0  0  0  0  0  0  0  0
    9.8851  -17.2374   26.7542 O   0  0  0  0  0  0  0  0  0  0  0  0
    9.6377  -17.5003   27.9422 O   0  0  0  0  0  0  0  0  0  0  0  0
  2  1  1  0
  3  2  2  0
  4  2  1  0
  5  4  1  0
  6  5  1  0
  7  6  1  0
  8 10  1  0
  8  7  1  0
  8  9  1  6
 10 11  2  0
 12 10  1  0
 13 12  1  0
 13 14  1  6
 15 14  1  0
 15 19  1  0
 16 15  2  0
 17 13  1  0
 18 17  2  0
 20 17  1  0
 21 27  1  0
 21 20  1  0
 21 22  1  1
 23 22  1  0
 24 23  1  0
 24 25  1  0
 25 26  1  0
 27 29  1  0
 28 27  2  0
M  END
$$$$
