RDK.pdb
     RDKit          3D

 29 28  0  0  1  0  0  0  0  0999 V2000
    9.5625  -14.4116   16.8581 N   0  0  0  0  0  0  0  0  0  0  0  0
    8.1718  -14.0704   16.8404 C   0  0  0  0  0  0  0  0  0  0  0  0
    7.6636  -13.4973   15.8146 N   0  0  0  0  0  0  0  0  0  0  0  0
    7.3223  -14.3547   17.9511 N   0  0  0  0  0  0  0  0  0  0  0  0
    7.7963  -14.3173   19.3164 C   0  0  0  0  0  0  0  0  0  0  0  0
    6.6161  -14.6686   20.1921 C   0  0  0  0  0  0  0  0  0  0  0  0
    6.9662  -15.5621   21.3406 C   0  0  0  0  0  0  0  0  0  0  0  0
    8.1413  -14.9104   22.0615 C   0  0  2  0  0  0  0  0  0  0  0  0
    9.2276  -14.6504   21.1401 N   0  0  0  0  0  0  0  0  0  0  0  0
    8.6635  -15.7746   23.1457 C   0  0  0  0  0  0  0  0  0  0  0  0
    7.8954  -16.2818   24.0051 O   0  0  0  0  0  0  0  0  0  0  0  0
    6.6946  -13.1789   15.7639 N   0  0  0  0  0  0  0  0  0  0  0  0
   10.0433  -16.0593   23.2518 C   0  0  1  0  0  0  0  0  0  0  0  0
   10.5793  -17.0219   24.2630 C   0  0  0  0  0  0  0  0  0  0  0  0
   12.0007  -17.3336   23.8335 C   0  0  0  0  0  0  0  0  0  0  0  0
   12.1366  -18.1489   22.6637 O   0  0  0  0  0  0  0  0  0  0  0  0
   11.4870  -19.1408   22.3249 C   0  0  0  0  0  0  0  0  0  0  0  0
   10.6830  -16.1666   25.4842 O   0  0  0  0  0  0  0  0  0  0  0  0
   11.5448  -15.2237   25.4383 O   0  0  0  0  0  0  0  0  0  0  0  0
   13.1616  -17.7825   21.7439 N   0  0  0  0  0  0  0  0  0  0  0  0
    9.9491  -16.2733   26.6623 C   0  0  1  0  0  0  0  0  0  0  0  0
   10.1858  -15.3130   27.7282 C   0  0  0  0  0  0  0  0  0  0  0  0
    8.9041  -14.5988   28.1535 C   0  0  0  0  0  0  0  0  0  0  0  0
    8.4523  -13.7331   27.0387 C   0  0  0  0  0  0  0  0  0  0  0  0
    7.1872  -12.9800   27.2919 C   0  0  0  0  0  0  0  0  0  0  0  0
    6.7935  -12.0121   26.2161 N   0  0  0  0  0  0  0  0  0  0  0  0
    5.5454  -11.3830   26.5091 C   0  0  0  0  0  0  0  0  0  0  0  0
   10.7164  -16.0197   28.9217 O   0  0  0  0  0  0  0  0  0  0  0  0
   10.7171  -17.2609   28.9511 O   0  0  0  0  0  0  0  0  0  0  0  0
  2  1  1  0
  3  2  2  0
  4  2  1  0
  5  4  1  0
  6  5  1  0
  7  6  1  0
  8 10  1  0
  8  7  1  0
  8  9  1  6
 10 11  2  0
 12 10  1  0
 13 12  1  0
 13 14  1  1
 15 14  1  0
 15 19  1  0
 16 15  2  0
 17 13  1  0
 18 17  2  0
 20 17  1  0
 21 27  1  0
 21 20  1  0
 21 22  1  1
 23 22  1  0
 24 23  1  0
 24 25  1  0
 25 26  1  0
 27 29  1  0
 28 27  2  0
M  END
$$$$
