ECN.pdb
     RDKit          3D

 24 23  0  0  1  0  0  0  0  0999 V2000
    7.8243  -13.1395   19.8121 N   0  0  0  0  0  0  0  0  0  0  0  0
    7.2223  -14.0190   20.8284 C   0  0  1  0  0  0  0  0  0  0  0  0
    7.3913  -15.4702   20.4015 C   0  0  0  0  0  0  0  0  0  0  0  0
    6.9685  -15.6502   18.9884 C   0  0  0  0  0  0  0  0  0  0  0  0
    7.8378  -16.5496   18.2327 C   0  0  0  0  0  0  0  0  0  0  0  0
    8.3942  -17.5205   18.8297 O   0  0  0  0  0  0  0  0  0  0  0  0
    8.0369  -13.8627   22.0577 C   0  0  0  0  0  0  0  0  0  0  0  0
    9.2448  -13.5685   21.9168 O   0  0  0  0  0  0  0  0  0  0  0  0
    8.0878  -16.3993   16.8900 O   0  0  0  0  0  0  0  0  0  0  0  0
    7.5155  -14.0288   23.3474 N   0  0  0  0  0  0  0  0  0  0  0  0
    8.3295  -13.9103   24.5534 C   0  0  1  0  0  0  0  0  0  0  0  0
    7.5212  -13.2937   25.6699 C   0  0  0  0  0  0  0  0  0  0  0  0
    5.8548  -13.9467   25.7228 S   0  0  0  0  0  0  0  0  0  0  0  0
    8.6754  -15.2989   24.9398 C   0  0  0  0  0  0  0  0  0  0  0  0
    7.8105  -16.2148   24.8527 O   0  0  0  0  0  0  0  0  0  0  0  0
   10.4932  -18.4244   23.3740 N   0  0  0  0  0  0  0  0  0  0  0  0
   11.6953  -18.0821   24.0726 C   0  0  0  0  0  0  0  0  0  0  0  0
   12.7958  -18.3854   23.5420 O   0  0  0  0  0  0  0  0  0  0  0  0
   11.5748  -17.4012   25.3601 C   0  0  0  0  0  0  0  0  0  0  0  0
   10.1511  -17.0838   25.7670 C   0  0  2  0  0  0  0  0  0  0  0  0
    9.9477  -15.6952   25.4147 N   0  0  0  0  0  0  0  0  0  0  0  0
   10.0350  -17.3044   27.2301 C   0  0  0  0  0  0  0  0  0  0  0  0
    9.9392  -16.1691   28.0478 O   0  0  0  0  0  0  0  0  0  0  0  0
   10.0164  -18.4149   27.7849 O   0  0  0  0  0  0  0  0  0  0  0  0
  2  1  1  6
  2  7  1  0
  3  2  1  0
  3  4  1  0
  5  4  1  0
  5  9  1  0
  6  5  2  0
  7  8  2  0
 10 11  1  0
 10  7  1  0
 11 14  1  0
 11 12  1  1
 13 12  1  0
 14 21  1  0
 15 14  2  0
 17 16  1  0
 18 17  2  0
 19 17  1  0
 20 19  1  1
 21 20  1  0
 22 23  1  0
 22 20  1  0
 24 22  2  0
M  END
$$$$
