ECN.pdb
     RDKit          3D

 24 23  0  0  1  0  0  0  0  0999 V2000
   10.5354  -16.3745   19.1607 N   0  0  0  0  0  0  0  0  0  0  0  0
    9.6055  -16.8937   20.1779 C   0  0  1  0  0  0  0  0  0  0  0  0
   10.0228  -18.3047   20.5675 C   0  0  0  0  0  0  0  0  0  0  0  0
   11.3232  -18.6554   19.9400 C   0  0  0  0  0  0  0  0  0  0  0  0
   11.7676  -20.0135   20.2460 C   0  0  0  0  0  0  0  0  0  0  0  0
   12.8338  -20.1815   20.9121 O   0  0  0  0  0  0  0  0  0  0  0  0
    9.8024  -16.0652   21.3919 C   0  0  0  0  0  0  0  0  0  0  0  0
   10.9503  -15.6145   21.6038 O   0  0  0  0  0  0  0  0  0  0  0  0
   11.0823  -21.1355   19.8466 O   0  0  0  0  0  0  0  0  0  0  0  0
    8.7715  -15.7729   22.2943 N   0  0  0  0  0  0  0  0  0  0  0  0
    8.9542  -14.9037   23.4530 C   0  0  1  0  0  0  0  0  0  0  0  0
    7.7927  -13.9467   23.5756 C   0  0  0  0  0  0  0  0  0  0  0  0
    6.2206  -14.8035   23.5549 S   0  0  0  0  0  0  0  0  0  0  0  0
    8.9446  -15.8024   24.6317 C   0  0  0  0  0  0  0  0  0  0  0  0
    8.8009  -17.0475   24.4780 O   0  0  0  0  0  0  0  0  0  0  0  0
   10.6647  -13.6086   28.8024 N   0  0  0  0  0  0  0  0  0  0  0  0
   10.5435  -14.9986   28.4807 C   0  0  0  0  0  0  0  0  0  0  0  0
   11.5995  -15.6726   28.3573 O   0  0  0  0  0  0  0  0  0  0  0  0
    9.2018  -15.5537   28.3145 C   0  0  0  0  0  0  0  0  0  0  0  0
    9.0043  -16.3344   27.0320 C   0  0  2  0  0  0  0  0  0  0  0  0
    9.0915  -15.3587   25.9670 N   0  0  0  0  0  0  0  0  0  0  0  0
    7.6651  -16.9718   27.0878 C   0  0  0  0  0  0  0  0  0  0  0  0
    7.5776  -18.2372   27.6859 O   0  0  0  0  0  0  0  0  0  0  0  0
    6.6181  -16.4717   26.6461 O   0  0  0  0  0  0  0  0  0  0  0  0
  2  1  1  6
  2  7  1  0
  3  2  1  0
  3  4  1  0
  5  4  1  0
  5  9  1  0
  6  5  2  0
  7  8  2  0
 10 11  1  0
 10  7  1  0
 11 14  1  0
 11 12  1  1
 13 12  1  0
 14 21  1  0
 15 14  2  0
 17 16  1  0
 18 17  2  0
 19 17  1  0
 20 19  1  1
 21 20  1  0
 22 23  1  0
 22 20  1  0
 24 22  2  0
M  END
$$$$
