ECN.pdb
     RDKit          3D

 24 23  0  0  1  0  0  0  0  0999 V2000
    9.1138  -15.1249   19.4262 N   0  0  0  0  0  0  0  0  0  0  0  0
    8.7161  -16.1461   20.4100 C   0  0  1  0  0  0  0  0  0  0  0  0
    9.4314  -17.4525   20.0962 C   0  0  0  0  0  0  0  0  0  0  0  0
   10.3315  -17.2855   18.9258 C   0  0  0  0  0  0  0  0  0  0  0  0
   11.0027  -18.5215   18.5290 C   0  0  0  0  0  0  0  0  0  0  0  0
   12.2701  -18.5692   18.5389 O   0  0  0  0  0  0  0  0  0  0  0  0
    9.2480  -15.6996   21.7203 C   0  0  0  0  0  0  0  0  0  0  0  0
   10.4163  -15.2523   21.7474 O   0  0  0  0  0  0  0  0  0  0  0  0
   10.3254  -19.6524   18.1415 O   0  0  0  0  0  0  0  0  0  0  0  0
    8.5064  -15.7583   22.9074 N   0  0  0  0  0  0  0  0  0  0  0  0
    9.0369  -15.3242   24.1963 C   0  0  1  0  0  0  0  0  0  0  0  0
    7.9369  -14.7209   25.0367 C   0  0  0  0  0  0  0  0  0  0  0  0
    6.3772  -15.5671   24.7967 S   0  0  0  0  0  0  0  0  0  0  0  0
    9.5140  -16.5567   24.8674 C   0  0  0  0  0  0  0  0  0  0  0  0
    9.7248  -17.6038   24.1937 O   0  0  0  0  0  0  0  0  0  0  0  0
   14.0202  -18.5619   25.7192 N   0  0  0  0  0  0  0  0  0  0  0  0
   12.7735  -18.0339   25.2530 C   0  0  0  0  0  0  0  0  0  0  0  0
   12.3363  -18.4385   24.1439 O   0  0  0  0  0  0  0  0  0  0  0  0
   12.0817  -17.0567   26.0910 C   0  0  0  0  0  0  0  0  0  0  0  0
   10.7955  -17.5642   26.7087 C   0  0  2  0  0  0  0  0  0  0  0  0
    9.7637  -16.6563   26.2564 N   0  0  0  0  0  0  0  0  0  0  0  0
   10.9532  -17.5290   28.1841 C   0  0  0  0  0  0  0  0  0  0  0  0
   11.3084  -18.7255   28.8234 O   0  0  0  0  0  0  0  0  0  0  0  0
   10.7950  -16.5232   28.8946 O   0  0  0  0  0  0  0  0  0  0  0  0
  2  1  1  6
  2  7  1  0
  3  2  1  0
  3  4  1  0
  5  4  1  0
  5  9  1  0
  6  5  2  0
  7  8  2  0
 10 11  1  0
 10  7  1  0
 11 14  1  0
 11 12  1  1
 13 12  1  0
 14 21  1  0
 15 14  2  0
 17 16  1  0
 18 17  2  0
 19 17  1  0
 20 19  1  6
 21 20  1  0
 22 23  1  0
 22 20  1  0
 24 22  2  0
M  END
$$$$
