ECN.pdb
     RDKit          3D

 24 23  0  0  1  0  0  0  0  0999 V2000
    9.1056  -17.9496   18.3347 N   0  0  0  0  0  0  0  0  0  0  0  0
    9.8510  -16.7408   17.9448 C   0  0  1  0  0  0  0  0  0  0  0  0
    9.2471  -16.1663   16.6712 C   0  0  0  0  0  0  0  0  0  0  0  0
    8.7801  -17.2579   15.7777 C   0  0  0  0  0  0  0  0  0  0  0  0
    8.1425  -16.7740   14.5550 C   0  0  0  0  0  0  0  0  0  0  0  0
    6.8779  -16.8034   14.4620 O   0  0  0  0  0  0  0  0  0  0  0  0
    9.5999  -15.7311   19.0014 C   0  0  0  0  0  0  0  0  0  0  0  0
    9.2593  -14.5842   18.6352 O   0  0  0  0  0  0  0  0  0  0  0  0
    8.8488  -16.2802   13.4849 O   0  0  0  0  0  0  0  0  0  0  0  0
    9.7272  -16.0068   20.3691 N   0  0  0  0  0  0  0  0  0  0  0  0
    9.1778  -15.1401   21.4075 C   0  0  1  0  0  0  0  0  0  0  0  0
    7.6701  -15.1218   21.3280 C   0  0  0  0  0  0  0  0  0  0  0  0
    6.9426  -14.2411   22.7069 S   0  0  0  0  0  0  0  0  0  0  0  0
    9.5696  -15.7614   22.6949 C   0  0  0  0  0  0  0  0  0  0  0  0
    9.3377  -15.1642   23.7831 O   0  0  0  0  0  0  0  0  0  0  0  0
    9.1031  -19.1672   23.1107 N   0  0  0  0  0  0  0  0  0  0  0  0
   10.4059  -19.6808   23.4095 C   0  0  0  0  0  0  0  0  0  0  0  0
   10.6003  -20.9174   23.2761 O   0  0  0  0  0  0  0  0  0  0  0  0
   11.4334  -18.7403   23.8518 C   0  0  0  0  0  0  0  0  0  0  0  0
   10.9469  -17.3153   24.0127 C   0  0  2  0  0  0  0  0  0  0  0  0
   10.2055  -17.0204   22.8056 N   0  0  0  0  0  0  0  0  0  0  0  0
   12.1373  -16.4406   24.1564 C   0  0  0  0  0  0  0  0  0  0  0  0
   12.8104  -16.0697   22.9833 O   0  0  0  0  0  0  0  0  0  0  0  0
   12.5824  -16.0128   25.2336 O   0  0  0  0  0  0  0  0  0  0  0  0
  2  1  1  1
  2  7  1  0
  3  2  1  0
  3  4  1  0
  5  4  1  0
  5  9  1  0
  6  5  2  0
  7  8  2  0
 10 11  1  0
 10  7  1  0
 11 14  1  0
 11 12  1  6
 13 12  1  0
 14 21  1  0
 15 14  2  0
 17 16  1  0
 18 17  2  0
 19 17  1  0
 20 19  1  6
 21 20  1  0
 22 23  1  0
 22 20  1  0
 24 22  2  0
M  END
$$$$
