ECN.pdb
     RDKit          3D

 24 23  0  0  1  0  0  0  0  0999 V2000
    8.3440  -14.7486   19.3200 N   0  0  0  0  0  0  0  0  0  0  0  0
    7.4038  -15.2395   20.3416 C   0  0  1  0  0  0  0  0  0  0  0  0
    7.3987  -16.7616   20.3306 C   0  0  0  0  0  0  0  0  0  0  0  0
    8.7885  -17.2871   20.3119 C   0  0  0  0  0  0  0  0  0  0  0  0
    8.9178  -18.6075   20.9245 C   0  0  0  0  0  0  0  0  0  0  0  0
    9.4020  -18.7039   22.0929 O   0  0  0  0  0  0  0  0  0  0  0  0
    7.9666  -14.8475   21.6563 C   0  0  0  0  0  0  0  0  0  0  0  0
    9.1020  -14.3217   21.6651 O   0  0  0  0  0  0  0  0  0  0  0  0
    8.5365  -19.7678   20.2950 O   0  0  0  0  0  0  0  0  0  0  0  0
    7.2884  -15.0397   22.8670 N   0  0  0  0  0  0  0  0  0  0  0  0
    7.6764  -14.3753   24.1077 C   0  0  1  0  0  0  0  0  0  0  0  0
    6.7094  -13.2603   24.4269 C   0  0  0  0  0  0  0  0  0  0  0  0
    6.4582  -13.0833   26.1909 S   0  0  0  0  0  0  0  0  0  0  0  0
    7.5639  -15.4074   25.1656 C   0  0  0  0  0  0  0  0  0  0  0  0
    6.5571  -16.1687   25.2034 O   0  0  0  0  0  0  0  0  0  0  0  0
    7.5020  -20.2634   25.6780 N   0  0  0  0  0  0  0  0  0  0  0  0
    7.3792  -18.9483   26.2311 C   0  0  0  0  0  0  0  0  0  0  0  0
    6.6619  -18.8007   27.2550 O   0  0  0  0  0  0  0  0  0  0  0  0
    8.0931  -17.8547   25.5751 C   0  0  0  0  0  0  0  0  0  0  0  0
    8.8903  -16.9767   26.5168 C   0  0  2  0  0  0  0  0  0  0  0  0
    8.5338  -15.6170   26.1740 N   0  0  0  0  0  0  0  0  0  0  0  0
   10.3308  -17.2455   26.2810 C   0  0  0  0  0  0  0  0  0  0  0  0
   10.8213  -18.5051   26.6543 O   0  0  0  0  0  0  0  0  0  0  0  0
   11.1336  -16.4420   25.7797 O   0  0  0  0  0  0  0  0  0  0  0  0
  2  1  1  6
  2  7  1  0
  3  2  1  0
  3  4  1  0
  5  4  1  0
  5  9  1  0
  6  5  2  0
  7  8  2  0
 10 11  1  0
 10  7  1  0
 11 14  1  0
 11 12  1  1
 13 12  1  0
 14 21  1  0
 15 14  2  0
 17 16  1  0
 18 17  2  0
 19 17  1  0
 20 19  1  6
 21 20  1  0
 22 23  1  0
 22 20  1  0
 24 22  2  0
M  END
$$$$
