ECN.pdb
     RDKit          3D

 24 23  0  0  1  0  0  0  0  0999 V2000
    8.2749  -17.7429   20.7257 N   0  0  0  0  0  0  0  0  0  0  0  0
    9.6547  -17.2281   20.7301 C   0  0  1  0  0  0  0  0  0  0  0  0
    9.9545  -16.5810   19.3854 C   0  0  0  0  0  0  0  0  0  0  0  0
    9.1540  -17.2208   18.3093 C   0  0  0  0  0  0  0  0  0  0  0  0
    9.9677  -17.9303   17.3245 C   0  0  0  0  0  0  0  0  0  0  0  0
   10.3167  -17.3320   16.2621 O   0  0  0  0  0  0  0  0  0  0  0  0
    9.6916  -16.1283   21.7242 C   0  0  0  0  0  0  0  0  0  0  0  0
   10.7357  -15.4418   21.7876 O   0  0  0  0  0  0  0  0  0  0  0  0
   10.3830  -19.2296   17.4900 O   0  0  0  0  0  0  0  0  0  0  0  0
    8.6218  -15.8339   22.5795 N   0  0  0  0  0  0  0  0  0  0  0  0
    8.6888  -14.7977   23.6058 C   0  0  1  0  0  0  0  0  0  0  0  0
    7.3096  -14.2505   23.8855 C   0  0  0  0  0  0  0  0  0  0  0  0
    7.3013  -13.1660   25.3102 S   0  0  0  0  0  0  0  0  0  0  0  0
    9.1777  -15.4779   24.8287 C   0  0  0  0  0  0  0  0  0  0  0  0
    8.5207  -16.4342   25.3273 O   0  0  0  0  0  0  0  0  0  0  0  0
   11.6465  -14.0545   28.6680 N   0  0  0  0  0  0  0  0  0  0  0  0
   10.2399  -14.3170   28.7225 C   0  0  0  0  0  0  0  0  0  0  0  0
    9.5600  -13.7237   29.6002 O   0  0  0  0  0  0  0  0  0  0  0  0
    9.6759  -15.2578   27.7568 C   0  0  0  0  0  0  0  0  0  0  0  0
   10.6747  -15.7958   26.7537 C   0  0  2  0  0  0  0  0  0  0  0  0
   10.3692  -15.1286   25.5066 N   0  0  0  0  0  0  0  0  0  0  0  0
   10.4779  -17.2637   26.6565 C   0  0  0  0  0  0  0  0  0  0  0  0
   11.4863  -18.0856   27.1801 O   0  0  0  0  0  0  0  0  0  0  0  0
    9.4907  -17.8189   26.1480 O   0  0  0  0  0  0  0  0  0  0  0  0
  2  1  1  6
  2  7  1  0
  3  2  1  0
  3  4  1  0
  5  4  1  0
  5  9  1  0
  6  5  2  0
  7  8  2  0
 10 11  1  0
 10  7  1  0
 11 14  1  0
 11 12  1  1
 13 12  1  0
 14 21  1  0
 15 14  2  0
 17 16  1  0
 18 17  2  0
 19 17  1  0
 20 19  1  1
 21 20  1  0
 22 23  1  0
 22 20  1  0
 24 22  2  0
M  END
$$$$
