ECN.pdb
     RDKit          3D

 24 23  0  0  1  0  0  0  0  0999 V2000
    8.0522  -12.3852   19.6053 N   0  0  0  0  0  0  0  0  0  0  0  0
    7.4061  -13.5117   20.2997 C   0  0  1  0  0  0  0  0  0  0  0  0
    7.8901  -14.8210   19.6927 C   0  0  0  0  0  0  0  0  0  0  0  0
    7.3218  -15.9789   20.4306 C   0  0  0  0  0  0  0  0  0  0  0  0
    7.7097  -17.2713   19.8696 C   0  0  0  0  0  0  0  0  0  0  0  0
    6.8140  -18.0382   19.4024 O   0  0  0  0  0  0  0  0  0  0  0  0
    7.9176  -13.4989   21.6915 C   0  0  0  0  0  0  0  0  0  0  0  0
    9.1584  -13.4755   21.8508 O   0  0  0  0  0  0  0  0  0  0  0  0
    9.0118  -17.7072   19.8187 O   0  0  0  0  0  0  0  0  0  0  0  0
    7.0802  -13.5118   22.8146 N   0  0  0  0  0  0  0  0  0  0  0  0
    7.5858  -13.4328   24.1819 C   0  0  1  0  0  0  0  0  0  0  0  0
    6.5193  -12.8881   25.1017 C   0  0  0  0  0  0  0  0  0  0  0  0
    7.0247  -12.9552   26.8182 S   0  0  0  0  0  0  0  0  0  0  0  0
    7.8771  -14.8302   24.5813 C   0  0  0  0  0  0  0  0  0  0  0  0
    6.9927  -15.7227   24.4547 O   0  0  0  0  0  0  0  0  0  0  0  0
   12.0824  -18.9153   24.9732 N   0  0  0  0  0  0  0  0  0  0  0  0
   10.6849  -18.6049   24.9418 C   0  0  0  0  0  0  0  0  0  0  0  0
    9.8677  -19.5234   25.2122 O   0  0  0  0  0  0  0  0  0  0  0  0
   10.2888  -17.2407   24.5980 C   0  0  0  0  0  0  0  0  0  0  0  0
    9.2490  -16.6416   25.5217 C   0  0  2  0  0  0  0  0  0  0  0  0
    9.1161  -15.2604   25.1115 N   0  0  0  0  0  0  0  0  0  0  0  0
    9.7535  -16.7579   26.9127 C   0  0  0  0  0  0  0  0  0  0  0  0
    9.6061  -17.9981   27.5505 O   0  0  0  0  0  0  0  0  0  0  0  0
   10.2950  -15.8430   27.5539 O   0  0  0  0  0  0  0  0  0  0  0  0
  2  1  1  6
  2  7  1  0
  3  2  1  0
  3  4  1  0
  5  4  1  0
  5  9  1  0
  6  5  2  0
  7  8  2  0
 10 11  1  0
 10  7  1  0
 11 14  1  0
 11 12  1  1
 13 12  1  0
 14 21  1  0
 15 14  2  0
 17 16  1  0
 18 17  2  0
 19 17  1  0
 20 19  1  6
 21 20  1  0
 22 23  1  0
 22 20  1  0
 24 22  2  0
M  END
$$$$
