ECN.pdb
     RDKit          3D

 24 23  0  0  1  0  0  0  0  0999 V2000
    8.0295  -16.4974   21.0682 N   0  0  0  0  0  0  0  0  0  0  0  0
    7.2645  -16.6009   22.3224 C   0  0  1  0  0  0  0  0  0  0  0  0
    7.4187  -18.0042   22.8913 C   0  0  0  0  0  0  0  0  0  0  0  0
    6.4284  -18.9268   22.2780 C   0  0  0  0  0  0  0  0  0  0  0  0
    6.5034  -20.2894   22.8007 C   0  0  0  0  0  0  0  0  0  0  0  0
    7.2858  -20.5404   23.7669 O   0  0  0  0  0  0  0  0  0  0  0  0
    7.9243  -15.6965   23.2949 C   0  0  0  0  0  0  0  0  0  0  0  0
    9.1564  -15.5166   23.1726 O   0  0  0  0  0  0  0  0  0  0  0  0
    5.7602  -21.3290   22.2960 O   0  0  0  0  0  0  0  0  0  0  0  0
    7.2337  -15.0477   24.3268 N   0  0  0  0  0  0  0  0  0  0  0  0
    7.8769  -14.1159   25.2483 C   0  0  1  0  0  0  0  0  0  0  0  0
    6.8354  -13.3071   25.9840 C   0  0  0  0  0  0  0  0  0  0  0  0
    7.5570  -12.3418   27.3083 S   0  0  0  0  0  0  0  0  0  0  0  0
    8.5940  -14.9597   26.2337 C   0  0  0  0  0  0  0  0  0  0  0  0
    8.0198  -15.9600   26.7479 O   0  0  0  0  0  0  0  0  0  0  0  0
   12.6650  -15.5220   24.9690 N   0  0  0  0  0  0  0  0  0  0  0  0
   12.1951  -16.3520   26.0371 C   0  0  0  0  0  0  0  0  0  0  0  0
   12.0200  -17.5764   25.8030 O   0  0  0  0  0  0  0  0  0  0  0  0
   11.9461  -15.7298   27.3358 C   0  0  0  0  0  0  0  0  0  0  0  0
   10.4801  -15.5798   27.6848 C   0  0  2  0  0  0  0  0  0  0  0  0
    9.9229  -14.7254   26.6585 N   0  0  0  0  0  0  0  0  0  0  0  0
   10.3928  -14.9564   29.0289 C   0  0  0  0  0  0  0  0  0  0  0  0
   10.8714  -15.7004   30.1171 O   0  0  0  0  0  0  0  0  0  0  0  0
    9.9292  -13.8289   29.2635 O   0  0  0  0  0  0  0  0  0  0  0  0
  2  1  1  6
  2  7  1  0
  3  2  1  0
  3  4  1  0
  5  4  1  0
  5  9  1  0
  6  5  2  0
  7  8  2  0
 10 11  1  0
 10  7  1  0
 11 14  1  0
 11 12  1  1
 13 12  1  0
 14 21  1  0
 15 14  2  0
 17 16  1  0
 18 17  2  0
 19 17  1  0
 20 19  1  6
 21 20  1  0
 22 23  1  0
 22 20  1  0
 24 22  2  0
M  END
$$$$
