PDP.pdb
     RDKit          3D

 23 24  0  0  1  0  0  0  0  0999 V2000
   26.8251  -20.2974  -16.3023 N   0  0  0  0  0  0  0  0  0  0  0  0
   27.9067  -19.4131  -16.6126 C   0  0  0  0  0  0  0  0  0  0  0  0
   29.0541  -19.7746  -15.6948 C   0  0  0  0  0  0  0  0  0  0  0  0
   28.6554  -21.1371  -15.1903 C   0  0  0  0  0  0  0  0  0  0  0  0
   27.1430  -21.0044  -15.0775 C   0  0  1  0  0  0  0  0  0  0  0  0
   26.7480  -20.1714  -13.9105 C   0  0  0  0  0  0  0  0  0  0  0  0
   26.6017  -18.9246  -14.0470 O   0  0  0  0  0  0  0  0  0  0  0  0
   26.5206  -20.7085  -12.6256 N   0  0  0  0  0  0  0  0  0  0  0  0
   25.4602  -20.2109  -11.7197 C   0  0  1  0  0  0  0  0  0  0  0  0
   24.1886  -20.6191  -12.4785 C   0  0  0  0  0  0  0  0  0  0  0  0
   22.9442  -20.3587  -11.7912 C   0  0  0  0  0  0  0  0  0  0  0  0
   22.7119  -19.1877  -11.3935 O   0  0  0  0  0  0  0  0  0  0  0  0
   25.6136  -20.8833  -10.4316 C   0  0  0  0  0  0  0  0  0  0  0  0
   25.4977  -22.1632  -10.4306 O   0  0  0  0  0  0  0  0  0  0  0  0
   22.0097  -21.3417  -11.5576 O   0  0  0  0  0  0  0  0  0  0  0  0
   25.8782  -20.2847   -9.1935 N   0  0  0  0  0  0  0  0  0  0  0  0
   26.1369  -18.8838   -8.9338 C   0  0  0  0  0  0  0  0  0  0  0  0
   27.1419  -18.9409   -7.7501 C   0  0  0  0  0  0  0  0  0  0  0  0
   26.4372  -19.9754   -6.8951 C   0  0  0  0  0  0  0  0  0  0  0  0
   25.9580  -20.9628   -7.9210 C   0  0  1  0  0  0  0  0  0  0  0  0
   24.6792  -21.6008   -7.5419 C   0  0  0  0  0  0  0  0  0  0  0  0
   23.6720  -21.3367   -8.2463 O   0  0  0  0  0  0  0  0  0  0  0  0
   24.5157  -22.4598   -6.4759 O   0  0  0  0  0  0  0  0  0  0  0  0
  1  2  1  0
  3  2  1  0
  4  5  1  0
  4  3  1  0
  5  1  1  0
  6  7  2  0
  5  6  1  1
  8  6  1  0
  9  8  1  0
  9 10  1  6
 11 15  1  0
 11 10  1  0
 12 11  2  0
 13  9  1  0
 14 13  2  0
 16 13  1  0
 16 17  1  0
 18 17  1  0
 19 18  1  0
 20 19  1  0
 20 16  1  0
 20 21  1  1
 22 21  2  0
 23 21  1  0
M  END
$$$$
