PDP.pdb
     RDKit          3D

 23 24  0  0  1  0  0  0  0  0999 V2000
   26.3509  -19.6582  -17.0284 N   0  0  0  0  0  0  0  0  0  0  0  0
   26.6302  -18.2941  -17.3591 C   0  0  0  0  0  0  0  0  0  0  0  0
   27.7089  -17.8183  -16.4106 C   0  0  0  0  0  0  0  0  0  0  0  0
   28.2528  -19.1094  -15.8564 C   0  0  0  0  0  0  0  0  0  0  0  0
   27.0007  -19.9712  -15.7711 C   0  0  1  0  0  0  0  0  0  0  0  0
   26.1217  -19.5570  -14.6452 C   0  0  0  0  0  0  0  0  0  0  0  0
   26.0640  -18.3424  -14.3048 O   0  0  0  0  0  0  0  0  0  0  0  0
   25.3270  -20.4673  -13.9166 N   0  0  0  0  0  0  0  0  0  0  0  0
   24.4177  -20.0497  -12.8250 C   0  0  1  0  0  0  0  0  0  0  0  0
   23.0444  -20.4091  -13.4119 C   0  0  0  0  0  0  0  0  0  0  0  0
   22.4785  -19.4312  -14.3130 C   0  0  0  0  0  0  0  0  0  0  0  0
   22.4383  -18.2285  -13.9452 O   0  0  0  0  0  0  0  0  0  0  0  0
   24.7622  -20.8178  -11.6307 C   0  0  0  0  0  0  0  0  0  0  0  0
   24.9477  -22.0796  -11.7889 O   0  0  0  0  0  0  0  0  0  0  0  0
   21.9842  -19.7679  -15.5526 O   0  0  0  0  0  0  0  0  0  0  0  0
   24.9172  -20.3278  -10.3280 N   0  0  0  0  0  0  0  0  0  0  0  0
   24.9375  -18.9419   -9.9086 C   0  0  0  0  0  0  0  0  0  0  0  0
   25.9321  -18.9661   -8.7150 C   0  0  0  0  0  0  0  0  0  0  0  0
   25.4054  -20.1927   -7.9968 C   0  0  0  0  0  0  0  0  0  0  0  0
   25.1026  -21.1230   -9.1369 C   0  0  1  0  0  0  0  0  0  0  0  0
   23.9461  -22.0022   -8.8613 C   0  0  0  0  0  0  0  0  0  0  0  0
   22.8851  -21.7752   -9.4964 O   0  0  0  0  0  0  0  0  0  0  0  0
   23.9505  -23.0469   -7.9616 O   0  0  0  0  0  0  0  0  0  0  0  0
  1  2  1  0
  3  2  1  0
  4  5  1  0
  4  3  1  0
  5  1  1  0
  6  7  2  0
  5  6  1  1
  8  6  1  0
  9  8  1  0
  9 10  1  6
 11 15  1  0
 11 10  1  0
 12 11  2  0
 13  9  1  0
 14 13  2  0
 16 13  1  0
 16 17  1  0
 18 17  1  0
 19 18  1  0
 20 19  1  0
 20 16  1  0
 20 21  1  1
 22 21  2  0
 23 21  1  0
M  END
$$$$
