PDP.pdb
     RDKit          3D

 23 24  0  0  1  0  0  0  0  0999 V2000
   14.8458  -10.2483  -12.1311 N   0  0  0  0  0  0  0  0  0  0  0  0
   15.6505  -10.8663  -11.1218 C   0  0  0  0  0  0  0  0  0  0  0  0
   16.3372   -9.7550  -10.3582 C   0  0  0  0  0  0  0  0  0  0  0  0
   15.5372   -8.5410  -10.7531 C   0  0  0  0  0  0  0  0  0  0  0  0
   15.1960   -8.8437  -12.2056 C   0  0  1  0  0  0  0  0  0  0  0  0
   16.3756   -8.6761  -13.0957 C   0  0  0  0  0  0  0  0  0  0  0  0
   17.0774   -9.6786  -13.4072 O   0  0  0  0  0  0  0  0  0  0  0  0
   16.7657   -7.4283  -13.6266 N   0  0  0  0  0  0  0  0  0  0  0  0
   17.8082   -7.2858  -14.6685 C   0  0  1  0  0  0  0  0  0  0  0  0
   17.1585   -6.2691  -15.6191 C   0  0  0  0  0  0  0  0  0  0  0  0
   16.2902   -6.8297  -16.6293 C   0  0  0  0  0  0  0  0  0  0  0  0
   16.7565   -7.7061  -17.4025 O   0  0  0  0  0  0  0  0  0  0  0  0
   19.0243   -6.7916  -14.0267 C   0  0  0  0  0  0  0  0  0  0  0  0
   18.8691   -5.9914  -13.0332 O   0  0  0  0  0  0  0  0  0  0  0  0
   14.9782   -6.4400  -16.7745 O   0  0  0  0  0  0  0  0  0  0  0  0
   20.3459   -7.0985  -14.3738 N   0  0  0  0  0  0  0  0  0  0  0  0
   20.7928   -8.0048  -15.4110 C   0  0  0  0  0  0  0  0  0  0  0  0
   22.0999   -8.5891  -14.8074 C   0  0  0  0  0  0  0  0  0  0  0  0
   22.7219   -7.3009  -14.3061 C   0  0  0  0  0  0  0  0  0  0  0  0
   21.5344   -6.5716  -13.7449 C   0  0  1  0  0  0  0  0  0  0  0  0
   21.6463   -5.1047  -13.8925 C   0  0  0  0  0  0  0  0  0  0  0  0
   20.9949   -4.5677  -14.8240 O   0  0  0  0  0  0  0  0  0  0  0  0
   22.4110   -4.2901  -13.0847 O   0  0  0  0  0  0  0  0  0  0  0  0
  1  2  1  0
  3  2  1  0
  4  5  1  0
  4  3  1  0
  5  1  1  0
  6  7  2  0
  5  6  1  6
  8  6  1  0
  9  8  1  0
  9 10  1  6
 11 15  1  0
 11 10  1  0
 12 11  2  0
 13  9  1  0
 14 13  2  0
 16 13  1  0
 16 17  1  0
 18 17  1  0
 19 18  1  0
 20 19  1  0
 20 16  1  0
 20 21  1  6
 22 21  2  0
 23 21  1  0
M  END
$$$$
