PDP.pdb
     RDKit          3D

 23 24  0  0  1  0  0  0  0  0999 V2000
   27.7637  -19.2037  -17.7807 N   0  0  0  0  0  0  0  0  0  0  0  0
   27.6318  -17.9569  -18.4707 C   0  0  0  0  0  0  0  0  0  0  0  0
   28.1747  -16.8819  -17.5546 C   0  0  0  0  0  0  0  0  0  0  0  0
   28.9585  -17.6767  -16.5427 C   0  0  0  0  0  0  0  0  0  0  0  0
   28.1107  -18.9331  -16.3996 C   0  0  1  0  0  0  0  0  0  0  0  0
   26.8702  -18.6757  -15.6208 C   0  0  0  0  0  0  0  0  0  0  0  0
   26.8092  -17.6831  -14.8426 O   0  0  0  0  0  0  0  0  0  0  0  0
   25.7268  -19.4984  -15.7040 N   0  0  0  0  0  0  0  0  0  0  0  0
   24.5451  -19.3277  -14.8281 C   0  0  1  0  0  0  0  0  0  0  0  0
   23.3975  -19.3509  -15.8489 C   0  0  0  0  0  0  0  0  0  0  0  0
   22.1046  -18.9538  -15.3395 C   0  0  0  0  0  0  0  0  0  0  0  0
   21.1185  -18.9780  -16.1208 O   0  0  0  0  0  0  0  0  0  0  0  0
   24.5139  -20.4457  -13.8879 C   0  0  0  0  0  0  0  0  0  0  0  0
   24.4736  -21.6260  -14.3948 O   0  0  0  0  0  0  0  0  0  0  0  0
   21.9157  -18.5519  -14.0368 O   0  0  0  0  0  0  0  0  0  0  0  0
   24.5271  -20.3727  -12.4894 N   0  0  0  0  0  0  0  0  0  0  0  0
   24.7226  -19.1919  -11.6743 C   0  0  0  0  0  0  0  0  0  0  0  0
   25.4759  -19.7568  -10.4384 C   0  0  0  0  0  0  0  0  0  0  0  0
   24.6226  -20.9838  -10.1854 C   0  0  0  0  0  0  0  0  0  0  0  0
   24.3592  -21.4807  -11.5785 C   0  0  1  0  0  0  0  0  0  0  0  0
   23.0342  -22.1232  -11.7119 C   0  0  0  0  0  0  0  0  0  0  0  0
   22.8472  -23.1950  -11.0820 O   0  0  0  0  0  0  0  0  0  0  0  0
   21.9962  -21.6318  -12.4746 O   0  0  0  0  0  0  0  0  0  0  0  0
  1  2  1  0
  3  2  1  0
  4  5  1  0
  4  3  1  0
  5  1  1  0
  6  7  2  0
  5  6  1  1
  8  6  1  0
  9  8  1  0
  9 10  1  6
 11 15  1  0
 11 10  1  0
 12 11  2  0
 13  9  1  0
 14 13  2  0
 16 13  1  0
 16 17  1  0
 18 17  1  0
 19 18  1  0
 20 19  1  0
 20 16  1  0
 20 21  1  1
 22 21  2  0
 23 21  1  0
M  END
$$$$
