PDP.pdb
     RDKit          3D

 23 24  0  0  1  0  0  0  0  0999 V2000
   28.4917  -19.4699  -18.2261 N   0  0  0  0  0  0  0  0  0  0  0  0
   27.6256  -19.2783  -19.3492 C   0  0  0  0  0  0  0  0  0  0  0  0
   27.3066  -17.8008  -19.4181 C   0  0  0  0  0  0  0  0  0  0  0  0
   28.3661  -17.1938  -18.5355 C   0  0  0  0  0  0  0  0  0  0  0  0
   28.5153  -18.2477  -17.4470 C   0  0  1  0  0  0  0  0  0  0  0  0
   27.3615  -18.2387  -16.5087 C   0  0  0  0  0  0  0  0  0  0  0  0
   27.0822  -17.1899  -15.8635 O   0  0  0  0  0  0  0  0  0  0  0  0
   26.5388  -19.3646  -16.2927 N   0  0  0  0  0  0  0  0  0  0  0  0
   25.3892  -19.3560  -15.3594 C   0  0  1  0  0  0  0  0  0  0  0  0
   24.2021  -19.4455  -16.3300 C   0  0  0  0  0  0  0  0  0  0  0  0
   23.0486  -18.6499  -15.9760 C   0  0  0  0  0  0  0  0  0  0  0  0
   23.1008  -17.4052  -16.1530 O   0  0  0  0  0  0  0  0  0  0  0  0
   25.5130  -20.5154  -14.4788 C   0  0  0  0  0  0  0  0  0  0  0  0
   25.6990  -21.6540  -15.0453 O   0  0  0  0  0  0  0  0  0  0  0  0
   21.9015  -19.2034  -15.4546 O   0  0  0  0  0  0  0  0  0  0  0  0
   25.4550  -20.5223  -13.0796 N   0  0  0  0  0  0  0  0  0  0  0  0
   25.3035  -19.3804  -12.2022 C   0  0  0  0  0  0  0  0  0  0  0  0
   26.1326  -19.8002  -10.9569 C   0  0  0  0  0  0  0  0  0  0  0  0
   25.6225  -21.2194  -10.8043 C   0  0  0  0  0  0  0  0  0  0  0  0
   25.5503  -21.6865  -12.2303 C   0  0  1  0  0  0  0  0  0  0  0  0
   24.4463  -22.6428  -12.4601 C   0  0  0  0  0  0  0  0  0  0  0  0
   23.4857  -22.2542  -13.1718 O   0  0  0  0  0  0  0  0  0  0  0  0
   24.3974  -23.9231  -11.9509 O   0  0  0  0  0  0  0  0  0  0  0  0
  1  2  1  0
  3  2  1  0
  4  5  1  0
  4  3  1  0
  5  1  1  0
  6  7  2  0
  5  6  1  1
  8  6  1  0
  9  8  1  0
  9 10  1  6
 11 15  1  0
 11 10  1  0
 12 11  2  0
 13  9  1  0
 14 13  2  0
 16 13  1  0
 16 17  1  0
 18 17  1  0
 19 18  1  0
 20 19  1  0
 20 16  1  0
 20 21  1  1
 22 21  2  0
 23 21  1  0
M  END
$$$$
