PDP.pdb
     RDKit          3D

 23 24  0  0  1  0  0  0  0  0999 V2000
   19.0186  -14.4648  -18.6274 N   0  0  0  0  0  0  0  0  0  0  0  0
   20.2302  -15.2255  -18.6652 C   0  0  0  0  0  0  0  0  0  0  0  0
   20.8037  -15.2185  -17.2650 C   0  0  0  0  0  0  0  0  0  0  0  0
   19.6314  -14.7707  -16.4313 C   0  0  0  0  0  0  0  0  0  0  0  0
   18.9466  -13.7733  -17.3554 C   0  0  1  0  0  0  0  0  0  0  0  0
   19.7024  -12.4957  -17.4452 C   0  0  0  0  0  0  0  0  0  0  0  0
   20.9405  -12.5120  -17.6929 O   0  0  0  0  0  0  0  0  0  0  0  0
   19.0994  -11.2326  -17.2652 N   0  0  0  0  0  0  0  0  0  0  0  0
   19.8389   -9.9581  -17.4108 C   0  0  1  0  0  0  0  0  0  0  0  0
   19.1308   -9.3259  -18.6184 C   0  0  0  0  0  0  0  0  0  0  0  0
   19.6191   -8.0244  -19.0139 C   0  0  0  0  0  0  0  0  0  0  0  0
   20.7657   -7.9437  -19.5259 O   0  0  0  0  0  0  0  0  0  0  0  0
   19.6768   -9.1973  -16.1739 C   0  0  0  0  0  0  0  0  0  0  0  0
   18.5291   -9.2657  -15.5997 O   0  0  0  0  0  0  0  0  0  0  0  0
   18.8777   -6.8764  -18.8504 O   0  0  0  0  0  0  0  0  0  0  0  0
   20.6396   -8.4018  -15.5402 N   0  0  0  0  0  0  0  0  0  0  0  0
   22.0105   -8.1867  -15.9541 C   0  0  0  0  0  0  0  0  0  0  0  0
   22.7512   -8.0306  -14.5972 C   0  0  0  0  0  0  0  0  0  0  0  0
   21.7830   -7.0887  -13.9095 C   0  0  0  0  0  0  0  0  0  0  0  0
   20.4502   -7.6426  -14.3265 C   0  0  1  0  0  0  0  0  0  0  0  0
   19.4193   -6.5930  -14.4741 C   0  0  0  0  0  0  0  0  0  0  0  0
   19.1063   -6.2527  -15.6431 O   0  0  0  0  0  0  0  0  0  0  0  0
   18.7819   -5.9651  -13.4251 O   0  0  0  0  0  0  0  0  0  0  0  0
  1  2  1  0
  3  2  1  0
  4  5  1  0
  4  3  1  0
  5  1  1  0
  6  7  2  0
  5  6  1  6
  8  6  1  0
  9  8  1  0
  9 10  1  6
 11 15  1  0
 11 10  1  0
 12 11  2  0
 13  9  1  0
 14 13  2  0
 16 13  1  0
 16 17  1  0
 18 17  1  0
 19 18  1  0
 20 19  1  0
 20 16  1  0
 20 21  1  6
 22 21  2  0
 23 21  1  0
M  END
$$$$
