AFD.pdb
     RDKit          3D

 25 25  0  0  1  0  0  0  0  0999 V2000
   25.9111  -21.0011  -15.2716 C   0  0  0  0  0  0  0  0  0  0  0  0
   27.1173  -21.5219  -14.5226 C   0  0  2  0  0  0  0  0  0  0  0  0
   27.4997  -22.7909  -15.1132 N   0  0  0  0  0  0  0  0  0  0  0  0
   26.8367  -21.6997  -13.0709 C   0  0  0  0  0  0  0  0  0  0  0  0
   26.3216  -22.7467  -12.6068 O   0  0  0  0  0  0  0  0  0  0  0  0
   27.1539  -20.6660  -12.1698 N   0  0  0  0  0  0  0  0  0  0  0  0
   26.9305  -20.7486  -10.7353 C   0  0  1  0  0  0  0  0  0  0  0  0
   27.8172  -19.7078  -10.0608 C   0  0  0  0  0  0  0  0  0  0  0  0
   27.7031  -19.7719   -8.5800 C   0  0  0  0  0  0  0  0  0  0  0  0
   26.8560  -18.9261   -7.8817 C   0  0  0  0  0  0  0  0  0  0  0  0
   26.7265  -18.9592   -6.5094 C   0  0  0  0  0  0  0  0  0  0  0  0
   27.4740  -19.8766   -5.7914 C   0  0  0  0  0  0  0  0  0  0  0  0
   28.3253  -20.7328   -6.4460 C   0  0  0  0  0  0  0  0  0  0  0  0
   28.4351  -20.6771   -7.8252 C   0  0  0  0  0  0  0  0  0  0  0  0
   25.5341  -20.4956  -10.3676 C   0  0  0  0  0  0  0  0  0  0  0  0
   24.8950  -19.5974  -10.9559 O   0  0  0  0  0  0  0  0  0  0  0  0
   24.9164  -21.2650   -9.3526 N   0  0  0  0  0  0  0  0  0  0  0  0
   23.4888  -21.2826   -9.1293 C   0  0  1  0  0  0  0  0  0  0  0  0
   23.1701  -22.1117   -7.8763 C   0  0  0  0  0  0  0  0  0  0  0  0
   21.7070  -22.1741   -7.6763 C   0  0  0  0  0  0  0  0  0  0  0  0
   20.9369  -22.0128   -8.6516 O   0  0  0  0  0  0  0  0  0  0  0  0
   23.0161  -19.8880   -8.9417 C   0  0  0  0  0  0  0  0  0  0  0  0
   21.7489  -19.4593   -9.2569 O   0  0  0  0  0  0  0  0  0  0  0  0
   21.1019  -22.4064   -6.4426 O   0  0  0  0  0  0  0  0  0  0  0  0
   23.8445  -19.0591   -8.4615 O   0  0  0  0  0  0  0  0  0  0  0  0
  2  4  1  0
  2  1  1  6
  3  2  1  0
  4  5  2  0
  6  7  1  0
  6  4  1  0
  7  8  1  1
  8  9  1  0
  9 10  2  0
 10 11  1  0
 12 11  2  0
 13 12  1  0
 14 13  2  0
 14  9  1  0
 15 17  1  0
 15  7  1  0
 16 15  2  0
 18 17  1  0
 18 19  1  1
 19 20  1  0
 20 21  2  0
 20 24  1  0
 22 18  1  0
 22 23  1  0
 25 22  2  0
M  END
$$$$
