AFD.pdb
     RDKit          3D

 25 25  0  0  1  0  0  0  0  0999 V2000
   26.8743  -21.0662  -18.0465 C   0  0  0  0  0  0  0  0  0  0  0  0
   27.6287  -21.6341  -16.8653 C   0  0  2  0  0  0  0  0  0  0  0  0
   28.2964  -22.8470  -17.2994 N   0  0  0  0  0  0  0  0  0  0  0  0
   26.7255  -21.9321  -15.7193 C   0  0  0  0  0  0  0  0  0  0  0  0
   26.2389  -23.0730  -15.5231 O   0  0  0  0  0  0  0  0  0  0  0  0
   26.3933  -20.9090  -14.8115 N   0  0  0  0  0  0  0  0  0  0  0  0
   25.4616  -21.0798  -13.7083 C   0  0  1  0  0  0  0  0  0  0  0  0
   25.8191  -20.0632  -12.6296 C   0  0  0  0  0  0  0  0  0  0  0  0
   25.0726  -20.3198  -11.3700 C   0  0  0  0  0  0  0  0  0  0  0  0
   25.6301  -21.0527  -10.3344 C   0  0  0  0  0  0  0  0  0  0  0  0
   24.9656  -21.3090   -9.1537 C   0  0  0  0  0  0  0  0  0  0  0  0
   23.6832  -20.8145   -8.9899 C   0  0  0  0  0  0  0  0  0  0  0  0
   23.0949  -20.0832   -9.9926 C   0  0  0  0  0  0  0  0  0  0  0  0
   23.7861  -19.8413  -11.1678 C   0  0  0  0  0  0  0  0  0  0  0  0
   24.0672  -20.8758  -14.1122 C   0  0  0  0  0  0  0  0  0  0  0  0
   23.7681  -19.8887  -14.8175 O   0  0  0  0  0  0  0  0  0  0  0  0
   23.0685  -21.7923  -13.7045 N   0  0  0  0  0  0  0  0  0  0  0  0
   21.6774  -21.6654  -14.0748 C   0  0  1  0  0  0  0  0  0  0  0  0
   21.2590  -22.8646  -14.9383 C   0  0  0  0  0  0  0  0  0  0  0  0
   19.8415  -22.7265  -15.3333 C   0  0  0  0  0  0  0  0  0  0  0  0
   19.4098  -21.6191  -15.7300 O   0  0  0  0  0  0  0  0  0  0  0  0
   20.8547  -21.6251  -12.8397 C   0  0  0  0  0  0  0  0  0  0  0  0
   21.3587  -21.8227  -11.5765 O   0  0  0  0  0  0  0  0  0  0  0  0
   18.9203  -23.7716  -15.2954 O   0  0  0  0  0  0  0  0  0  0  0  0
   19.6175  -21.3938  -12.9795 O   0  0  0  0  0  0  0  0  0  0  0  0
  2  4  1  0
  2  1  1  6
  3  2  1  0
  4  5  2  0
  6  7  1  0
  6  4  1  0
  7  8  1  1
  8  9  1  0
  9 10  2  0
 10 11  1  0
 12 11  2  0
 13 12  1  0
 14 13  2  0
 14  9  1  0
 15 17  1  0
 15  7  1  0
 16 15  2  0
 18 17  1  0
 18 19  1  6
 19 20  1  0
 20 21  2  0
 20 24  1  0
 22 18  1  0
 22 23  1  0
 25 22  2  0
M  END
$$$$
