AFD.pdb
     RDKit          3D

 25 25  0  0  1  0  0  0  0  0999 V2000
   26.6607  -22.2785  -17.4398 C   0  0  0  0  0  0  0  0  0  0  0  0
   27.4960  -22.3400  -16.1806 C   0  0  2  0  0  0  0  0  0  0  0  0
   28.2963  -23.5494  -16.2307 N   0  0  0  0  0  0  0  0  0  0  0  0
   26.6531  -22.3375  -14.9529 C   0  0  0  0  0  0  0  0  0  0  0  0
   26.1399  -23.3838  -14.4851 O   0  0  0  0  0  0  0  0  0  0  0  0
   26.4113  -21.1262  -14.2781 N   0  0  0  0  0  0  0  0  0  0  0  0
   25.5894  -21.0178  -13.0835 C   0  0  1  0  0  0  0  0  0  0  0  0
   26.0973  -19.8328  -12.2695 C   0  0  0  0  0  0  0  0  0  0  0  0
   26.4664  -20.2387  -10.8879 C   0  0  0  0  0  0  0  0  0  0  0  0
   27.6956  -20.8132  -10.6060 C   0  0  0  0  0  0  0  0  0  0  0  0
   28.0694  -21.2010   -9.3367 C   0  0  0  0  0  0  0  0  0  0  0  0
   27.1806  -21.0104   -8.2929 C   0  0  0  0  0  0  0  0  0  0  0  0
   25.9521  -20.4442   -8.5305 C   0  0  0  0  0  0  0  0  0  0  0  0
   25.6035  -20.0643   -9.8156 C   0  0  0  0  0  0  0  0  0  0  0  0
   24.1713  -20.8110  -13.3925 C   0  0  0  0  0  0  0  0  0  0  0  0
   23.8368  -19.8830  -14.1594 O   0  0  0  0  0  0  0  0  0  0  0  0
   23.1899  -21.6583  -12.8247 N   0  0  0  0  0  0  0  0  0  0  0  0
   21.7723  -21.4920  -13.0508 C   0  0  1  0  0  0  0  0  0  0  0  0
   21.0008  -22.6294  -12.3653 C   0  0  0  0  0  0  0  0  0  0  0  0
   19.5532  -22.4782  -12.6222 C   0  0  0  0  0  0  0  0  0  0  0  0
   18.7277  -22.7554  -11.7211 O   0  0  0  0  0  0  0  0  0  0  0  0
   21.3472  -20.1863  -12.4867 C   0  0  0  0  0  0  0  0  0  0  0  0
   21.7059  -19.7377  -11.2381 O   0  0  0  0  0  0  0  0  0  0  0  0
   19.0222  -22.0357  -13.8323 O   0  0  0  0  0  0  0  0  0  0  0  0
   20.6108  -19.4571  -13.2146 O   0  0  0  0  0  0  0  0  0  0  0  0
  2  4  1  0
  2  1  1  6
  3  2  1  0
  4  5  2  0
  6  7  1  0
  6  4  1  0
  7  8  1  1
  8  9  1  0
  9 10  2  0
 10 11  1  0
 12 11  2  0
 13 12  1  0
 14 13  2  0
 14  9  1  0
 15 17  1  0
 15  7  1  0
 16 15  2  0
 18 17  1  0
 18 19  1  1
 19 20  1  0
 20 21  2  0
 20 24  1  0
 22 18  1  0
 22 23  1  0
 25 22  2  0
M  END
$$$$
