AFD.pdb
     RDKit          3D

 25 25  0  0  1  0  0  0  0  0999 V2000
   27.8812  -18.9527  -14.6747 C   0  0  0  0  0  0  0  0  0  0  0  0
   28.2794  -19.9686  -13.6276 C   0  0  2  0  0  0  0  0  0  0  0  0
   29.1604  -20.9371  -14.2532 N   0  0  0  0  0  0  0  0  0  0  0  0
   27.0961  -20.6590  -13.0437 C   0  0  0  0  0  0  0  0  0  0  0  0
   26.6543  -21.7423  -13.4999 O   0  0  0  0  0  0  0  0  0  0  0  0
   26.4349  -20.0908  -11.9387 N   0  0  0  0  0  0  0  0  0  0  0  0
   25.2547  -20.6710  -11.3183 C   0  0  1  0  0  0  0  0  0  0  0  0
   25.0944  -20.0458   -9.9369 C   0  0  0  0  0  0  0  0  0  0  0  0
   26.2984  -20.2698   -9.0942 C   0  0  0  0  0  0  0  0  0  0  0  0
   26.6701  -19.3695   -8.1085 C   0  0  0  0  0  0  0  0  0  0  0  0
   27.7800  -19.5469   -7.3099 C   0  0  0  0  0  0  0  0  0  0  0  0
   28.5623  -20.6734   -7.4969 C   0  0  0  0  0  0  0  0  0  0  0  0
   28.2280  -21.5902   -8.4634 C   0  0  0  0  0  0  0  0  0  0  0  0
   27.1074  -21.3860   -9.2509 C   0  0  0  0  0  0  0  0  0  0  0  0
   24.0347  -20.4306  -12.0948 C   0  0  0  0  0  0  0  0  0  0  0  0
   23.8605  -19.3202  -12.6406 O   0  0  0  0  0  0  0  0  0  0  0  0
   23.0624  -21.4512  -12.2237 N   0  0  0  0  0  0  0  0  0  0  0  0
   21.8622  -21.3071  -13.0156 C   0  0  1  0  0  0  0  0  0  0  0  0
   21.4376  -22.6760  -13.5676 C   0  0  0  0  0  0  0  0  0  0  0  0
   22.2361  -23.0009  -14.7682 C   0  0  0  0  0  0  0  0  0  0  0  0
   22.7613  -24.1331  -14.8800 O   0  0  0  0  0  0  0  0  0  0  0  0
   20.7844  -20.7565  -12.1561 C   0  0  0  0  0  0  0  0  0  0  0  0
   20.9141  -20.5470  -10.8040 O   0  0  0  0  0  0  0  0  0  0  0  0
   22.4547  -22.1115  -15.8185 O   0  0  0  0  0  0  0  0  0  0  0  0
   19.6879  -20.4692  -12.7209 O   0  0  0  0  0  0  0  0  0  0  0  0
  2  4  1  0
  2  1  1  6
  3  2  1  0
  4  5  2  0
  6  7  1  0
  6  4  1  0
  7  8  1  1
  8  9  1  0
  9 10  2  0
 10 11  1  0
 12 11  2  0
 13 12  1  0
 14 13  2  0
 14  9  1  0
 15 17  1  0
 15  7  1  0
 16 15  2  0
 18 17  1  0
 18 19  1  1
 19 20  1  0
 20 21  2  0
 20 24  1  0
 22 18  1  0
 22 23  1  0
 25 22  2  0
M  END
$$$$
