AFD.pdb
     RDKit          3D

 25 25  0  0  1  0  0  0  0  0999 V2000
   20.8697  -10.5571  -17.9782 C   0  0  0  0  0  0  0  0  0  0  0  0
   20.9716   -9.0963  -18.3559 C   0  0  2  0  0  0  0  0  0  0  0  0
   22.3151   -8.8515  -18.8464 N   0  0  0  0  0  0  0  0  0  0  0  0
   20.6799   -8.2015  -17.2017 C   0  0  0  0  0  0  0  0  0  0  0  0
   19.5929   -8.2427  -16.5743 O   0  0  0  0  0  0  0  0  0  0  0  0
   21.6469   -7.2680  -16.7839 N   0  0  0  0  0  0  0  0  0  0  0  0
   21.4042   -6.2521  -15.7722 C   0  0  1  0  0  0  0  0  0  0  0  0
   22.5496   -6.3065  -14.7674 C   0  0  0  0  0  0  0  0  0  0  0  0
   22.5144   -7.5594  -13.9681 C   0  0  0  0  0  0  0  0  0  0  0  0
   23.2908   -8.6563  -14.3065 C   0  0  0  0  0  0  0  0  0  0  0  0
   23.2820   -9.8326  -13.5873 C   0  0  0  0  0  0  0  0  0  0  0  0
   22.4624   -9.9281  -12.4760 C   0  0  0  0  0  0  0  0  0  0  0  0
   21.6773   -8.8632  -12.1070 C   0  0  0  0  0  0  0  0  0  0  0  0
   21.7066   -7.6940  -12.8482 C   0  0  0  0  0  0  0  0  0  0  0  0
   21.3294   -4.9014  -16.3372 C   0  0  0  0  0  0  0  0  0  0  0  0
   22.1953   -4.5275  -17.1568 O   0  0  0  0  0  0  0  0  0  0  0  0
   20.2824   -4.0288  -15.9550 N   0  0  0  0  0  0  0  0  0  0  0  0
   19.6719   -3.0801  -16.8581 C   0  0  1  0  0  0  0  0  0  0  0  0
   19.5116   -3.7155  -18.2471 C   0  0  0  0  0  0  0  0  0  0  0  0
   20.1121   -2.8361  -19.2721 C   0  0  0  0  0  0  0  0  0  0  0  0
   21.0124   -2.0266  -18.9491 O   0  0  0  0  0  0  0  0  0  0  0  0
   18.3403   -2.6991  -16.3240 C   0  0  0  0  0  0  0  0  0  0  0  0
   17.5293   -3.5484  -15.6099 O   0  0  0  0  0  0  0  0  0  0  0  0
   19.7379   -2.8414  -20.6145 O   0  0  0  0  0  0  0  0  0  0  0  0
   17.9459   -1.5171  -16.5505 O   0  0  0  0  0  0  0  0  0  0  0  0
  2  4  1  0
  2  1  1  1
  3  2  1  0
  4  5  2  0
  6  7  1  0
  6  4  1  0
  7  8  1  1
  8  9  1  0
  9 10  2  0
 10 11  1  0
 12 11  2  0
 13 12  1  0
 14 13  2  0
 14  9  1  0
 15 17  1  0
 15  7  1  0
 16 15  2  0
 18 17  1  0
 18 19  1  6
 19 20  1  0
 20 21  2  0
 20 24  1  0
 22 18  1  0
 22 23  1  0
 25 22  2  0
M  END
$$$$
