AFD.pdb
     RDKit          3D

 25 25  0  0  1  0  0  0  0  0999 V2000
   35.3207  -27.7698  -18.7950 C   0  0  0  0  0  0  0  0  0  0  0  0
   35.7301  -27.8149  -17.3399 C   0  0  2  0  0  0  0  0  0  0  0  0
   35.9535  -29.2024  -16.9786 N   0  0  0  0  0  0  0  0  0  0  0  0
   34.6946  -27.2177  -16.4517 C   0  0  0  0  0  0  0  0  0  0  0  0
   33.7252  -27.8798  -16.0059 O   0  0  0  0  0  0  0  0  0  0  0  0
   34.7894  -25.8614  -16.0875 N   0  0  0  0  0  0  0  0  0  0  0  0
   33.7547  -25.1476  -15.3566 C   0  0  1  0  0  0  0  0  0  0  0  0
   34.4333  -24.0873  -14.4964 C   0  0  0  0  0  0  0  0  0  0  0  0
   33.4537  -23.3774  -13.6325 C   0  0  0  0  0  0  0  0  0  0  0  0
   33.5383  -23.4264  -12.2502 C   0  0  0  0  0  0  0  0  0  0  0  0
   32.6468  -22.7800  -11.4204 C   0  0  0  0  0  0  0  0  0  0  0  0
   31.6186  -22.0477  -11.9881 C   0  0  0  0  0  0  0  0  0  0  0  0
   31.4998  -21.9740  -13.3545 C   0  0  0  0  0  0  0  0  0  0  0  0
   32.4099  -22.6335  -14.1634 C   0  0  0  0  0  0  0  0  0  0  0  0
   32.7875  -24.4943  -16.2437 C   0  0  0  0  0  0  0  0  0  0  0  0
   33.1920  -23.9031  -17.2675 O   0  0  0  0  0  0  0  0  0  0  0  0
   31.4056  -24.5344  -15.9401 N   0  0  0  0  0  0  0  0  0  0  0  0
   30.3865  -23.9960  -16.8119 C   0  0  1  0  0  0  0  0  0  0  0  0
   29.0685  -24.7554  -16.5999 C   0  0  0  0  0  0  0  0  0  0  0  0
   28.0250  -24.2050  -17.4904 C   0  0  0  0  0  0  0  0  0  0  0  0
   28.0191  -24.5088  -18.7060 O   0  0  0  0  0  0  0  0  0  0  0  0
   30.1943  -22.5589  -16.4936 C   0  0  0  0  0  0  0  0  0  0  0  0
   31.2237  -21.6564  -16.3726 O   0  0  0  0  0  0  0  0  0  0  0  0
   27.0151  -23.3452  -17.0629 O   0  0  0  0  0  0  0  0  0  0  0  0
   29.0038  -22.1603  -16.3273 O   0  0  0  0  0  0  0  0  0  0  0  0
  2  4  1  0
  2  1  1  6
  3  2  1  0
  4  5  2  0
  6  7  1  0
  6  4  1  0
  7  8  1  6
  8  9  1  0
  9 10  2  0
 10 11  1  0
 12 11  2  0
 13 12  1  0
 14 13  2  0
 14  9  1  0
 15 17  1  0
 15  7  1  0
 16 15  2  0
 18 17  1  0
 18 19  1  1
 19 20  1  0
 20 21  2  0
 20 24  1  0
 22 18  1  0
 22 23  1  0
 25 22  2  0
M  END
$$$$
