WVA.pdb
     RDKit          3D

 27 28  0  0  1  0  0  0  0  0999 V2000
   26.7232  -19.0731   -9.5916 N   0  0  0  0  0  0  0  0  0  0  0  0
   27.2840  -20.3890   -9.7478 C   0  0  1  0  0  0  0  0  0  0  0  0
   27.5459  -21.1366   -8.4868 C   0  0  0  0  0  0  0  0  0  0  0  0
   27.6499  -20.2139   -7.3473 C   0  0  0  0  0  0  0  0  0  0  0  0
   26.8330  -19.1331   -7.1132 C   0  0  0  0  0  0  0  0  0  0  0  0
   27.2198  -18.5650   -5.9711 N   0  0  0  0  0  0  0  0  0  0  0  0
   28.2736  -19.2595   -5.4625 C   0  0  0  0  0  0  0  0  0  0  0  0
   29.0379  -19.0933   -4.3337 C   0  0  0  0  0  0  0  0  0  0  0  0
   30.0709  -19.9756   -4.0891 C   0  0  0  0  0  0  0  0  0  0  0  0
   30.3642  -21.0136   -4.9314 C   0  0  0  0  0  0  0  0  0  0  0  0
   29.5883  -21.1843   -6.0787 C   0  0  0  0  0  0  0  0  0  0  0  0
   28.5555  -20.2990   -6.3179 C   0  0  0  0  0  0  0  0  0  0  0  0
   26.3662  -21.2308  -10.5802 C   0  0  0  0  0  0  0  0  0  0  0  0
   26.4687  -22.4828  -10.5795 O   0  0  0  0  0  0  0  0  0  0  0  0
   22.7565  -19.7698  -12.4719 C   0  0  0  0  0  0  0  0  0  0  0  0
   23.1199  -21.1951  -12.1762 C   0  0  2  0  0  0  0  0  0  0  0  0
   22.5724  -21.4876  -10.7706 C   0  0  0  0  0  0  0  0  0  0  0  0
   24.5724  -21.5234  -12.2806 C   0  0  2  0  0  0  0  0  0  0  0  0
   25.3586  -20.6538  -11.3921 N   0  0  0  0  0  0  0  0  0  0  0  0
   25.0529  -21.1916  -13.6413 C   0  0  0  0  0  0  0  0  0  0  0  0
   25.2546  -19.9685  -13.9631 O   0  0  0  0  0  0  0  0  0  0  0  0
   26.7015  -22.6757  -16.6237 C   0  0  0  0  0  0  0  0  0  0  0  0
   25.7729  -21.6714  -15.9702 C   0  0  2  0  0  0  0  0  0  0  0  0
   25.3307  -22.1216  -14.6729 N   0  0  0  0  0  0  0  0  0  0  0  0
   24.6097  -21.3556  -16.8034 C   0  0  0  0  0  0  0  0  0  0  0  0
   24.7401  -20.6072  -17.7960 O   0  0  0  0  0  0  0  0  0  0  0  0
   23.3747  -21.8740  -16.5058 O   0  0  0  0  0  0  0  0  0  0  0  0
  2  1  1  1
  3  4  1  0
  3  2  1  0
  4  5  2  0
  6  5  1  0
  7  6  1  0
  8  7  2  0
  9  8  1  0
 10  9  2  0
 10 11  1  0
 11 12  2  0
 12  7  1  0
 12  4  1  0
 13  2  1  0
 13 14  2  0
 16 15  1  1
 16 17  1  0
 16 18  1  0
 18 19  1  1
 19 13  1  0
 20 18  1  0
 21 20  2  0
 23 22  1  6
 23 24  1  0
 23 25  1  0
 24 20  1  0
 25 27  1  0
 26 25  2  0
M  END
$$$$
