WVA.pdb
     RDKit          3D

 27 28  0  0  1  0  0  0  0  0999 V2000
   24.1252  -13.2928  -17.5576 N   0  0  0  0  0  0  0  0  0  0  0  0
   24.5304  -11.9311  -17.3298 C   0  0  1  0  0  0  0  0  0  0  0  0
   25.0466  -11.2000  -18.5199 C   0  0  0  0  0  0  0  0  0  0  0  0
   26.3803  -11.6917  -18.8942 C   0  0  0  0  0  0  0  0  0  0  0  0
   26.6473  -12.8807  -19.5309 C   0  0  0  0  0  0  0  0  0  0  0  0
   27.9637  -12.9561  -19.7259 N   0  0  0  0  0  0  0  0  0  0  0  0
   28.5532  -11.8364  -19.2257 C   0  0  0  0  0  0  0  0  0  0  0  0
   29.8619  -11.4249  -19.1618 C   0  0  0  0  0  0  0  0  0  0  0  0
   30.1543  -10.2136  -18.5681 C   0  0  0  0  0  0  0  0  0  0  0  0
   29.1867   -9.4035  -18.0385 C   0  0  0  0  0  0  0  0  0  0  0  0
   27.8563   -9.8198  -18.1029 C   0  0  0  0  0  0  0  0  0  0  0  0
   27.5695  -11.0323  -18.6988 C   0  0  0  0  0  0  0  0  0  0  0  0
   23.3730  -11.1455  -16.7940 C   0  0  0  0  0  0  0  0  0  0  0  0
   22.2316  -11.2559  -17.3072 O   0  0  0  0  0  0  0  0  0  0  0  0
   22.8072  -10.2331  -12.8700 C   0  0  0  0  0  0  0  0  0  0  0  0
   21.8110  -10.0612  -13.9787 C   0  0  2  0  0  0  0  0  0  0  0  0
   21.1889  -11.4476  -14.2062 C   0  0  0  0  0  0  0  0  0  0  0  0
   22.3518   -9.4858  -15.2456 C   0  0  2  0  0  0  0  0  0  0  0  0
   23.5191  -10.2568  -15.7002 N   0  0  0  0  0  0  0  0  0  0  0  0
   22.8857   -8.1307  -14.9793 C   0  0  0  0  0  0  0  0  0  0  0  0
   23.9840   -7.9959  -14.3346 O   0  0  0  0  0  0  0  0  0  0  0  0
   23.0331   -4.7713  -16.3107 C   0  0  0  0  0  0  0  0  0  0  0  0
   22.9206   -5.6485  -15.0796 C   0  0  2  0  0  0  0  0  0  0  0  0
   22.2897   -6.9103  -15.3814 N   0  0  0  0  0  0  0  0  0  0  0  0
   22.2041   -4.9907  -13.9837 C   0  0  0  0  0  0  0  0  0  0  0  0
   22.7268   -4.0219  -13.3914 O   0  0  0  0  0  0  0  0  0  0  0  0
   20.9615   -5.4271  -13.5989 O   0  0  0  0  0  0  0  0  0  0  0  0
  2  1  1  6
  3  4  1  0
  3  2  1  0
  4  5  2  0
  6  5  1  0
  7  6  1  0
  8  7  2  0
  9  8  1  0
 10  9  2  0
 10 11  1  0
 11 12  2  0
 12  7  1  0
 12  4  1  0
 13  2  1  0
 13 14  2  0
 16 15  1  1
 16 17  1  0
 16 18  1  0
 18 19  1  1
 19 13  1  0
 20 18  1  0
 21 20  2  0
 23 22  1  6
 23 24  1  0
 23 25  1  0
 24 20  1  0
 25 27  1  0
 26 25  2  0
M  END
$$$$
