WVA.pdb
     RDKit          3D

 27 28  0  0  1  0  0  0  0  0999 V2000
   28.0136  -21.6561   -9.9828 N   0  0  0  0  0  0  0  0  0  0  0  0
   26.7048  -21.1667   -9.6395 C   0  0  1  0  0  0  0  0  0  0  0  0
   26.6703  -20.0023   -8.7119 C   0  0  0  0  0  0  0  0  0  0  0  0
   27.8448  -20.0064   -7.8282 C   0  0  0  0  0  0  0  0  0  0  0  0
   29.1572  -20.0045   -8.2381 C   0  0  0  0  0  0  0  0  0  0  0  0
   29.9276  -19.9770   -7.1508 N   0  0  0  0  0  0  0  0  0  0  0  0
   29.1362  -19.9616   -6.0441 C   0  0  0  0  0  0  0  0  0  0  0  0
   29.4185  -19.9418   -4.7003 C   0  0  0  0  0  0  0  0  0  0  0  0
   28.3746  -19.9427   -3.7971 C   0  0  0  0  0  0  0  0  0  0  0  0
   27.0640  -19.9627   -4.1906 C   0  0  0  0  0  0  0  0  0  0  0  0
   26.7752  -19.9823   -5.5557 C   0  0  0  0  0  0  0  0  0  0  0  0
   27.8236  -19.9805   -6.4548 C   0  0  0  0  0  0  0  0  0  0  0  0
   25.9764  -20.7637  -10.8849 C   0  0  0  0  0  0  0  0  0  0  0  0
   26.4635  -19.9054  -11.6623 O   0  0  0  0  0  0  0  0  0  0  0  0
   25.2434  -22.9357  -13.7638 C   0  0  0  0  0  0  0  0  0  0  0  0
   23.9699  -22.2607  -13.3472 C   0  0  2  0  0  0  0  0  0  0  0  0
   23.1879  -21.9973  -14.6434 C   0  0  0  0  0  0  0  0  0  0  0  0
   24.1362  -21.0147  -12.5418 C   0  0  2  0  0  0  0  0  0  0  0  0
   24.7236  -21.3281  -11.2301 N   0  0  0  0  0  0  0  0  0  0  0  0
   22.8027  -20.4550  -12.2246 C   0  0  0  0  0  0  0  0  0  0  0  0
   22.1040  -20.9720  -11.2840 O   0  0  0  0  0  0  0  0  0  0  0  0
   20.5533  -17.5424  -13.0403 C   0  0  0  0  0  0  0  0  0  0  0  0
   20.8676  -18.9197  -12.4906 C   0  0  2  0  0  0  0  0  0  0  0  0
   22.1876  -19.3572  -12.8747 N   0  0  0  0  0  0  0  0  0  0  0  0
   19.8804  -19.9248  -12.8932 C   0  0  0  0  0  0  0  0  0  0  0  0
   20.0861  -20.6284  -13.9057 O   0  0  0  0  0  0  0  0  0  0  0  0
   18.7288  -20.1035  -12.1691 O   0  0  0  0  0  0  0  0  0  0  0  0
  2  1  1  6
  3  4  1  0
  3  2  1  0
  4  5  2  0
  6  5  1  0
  7  6  1  0
  8  7  2  0
  9  8  1  0
 10  9  2  0
 10 11  1  0
 11 12  2  0
 12  7  1  0
 12  4  1  0
 13  2  1  0
 13 14  2  0
 16 15  1  6
 16 17  1  0
 16 18  1  0
 18 19  1  1
 19 13  1  0
 20 18  1  0
 21 20  2  0
 23 22  1  6
 23 24  1  0
 23 25  1  0
 24 20  1  0
 25 27  1  0
 26 25  2  0
M  END
$$$$
