WVA.pdb
     RDKit          3D

 27 28  0  0  1  0  0  0  0  0999 V2000
   27.8921  -20.9546   -9.6130 N   0  0  0  0  0  0  0  0  0  0  0  0
   26.4645  -21.1265   -9.5606 C   0  0  1  0  0  0  0  0  0  0  0  0
   25.7683  -20.4338   -8.4413 C   0  0  0  0  0  0  0  0  0  0  0  0
   26.7392  -19.7997   -7.5380 C   0  0  0  0  0  0  0  0  0  0  0  0
   27.2068  -18.5108   -7.6400 C   0  0  0  0  0  0  0  0  0  0  0  0
   28.0434  -18.2953   -6.6250 N   0  0  0  0  0  0  0  0  0  0  0  0
   28.1255  -19.4230   -5.8680 C   0  0  0  0  0  0  0  0  0  0  0  0
   28.8389  -19.7323   -4.7361 C   0  0  0  0  0  0  0  0  0  0  0  0
   28.7193  -20.9961   -4.1941 C   0  0  0  0  0  0  0  0  0  0  0  0
   27.9141  -21.9568   -4.7433 C   0  0  0  0  0  0  0  0  0  0  0  0
   27.1880  -21.6442   -5.8933 C   0  0  0  0  0  0  0  0  0  0  0  0
   27.3109  -20.3778   -6.4308 C   0  0  0  0  0  0  0  0  0  0  0  0
   25.8520  -20.6348  -10.8361 C   0  0  0  0  0  0  0  0  0  0  0  0
   26.0495  -19.4582  -11.2295 O   0  0  0  0  0  0  0  0  0  0  0  0
   24.9899  -23.2693  -13.9701 C   0  0  0  0  0  0  0  0  0  0  0  0
   25.2267  -21.7896  -14.0433 C   0  0  2  0  0  0  0  0  0  0  0  0
   26.7521  -21.6070  -14.0724 C   0  0  0  0  0  0  0  0  0  0  0  0
   24.5964  -20.9830  -12.9567 C   0  0  2  0  0  0  0  0  0  0  0  0
   25.0349  -21.4683  -11.6392 N   0  0  0  0  0  0  0  0  0  0  0  0
   23.1331  -21.2091  -12.9649 C   0  0  0  0  0  0  0  0  0  0  0  0
   22.6173  -22.0603  -12.1590 O   0  0  0  0  0  0  0  0  0  0  0  0
   20.6516  -22.4402  -14.0187 C   0  0  0  0  0  0  0  0  0  0  0  0
   20.8091  -20.9479  -13.8035 C   0  0  2  0  0  0  0  0  0  0  0  0
   22.1970  -20.5543  -13.8023 N   0  0  0  0  0  0  0  0  0  0  0  0
   20.1666  -20.4865  -12.5700 C   0  0  0  0  0  0  0  0  0  0  0  0
   20.8513  -20.3149  -11.5384 O   0  0  0  0  0  0  0  0  0  0  0  0
   18.8174  -20.2397  -12.5343 O   0  0  0  0  0  0  0  0  0  0  0  0
  2  1  1  6
  3  4  1  0
  3  2  1  0
  4  5  2  0
  6  5  1  0
  7  6  1  0
  8  7  2  0
  9  8  1  0
 10  9  2  0
 10 11  1  0
 11 12  2  0
 12  7  1  0
 12  4  1  0
 13  2  1  0
 13 14  2  0
 16 15  1  1
 16 17  1  0
 16 18  1  0
 18 19  1  1
 19 13  1  0
 20 18  1  0
 21 20  2  0
 23 22  1  1
 23 24  1  0
 23 25  1  0
 24 20  1  0
 25 27  1  0
 26 25  2  0
M  END
$$$$
