WVA.pdb
     RDKit          3D

 27 28  0  0  1  0  0  0  0  0999 V2000
   26.3522  -22.8025  -11.4912 N   0  0  0  0  0  0  0  0  0  0  0  0
   25.8051  -21.4939  -11.2492 C   0  0  1  0  0  0  0  0  0  0  0  0
   26.7618  -20.3588  -11.3660 C   0  0  0  0  0  0  0  0  0  0  0  0
   27.8626  -20.5055  -10.4031 C   0  0  0  0  0  0  0  0  0  0  0  0
   29.1357  -20.9321  -10.6989 C   0  0  0  0  0  0  0  0  0  0  0  0
   29.8512  -20.9020   -9.5747 N   0  0  0  0  0  0  0  0  0  0  0  0
   29.0626  -20.4637   -8.5562 C   0  0  0  0  0  0  0  0  0  0  0  0
   29.2995  -20.2615   -7.2187 C   0  0  0  0  0  0  0  0  0  0  0  0
   28.2700  -19.8104   -6.4174 C   0  0  0  0  0  0  0  0  0  0  0  0
   27.0173  -19.5559   -6.9062 C   0  0  0  0  0  0  0  0  0  0  0  0
   26.7748  -19.7604   -8.2652 C   0  0  0  0  0  0  0  0  0  0  0  0
   27.8089  -20.2110   -9.0623 C   0  0  0  0  0  0  0  0  0  0  0  0
   24.6860  -21.2317  -12.2099 C   0  0  0  0  0  0  0  0  0  0  0  0
   24.7016  -21.7306  -13.3627 O   0  0  0  0  0  0  0  0  0  0  0  0
   21.1467  -19.6376  -10.5214 C   0  0  0  0  0  0  0  0  0  0  0  0
   21.1837  -20.7203  -11.5594 C   0  0  2  0  0  0  0  0  0  0  0  0
   21.2279  -22.0466  -10.7849 C   0  0  0  0  0  0  0  0  0  0  0  0
   22.2965  -20.6238  -12.5498 C   0  0  2  0  0  0  0  0  0  0  0  0
   23.5793  -20.4193  -11.8597 N   0  0  0  0  0  0  0  0  0  0  0  0
   22.1192  -19.4028  -13.3683 C   0  0  0  0  0  0  0  0  0  0  0  0
   22.3942  -18.2567  -12.8673 O   0  0  0  0  0  0  0  0  0  0  0  0
   21.8255  -18.2213  -16.8680 C   0  0  0  0  0  0  0  0  0  0  0  0
   21.5008  -18.1012  -15.3921 C   0  0  2  0  0  0  0  0  0  0  0  0
   21.6612  -19.3611  -14.7080 N   0  0  0  0  0  0  0  0  0  0  0  0
   20.1520  -17.5808  -15.1534 C   0  0  0  0  0  0  0  0  0  0  0  0
   19.2675  -18.3334  -14.6911 O   0  0  0  0  0  0  0  0  0  0  0  0
   19.8476  -16.2724  -15.4323 O   0  0  0  0  0  0  0  0  0  0  0  0
  2  1  1  6
  3  4  1  0
  3  2  1  0
  4  5  2  0
  6  5  1  0
  7  6  1  0
  8  7  2  0
  9  8  1  0
 10  9  2  0
 10 11  1  0
 11 12  2  0
 12  7  1  0
 12  4  1  0
 13  2  1  0
 13 14  2  0
 16 15  1  1
 16 17  1  0
 16 18  1  0
 18 19  1  1
 19 13  1  0
 20 18  1  0
 21 20  2  0
 23 22  1  6
 23 24  1  0
 23 25  1  0
 24 20  1  0
 25 27  1  0
 26 25  2  0
M  END
$$$$
