WVA.pdb
     RDKit          3D

 27 28  0  0  1  0  0  0  0  0999 V2000
   25.9862  -19.9296  -16.6792 N   0  0  0  0  0  0  0  0  0  0  0  0
   25.9980  -19.2221  -15.4264 C   0  0  1  0  0  0  0  0  0  0  0  0
   24.7297  -18.5345  -15.0575 C   0  0  0  0  0  0  0  0  0  0  0  0
   24.5103  -17.3565  -15.9089 C   0  0  0  0  0  0  0  0  0  0  0  0
   23.4991  -17.2085  -16.8286 C   0  0  0  0  0  0  0  0  0  0  0  0
   23.6144  -15.9985  -17.3755 N   0  0  0  0  0  0  0  0  0  0  0  0
   24.6834  -15.3610  -16.8258 C   0  0  0  0  0  0  0  0  0  0  0  0
   25.2358  -14.1216  -17.0376 C   0  0  0  0  0  0  0  0  0  0  0  0
   26.3546  -13.7555  -16.3167 C   0  0  0  0  0  0  0  0  0  0  0  0
   26.9371  -14.5832  -15.3955 C   0  0  0  0  0  0  0  0  0  0  0  0
   26.3769  -15.8428  -15.1786 C   0  0  0  0  0  0  0  0  0  0  0  0
   25.2570  -16.2034  -15.9021 C   0  0  0  0  0  0  0  0  0  0  0  0
   26.3267  -20.1723  -14.3159 C   0  0  0  0  0  0  0  0  0  0  0  0
   25.8835  -21.3477  -14.3266 O   0  0  0  0  0  0  0  0  0  0  0  0
   29.8440  -21.1263  -12.7491 C   0  0  0  0  0  0  0  0  0  0  0  0
   28.8391  -20.6811  -11.7278 C   0  0  2  0  0  0  0  0  0  0  0  0
   29.1048  -21.5310  -10.4755 C   0  0  0  0  0  0  0  0  0  0  0  0
   27.4106  -20.7606  -12.1540 C   0  0  2  0  0  0  0  0  0  0  0  0
   27.1405  -19.7861  -13.2223 N   0  0  0  0  0  0  0  0  0  0  0  0
   26.5411  -20.3315  -11.0349 C   0  0  0  0  0  0  0  0  0  0  0  0
   26.5264  -19.1019  -10.6772 O   0  0  0  0  0  0  0  0  0  0  0  0
   23.4429  -21.0331   -9.3019 C   0  0  0  0  0  0  0  0  0  0  0  0
   24.9020  -20.6367   -9.1930 C   0  0  2  0  0  0  0  0  0  0  0  0
   25.6808  -21.1697  -10.2842 N   0  0  0  0  0  0  0  0  0  0  0  0
   25.5011  -21.0409   -7.9184 C   0  0  0  0  0  0  0  0  0  0  0  0
   26.3119  -21.9917   -7.8857 O   0  0  0  0  0  0  0  0  0  0  0  0
   25.1815  -20.3855   -6.7562 O   0  0  0  0  0  0  0  0  0  0  0  0
  2  1  1  6
  3  4  1  0
  3  2  1  0
  4  5  2  0
  6  5  1  0
  7  6  1  0
  8  7  2  0
  9  8  1  0
 10  9  2  0
 10 11  1  0
 11 12  2  0
 12  7  1  0
 12  4  1  0
 13  2  1  0
 13 14  2  0
 16 15  1  6
 16 17  1  0
 16 18  1  0
 18 19  1  6
 19 13  1  0
 20 18  1  0
 21 20  2  0
 23 22  1  1
 23 24  1  0
 23 25  1  0
 24 20  1  0
 25 27  1  0
 26 25  2  0
M  END
$$$$
