WVA.pdb
     RDKit          3D

 27 28  0  0  1  0  0  0  0  0999 V2000
   26.3576  -29.9729  -19.7278 N   0  0  0  0  0  0  0  0  0  0  0  0
   26.1262  -29.7502  -18.3253 C   0  0  1  0  0  0  0  0  0  0  0  0
   24.9798  -28.8610  -17.9900 C   0  0  0  0  0  0  0  0  0  0  0  0
   25.2012  -27.5064  -18.5160 C   0  0  0  0  0  0  0  0  0  0  0  0
   24.4724  -26.9046  -19.5145 C   0  0  0  0  0  0  0  0  0  0  0  0
   24.9515  -25.6730  -19.6881 N   0  0  0  0  0  0  0  0  0  0  0  0
   25.9784  -25.4677  -18.8194 C   0  0  0  0  0  0  0  0  0  0  0  0
   26.8054  -24.3944  -18.5955 C   0  0  0  0  0  0  0  0  0  0  0  0
   27.7862  -24.4954  -17.6294 C   0  0  0  0  0  0  0  0  0  0  0  0
   27.9670  -25.6282  -16.8831 C   0  0  0  0  0  0  0  0  0  0  0  0
   27.1272  -26.7196  -17.1089 C   0  0  0  0  0  0  0  0  0  0  0  0
   26.1472  -26.6126  -18.0762 C   0  0  0  0  0  0  0  0  0  0  0  0
   25.8859  -31.0610  -17.6412 C   0  0  0  0  0  0  0  0  0  0  0  0
   25.5683  -32.0802  -18.3035 O   0  0  0  0  0  0  0  0  0  0  0  0
   28.4227  -32.6513  -14.9805 C   0  0  0  0  0  0  0  0  0  0  0  0
   26.9863  -32.6516  -14.5475 C   0  0  2  0  0  0  0  0  0  0  0  0
   26.7938  -33.9343  -13.7236 C   0  0  0  0  0  0  0  0  0  0  0  0
   25.9829  -32.5485  -15.6481 C   0  0  2  0  0  0  0  0  0  0  0  0
   26.0056  -31.2005  -16.2364 N   0  0  0  0  0  0  0  0  0  0  0  0
   24.6208  -32.6814  -15.0829 C   0  0  0  0  0  0  0  0  0  0  0  0
   24.0973  -31.6995  -14.4490 O   0  0  0  0  0  0  0  0  0  0  0  0
   21.4836  -34.5926  -15.4437 C   0  0  0  0  0  0  0  0  0  0  0  0
   22.4754  -33.8317  -14.5862 C   0  0  2  0  0  0  0  0  0  0  0  0
   23.7929  -33.8271  -15.1739 N   0  0  0  0  0  0  0  0  0  0  0  0
   22.5498  -34.3501  -13.2177 C   0  0  0  0  0  0  0  0  0  0  0  0
   23.4202  -35.1961  -12.9192 O   0  0  0  0  0  0  0  0  0  0  0  0
   21.6721  -33.9160  -12.2566 O   0  0  0  0  0  0  0  0  0  0  0  0
  2  1  1  6
  3  4  1  0
  3  2  1  0
  4  5  2  0
  6  5  1  0
  7  6  1  0
  8  7  2  0
  9  8  1  0
 10  9  2  0
 10 11  1  0
 11 12  2  0
 12  7  1  0
 12  4  1  0
 13  2  1  0
 13 14  2  0
 16 15  1  6
 16 17  1  0
 16 18  1  0
 18 19  1  1
 19 13  1  0
 20 18  1  0
 21 20  2  0
 23 22  1  6
 23 24  1  0
 23 25  1  0
 24 20  1  0
 25 27  1  0
 26 25  2  0
M  END
$$$$
