WVA.pdb
     RDKit          3D

 27 28  0  0  1  0  0  0  0  0999 V2000
   24.4061  -19.2534   -9.1826 N   0  0  0  0  0  0  0  0  0  0  0  0
   25.6043  -19.9134   -9.6288 C   0  0  1  0  0  0  0  0  0  0  0  0
   25.9572  -21.1710   -8.9138 C   0  0  0  0  0  0  0  0  0  0  0  0
   26.0372  -20.9401   -7.4643 C   0  0  0  0  0  0  0  0  0  0  0  0
   25.0345  -21.1858   -6.5563 C   0  0  0  0  0  0  0  0  0  0  0  0
   25.4949  -20.8817   -5.3429 N   0  0  0  0  0  0  0  0  0  0  0  0
   26.7783  -20.4428   -5.4503 C   0  0  0  0  0  0  0  0  0  0  0  0
   27.6907  -20.0037   -4.5227 C   0  0  0  0  0  0  0  0  0  0  0  0
   28.9405  -19.6033   -4.9507 C   0  0  0  0  0  0  0  0  0  0  0  0
   29.3069  -19.6270   -6.2690 C   0  0  0  0  0  0  0  0  0  0  0  0
   28.3812  -20.0734   -7.2131 C   0  0  0  0  0  0  0  0  0  0  0  0
   27.1326  -20.4735   -6.7790 C   0  0  0  0  0  0  0  0  0  0  0  0
   25.4807  -20.2497  -11.0833 C   0  0  0  0  0  0  0  0  0  0  0  0
   24.3515  -20.4132  -11.6091 O   0  0  0  0  0  0  0  0  0  0  0  0
   28.9829  -20.0368  -13.5301 C   0  0  0  0  0  0  0  0  0  0  0  0
   27.6347  -19.5271  -13.9467 C   0  0  2  0  0  0  0  0  0  0  0  0
   27.6140  -18.0360  -13.5764 C   0  0  0  0  0  0  0  0  0  0  0  0
   26.4657  -20.2540  -13.3691 C   0  0  2  0  0  0  0  0  0  0  0  0
   26.6199  -20.3955  -11.9130 N   0  0  0  0  0  0  0  0  0  0  0  0
   26.4550  -21.6452  -13.8758 C   0  0  0  0  0  0  0  0  0  0  0  0
   26.9621  -22.5835  -13.1669 O   0  0  0  0  0  0  0  0  0  0  0  0
   24.3441  -23.7043  -14.1891 C   0  0  0  0  0  0  0  0  0  0  0  0
   25.3724  -23.4007  -15.2608 C   0  0  2  0  0  0  0  0  0  0  0  0
   25.9172  -22.0730  -15.1143 N   0  0  0  0  0  0  0  0  0  0  0  0
   24.8387  -23.5661  -16.6154 C   0  0  0  0  0  0  0  0  0  0  0  0
   24.3340  -22.5886  -17.2089 O   0  0  0  0  0  0  0  0  0  0  0  0
   24.8869  -24.7857  -17.2421 O   0  0  0  0  0  0  0  0  0  0  0  0
  2  1  1  1
  3  4  1  0
  3  2  1  0
  4  5  2  0
  6  5  1  0
  7  6  1  0
  8  7  2  0
  9  8  1  0
 10  9  2  0
 10 11  1  0
 11 12  2  0
 12  7  1  0
 12  4  1  0
 13  2  1  0
 13 14  2  0
 16 15  1  1
 16 17  1  0
 16 18  1  0
 18 19  1  1
 19 13  1  0
 20 18  1  0
 21 20  2  0
 23 22  1  1
 23 24  1  0
 23 25  1  0
 24 20  1  0
 25 27  1  0
 26 25  2  0
M  END
$$$$
