WVA.pdb
     RDKit          3D

 27 28  0  0  1  0  0  0  0  0999 V2000
   27.1735  -22.1144  -12.4255 N   0  0  0  0  0  0  0  0  0  0  0  0
   26.2538  -21.3235  -11.6514 C   0  0  1  0  0  0  0  0  0  0  0  0
   26.8409  -20.1510  -10.9458 C   0  0  0  0  0  0  0  0  0  0  0  0
   27.8629  -20.5827   -9.9815 C   0  0  0  0  0  0  0  0  0  0  0  0
   29.0057  -21.2846  -10.2842 C   0  0  0  0  0  0  0  0  0  0  0  0
   29.6918  -21.4600   -9.1550 N   0  0  0  0  0  0  0  0  0  0  0  0
   29.0122  -20.8840   -8.1266 C   0  0  0  0  0  0  0  0  0  0  0  0
   29.2699  -20.7876   -6.7811 C   0  0  0  0  0  0  0  0  0  0  0  0
   28.3622  -20.1357   -5.9709 C   0  0  0  0  0  0  0  0  0  0  0  0
   27.2106  -19.5796   -6.4584 C   0  0  0  0  0  0  0  0  0  0  0  0
   26.9473  -19.6762   -7.8254 C   0  0  0  0  0  0  0  0  0  0  0  0
   27.8595  -20.3288   -8.6315 C   0  0  0  0  0  0  0  0  0  0  0  0
   25.1643  -20.8066  -12.5401 C   0  0  0  0  0  0  0  0  0  0  0  0
   25.4230  -19.9996  -13.4674 O   0  0  0  0  0  0  0  0  0  0  0  0
   21.8881  -21.4770  -15.6389 C   0  0  0  0  0  0  0  0  0  0  0  0
   22.9505  -21.6683  -14.5969 C   0  0  2  0  0  0  0  0  0  0  0  0
   22.9271  -23.1625  -14.2392 C   0  0  0  0  0  0  0  0  0  0  0  0
   22.8223  -20.8095  -13.3826 C   0  0  2  0  0  0  0  0  0  0  0  0
   23.8146  -21.2030  -12.3705 N   0  0  0  0  0  0  0  0  0  0  0  0
   21.5149  -21.0666  -12.7368 C   0  0  0  0  0  0  0  0  0  0  0  0
   21.3362  -22.1463  -12.0717 O   0  0  0  0  0  0  0  0  0  0  0  0
   18.4709  -19.2756  -11.5705 C   0  0  0  0  0  0  0  0  0  0  0  0
   19.1968  -20.5265  -12.0248 C   0  0  2  0  0  0  0  0  0  0  0  0
   20.3890  -20.2079  -12.7720 N   0  0  0  0  0  0  0  0  0  0  0  0
   18.3432  -21.4156  -12.8173 C   0  0  0  0  0  0  0  0  0  0  0  0
   18.4230  -21.4059  -14.0647 O   0  0  0  0  0  0  0  0  0  0  0  0
   17.4544  -22.2619  -12.2039 O   0  0  0  0  0  0  0  0  0  0  0  0
  2  1  1  6
  3  4  1  0
  3  2  1  0
  4  5  2  0
  6  5  1  0
  7  6  1  0
  8  7  2  0
  9  8  1  0
 10  9  2  0
 10 11  1  0
 11 12  2  0
 12  7  1  0
 12  4  1  0
 13  2  1  0
 13 14  2  0
 16 15  1  6
 16 17  1  0
 16 18  1  0
 18 19  1  1
 19 13  1  0
 20 18  1  0
 21 20  2  0
 23 22  1  6
 23 24  1  0
 23 25  1  0
 24 20  1  0
 25 27  1  0
 26 25  2  0
M  END
$$$$
