ICR.pdb
     RDKit          3D

 26 25  0  0  1  0  0  0  0  0999 V2000
    5.5347  -10.9708   26.9209 C   0  0  0  0  0  0  0  0  0  0  0  0
    5.5201  -12.3819   26.3155 C   0  0  0  0  0  0  0  0  0  0  0  0
    6.8338  -12.6819   25.6418 C   0  0  2  0  0  0  0  0  0  0  0  0
    7.2743  -11.6008   24.7149 C   0  0  0  0  0  0  0  0  0  0  0  0
    6.8924  -14.0746   25.0838 C   0  0  2  0  0  0  0  0  0  0  0  0
    5.9793  -14.9228   25.8821 N   0  0  0  0  0  0  0  0  0  0  0  0
    8.1978  -14.7194   25.0849 C   0  0  0  0  0  0  0  0  0  0  0  0
    9.1262  -14.1947   24.4135 O   0  0  0  0  0  0  0  0  0  0  0  0
    8.5242  -15.9045   25.7874 N   0  0  0  0  0  0  0  0  0  0  0  0
    9.7935  -16.5248   25.6109 C   0  0  1  0  0  0  0  0  0  0  0  0
   10.1379  -17.5221   26.6930 C   0  0  0  0  0  0  0  0  0  0  0  0
    9.6551  -16.9723   28.3326 S   0  0  0  0  0  0  0  0  0  0  0  0
    9.9030  -17.1733   24.2645 C   0  0  0  0  0  0  0  0  0  0  0  0
    8.8542  -17.3138   23.5918 O   0  0  0  0  0  0  0  0  0  0  0  0
    8.4861  -12.3382   20.3244 N   0  0  0  0  0  0  0  0  0  0  0  0
    7.9210  -13.4824   19.7346 C   0  0  0  0  0  0  0  0  0  0  0  0
    6.6709  -13.5259   19.3586 N   0  0  0  0  0  0  0  0  0  0  0  0
    8.6745  -14.6661   19.5081 N   0  0  0  0  0  0  0  0  0  0  0  0
    9.9826  -14.8541   20.1496 C   0  0  0  0  0  0  0  0  0  0  0  0
   10.0243  -16.1537   20.9105 C   0  0  0  0  0  0  0  0  0  0  0  0
   11.2882  -16.4119   21.6339 C   0  0  0  0  0  0  0  0  0  0  0  0
   11.3650  -17.7498   22.2844 C   0  0  2  0  0  0  0  0  0  0  0  0
   11.1325  -17.6312   23.7252 N   0  0  0  0  0  0  0  0  0  0  0  0
   12.7019  -18.3463   22.0277 C   0  0  0  0  0  0  0  0  0  0  0  0
   13.6242  -18.0771   22.8203 O   0  0  0  0  0  0  0  0  0  0  0  0
   12.8735  -19.1659   20.9397 O   0  0  0  0  0  0  0  0  0  0  0  0
  2  1  1  0
  3  4  1  6
  3  2  1  0
  5  3  1  0
  5  6  1  1
  7  8  2  0
  7  5  1  0
  9  7  1  0
 10  9  1  0
 11 12  1  0
 10 11  1  1
 13 14  2  0
 13 10  1  0
 16 15  1  0
 17 16  2  0
 18 16  1  0
 19 18  1  0
 20 21  1  0
 20 19  1  0
 22 21  1  6
 22 23  1  0
 23 13  1  0
 24 22  1  0
 25 24  2  0
 26 24  1  0
M  END
$$$$
