ICR.pdb
     RDKit          3D

 26 25  0  0  1  0  0  0  0  0999 V2000
    8.4962  -11.4931   19.3625 C   0  0  0  0  0  0  0  0  0  0  0  0
    7.9807  -12.7937   19.9953 C   0  0  0  0  0  0  0  0  0  0  0  0
    8.5071  -13.9907   19.2472 C   0  0  2  0  0  0  0  0  0  0  0  0
    8.2753  -13.9079   17.7770 C   0  0  0  0  0  0  0  0  0  0  0  0
    8.1186  -15.2908   19.8900 C   0  0  2  0  0  0  0  0  0  0  0  0
    6.6458  -15.4144   19.8110 N   0  0  0  0  0  0  0  0  0  0  0  0
    8.4954  -15.4624   21.2858 C   0  0  0  0  0  0  0  0  0  0  0  0
    8.2080  -14.5456   22.1015 O   0  0  0  0  0  0  0  0  0  0  0  0
    9.1670  -16.5888   21.8194 N   0  0  0  0  0  0  0  0  0  0  0  0
    9.5880  -16.6040   23.1793 C   0  0  1  0  0  0  0  0  0  0  0  0
    8.5813  -17.2253   24.1200 C   0  0  0  0  0  0  0  0  0  0  0  0
    7.2618  -16.0976   24.5790 S   0  0  0  0  0  0  0  0  0  0  0  0
   10.9164  -17.2801   23.3332 C   0  0  0  0  0  0  0  0  0  0  0  0
   10.9745  -18.5163   23.1317 O   0  0  0  0  0  0  0  0  0  0  0  0
   13.2489  -15.1116   18.0910 N   0  0  0  0  0  0  0  0  0  0  0  0
   14.4244  -14.8032   18.7978 C   0  0  0  0  0  0  0  0  0  0  0  0
   15.1132  -13.7186   18.5627 N   0  0  0  0  0  0  0  0  0  0  0  0
   14.9388  -15.6517   19.8155 N   0  0  0  0  0  0  0  0  0  0  0  0
   14.0379  -16.2815   20.7900 C   0  0  0  0  0  0  0  0  0  0  0  0
   14.0755  -15.5489   22.1059 C   0  0  0  0  0  0  0  0  0  0  0  0
   14.4775  -16.3727   23.2665 C   0  0  0  0  0  0  0  0  0  0  0  0
   13.3999  -17.2496   23.8041 C   0  0  2  0  0  0  0  0  0  0  0  0
   12.0994  -16.5858   23.6948 N   0  0  0  0  0  0  0  0  0  0  0  0
   13.6923  -17.5748   25.2246 C   0  0  0  0  0  0  0  0  0  0  0  0
   12.9214  -17.1313   26.0966 O   0  0  0  0  0  0  0  0  0  0  0  0
   14.7881  -18.3457   25.5248 O   0  0  0  0  0  0  0  0  0  0  0  0
  2  1  1  0
  3  4  1  6
  3  2  1  0
  5  3  1  0
  5  6  1  1
  7  8  2  0
  7  5  1  0
  9  7  1  0
 10  9  1  0
 11 12  1  0
 10 11  1  1
 13 14  2  0
 13 10  1  0
 16 15  1  0
 17 16  2  0
 18 16  1  0
 19 18  1  0
 20 21  1  0
 20 19  1  0
 22 21  1  1
 22 23  1  0
 23 13  1  0
 24 22  1  0
 25 24  2  0
 26 24  1  0
M  END
$$$$
