ICR.pdb
     RDKit          3D

 26 25  0  0  1  0  0  0  0  0999 V2000
    5.9821  -22.5706   23.2841 C   0  0  0  0  0  0  0  0  0  0  0  0
    5.2243  -21.2987   23.6915 C   0  0  0  0  0  0  0  0  0  0  0  0
    6.1022  -20.0853   23.5298 C   0  0  2  0  0  0  0  0  0  0  0  0
    7.4696  -20.2755   24.0921 C   0  0  0  0  0  0  0  0  0  0  0  0
    5.4106  -18.8140   23.9297 C   0  0  2  0  0  0  0  0  0  0  0  0
    4.1861  -18.6852   23.1086 N   0  0  0  0  0  0  0  0  0  0  0  0
    6.1725  -17.5835   23.7708 C   0  0  0  0  0  0  0  0  0  0  0  0
    6.2039  -17.0403   22.6341 O   0  0  0  0  0  0  0  0  0  0  0  0
    6.8935  -16.9292   24.7987 N   0  0  0  0  0  0  0  0  0  0  0  0
    7.7133  -15.8030   24.5045 C   0  0  1  0  0  0  0  0  0  0  0  0
    7.7474  -14.7714   25.6085 C   0  0  0  0  0  0  0  0  0  0  0  0
    6.1336  -14.4683   26.3348 S   0  0  0  0  0  0  0  0  0  0  0  0
    9.1086  -16.2195   24.1509 C   0  0  0  0  0  0  0  0  0  0  0  0
    9.6230  -17.1627   24.7975 O   0  0  0  0  0  0  0  0  0  0  0  0
    8.8059  -12.6032   19.2535 N   0  0  0  0  0  0  0  0  0  0  0  0
    8.8838  -13.5392   18.2075 C   0  0  0  0  0  0  0  0  0  0  0  0
    8.0771  -13.5038   17.1808 N   0  0  0  0  0  0  0  0  0  0  0  0
    9.8469  -14.5845   18.1990 N   0  0  0  0  0  0  0  0  0  0  0  0
   10.9504  -14.5924   19.1686 C   0  0  0  0  0  0  0  0  0  0  0  0
   10.5785  -15.3810   20.3971 C   0  0  0  0  0  0  0  0  0  0  0  0
   11.6129  -15.4133   21.4536 C   0  0  0  0  0  0  0  0  0  0  0  0
   11.1853  -16.0781   22.7163 C   0  0  2  0  0  0  0  0  0  0  0  0
    9.8646  -15.5960   23.1252 N   0  0  0  0  0  0  0  0  0  0  0  0
   12.1847  -15.8021   23.7813 C   0  0  0  0  0  0  0  0  0  0  0  0
   11.8340  -15.0915   24.7422 O   0  0  0  0  0  0  0  0  0  0  0  0
   13.4455  -16.3346   23.6728 O   0  0  0  0  0  0  0  0  0  0  0  0
  2  1  1  0
  3  4  1  1
  3  2  1  0
  5  3  1  0
  5  6  1  6
  7  8  2  0
  7  5  1  0
  9  7  1  0
 10  9  1  0
 11 12  1  0
 10 11  1  1
 13 14  2  0
 13 10  1  0
 16 15  1  0
 17 16  2  0
 18 16  1  0
 19 18  1  0
 20 21  1  0
 20 19  1  0
 22 21  1  6
 22 23  1  0
 23 13  1  0
 24 22  1  0
 25 24  2  0
 26 24  1  0
M  END
$$$$
