ICR.pdb
     RDKit          3D

 26 25  0  0  1  0  0  0  0  0999 V2000
    6.8848  -18.0692   19.6338 C   0  0  0  0  0  0  0  0  0  0  0  0
    6.7455  -16.5518   19.8228 C   0  0  0  0  0  0  0  0  0  0  0  0
    7.2417  -16.1406   21.1845 C   0  0  2  0  0  0  0  0  0  0  0  0
    6.7198  -17.0051   22.2810 C   0  0  0  0  0  0  0  0  0  0  0  0
    7.1285  -14.6619   21.4187 C   0  0  2  0  0  0  0  0  0  0  0  0
    7.8747  -13.9729   20.3421 N   0  0  0  0  0  0  0  0  0  0  0  0
    7.6391  -14.1653   22.6886 C   0  0  0  0  0  0  0  0  0  0  0  0
    8.8820  -14.2072   22.8926 O   0  0  0  0  0  0  0  0  0  0  0  0
    6.8496  -13.6280   23.7338 N   0  0  0  0  0  0  0  0  0  0  0  0
    7.4259  -13.3449   25.0045 C   0  0  1  0  0  0  0  0  0  0  0  0
    6.5133  -12.5689   25.9261 C   0  0  0  0  0  0  0  0  0  0  0  0
    7.1289  -12.4800   27.6104 S   0  0  0  0  0  0  0  0  0  0  0  0
    7.8945  -14.5958   25.6836 C   0  0  0  0  0  0  0  0  0  0  0  0
    7.0369  -15.4612   25.9801 O   0  0  0  0  0  0  0  0  0  0  0  0
   13.2470  -19.4428   22.5662 N   0  0  0  0  0  0  0  0  0  0  0  0
   12.5602  -19.7299   23.7588 C   0  0  0  0  0  0  0  0  0  0  0  0
   12.1337  -20.9311   24.0441 N   0  0  0  0  0  0  0  0  0  0  0  0
   12.2864  -18.7311   24.7323 N   0  0  0  0  0  0  0  0  0  0  0  0
   11.6553  -19.0859   26.0105 C   0  0  0  0  0  0  0  0  0  0  0  0
   11.3630  -17.8523   26.8243 C   0  0  0  0  0  0  0  0  0  0  0  0
   10.7734  -16.7293   26.0638 C   0  0  0  0  0  0  0  0  0  0  0  0
    9.6868  -16.0028   26.7783 C   0  0  2  0  0  0  0  0  0  0  0  0
    9.2552  -14.8384   26.0026 N   0  0  0  0  0  0  0  0  0  0  0  0
   10.1760  -15.5761   28.1153 C   0  0  0  0  0  0  0  0  0  0  0  0
   10.3358  -14.3575   28.3179 O   0  0  0  0  0  0  0  0  0  0  0  0
   10.4306  -16.5274   29.0719 O   0  0  0  0  0  0  0  0  0  0  0  0
  2  1  1  0
  3  4  1  1
  3  2  1  0
  5  3  1  0
  5  6  1  6
  7  8  2  0
  7  5  1  0
  9  7  1  0
 10  9  1  0
 11 12  1  0
 10 11  1  1
 13 14  2  0
 13 10  1  0
 16 15  1  0
 17 16  2  0
 18 16  1  0
 19 18  1  0
 20 21  1  0
 20 19  1  0
 22 21  1  6
 22 23  1  0
 23 13  1  0
 24 22  1  0
 25 24  2  0
 26 24  1  0
M  END
$$$$
