ICR.pdb
     RDKit          3D

 26 25  0  0  1  0  0  0  0  0999 V2000
    6.1347  -10.4119   26.6284 C   0  0  0  0  0  0  0  0  0  0  0  0
    7.0137  -11.6610   26.7860 C   0  0  0  0  0  0  0  0  0  0  0  0
    6.5541  -12.7521   25.8545 C   0  0  2  0  0  0  0  0  0  0  0  0
    5.0839  -12.9903   25.9156 C   0  0  0  0  0  0  0  0  0  0  0  0
    7.4115  -13.9819   25.9373 C   0  0  2  0  0  0  0  0  0  0  0  0
    8.7510  -13.5707   26.4139 N   0  0  0  0  0  0  0  0  0  0  0  0
    7.5994  -14.7260   24.7000 C   0  0  0  0  0  0  0  0  0  0  0  0
    6.7184  -15.5620   24.3635 O   0  0  0  0  0  0  0  0  0  0  0  0
    8.7032  -14.5910   23.8237 N   0  0  0  0  0  0  0  0  0  0  0  0
    8.7914  -15.3812   22.6428 C   0  0  1  0  0  0  0  0  0  0  0  0
    8.9810  -14.5700   21.3817 C   0  0  0  0  0  0  0  0  0  0  0  0
    7.6118  -13.4563   21.0521 S   0  0  0  0  0  0  0  0  0  0  0  0
    9.8726  -16.4128   22.7543 C   0  0  0  0  0  0  0  0  0  0  0  0
   10.9720  -16.0624   23.2450 O   0  0  0  0  0  0  0  0  0  0  0  0
    6.4513  -20.5906   25.9551 N   0  0  0  0  0  0  0  0  0  0  0  0
    7.5135  -20.9042   26.8210 C   0  0  0  0  0  0  0  0  0  0  0  0
    7.3621  -20.9565   28.1174 N   0  0  0  0  0  0  0  0  0  0  0  0
    8.8214  -21.1860   26.3413 N   0  0  0  0  0  0  0  0  0  0  0  0
    9.0864  -21.2719   24.8989 C   0  0  0  0  0  0  0  0  0  0  0  0
    9.7014  -19.9943   24.3901 C   0  0  0  0  0  0  0  0  0  0  0  0
   10.1717  -20.0440   22.9888 C   0  0  0  0  0  0  0  0  0  0  0  0
   10.7527  -18.7674   22.4869 C   0  0  2  0  0  0  0  0  0  0  0  0
    9.7053  -17.7562   22.3308 N   0  0  0  0  0  0  0  0  0  0  0  0
   11.4282  -19.0116   21.1857 C   0  0  0  0  0  0  0  0  0  0  0  0
   12.4555  -19.7159   21.1833 O   0  0  0  0  0  0  0  0  0  0  0  0
   10.9028  -18.4611   20.0429 O   0  0  0  0  0  0  0  0  0  0  0  0
  2  1  1  0
  3  4  1  1
  3  2  1  0
  5  3  1  0
  5  6  1  6
  7  8  2  0
  7  5  1  0
  9  7  1  0
 10  9  1  0
 11 12  1  0
 10 11  1  6
 13 14  2  0
 13 10  1  0
 16 15  1  0
 17 16  2  0
 18 16  1  0
 19 18  1  0
 20 21  1  0
 20 19  1  0
 22 21  1  6
 22 23  1  0
 23 13  1  0
 24 22  1  0
 25 24  2  0
 26 24  1  0
M  END
$$$$
