ICR.pdb
     RDKit          3D

 26 25  0  0  1  0  0  0  0  0999 V2000
    6.7820  -23.6576   23.2080 C   0  0  0  0  0  0  0  0  0  0  0  0
    5.8974  -22.4949   23.6807 C   0  0  0  0  0  0  0  0  0  0  0  0
    6.6183  -21.1821   23.5186 C   0  0  2  0  0  0  0  0  0  0  0  0
    7.9901  -21.1940   24.1016 C   0  0  0  0  0  0  0  0  0  0  0  0
    5.7665  -20.0046   23.8958 C   0  0  2  0  0  0  0  0  0  0  0  0
    4.5554  -20.0288   23.0455 N   0  0  0  0  0  0  0  0  0  0  0  0
    6.3752  -18.6901   23.7488 C   0  0  0  0  0  0  0  0  0  0  0  0
    6.3734  -18.1527   22.6089 O   0  0  0  0  0  0  0  0  0  0  0  0
    6.9789  -17.9469   24.7917 N   0  0  0  0  0  0  0  0  0  0  0  0
    7.5229  -16.6555   24.5398 C   0  0  1  0  0  0  0  0  0  0  0  0
    7.4742  -15.7320   25.7353 C   0  0  0  0  0  0  0  0  0  0  0  0
    8.1955  -16.4571   27.2109 S   0  0  0  0  0  0  0  0  0  0  0  0
    8.9254  -16.7447   24.0196 C   0  0  0  0  0  0  0  0  0  0  0  0
    9.6294  -17.7145   24.3885 O   0  0  0  0  0  0  0  0  0  0  0  0
   13.4743  -13.8694   17.6460 N   0  0  0  0  0  0  0  0  0  0  0  0
   14.3415  -14.7944   18.2533 C   0  0  0  0  0  0  0  0  0  0  0  0
   15.6139  -14.8494   17.9632 N   0  0  0  0  0  0  0  0  0  0  0  0
   13.8895  -15.7293   19.2238 N   0  0  0  0  0  0  0  0  0  0  0  0
   12.5144  -15.6684   19.7372 C   0  0  0  0  0  0  0  0  0  0  0  0
   12.4509  -14.8548   21.0035 C   0  0  0  0  0  0  0  0  0  0  0  0
   11.1173  -14.7962   21.6402 C   0  0  0  0  0  0  0  0  0  0  0  0
   10.8051  -15.9519   22.5268 C   0  0  2  0  0  0  0  0  0  0  0  0
    9.4841  -15.7858   23.1362 N   0  0  0  0  0  0  0  0  0  0  0  0
   11.8469  -16.0592   23.5815 C   0  0  0  0  0  0  0  0  0  0  0  0
   11.6207  -15.5244   24.6834 O   0  0  0  0  0  0  0  0  0  0  0  0
   13.0093  -16.7376   23.3101 O   0  0  0  0  0  0  0  0  0  0  0  0
  2  1  1  0
  3  4  1  1
  3  2  1  0
  5  3  1  0
  5  6  1  6
  7  8  2  0
  7  5  1  0
  9  7  1  0
 10  9  1  0
 11 12  1  0
 10 11  1  1
 13 14  2  0
 13 10  1  0
 16 15  1  0
 17 16  2  0
 18 16  1  0
 19 18  1  0
 20 21  1  0
 20 19  1  0
 22 21  1  6
 22 23  1  0
 23 13  1  0
 24 22  1  0
 25 24  2  0
 26 24  1  0
M  END
$$$$
