ICR.pdb
     RDKit          3D

 26 25  0  0  1  0  0  0  0  0999 V2000
    6.9072  -12.0822   18.0133 C   0  0  0  0  0  0  0  0  0  0  0  0
    6.8267  -13.4054   18.7881 C   0  0  0  0  0  0  0  0  0  0  0  0
    7.8429  -13.4300   19.8999 C   0  0  2  0  0  0  0  0  0  0  0  0
    9.2269  -13.1344   19.4317 C   0  0  0  0  0  0  0  0  0  0  0  0
    7.7039  -14.6359   20.7835 C   0  0  2  0  0  0  0  0  0  0  0  0
    6.2753  -15.0222   20.8037 N   0  0  0  0  0  0  0  0  0  0  0  0
    8.1319  -14.4795   22.1664 C   0  0  0  0  0  0  0  0  0  0  0  0
    9.3675  -14.4755   22.4147 O   0  0  0  0  0  0  0  0  0  0  0  0
    7.2683  -14.3270   23.2778 N   0  0  0  0  0  0  0  0  0  0  0  0
    7.7958  -14.2237   24.5962 C   0  0  1  0  0  0  0  0  0  0  0  0
    6.8272  -13.6303   25.5933 C   0  0  0  0  0  0  0  0  0  0  0  0
    7.4380  -13.6836   27.2808 S   0  0  0  0  0  0  0  0  0  0  0  0
    8.2925  -15.5477   25.0919 C   0  0  0  0  0  0  0  0  0  0  0  0
    7.4439  -16.4265   25.3744 O   0  0  0  0  0  0  0  0  0  0  0  0
   12.7371  -14.6807   20.0689 N   0  0  0  0  0  0  0  0  0  0  0  0
   13.1934  -15.6924   20.9317 C   0  0  0  0  0  0  0  0  0  0  0  0
   14.4490  -15.7993   21.2759 N   0  0  0  0  0  0  0  0  0  0  0  0
   12.3173  -16.6643   21.4867 N   0  0  0  0  0  0  0  0  0  0  0  0
   12.6825  -17.3872   22.7123 C   0  0  0  0  0  0  0  0  0  0  0  0
   11.9360  -16.8387   23.9004 C   0  0  0  0  0  0  0  0  0  0  0  0
   10.9465  -17.7629   24.4954 C   0  0  0  0  0  0  0  0  0  0  0  0
   10.1511  -17.1803   25.6122 C   0  0  2  0  0  0  0  0  0  0  0  0
    9.6701  -15.8446   25.2539 N   0  0  0  0  0  0  0  0  0  0  0  0
   10.9946  -17.1114   26.8340 C   0  0  0  0  0  0  0  0  0  0  0  0
   11.4598  -18.1756   27.2841 O   0  0  0  0  0  0  0  0  0  0  0  0
   11.2317  -15.8917   27.4180 O   0  0  0  0  0  0  0  0  0  0  0  0
  2  1  1  0
  3  4  1  6
  3  2  1  0
  5  3  1  0
  5  6  1  1
  7  8  2  0
  7  5  1  0
  9  7  1  0
 10  9  1  0
 11 12  1  0
 10 11  1  1
 13 14  2  0
 13 10  1  0
 16 15  1  0
 17 16  2  0
 18 16  1  0
 19 18  1  0
 20 21  1  0
 20 19  1  0
 22 21  1  6
 22 23  1  0
 23 13  1  0
 24 22  1  0
 25 24  2  0
 26 24  1  0
M  END
$$$$
