HNN.pdb
     RDKit          3D

 27 27  0  0  1  0  0  0  0  0999 V2000
   10.1055  -16.2268   16.2299 N   0  0  0  0  0  0  0  0  0  0  0  0
    9.1690  -15.8295   17.2451 C   0  0  1  0  0  0  0  0  0  0  0  0
    7.7523  -16.0136   16.7406 C   0  0  0  0  0  0  0  0  0  0  0  0
    7.6003  -15.1711   15.5381 C   0  0  0  0  0  0  0  0  0  0  0  0
    7.9662  -13.8561   15.4314 C   0  0  0  0  0  0  0  0  0  0  0  0
    7.6681  -13.4467   14.1904 N   0  0  0  0  0  0  0  0  0  0  0  0
    7.1294  -14.4978   13.5533 C   0  0  0  0  0  0  0  0  0  0  0  0
    7.0856  -15.5553   14.3734 N   0  0  0  0  0  0  0  0  0  0  0  0
    9.3064  -16.6773   18.4724 C   0  0  0  0  0  0  0  0  0  0  0  0
    8.5010  -16.5846   19.4325 O   0  0  0  0  0  0  0  0  0  0  0  0
   10.8604  -21.6935   20.6752 N   0  0  0  0  0  0  0  0  0  0  0  0
   11.6637  -20.5351   20.5156 C   0  0  0  0  0  0  0  0  0  0  0  0
   12.6090  -20.3606   21.3229 O   0  0  0  0  0  0  0  0  0  0  0  0
   11.4264  -19.5578   19.4574 C   0  0  0  0  0  0  0  0  0  0  0  0
   10.4382  -18.4735   19.7993 C   0  0  2  0  0  0  0  0  0  0  0  0
   10.3575  -17.6263   18.6049 N   0  0  0  0  0  0  0  0  0  0  0  0
   11.0065  -17.6090   20.8652 C   0  0  0  0  0  0  0  0  0  0  0  0
   11.9957  -16.8343   20.6214 O   0  0  0  0  0  0  0  0  0  0  0  0
    8.0330  -14.5527   22.9032 N   0  0  0  0  0  0  0  0  0  0  0  0
    9.4019  -14.8831   22.7860 C   0  0  0  0  0  0  0  0  0  0  0  0
   10.0500  -14.4073   21.8320 O   0  0  0  0  0  0  0  0  0  0  0  0
   10.0404  -15.7567   23.7539 C   0  0  0  0  0  0  0  0  0  0  0  0
   11.0861  -16.6726   23.1753 C   0  0  2  0  0  0  0  0  0  0  0  0
   10.5144  -17.5741   22.1956 N   0  0  0  0  0  0  0  0  0  0  0  0
   11.8120  -17.4253   24.2413 C   0  0  0  0  0  0  0  0  0  0  0  0
   11.4492  -18.7044   24.6279 O   0  0  0  0  0  0  0  0  0  0  0  0
   12.8029  -16.9099   24.8402 O   0  0  0  0  0  0  0  0  0  0  0  0
  2  1  1  6
  2  9  1  0
  3  2  1  0
  3  4  1  0
  4  5  2  0
  4  8  1  0
  5  6  1  0
  6  7  1  0
  8  7  2  0
  9 10  2  0
 11 12  1  0
 12 14  1  0
 13 12  2  0
 15 14  1  6
 15 17  1  0
 16  9  1  0
 16 15  1  0
 17 18  2  0
 19 20  1  0
 20 22  1  0
 21 20  2  0
 23 22  1  1
 23 25  1  0
 24 17  1  0
 24 23  1  0
 25 27  2  0
 25 26  1  0
M  END
$$$$
