HNN.pdb
     RDKit          3D

 27 27  0  0  1  0  0  0  0  0999 V2000
    9.2396  -16.3499   17.4112 N   0  0  0  0  0  0  0  0  0  0  0  0
    9.0165  -15.1945   18.2364 C   0  0  1  0  0  0  0  0  0  0  0  0
    7.6088  -14.6749   18.0267 C   0  0  0  0  0  0  0  0  0  0  0  0
    7.4679  -14.3512   16.5936 C   0  0  0  0  0  0  0  0  0  0  0  0
    7.8858  -13.1957   15.9898 C   0  0  0  0  0  0  0  0  0  0  0  0
    7.5803  -13.2796   14.6874 N   0  0  0  0  0  0  0  0  0  0  0  0
    6.9858  -14.4685   14.5035 C   0  0  0  0  0  0  0  0  0  0  0  0
    6.9145  -15.1280   15.6666 N   0  0  0  0  0  0  0  0  0  0  0  0
    9.1423  -15.5330   19.6902 C   0  0  0  0  0  0  0  0  0  0  0  0
    8.9747  -14.6683   20.5864 O   0  0  0  0  0  0  0  0  0  0  0  0
    7.1388  -19.2896   20.6143 N   0  0  0  0  0  0  0  0  0  0  0  0
    7.7508  -18.5880   21.6847 C   0  0  0  0  0  0  0  0  0  0  0  0
    7.0031  -18.0494   22.5371 O   0  0  0  0  0  0  0  0  0  0  0  0
    9.2001  -18.4770   21.8206 C   0  0  0  0  0  0  0  0  0  0  0  0
    9.7662  -17.1115   21.5305 C   0  0  2  0  0  0  0  0  0  0  0  0
    9.4582  -16.8513   20.1205 N   0  0  0  0  0  0  0  0  0  0  0  0
   11.2483  -17.1664   21.6127 C   0  0  0  0  0  0  0  0  0  0  0  0
   11.8611  -18.2898   21.6388 O   0  0  0  0  0  0  0  0  0  0  0  0
   13.1107  -13.9140   19.1827 N   0  0  0  0  0  0  0  0  0  0  0  0
   13.8989  -14.9819   19.6677 C   0  0  0  0  0  0  0  0  0  0  0  0
   14.2897  -15.8486   18.8600 O   0  0  0  0  0  0  0  0  0  0  0  0
   14.2462  -15.0689   21.0747 C   0  0  0  0  0  0  0  0  0  0  0  0
   13.5101  -16.1396   21.8354 C   0  0  2  0  0  0  0  0  0  0  0  0
   12.0764  -16.0155   21.6674 N   0  0  0  0  0  0  0  0  0  0  0  0
   13.8847  -16.1468   23.2810 C   0  0  0  0  0  0  0  0  0  0  0  0
   15.1738  -16.4060   23.7146 O   0  0  0  0  0  0  0  0  0  0  0  0
   13.0198  -15.9119   24.1771 O   0  0  0  0  0  0  0  0  0  0  0  0
  2  1  1  6
  2  9  1  0
  3  2  1  0
  3  4  1  0
  4  5  2  0
  4  8  1  0
  5  6  1  0
  6  7  1  0
  8  7  2  0
  9 10  2  0
 11 12  1  0
 12 14  1  0
 13 12  2  0
 15 14  1  6
 15 17  1  0
 16  9  1  0
 16 15  1  0
 17 18  2  0
 19 20  1  0
 20 22  1  0
 21 20  2  0
 23 22  1  6
 23 25  1  0
 24 17  1  0
 24 23  1  0
 25 27  2  0
 25 26  1  0
M  END
$$$$
