HNN.pdb
     RDKit          3D

 27 27  0  0  1  0  0  0  0  0999 V2000
    7.7350  -16.5251   20.2323 N   0  0  0  0  0  0  0  0  0  0  0  0
    7.2285  -15.3969   20.9646 C   0  0  1  0  0  0  0  0  0  0  0  0
    6.2359  -14.6324   20.1127 C   0  0  0  0  0  0  0  0  0  0  0  0
    6.9960  -13.9831   19.0267 C   0  0  0  0  0  0  0  0  0  0  0  0
    8.3487  -14.0703   18.8343 C   0  0  0  0  0  0  0  0  0  0  0  0
    8.6563  -13.3461   17.7492 N   0  0  0  0  0  0  0  0  0  0  0  0
    7.5072  -12.8271   17.2898 C   0  0  0  0  0  0  0  0  0  0  0  0
    6.4884  -13.2138   18.0678 N   0  0  0  0  0  0  0  0  0  0  0  0
    6.4974  -15.8333   22.1970 C   0  0  0  0  0  0  0  0  0  0  0  0
    6.0408  -15.0033   23.0227 O   0  0  0  0  0  0  0  0  0  0  0  0
    3.2148  -18.2124   21.8149 N   0  0  0  0  0  0  0  0  0  0  0  0
    4.3606  -18.9620   22.1861 C   0  0  0  0  0  0  0  0  0  0  0  0
    4.8676  -19.7236   21.3266 O   0  0  0  0  0  0  0  0  0  0  0  0
    4.9565  -18.8740   23.5159 C   0  0  0  0  0  0  0  0  0  0  0  0
    5.7354  -17.6129   23.7846 C   0  0  2  0  0  0  0  0  0  0  0  0
    6.2879  -17.2098   22.4873 N   0  0  0  0  0  0  0  0  0  0  0  0
    6.9090  -17.9324   24.6373 C   0  0  0  0  0  0  0  0  0  0  0  0
    7.8042  -18.7548   24.2370 O   0  0  0  0  0  0  0  0  0  0  0  0
    8.6438  -20.2042   28.6693 N   0  0  0  0  0  0  0  0  0  0  0  0
    7.2994  -20.3016   28.2448 C   0  0  0  0  0  0  0  0  0  0  0  0
    6.6097  -21.2529   28.6639 O   0  0  0  0  0  0  0  0  0  0  0  0
    6.7330  -19.3166   27.3410 C   0  0  0  0  0  0  0  0  0  0  0  0
    7.6540  -18.1737   27.0051 C   0  0  2  0  0  0  0  0  0  0  0  0
    7.1244  -17.3700   25.9221 N   0  0  0  0  0  0  0  0  0  0  0  0
    9.0355  -18.6497   26.6973 C   0  0  0  0  0  0  0  0  0  0  0  0
    9.2817  -19.8306   26.0176 O   0  0  0  0  0  0  0  0  0  0  0  0
   10.0486  -17.9774   27.0544 O   0  0  0  0  0  0  0  0  0  0  0  0
  2  1  1  6
  2  9  1  0
  3  2  1  0
  3  4  1  0
  4  5  2  0
  4  8  1  0
  5  6  1  0
  6  7  1  0
  8  7  2  0
  9 10  2  0
 11 12  1  0
 12 14  1  0
 13 12  2  0
 15 14  1  6
 15 17  1  0
 16  9  1  0
 16 15  1  0
 17 18  2  0
 19 20  1  0
 20 22  1  0
 21 20  2  0
 23 22  1  6
 23 25  1  0
 24 17  1  0
 24 23  1  0
 25 27  2  0
 25 26  1  0
M  END
$$$$
