HNN.pdb
     RDKit          3D

 27 27  0  0  1  0  0  0  0  0999 V2000
   12.2949  -15.5858   14.7696 N   0  0  0  0  0  0  0  0  0  0  0  0
   12.1289  -16.5194   15.8495 C   0  0  1  0  0  0  0  0  0  0  0  0
   13.1618  -17.6225   15.7412 C   0  0  0  0  0  0  0  0  0  0  0  0
   12.7349  -18.5198   14.6498 C   0  0  0  0  0  0  0  0  0  0  0  0
   12.1247  -19.7354   14.8061 C   0  0  0  0  0  0  0  0  0  0  0  0
   11.8968  -20.2401   13.5855 N   0  0  0  0  0  0  0  0  0  0  0  0
   12.3616  -19.3439   12.7014 C   0  0  0  0  0  0  0  0  0  0  0  0
   12.8754  -18.2896   13.3474 N   0  0  0  0  0  0  0  0  0  0  0  0
   12.3384  -15.8573   17.1768 C   0  0  0  0  0  0  0  0  0  0  0  0
   12.8991  -14.7370   17.2747 O   0  0  0  0  0  0  0  0  0  0  0  0
   11.7139  -14.7073   22.3104 N   0  0  0  0  0  0  0  0  0  0  0  0
   10.7306  -15.5942   21.8014 C   0  0  0  0  0  0  0  0  0  0  0  0
    9.7592  -15.8815   22.5427 O   0  0  0  0  0  0  0  0  0  0  0  0
   10.8150  -16.1718   20.4633 C   0  0  0  0  0  0  0  0  0  0  0  0
   12.0120  -15.7417   19.6563 C   0  0  2  0  0  0  0  0  0  0  0  0
   11.9110  -16.4697   18.3873 N   0  0  0  0  0  0  0  0  0  0  0  0
   13.2495  -16.2429   20.3076 C   0  0  0  0  0  0  0  0  0  0  0  0
   13.2354  -17.3210   20.9972 O   0  0  0  0  0  0  0  0  0  0  0  0
   17.3933  -13.0824   20.0838 N   0  0  0  0  0  0  0  0  0  0  0  0
   16.7563  -14.2653   19.6457 C   0  0  0  0  0  0  0  0  0  0  0  0
   16.0320  -14.2114   18.6314 O   0  0  0  0  0  0  0  0  0  0  0  0
   16.9405  -15.5159   20.3599 C   0  0  0  0  0  0  0  0  0  0  0  0
   15.6706  -16.1239   20.8937 C   0  0  2  0  0  0  0  0  0  0  0  0
   14.5051  -15.5878   20.2202 N   0  0  0  0  0  0  0  0  0  0  0  0
   15.5601  -15.9612   22.3739 C   0  0  0  0  0  0  0  0  0  0  0  0
   16.5576  -16.3677   23.2440 O   0  0  0  0  0  0  0  0  0  0  0  0
   14.5307  -15.4364   22.8945 O   0  0  0  0  0  0  0  0  0  0  0  0
  2  1  1  6
  2  9  1  0
  3  2  1  0
  3  4  1  0
  4  5  2  0
  4  8  1  0
  5  6  1  0
  6  7  1  0
  8  7  2  0
  9 10  2  0
 11 12  1  0
 12 14  1  0
 13 12  2  0
 15 14  1  1
 15 17  1  0
 16  9  1  0
 16 15  1  0
 17 18  2  0
 19 20  1  0
 20 22  1  0
 21 20  2  0
 23 22  1  6
 23 25  1  0
 24 17  1  0
 24 23  1  0
 25 27  2  0
 25 26  1  0
M  END
$$$$
