HNN.pdb
     RDKit          3D

 27 27  0  0  1  0  0  0  0  0999 V2000
    9.3086  -15.8879   19.1422 N   0  0  0  0  0  0  0  0  0  0  0  0
    8.9953  -15.0014   20.2292 C   0  0  1  0  0  0  0  0  0  0  0  0
    7.7691  -14.1797   19.8877 C   0  0  0  0  0  0  0  0  0  0  0  0
    7.7196  -14.0527   18.4180 C   0  0  0  0  0  0  0  0  0  0  0  0
    8.2323  -13.0147   17.6872 C   0  0  0  0  0  0  0  0  0  0  0  0
    7.9889  -13.2645   16.3930 N   0  0  0  0  0  0  0  0  0  0  0  0
    7.3382  -14.4369   16.3391 C   0  0  0  0  0  0  0  0  0  0  0  0
    7.1708  -14.9233   17.5753 N   0  0  0  0  0  0  0  0  0  0  0  0
    8.6727  -15.7649   21.4769 C   0  0  0  0  0  0  0  0  0  0  0  0
    7.8821  -16.7416   21.4677 O   0  0  0  0  0  0  0  0  0  0  0  0
    9.6254  -19.1125   21.8090 N   0  0  0  0  0  0  0  0  0  0  0  0
    9.4585  -18.6730   23.1475 C   0  0  0  0  0  0  0  0  0  0  0  0
    8.7646  -19.3826   23.9161 O   0  0  0  0  0  0  0  0  0  0  0  0
   10.0606  -17.4407   23.6476 C   0  0  0  0  0  0  0  0  0  0  0  0
    9.0957  -16.3084   23.8839 C   0  0  2  0  0  0  0  0  0  0  0  0
    9.2484  -15.4163   22.7300 N   0  0  0  0  0  0  0  0  0  0  0  0
    9.5422  -15.5199   25.0609 C   0  0  0  0  0  0  0  0  0  0  0  0
   10.7220  -15.0259   25.1083 O   0  0  0  0  0  0  0  0  0  0  0  0
    6.0863  -13.0383   26.4248 N   0  0  0  0  0  0  0  0  0  0  0  0
    7.3893  -12.7299   26.8765 C   0  0  0  0  0  0  0  0  0  0  0  0
    7.9476  -11.7069   26.4311 O   0  0  0  0  0  0  0  0  0  0  0  0
    8.0637  -13.5842   27.8373 C   0  0  0  0  0  0  0  0  0  0  0  0
    9.1884  -14.4045   27.2633 C   0  0  2  0  0  0  0  0  0  0  0  0
    8.7233  -15.2598   26.1902 N   0  0  0  0  0  0  0  0  0  0  0  0
    9.8889  -15.1959   28.3182 C   0  0  0  0  0  0  0  0  0  0  0  0
   10.5569  -14.6007   29.3748 O   0  0  0  0  0  0  0  0  0  0  0  0
    9.8966  -16.4627   28.2819 O   0  0  0  0  0  0  0  0  0  0  0  0
  2  1  1  6
  2  9  1  0
  3  2  1  0
  3  4  1  0
  4  5  2  0
  4  8  1  0
  5  6  1  0
  6  7  1  0
  8  7  2  0
  9 10  2  0
 11 12  1  0
 12 14  1  0
 13 12  2  0
 15 14  1  6
 15 17  1  0
 16  9  1  0
 16 15  1  0
 17 18  2  0
 19 20  1  0
 20 22  1  0
 21 20  2  0
 23 22  1  1
 23 25  1  0
 24 17  1  0
 24 23  1  0
 25 27  2  0
 25 26  1  0
M  END
$$$$
