HNN.pdb
     RDKit          3D

 27 27  0  0  1  0  0  0  0  0999 V2000
    5.9473  -15.4254   20.7700 N   0  0  0  0  0  0  0  0  0  0  0  0
    7.2524  -15.1453   21.3026 C   0  0  1  0  0  0  0  0  0  0  0  0
    7.5898  -13.6824   21.0985 C   0  0  0  0  0  0  0  0  0  0  0  0
    7.7313  -13.4617   19.6460 C   0  0  0  0  0  0  0  0  0  0  0  0
    6.8343  -12.8068   18.8453 C   0  0  0  0  0  0  0  0  0  0  0  0
    7.3178  -12.8151   17.5952 N   0  0  0  0  0  0  0  0  0  0  0  0
    8.4911  -13.4653   17.6366 C   0  0  0  0  0  0  0  0  0  0  0  0
    8.7486  -13.8629   18.8890 N   0  0  0  0  0  0  0  0  0  0  0  0
    7.3033  -15.4009   22.7777 C   0  0  0  0  0  0  0  0  0  0  0  0
    6.4050  -14.9846   23.5514 O   0  0  0  0  0  0  0  0  0  0  0  0
    7.0663  -19.7783   26.0498 N   0  0  0  0  0  0  0  0  0  0  0  0
    6.8696  -18.3800   25.9134 C   0  0  0  0  0  0  0  0  0  0  0  0
    6.4529  -17.7455   26.9131 O   0  0  0  0  0  0  0  0  0  0  0  0
    7.1339  -17.6705   24.6652 C   0  0  0  0  0  0  0  0  0  0  0  0
    8.2431  -16.6534   24.7311 C   0  0  2  0  0  0  0  0  0  0  0  0
    8.3739  -16.1275   23.3683 N   0  0  0  0  0  0  0  0  0  0  0  0
    9.5266  -17.3440   25.0182 C   0  0  0  0  0  0  0  0  0  0  0  0
    9.8787  -18.3758   24.3479 O   0  0  0  0  0  0  0  0  0  0  0  0
    8.4601  -19.4688   29.5200 N   0  0  0  0  0  0  0  0  0  0  0  0
    9.2161  -18.2952   29.3008 C   0  0  0  0  0  0  0  0  0  0  0  0
    9.8982  -17.8416   30.2417 O   0  0  0  0  0  0  0  0  0  0  0  0
    9.1996  -17.6318   28.0095 C   0  0  0  0  0  0  0  0  0  0  0  0
   10.5204  -17.6376   27.2866 C   0  0  2  0  0  0  0  0  0  0  0  0
   10.4351  -16.9287   26.0259 N   0  0  0  0  0  0  0  0  0  0  0  0
   11.0368  -19.0250   27.0910 C   0  0  0  0  0  0  0  0  0  0  0  0
   10.3487  -19.9793   26.3611 O   0  0  0  0  0  0  0  0  0  0  0  0
   12.1427  -19.3834   27.5957 O   0  0  0  0  0  0  0  0  0  0  0  0
  2  1  1  1
  2  9  1  0
  3  2  1  0
  3  4  1  0
  4  5  2  0
  4  8  1  0
  5  6  1  0
  6  7  1  0
  8  7  2  0
  9 10  2  0
 11 12  1  0
 12 14  1  0
 13 12  2  0
 15 14  1  6
 15 17  1  0
 16  9  1  0
 16 15  1  0
 17 18  2  0
 19 20  1  0
 20 22  1  0
 21 20  2  0
 23 22  1  6
 23 25  1  0
 24 17  1  0
 24 23  1  0
 25 27  2  0
 25 26  1  0
M  END
$$$$
