HNN.pdb
     RDKit          3D

 27 27  0  0  1  0  0  0  0  0999 V2000
    9.0360  -15.9794   21.0461 N   0  0  0  0  0  0  0  0  0  0  0  0
    7.9986  -15.1193   21.5454 C   0  0  1  0  0  0  0  0  0  0  0  0
    6.8613  -15.0493   20.5468 C   0  0  0  0  0  0  0  0  0  0  0  0
    7.3495  -14.2949   19.3758 C   0  0  0  0  0  0  0  0  0  0  0  0
    8.6261  -13.8337   19.1970 C   0  0  0  0  0  0  0  0  0  0  0  0
    8.6722  -13.2010   18.0163 N   0  0  0  0  0  0  0  0  0  0  0  0
    7.4417  -13.2773   17.4862 C   0  0  0  0  0  0  0  0  0  0  0  0
    6.6287  -13.9455   18.3140 N   0  0  0  0  0  0  0  0  0  0  0  0
    7.4225  -15.6483   22.8230 C   0  0  0  0  0  0  0  0  0  0  0  0
    6.4756  -15.0679   23.4107 O   0  0  0  0  0  0  0  0  0  0  0  0
    6.9133  -18.6389   27.1993 N   0  0  0  0  0  0  0  0  0  0  0  0
    7.1127  -19.3822   26.0074 C   0  0  0  0  0  0  0  0  0  0  0  0
    6.9892  -20.6300   26.0662 O   0  0  0  0  0  0  0  0  0  0  0  0
    7.4511  -18.7479   24.7369 C   0  0  0  0  0  0  0  0  0  0  0  0
    7.4477  -17.2416   24.7540 C   0  0  2  0  0  0  0  0  0  0  0  0
    7.9241  -16.8336   23.4283 N   0  0  0  0  0  0  0  0  0  0  0  0
    8.4735  -16.7588   25.7137 C   0  0  0  0  0  0  0  0  0  0  0  0
    9.6663  -17.2219   25.6846 O   0  0  0  0  0  0  0  0  0  0  0  0
    8.4801  -12.9340   25.7874 N   0  0  0  0  0  0  0  0  0  0  0  0
    8.1643  -13.1317   27.1505 C   0  0  0  0  0  0  0  0  0  0  0  0
    7.1077  -12.6391   27.5948 O   0  0  0  0  0  0  0  0  0  0  0  0
    9.0496  -13.8911   28.0151 C   0  0  0  0  0  0  0  0  0  0  0  0
    9.2821  -15.3131   27.5780 C   0  0  2  0  0  0  0  0  0  0  0  0
    8.2214  -15.7777   26.7074 N   0  0  0  0  0  0  0  0  0  0  0  0
    9.4608  -16.2273   28.7451 C   0  0  0  0  0  0  0  0  0  0  0  0
    8.6799  -17.3550   28.9337 O   0  0  0  0  0  0  0  0  0  0  0  0
   10.3493  -15.9983   29.6193 O   0  0  0  0  0  0  0  0  0  0  0  0
  2  1  1  6
  2  9  1  0
  3  2  1  0
  3  4  1  0
  4  5  2  0
  4  8  1  0
  5  6  1  0
  6  7  1  0
  8  7  2  0
  9 10  2  0
 11 12  1  0
 12 14  1  0
 13 12  2  0
 15 14  1  6
 15 17  1  0
 16  9  1  0
 16 15  1  0
 17 18  2  0
 19 20  1  0
 20 22  1  0
 21 20  2  0
 23 22  1  1
 23 25  1  0
 24 17  1  0
 24 23  1  0
 25 27  2  0
 25 26  1  0
M  END
$$$$
