HNN.pdb
     RDKit          3D

 27 27  0  0  1  0  0  0  0  0999 V2000
   10.8700  -12.9510   18.6896 N   0  0  0  0  0  0  0  0  0  0  0  0
   10.6179  -14.3127   19.0741 C   0  0  1  0  0  0  0  0  0  0  0  0
    9.8938  -15.0382   17.9583 C   0  0  0  0  0  0  0  0  0  0  0  0
    8.6304  -14.3162   17.7111 C   0  0  0  0  0  0  0  0  0  0  0  0
    8.0554  -13.3998   18.5501 C   0  0  0  0  0  0  0  0  0  0  0  0
    6.9228  -12.9712   17.9755 N   0  0  0  0  0  0  0  0  0  0  0  0
    6.8122  -13.6179   16.8048 C   0  0  0  0  0  0  0  0  0  0  0  0
    7.8543  -14.4420   16.6383 N   0  0  0  0  0  0  0  0  0  0  0  0
   11.8967  -15.0544   19.3159 C   0  0  0  0  0  0  0  0  0  0  0  0
   11.9051  -16.2702   19.6333 O   0  0  0  0  0  0  0  0  0  0  0  0
   15.7735  -16.0752   16.8211 N   0  0  0  0  0  0  0  0  0  0  0  0
   15.5569  -14.7551   17.2936 C   0  0  0  0  0  0  0  0  0  0  0  0
   15.4309  -13.8406   16.4430 O   0  0  0  0  0  0  0  0  0  0  0  0
   15.4774  -14.4361   18.7159 C   0  0  0  0  0  0  0  0  0  0  0  0
   14.3932  -15.1578   19.4728 C   0  0  2  0  0  0  0  0  0  0  0  0
   13.1605  -14.4127   19.1970 N   0  0  0  0  0  0  0  0  0  0  0  0
   14.6313  -15.0112   20.9317 C   0  0  0  0  0  0  0  0  0  0  0  0
   15.1563  -13.9443   21.4050 O   0  0  0  0  0  0  0  0  0  0  0  0
   11.9452  -15.2323   22.8373 N   0  0  0  0  0  0  0  0  0  0  0  0
   12.2491  -16.1344   23.8817 C   0  0  0  0  0  0  0  0  0  0  0  0
   11.3085  -16.6198   24.5421 O   0  0  0  0  0  0  0  0  0  0  0  0
   13.6251  -16.4887   24.1799 C   0  0  0  0  0  0  0  0  0  0  0  0
   14.6462  -15.8390   23.2841 C   0  0  2  0  0  0  0  0  0  0  0  0
   14.3066  -16.0098   21.8860 N   0  0  0  0  0  0  0  0  0  0  0  0
   16.0256  -16.3353   23.5682 C   0  0  0  0  0  0  0  0  0  0  0  0
   16.7126  -17.1640   22.6974 O   0  0  0  0  0  0  0  0  0  0  0  0
   16.6259  -16.0096   24.6358 O   0  0  0  0  0  0  0  0  0  0  0  0
  2  1  1  6
  2  9  1  0
  3  2  1  0
  3  4  1  0
  4  5  2  0
  4  8  1  0
  5  6  1  0
  6  7  1  0
  8  7  2  0
  9 10  2  0
 11 12  1  0
 12 14  1  0
 13 12  2  0
 15 14  1  6
 15 17  1  0
 16  9  1  0
 16 15  1  0
 17 18  2  0
 19 20  1  0
 20 22  1  0
 21 20  2  0
 23 22  1  1
 23 25  1  0
 24 17  1  0
 24 23  1  0
 25 27  2  0
 25 26  1  0
M  END
$$$$
