HNN.pdb
     RDKit          3D

 27 27  0  0  1  0  0  0  0  0999 V2000
   10.5642  -13.6679   19.8707 N   0  0  0  0  0  0  0  0  0  0  0  0
    9.2970  -13.6811   20.5486 C   0  0  1  0  0  0  0  0  0  0  0  0
    8.3743  -14.6912   19.8976 C   0  0  0  0  0  0  0  0  0  0  0  0
    8.2065  -14.2894   18.4873 C   0  0  0  0  0  0  0  0  0  0  0  0
    8.9054  -13.3002   17.8489 C   0  0  0  0  0  0  0  0  0  0  0  0
    8.4670  -13.2391   16.5837 N   0  0  0  0  0  0  0  0  0  0  0  0
    7.5162  -14.1775   16.4562 C   0  0  0  0  0  0  0  0  0  0  0  0
    7.3530  -14.8229   17.6179 N   0  0  0  0  0  0  0  0  0  0  0  0
    9.4513  -14.0935   21.9804 C   0  0  0  0  0  0  0  0  0  0  0  0
   10.5145  -13.8849   22.6168 O   0  0  0  0  0  0  0  0  0  0  0  0
    5.8413  -12.4621   26.1649 N   0  0  0  0  0  0  0  0  0  0  0  0
    7.0635  -12.9089   25.5998 C   0  0  0  0  0  0  0  0  0  0  0  0
    8.1154  -12.7324   26.2616 O   0  0  0  0  0  0  0  0  0  0  0  0
    7.1310  -13.5571   24.2935 C   0  0  0  0  0  0  0  0  0  0  0  0
    8.2522  -14.5499   24.1302 C   0  0  2  0  0  0  0  0  0  0  0  0
    8.3983  -14.7413   22.6836 N   0  0  0  0  0  0  0  0  0  0  0  0
    7.8242  -15.8672   24.6669 C   0  0  0  0  0  0  0  0  0  0  0  0
    7.3040  -15.9611   25.8325 O   0  0  0  0  0  0  0  0  0  0  0  0
   12.5683  -17.8422   23.6595 N   0  0  0  0  0  0  0  0  0  0  0  0
   11.3869  -18.2672   23.0110 C   0  0  0  0  0  0  0  0  0  0  0  0
   11.3968  -19.3613   22.4118 O   0  0  0  0  0  0  0  0  0  0  0  0
   10.1879  -17.4489   23.0412 C   0  0  0  0  0  0  0  0  0  0  0  0
    9.1612  -17.8812   24.0542 C   0  0  2  0  0  0  0  0  0  0  0  0
    7.9536  -17.0869   23.9536 N   0  0  0  0  0  0  0  0  0  0  0  0
    9.7099  -17.8543   25.4427 C   0  0  0  0  0  0  0  0  0  0  0  0
    9.5642  -18.9145   26.3213 O   0  0  0  0  0  0  0  0  0  0  0  0
   10.3389  -16.8417   25.8729 O   0  0  0  0  0  0  0  0  0  0  0  0
  2  1  1  6
  2  9  1  0
  3  2  1  0
  3  4  1  0
  4  5  2  0
  4  8  1  0
  5  6  1  0
  6  7  1  0
  8  7  2  0
  9 10  2  0
 11 12  1  0
 12 14  1  0
 13 12  2  0
 15 14  1  6
 15 17  1  0
 16  9  1  0
 16 15  1  0
 17 18  2  0
 19 20  1  0
 20 22  1  0
 21 20  2  0
 23 22  1  6
 23 25  1  0
 24 17  1  0
 24 23  1  0
 25 27  2  0
 25 26  1  0
M  END
$$$$
