HNN.pdb
     RDKit          3D

 27 27  0  0  1  0  0  0  0  0999 V2000
    8.4077  -15.8108   18.1617 N   0  0  0  0  0  0  0  0  0  0  0  0
    9.4818  -14.8788   18.3695 C   0  0  1  0  0  0  0  0  0  0  0  0
    9.1211  -13.5342   17.7717 C   0  0  0  0  0  0  0  0  0  0  0  0
    8.8033  -13.7566   16.3476 C   0  0  0  0  0  0  0  0  0  0  0  0
    7.6069  -13.4794   15.7423 C   0  0  0  0  0  0  0  0  0  0  0  0
    7.7123  -13.8195   14.4501 N   0  0  0  0  0  0  0  0  0  0  0  0
    8.9544  -14.2960   14.2737 C   0  0  0  0  0  0  0  0  0  0  0  0
    9.6260  -14.2596   15.4315 N   0  0  0  0  0  0  0  0  0  0  0  0
    9.7296  -14.6525   19.8294 C   0  0  0  0  0  0  0  0  0  0  0  0
   10.5992  -13.8405   20.2336 O   0  0  0  0  0  0  0  0  0  0  0  0
    6.7979  -13.3155   22.5350 N   0  0  0  0  0  0  0  0  0  0  0  0
    6.8541  -14.7331   22.5312 C   0  0  0  0  0  0  0  0  0  0  0  0
    5.8470  -15.3593   22.1197 O   0  0  0  0  0  0  0  0  0  0  0  0
    8.0295  -15.4710   22.9839 C   0  0  0  0  0  0  0  0  0  0  0  0
    9.3039  -15.1586   22.2441 C   0  0  2  0  0  0  0  0  0  0  0  0
    8.9895  -15.3492   20.8244 N   0  0  0  0  0  0  0  0  0  0  0  0
   10.3255  -16.1869   22.5691 C   0  0  0  0  0  0  0  0  0  0  0  0
   10.1547  -17.4091   22.2297 O   0  0  0  0  0  0  0  0  0  0  0  0
   13.6161  -16.0047   21.4756 N   0  0  0  0  0  0  0  0  0  0  0  0
   14.3766  -16.0531   22.6656 C   0  0  0  0  0  0  0  0  0  0  0  0
   15.5579  -15.6532   22.6343 O   0  0  0  0  0  0  0  0  0  0  0  0
   13.7965  -16.5570   23.8974 C   0  0  0  0  0  0  0  0  0  0  0  0
   12.3551  -16.9773   23.7837 C   0  0  2  0  0  0  0  0  0  0  0  0
   11.5329  -15.9057   23.2593 N   0  0  0  0  0  0  0  0  0  0  0  0
   11.8217  -17.4785   25.0852 C   0  0  0  0  0  0  0  0  0  0  0  0
   10.7782  -16.8577   25.7506 O   0  0  0  0  0  0  0  0  0  0  0  0
   12.3148  -18.5079   25.6359 O   0  0  0  0  0  0  0  0  0  0  0  0
  2  1  1  1
  2  9  1  0
  3  2  1  0
  3  4  1  0
  4  5  2  0
  4  8  1  0
  5  6  1  0
  6  7  1  0
  8  7  2  0
  9 10  2  0
 11 12  1  0
 12 14  1  0
 13 12  2  0
 15 14  1  1
 15 17  1  0
 16  9  1  0
 16 15  1  0
 17 18  2  0
 19 20  1  0
 20 22  1  0
 21 20  2  0
 23 22  1  1
 23 25  1  0
 24 17  1  0
 24 23  1  0
 25 27  2  0
 25 26  1  0
M  END
$$$$
