HDH.pdb
     RDKit          3D

 29 30  0  0  1  0  0  0  0  0999 V2000
   21.3448  -11.6904  -19.9351 N   0  0  0  0  0  0  0  0  0  0  0  0
   22.3998  -10.7275  -19.9974 C   0  0  1  0  0  0  0  0  0  0  0  0
   22.9420  -10.7367  -21.4290 C   0  0  0  0  0  0  0  0  0  0  0  0
   23.5326  -12.0605  -21.7443 C   0  0  0  0  0  0  0  0  0  0  0  0
   23.9764  -13.0334  -20.8907 C   0  0  0  0  0  0  0  0  0  0  0  0
   24.4380  -14.0802  -21.5915 N   0  0  0  0  0  0  0  0  0  0  0  0
   24.2834  -13.7632  -22.9007 C   0  0  0  0  0  0  0  0  0  0  0  0
   23.7345  -12.5388  -22.9935 N   0  0  0  0  0  0  0  0  0  0  0  0
   21.8494   -9.3424  -19.7791 C   0  0  0  0  0  0  0  0  0  0  0  0
   22.5840   -8.3376  -19.7611 O   0  0  0  0  0  0  0  0  0  0  0  0
   20.4674   -9.1732  -19.5898 N   0  0  0  0  0  0  0  0  0  0  0  0
   19.8214   -7.9036  -19.3213 C   0  0  1  0  0  0  0  0  0  0  0  0
   18.5385   -7.8657  -20.0944 C   0  0  0  0  0  0  0  0  0  0  0  0
   18.7242   -7.8713  -21.5652 C   0  0  0  0  0  0  0  0  0  0  0  0
   19.7237   -7.3361  -22.0825 O   0  0  0  0  0  0  0  0  0  0  0  0
   19.7010   -7.6159  -17.8916 C   0  0  0  0  0  0  0  0  0  0  0  0
   19.0486   -6.6204  -17.4879 O   0  0  0  0  0  0  0  0  0  0  0  0
   17.7749   -8.4789  -22.3725 O   0  0  0  0  0  0  0  0  0  0  0  0
   20.2957   -8.4162  -16.8679 N   0  0  0  0  0  0  0  0  0  0  0  0
   20.2540   -8.0603  -15.4558 C   0  0  1  0  0  0  0  0  0  0  0  0
   20.3405   -9.2517  -14.5707 C   0  0  0  0  0  0  0  0  0  0  0  0
   19.2183  -10.1700  -14.8434 C   0  0  0  0  0  0  0  0  0  0  0  0
   18.1957   -9.8853  -15.7596 C   0  0  0  0  0  0  0  0  0  0  0  0
   17.3385  -10.9142  -15.7719 N   0  0  0  0  0  0  0  0  0  0  0  0
   17.7615  -11.8464  -14.9073 C   0  0  0  0  0  0  0  0  0  0  0  0
   18.8976  -11.3777  -14.3574 N   0  0  0  0  0  0  0  0  0  0  0  0
   21.2702   -7.0736  -15.1062 C   0  0  0  0  0  0  0  0  0  0  0  0
   21.3016   -6.5903  -13.7832 O   0  0  0  0  0  0  0  0  0  0  0  0
   22.1246   -6.6098  -15.8717 O   0  0  0  0  0  0  0  0  0  0  0  0
  2  1  1  6
  3  2  1  0
  4  3  1  0
  5  4  2  0
  6  7  1  0
  6  5  1  0
  7  8  2  0
  8  4  1  0
  9 10  2  0
  9  2  1  0
 11  9  1  0
 12 11  1  0
 12 13  1  1
 14 18  1  0
 14 13  1  0
 15 14  2  0
 16 12  1  0
 16 17  2  0
 19 16  1  0
 20 21  1  1
 20 19  1  0
 22 21  1  0
 22 26  1  0
 23 24  1  0
 23 22  2  0
 24 25  1  0
 25 26  2  0
 27 20  1  0
 28 27  1  0
 29 27  2  0
M  END
$$$$
