HDH.pdb
     RDKit          3D

 29 30  0  0  1  0  0  0  0  0999 V2000
   33.9451  -36.4101   -3.3932 N   0  0  0  0  0  0  0  0  0  0  0  0
   33.5179  -35.1964   -2.7700 C   0  0  1  0  0  0  0  0  0  0  0  0
   32.3375  -34.6573   -3.5824 C   0  0  0  0  0  0  0  0  0  0  0  0
   32.8295  -33.8692   -4.7390 C   0  0  0  0  0  0  0  0  0  0  0  0
   34.1127  -33.5261   -5.0669 C   0  0  0  0  0  0  0  0  0  0  0  0
   34.1180  -32.8061   -6.1989 N   0  0  0  0  0  0  0  0  0  0  0  0
   32.8241  -32.6945   -6.5883 C   0  0  0  0  0  0  0  0  0  0  0  0
   32.0428  -33.3389   -5.7033 N   0  0  0  0  0  0  0  0  0  0  0  0
   32.9694  -35.4850   -1.3970 C   0  0  0  0  0  0  0  0  0  0  0  0
   32.3235  -36.5201   -1.1506 O   0  0  0  0  0  0  0  0  0  0  0  0
   33.1902  -34.5627   -0.3602 N   0  0  0  0  0  0  0  0  0  0  0  0
   32.6924  -34.7092    0.9933 C   0  0  1  0  0  0  0  0  0  0  0  0
   33.8200  -34.4134    1.9346 C   0  0  0  0  0  0  0  0  0  0  0  0
   33.4631  -34.5677    3.3653 C   0  0  0  0  0  0  0  0  0  0  0  0
   32.9393  -35.6194    3.7806 O   0  0  0  0  0  0  0  0  0  0  0  0
   31.4611  -33.9557    1.2330 C   0  0  0  0  0  0  0  0  0  0  0  0
   31.3799  -32.7399    0.9249 O   0  0  0  0  0  0  0  0  0  0  0  0
   33.7156  -33.5300    4.2492 O   0  0  0  0  0  0  0  0  0  0  0  0
   30.2860  -34.5203    1.8183 N   0  0  0  0  0  0  0  0  0  0  0  0
   29.0994  -33.7361    2.1334 C   0  0  1  0  0  0  0  0  0  0  0  0
   27.8421  -34.4867    1.8766 C   0  0  0  0  0  0  0  0  0  0  0  0
   27.5321  -34.4804    0.4341 C   0  0  0  0  0  0  0  0  0  0  0  0
   28.3703  -33.9044   -0.5310 C   0  0  0  0  0  0  0  0  0  0  0  0
   27.8054  -34.0657   -1.7346 N   0  0  0  0  0  0  0  0  0  0  0  0
   26.6440  -34.7181   -1.5887 C   0  0  0  0  0  0  0  0  0  0  0  0
   26.4977  -34.9591   -0.2721 N   0  0  0  0  0  0  0  0  0  0  0  0
   29.1291  -33.2153    3.4959 C   0  0  0  0  0  0  0  0  0  0  0  0
   28.2064  -32.2094    3.8445 O   0  0  0  0  0  0  0  0  0  0  0  0
   29.8998  -33.5768    4.3940 O   0  0  0  0  0  0  0  0  0  0  0  0
  2  1  1  6
  3  2  1  0
  4  3  1  0
  5  4  2  0
  6  7  1  0
  6  5  1  0
  7  8  2  0
  8  4  1  0
  9 10  2  0
  9  2  1  0
 11  9  1  0
 12 11  1  0
 12 13  1  1
 14 18  1  0
 14 13  1  0
 15 14  2  0
 16 12  1  0
 16 17  2  0
 19 16  1  0
 20 21  1  1
 20 19  1  0
 22 21  1  0
 22 26  1  0
 23 24  1  0
 23 22  2  0
 24 25  1  0
 25 26  2  0
 27 20  1  0
 28 27  1  0
 29 27  2  0
M  END
$$$$
