HDH.pdb
     RDKit          3D

 29 30  0  0  1  0  0  0  0  0999 V2000
   18.0030  -10.2513  -14.7860 N   0  0  0  0  0  0  0  0  0  0  0  0
   16.9930   -9.7805  -13.8902 C   0  0  1  0  0  0  0  0  0  0  0  0
   16.8813  -10.7990  -12.7527 C   0  0  0  0  0  0  0  0  0  0  0  0
   16.3960  -12.0996  -13.2759 C   0  0  0  0  0  0  0  0  0  0  0  0
   17.0797  -13.2731  -13.4410 C   0  0  0  0  0  0  0  0  0  0  0  0
   16.2629  -14.2107  -13.9446 N   0  0  0  0  0  0  0  0  0  0  0  0
   15.0516  -13.6214  -14.0984 C   0  0  0  0  0  0  0  0  0  0  0  0
   15.1321  -12.3415  -13.6931 N   0  0  0  0  0  0  0  0  0  0  0  0
   17.4345   -8.4939  -13.2430 C   0  0  0  0  0  0  0  0  0  0  0  0
   18.2782   -8.4731  -12.3280 O   0  0  0  0  0  0  0  0  0  0  0  0
   16.8815   -7.2785  -13.6807 N   0  0  0  0  0  0  0  0  0  0  0  0
   17.2197   -5.9768  -13.1400 C   0  0  1  0  0  0  0  0  0  0  0  0
   17.4895   -5.0551  -14.2901 C   0  0  0  0  0  0  0  0  0  0  0  0
   18.7397   -5.3630  -15.0250 C   0  0  0  0  0  0  0  0  0  0  0  0
   18.7379   -5.4707  -16.2665 O   0  0  0  0  0  0  0  0  0  0  0  0
   16.2426   -5.4929  -12.1641 C   0  0  0  0  0  0  0  0  0  0  0  0
   15.0179   -5.4541  -12.4441 O   0  0  0  0  0  0  0  0  0  0  0  0
   19.9226   -5.5326  -14.3221 O   0  0  0  0  0  0  0  0  0  0  0  0
   16.5873   -5.0388  -10.8538 N   0  0  0  0  0  0  0  0  0  0  0  0
   15.6064   -4.5254   -9.9068 C   0  0  1  0  0  0  0  0  0  0  0  0
   15.7420   -5.1452   -8.5622 C   0  0  0  0  0  0  0  0  0  0  0  0
   15.3038   -6.5535   -8.6052 C   0  0  0  0  0  0  0  0  0  0  0  0
   14.3083   -7.0238   -9.4733 C   0  0  0  0  0  0  0  0  0  0  0  0
   14.1477   -8.3367   -9.2631 N   0  0  0  0  0  0  0  0  0  0  0  0
   14.9926   -8.7324   -8.3012 C   0  0  0  0  0  0  0  0  0  0  0  0
   15.6813   -7.6409   -7.9176 N   0  0  0  0  0  0  0  0  0  0  0  0
   15.6363   -3.0696   -9.8174 C   0  0  0  0  0  0  0  0  0  0  0  0
   14.6713   -2.4319   -9.0131 O   0  0  0  0  0  0  0  0  0  0  0  0
   16.4414   -2.3242  -10.3895 O   0  0  0  0  0  0  0  0  0  0  0  0
  2  1  1  6
  3  2  1  0
  4  3  1  0
  5  4  2  0
  6  7  1  0
  6  5  1  0
  7  8  2  0
  8  4  1  0
  9 10  2  0
  9  2  1  0
 11  9  1  0
 12 11  1  0
 12 13  1  6
 14 18  1  0
 14 13  1  0
 15 14  2  0
 16 12  1  0
 16 17  2  0
 19 16  1  0
 20 21  1  1
 20 19  1  0
 22 21  1  0
 22 26  1  0
 23 24  1  0
 23 22  2  0
 24 25  1  0
 25 26  2  0
 27 20  1  0
 28 27  1  0
 29 27  2  0
M  END
$$$$
