HDH.pdb
     RDKit          3D

 29 30  0  0  1  0  0  0  0  0999 V2000
   18.0527   -9.4470  -20.1075 N   0  0  0  0  0  0  0  0  0  0  0  0
   18.8697   -9.1285  -18.9783 C   0  0  1  0  0  0  0  0  0  0  0  0
   20.1719   -8.5265  -19.5126 C   0  0  0  0  0  0  0  0  0  0  0  0
   20.9678   -9.5657  -20.2108 C   0  0  0  0  0  0  0  0  0  0  0  0
   21.4536  -10.7503  -19.7283 C   0  0  0  0  0  0  0  0  0  0  0  0
   22.1228  -11.3970  -20.6947 N   0  0  0  0  0  0  0  0  0  0  0  0
   22.0578  -10.6113  -21.7978 C   0  0  0  0  0  0  0  0  0  0  0  0
   21.3576   -9.5011  -21.5046 N   0  0  0  0  0  0  0  0  0  0  0  0
   18.2226   -8.0403  -18.1622 C   0  0  0  0  0  0  0  0  0  0  0  0
   17.7482   -7.0168  -18.6884 O   0  0  0  0  0  0  0  0  0  0  0  0
   18.1494   -8.1788  -16.7658 N   0  0  0  0  0  0  0  0  0  0  0  0
   17.6416   -7.1653  -15.8623 C   0  0  1  0  0  0  0  0  0  0  0  0
   16.8147   -7.8505  -14.8175 C   0  0  0  0  0  0  0  0  0  0  0  0
   15.6312   -8.5600  -15.3595 C   0  0  0  0  0  0  0  0  0  0  0  0
   14.9783   -8.0781  -16.3053 O   0  0  0  0  0  0  0  0  0  0  0  0
   18.6887   -6.2795  -15.3523 C   0  0  0  0  0  0  0  0  0  0  0  0
   18.4156   -5.3615  -14.5383 O   0  0  0  0  0  0  0  0  0  0  0  0
   15.2479   -9.7724  -14.8072 O   0  0  0  0  0  0  0  0  0  0  0  0
   20.0647   -6.3802  -15.7245 N   0  0  0  0  0  0  0  0  0  0  0  0
   21.0868   -5.4582  -15.2474 C   0  0  1  0  0  0  0  0  0  0  0  0
   22.3857   -6.1366  -14.9956 C   0  0  0  0  0  0  0  0  0  0  0  0
   22.1687   -7.3854  -14.2403 C   0  0  0  0  0  0  0  0  0  0  0  0
   20.9030   -7.8261  -13.8285 C   0  0  0  0  0  0  0  0  0  0  0  0
   21.0500   -8.9831  -13.1702 N   0  0  0  0  0  0  0  0  0  0  0  0
   22.3499   -9.3070  -13.1396 C   0  0  0  0  0  0  0  0  0  0  0  0
   23.0081   -8.3295  -13.7910 N   0  0  0  0  0  0  0  0  0  0  0  0
   21.2572   -4.3156  -16.1383 C   0  0  0  0  0  0  0  0  0  0  0  0
   22.2165   -3.3421  -15.7966 O   0  0  0  0  0  0  0  0  0  0  0  0
   20.6301   -4.1125  -17.1855 O   0  0  0  0  0  0  0  0  0  0  0  0
  2  1  1  6
  3  2  1  0
  4  3  1  0
  5  4  2  0
  6  7  1  0
  6  5  1  0
  7  8  2  0
  8  4  1  0
  9 10  2  0
  9  2  1  0
 11  9  1  0
 12 11  1  0
 12 13  1  1
 14 18  1  0
 14 13  1  0
 15 14  2  0
 16 12  1  0
 16 17  2  0
 19 16  1  0
 20 21  1  6
 20 19  1  0
 22 21  1  0
 22 26  1  0
 23 24  1  0
 23 22  2  0
 24 25  1  0
 25 26  2  0
 27 20  1  0
 28 27  1  0
 29 27  2  0
M  END
$$$$
