HDH.pdb
     RDKit          3D

 29 30  0  0  1  0  0  0  0  0999 V2000
   23.7832  -20.7354  -17.3407 N   0  0  0  0  0  0  0  0  0  0  0  0
   24.3147  -19.7108  -16.4971 C   0  0  1  0  0  0  0  0  0  0  0  0
   23.1375  -18.8564  -16.0197 C   0  0  0  0  0  0  0  0  0  0  0  0
   22.6000  -18.0515  -17.1440 C   0  0  0  0  0  0  0  0  0  0  0  0
   21.5206  -18.3019  -17.9466 C   0  0  0  0  0  0  0  0  0  0  0  0
   21.3799  -17.3147  -18.8441 N   0  0  0  0  0  0  0  0  0  0  0  0
   22.3815  -16.4330  -18.6043 C   0  0  0  0  0  0  0  0  0  0  0  0
   23.1213  -16.8794  -17.5737 N   0  0  0  0  0  0  0  0  0  0  0  0
   24.9066  -20.3202  -15.2532 C   0  0  0  0  0  0  0  0  0  0  0  0
   24.3463  -21.2510  -14.6456 O   0  0  0  0  0  0  0  0  0  0  0  0
   26.1266  -19.8278  -14.7594 N   0  0  0  0  0  0  0  0  0  0  0  0
   26.7835  -20.3065  -13.5591 C   0  0  1  0  0  0  0  0  0  0  0  0
   28.2623  -20.2740  -13.7979 C   0  0  0  0  0  0  0  0  0  0  0  0
   29.0656  -20.7660  -12.6531 C   0  0  0  0  0  0  0  0  0  0  0  0
   28.5099  -21.2163  -11.6325 O   0  0  0  0  0  0  0  0  0  0  0  0
   26.3283  -19.6225  -12.3482 C   0  0  0  0  0  0  0  0  0  0  0  0
   25.6450  -18.5702  -12.4214 O   0  0  0  0  0  0  0  0  0  0  0  0
   30.4497  -20.7239  -12.7200 O   0  0  0  0  0  0  0  0  0  0  0  0
   26.6131  -20.0786  -11.0242 N   0  0  0  0  0  0  0  0  0  0  0  0
   25.5914  -20.2208   -9.9955 C   0  0  1  0  0  0  0  0  0  0  0  0
   24.4588  -21.0757  -10.4393 C   0  0  0  0  0  0  0  0  0  0  0  0
   23.4050  -21.0994   -9.4067 C   0  0  0  0  0  0  0  0  0  0  0  0
   23.4695  -20.3499   -8.2235 C   0  0  0  0  0  0  0  0  0  0  0  0
   22.3655  -20.5942   -7.5057 N   0  0  0  0  0  0  0  0  0  0  0  0
   21.5947  -21.4650   -8.1715 C   0  0  0  0  0  0  0  0  0  0  0  0
   22.2403  -21.7573   -9.3163 N   0  0  0  0  0  0  0  0  0  0  0  0
   26.1439  -20.6982   -8.7325 C   0  0  0  0  0  0  0  0  0  0  0  0
   26.8062  -21.9415   -8.7231 O   0  0  0  0  0  0  0  0  0  0  0  0
   26.0874  -20.1074   -7.6467 O   0  0  0  0  0  0  0  0  0  0  0  0
  2  1  1  6
  3  2  1  0
  4  3  1  0
  5  4  2  0
  6  7  1  0
  6  5  1  0
  7  8  2  0
  8  4  1  0
  9 10  2  0
  9  2  1  0
 11  9  1  0
 12 11  1  0
 12 13  1  6
 14 18  1  0
 14 13  1  0
 15 14  2  0
 16 12  1  0
 16 17  2  0
 19 16  1  0
 20 21  1  6
 20 19  1  0
 22 21  1  0
 22 26  1  0
 23 24  1  0
 23 22  2  0
 24 25  1  0
 25 26  2  0
 27 20  1  0
 28 27  1  0
 29 27  2  0
M  END
$$$$
