HDH.pdb
     RDKit          3D

 29 30  0  0  1  0  0  0  0  0999 V2000
   43.2824  -10.5304   -6.4908 N   0  0  0  0  0  0  0  0  0  0  0  0
   43.2083  -10.7445   -7.9025 C   0  0  1  0  0  0  0  0  0  0  0  0
   43.1099  -12.2551   -8.1303 C   0  0  0  0  0  0  0  0  0  0  0  0
   44.3999  -12.9081   -7.7984 C   0  0  0  0  0  0  0  0  0  0  0  0
   45.5348  -12.3579   -7.2680 C   0  0  0  0  0  0  0  0  0  0  0  0
   46.4762  -13.3029   -7.1237 N   0  0  0  0  0  0  0  0  0  0  0  0
   45.9283  -14.4608   -7.5681 C   0  0  0  0  0  0  0  0  0  0  0  0
   44.6696  -14.2216   -7.9771 N   0  0  0  0  0  0  0  0  0  0  0  0
   41.9284  -10.1661   -8.4469 C   0  0  0  0  0  0  0  0  0  0  0  0
   41.6279  -10.2513   -9.6519 O   0  0  0  0  0  0  0  0  0  0  0  0
   41.0439   -9.5102   -7.5741 N   0  0  0  0  0  0  0  0  0  0  0  0
   39.7953   -8.8930   -7.9760 C   0  0  1  0  0  0  0  0  0  0  0  0
   38.7037   -9.4596   -7.1203 C   0  0  0  0  0  0  0  0  0  0  0  0
   37.3484   -8.9787   -7.4807 C   0  0  0  0  0  0  0  0  0  0  0  0
   36.4681   -8.8444   -6.6088 O   0  0  0  0  0  0  0  0  0  0  0  0
   39.8677   -7.4320   -8.0149 C   0  0  0  0  0  0  0  0  0  0  0  0
   38.8465   -6.7432   -8.2648 O   0  0  0  0  0  0  0  0  0  0  0  0
   37.0587   -8.6758   -8.8021 O   0  0  0  0  0  0  0  0  0  0  0  0
   41.0660   -6.6900   -7.7797 N   0  0  0  0  0  0  0  0  0  0  0  0
   41.3159   -5.3782   -8.3621 C   0  0  1  0  0  0  0  0  0  0  0  0
   42.0034   -4.4617   -7.4145 C   0  0  0  0  0  0  0  0  0  0  0  0
   41.2240   -4.3420   -6.1674 C   0  0  0  0  0  0  0  0  0  0  0  0
   39.9993   -4.9922   -5.9595 C   0  0  0  0  0  0  0  0  0  0  0  0
   39.5544   -4.6780   -4.7360 N   0  0  0  0  0  0  0  0  0  0  0  0
   40.4349   -3.8568   -4.1478 C   0  0  0  0  0  0  0  0  0  0  0  0
   41.4353   -3.6665   -5.0286 N   0  0  0  0  0  0  0  0  0  0  0  0
   42.0408   -5.4651   -9.6252 C   0  0  0  0  0  0  0  0  0  0  0  0
   42.2840   -4.2737  -10.3366 O   0  0  0  0  0  0  0  0  0  0  0  0
   42.4719   -6.5023  -10.1441 O   0  0  0  0  0  0  0  0  0  0  0  0
  2  1  1  1
  3  2  1  0
  4  3  1  0
  5  4  2  0
  6  7  1  0
  6  5  1  0
  7  8  2  0
  8  4  1  0
  9 10  2  0
  9  2  1  0
 11  9  1  0
 12 11  1  0
 12 13  1  1
 14 18  1  0
 14 13  1  0
 15 14  2  0
 16 12  1  0
 16 17  2  0
 19 16  1  0
 20 21  1  1
 20 19  1  0
 22 21  1  0
 22 26  1  0
 23 24  1  0
 23 22  2  0
 24 25  1  0
 25 26  2  0
 27 20  1  0
 28 27  1  0
 29 27  2  0
M  END
$$$$
