NSE.pdb
     RDKit          3D

 24 23  0  0  1  0  0  0  0  0999 V2000
    7.1769  -17.8505   14.8147 N   0  0  0  0  0  0  0  0  0  0  0  0
    8.2225  -18.3854   15.6002 C   0  0  0  0  0  0  0  0  0  0  0  0
    8.4433  -19.6240   15.4567 O   0  0  0  0  0  0  0  0  0  0  0  0
    9.0055  -17.5609   16.5216 C   0  0  0  0  0  0  0  0  0  0  0  0
    8.4957  -16.1496   16.5358 C   0  0  2  0  0  0  0  0  0  0  0  0
    9.0582  -15.5065   15.3379 N   0  0  0  0  0  0  0  0  0  0  0  0
    9.1325  -15.3966   17.6758 C   0  0  0  0  0  0  0  0  0  0  0  0
   10.3644  -15.1820   17.7064 O   0  0  0  0  0  0  0  0  0  0  0  0
    6.9026  -14.4287   20.9167 O   0  0  0  0  0  0  0  0  0  0  0  0
    7.8537  -13.4755   20.6390 C   0  0  0  0  0  0  0  0  0  0  0  0
    8.9933  -14.2037   19.8978 C   0  0  2  0  0  0  0  0  0  0  0  0
    8.3778  -14.8888   18.7739 N   0  0  0  0  0  0  0  0  0  0  0  0
    9.5348  -15.2342   20.8170 C   0  0  0  0  0  0  0  0  0  0  0  0
    9.1341  -16.4482   20.7681 O   0  0  0  0  0  0  0  0  0  0  0  0
   10.5188  -14.9597   21.8031 N   0  0  0  0  0  0  0  0  0  0  0  0
   11.0302  -15.9856   22.7227 C   0  0  1  0  0  0  0  0  0  0  0  0
   12.4826  -15.8448   22.9481 C   0  0  0  0  0  0  0  0  0  0  0  0
   13.3638  -15.6823   21.7856 C   0  0  0  0  0  0  0  0  0  0  0  0
   14.7819  -15.5178   22.0691 C   0  0  0  0  0  0  0  0  0  0  0  0
   15.3489  -14.8826   22.9606 O   0  0  0  0  0  0  0  0  0  0  0  0
   10.1312  -16.1217   23.8600 C   0  0  0  0  0  0  0  0  0  0  0  0
    9.2372  -15.2244   24.0679 O   0  0  0  0  0  0  0  0  0  0  0  0
   15.6471  -16.2067   21.1638 O   0  0  0  0  0  0  0  0  0  0  0  0
   10.1333  -17.1589   24.7859 O   0  0  0  0  0  0  0  0  0  0  0  0
  2  1  1  0
  2  3  2  0
  4  2  1  0
  5  4  1  0
  5  6  1  6
  7  8  2  0
  7  5  1  0
  9 10  1  0
 11 10  1  1
 11 12  1  0
 12  7  1  0
 13 11  1  0
 13 15  1  0
 14 13  2  0
 16 15  1  0
 16 21  1  0
 16 17  1  1
 18 17  1  0
 19 23  1  0
 19 18  1  0
 20 19  2  0
 21 22  2  0
 21 24  1  0
M  END
$$$$
