NSE.pdb
     RDKit          3D

 24 23  0  0  1  0  0  0  0  0999 V2000
    7.3765  -17.0745   14.6593 N   0  0  0  0  0  0  0  0  0  0  0  0
    8.1905  -17.8955   15.4718 C   0  0  0  0  0  0  0  0  0  0  0  0
    8.0456  -19.1439   15.3165 O   0  0  0  0  0  0  0  0  0  0  0  0
    9.1449  -17.3403   16.4324 C   0  0  0  0  0  0  0  0  0  0  0  0
    8.9756  -15.8540   16.5510 C   0  0  2  0  0  0  0  0  0  0  0  0
   10.0342  -15.2607   15.7189 N   0  0  0  0  0  0  0  0  0  0  0  0
    9.3347  -15.4171   17.9482 C   0  0  0  0  0  0  0  0  0  0  0  0
   10.4964  -15.5489   18.3929 O   0  0  0  0  0  0  0  0  0  0  0  0
    6.4989  -14.6095   20.8222 O   0  0  0  0  0  0  0  0  0  0  0  0
    7.4881  -13.6595   20.7254 C   0  0  0  0  0  0  0  0  0  0  0  0
    8.7322  -14.3842   20.1730 C   0  0  2  0  0  0  0  0  0  0  0  0
    8.3836  -14.8333   18.8358 N   0  0  0  0  0  0  0  0  0  0  0  0
    8.9562  -15.5864   21.0123 C   0  0  0  0  0  0  0  0  0  0  0  0
    9.0546  -16.7522   20.4946 O   0  0  0  0  0  0  0  0  0  0  0  0
    9.0753  -15.5390   22.4264 N   0  0  0  0  0  0  0  0  0  0  0  0
   10.0802  -16.3154   23.1658 C   0  0  1  0  0  0  0  0  0  0  0  0
   11.4142  -16.2226   22.5398 C   0  0  0  0  0  0  0  0  0  0  0  0
   12.5497  -16.8779   23.1998 C   0  0  0  0  0  0  0  0  0  0  0  0
   13.8411  -16.7485   22.5410 C   0  0  0  0  0  0  0  0  0  0  0  0
   14.8714  -17.4135   22.6673 O   0  0  0  0  0  0  0  0  0  0  0  0
    9.9335  -16.0790   24.5950 C   0  0  0  0  0  0  0  0  0  0  0  0
   10.2591  -17.0036   25.4237 O   0  0  0  0  0  0  0  0  0  0  0  0
   13.9166  -15.6765   21.5988 O   0  0  0  0  0  0  0  0  0  0  0  0
    9.4595  -14.9141   25.1879 O   0  0  0  0  0  0  0  0  0  0  0  0
  2  1  1  0
  2  3  2  0
  4  2  1  0
  5  4  1  0
  5  6  1  6
  7  8  2  0
  7  5  1  0
  9 10  1  0
 11 10  1  1
 11 12  1  0
 12  7  1  0
 13 11  1  0
 13 15  1  0
 14 13  2  0
 16 15  1  0
 16 21  1  0
 16 17  1  6
 18 17  1  0
 19 23  1  0
 19 18  1  0
 20 19  2  0
 21 22  2  0
 21 24  1  0
M  END
$$$$
