NSE.pdb
     RDKit          3D

 24 23  0  0  1  0  0  0  0  0999 V2000
    6.2548  -21.0720   16.3995 N   0  0  0  0  0  0  0  0  0  0  0  0
    7.4723  -20.8527   17.0821 C   0  0  0  0  0  0  0  0  0  0  0  0
    8.5158  -20.8525   16.3646 O   0  0  0  0  0  0  0  0  0  0  0  0
    7.5271  -20.6362   18.5285 C   0  0  0  0  0  0  0  0  0  0  0  0
    6.1734  -20.8300   19.1464 C   0  0  2  0  0  0  0  0  0  0  0  0
    5.3271  -19.7541   18.6068 N   0  0  0  0  0  0  0  0  0  0  0  0
    6.2446  -20.5214   20.6200 C   0  0  0  0  0  0  0  0  0  0  0  0
    6.2874  -19.3427   21.0367 O   0  0  0  0  0  0  0  0  0  0  0  0
    4.6411  -22.8928   23.2970 O   0  0  0  0  0  0  0  0  0  0  0  0
    4.8645  -21.5622   23.5614 C   0  0  0  0  0  0  0  0  0  0  0  0
    6.2810  -21.2485   23.0386 C   0  0  2  0  0  0  0  0  0  0  0  0
    6.2659  -21.5420   21.6156 N   0  0  0  0  0  0  0  0  0  0  0  0
    7.2159  -22.1988   23.6888 C   0  0  0  0  0  0  0  0  0  0  0  0
    7.4066  -23.3734   23.2191 O   0  0  0  0  0  0  0  0  0  0  0  0
    7.9562  -21.8865   24.8595 N   0  0  0  0  0  0  0  0  0  0  0  0
    8.9406  -22.8063   25.4464 C   0  0  1  0  0  0  0  0  0  0  0  0
   10.3256  -22.3617   25.1929 C   0  0  0  0  0  0  0  0  0  0  0  0
   10.7608  -21.0684   25.7335 C   0  0  0  0  0  0  0  0  0  0  0  0
   12.1331  -20.6779   25.4457 C   0  0  0  0  0  0  0  0  0  0  0  0
   13.1656  -20.8531   26.0960 O   0  0  0  0  0  0  0  0  0  0  0  0
    8.5330  -23.1704   26.7960 C   0  0  0  0  0  0  0  0  0  0  0  0
    7.6066  -22.4988   27.3776 O   0  0  0  0  0  0  0  0  0  0  0  0
   12.2998  -19.9805   24.2094 O   0  0  0  0  0  0  0  0  0  0  0  0
    9.0579  -24.2082   27.5579 O   0  0  0  0  0  0  0  0  0  0  0  0
  2  1  1  0
  2  3  2  0
  4  2  1  0
  5  4  1  0
  5  6  1  6
  7  8  2  0
  7  5  1  0
  9 10  1  0
 11 10  1  1
 11 12  1  0
 12  7  1  0
 13 11  1  0
 13 15  1  0
 14 13  2  0
 16 15  1  0
 16 21  1  0
 16 17  1  1
 18 17  1  0
 19 23  1  0
 19 18  1  0
 20 19  2  0
 21 22  2  0
 21 24  1  0
M  END
$$$$
