NSE.pdb
     RDKit          3D

 24 23  0  0  1  0  0  0  0  0999 V2000
    8.0705  -13.6405   11.9547 N   0  0  0  0  0  0  0  0  0  0  0  0
    7.6156  -14.2204   13.1603 C   0  0  0  0  0  0  0  0  0  0  0  0
    6.8118  -15.1912   13.0377 O   0  0  0  0  0  0  0  0  0  0  0  0
    8.0469  -13.7330   14.4711 C   0  0  0  0  0  0  0  0  0  0  0  0
    8.7687  -14.8097   15.2271 C   0  0  2  0  0  0  0  0  0  0  0  0
    7.7509  -15.8186   15.5607 N   0  0  0  0  0  0  0  0  0  0  0  0
    9.1974  -14.2792   16.5713 C   0  0  0  0  0  0  0  0  0  0  0  0
   10.3257  -13.7657   16.7385 O   0  0  0  0  0  0  0  0  0  0  0  0
    7.1765  -15.2365   20.0752 O   0  0  0  0  0  0  0  0  0  0  0  0
    7.5446  -13.9188   19.9390 C   0  0  0  0  0  0  0  0  0  0  0  0
    8.7956  -13.9096   19.0374 C   0  0  2  0  0  0  0  0  0  0  0  0
    8.3523  -14.3289   17.7187 N   0  0  0  0  0  0  0  0  0  0  0  0
    9.7248  -14.9435   19.5547 C   0  0  0  0  0  0  0  0  0  0  0  0
    9.9145  -16.0429   18.9285 O   0  0  0  0  0  0  0  0  0  0  0  0
   10.4601  -14.7979   20.7605 N   0  0  0  0  0  0  0  0  0  0  0  0
   11.3848  -15.8267   21.2568 C   0  0  1  0  0  0  0  0  0  0  0  0
   12.6473  -15.8441   20.4914 C   0  0  0  0  0  0  0  0  0  0  0  0
   13.2108  -14.5690   20.0320 C   0  0  0  0  0  0  0  0  0  0  0  0
   14.4962  -14.6392   19.3530 C   0  0  0  0  0  0  0  0  0  0  0  0
   15.5591  -15.1531   19.7080 O   0  0  0  0  0  0  0  0  0  0  0  0
   11.4210  -15.7976   22.7121 C   0  0  0  0  0  0  0  0  0  0  0  0
   12.0944  -16.6893   23.3439 O   0  0  0  0  0  0  0  0  0  0  0  0
   14.5198  -14.0090   18.0705 O   0  0  0  0  0  0  0  0  0  0  0  0
   10.7801  -14.8729   23.5288 O   0  0  0  0  0  0  0  0  0  0  0  0
  2  1  1  0
  2  3  2  0
  4  2  1  0
  5  4  1  0
  5  6  1  1
  7  8  2  0
  7  5  1  0
  9 10  1  0
 11 10  1  1
 11 12  1  0
 12  7  1  0
 13 11  1  0
 13 15  1  0
 14 13  2  0
 16 15  1  0
 16 21  1  0
 16 17  1  6
 18 17  1  0
 19 23  1  0
 19 18  1  0
 20 19  2  0
 21 22  2  0
 21 24  1  0
M  END
$$$$
