NSE.pdb
     RDKit          3D

 24 23  0  0  1  0  0  0  0  0999 V2000
    9.3163  -19.5477   16.6536 N   0  0  0  0  0  0  0  0  0  0  0  0
   10.6325  -19.2788   17.0918 C   0  0  0  0  0  0  0  0  0  0  0  0
   11.5599  -19.6359   16.3070 O   0  0  0  0  0  0  0  0  0  0  0  0
   10.9098  -18.6257   18.3718 C   0  0  0  0  0  0  0  0  0  0  0  0
   10.2812  -17.2639   18.4206 C   0  0  2  0  0  0  0  0  0  0  0  0
   10.9894  -16.4576   17.4140 N   0  0  0  0  0  0  0  0  0  0  0  0
   10.6330  -16.5943   19.7243 C   0  0  0  0  0  0  0  0  0  0  0  0
   11.8205  -16.3451   20.0283 O   0  0  0  0  0  0  0  0  0  0  0  0
    7.9259  -16.3173   22.7931 O   0  0  0  0  0  0  0  0  0  0  0  0
    8.6473  -15.1643   22.5919 C   0  0  0  0  0  0  0  0  0  0  0  0
    9.9822  -15.5949   21.9508 C   0  0  2  0  0  0  0  0  0  0  0  0
    9.6452  -16.2083   20.6775 N   0  0  0  0  0  0  0  0  0  0  0  0
   10.5746  -16.6426   22.8175 C   0  0  0  0  0  0  0  0  0  0  0  0
   10.8775  -17.7968   22.3562 O   0  0  0  0  0  0  0  0  0  0  0  0
   10.8452  -16.4514   24.1981 N   0  0  0  0  0  0  0  0  0  0  0  0
   12.0871  -16.9106   24.8357 C   0  0  1  0  0  0  0  0  0  0  0  0
   13.2720  -16.6108   24.0073 C   0  0  0  0  0  0  0  0  0  0  0  0
   14.6034  -16.9136   24.5458 C   0  0  0  0  0  0  0  0  0  0  0  0
   15.7346  -16.5889   23.6895 C   0  0  0  0  0  0  0  0  0  0  0  0
   16.3946  -15.5517   23.5984 O   0  0  0  0  0  0  0  0  0  0  0  0
   12.0805  -16.5502   26.2465 C   0  0  0  0  0  0  0  0  0  0  0  0
   11.4755  -15.4821   26.6215 O   0  0  0  0  0  0  0  0  0  0  0  0
   16.1372  -17.6485   22.8188 O   0  0  0  0  0  0  0  0  0  0  0  0
   12.6823  -17.2640   27.2767 O   0  0  0  0  0  0  0  0  0  0  0  0
  2  1  1  0
  2  3  2  0
  4  2  1  0
  5  4  1  0
  5  6  1  6
  7  8  2  0
  7  5  1  0
  9 10  1  0
 11 10  1  1
 11 12  1  0
 12  7  1  0
 13 11  1  0
 13 15  1  0
 14 13  2  0
 16 15  1  0
 16 21  1  0
 16 17  1  6
 18 17  1  0
 19 23  1  0
 19 18  1  0
 20 19  2  0
 21 22  2  0
 21 24  1  0
M  END
$$$$
