NSE.pdb
     RDKit          3D

 24 23  0  0  1  0  0  0  0  0999 V2000
    7.1066  -13.4534   15.7320 N   0  0  0  0  0  0  0  0  0  0  0  0
    8.3035  -13.9765   16.2707 C   0  0  0  0  0  0  0  0  0  0  0  0
    8.9622  -14.7452   15.5100 O   0  0  0  0  0  0  0  0  0  0  0  0
    8.7578  -13.6499   17.6231 C   0  0  0  0  0  0  0  0  0  0  0  0
    9.0933  -14.8974   18.3867 C   0  0  2  0  0  0  0  0  0  0  0  0
    7.8255  -15.6281   18.5406 N   0  0  0  0  0  0  0  0  0  0  0  0
    9.4690  -14.5354   19.8008 C   0  0  0  0  0  0  0  0  0  0  0  0
   10.5648  -13.9928   20.0644 O   0  0  0  0  0  0  0  0  0  0  0  0
    7.1123  -15.7494   22.9541 O   0  0  0  0  0  0  0  0  0  0  0  0
    7.7337  -14.5354   23.1284 C   0  0  0  0  0  0  0  0  0  0  0  0
    9.0250  -14.5849   22.2868 C   0  0  2  0  0  0  0  0  0  0  0  0
    8.6078  -14.7855   20.9094 N   0  0  0  0  0  0  0  0  0  0  0  0
    9.7866  -15.7851   22.7104 C   0  0  0  0  0  0  0  0  0  0  0  0
   10.0909  -16.7092   21.8797 O   0  0  0  0  0  0  0  0  0  0  0  0
   10.2273  -15.9985   24.0432 N   0  0  0  0  0  0  0  0  0  0  0  0
   11.0777  -17.1340   24.4269 C   0  0  1  0  0  0  0  0  0  0  0  0
   12.2838  -17.2263   23.5802 C   0  0  0  0  0  0  0  0  0  0  0  0
   13.2239  -16.0992   23.5673 C   0  0  0  0  0  0  0  0  0  0  0  0
   14.4648  -16.3027   22.8345 C   0  0  0  0  0  0  0  0  0  0  0  0
   14.8795  -17.2917   22.2266 O   0  0  0  0  0  0  0  0  0  0  0  0
   11.2051  -17.1880   25.8763 C   0  0  0  0  0  0  0  0  0  0  0  0
   11.9098  -18.1169   26.4131 O   0  0  0  0  0  0  0  0  0  0  0  0
   15.3349  -15.1688   22.8235 O   0  0  0  0  0  0  0  0  0  0  0  0
   10.6236  -16.3086   26.7827 O   0  0  0  0  0  0  0  0  0  0  0  0
  2  1  1  0
  2  3  2  0
  4  2  1  0
  5  4  1  0
  5  6  1  1
  7  8  2  0
  7  5  1  0
  9 10  1  0
 11 10  1  1
 11 12  1  0
 12  7  1  0
 13 11  1  0
 13 15  1  0
 14 13  2  0
 16 15  1  0
 16 21  1  0
 16 17  1  6
 18 17  1  0
 19 23  1  0
 19 18  1  0
 20 19  2  0
 21 22  2  0
 21 24  1  0
M  END
$$$$
