LSY.pdb
     RDKit          3D

 27 27  0  0  1  0  0  0  0  0999 V2000
   21.5132  -13.9423  -18.3376 C   0  0  0  0  0  0  0  0  0  0  0  0
   20.2513  -13.3598  -18.8683 C   0  0  1  0  0  0  0  0  0  0  0  0
   19.1461  -14.3899  -19.0059 C   0  0  0  0  0  0  0  0  0  0  0  0
   19.7406  -12.2761  -17.9764 C   0  0  0  0  0  0  0  0  0  0  0  0
   20.4136  -10.9721  -18.2550 C   0  0  2  0  0  0  0  0  0  0  0  0
   21.8403  -11.1212  -18.1232 N   0  0  0  0  0  0  0  0  0  0  0  0
   19.8564   -9.9577  -17.3297 C   0  0  0  0  0  0  0  0  0  0  0  0
   18.6009  -10.0114  -17.0881 O   0  0  0  0  0  0  0  0  0  0  0  0
   20.3676   -9.0796  -13.6997 O   0  0  0  0  0  0  0  0  0  0  0  0
   19.4652   -8.6801  -14.6582 C   0  0  0  0  0  0  0  0  0  0  0  0
   20.1209   -7.9991  -15.8371 C   0  0  2  0  0  0  0  0  0  0  0  0
   20.6803   -8.9717  -16.7401 N   0  0  0  0  0  0  0  0  0  0  0  0
   21.1423   -7.0214  -15.4348 C   0  0  0  0  0  0  0  0  0  0  0  0
   22.3530   -7.3430  -15.5452 O   0  0  0  0  0  0  0  0  0  0  0  0
   21.6567   -3.2461  -20.6516 O   0  0  0  0  0  0  0  0  0  0  0  0
   21.6253   -3.2818  -19.2647 C   0  0  0  0  0  0  0  0  0  0  0  0
   22.8028   -3.1015  -18.5642 C   0  0  0  0  0  0  0  0  0  0  0  0
   22.8214   -3.1285  -17.1910 C   0  0  0  0  0  0  0  0  0  0  0  0
   21.6253   -3.3424  -16.5035 C   0  0  0  0  0  0  0  0  0  0  0  0
   21.5869   -3.4071  -15.0269 C   0  0  0  0  0  0  0  0  0  0  0  0
   21.9014   -4.7749  -14.5361 C   0  0  2  0  0  0  0  0  0  0  0  0
   20.8700   -5.7370  -14.9292 N   0  0  0  0  0  0  0  0  0  0  0  0
   22.1074   -4.8497  -13.0872 C   0  0  0  0  0  0  0  0  0  0  0  0
   23.0552   -4.0846  -12.4513 O   0  0  0  0  0  0  0  0  0  0  0  0
   20.4490   -3.5223  -17.2200 C   0  0  0  0  0  0  0  0  0  0  0  0
   20.4339   -3.4946  -18.5957 C   0  0  0  0  0  0  0  0  0  0  0  0
   21.4077   -5.6294  -12.4053 O   0  0  0  0  0  0  0  0  0  0  0  0
  2  1  1  1
  2  4  1  0
  2  3  1  0
  5  4  1  0
  5  6  1  1
  7  5  1  0
  8  7  2  0
  9 10  1  0
 11 10  1  1
 11 12  1  0
 12  7  1  0
 13 22  1  0
 13 11  1  0
 14 13  2  0
 16 15  1  0
 17 16  2  0
 18 17  1  0
 19 25  1  0
 19 18  2  0
 21 20  1  1
 20 19  1  0
 21 23  1  0
 21 22  1  0
 23 24  1  0
 25 26  2  0
 26 16  1  0
 27 23  2  0
M  END
$$$$
