LSY.pdb
     RDKit          3D

 27 27  0  0  1  0  0  0  0  0999 V2000
   18.4229  -18.3007  -11.6206 C   0  0  0  0  0  0  0  0  0  0  0  0
   19.1835  -19.0006  -12.6908 C   0  0  1  0  0  0  0  0  0  0  0  0
   20.1049  -18.0693  -13.4556 C   0  0  0  0  0  0  0  0  0  0  0  0
   20.0275  -20.0951  -12.1249 C   0  0  0  0  0  0  0  0  0  0  0  0
   20.9195  -20.6939  -13.1625 C   0  0  2  0  0  0  0  0  0  0  0  0
   20.1672  -21.6058  -13.9856 N   0  0  0  0  0  0  0  0  0  0  0  0
   22.0553  -21.3496  -12.4728 C   0  0  0  0  0  0  0  0  0  0  0  0
   21.8090  -22.4332  -11.8381 O   0  0  0  0  0  0  0  0  0  0  0  0
   26.0621  -20.3147  -13.2730 O   0  0  0  0  0  0  0  0  0  0  0  0
   25.6359  -21.5577  -12.8656 C   0  0  0  0  0  0  0  0  0  0  0  0
   24.4636  -21.4956  -11.9140 C   0  0  2  0  0  0  0  0  0  0  0  0
   23.3563  -20.7982  -12.5155 N   0  0  0  0  0  0  0  0  0  0  0  0
   24.8116  -20.8918  -10.6196 C   0  0  0  0  0  0  0  0  0  0  0  0
   24.2754  -19.7980  -10.3076 O   0  0  0  0  0  0  0  0  0  0  0  0
   29.1882  -18.7422   -3.3188 O   0  0  0  0  0  0  0  0  0  0  0  0
   28.6980  -19.4461   -4.4097 C   0  0  0  0  0  0  0  0  0  0  0  0
   29.3058  -19.2815   -5.6397 C   0  0  0  0  0  0  0  0  0  0  0  0
   28.8561  -19.9569   -6.7481 C   0  0  0  0  0  0  0  0  0  0  0  0
   27.7670  -20.8204   -6.6169 C   0  0  0  0  0  0  0  0  0  0  0  0
   27.2224  -21.5549   -7.7789 C   0  0  0  0  0  0  0  0  0  0  0  0
   26.2831  -20.7096   -8.5624 C   0  0  2  0  0  0  0  0  0  0  0  0
   25.7088  -21.4475   -9.6892 N   0  0  0  0  0  0  0  0  0  0  0  0
   26.8781  -19.4631   -9.0518 C   0  0  0  0  0  0  0  0  0  0  0  0
   26.6392  -18.2578   -8.4369 O   0  0  0  0  0  0  0  0  0  0  0  0
   27.1653  -20.9763   -5.3747 C   0  0  0  0  0  0  0  0  0  0  0  0
   27.6184  -20.2982   -4.2664 C   0  0  0  0  0  0  0  0  0  0  0  0
   27.6220  -19.4887  -10.0560 O   0  0  0  0  0  0  0  0  0  0  0  0
  2  1  1  1
  2  4  1  0
  2  3  1  0
  5  4  1  0
  5  6  1  1
  7  5  1  0
  8  7  2  0
  9 10  1  0
 11 10  1  6
 11 12  1  0
 12  7  1  0
 13 22  1  0
 13 11  1  0
 14 13  2  0
 16 15  1  0
 17 16  2  0
 18 17  1  0
 19 25  1  0
 19 18  2  0
 21 20  1  6
 20 19  1  0
 21 23  1  0
 21 22  1  0
 23 24  1  0
 25 26  2  0
 26 16  1  0
 27 23  2  0
M  END
$$$$
