LSY.pdb
     RDKit          3D

 27 27  0  0  1  0  0  0  0  0999 V2000
   18.0738  -12.1499  -21.2703 C   0  0  0  0  0  0  0  0  0  0  0  0
   19.1615  -12.7047  -20.4203 C   0  0  1  0  0  0  0  0  0  0  0  0
   20.5295  -12.5690  -21.0616 C   0  0  0  0  0  0  0  0  0  0  0  0
   19.2193  -12.0120  -19.0984 C   0  0  0  0  0  0  0  0  0  0  0  0
   20.3442  -12.5228  -18.2589 C   0  0  2  0  0  0  0  0  0  0  0  0
   20.0561  -13.8644  -17.8206 N   0  0  0  0  0  0  0  0  0  0  0  0
   20.5427  -11.5826  -17.1309 C   0  0  0  0  0  0  0  0  0  0  0  0
   19.6621  -11.5868  -16.2024 O   0  0  0  0  0  0  0  0  0  0  0  0
   24.2503  -10.2627  -15.9066 O   0  0  0  0  0  0  0  0  0  0  0  0
   23.0918  -10.3131  -15.1664 C   0  0  0  0  0  0  0  0  0  0  0  0
   21.8759   -9.8657  -15.9442 C   0  0  2  0  0  0  0  0  0  0  0  0
   21.6598  -10.7174  -17.0852 N   0  0  0  0  0  0  0  0  0  0  0  0
   21.9512   -8.4572  -16.3588 C   0  0  0  0  0  0  0  0  0  0  0  0
   22.5087   -8.1859  -17.4528 O   0  0  0  0  0  0  0  0  0  0  0  0
   21.0569    0.0648  -17.7419 O   0  0  0  0  0  0  0  0  0  0  0  0
   20.8668   -1.2633  -17.3872 C   0  0  0  0  0  0  0  0  0  0  0  0
   20.6656   -1.5779  -16.0567 C   0  0  0  0  0  0  0  0  0  0  0  0
   20.4728   -2.8781  -15.6576 C   0  0  0  0  0  0  0  0  0  0  0  0
   20.4826   -3.8887  -16.6208 C   0  0  0  0  0  0  0  0  0  0  0  0
   20.3060   -5.3087  -16.2486 C   0  0  0  0  0  0  0  0  0  0  0  0
   21.6140   -5.9699  -15.9982 C   0  0  2  0  0  0  0  0  0  0  0  0
   21.4424   -7.3738  -15.6194 N   0  0  0  0  0  0  0  0  0  0  0  0
   22.4349   -5.2926  -14.9909 C   0  0  0  0  0  0  0  0  0  0  0  0
   22.3195   -5.5797  -13.6522 O   0  0  0  0  0  0  0  0  0  0  0  0
   20.6862   -3.5585  -17.9545 C   0  0  0  0  0  0  0  0  0  0  0  0
   20.8788   -2.2549  -18.3509 C   0  0  0  0  0  0  0  0  0  0  0  0
   23.2627   -4.4281  -15.3512 O   0  0  0  0  0  0  0  0  0  0  0  0
  2  1  1  6
  2  4  1  0
  2  3  1  0
  5  4  1  0
  5  6  1  1
  7  5  1  0
  8  7  2  0
  9 10  1  0
 11 10  1  6
 11 12  1  0
 12  7  1  0
 13 22  1  0
 13 11  1  0
 14 13  2  0
 16 15  1  0
 17 16  2  0
 18 17  1  0
 19 25  1  0
 19 18  2  0
 21 20  1  1
 20 19  1  0
 21 23  1  0
 21 22  1  0
 23 24  1  0
 25 26  2  0
 26 16  1  0
 27 23  2  0
M  END
$$$$
