LSY.pdb
     RDKit          3D

 27 27  0  0  1  0  0  0  0  0999 V2000
   30.9359  -21.7837  -19.6044 C   0  0  0  0  0  0  0  0  0  0  0  0
   29.7807  -22.4333  -18.9283 C   0  0  1  0  0  0  0  0  0  0  0  0
   30.0948  -23.8423  -18.4623 C   0  0  0  0  0  0  0  0  0  0  0  0
   29.3496  -21.6540  -17.7294 C   0  0  0  0  0  0  0  0  0  0  0  0
   28.2393  -22.3366  -17.0001 C   0  0  2  0  0  0  0  0  0  0  0  0
   27.1276  -22.5486  -17.8913 N   0  0  0  0  0  0  0  0  0  0  0  0
   27.8805  -21.5086  -15.8248 C   0  0  0  0  0  0  0  0  0  0  0  0
   28.8152  -21.2314  -14.9958 O   0  0  0  0  0  0  0  0  0  0  0  0
   25.1835  -18.5734  -15.9554 O   0  0  0  0  0  0  0  0  0  0  0  0
   26.1262  -18.7495  -14.9691 C   0  0  0  0  0  0  0  0  0  0  0  0
   26.2445  -20.1867  -14.5173 C   0  0  2  0  0  0  0  0  0  0  0  0
   26.5591  -21.0457  -15.6297 N   0  0  0  0  0  0  0  0  0  0  0  0
   25.0423  -20.6655  -13.8197 C   0  0  0  0  0  0  0  0  0  0  0  0
   24.2351  -21.3932  -14.4523 O   0  0  0  0  0  0  0  0  0  0  0  0
   18.5727  -21.7333   -7.9253 O   0  0  0  0  0  0  0  0  0  0  0  0
   19.7588  -21.3728   -8.5492 C   0  0  0  0  0  0  0  0  0  0  0  0
   20.7780  -22.3019   -8.6359 C   0  0  0  0  0  0  0  0  0  0  0  0
   21.9698  -21.9912   -9.2443 C   0  0  0  0  0  0  0  0  0  0  0  0
   22.1418  -20.7134   -9.7796 C   0  0  0  0  0  0  0  0  0  0  0  0
   23.4110  -20.3128  -10.4236 C   0  0  0  0  0  0  0  0  0  0  0  0
   23.4294  -20.6853  -11.8629 C   0  0  2  0  0  0  0  0  0  0  0  0
   24.7181  -20.3707  -12.4828 N   0  0  0  0  0  0  0  0  0  0  0  0
   22.3526  -20.0726  -12.6454 C   0  0  0  0  0  0  0  0  0  0  0  0
   21.1612  -20.7204  -12.8669 O   0  0  0  0  0  0  0  0  0  0  0  0
   21.1091  -19.7892   -9.6854 C   0  0  0  0  0  0  0  0  0  0  0  0
   19.9165  -20.1037   -9.0753 C   0  0  0  0  0  0  0  0  0  0  0  0
   22.5155  -18.9317  -13.1293 O   0  0  0  0  0  0  0  0  0  0  0  0
  2  1  1  1
  2  4  1  0
  2  3  1  0
  5  4  1  0
  5  6  1  6
  7  5  1  0
  8  7  2  0
  9 10  1  0
 11 10  1  6
 11 12  1  0
 12  7  1  0
 13 22  1  0
 13 11  1  0
 14 13  2  0
 16 15  1  0
 17 16  2  0
 18 17  1  0
 19 25  1  0
 19 18  2  0
 21 20  1  1
 20 19  1  0
 21 23  1  0
 21 22  1  0
 23 24  1  0
 25 26  2  0
 26 16  1  0
 27 23  2  0
M  END
$$$$
