LSY.pdb
     RDKit          3D

 27 27  0  0  1  0  0  0  0  0999 V2000
   28.5877  -21.3369  -17.8640 C   0  0  0  0  0  0  0  0  0  0  0  0
   27.7965  -21.7207  -16.6639 C   0  0  1  0  0  0  0  0  0  0  0  0
   28.5565  -22.6511  -15.7375 C   0  0  0  0  0  0  0  0  0  0  0  0
   27.4085  -20.5188  -15.8668 C   0  0  0  0  0  0  0  0  0  0  0  0
   26.7187  -19.4982  -16.7114 C   0  0  2  0  0  0  0  0  0  0  0  0
   27.5957  -18.3779  -16.9371 N   0  0  0  0  0  0  0  0  0  0  0  0
   25.4595  -19.1115  -16.0328 C   0  0  0  0  0  0  0  0  0  0  0  0
   25.5002  -18.0946  -15.2569 O   0  0  0  0  0  0  0  0  0  0  0  0
   21.6974  -20.6592  -17.1972 O   0  0  0  0  0  0  0  0  0  0  0  0
   21.9119  -19.4106  -16.6611 C   0  0  0  0  0  0  0  0  0  0  0  0
   23.0295  -19.3904  -15.6442 C   0  0  2  0  0  0  0  0  0  0  0  0
   24.2640  -19.8382  -16.2357 N   0  0  0  0  0  0  0  0  0  0  0  0
   22.7194  -20.1759  -14.4408 C   0  0  0  0  0  0  0  0  0  0  0  0
   23.2173  -21.3256  -14.3337 O   0  0  0  0  0  0  0  0  0  0  0  0
   20.1188  -22.9215   -6.5504 O   0  0  0  0  0  0  0  0  0  0  0  0
   20.4095  -22.1243   -7.6485 C   0  0  0  0  0  0  0  0  0  0  0  0
   19.4023  -21.8329   -8.5487 C   0  0  0  0  0  0  0  0  0  0  0  0
   19.6421  -21.0481   -9.6503 C   0  0  0  0  0  0  0  0  0  0  0  0
   20.9277  -20.5427   -9.8525 C   0  0  0  0  0  0  0  0  0  0  0  0
   21.2521  -19.7135  -11.0329 C   0  0  0  0  0  0  0  0  0  0  0  0
   21.5563  -20.5558  -12.2197 C   0  0  2  0  0  0  0  0  0  0  0  0
   21.8990  -19.7382  -13.3851 N   0  0  0  0  0  0  0  0  0  0  0  0
   20.4795  -21.4829  -12.5776 C   0  0  0  0  0  0  0  0  0  0  0  0
   20.4676  -22.7832  -12.1334 O   0  0  0  0  0  0  0  0  0  0  0  0
   21.9307  -20.8436   -8.9399 C   0  0  0  0  0  0  0  0  0  0  0  0
   21.6870  -21.6300   -7.8374 C   0  0  0  0  0  0  0  0  0  0  0  0
   19.5446  -21.0885  -13.3077 O   0  0  0  0  0  0  0  0  0  0  0  0
  2  1  1  6
  2  4  1  0
  2  3  1  0
  5  4  1  0
  5  6  1  1
  7  5  1  0
  8  7  2  0
  9 10  1  0
 11 10  1  6
 11 12  1  0
 12  7  1  0
 13 22  1  0
 13 11  1  0
 14 13  2  0
 16 15  1  0
 17 16  2  0
 18 17  1  0
 19 25  1  0
 19 18  2  0
 21 20  1  1
 20 19  1  0
 21 23  1  0
 21 22  1  0
 23 24  1  0
 25 26  2  0
 26 16  1  0
 27 23  2  0
M  END
$$$$
