LSY.pdb
     RDKit          3D

 27 27  0  0  1  0  0  0  0  0999 V2000
   12.0651   -9.7582   -7.4131 C   0  0  0  0  0  0  0  0  0  0  0  0
   11.2248  -10.0319   -8.6100 C   0  0  1  0  0  0  0  0  0  0  0  0
   10.0753   -9.0524   -8.7519 C   0  0  0  0  0  0  0  0  0  0  0  0
   12.0318   -9.9553   -9.8644 C   0  0  0  0  0  0  0  0  0  0  0  0
   11.2080  -10.2755  -11.0684 C   0  0  2  0  0  0  0  0  0  0  0  0
   10.8241  -11.6637  -11.0421 N   0  0  0  0  0  0  0  0  0  0  0  0
   11.9943   -9.9221  -12.2736 C   0  0  0  0  0  0  0  0  0  0  0  0
   12.4334  -10.8868  -12.9907 O   0  0  0  0  0  0  0  0  0  0  0  0
   12.0345   -6.0602  -13.9590 O   0  0  0  0  0  0  0  0  0  0  0  0
   12.2970   -7.2289  -14.6356 C   0  0  0  0  0  0  0  0  0  0  0  0
   13.0182   -8.2511  -13.7878 C   0  0  2  0  0  0  0  0  0  0  0  0
   12.2479   -8.5738  -12.6145 N   0  0  0  0  0  0  0  0  0  0  0  0
   14.3748   -7.8259  -13.4135 C   0  0  0  0  0  0  0  0  0  0  0  0
   14.5349   -7.2443  -12.3101 O   0  0  0  0  0  0  0  0  0  0  0  0
   22.9205   -5.8173  -13.5419 O   0  0  0  0  0  0  0  0  0  0  0  0
   21.6909   -6.3990  -13.8169 C   0  0  0  0  0  0  0  0  0  0  0  0
   20.8869   -5.8355  -14.7893 C   0  0  0  0  0  0  0  0  0  0  0  0
   19.6620   -6.3760  -15.0963 C   0  0  0  0  0  0  0  0  0  0  0  0
   19.2336   -7.5125  -14.4080 C   0  0  0  0  0  0  0  0  0  0  0  0
   17.9145   -8.1239  -14.6768 C   0  0  0  0  0  0  0  0  0  0  0  0
   16.8429   -7.4739  -13.8770 C   0  0  2  0  0  0  0  0  0  0  0  0
   15.5238   -8.0203  -14.2016 N   0  0  0  0  0  0  0  0  0  0  0  0
   16.8094   -6.0149  -14.0097 C   0  0  0  0  0  0  0  0  0  0  0  0
   17.4883   -5.1942  -13.1416 O   0  0  0  0  0  0  0  0  0  0  0  0
   20.0516   -8.0686  -13.4328 C   0  0  0  0  0  0  0  0  0  0  0  0
   21.2783   -7.5247  -13.1278 C   0  0  0  0  0  0  0  0  0  0  0  0
   16.1460   -5.4958  -14.9333 O   0  0  0  0  0  0  0  0  0  0  0  0
  2  1  1  1
  2  4  1  0
  2  3  1  0
  5  4  1  0
  5  6  1  6
  7  5  1  0
  8  7  2  0
  9 10  1  0
 11 10  1  1
 11 12  1  0
 12  7  1  0
 13 22  1  0
 13 11  1  0
 14 13  2  0
 16 15  1  0
 17 16  2  0
 18 17  1  0
 19 25  1  0
 19 18  2  0
 21 20  1  6
 20 19  1  0
 21 23  1  0
 21 22  1  0
 23 24  1  0
 25 26  2  0
 26 16  1  0
 27 23  2  0
M  END
$$$$
