LSY.pdb
     RDKit          3D

 27 27  0  0  1  0  0  0  0  0999 V2000
   25.4104  -30.8467  -17.0290 C   0  0  0  0  0  0  0  0  0  0  0  0
   26.5681  -30.1814  -17.6852 C   0  0  1  0  0  0  0  0  0  0  0  0
   26.2735  -29.7770  -19.1172 C   0  0  0  0  0  0  0  0  0  0  0  0
   26.9692  -28.9462  -16.9478 C   0  0  0  0  0  0  0  0  0  0  0  0
   28.1782  -28.3122  -17.5538 C   0  0  2  0  0  0  0  0  0  0  0  0
   29.3574  -29.0468  -17.1728 N   0  0  0  0  0  0  0  0  0  0  0  0
   28.2225  -26.8954  -17.1224 C   0  0  0  0  0  0  0  0  0  0  0  0
   28.9390  -26.6162  -16.0996 O   0  0  0  0  0  0  0  0  0  0  0  0
   26.3849  -23.6452  -19.3042 O   0  0  0  0  0  0  0  0  0  0  0  0
   27.5911  -23.6149  -18.6433 C   0  0  0  0  0  0  0  0  0  0  0  0
   27.6195  -24.5128  -17.4281 C   0  0  2  0  0  0  0  0  0  0  0  0
   27.5011  -25.8953  -17.8139 N   0  0  0  0  0  0  0  0  0  0  0  0
   26.5909  -24.1638  -16.4375 C   0  0  0  0  0  0  0  0  0  0  0  0
   25.5771  -24.9019  -16.3442 O   0  0  0  0  0  0  0  0  0  0  0  0
   21.7533  -20.0715  -10.3643 O   0  0  0  0  0  0  0  0  0  0  0  0
   22.8004  -20.4325  -11.2005 C   0  0  0  0  0  0  0  0  0  0  0  0
   22.8444  -19.9121  -12.4799 C   0  0  0  0  0  0  0  0  0  0  0  0
   23.8611  -20.2402  -13.3434 C   0  0  0  0  0  0  0  0  0  0  0  0
   24.8597  -21.1142  -12.9099 C   0  0  0  0  0  0  0  0  0  0  0  0
   25.9650  -21.5238  -13.8024 C   0  0  0  0  0  0  0  0  0  0  0  0
   25.5549  -22.6390  -14.6961 C   0  0  2  0  0  0  0  0  0  0  0  0
   26.6507  -23.0549  -15.5737 N   0  0  0  0  0  0  0  0  0  0  0  0
   24.3708  -22.3417  -15.5064 C   0  0  0  0  0  0  0  0  0  0  0  0
   23.1239  -22.8047  -15.1616 O   0  0  0  0  0  0  0  0  0  0  0  0
   24.8030  -21.6301  -11.6215 C   0  0  0  0  0  0  0  0  0  0  0  0
   23.7832  -21.2992  -10.7590 C   0  0  0  0  0  0  0  0  0  0  0  0
   24.4906  -21.6510  -16.5414 O   0  0  0  0  0  0  0  0  0  0  0  0
  2  1  1  1
  2  4  1  0
  2  3  1  0
  5  4  1  0
  5  6  1  1
  7  5  1  0
  8  7  2  0
  9 10  1  0
 11 10  1  6
 11 12  1  0
 12  7  1  0
 13 22  1  0
 13 11  1  0
 14 13  2  0
 16 15  1  0
 17 16  2  0
 18 17  1  0
 19 25  1  0
 19 18  2  0
 21 20  1  6
 20 19  1  0
 21 23  1  0
 21 22  1  0
 23 24  1  0
 25 26  2  0
 26 16  1  0
 27 23  2  0
M  END
$$$$
