LSY.pdb
     RDKit          3D

 27 27  0  0  1  0  0  0  0  0999 V2000
   24.1093  -20.2840  -22.4462 C   0  0  0  0  0  0  0  0  0  0  0  0
   25.0587  -19.4570  -21.6536 C   0  0  1  0  0  0  0  0  0  0  0  0
   24.4856  -18.1010  -21.2874 C   0  0  0  0  0  0  0  0  0  0  0  0
   25.4349  -20.1396  -20.3797 C   0  0  0  0  0  0  0  0  0  0  0  0
   26.9119  -20.1162  -20.1587 C   0  0  2  0  0  0  0  0  0  0  0  0
   27.5530  -21.0532  -21.0454 N   0  0  0  0  0  0  0  0  0  0  0  0
   27.1701  -20.4119  -18.7299 C   0  0  0  0  0  0  0  0  0  0  0  0
   27.3148  -21.6405  -18.4025 O   0  0  0  0  0  0  0  0  0  0  0  0
   27.8196  -17.3512  -15.8242 O   0  0  0  0  0  0  0  0  0  0  0  0
   28.4409  -18.5786  -15.8092 C   0  0  0  0  0  0  0  0  0  0  0  0
   27.5894  -19.6770  -16.4023 C   0  0  2  0  0  0  0  0  0  0  0  0
   27.2522  -19.3773  -17.7701 N   0  0  0  0  0  0  0  0  0  0  0  0
   26.3747  -19.9429  -15.6180 C   0  0  0  0  0  0  0  0  0  0  0  0
   25.2985  -19.4048  -15.9834 O   0  0  0  0  0  0  0  0  0  0  0  0
   21.3323  -21.5834   -8.5658 O   0  0  0  0  0  0  0  0  0  0  0  0
   22.3699  -21.5744   -9.4873 C   0  0  0  0  0  0  0  0  0  0  0  0
   22.1800  -22.1813  -10.7142 C   0  0  0  0  0  0  0  0  0  0  0  0
   23.1776  -22.1978  -11.6583 C   0  0  0  0  0  0  0  0  0  0  0  0
   24.3982  -21.5885  -11.3617 C   0  0  0  0  0  0  0  0  0  0  0  0
   25.5175  -21.5962  -12.3278 C   0  0  0  0  0  0  0  0  0  0  0  0
   25.2098  -20.7632  -13.5203 C   0  0  2  0  0  0  0  0  0  0  0  0
   26.3192  -20.7624  -14.4758 N   0  0  0  0  0  0  0  0  0  0  0  0
   24.8470  -19.3806  -13.1972 C   0  0  0  0  0  0  0  0  0  0  0  0
   23.5388  -18.9606  -13.1843 O   0  0  0  0  0  0  0  0  0  0  0  0
   24.5757  -20.9823  -10.1246 C   0  0  0  0  0  0  0  0  0  0  0  0
   23.5741  -20.9675   -9.1811 C   0  0  0  0  0  0  0  0  0  0  0  0
   25.7461  -18.5553  -12.9274 O   0  0  0  0  0  0  0  0  0  0  0  0
  2  1  1  1
  2  4  1  0
  2  3  1  0
  5  4  1  0
  5  6  1  6
  7  5  1  0
  8  7  2  0
  9 10  1  0
 11 10  1  1
 11 12  1  0
 12  7  1  0
 13 22  1  0
 13 11  1  0
 14 13  2  0
 16 15  1  0
 17 16  2  0
 18 17  1  0
 19 25  1  0
 19 18  2  0
 21 20  1  1
 20 19  1  0
 21 23  1  0
 21 22  1  0
 23 24  1  0
 25 26  2  0
 26 16  1  0
 27 23  2  0
M  END
$$$$
