LSY.pdb
     RDKit          3D

 27 27  0  0  1  0  0  0  0  0999 V2000
   23.6116  -20.4570  -18.3331 C   0  0  0  0  0  0  0  0  0  0  0  0
   24.6711  -21.0226  -17.4549 C   0  0  1  0  0  0  0  0  0  0  0  0
   25.9768  -21.2544  -18.1915 C   0  0  0  0  0  0  0  0  0  0  0  0
   24.9633  -20.1122  -16.3076 C   0  0  0  0  0  0  0  0  0  0  0  0
   25.7304  -20.8107  -15.2331 C   0  0  2  0  0  0  0  0  0  0  0  0
   25.4537  -22.2238  -15.2756 N   0  0  0  0  0  0  0  0  0  0  0  0
   25.3701  -20.1960  -13.9339 C   0  0  0  0  0  0  0  0  0  0  0  0
   25.5139  -18.9291  -13.8250 O   0  0  0  0  0  0  0  0  0  0  0  0
   22.8061  -22.0879  -11.3640 O   0  0  0  0  0  0  0  0  0  0  0  0
   23.0232  -20.7300  -11.3256 C   0  0  0  0  0  0  0  0  0  0  0  0
   24.4527  -20.3531  -11.6389 C   0  0  2  0  0  0  0  0  0  0  0  0
   24.8882  -20.9795  -12.8604 N   0  0  0  0  0  0  0  0  0  0  0  0
   25.3783  -20.6657  -10.5404 C   0  0  0  0  0  0  0  0  0  0  0  0
   25.8525  -21.8284  -10.4719 O   0  0  0  0  0  0  0  0  0  0  0  0
   29.9018  -20.1763   -2.9678 O   0  0  0  0  0  0  0  0  0  0  0  0
   29.2502  -19.8723   -4.1548 C   0  0  0  0  0  0  0  0  0  0  0  0
   29.5453  -20.6076   -5.2870 C   0  0  0  0  0  0  0  0  0  0  0  0
   28.9259  -20.3437   -6.4843 C   0  0  0  0  0  0  0  0  0  0  0  0
   27.9855  -19.3138   -6.5456 C   0  0  0  0  0  0  0  0  0  0  0  0
   27.3051  -18.9667   -7.8116 C   0  0  0  0  0  0  0  0  0  0  0  0
   26.5545  -20.1274   -8.3592 C   0  0  2  0  0  0  0  0  0  0  0  0
   25.7817  -19.7558   -9.5461 N   0  0  0  0  0  0  0  0  0  0  0  0
   25.6683  -20.7703   -7.3853 C   0  0  0  0  0  0  0  0  0  0  0  0
   24.3009  -20.6696   -7.4752 O   0  0  0  0  0  0  0  0  0  0  0  0
   27.6986  -18.5824   -5.4001 C   0  0  0  0  0  0  0  0  0  0  0  0
   28.3208  -18.8496   -4.2021 C   0  0  0  0  0  0  0  0  0  0  0  0
   26.1620  -21.4277   -6.4437 O   0  0  0  0  0  0  0  0  0  0  0  0
  2  1  1  6
  2  4  1  0
  2  3  1  0
  5  4  1  0
  5  6  1  1
  7  5  1  0
  8  7  2  0
  9 10  1  0
 11 10  1  1
 11 12  1  0
 12  7  1  0
 13 22  1  0
 13 11  1  0
 14 13  2  0
 16 15  1  0
 17 16  2  0
 18 17  1  0
 19 25  1  0
 19 18  2  0
 21 20  1  1
 20 19  1  0
 21 23  1  0
 21 22  1  0
 23 24  1  0
 25 26  2  0
 26 16  1  0
 27 23  2  0
M  END
$$$$
