LSY.pdb
     RDKit          3D

 27 27  0  0  1  0  0  0  0  0999 V2000
   27.4411  -16.7835  -17.3897 C   0  0  0  0  0  0  0  0  0  0  0  0
   27.7000  -16.9617  -15.9355 C   0  0  1  0  0  0  0  0  0  0  0  0
   28.5270  -15.8339  -15.3480 C   0  0  0  0  0  0  0  0  0  0  0  0
   26.4226  -17.0249  -15.1642 C   0  0  0  0  0  0  0  0  0  0  0  0
   25.7281  -18.3331  -15.3571 C   0  0  2  0  0  0  0  0  0  0  0  0
   24.7136  -18.2023  -16.3714 N   0  0  0  0  0  0  0  0  0  0  0  0
   25.1781  -18.7615  -14.0497 C   0  0  0  0  0  0  0  0  0  0  0  0
   24.1052  -18.1903  -13.6496 O   0  0  0  0  0  0  0  0  0  0  0  0
   25.6521  -22.5535  -12.6502 O   0  0  0  0  0  0  0  0  0  0  0  0
   24.6689  -21.6604  -12.2920 C   0  0  0  0  0  0  0  0  0  0  0  0
   25.1949  -20.2600  -12.0779 C   0  0  2  0  0  0  0  0  0  0  0  0
   25.8149  -19.7602  -13.2779 N   0  0  0  0  0  0  0  0  0  0  0  0
   26.1223  -20.1672  -10.9410 C   0  0  0  0  0  0  0  0  0  0  0  0
   27.3500  -20.3326  -11.1570 O   0  0  0  0  0  0  0  0  0  0  0  0
   29.7545  -19.7316   -2.9658 O   0  0  0  0  0  0  0  0  0  0  0  0
   28.9246  -19.5732   -4.0668 C   0  0  0  0  0  0  0  0  0  0  0  0
   29.1885  -18.5541   -4.9620 C   0  0  0  0  0  0  0  0  0  0  0  0
   28.3954  -18.3583   -6.0663 C   0  0  0  0  0  0  0  0  0  0  0  0
   27.3085  -19.2089   -6.2765 C   0  0  0  0  0  0  0  0  0  0  0  0
   26.4046  -19.0316   -7.4331 C   0  0  0  0  0  0  0  0  0  0  0  0
   26.6190  -20.0897   -8.4554 C   0  0  2  0  0  0  0  0  0  0  0  0
   25.7410  -19.9045   -9.6124 N   0  0  0  0  0  0  0  0  0  0  0  0
   26.4594  -21.4515   -7.9385 C   0  0  0  0  0  0  0  0  0  0  0  0
   27.5382  -22.2075   -7.5477 O   0  0  0  0  0  0  0  0  0  0  0  0
   27.0546  -20.2290   -5.3687 C   0  0  0  0  0  0  0  0  0  0  0  0
   27.8512  -20.4225   -4.2635 C   0  0  0  0  0  0  0  0  0  0  0  0
   25.3149  -21.9462   -7.8499 O   0  0  0  0  0  0  0  0  0  0  0  0
  2  1  1  6
  2  4  1  0
  2  3  1  0
  5  4  1  0
  5  6  1  6
  7  5  1  0
  8  7  2  0
  9 10  1  0
 11 10  1  6
 11 12  1  0
 12  7  1  0
 13 22  1  0
 13 11  1  0
 14 13  2  0
 16 15  1  0
 17 16  2  0
 18 17  1  0
 19 25  1  0
 19 18  2  0
 21 20  1  1
 20 19  1  0
 21 23  1  0
 21 22  1  0
 23 24  1  0
 25 26  2  0
 26 16  1  0
 27 23  2  0
M  END
$$$$
