FFD.pdb
     RDKit          3D

 31 32  0  0  1  0  0  0  0  0999 V2000
    9.7458  -15.1816   18.5277 N   0  0  0  0  0  0  0  0  0  0  0  0
    9.2647  -16.0975   19.5182 C   0  0  1  0  0  0  0  0  0  0  0  0
    9.9720  -17.4344   19.4647 C   0  0  0  0  0  0  0  0  0  0  0  0
    9.3816  -18.3950   20.4420 C   0  0  0  0  0  0  0  0  0  0  0  0
    8.1452  -18.9554   20.2316 C   0  0  0  0  0  0  0  0  0  0  0  0
    7.5691  -19.8357   21.0965 C   0  0  0  0  0  0  0  0  0  0  0  0
    8.2928  -20.1658   22.2429 C   0  0  0  0  0  0  0  0  0  0  0  0
    9.5355  -19.6107   22.4668 C   0  0  0  0  0  0  0  0  0  0  0  0
   10.0989  -18.7177   21.5712 C   0  0  0  0  0  0  0  0  0  0  0  0
    9.4403  -15.5503   20.8847 C   0  0  0  0  0  0  0  0  0  0  0  0
   10.5699  -15.1681   21.2855 O   0  0  0  0  0  0  0  0  0  0  0  0
    8.2904  -15.4770   21.7134 N   0  0  0  0  0  0  0  0  0  0  0  0
    8.3643  -14.8050   22.9972 C   0  0  1  0  0  0  0  0  0  0  0  0
    7.1189  -14.0732   23.3357 C   0  0  0  0  0  0  0  0  0  0  0  0
    7.1334  -13.4799   24.6907 C   0  0  0  0  0  0  0  0  0  0  0  0
    6.3823  -14.1256   25.6804 C   0  0  0  0  0  0  0  0  0  0  0  0
    6.3902  -13.6079   26.9469 C   0  0  0  0  0  0  0  0  0  0  0  0
    7.1161  -12.4773   27.2561 C   0  0  0  0  0  0  0  0  0  0  0  0
    7.8626  -11.8311   26.2842 C   0  0  0  0  0  0  0  0  0  0  0  0
    7.8492  -12.3526   25.0279 C   0  0  0  0  0  0  0  0  0  0  0  0
    8.7121  -15.8413   23.9957 C   0  0  0  0  0  0  0  0  0  0  0  0
    8.0482  -16.9233   23.9788 O   0  0  0  0  0  0  0  0  0  0  0  0
    9.7410  -15.6755   24.9548 N   0  0  0  0  0  0  0  0  0  0  0  0
   10.2835  -16.8281   25.6416 C   0  0  1  0  0  0  0  0  0  0  0  0
   11.6818  -17.0318   25.1255 C   0  0  0  0  0  0  0  0  0  0  0  0
   12.3092  -18.1596   25.8076 C   0  0  0  0  0  0  0  0  0  0  0  0
   12.3537  -18.3041   27.0612 O   0  0  0  0  0  0  0  0  0  0  0  0
   10.2502  -16.6344   27.1133 C   0  0  0  0  0  0  0  0  0  0  0  0
   10.3896  -17.7017   27.9619 O   0  0  0  0  0  0  0  0  0  0  0  0
   12.9004  -19.1446   25.0002 O   0  0  0  0  0  0  0  0  0  0  0  0
   10.0928  -15.4908   27.6087 O   0  0  0  0  0  0  0  0  0  0  0  0
  2  1  1  6
  2  3  1  0
  3  4  1  0
  4  5  2  0
  5  6  1  0
  7  6  2  0
  8  7  1  0
  9  4  1  0
  9  8  2  0
 10  2  1  0
 11 10  2  0
 12 10  1  0
 13 21  1  0
 13 12  1  0
 13 14  1  1
 15 14  1  0
 16 15  2  0
 17 16  1  0
 18 19  1  0
 18 17  2  0
 19 20  2  0
 20 15  1  0
 21 23  1  0
 22 21  2  0
 23 24  1  0
 24 28  1  0
 25 26  1  0
 24 25  1  6
 26 27  2  0
 28 31  2  0
 28 29  1  0
 30 26  1  0
M  END
$$$$
