FFD.pdb
     RDKit          3D

 31 32  0  0  1  0  0  0  0  0999 V2000
    7.6282  -17.4797   20.7648 N   0  0  0  0  0  0  0  0  0  0  0  0
    8.9639  -16.9684   20.6876 C   0  0  1  0  0  0  0  0  0  0  0  0
    9.1540  -16.0145   19.5282 C   0  0  0  0  0  0  0  0  0  0  0  0
    8.4306  -14.7308   19.7634 C   0  0  0  0  0  0  0  0  0  0  0  0
    7.1092  -14.7162   20.1382 C   0  0  0  0  0  0  0  0  0  0  0  0
    6.4109  -13.5687   20.3631 C   0  0  0  0  0  0  0  0  0  0  0  0
    7.0968  -12.3649   20.1970 C   0  0  0  0  0  0  0  0  0  0  0  0
    8.4238  -12.3647   19.8209 C   0  0  0  0  0  0  0  0  0  0  0  0
    9.1109  -13.5460   19.5984 C   0  0  0  0  0  0  0  0  0  0  0  0
    9.3347  -16.2473   21.9285 C   0  0  0  0  0  0  0  0  0  0  0  0
   10.3998  -15.5810   21.9927 O   0  0  0  0  0  0  0  0  0  0  0  0
    8.4450  -16.3401   23.0304 N   0  0  0  0  0  0  0  0  0  0  0  0
    8.7166  -15.5951   24.2455 C   0  0  1  0  0  0  0  0  0  0  0  0
    7.4863  -15.2727   25.0094 C   0  0  0  0  0  0  0  0  0  0  0  0
    7.7227  -14.3626   26.1513 C   0  0  0  0  0  0  0  0  0  0  0  0
    8.3524  -14.9015   27.2799 C   0  0  0  0  0  0  0  0  0  0  0  0
    8.5982  -14.0786   28.3450 C   0  0  0  0  0  0  0  0  0  0  0  0
    8.2397  -12.7474   28.3218 C   0  0  0  0  0  0  0  0  0  0  0  0
    7.6164  -12.2045   27.2100 C   0  0  0  0  0  0  0  0  0  0  0  0
    7.3760  -13.0296   26.1556 C   0  0  0  0  0  0  0  0  0  0  0  0
    9.6838  -16.3998   25.0258 C   0  0  0  0  0  0  0  0  0  0  0  0
    9.3295  -17.5657   25.3821 O   0  0  0  0  0  0  0  0  0  0  0  0
   10.9697  -15.9271   25.3848 N   0  0  0  0  0  0  0  0  0  0  0  0
   11.8918  -16.7964   26.0839 C   0  0  1  0  0  0  0  0  0  0  0  0
   13.2577  -16.1768   25.9667 C   0  0  0  0  0  0  0  0  0  0  0  0
   13.7135  -16.2252   24.5808 C   0  0  0  0  0  0  0  0  0  0  0  0
   13.0975  -16.8058   23.6438 O   0  0  0  0  0  0  0  0  0  0  0  0
   11.4787  -16.9828   27.4977 C   0  0  0  0  0  0  0  0  0  0  0  0
   11.0405  -15.9197   28.2437 O   0  0  0  0  0  0  0  0  0  0  0  0
   14.9228  -15.5763   24.2839 O   0  0  0  0  0  0  0  0  0  0  0  0
   11.5236  -18.1162   28.0374 O   0  0  0  0  0  0  0  0  0  0  0  0
  2  1  1  1
  2  3  1  0
  3  4  1  0
  4  5  2  0
  5  6  1  0
  7  6  2  0
  8  7  1  0
  9  4  1  0
  9  8  2  0
 10  2  1  0
 11 10  2  0
 12 10  1  0
 13 21  1  0
 13 12  1  0
 13 14  1  1
 15 14  1  0
 16 15  2  0
 17 16  1  0
 18 19  1  0
 18 17  2  0
 19 20  2  0
 20 15  1  0
 21 23  1  0
 22 21  2  0
 23 24  1  0
 24 28  1  0
 25 26  1  0
 24 25  1  1
 26 27  2  0
 28 31  2  0
 28 29  1  0
 30 26  1  0
M  END
$$$$
