FFD.pdb
     RDKit          3D

 31 32  0  0  1  0  0  0  0  0999 V2000
   11.2660  -17.3756   21.0085 N   0  0  0  0  0  0  0  0  0  0  0  0
   10.2973  -16.3248   21.1036 C   0  0  1  0  0  0  0  0  0  0  0  0
    9.0340  -16.6281   20.3275 C   0  0  0  0  0  0  0  0  0  0  0  0
    8.1520  -15.4274   20.2445 C   0  0  0  0  0  0  0  0  0  0  0  0
    8.5938  -14.2570   19.6772 C   0  0  0  0  0  0  0  0  0  0  0  0
    7.8232  -13.1382   19.5808 C   0  0  0  0  0  0  0  0  0  0  0  0
    6.5268  -13.2139   20.0913 C   0  0  0  0  0  0  0  0  0  0  0  0
    6.0700  -14.3828   20.6637 C   0  0  0  0  0  0  0  0  0  0  0  0
    6.8742  -15.5066   20.7493 C   0  0  0  0  0  0  0  0  0  0  0  0
    9.9106  -16.0780   22.5132 C   0  0  0  0  0  0  0  0  0  0  0  0
   10.4345  -16.7349   23.4495 O   0  0  0  0  0  0  0  0  0  0  0  0
    8.9335  -15.0784   22.7587 N   0  0  0  0  0  0  0  0  0  0  0  0
    8.7003  -14.6101   24.1120 C   0  0  1  0  0  0  0  0  0  0  0  0
    7.7030  -13.5136   24.1772 C   0  0  0  0  0  0  0  0  0  0  0  0
    7.4050  -13.0688   25.5562 C   0  0  0  0  0  0  0  0  0  0  0  0
    6.1217  -13.3319   26.0505 C   0  0  0  0  0  0  0  0  0  0  0  0
    5.8232  -12.9459   27.3288 C   0  0  0  0  0  0  0  0  0  0  0  0
    6.7545  -12.3116   28.1234 C   0  0  0  0  0  0  0  0  0  0  0  0
    8.0270  -12.0469   27.6438 C   0  0  0  0  0  0  0  0  0  0  0  0
    8.3152  -12.4341   26.3720 C   0  0  0  0  0  0  0  0  0  0  0  0
    8.3046  -15.7955   24.9058 C   0  0  0  0  0  0  0  0  0  0  0  0
    8.0134  -15.6165   26.1284 O   0  0  0  0  0  0  0  0  0  0  0  0
    8.2390  -17.1019   24.3627 N   0  0  0  0  0  0  0  0  0  0  0  0
    7.8464  -18.2154   25.1998 C   0  0  1  0  0  0  0  0  0  0  0  0
    6.8532  -19.0287   24.4153 C   0  0  0  0  0  0  0  0  0  0  0  0
    6.4589  -20.2100   25.1768 C   0  0  0  0  0  0  0  0  0  0  0  0
    6.5457  -20.3151   26.4322 O   0  0  0  0  0  0  0  0  0  0  0  0
    9.0283  -19.0148   25.6101 C   0  0  0  0  0  0  0  0  0  0  0  0
    9.9239  -19.4677   24.6766 O   0  0  0  0  0  0  0  0  0  0  0  0
    5.9492  -21.2973   24.4492 O   0  0  0  0  0  0  0  0  0  0  0  0
    9.2298  -19.2922   26.8186 O   0  0  0  0  0  0  0  0  0  0  0  0
  2  1  1  1
  2  3  1  0
  3  4  1  0
  4  5  2  0
  5  6  1  0
  7  6  2  0
  8  7  1  0
  9  4  1  0
  9  8  2  0
 10  2  1  0
 11 10  2  0
 12 10  1  0
 13 21  1  0
 13 12  1  0
 13 14  1  6
 15 14  1  0
 16 15  2  0
 17 16  1  0
 18 19  1  0
 18 17  2  0
 19 20  2  0
 20 15  1  0
 21 23  1  0
 22 21  2  0
 23 24  1  0
 24 28  1  0
 25 26  1  0
 24 25  1  6
 26 27  2  0
 28 31  2  0
 28 29  1  0
 30 26  1  0
M  END
$$$$
