FFD.pdb
     RDKit          3D

 31 32  0  0  1  0  0  0  0  0999 V2000
   -2.7976  -25.0566   28.5365 N   0  0  0  0  0  0  0  0  0  0  0  0
   -4.2110  -25.0898   28.3066 C   0  0  1  0  0  0  0  0  0  0  0  0
   -4.7415  -26.4991   28.1562 C   0  0  0  0  0  0  0  0  0  0  0  0
   -4.1578  -27.1688   26.9572 C   0  0  0  0  0  0  0  0  0  0  0  0
   -4.5128  -26.7888   25.6858 C   0  0  0  0  0  0  0  0  0  0  0  0
   -4.0052  -27.3721   24.5647 C   0  0  0  0  0  0  0  0  0  0  0  0
   -3.0823  -28.4027   24.7470 C   0  0  0  0  0  0  0  0  0  0  0  0
   -2.7168  -28.7945   26.0180 C   0  0  0  0  0  0  0  0  0  0  0  0
   -3.2480  -28.1846   27.1419 C   0  0  0  0  0  0  0  0  0  0  0  0
   -4.9505  -24.4473   29.4191 C   0  0  0  0  0  0  0  0  0  0  0  0
   -4.4734  -24.4271   30.5830 O   0  0  0  0  0  0  0  0  0  0  0  0
   -6.2077  -23.8618   29.1177 N   0  0  0  0  0  0  0  0  0  0  0  0
   -6.9127  -23.0983   30.1302 C   0  0  1  0  0  0  0  0  0  0  0  0
   -6.9375  -21.6435   29.8400 C   0  0  0  0  0  0  0  0  0  0  0  0
   -5.6077  -21.0017   29.9291 C   0  0  0  0  0  0  0  0  0  0  0  0
   -4.8864  -20.8552   28.7381 C   0  0  0  0  0  0  0  0  0  0  0  0
   -3.6600  -20.2504   28.7883 C   0  0  0  0  0  0  0  0  0  0  0  0
   -3.1340  -19.7910   29.9772 C   0  0  0  0  0  0  0  0  0  0  0  0
   -3.8398  -19.9311   31.1611 C   0  0  0  0  0  0  0  0  0  0  0  0
   -5.0581  -20.5333   31.1020 C   0  0  0  0  0  0  0  0  0  0  0  0
   -8.2670  -23.6871   30.2350 C   0  0  0  0  0  0  0  0  0  0  0  0
   -8.9301  -23.8363   29.1627 O   0  0  0  0  0  0  0  0  0  0  0  0
   -8.8434  -24.0845   31.4662 N   0  0  0  0  0  0  0  0  0  0  0  0
   -9.4959  -25.3715   31.5784 C   0  0  1  0  0  0  0  0  0  0  0  0
   -8.8074  -26.3010   30.6166 C   0  0  0  0  0  0  0  0  0  0  0  0
   -9.3712  -27.6430   30.7249 C   0  0  0  0  0  0  0  0  0  0  0  0
   -8.7348  -28.6574   31.1254 O   0  0  0  0  0  0  0  0  0  0  0  0
   -9.4479  -25.8719   32.9755 C   0  0  0  0  0  0  0  0  0  0  0  0
   -8.5416  -25.3634   33.8692 O   0  0  0  0  0  0  0  0  0  0  0  0
  -10.7162  -27.8017   30.3543 O   0  0  0  0  0  0  0  0  0  0  0  0
  -10.2348  -26.7704   33.3648 O   0  0  0  0  0  0  0  0  0  0  0  0
  2  1  1  1
  2  3  1  0
  3  4  1  0
  4  5  2  0
  5  6  1  0
  7  6  2  0
  8  7  1  0
  9  4  1  0
  9  8  2  0
 10  2  1  0
 11 10  2  0
 12 10  1  0
 13 21  1  0
 13 12  1  0
 13 14  1  6
 15 14  1  0
 16 15  2  0
 17 16  1  0
 18 19  1  0
 18 17  2  0
 19 20  2  0
 20 15  1  0
 21 23  1  0
 22 21  2  0
 23 24  1  0
 24 28  1  0
 25 26  1  0
 24 25  1  6
 26 27  2  0
 28 31  2  0
 28 29  1  0
 30 26  1  0
M  END
$$$$
