FFD.pdb
     RDKit          3D

 31 32  0  0  1  0  0  0  0  0999 V2000
   10.3397  -17.3516   20.1263 N   0  0  0  0  0  0  0  0  0  0  0  0
    9.5359  -16.3269   20.7223 C   0  0  1  0  0  0  0  0  0  0  0  0
    8.1786  -16.1982   20.0652 C   0  0  0  0  0  0  0  0  0  0  0  0
    7.9550  -14.8125   19.5592 C   0  0  0  0  0  0  0  0  0  0  0  0
    7.9156  -14.5436   18.2127 C   0  0  0  0  0  0  0  0  0  0  0  0
    7.7142  -13.2949   17.7076 C   0  0  0  0  0  0  0  0  0  0  0  0
    7.5428  -12.2583   18.6259 C   0  0  0  0  0  0  0  0  0  0  0  0
    7.5800  -12.5139   19.9808 C   0  0  0  0  0  0  0  0  0  0  0  0
    7.7864  -13.7933   20.4684 C   0  0  0  0  0  0  0  0  0  0  0  0
    9.3142  -16.5900   22.1642 C   0  0  0  0  0  0  0  0  0  0  0  0
   10.0368  -17.4093   22.7882 O   0  0  0  0  0  0  0  0  0  0  0  0
    8.2618  -15.8848   22.8042 N   0  0  0  0  0  0  0  0  0  0  0  0
    8.4814  -15.2789   24.1042 C   0  0  1  0  0  0  0  0  0  0  0  0
    7.4915  -14.2199   24.4195 C   0  0  0  0  0  0  0  0  0  0  0  0
    7.5910  -13.7136   25.8059 C   0  0  0  0  0  0  0  0  0  0  0  0
    8.7593  -13.0245   26.1536 C   0  0  0  0  0  0  0  0  0  0  0  0
    8.8717  -12.5311   27.4248 C   0  0  0  0  0  0  0  0  0  0  0  0
    7.8661  -12.7008   28.3526 C   0  0  0  0  0  0  0  0  0  0  0  0
    6.7062  -13.3809   28.0185 C   0  0  0  0  0  0  0  0  0  0  0  0
    6.6027  -13.8680   26.7527 C   0  0  0  0  0  0  0  0  0  0  0  0
    8.4762  -16.3833   25.0901 C   0  0  0  0  0  0  0  0  0  0  0  0
    7.5334  -17.2309   25.0216 O   0  0  0  0  0  0  0  0  0  0  0  0
    9.4668  -16.5293   26.0917 N   0  0  0  0  0  0  0  0  0  0  0  0
    9.6130  -17.7900   26.7875 C   0  0  1  0  0  0  0  0  0  0  0  0
   10.1691  -18.7780   25.7987 C   0  0  0  0  0  0  0  0  0  0  0  0
   10.4653  -20.0425   26.4651 C   0  0  0  0  0  0  0  0  0  0  0  0
    9.6017  -20.7831   27.0130 O   0  0  0  0  0  0  0  0  0  0  0  0
   10.4821  -17.6404   27.9819 C   0  0  0  0  0  0  0  0  0  0  0  0
   10.6767  -18.6908   28.8406 O   0  0  0  0  0  0  0  0  0  0  0  0
   11.8085  -20.4508   26.4908 O   0  0  0  0  0  0  0  0  0  0  0  0
   11.0544  -16.5498   28.2291 O   0  0  0  0  0  0  0  0  0  0  0  0
  2  1  1  6
  2  3  1  0
  3  4  1  0
  4  5  2  0
  5  6  1  0
  7  6  2  0
  8  7  1  0
  9  4  1  0
  9  8  2  0
 10  2  1  0
 11 10  2  0
 12 10  1  0
 13 21  1  0
 13 12  1  0
 13 14  1  1
 15 14  1  0
 16 15  2  0
 17 16  1  0
 18 19  1  0
 18 17  2  0
 19 20  2  0
 20 15  1  0
 21 23  1  0
 22 21  2  0
 23 24  1  0
 24 28  1  0
 25 26  1  0
 24 25  1  6
 26 27  2  0
 28 31  2  0
 28 29  1  0
 30 26  1  0
M  END
$$$$
