FFD.pdb
     RDKit          3D

 31 32  0  0  1  0  0  0  0  0999 V2000
    8.0441  -16.2424   21.3638 N   0  0  0  0  0  0  0  0  0  0  0  0
    9.4506  -16.3329   21.1090 C   0  0  1  0  0  0  0  0  0  0  0  0
    9.9363  -15.2676   20.1500 C   0  0  0  0  0  0  0  0  0  0  0  0
    8.8029  -14.4340   19.6527 C   0  0  0  0  0  0  0  0  0  0  0  0
    8.4888  -13.2342   20.2430 C   0  0  0  0  0  0  0  0  0  0  0  0
    7.4638  -12.4423   19.8219 C   0  0  0  0  0  0  0  0  0  0  0  0
    6.7141  -12.8972   18.7365 C   0  0  0  0  0  0  0  0  0  0  0  0
    7.0185  -14.1002   18.1342 C   0  0  0  0  0  0  0  0  0  0  0  0
    8.0663  -14.8867   18.5821 C   0  0  0  0  0  0  0  0  0  0  0  0
   10.2321  -16.2002   22.3616 C   0  0  0  0  0  0  0  0  0  0  0  0
   11.3516  -15.6263   22.3648 O   0  0  0  0  0  0  0  0  0  0  0  0
    9.6685  -16.7431   23.5456 N   0  0  0  0  0  0  0  0  0  0  0  0
   10.0802  -16.2375   24.8418 C   0  0  1  0  0  0  0  0  0  0  0  0
    9.0229  -15.4396   25.5100 C   0  0  0  0  0  0  0  0  0  0  0  0
    9.4229  -14.9254   26.8382 C   0  0  0  0  0  0  0  0  0  0  0  0
    9.1453  -15.7331   27.9476 C   0  0  0  0  0  0  0  0  0  0  0  0
    9.5187  -15.2897   29.1870 C   0  0  0  0  0  0  0  0  0  0  0  0
   10.1543  -14.0777   29.3548 C   0  0  0  0  0  0  0  0  0  0  0  0
   10.4335  -13.2712   28.2635 C   0  0  0  0  0  0  0  0  0  0  0  0
   10.0590  -13.7198   27.0351 C   0  0  0  0  0  0  0  0  0  0  0  0
   10.5035  -17.4123   25.6372 C   0  0  0  0  0  0  0  0  0  0  0  0
    9.6366  -18.3099   25.8710 O   0  0  0  0  0  0  0  0  0  0  0  0
   11.8180  -17.5717   26.1399 N   0  0  0  0  0  0  0  0  0  0  0  0
   12.1551  -18.7370   26.9293 C   0  0  1  0  0  0  0  0  0  0  0  0
   13.5872  -19.0797   26.6213 C   0  0  0  0  0  0  0  0  0  0  0  0
   13.7255  -19.4394   25.2134 C   0  0  0  0  0  0  0  0  0  0  0  0
   12.8763  -20.1045   24.5571 O   0  0  0  0  0  0  0  0  0  0  0  0
   11.9370  -18.4807   28.3754 C   0  0  0  0  0  0  0  0  0  0  0  0
   11.9158  -19.5161   29.2733 O   0  0  0  0  0  0  0  0  0  0  0  0
   14.8893  -19.0088   24.5564 O   0  0  0  0  0  0  0  0  0  0  0  0
   11.7670  -17.3120   28.8036 O   0  0  0  0  0  0  0  0  0  0  0  0
  2  1  1  1
  2  3  1  0
  3  4  1  0
  4  5  2  0
  5  6  1  0
  7  6  2  0
  8  7  1  0
  9  4  1  0
  9  8  2  0
 10  2  1  0
 11 10  2  0
 12 10  1  0
 13 21  1  0
 13 12  1  0
 13 14  1  1
 15 14  1  0
 16 15  2  0
 17 16  1  0
 18 19  1  0
 18 17  2  0
 19 20  2  0
 20 15  1  0
 21 23  1  0
 22 21  2  0
 23 24  1  0
 24 28  1  0
 25 26  1  0
 24 25  1  1
 26 27  2  0
 28 31  2  0
 28 29  1  0
 30 26  1  0
M  END
$$$$
