FFD.pdb
     RDKit          3D

 31 32  0  0  1  0  0  0  0  0999 V2000
   11.6200  -17.0041   20.9562 N   0  0  0  0  0  0  0  0  0  0  0  0
   10.5881  -16.0184   21.0787 C   0  0  1  0  0  0  0  0  0  0  0  0
    9.3995  -16.3087   20.1880 C   0  0  0  0  0  0  0  0  0  0  0  0
    8.4942  -15.1261   20.0963 C   0  0  0  0  0  0  0  0  0  0  0  0
    7.1630  -15.2212   20.4215 C   0  0  0  0  0  0  0  0  0  0  0  0
    6.3019  -14.1683   20.3523 C   0  0  0  0  0  0  0  0  0  0  0  0
    6.8252  -12.9466   19.9273 C   0  0  0  0  0  0  0  0  0  0  0  0
    8.1600  -12.8367   19.5977 C   0  0  0  0  0  0  0  0  0  0  0  0
    9.0147  -13.9232   19.6768 C   0  0  0  0  0  0  0  0  0  0  0  0
   10.0938  -15.9300   22.4735 C   0  0  0  0  0  0  0  0  0  0  0  0
   10.6618  -16.5642   23.3997 O   0  0  0  0  0  0  0  0  0  0  0  0
    8.9633  -15.1072   22.7166 N   0  0  0  0  0  0  0  0  0  0  0  0
    8.7117  -14.5977   24.0516 C   0  0  1  0  0  0  0  0  0  0  0  0
    7.6583  -13.5534   24.0794 C   0  0  0  0  0  0  0  0  0  0  0  0
    7.3924  -13.0199   25.4333 C   0  0  0  0  0  0  0  0  0  0  0  0
    8.3662  -12.1855   25.9954 C   0  0  0  0  0  0  0  0  0  0  0  0
    8.1394  -11.6648   27.2402 C   0  0  0  0  0  0  0  0  0  0  0  0
    6.9834  -11.9465   27.9368 C   0  0  0  0  0  0  0  0  0  0  0  0
    6.0137  -12.7708   27.3894 C   0  0  0  0  0  0  0  0  0  0  0  0
    6.2472  -13.2841   26.1515 C   0  0  0  0  0  0  0  0  0  0  0  0
    8.3825  -15.7694   24.8946 C   0  0  0  0  0  0  0  0  0  0  0  0
    7.9262  -15.5492   26.0587 O   0  0  0  0  0  0  0  0  0  0  0  0
    8.5540  -17.1064   24.4598 N   0  0  0  0  0  0  0  0  0  0  0  0
    8.2673  -18.2030   25.3598 C   0  0  1  0  0  0  0  0  0  0  0  0
    7.9346  -19.3976   24.5080 C   0  0  0  0  0  0  0  0  0  0  0  0
    7.6067  -20.5413   25.3537 C   0  0  0  0  0  0  0  0  0  0  0  0
    7.4435  -20.4841   26.6045 O   0  0  0  0  0  0  0  0  0  0  0  0
    9.4146  -18.4610   26.2661 C   0  0  0  0  0  0  0  0  0  0  0  0
   10.6726  -18.6631   25.7608 O   0  0  0  0  0  0  0  0  0  0  0  0
    7.4661  -21.7853   24.7179 O   0  0  0  0  0  0  0  0  0  0  0  0
    9.2551  -18.5001   27.5115 O   0  0  0  0  0  0  0  0  0  0  0  0
  2  1  1  1
  2  3  1  0
  3  4  1  0
  4  5  2  0
  5  6  1  0
  7  6  2  0
  8  7  1  0
  9  4  1  0
  9  8  2  0
 10  2  1  0
 11 10  2  0
 12 10  1  0
 13 21  1  0
 13 12  1  0
 13 14  1  6
 15 14  1  0
 16 15  2  0
 17 16  1  0
 18 19  1  0
 18 17  2  0
 19 20  2  0
 20 15  1  0
 21 23  1  0
 22 21  2  0
 23 24  1  0
 24 28  1  0
 25 26  1  0
 24 25  1  6
 26 27  2  0
 28 31  2  0
 28 29  1  0
 30 26  1  0
M  END
$$$$
