FFD.pdb
     RDKit          3D

 31 32  0  0  1  0  0  0  0  0999 V2000
    5.8661  -19.6719   21.5457 N   0  0  0  0  0  0  0  0  0  0  0  0
    6.0015  -19.5008   22.9613 C   0  0  1  0  0  0  0  0  0  0  0  0
    6.7362  -20.6500   23.6170 C   0  0  0  0  0  0  0  0  0  0  0  0
    5.9123  -21.8940   23.6019 C   0  0  0  0  0  0  0  0  0  0  0  0
    6.2588  -22.9683   22.8191 C   0  0  0  0  0  0  0  0  0  0  0  0
    5.5363  -24.1219   22.7748 C   0  0  0  0  0  0  0  0  0  0  0  0
    4.3940  -24.1872   23.5736 C   0  0  0  0  0  0  0  0  0  0  0  0
    4.0343  -23.1159   24.3645 C   0  0  0  0  0  0  0  0  0  0  0  0
    4.7866  -21.9538   24.3912 C   0  0  0  0  0  0  0  0  0  0  0  0
    6.7374  -18.2548   23.2829 C   0  0  0  0  0  0  0  0  0  0  0  0
    7.5949  -17.7897   22.4885 O   0  0  0  0  0  0  0  0  0  0  0  0
    6.4360  -17.6155   24.5136 N   0  0  0  0  0  0  0  0  0  0  0  0
    7.0342  -16.3317   24.8286 C   0  0  1  0  0  0  0  0  0  0  0  0
    6.2684  -15.5755   25.8498 C   0  0  0  0  0  0  0  0  0  0  0  0
    6.7615  -14.1960   26.0549 C   0  0  0  0  0  0  0  0  0  0  0  0
    7.5017  -13.9468   27.2170 C   0  0  0  0  0  0  0  0  0  0  0  0
    7.9840  -12.6834   27.4247 C   0  0  0  0  0  0  0  0  0  0  0  0
    7.7543  -11.6691   26.5194 C   0  0  0  0  0  0  0  0  0  0  0  0
    7.0233  -11.9054   25.3666 C   0  0  0  0  0  0  0  0  0  0  0  0
    6.5477  -13.1643   25.1679 C   0  0  0  0  0  0  0  0  0  0  0  0
    8.4287  -16.6069   25.2425 C   0  0  0  0  0  0  0  0  0  0  0  0
    8.6366  -17.6199   25.9789 O   0  0  0  0  0  0  0  0  0  0  0  0
    9.5237  -15.7965   24.8548 N   0  0  0  0  0  0  0  0  0  0  0  0
   10.8779  -16.2360   25.1149 C   0  0  1  0  0  0  0  0  0  0  0  0
   11.7854  -15.4067   24.2479 C   0  0  0  0  0  0  0  0  0  0  0  0
   11.9483  -16.0391   22.9425 C   0  0  0  0  0  0  0  0  0  0  0  0
   11.5187  -17.1885   22.6446 O   0  0  0  0  0  0  0  0  0  0  0  0
   11.2097  -16.1114   26.5567 C   0  0  0  0  0  0  0  0  0  0  0  0
   12.2887  -16.7711   27.0850 O   0  0  0  0  0  0  0  0  0  0  0  0
   12.6326  -15.3063   21.9595 O   0  0  0  0  0  0  0  0  0  0  0  0
   10.5086  -15.4011   27.3195 O   0  0  0  0  0  0  0  0  0  0  0  0
  2  1  1  6
  2  3  1  0
  3  4  1  0
  4  5  2  0
  5  6  1  0
  7  6  2  0
  8  7  1  0
  9  4  1  0
  9  8  2  0
 10  2  1  0
 11 10  2  0
 12 10  1  0
 13 21  1  0
 13 12  1  0
 13 14  1  1
 15 14  1  0
 16 15  2  0
 17 16  1  0
 18 19  1  0
 18 17  2  0
 19 20  2  0
 20 15  1  0
 21 23  1  0
 22 21  2  0
 23 24  1  0
 24 28  1  0
 25 26  1  0
 24 25  1  6
 26 27  2  0
 28 31  2  0
 28 29  1  0
 30 26  1  0
M  END
$$$$
