FFD.pdb
     RDKit          3D

 31 32  0  0  1  0  0  0  0  0999 V2000
   10.2415  -17.6724   19.8681 N   0  0  0  0  0  0  0  0  0  0  0  0
    9.7160  -16.5413   20.5723 C   0  0  1  0  0  0  0  0  0  0  0  0
    8.2490  -16.3077   20.2827 C   0  0  0  0  0  0  0  0  0  0  0  0
    7.8983  -14.8631   20.4118 C   0  0  0  0  0  0  0  0  0  0  0  0
    8.5859  -13.8984   19.7164 C   0  0  0  0  0  0  0  0  0  0  0  0
    8.2996  -12.5698   19.8045 C   0  0  0  0  0  0  0  0  0  0  0  0
    7.2523  -12.2003   20.6494 C   0  0  0  0  0  0  0  0  0  0  0  0
    6.5535  -13.1585   21.3536 C   0  0  0  0  0  0  0  0  0  0  0  0
    6.8649  -14.5033   21.2462 C   0  0  0  0  0  0  0  0  0  0  0  0
    9.8642  -16.7059   22.0380 C   0  0  0  0  0  0  0  0  0  0  0  0
   10.6927  -17.5243   22.5139 O   0  0  0  0  0  0  0  0  0  0  0  0
    9.0394  -15.9082   22.8732 N   0  0  0  0  0  0  0  0  0  0  0  0
    9.4321  -15.6505   24.2460 C   0  0  1  0  0  0  0  0  0  0  0  0
    8.4262  -14.8553   24.9922 C   0  0  0  0  0  0  0  0  0  0  0  0
    8.8183  -14.5706   26.3899 C   0  0  0  0  0  0  0  0  0  0  0  0
    9.1624  -13.2498   26.7020 C   0  0  0  0  0  0  0  0  0  0  0  0
    9.5138  -12.9544   27.9909 C   0  0  0  0  0  0  0  0  0  0  0  0
    9.5332  -13.9247   28.9703 C   0  0  0  0  0  0  0  0  0  0  0  0
    9.1944  -15.2344   28.6718 C   0  0  0  0  0  0  0  0  0  0  0  0
    8.8462  -15.5192   27.3881 C   0  0  0  0  0  0  0  0  0  0  0  0
    9.6957  -16.9699   24.8636 C   0  0  0  0  0  0  0  0  0  0  0  0
    8.7894  -17.8545   24.7748 O   0  0  0  0  0  0  0  0  0  0  0  0
   10.9012  -17.2794   25.5395 N   0  0  0  0  0  0  0  0  0  0  0  0
   11.1127  -18.6088   26.0713 C   0  0  1  0  0  0  0  0  0  0  0  0
   12.1775  -19.2569   25.2291 C   0  0  0  0  0  0  0  0  0  0  0  0
   12.5156  -20.5697   25.7704 C   0  0  0  0  0  0  0  0  0  0  0  0
   13.3245  -20.7665   26.7198 O   0  0  0  0  0  0  0  0  0  0  0  0
   11.4876  -18.5537   27.5068 C   0  0  0  0  0  0  0  0  0  0  0  0
   11.9199  -17.3821   28.0718 O   0  0  0  0  0  0  0  0  0  0  0  0
   11.8899  -21.6818   25.1845 O   0  0  0  0  0  0  0  0  0  0  0  0
   11.4171  -19.5782   28.2303 O   0  0  0  0  0  0  0  0  0  0  0  0
  2  1  1  6
  2  3  1  0
  3  4  1  0
  4  5  2  0
  5  6  1  0
  7  6  2  0
  8  7  1  0
  9  4  1  0
  9  8  2  0
 10  2  1  0
 11 10  2  0
 12 10  1  0
 13 21  1  0
 13 12  1  0
 13 14  1  1
 15 14  1  0
 16 15  2  0
 17 16  1  0
 18 19  1  0
 18 17  2  0
 19 20  2  0
 20 15  1  0
 21 23  1  0
 22 21  2  0
 23 24  1  0
 24 28  1  0
 25 26  1  0
 24 25  1  6
 26 27  2  0
 28 31  2  0
 28 29  1  0
 30 26  1  0
M  END
$$$$
