DKN.pdb
     RDKit          3D

 26 25  0  0  1  0  0  0  0  0999 V2000
   20.6667  -12.0197  -16.3831 N   0  0  0  0  0  0  0  0  0  0  0  0
   21.3655  -11.1276  -17.2632 C   0  0  1  0  0  0  0  0  0  0  0  0
   21.4832  -11.6796  -18.6712 C   0  0  0  0  0  0  0  0  0  0  0  0
   22.2770  -12.9430  -18.6409 C   0  0  0  0  0  0  0  0  0  0  0  0
   21.7600  -14.0036  -18.2591 O   0  0  0  0  0  0  0  0  0  0  0  0
   20.6540   -9.8355  -17.3046 C   0  0  0  0  0  0  0  0  0  0  0  0
   21.2299   -8.8967  -17.9406 O   0  0  0  0  0  0  0  0  0  0  0  0
   23.6004  -12.9682  -19.0339 O   0  0  0  0  0  0  0  0  0  0  0  0
   19.4064   -9.6771  -16.6663 N   0  0  0  0  0  0  0  0  0  0  0  0
   18.7226   -8.3869  -16.7328 C   0  0  1  0  0  0  0  0  0  0  0  0
   17.2742   -8.6398  -16.5054 C   0  0  0  0  0  0  0  0  0  0  0  0
   16.4078   -7.4107  -16.4121 C   0  0  0  0  0  0  0  0  0  0  0  0
   14.9852   -7.8900  -16.2051 C   0  0  0  0  0  0  0  0  0  0  0  0
   14.0034   -6.7834  -16.0061 C   0  0  0  0  0  0  0  0  0  0  0  0
   12.6336   -7.2018  -15.9469 N   0  0  0  0  0  0  0  0  0  0  0  0
   19.3592   -7.4499  -15.7727 C   0  0  0  0  0  0  0  0  0  0  0  0
   19.7498   -7.9220  -14.6750 O   0  0  0  0  0  0  0  0  0  0  0  0
   22.1001   -4.4800  -12.6741 N   0  0  0  0  0  0  0  0  0  0  0  0
   22.4525   -4.8033  -14.0216 C   0  0  0  0  0  0  0  0  0  0  0  0
   23.5066   -4.2700  -14.4393 O   0  0  0  0  0  0  0  0  0  0  0  0
   21.5865   -5.7034  -14.7910 C   0  0  0  0  0  0  0  0  0  0  0  0
   20.2390   -5.1583  -15.1520 C   0  0  2  0  0  0  0  0  0  0  0  0
   19.5346   -6.0708  -16.0523 N   0  0  0  0  0  0  0  0  0  0  0  0
   20.2775   -3.8305  -15.8040 C   0  0  0  0  0  0  0  0  0  0  0  0
   20.4585   -3.8018  -17.0595 O   0  0  0  0  0  0  0  0  0  0  0  0
   20.1364   -2.6160  -15.1904 O   0  0  0  0  0  0  0  0  0  0  0  0
  2  1  1  1
  3  2  1  0
  3  4  1  0
  4  5  2  0
  6  2  1  0
  6  7  2  0
  8  4  1  0
  9  6  1  0
 10  9  1  0
 10 11  1  1
 11 12  1  0
 13 12  1  0
 13 14  1  0
 14 15  1  0
 16 10  1  0
 17 16  2  0
 18 19  1  0
 19 20  2  0
 21 19  1  0
 22 21  1  6
 22 23  1  0
 22 24  1  0
 23 16  1  0
 24 26  1  0
 25 24  2  0
M  END
$$$$
