DKN.pdb
     RDKit          3D

 26 25  0  0  1  0  0  0  0  0999 V2000
   13.4490   -9.9656  -11.3173 N   0  0  0  0  0  0  0  0  0  0  0  0
   14.8658   -9.9615  -11.0908 C   0  0  1  0  0  0  0  0  0  0  0  0
   15.6169  -10.7916  -12.1144 C   0  0  0  0  0  0  0  0  0  0  0  0
   15.2774  -12.2326  -11.9259 C   0  0  0  0  0  0  0  0  0  0  0  0
   14.5440  -12.5907  -10.9922 O   0  0  0  0  0  0  0  0  0  0  0  0
   15.3575   -8.5710  -11.1361 C   0  0  0  0  0  0  0  0  0  0  0  0
   15.0347   -7.8936  -12.1631 O   0  0  0  0  0  0  0  0  0  0  0  0
   15.7660  -13.2022  -12.7788 O   0  0  0  0  0  0  0  0  0  0  0  0
   16.1399   -8.0469  -10.0863 N   0  0  0  0  0  0  0  0  0  0  0  0
   16.6558   -6.6827  -10.1848 C   0  0  1  0  0  0  0  0  0  0  0  0
   16.3237   -5.9894   -8.9110 C   0  0  0  0  0  0  0  0  0  0  0  0
   14.9030   -5.5031   -8.7883 C   0  0  0  0  0  0  0  0  0  0  0  0
   14.7654   -4.8902   -7.4092 C   0  0  0  0  0  0  0  0  0  0  0  0
   13.3800   -4.4338   -7.0923 C   0  0  0  0  0  0  0  0  0  0  0  0
   13.1833   -4.0153   -5.7354 N   0  0  0  0  0  0  0  0  0  0  0  0
   18.1018   -6.7333  -10.5188 C   0  0  0  0  0  0  0  0  0  0  0  0
   18.8047   -7.5878   -9.9219 O   0  0  0  0  0  0  0  0  0  0  0  0
   21.6333   -7.7109  -14.5512 N   0  0  0  0  0  0  0  0  0  0  0  0
   21.4730   -7.8146  -13.1341 C   0  0  0  0  0  0  0  0  0  0  0  0
   22.4910   -8.1924  -12.5089 O   0  0  0  0  0  0  0  0  0  0  0  0
   20.1754   -7.4836  -12.5349 C   0  0  0  0  0  0  0  0  0  0  0  0
   20.0355   -6.0845  -12.0190 C   0  0  2  0  0  0  0  0  0  0  0  0
   18.6978   -5.8659  -11.4691 N   0  0  0  0  0  0  0  0  0  0  0  0
   20.2757   -5.0369  -13.0361 C   0  0  0  0  0  0  0  0  0  0  0  0
   21.4744   -4.6620  -13.2160 O   0  0  0  0  0  0  0  0  0  0  0  0
   19.3320   -4.4226  -13.8130 O   0  0  0  0  0  0  0  0  0  0  0  0
  2  1  1  6
  3  2  1  0
  3  4  1  0
  4  5  2  0
  6  2  1  0
  6  7  2  0
  8  4  1  0
  9  6  1  0
 10  9  1  0
 10 11  1  1
 11 12  1  0
 13 12  1  0
 13 14  1  0
 14 15  1  0
 16 10  1  0
 17 16  2  0
 18 19  1  0
 19 20  2  0
 21 19  1  0
 22 21  1  6
 22 23  1  0
 22 24  1  0
 23 16  1  0
 24 26  1  0
 25 24  2  0
M  END
$$$$
