DKN.pdb
     RDKit          3D

 26 25  0  0  1  0  0  0  0  0999 V2000
   14.3327  -10.4563  -11.9020 N   0  0  0  0  0  0  0  0  0  0  0  0
   15.6429  -10.0827  -11.4519 C   0  0  1  0  0  0  0  0  0  0  0  0
   16.7163  -10.3919  -12.4780 C   0  0  0  0  0  0  0  0  0  0  0  0
   16.7771  -11.8666  -12.6992 C   0  0  0  0  0  0  0  0  0  0  0  0
   16.3778  -12.6520  -11.8265 O   0  0  0  0  0  0  0  0  0  0  0  0
   15.6564   -8.6377  -11.1533 C   0  0  0  0  0  0  0  0  0  0  0  0
   15.2149   -7.8706  -12.0668 O   0  0  0  0  0  0  0  0  0  0  0  0
   17.2759  -12.3960  -13.8728 O   0  0  0  0  0  0  0  0  0  0  0  0
   16.1375   -8.1601   -9.9166 N   0  0  0  0  0  0  0  0  0  0  0  0
   16.1490   -6.7218   -9.6557 C   0  0  1  0  0  0  0  0  0  0  0  0
   15.4670   -6.5016   -8.3519 C   0  0  0  0  0  0  0  0  0  0  0  0
   13.9644   -6.4106   -8.4129 C   0  0  0  0  0  0  0  0  0  0  0  0
   13.4942   -5.9716   -7.0408 C   0  0  0  0  0  0  0  0  0  0  0  0
   12.0118   -5.8358   -6.9308 C   0  0  0  0  0  0  0  0  0  0  0  0
   11.5352   -5.5233   -5.6155 N   0  0  0  0  0  0  0  0  0  0  0  0
   17.5467   -6.2261   -9.7298 C   0  0  0  0  0  0  0  0  0  0  0  0
   18.3356   -6.5784   -8.8167 O   0  0  0  0  0  0  0  0  0  0  0  0
   22.0581   -5.5376  -12.1262 N   0  0  0  0  0  0  0  0  0  0  0  0
   21.2700   -6.7307  -12.1171 C   0  0  0  0  0  0  0  0  0  0  0  0
   21.8347   -7.7459  -12.5865 O   0  0  0  0  0  0  0  0  0  0  0  0
   19.9062   -6.6830  -11.5786 C   0  0  0  0  0  0  0  0  0  0  0  0
   19.4067   -5.3249  -11.1925 C   0  0  2  0  0  0  0  0  0  0  0  0
   18.0058   -5.3866  -10.7764 N   0  0  0  0  0  0  0  0  0  0  0  0
   19.5079   -4.3138  -12.2682 C   0  0  0  0  0  0  0  0  0  0  0  0
   20.4786   -3.4986  -12.2137 O   0  0  0  0  0  0  0  0  0  0  0  0
   18.6566   -4.1628  -13.3284 O   0  0  0  0  0  0  0  0  0  0  0  0
  2  1  1  6
  3  2  1  0
  3  4  1  0
  4  5  2  0
  6  2  1  0
  6  7  2  0
  8  4  1  0
  9  6  1  0
 10  9  1  0
 10 11  1  1
 11 12  1  0
 13 12  1  0
 13 14  1  0
 14 15  1  0
 16 10  1  0
 17 16  2  0
 18 19  1  0
 19 20  2  0
 21 19  1  0
 22 21  1  6
 22 23  1  0
 22 24  1  0
 23 16  1  0
 24 26  1  0
 25 24  2  0
M  END
$$$$
