DKN.pdb
     RDKit          3D

 26 25  0  0  1  0  0  0  0  0999 V2000
   16.2709  -11.2945  -15.0239 N   0  0  0  0  0  0  0  0  0  0  0  0
   16.7220  -10.2974  -15.9519 C   0  0  1  0  0  0  0  0  0  0  0  0
   15.7976   -9.0959  -16.0036 C   0  0  0  0  0  0  0  0  0  0  0  0
   14.5028   -9.4963  -16.6287 C   0  0  0  0  0  0  0  0  0  0  0  0
   13.4303   -9.0411  -16.2042 O   0  0  0  0  0  0  0  0  0  0  0  0
   18.0750   -9.8545  -15.5640 C   0  0  0  0  0  0  0  0  0  0  0  0
   18.1922   -9.3607  -14.3977 O   0  0  0  0  0  0  0  0  0  0  0  0
   14.4613  -10.3785  -17.6900 O   0  0  0  0  0  0  0  0  0  0  0  0
   19.1603   -9.9826  -16.4554 N   0  0  0  0  0  0  0  0  0  0  0  0
   20.4762   -9.4803  -16.0643 C   0  0  1  0  0  0  0  0  0  0  0  0
   21.4801  -10.1275  -16.9514 C   0  0  0  0  0  0  0  0  0  0  0  0
   22.9083   -9.6992  -16.7356 C   0  0  0  0  0  0  0  0  0  0  0  0
   23.6442  -10.8939  -16.1632 C   0  0  0  0  0  0  0  0  0  0  0  0
   25.0819  -10.6251  -15.8649 C   0  0  0  0  0  0  0  0  0  0  0  0
   25.8050  -11.7476  -15.3435 N   0  0  0  0  0  0  0  0  0  0  0  0
   20.4609   -7.9960  -16.1040 C   0  0  0  0  0  0  0  0  0  0  0  0
   19.7170   -7.4469  -16.9556 O   0  0  0  0  0  0  0  0  0  0  0  0
   20.7458   -2.9847  -14.8039 N   0  0  0  0  0  0  0  0  0  0  0  0
   19.5957   -3.8340  -14.7846 C   0  0  0  0  0  0  0  0  0  0  0  0
   18.5062   -3.2510  -14.5771 O   0  0  0  0  0  0  0  0  0  0  0  0
   19.7667   -5.2749  -15.0011 C   0  0  0  0  0  0  0  0  0  0  0  0
   21.1759   -5.7386  -15.2073 C   0  0  2  0  0  0  0  0  0  0  0  0
   21.2430   -7.1997  -15.2294 N   0  0  0  0  0  0  0  0  0  0  0  0
   22.1265   -5.2645  -14.1772 C   0  0  0  0  0  0  0  0  0  0  0  0
   22.2064   -5.9358  -13.1035 O   0  0  0  0  0  0  0  0  0  0  0  0
   22.9387   -4.1668  -14.2601 O   0  0  0  0  0  0  0  0  0  0  0  0
  2  1  1  1
  3  2  1  0
  3  4  1  0
  4  5  2  0
  6  2  1  0
  6  7  2  0
  8  4  1  0
  9  6  1  0
 10  9  1  0
 10 11  1  6
 11 12  1  0
 13 12  1  0
 13 14  1  0
 14 15  1  0
 16 10  1  0
 17 16  2  0
 18 19  1  0
 19 20  2  0
 21 19  1  0
 22 21  1  1
 22 23  1  0
 22 24  1  0
 23 16  1  0
 24 26  1  0
 25 24  2  0
M  END
$$$$
