DKN.pdb
     RDKit          3D

 26 25  0  0  1  0  0  0  0  0999 V2000
   20.1279  -21.3762  -12.0174 N   0  0  0  0  0  0  0  0  0  0  0  0
   20.2336  -21.6711  -13.4176 C   0  0  1  0  0  0  0  0  0  0  0  0
   18.9055  -21.5370  -14.1382 C   0  0  0  0  0  0  0  0  0  0  0  0
   17.9352  -22.5188  -13.5707 C   0  0  0  0  0  0  0  0  0  0  0  0
   18.0709  -23.7332  -13.7816 O   0  0  0  0  0  0  0  0  0  0  0  0
   21.2148  -20.7552  -14.0307 C   0  0  0  0  0  0  0  0  0  0  0  0
   20.9680  -19.5122  -13.9222 O   0  0  0  0  0  0  0  0  0  0  0  0
   16.8660  -22.1070  -12.8002 O   0  0  0  0  0  0  0  0  0  0  0  0
   22.3541  -21.2561  -14.6940 N   0  0  0  0  0  0  0  0  0  0  0  0
   23.3333  -20.3224  -15.2476 C   0  0  1  0  0  0  0  0  0  0  0  0
   24.6403  -21.0310  -15.3033 C   0  0  0  0  0  0  0  0  0  0  0  0
   25.6949  -20.5224  -14.3551 C   0  0  0  0  0  0  0  0  0  0  0  0
   25.6316  -21.3952  -13.1177 C   0  0  0  0  0  0  0  0  0  0  0  0
   26.6383  -21.0324  -12.0770 C   0  0  0  0  0  0  0  0  0  0  0  0
   26.6017  -21.8480  -10.8988 N   0  0  0  0  0  0  0  0  0  0  0  0
   22.8349  -19.8116  -16.5498 C   0  0  0  0  0  0  0  0  0  0  0  0
   21.6837  -20.1664  -16.9091 O   0  0  0  0  0  0  0  0  0  0  0  0
   21.8972  -15.6593  -19.4924 N   0  0  0  0  0  0  0  0  0  0  0  0
   21.5714  -15.8568  -18.1142 C   0  0  0  0  0  0  0  0  0  0  0  0
   20.7744  -15.0200  -17.6299 O   0  0  0  0  0  0  0  0  0  0  0  0
   22.1716  -16.9837  -17.3917 C   0  0  0  0  0  0  0  0  0  0  0  0
   23.0083  -17.9130  -18.2160 C   0  0  2  0  0  0  0  0  0  0  0  0
   23.6026  -18.9556  -17.3796 N   0  0  0  0  0  0  0  0  0  0  0  0
   24.1087  -17.2486  -18.9489 C   0  0  0  0  0  0  0  0  0  0  0  0
   25.1153  -16.8720  -18.2746 O   0  0  0  0  0  0  0  0  0  0  0  0
   24.1576  -16.9946  -20.2923 O   0  0  0  0  0  0  0  0  0  0  0  0
  2  1  1  1
  3  2  1  0
  3  4  1  0
  4  5  2  0
  6  2  1  0
  6  7  2  0
  8  4  1  0
  9  6  1  0
 10  9  1  0
 10 11  1  6
 11 12  1  0
 13 12  1  0
 13 14  1  0
 14 15  1  0
 16 10  1  0
 17 16  2  0
 18 19  1  0
 19 20  2  0
 21 19  1  0
 22 21  1  1
 22 23  1  0
 22 24  1  0
 23 16  1  0
 24 26  1  0
 25 24  2  0
M  END
$$$$
