DKN.pdb
     RDKit          3D

 26 25  0  0  1  0  0  0  0  0999 V2000
   19.0296  -15.4791  -16.2152 N   0  0  0  0  0  0  0  0  0  0  0  0
   19.9414  -14.6664  -16.9681 C   0  0  1  0  0  0  0  0  0  0  0  0
   20.2161  -15.2331  -18.3481 C   0  0  0  0  0  0  0  0  0  0  0  0
   20.9000  -16.5527  -18.2123 C   0  0  0  0  0  0  0  0  0  0  0  0
   22.1350  -16.6337  -18.2902 O   0  0  0  0  0  0  0  0  0  0  0  0
   19.3796  -13.3086  -17.1023 C   0  0  0  0  0  0  0  0  0  0  0  0
   20.0848  -12.4695  -17.7473 O   0  0  0  0  0  0  0  0  0  0  0  0
   20.1834  -17.7132  -17.9977 O   0  0  0  0  0  0  0  0  0  0  0  0
   18.1284  -12.9856  -16.5373 N   0  0  0  0  0  0  0  0  0  0  0  0
   17.6099  -11.6250  -16.6668 C   0  0  1  0  0  0  0  0  0  0  0  0
   16.1558  -11.6724  -16.3557 C   0  0  0  0  0  0  0  0  0  0  0  0
   15.2448  -11.8633  -17.5404 C   0  0  0  0  0  0  0  0  0  0  0  0
   14.5892  -13.2198  -17.3771 C   0  0  0  0  0  0  0  0  0  0  0  0
   13.6603  -13.5739  -18.4907 C   0  0  0  0  0  0  0  0  0  0  0  0
   13.0528  -14.8671  -18.3751 N   0  0  0  0  0  0  0  0  0  0  0  0
   18.4109  -10.7164  -15.8077 C   0  0  0  0  0  0  0  0  0  0  0  0
   18.7181  -11.1259  -14.6596 O   0  0  0  0  0  0  0  0  0  0  0  0
   21.3259   -6.8140  -13.9597 N   0  0  0  0  0  0  0  0  0  0  0  0
   21.8647   -7.4927  -15.0971 C   0  0  0  0  0  0  0  0  0  0  0  0
   23.0565   -7.2161  -15.3675 O   0  0  0  0  0  0  0  0  0  0  0  0
   21.0150   -8.4302  -15.8394 C   0  0  0  0  0  0  0  0  0  0  0  0
   19.5903   -8.5161  -15.3852 C   0  0  2  0  0  0  0  0  0  0  0  0
   18.8291   -9.4308  -16.2357 N   0  0  0  0  0  0  0  0  0  0  0  0
   18.8781   -7.2191  -15.3764 C   0  0  0  0  0  0  0  0  0  0  0  0
   18.3316   -6.8459  -16.4590 O   0  0  0  0  0  0  0  0  0  0  0  0
   18.7437   -6.3694  -14.3127 O   0  0  0  0  0  0  0  0  0  0  0  0
  2  1  1  6
  3  2  1  0
  3  4  1  0
  4  5  2  0
  6  2  1  0
  6  7  2  0
  8  4  1  0
  9  6  1  0
 10  9  1  0
 10 11  1  1
 11 12  1  0
 13 12  1  0
 13 14  1  0
 14 15  1  0
 16 10  1  0
 17 16  2  0
 18 19  1  0
 19 20  2  0
 21 19  1  0
 22 21  1  6
 22 23  1  0
 22 24  1  0
 23 16  1  0
 24 26  1  0
 25 24  2  0
M  END
$$$$
