DKN.pdb
     RDKit          3D

 26 25  0  0  1  0  0  0  0  0999 V2000
   15.9429  -10.8354  -14.9145 N   0  0  0  0  0  0  0  0  0  0  0  0
   16.4203   -9.7697  -15.7482 C   0  0  1  0  0  0  0  0  0  0  0  0
   15.5164   -8.5523  -15.7039 C   0  0  0  0  0  0  0  0  0  0  0  0
   14.2619   -8.8417  -16.4587 C   0  0  0  0  0  0  0  0  0  0  0  0
   14.1048   -9.9334  -17.0256 O   0  0  0  0  0  0  0  0  0  0  0  0
   17.7762   -9.3856  -15.3108 C   0  0  0  0  0  0  0  0  0  0  0  0
   17.9246   -9.1660  -14.0668 O   0  0  0  0  0  0  0  0  0  0  0  0
   13.2471   -7.9097  -16.5476 O   0  0  0  0  0  0  0  0  0  0  0  0
   18.8309   -9.2754  -16.2405 N   0  0  0  0  0  0  0  0  0  0  0  0
   20.1868   -9.0104  -15.7627 C   0  0  1  0  0  0  0  0  0  0  0  0
   21.1252   -9.7191  -16.6741 C   0  0  0  0  0  0  0  0  0  0  0  0
   21.0626  -11.2237  -16.6276 C   0  0  0  0  0  0  0  0  0  0  0  0
   22.2113  -11.7381  -17.4717 C   0  0  0  0  0  0  0  0  0  0  0  0
   22.3059  -13.2273  -17.5106 C   0  0  0  0  0  0  0  0  0  0  0  0
   23.4480  -13.7364  -18.2115 N   0  0  0  0  0  0  0  0  0  0  0  0
   20.3887   -7.5426  -15.6641 C   0  0  0  0  0  0  0  0  0  0  0  0
   19.9678   -6.8348  -16.6139 O   0  0  0  0  0  0  0  0  0  0  0  0
   21.0197   -2.8215  -15.3360 N   0  0  0  0  0  0  0  0  0  0  0  0
   19.8673   -3.4015  -14.7195 C   0  0  0  0  0  0  0  0  0  0  0  0
   18.8612   -2.6567  -14.6634 O   0  0  0  0  0  0  0  0  0  0  0  0
   19.9420   -4.7770  -14.2148 C   0  0  0  0  0  0  0  0  0  0  0  0
   21.2386   -5.4876  -14.4534 C   0  0  2  0  0  0  0  0  0  0  0  0
   21.0275   -6.9314  -14.5554 N   0  0  0  0  0  0  0  0  0  0  0  0
   22.2566   -5.2592  -13.4041 C   0  0  0  0  0  0  0  0  0  0  0  0
   22.4124   -6.1694  -12.5340 O   0  0  0  0  0  0  0  0  0  0  0  0
   23.0579   -4.1585  -13.2707 O   0  0  0  0  0  0  0  0  0  0  0  0
  2  1  1  1
  3  2  1  0
  3  4  1  0
  4  5  2  0
  6  2  1  0
  6  7  2  0
  8  4  1  0
  9  6  1  0
 10  9  1  0
 10 11  1  6
 11 12  1  0
 13 12  1  0
 13 14  1  0
 14 15  1  0
 16 10  1  0
 17 16  2  0
 18 19  1  0
 19 20  2  0
 21 19  1  0
 22 21  1  1
 22 23  1  0
 22 24  1  0
 23 16  1  0
 24 26  1  0
 25 24  2  0
M  END
$$$$
