EQG.pdb
     RDKit          3D

 23 22  0  0  1  0  0  0  0  0999 V2000
   22.1959  -14.3830  -17.1102 N   0  0  0  0  0  0  0  0  0  0  0  0
   21.7715  -13.0215  -17.0929 C   0  0  1  0  0  0  0  0  0  0  0  0
   20.3971  -12.8865  -16.4872 C   0  0  0  0  0  0  0  0  0  0  0  0
   19.3949  -13.7937  -17.1712 C   0  0  0  0  0  0  0  0  0  0  0  0
   18.0527  -13.6003  -16.5706 C   0  0  0  0  0  0  0  0  0  0  0  0
   17.2844  -12.7579  -17.0665 O   0  0  0  0  0  0  0  0  0  0  0  0
   22.7597  -12.1209  -16.4328 C   0  0  0  0  0  0  0  0  0  0  0  0
   23.2600  -12.4492  -15.3321 O   0  0  0  0  0  0  0  0  0  0  0  0
   17.6450  -14.3435  -15.4679 O   0  0  0  0  0  0  0  0  0  0  0  0
   27.5160  -10.2917  -18.8733 N   0  0  0  0  0  0  0  0  0  0  0  0
   27.5965   -9.2625  -17.8948 C   0  0  0  0  0  0  0  0  0  0  0  0
   28.6305   -8.5541  -17.8115 O   0  0  0  0  0  0  0  0  0  0  0  0
   26.4163   -9.0869  -17.0071 C   0  0  0  0  0  0  0  0  0  0  0  0
   25.2972  -10.0046  -17.3234 C   0  0  0  0  0  0  0  0  0  0  0  0
   24.1253   -9.9957  -16.3860 C   0  0  2  0  0  0  0  0  0  0  0  0
   23.1449  -10.9024  -17.0231 N   0  0  0  0  0  0  0  0  0  0  0  0
   23.4456   -8.6982  -16.2527 C   0  0  0  0  0  0  0  0  0  0  0  0
   22.7472   -8.2688  -17.1949 O   0  0  0  0  0  0  0  0  0  0  0  0
   23.5726   -7.9361  -15.0722 N   0  0  0  0  0  0  0  0  0  0  0  0
   22.9998   -6.5891  -15.0808 C   0  0  0  0  0  0  0  0  0  0  0  0
   21.7945   -6.5238  -14.2382 C   0  0  0  0  0  0  0  0  0  0  0  0
   21.3143   -7.5692  -13.7535 O   0  0  0  0  0  0  0  0  0  0  0  0
   21.1588   -5.3374  -13.9540 O   0  0  0  0  0  0  0  0  0  0  0  0
  2  1  1  1
  2  3  1  0
  3  4  1  0
  4  5  1  0
  5  6  2  0
  5  9  1  0
  7  8  2  0
  7  2  1  0
 10 11  1  0
 11 12  2  0
 11 13  1  0
 13 14  1  0
 15 14  1  6
 15 16  1  0
 16  7  1  0
 17 19  1  0
 17 15  1  0
 18 17  2  0
 20 19  1  0
 21 20  1  0
 22 21  2  0
 23 21  1  0
M  END
$$$$
