EQG.pdb
     RDKit          3D

 23 22  0  0  1  0  0  0  0  0999 V2000
   17.6023   -9.6064  -18.7189 N   0  0  0  0  0  0  0  0  0  0  0  0
   18.4003   -8.4318  -18.5853 C   0  0  1  0  0  0  0  0  0  0  0  0
   17.9289   -7.3436  -19.5168 C   0  0  0  0  0  0  0  0  0  0  0  0
   17.8955   -7.8169  -20.9555 C   0  0  0  0  0  0  0  0  0  0  0  0
   17.5322   -6.6881  -21.8460 C   0  0  0  0  0  0  0  0  0  0  0  0
   17.0168   -6.9317  -22.9510 O   0  0  0  0  0  0  0  0  0  0  0  0
   18.4884   -7.9554  -17.1750 C   0  0  0  0  0  0  0  0  0  0  0  0
   17.5715   -8.2332  -16.3677 O   0  0  0  0  0  0  0  0  0  0  0  0
   17.7586   -5.3699  -21.4643 O   0  0  0  0  0  0  0  0  0  0  0  0
   22.6454   -9.6045  -13.9642 N   0  0  0  0  0  0  0  0  0  0  0  0
   22.3285   -8.5859  -13.0233 C   0  0  0  0  0  0  0  0  0  0  0  0
   22.8950   -8.5677  -11.9022 O   0  0  0  0  0  0  0  0  0  0  0  0
   21.3169   -7.5787  -13.4402 C   0  0  0  0  0  0  0  0  0  0  0  0
   20.7592   -7.8251  -14.7904 C   0  0  0  0  0  0  0  0  0  0  0  0
   19.7617   -6.8293  -15.3058 C   0  0  2  0  0  0  0  0  0  0  0  0
   19.5861   -7.1957  -16.7285 N   0  0  0  0  0  0  0  0  0  0  0  0
   20.2204   -5.4319  -15.3040 C   0  0  0  0  0  0  0  0  0  0  0  0
   20.3182   -4.8169  -14.2213 O   0  0  0  0  0  0  0  0  0  0  0  0
   20.5528   -4.7809  -16.5107 N   0  0  0  0  0  0  0  0  0  0  0  0
   20.9411   -3.3722  -16.4259 C   0  0  0  0  0  0  0  0  0  0  0  0
   21.3781   -2.8663  -17.7374 C   0  0  0  0  0  0  0  0  0  0  0  0
   21.4116   -3.6324  -18.7225 O   0  0  0  0  0  0  0  0  0  0  0  0
   21.7597   -1.5591  -17.9319 O   0  0  0  0  0  0  0  0  0  0  0  0
  2  1  1  1
  2  3  1  0
  3  4  1  0
  4  5  1  0
  5  6  2  0
  5  9  1  0
  7  8  2  0
  7  2  1  0
 10 11  1  0
 11 12  2  0
 11 13  1  0
 13 14  1  0
 15 14  1  6
 15 16  1  0
 16  7  1  0
 17 19  1  0
 17 15  1  0
 18 17  2  0
 20 19  1  0
 21 20  1  0
 22 21  2  0
 23 21  1  0
M  END
$$$$
