EQG.pdb
     RDKit          3D

 23 22  0  0  1  0  0  0  0  0999 V2000
   19.6969  -10.2201  -18.0153 N   0  0  0  0  0  0  0  0  0  0  0  0
   19.2644   -9.9066  -16.6928 C   0  0  1  0  0  0  0  0  0  0  0  0
   18.4165  -11.0142  -16.1196 C   0  0  0  0  0  0  0  0  0  0  0  0
   18.8220  -12.3672  -16.6673 C   0  0  0  0  0  0  0  0  0  0  0  0
   18.0427  -13.4342  -15.9939 C   0  0  0  0  0  0  0  0  0  0  0  0
   18.6412  -14.2694  -15.2938 O   0  0  0  0  0  0  0  0  0  0  0  0
   20.3952   -9.5489  -15.7891 C   0  0  0  0  0  0  0  0  0  0  0  0
   20.1753   -9.3365  -14.5741 O   0  0  0  0  0  0  0  0  0  0  0  0
   16.6612  -13.5125  -16.1341 O   0  0  0  0  0  0  0  0  0  0  0  0
   26.1185  -11.1315  -16.9766 N   0  0  0  0  0  0  0  0  0  0  0  0
   26.3958  -10.4240  -15.7741 C   0  0  0  0  0  0  0  0  0  0  0  0
   27.5399  -10.4845  -15.2590 O   0  0  0  0  0  0  0  0  0  0  0  0
   25.2799   -9.6353  -15.1872 C   0  0  0  0  0  0  0  0  0  0  0  0
   24.0324   -9.6928  -15.9842 C   0  0  0  0  0  0  0  0  0  0  0  0
   22.8317   -8.9925  -15.4186 C   0  0  2  0  0  0  0  0  0  0  0  0
   21.7124   -9.4442  -16.2744 N   0  0  0  0  0  0  0  0  0  0  0  0
   22.8572   -7.5262  -15.5305 C   0  0  0  0  0  0  0  0  0  0  0  0
   22.6704   -6.9898  -16.6428 O   0  0  0  0  0  0  0  0  0  0  0  0
   23.0878   -6.7207  -14.3954 N   0  0  0  0  0  0  0  0  0  0  0  0
   23.0942   -5.2706  -14.5943 C   0  0  0  0  0  0  0  0  0  0  0  0
   21.7604   -4.6990  -14.3469 C   0  0  0  0  0  0  0  0  0  0  0  0
   21.6097   -3.4604  -14.3063 O   0  0  0  0  0  0  0  0  0  0  0  0
   20.6476   -5.4843  -14.1542 O   0  0  0  0  0  0  0  0  0  0  0  0
  2  1  1  6
  2  3  1  0
  3  4  1  0
  4  5  1  0
  5  6  2  0
  5  9  1  0
  7  8  2  0
  7  2  1  0
 10 11  1  0
 11 12  2  0
 11 13  1  0
 13 14  1  0
 15 14  1  6
 15 16  1  0
 16  7  1  0
 17 19  1  0
 17 15  1  0
 18 17  2  0
 20 19  1  0
 21 20  1  0
 22 21  2  0
 23 21  1  0
M  END
$$$$
