EQG.pdb
     RDKit          3D

 23 22  0  0  1  0  0  0  0  0999 V2000
   28.3552  -21.7738  -16.7724 N   0  0  0  0  0  0  0  0  0  0  0  0
   27.6567  -20.7059  -16.1354 C   0  0  1  0  0  0  0  0  0  0  0  0
   27.3843  -19.5800  -17.1009 C   0  0  0  0  0  0  0  0  0  0  0  0
   28.6684  -18.9443  -17.5928 C   0  0  0  0  0  0  0  0  0  0  0  0
   29.0006  -19.4647  -18.9412 C   0  0  0  0  0  0  0  0  0  0  0  0
   28.1606  -19.3626  -19.8522 O   0  0  0  0  0  0  0  0  0  0  0  0
   26.4136  -21.1618  -15.4496 C   0  0  0  0  0  0  0  0  0  0  0  0
   25.7388  -22.0947  -15.9436 O   0  0  0  0  0  0  0  0  0  0  0  0
   30.2305  -20.0611  -19.1984 O   0  0  0  0  0  0  0  0  0  0  0  0
   25.8157  -20.3482   -9.4791 N   0  0  0  0  0  0  0  0  0  0  0  0
   24.5521  -20.9747   -9.6640 C   0  0  0  0  0  0  0  0  0  0  0  0
   23.8451  -21.2694   -8.6683 O   0  0  0  0  0  0  0  0  0  0  0  0
   24.1377  -21.2484  -11.0658 C   0  0  0  0  0  0  0  0  0  0  0  0
   25.1537  -20.8555  -12.0698 C   0  0  0  0  0  0  0  0  0  0  0  0
   24.7941  -21.0523  -13.5135 C   0  0  2  0  0  0  0  0  0  0  0  0
   25.9792  -20.5631  -14.2519 N   0  0  0  0  0  0  0  0  0  0  0  0
   23.6619  -20.2422  -13.9881 C   0  0  0  0  0  0  0  0  0  0  0  0
   23.7715  -18.9990  -14.0372 O   0  0  0  0  0  0  0  0  0  0  0  0
   22.4561  -20.8545  -14.3901 N   0  0  0  0  0  0  0  0  0  0  0  0
   21.3721  -19.9737  -14.8279 C   0  0  0  0  0  0  0  0  0  0  0  0
   20.3520  -19.8310  -13.7762 C   0  0  0  0  0  0  0  0  0  0  0  0
   19.8430  -18.7142  -13.5477 O   0  0  0  0  0  0  0  0  0  0  0  0
   19.9243  -20.8951  -13.0167 O   0  0  0  0  0  0  0  0  0  0  0  0
  2  1  1  6
  2  3  1  0
  3  4  1  0
  4  5  1  0
  5  6  2  0
  5  9  1  0
  7  8  2  0
  7  2  1  0
 10 11  1  0
 11 12  2  0
 11 13  1  0
 13 14  1  0
 15 14  1  1
 15 16  1  0
 16  7  1  0
 17 19  1  0
 17 15  1  0
 18 17  2  0
 20 19  1  0
 21 20  1  0
 22 21  2  0
 23 21  1  0
M  END
$$$$
