EQG.pdb
     RDKit          3D

 23 22  0  0  1  0  0  0  0  0999 V2000
   30.5837  -34.7798   -3.5372 N   0  0  0  0  0  0  0  0  0  0  0  0
   29.6162  -35.2492   -4.4740 C   0  0  1  0  0  0  0  0  0  0  0  0
   29.3241  -36.7143   -4.2682 C   0  0  0  0  0  0  0  0  0  0  0  0
   29.1073  -37.0393   -2.8045 C   0  0  0  0  0  0  0  0  0  0  0  0
   29.6758  -38.3743   -2.4982 C   0  0  0  0  0  0  0  0  0  0  0  0
   30.2141  -39.0257   -3.4103 O   0  0  0  0  0  0  0  0  0  0  0  0
   28.3706  -34.4294   -4.4718 C   0  0  0  0  0  0  0  0  0  0  0  0
   28.1163  -33.6897   -3.4932 O   0  0  0  0  0  0  0  0  0  0  0  0
   29.6153  -38.9036   -1.2134 O   0  0  0  0  0  0  0  0  0  0  0  0
   26.0096  -32.6122   -9.7085 N   0  0  0  0  0  0  0  0  0  0  0  0
   24.9514  -32.0959   -8.9104 C   0  0  0  0  0  0  0  0  0  0  0  0
   24.0448  -31.4055   -9.4390 O   0  0  0  0  0  0  0  0  0  0  0  0
   24.9882  -32.4163   -7.4586 C   0  0  0  0  0  0  0  0  0  0  0  0
   26.1660  -33.2221   -7.0609 C   0  0  0  0  0  0  0  0  0  0  0  0
   26.2752  -33.5967   -5.6118 C   0  0  2  0  0  0  0  0  0  0  0  0
   27.4689  -34.4689   -5.5521 N   0  0  0  0  0  0  0  0  0  0  0  0
   25.1609  -34.4041   -5.0926 C   0  0  0  0  0  0  0  0  0  0  0  0
   25.1878  -35.6462   -5.2210 O   0  0  0  0  0  0  0  0  0  0  0  0
   24.0648  -33.7908   -4.4501 N   0  0  0  0  0  0  0  0  0  0  0  0
   23.0244  -34.6711   -3.9160 C   0  0  0  0  0  0  0  0  0  0  0  0
   22.1333  -35.1444   -4.9879 C   0  0  0  0  0  0  0  0  0  0  0  0
   22.3383  -34.7965   -6.1692 O   0  0  0  0  0  0  0  0  0  0  0  0
   21.0614  -35.9707   -4.7424 O   0  0  0  0  0  0  0  0  0  0  0  0
  2  1  1  1
  2  3  1  0
  3  4  1  0
  4  5  1  0
  5  6  2  0
  5  9  1  0
  7  8  2  0
  7  2  1  0
 10 11  1  0
 11 12  2  0
 11 13  1  0
 13 14  1  0
 15 14  1  6
 15 16  1  0
 16  7  1  0
 17 19  1  0
 17 15  1  0
 18 17  2  0
 20 19  1  0
 21 20  1  0
 22 21  2  0
 23 21  1  0
M  END
$$$$
