EQG.pdb
     RDKit          3D

 23 22  0  0  1  0  0  0  0  0999 V2000
   24.9988  -19.0371  -15.7566 N   0  0  0  0  0  0  0  0  0  0  0  0
   24.3801  -20.2177  -16.2643 C   0  0  1  0  0  0  0  0  0  0  0  0
   25.2568  -21.4265  -16.0535 C   0  0  0  0  0  0  0  0  0  0  0  0
   26.5537  -21.0607  -15.3612 C   0  0  0  0  0  0  0  0  0  0  0  0
   27.6018  -22.0523  -15.7043 C   0  0  0  0  0  0  0  0  0  0  0  0
   27.3009  -23.0291  -16.4123 O   0  0  0  0  0  0  0  0  0  0  0  0
   23.0077  -20.4258  -15.7195 C   0  0  0  0  0  0  0  0  0  0  0  0
   22.3644  -21.4537  -16.0344 O   0  0  0  0  0  0  0  0  0  0  0  0
   28.9073  -21.9051  -15.2479 O   0  0  0  0  0  0  0  0  0  0  0  0
   21.4203  -18.7141  -10.2450 N   0  0  0  0  0  0  0  0  0  0  0  0
   21.9151  -19.9985  -10.6037 C   0  0  0  0  0  0  0  0  0  0  0  0
   22.4393  -20.7359   -9.7322 O   0  0  0  0  0  0  0  0  0  0  0  0
   21.7759  -20.3969  -12.0298 C   0  0  0  0  0  0  0  0  0  0  0  0
   21.1509  -19.3541  -12.8764 C   0  0  0  0  0  0  0  0  0  0  0  0
   21.0365  -19.6484  -14.3436 C   0  0  2  0  0  0  0  0  0  0  0  0
   22.4158  -19.4866  -14.8540 N   0  0  0  0  0  0  0  0  0  0  0  0
   20.2117  -18.6986  -15.1057 C   0  0  0  0  0  0  0  0  0  0  0  0
   18.9868  -18.6222  -14.8739 O   0  0  0  0  0  0  0  0  0  0  0  0
   20.7897  -17.8726  -16.0926 N   0  0  0  0  0  0  0  0  0  0  0  0
   19.8845  -17.0222  -16.8673 C   0  0  0  0  0  0  0  0  0  0  0  0
   19.8491  -15.6556  -16.3212 C   0  0  0  0  0  0  0  0  0  0  0  0
   20.5345  -15.3660  -15.3187 O   0  0  0  0  0  0  0  0  0  0  0  0
   19.0785  -14.6609  -16.8770 O   0  0  0  0  0  0  0  0  0  0  0  0
  2  1  1  1
  2  3  1  0
  3  4  1  0
  4  5  1  0
  5  6  2  0
  5  9  1  0
  7  8  2  0
  7  2  1  0
 10 11  1  0
 11 12  2  0
 11 13  1  0
 13 14  1  0
 15 14  1  1
 15 16  1  0
 16  7  1  0
 17 19  1  0
 17 15  1  0
 18 17  2  0
 20 19  1  0
 21 20  1  0
 22 21  2  0
 23 21  1  0
M  END
$$$$
