EQG.pdb
     RDKit          3D

 23 22  0  0  1  0  0  0  0  0999 V2000
   21.3791  -22.9693  -14.7238 N   0  0  0  0  0  0  0  0  0  0  0  0
   21.2026  -21.5567  -14.8100 C   0  0  1  0  0  0  0  0  0  0  0  0
   19.9710  -21.1144  -14.0605 C   0  0  0  0  0  0  0  0  0  0  0  0
   18.9574  -22.2342  -13.9435 C   0  0  0  0  0  0  0  0  0  0  0  0
   17.7332  -21.7339  -13.2724 C   0  0  0  0  0  0  0  0  0  0  0  0
   17.4234  -22.1934  -12.1594 O   0  0  0  0  0  0  0  0  0  0  0  0
   22.4141  -20.8000  -14.3821 C   0  0  0  0  0  0  0  0  0  0  0  0
   22.3464  -19.5593  -14.2218 O   0  0  0  0  0  0  0  0  0  0  0  0
   16.9329  -20.7643  -13.8673 O   0  0  0  0  0  0  0  0  0  0  0  0
   24.3418  -20.5451   -9.5414 N   0  0  0  0  0  0  0  0  0  0  0  0
   25.4443  -21.3310   -9.9773 C   0  0  0  0  0  0  0  0  0  0  0  0
   26.2356  -21.8249   -9.1359 O   0  0  0  0  0  0  0  0  0  0  0  0
   25.5933  -21.5225  -11.4446 C   0  0  0  0  0  0  0  0  0  0  0  0
   24.7374  -20.6191  -12.2483 C   0  0  0  0  0  0  0  0  0  0  0  0
   24.8567  -20.7197  -13.7410 C   0  0  2  0  0  0  0  0  0  0  0  0
   23.6397  -21.4535  -14.1529 N   0  0  0  0  0  0  0  0  0  0  0  0
   25.9920  -21.5219  -14.2213 C   0  0  0  0  0  0  0  0  0  0  0  0
   26.2414  -22.6209  -13.6828 O   0  0  0  0  0  0  0  0  0  0  0  0
   26.7994  -21.0644  -15.2839 N   0  0  0  0  0  0  0  0  0  0  0  0
   27.9008  -21.9301  -15.7079 C   0  0  0  0  0  0  0  0  0  0  0  0
   28.5661  -21.3886  -16.9042 C   0  0  0  0  0  0  0  0  0  0  0  0
   28.1498  -20.3338  -17.4264 O   0  0  0  0  0  0  0  0  0  0  0  0
   29.6494  -22.0050  -17.4862 O   0  0  0  0  0  0  0  0  0  0  0  0
  2  1  1  1
  2  3  1  0
  3  4  1  0
  4  5  1  0
  5  6  2  0
  5  9  1  0
  7  8  2  0
  7  2  1  0
 10 11  1  0
 11 12  2  0
 11 13  1  0
 13 14  1  0
 15 14  1  1
 15 16  1  0
 16  7  1  0
 17 19  1  0
 17 15  1  0
 18 17  2  0
 20 19  1  0
 21 20  1  0
 22 21  2  0
 23 21  1  0
M  END
$$$$
