EQG.pdb
     RDKit          3D

 23 22  0  0  1  0  0  0  0  0999 V2000
   19.3184  -14.3715  -16.1298 N   0  0  0  0  0  0  0  0  0  0  0  0
   18.6758  -13.1537  -16.5016 C   0  0  1  0  0  0  0  0  0  0  0  0
   17.3996  -12.9513  -15.7241 C   0  0  0  0  0  0  0  0  0  0  0  0
   16.3698  -14.0114  -16.0570 C   0  0  0  0  0  0  0  0  0  0  0  0
   15.3473  -14.0710  -14.9845 C   0  0  0  0  0  0  0  0  0  0  0  0
   14.5596  -13.1189  -14.8470 O   0  0  0  0  0  0  0  0  0  0  0  0
   19.5809  -11.9731  -16.3996 C   0  0  0  0  0  0  0  0  0  0  0  0
   20.3806  -11.8853  -15.4392 O   0  0  0  0  0  0  0  0  0  0  0  0
   15.2586  -15.1698  -14.1365 O   0  0  0  0  0  0  0  0  0  0  0  0
   23.4476   -9.9209  -18.4669 N   0  0  0  0  0  0  0  0  0  0  0  0
   23.0877   -8.6045  -18.8683 C   0  0  0  0  0  0  0  0  0  0  0  0
   23.9789   -7.7396  -19.0575 O   0  0  0  0  0  0  0  0  0  0  0  0
   21.6367   -8.3294  -19.0428 C   0  0  0  0  0  0  0  0  0  0  0  0
   20.7749   -9.5007  -18.7598 C   0  0  0  0  0  0  0  0  0  0  0  0
   20.4891   -9.8014  -17.3175 C   0  0  2  0  0  0  0  0  0  0  0  0
   19.5560  -10.9488  -17.3649 N   0  0  0  0  0  0  0  0  0  0  0  0
   19.7817   -8.7375  -16.5889 C   0  0  0  0  0  0  0  0  0  0  0  0
   18.5701   -8.5360  -16.8158 O   0  0  0  0  0  0  0  0  0  0  0  0
   20.4562   -7.9453  -15.6361 N   0  0  0  0  0  0  0  0  0  0  0  0
   19.7236   -6.8118  -15.0696 C   0  0  0  0  0  0  0  0  0  0  0  0
   20.5814   -6.0295  -14.1645 C   0  0  0  0  0  0  0  0  0  0  0  0
   21.7051   -6.4646  -13.8380 O   0  0  0  0  0  0  0  0  0  0  0  0
   20.1933   -4.8140  -13.6505 O   0  0  0  0  0  0  0  0  0  0  0  0
  2  1  1  1
  2  3  1  0
  3  4  1  0
  4  5  1  0
  5  6  2  0
  5  9  1  0
  7  8  2  0
  7  2  1  0
 10 11  1  0
 11 12  2  0
 11 13  1  0
 13 14  1  0
 15 14  1  6
 15 16  1  0
 16  7  1  0
 17 19  1  0
 17 15  1  0
 18 17  2  0
 20 19  1  0
 21 20  1  0
 22 21  2  0
 23 21  1  0
M  END
$$$$
