CVI.pdb
     RDKit          3D

 22 21  0  0  1  0  0  0  0  0999 V2000
    7.8307  -16.0461   20.8162 N   0  0  0  0  0  0  0  0  0  0  0  0
    7.1092  -16.0366   22.0587 C   0  0  1  0  0  0  0  0  0  0  0  0
    6.7287  -17.4425   22.4030 C   0  0  0  0  0  0  0  0  0  0  0  0
    5.8102  -17.4037   23.9691 S   0  0  0  0  0  0  0  0  0  0  0  0
    7.9092  -15.3646   23.1031 C   0  0  0  0  0  0  0  0  0  0  0  0
    9.1503  -15.5667   23.1803 O   0  0  0  0  0  0  0  0  0  0  0  0
    6.0122  -13.5113   26.3810 C   0  0  0  0  0  0  0  0  0  0  0  0
    7.1977  -12.8023   25.7346 C   0  0  1  0  0  0  0  0  0  0  0  0
    7.8860  -12.0181   26.8037 C   0  0  0  0  0  0  0  0  0  0  0  0
    8.1261  -13.8201   25.0750 C   0  0  2  0  0  0  0  0  0  0  0  0
    7.3237  -14.4776   24.0480 N   0  0  0  0  0  0  0  0  0  0  0  0
    8.5053  -14.7894   26.1305 C   0  0  0  0  0  0  0  0  0  0  0  0
    7.6745  -15.6647   26.4751 O   0  0  0  0  0  0  0  0  0  0  0  0
   12.8810  -17.1844   25.1308 C   0  0  0  0  0  0  0  0  0  0  0  0
   11.5579  -16.7697   25.6885 C   0  0  0  0  0  0  0  0  0  0  0  0
   11.6129  -16.3445   27.1389 C   0  0  2  0  0  0  0  0  0  0  0  0
   12.0489  -17.4722   28.0389 C   0  0  0  0  0  0  0  0  0  0  0  0
   10.2635  -15.8504   27.6111 C   0  0  2  0  0  0  0  0  0  0  0  0
    9.7658  -14.7765   26.7727 N   0  0  0  0  0  0  0  0  0  0  0  0
   10.4172  -15.3725   29.0300 C   0  0  0  0  0  0  0  0  0  0  0  0
   10.5911  -14.1314   29.2303 O   0  0  0  0  0  0  0  0  0  0  0  0
   10.3816  -16.1918   30.1233 O   0  0  0  0  0  0  0  0  0  0  0  0
  2  1  1  6
  3  2  1  0
  4  3  1  0
  5  2  1  0
  5  6  2  0
  8  7  1  1
  8 10  1  0
  9  8  1  0
 10 11  1  6
 10 12  1  0
 11  5  1  0
 12 19  1  0
 13 12  2  0
 15 14  1  0
 16 17  1  1
 16 15  1  0
 18 16  1  0
 18 19  1  6
 20 22  1  0
 20 18  1  0
 21 20  2  0
M  END
$$$$
