CVI.pdb
     RDKit          3D

 22 21  0  0  1  0  0  0  0  0999 V2000
    7.9935  -14.4649   17.3884 N   0  0  0  0  0  0  0  0  0  0  0  0
    8.8029  -14.6294   18.5640 C   0  0  1  0  0  0  0  0  0  0  0  0
    9.6654  -13.4171   18.7258 C   0  0  0  0  0  0  0  0  0  0  0  0
    8.6001  -12.0401   19.2425 S   0  0  0  0  0  0  0  0  0  0  0  0
    7.9451  -14.9091   19.7337 C   0  0  0  0  0  0  0  0  0  0  0  0
    6.7470  -14.5201   19.7497 O   0  0  0  0  0  0  0  0  0  0  0  0
    6.7631  -17.9366   20.9086 C   0  0  0  0  0  0  0  0  0  0  0  0
    7.4499  -17.3718   22.1477 C   0  0  1  0  0  0  0  0  0  0  0  0
    8.7782  -18.0446   22.2676 C   0  0  0  0  0  0  0  0  0  0  0  0
    7.5782  -15.8539   22.0345 C   0  0  2  0  0  0  0  0  0  0  0  0
    8.4259  -15.6159   20.8701 N   0  0  0  0  0  0  0  0  0  0  0  0
    8.2594  -15.3962   23.2690 C   0  0  0  0  0  0  0  0  0  0  0  0
    9.5131  -15.4289   23.3159 O   0  0  0  0  0  0  0  0  0  0  0  0
    5.5845  -11.6214   26.0941 C   0  0  0  0  0  0  0  0  0  0  0  0
    6.6526  -12.4387   25.4422 C   0  0  0  0  0  0  0  0  0  0  0  0
    7.2771  -13.4686   26.3570 C   0  0  2  0  0  0  0  0  0  0  0  0
    8.0597  -12.8271   27.4740 C   0  0  0  0  0  0  0  0  0  0  0  0
    8.2033  -14.3855   25.5894 C   0  0  2  0  0  0  0  0  0  0  0  0
    7.5614  -14.9212   24.4042 N   0  0  0  0  0  0  0  0  0  0  0  0
    8.6119  -15.5047   26.5091 C   0  0  0  0  0  0  0  0  0  0  0  0
    7.8461  -16.5121   26.6065 O   0  0  0  0  0  0  0  0  0  0  0  0
    9.7599  -15.5077   27.2506 O   0  0  0  0  0  0  0  0  0  0  0  0
  2  1  1  6
  3  2  1  0
  4  3  1  0
  5  2  1  0
  5  6  2  0
  8  7  1  6
  8 10  1  0
  9  8  1  0
 10 11  1  6
 10 12  1  0
 11  5  1  0
 12 19  1  0
 13 12  2  0
 15 14  1  0
 16 17  1  1
 16 15  1  0
 18 16  1  0
 18 19  1  6
 20 22  1  0
 20 18  1  0
 21 20  2  0
M  END
$$$$
