CVI.pdb
     RDKit          3D

 22 21  0  0  1  0  0  0  0  0999 V2000
   12.5570  -17.6400   19.7735 N   0  0  0  0  0  0  0  0  0  0  0  0
   11.5590  -17.8595   20.7834 C   0  0  1  0  0  0  0  0  0  0  0  0
   12.1988  -18.5480   21.9481 C   0  0  0  0  0  0  0  0  0  0  0  0
   10.9093  -18.8599   23.1883 S   0  0  0  0  0  0  0  0  0  0  0  0
   10.9046  -16.5823   21.1341 C   0  0  0  0  0  0  0  0  0  0  0  0
   11.5951  -15.5445   21.3165 O   0  0  0  0  0  0  0  0  0  0  0  0
    6.6695  -14.0373   21.6096 C   0  0  0  0  0  0  0  0  0  0  0  0
    7.4815  -15.2155   21.0818 C   0  0  1  0  0  0  0  0  0  0  0  0
    7.5456  -15.0834   19.5952 C   0  0  0  0  0  0  0  0  0  0  0  0
    8.8683  -15.2298   21.7218 C   0  0  2  0  0  0  0  0  0  0  0  0
    9.4942  -16.4718   21.2780 N   0  0  0  0  0  0  0  0  0  0  0  0
    8.6546  -15.2569   23.1884 C   0  0  0  0  0  0  0  0  0  0  0  0
    8.7871  -16.3453   23.7992 O   0  0  0  0  0  0  0  0  0  0  0  0
    7.0110  -11.4545   27.9199 C   0  0  0  0  0  0  0  0  0  0  0  0
    7.4396  -12.7772   27.3720 C   0  0  0  0  0  0  0  0  0  0  0  0
    7.5010  -12.8214   25.8614 C   0  0  2  0  0  0  0  0  0  0  0  0
    6.1297  -12.7429   25.2408 C   0  0  0  0  0  0  0  0  0  0  0  0
    8.1706  -14.0903   25.3824 C   0  0  2  0  0  0  0  0  0  0  0  0
    8.3063  -14.1091   23.9384 N   0  0  0  0  0  0  0  0  0  0  0  0
    7.3346  -15.2550   25.8404 C   0  0  0  0  0  0  0  0  0  0  0  0
    7.5874  -15.7669   26.9739 O   0  0  0  0  0  0  0  0  0  0  0  0
    6.3151  -15.8007   25.1120 O   0  0  0  0  0  0  0  0  0  0  0  0
  2  1  1  6
  3  2  1  0
  4  3  1  0
  5  2  1  0
  5  6  2  0
  8  7  1  1
  8 10  1  0
  9  8  1  0
 10 11  1  6
 10 12  1  0
 11  5  1  0
 12 19  1  0
 13 12  2  0
 15 14  1  0
 16 17  1  6
 16 15  1  0
 18 16  1  0
 18 19  1  6
 20 22  1  0
 20 18  1  0
 21 20  2  0
M  END
$$$$
