CVI.pdb
     RDKit          3D

 22 21  0  0  1  0  0  0  0  0999 V2000
    6.1216  -20.0376   22.3242 N   0  0  0  0  0  0  0  0  0  0  0  0
    6.3524  -19.0962   23.3847 C   0  0  1  0  0  0  0  0  0  0  0  0
    6.8436  -19.8395   24.5872 C   0  0  0  0  0  0  0  0  0  0  0  0
    6.9159  -18.6698   25.9745 S   0  0  0  0  0  0  0  0  0  0  0  0
    7.2705  -18.0333   22.9268 C   0  0  0  0  0  0  0  0  0  0  0  0
    8.3896  -18.3315   22.4308 O   0  0  0  0  0  0  0  0  0  0  0  0
    7.8072  -13.3096   21.6012 C   0  0  0  0  0  0  0  0  0  0  0  0
    6.9944  -14.5708   21.8742 C   0  0  1  0  0  0  0  0  0  0  0  0
    6.4753  -15.0603   20.5618 C   0  0  0  0  0  0  0  0  0  0  0  0
    7.8591  -15.6137   22.5798 C   0  0  2  0  0  0  0  0  0  0  0  0
    6.9369  -16.6544   23.0245 N   0  0  0  0  0  0  0  0  0  0  0  0
    8.4695  -14.9341   23.7472 C   0  0  0  0  0  0  0  0  0  0  0  0
    8.7141  -13.7054   23.6722 O   0  0  0  0  0  0  0  0  0  0  0  0
    6.5817  -12.1407   26.0386 C   0  0  0  0  0  0  0  0  0  0  0  0
    7.6897  -13.0477   25.6103 C   0  0  0  0  0  0  0  0  0  0  0  0
    8.1460  -14.0053   26.6883 C   0  0  2  0  0  0  0  0  0  0  0  0
    8.6939  -13.2790   27.8899 C   0  0  0  0  0  0  0  0  0  0  0  0
    9.2144  -14.9404   26.1667 C   0  0  2  0  0  0  0  0  0  0  0  0
    8.7920  -15.6064   24.9494 N   0  0  0  0  0  0  0  0  0  0  0  0
    9.5042  -15.9551   27.2398 C   0  0  0  0  0  0  0  0  0  0  0  0
   10.0869  -15.5622   28.2966 O   0  0  0  0  0  0  0  0  0  0  0  0
    9.1791  -17.2796   27.1508 O   0  0  0  0  0  0  0  0  0  0  0  0
  2  1  1  6
  3  2  1  0
  4  3  1  0
  5  2  1  0
  5  6  2  0
  8  7  1  6
  8 10  1  0
  9  8  1  0
 10 11  1  1
 10 12  1  0
 11  5  1  0
 12 19  1  0
 13 12  2  0
 15 14  1  0
 16 17  1  1
 16 15  1  0
 18 16  1  0
 18 19  1  6
 20 22  1  0
 20 18  1  0
 21 20  2  0
M  END
$$$$
