CVI.pdb
     RDKit          3D

 22 21  0  0  1  0  0  0  0  0999 V2000
    8.0486  -14.6973   19.9762 N   0  0  0  0  0  0  0  0  0  0  0  0
    7.4786  -15.3068   21.1458 C   0  0  1  0  0  0  0  0  0  0  0  0
    7.5625  -16.7940   21.0006 C   0  0  0  0  0  0  0  0  0  0  0  0
    6.7350  -17.5415   22.4340 S   0  0  0  0  0  0  0  0  0  0  0  0
    8.1420  -14.7897   22.3602 C   0  0  0  0  0  0  0  0  0  0  0  0
    9.3787  -14.5492   22.3542 O   0  0  0  0  0  0  0  0  0  0  0  0
    6.5738  -12.0990   24.8175 C   0  0  0  0  0  0  0  0  0  0  0  0
    7.0417  -13.3352   25.5782 C   0  0  1  0  0  0  0  0  0  0  0  0
    5.8374  -14.1782   25.8443 C   0  0  0  0  0  0  0  0  0  0  0  0
    8.1033  -14.0809   24.7720 C   0  0  2  0  0  0  0  0  0  0  0  0
    7.4269  -14.5458   23.5649 N   0  0  0  0  0  0  0  0  0  0  0  0
    8.5276  -15.2344   25.6007 C   0  0  0  0  0  0  0  0  0  0  0  0
    8.3622  -16.3949   25.1523 O   0  0  0  0  0  0  0  0  0  0  0  0
   10.6191  -13.5052   30.2207 C   0  0  0  0  0  0  0  0  0  0  0  0
   10.8867  -14.1464   28.8975 C   0  0  0  0  0  0  0  0  0  0  0  0
   10.4964  -15.6064   28.8365 C   0  0  2  0  0  0  0  0  0  0  0  0
   11.6185  -16.5071   29.2849 C   0  0  0  0  0  0  0  0  0  0  0  0
   10.0969  -16.0030   27.4326 C   0  0  2  0  0  0  0  0  0  0  0  0
    9.1136  -15.0909   26.8803 N   0  0  0  0  0  0  0  0  0  0  0  0
    9.5364  -17.3987   27.4887 C   0  0  0  0  0  0  0  0  0  0  0  0
   10.2901  -18.3627   27.1522 O   0  0  0  0  0  0  0  0  0  0  0  0
    8.2618  -17.6981   27.8807 O   0  0  0  0  0  0  0  0  0  0  0  0
  2  1  1  6
  3  2  1  0
  4  3  1  0
  5  2  1  0
  5  6  2  0
  8  7  1  6
  8 10  1  0
  9  8  1  0
 10 11  1  6
 10 12  1  0
 11  5  1  0
 12 19  1  0
 13 12  2  0
 15 14  1  0
 16 17  1  6
 16 15  1  0
 18 16  1  0
 18 19  1  1
 20 22  1  0
 20 18  1  0
 21 20  2  0
M  END
$$$$
