CVI.pdb
     RDKit          3D

 22 21  0  0  1  0  0  0  0  0999 V2000
    6.4760  -18.7663   19.9554 N   0  0  0  0  0  0  0  0  0  0  0  0
    6.1266  -17.5346   20.6074 C   0  0  1  0  0  0  0  0  0  0  0  0
    5.4448  -17.8535   21.9010 C   0  0  0  0  0  0  0  0  0  0  0  0
    6.6679  -18.6233   23.0007 S   0  0  0  0  0  0  0  0  0  0  0  0
    7.3257  -16.6855   20.7609 C   0  0  0  0  0  0  0  0  0  0  0  0
    8.4763  -17.1847   20.6420 O   0  0  0  0  0  0  0  0  0  0  0  0
    7.4197  -13.0883   19.4214 C   0  0  0  0  0  0  0  0  0  0  0  0
    8.0359  -13.0649   20.8163 C   0  0  1  0  0  0  0  0  0  0  0  0
    7.0323  -12.4521   21.7376 C   0  0  0  0  0  0  0  0  0  0  0  0
    8.4273  -14.4779   21.2444 C   0  0  2  0  0  0  0  0  0  0  0  0
    7.2343  -15.2949   21.0440 N   0  0  0  0  0  0  0  0  0  0  0  0
    8.7633  -14.4028   22.6862 C   0  0  0  0  0  0  0  0  0  0  0  0
    9.6473  -13.5943   23.0602 O   0  0  0  0  0  0  0  0  0  0  0  0
    6.9046  -11.6608   26.5716 C   0  0  0  0  0  0  0  0  0  0  0  0
    7.8634  -12.7046   26.0976 C   0  0  0  0  0  0  0  0  0  0  0  0
    7.1937  -13.9452   25.5499 C   0  0  2  0  0  0  0  0  0  0  0  0
    6.2984  -14.5980   26.5717 C   0  0  0  0  0  0  0  0  0  0  0  0
    8.2193  -14.9597   25.0952 C   0  0  2  0  0  0  0  0  0  0  0  0
    8.1324  -15.2027   23.6678 N   0  0  0  0  0  0  0  0  0  0  0  0
    7.9751  -16.2358   25.8548 C   0  0  0  0  0  0  0  0  0  0  0  0
    8.2123  -16.2476   27.1015 O   0  0  0  0  0  0  0  0  0  0  0  0
    7.5118  -17.3895   25.2872 O   0  0  0  0  0  0  0  0  0  0  0  0
  2  1  1  1
  3  2  1  0
  4  3  1  0
  5  2  1  0
  5  6  2  0
  8  7  1  6
  8 10  1  0
  9  8  1  0
 10 11  1  1
 10 12  1  0
 11  5  1  0
 12 19  1  0
 13 12  2  0
 15 14  1  0
 16 17  1  1
 16 15  1  0
 18 16  1  0
 18 19  1  6
 20 22  1  0
 20 18  1  0
 21 20  2  0
M  END
$$$$
