CVI.pdb
     RDKit          3D

 22 21  0  0  1  0  0  0  0  0999 V2000
    8.7202  -19.8310   21.6860 N   0  0  0  0  0  0  0  0  0  0  0  0
    7.6709  -18.8596   21.8259 C   0  0  1  0  0  0  0  0  0  0  0  0
    6.6639  -19.3790   22.8037 C   0  0  0  0  0  0  0  0  0  0  0  0
    7.2202  -18.9237   24.4714 S   0  0  0  0  0  0  0  0  0  0  0  0
    8.2411  -17.5490   22.1994 C   0  0  0  0  0  0  0  0  0  0  0  0
    9.3999  -17.4772   22.6885 O   0  0  0  0  0  0  0  0  0  0  0  0
    7.7208  -12.6068   22.1858 C   0  0  0  0  0  0  0  0  0  0  0  0
    7.4808  -13.9938   21.5988 C   0  0  1  0  0  0  0  0  0  0  0  0
    8.1334  -14.0292   20.2555 C   0  0  0  0  0  0  0  0  0  0  0  0
    8.0299  -15.0666   22.5373 C   0  0  2  0  0  0  0  0  0  0  0  0
    7.5202  -16.3355   22.0262 N   0  0  0  0  0  0  0  0  0  0  0  0
    7.4603  -14.7854   23.8766 C   0  0  0  0  0  0  0  0  0  0  0  0
    6.2633  -15.0888   24.1009 O   0  0  0  0  0  0  0  0  0  0  0  0
   10.8989  -14.0961   28.3060 C   0  0  0  0  0  0  0  0  0  0  0  0
    9.7133  -14.5357   27.5093 C   0  0  0  0  0  0  0  0  0  0  0  0
    8.7486  -13.4175   27.1827 C   0  0  2  0  0  0  0  0  0  0  0  0
    8.0888  -12.8654   28.4202 C   0  0  0  0  0  0  0  0  0  0  0  0
    7.6684  -13.8920   26.2362 C   0  0  2  0  0  0  0  0  0  0  0  0
    8.2042  -14.1882   24.9213 N   0  0  0  0  0  0  0  0  0  0  0  0
    6.6289  -12.8078   26.1409 C   0  0  0  0  0  0  0  0  0  0  0  0
    6.8495  -11.8308   25.3615 O   0  0  0  0  0  0  0  0  0  0  0  0
    5.4560  -12.8060   26.8424 O   0  0  0  0  0  0  0  0  0  0  0  0
  2  1  1  1
  3  2  1  0
  4  3  1  0
  5  2  1  0
  5  6  2  0
  8  7  1  1
  8 10  1  0
  9  8  1  0
 10 11  1  6
 10 12  1  0
 11  5  1  0
 12 19  1  0
 13 12  2  0
 15 14  1  0
 16 17  1  1
 16 15  1  0
 18 16  1  0
 18 19  1  6
 20 22  1  0
 20 18  1  0
 21 20  2  0
M  END
$$$$
