CVI.pdb
     RDKit          3D

 22 21  0  0  1  0  0  0  0  0999 V2000
    6.6540  -20.4372   22.9906 N   0  0  0  0  0  0  0  0  0  0  0  0
    6.6571  -19.3075   23.8783 C   0  0  1  0  0  0  0  0  0  0  0  0
    7.0486  -19.7734   25.2457 C   0  0  0  0  0  0  0  0  0  0  0  0
    6.7359  -18.4138   26.4084 S   0  0  0  0  0  0  0  0  0  0  0  0
    7.5296  -18.2437   23.3403 C   0  0  0  0  0  0  0  0  0  0  0  0
    8.6816  -18.5229   22.9136 O   0  0  0  0  0  0  0  0  0  0  0  0
    7.8390  -13.5520   21.7446 C   0  0  0  0  0  0  0  0  0  0  0  0
    7.0480  -14.7907   22.1518 C   0  0  1  0  0  0  0  0  0  0  0  0
    6.3336  -15.2839   20.9361 C   0  0  0  0  0  0  0  0  0  0  0  0
    7.9837  -15.8448   22.7405 C   0  0  2  0  0  0  0  0  0  0  0  0
    7.1143  -16.8849   23.2822 N   0  0  0  0  0  0  0  0  0  0  0  0
    8.7325  -15.1795   23.8332 C   0  0  0  0  0  0  0  0  0  0  0  0
    9.7052  -14.4429   23.5391 O   0  0  0  0  0  0  0  0  0  0  0  0
    6.2457  -12.1619   26.9155 C   0  0  0  0  0  0  0  0  0  0  0  0
    7.3326  -12.8979   26.2011 C   0  0  0  0  0  0  0  0  0  0  0  0
    8.1468  -13.8047   27.0969 C   0  0  2  0  0  0  0  0  0  0  0  0
    8.9557  -13.0239   28.1008 C   0  0  0  0  0  0  0  0  0  0  0  0
    9.0915  -14.6631   26.2854 C   0  0  2  0  0  0  0  0  0  0  0  0
    8.4026  -15.3348   25.2001 N   0  0  0  0  0  0  0  0  0  0  0  0
    9.7089  -15.6746   27.2132 C   0  0  0  0  0  0  0  0  0  0  0  0
   10.5697  -15.2716   28.0543 O   0  0  0  0  0  0  0  0  0  0  0  0
    9.4018  -17.0063   27.2099 O   0  0  0  0  0  0  0  0  0  0  0  0
  2  1  1  6
  3  2  1  0
  4  3  1  0
  5  2  1  0
  5  6  2  0
  8  7  1  6
  8 10  1  0
  9  8  1  0
 10 11  1  1
 10 12  1  0
 11  5  1  0
 12 19  1  0
 13 12  2  0
 15 14  1  0
 16 17  1  1
 16 15  1  0
 18 16  1  0
 18 19  1  6
 20 22  1  0
 20 18  1  0
 21 20  2  0
M  END
$$$$
