CVI.pdb
     RDKit          3D

 22 21  0  0  1  0  0  0  0  0999 V2000
    6.4008  -19.8089   21.8100 N   0  0  0  0  0  0  0  0  0  0  0  0
    6.2345  -18.5935   22.5579 C   0  0  1  0  0  0  0  0  0  0  0  0
    5.9685  -18.9434   23.9885 C   0  0  0  0  0  0  0  0  0  0  0  0
    4.8307  -20.3586   24.0140 S   0  0  0  0  0  0  0  0  0  0  0  0
    7.4093  -17.7182   22.3685 C   0  0  0  0  0  0  0  0  0  0  0  0
    8.5654  -18.2139   22.2984 O   0  0  0  0  0  0  0  0  0  0  0  0
    7.1805  -14.6370   19.9996 C   0  0  0  0  0  0  0  0  0  0  0  0
    7.9037  -14.2259   21.2779 C   0  0  1  0  0  0  0  0  0  0  0  0
    6.9296  -13.4655   22.1172 C   0  0  0  0  0  0  0  0  0  0  0  0
    8.4478  -15.4589   21.9966 C   0  0  2  0  0  0  0  0  0  0  0  0
    7.2880  -16.3055   22.2594 N   0  0  0  0  0  0  0  0  0  0  0  0
    9.0336  -14.9788   23.2708 C   0  0  0  0  0  0  0  0  0  0  0  0
   10.1314  -14.3713   23.2411 O   0  0  0  0  0  0  0  0  0  0  0  0
    6.2499  -12.0729   26.3525 C   0  0  0  0  0  0  0  0  0  0  0  0
    7.3940  -12.7927   25.7150 C   0  0  0  0  0  0  0  0  0  0  0  0
    7.9750  -13.8955   26.5717 C   0  0  2  0  0  0  0  0  0  0  0  0
    8.6671  -13.3513   27.7949 C   0  0  0  0  0  0  0  0  0  0  0  0
    8.9692  -14.7240   25.7887 C   0  0  2  0  0  0  0  0  0  0  0  0
    8.4124  -15.1730   24.5268 N   0  0  0  0  0  0  0  0  0  0  0  0
    9.3538  -15.9067   26.6364 C   0  0  0  0  0  0  0  0  0  0  0  0
    8.7058  -16.9879   26.4886 O   0  0  0  0  0  0  0  0  0  0  0  0
   10.3610  -15.8931   27.5600 O   0  0  0  0  0  0  0  0  0  0  0  0
  2  1  1  6
  3  2  1  0
  4  3  1  0
  5  2  1  0
  5  6  2  0
  8  7  1  6
  8 10  1  0
  9  8  1  0
 10 11  1  1
 10 12  1  0
 11  5  1  0
 12 19  1  0
 13 12  2  0
 15 14  1  0
 16 17  1  1
 16 15  1  0
 18 16  1  0
 18 19  1  6
 20 22  1  0
 20 18  1  0
 21 20  2  0
M  END
$$$$
