KGA.pdb
     RDKit          3D

 19 18  0  0  1  0  0  0  0  0999 V2000
    6.6390  -15.0553   20.6425 N   0  0  0  0  0  0  0  0  0  0  0  0
    6.8862  -15.7156   21.9359 C   0  0  1  0  0  0  0  0  0  0  0  0
    6.3796  -17.1232   21.9100 C   0  0  0  0  0  0  0  0  0  0  0  0
    5.0270  -17.3038   21.2913 C   0  0  0  0  0  0  0  0  0  0  0  0
    4.1880  -18.2963   22.0661 C   0  0  0  0  0  0  0  0  0  0  0  0
    2.8397  -18.5128   21.4137 C   0  0  0  0  0  0  0  0  0  0  0  0
    2.0281  -19.4627   22.1347 N   0  0  0  0  0  0  0  0  0  0  0  0
    8.3465  -15.7100   22.2006 C   0  0  0  0  0  0  0  0  0  0  0  0
    9.2026  -15.9863   21.3441 O   0  0  0  0  0  0  0  0  0  0  0  0
    8.7983  -15.3716   23.4999 N   0  0  0  0  0  0  0  0  0  0  0  0
   10.2147  -15.4372   23.7762 C   0  0  0  0  0  0  0  0  0  0  0  0
   10.4574  -15.1404   25.1928 C   0  0  0  0  0  0  0  0  0  0  0  0
   11.5729  -15.2666   25.7620 O   0  0  0  0  0  0  0  0  0  0  0  0
    8.2941  -13.5029   27.7624 C   0  0  0  0  0  0  0  0  0  0  0  0
    9.4784  -14.3587   27.3719 C   0  0  2  0  0  0  0  0  0  0  0  0
    9.3407  -14.6755   25.9731 N   0  0  0  0  0  0  0  0  0  0  0  0
    9.5740  -15.5923   28.1478 C   0  0  0  0  0  0  0  0  0  0  0  0
    9.2115  -16.7089   27.6801 O   0  0  0  0  0  0  0  0  0  0  0  0
   10.0748  -15.5529   29.4360 O   0  0  0  0  0  0  0  0  0  0  0  0
  2  1  1  6
  3  2  1  0
  4  3  1  0
  5  4  1  0
  6  5  1  0
  7  6  1  0
  8  9  2  0
  8  2  1  0
 10  8  1  0
 11 10  1  0
 11 12  1  0
 12 16  1  0
 12 13  2  0
 15 14  1  1
 15 17  1  0
 16 15  1  0
 17 19  1  0
 18 17  2  0
M  END
$$$$
