KGA.pdb
     RDKit          3D

 19 18  0  0  1  0  0  0  0  0999 V2000
    8.6998  -15.2176   19.5489 N   0  0  0  0  0  0  0  0  0  0  0  0
    8.7467  -13.8145   19.9954 C   0  0  1  0  0  0  0  0  0  0  0  0
    8.0795  -12.9244   18.9947 C   0  0  0  0  0  0  0  0  0  0  0  0
    7.4642  -13.6285   17.8240 C   0  0  0  0  0  0  0  0  0  0  0  0
    8.5177  -14.2219   16.9143 C   0  0  0  0  0  0  0  0  0  0  0  0
    7.8954  -14.9131   15.7204 C   0  0  0  0  0  0  0  0  0  0  0  0
    8.8824  -15.5288   14.8674 N   0  0  0  0  0  0  0  0  0  0  0  0
    8.0549  -13.7093   21.3042 C   0  0  0  0  0  0  0  0  0  0  0  0
    7.8431  -12.6329   21.8866 O   0  0  0  0  0  0  0  0  0  0  0  0
    7.6076  -14.8981   21.9315 N   0  0  0  0  0  0  0  0  0  0  0  0
    6.7830  -14.7863   23.1125 C   0  0  0  0  0  0  0  0  0  0  0  0
    7.5361  -14.1200   24.1814 C   0  0  0  0  0  0  0  0  0  0  0  0
    8.7925  -14.0686   24.2367 O   0  0  0  0  0  0  0  0  0  0  0  0
    6.4083  -12.0043   27.0560 C   0  0  0  0  0  0  0  0  0  0  0  0
    7.4258  -12.8882   26.3697 C   0  0  2  0  0  0  0  0  0  0  0  0
    6.7793  -13.4874   25.2299 N   0  0  0  0  0  0  0  0  0  0  0  0
    7.9552  -13.9345   27.2404 C   0  0  0  0  0  0  0  0  0  0  0  0
    7.6151  -15.1453   27.1177 O   0  0  0  0  0  0  0  0  0  0  0  0
    8.8577  -13.6049   28.2347 O   0  0  0  0  0  0  0  0  0  0  0  0
  2  1  1  6
  3  2  1  0
  4  3  1  0
  5  4  1  0
  6  5  1  0
  7  6  1  0
  8  9  2  0
  8  2  1  0
 10  8  1  0
 11 10  1  0
 11 12  1  0
 12 16  1  0
 12 13  2  0
 15 14  1  1
 15 17  1  0
 16 15  1  0
 17 19  1  0
 18 17  2  0
M  END
$$$$
