KGA.pdb
     RDKit          3D

 19 18  0  0  1  0  0  0  0  0999 V2000
    5.7149  -16.3492   21.6938 N   0  0  0  0  0  0  0  0  0  0  0  0
    7.1431  -16.7028   21.7668 C   0  0  1  0  0  0  0  0  0  0  0  0
    7.9748  -15.6651   21.0813 C   0  0  0  0  0  0  0  0  0  0  0  0
    7.2859  -14.9210   19.9783 C   0  0  0  0  0  0  0  0  0  0  0  0
    8.2128  -13.9271   19.3131 C   0  0  0  0  0  0  0  0  0  0  0  0
    7.5259  -13.2013   18.1766 C   0  0  0  0  0  0  0  0  0  0  0  0
    8.3805  -12.2171   17.5586 N   0  0  0  0  0  0  0  0  0  0  0  0
    7.5356  -16.8012   23.1947 C   0  0  0  0  0  0  0  0  0  0  0  0
    8.6085  -17.2930   23.5817 O   0  0  0  0  0  0  0  0  0  0  0  0
    6.6427  -16.3090   24.1782 N   0  0  0  0  0  0  0  0  0  0  0  0
    6.9882  -16.4795   25.5705 C   0  0  0  0  0  0  0  0  0  0  0  0
    8.2241  -15.7462   25.8678 C   0  0  0  0  0  0  0  0  0  0  0  0
    9.0984  -15.4545   25.0106 O   0  0  0  0  0  0  0  0  0  0  0  0
    9.1285  -13.3330   28.3160 C   0  0  0  0  0  0  0  0  0  0  0  0
    9.6074  -14.5855   27.6163 C   0  0  2  0  0  0  0  0  0  0  0  0
    8.4410  -15.3387   27.2313 N   0  0  0  0  0  0  0  0  0  0  0  0
   10.4726  -15.4132   28.4526 C   0  0  0  0  0  0  0  0  0  0  0  0
   10.1214  -16.5588   28.8539 O   0  0  0  0  0  0  0  0  0  0  0  0
   11.7181  -14.9418   28.8248 O   0  0  0  0  0  0  0  0  0  0  0  0
  2  1  1  1
  3  2  1  0
  4  3  1  0
  5  4  1  0
  6  5  1  0
  7  6  1  0
  8  9  2  0
  8  2  1  0
 10  8  1  0
 11 10  1  0
 11 12  1  0
 12 16  1  0
 12 13  2  0
 15 14  1  1
 15 17  1  0
 16 15  1  0
 17 19  1  0
 18 17  2  0
M  END
$$$$
