KGA.pdb
     RDKit          3D

 19 18  0  0  1  0  0  0  0  0999 V2000
   10.3810  -17.2514   22.5754 N   0  0  0  0  0  0  0  0  0  0  0  0
    9.1345  -17.9310   22.1826 C   0  0  1  0  0  0  0  0  0  0  0  0
    9.0416  -19.2732   22.8373 C   0  0  0  0  0  0  0  0  0  0  0  0
   10.3132  -19.7731   23.4521 C   0  0  0  0  0  0  0  0  0  0  0  0
   10.0842  -20.3068   24.8493 C   0  0  0  0  0  0  0  0  0  0  0  0
   11.3562  -20.8717   25.4437 C   0  0  0  0  0  0  0  0  0  0  0  0
   11.1902  -21.2642   26.8218 N   0  0  0  0  0  0  0  0  0  0  0  0
    7.9842  -17.0884   22.5944 C   0  0  0  0  0  0  0  0  0  0  0  0
    6.8053  -17.3377   22.2930 O   0  0  0  0  0  0  0  0  0  0  0  0
    8.2356  -15.9334   23.3750 N   0  0  0  0  0  0  0  0  0  0  0  0
    7.1102  -15.1489   23.8281 C   0  0  0  0  0  0  0  0  0  0  0  0
    7.5795  -14.0689   24.7038 C   0  0  0  0  0  0  0  0  0  0  0  0
    8.7709  -13.9346   25.0870 O   0  0  0  0  0  0  0  0  0  0  0  0
    5.7617  -11.1428   26.1993 C   0  0  0  0  0  0  0  0  0  0  0  0
    6.9370  -12.0911   26.1158 C   0  0  2  0  0  0  0  0  0  0  0  0
    6.6061  -13.1057   25.1476 N   0  0  0  0  0  0  0  0  0  0  0  0
    7.2583  -12.7187   27.3948 C   0  0  0  0  0  0  0  0  0  0  0  0
    6.8333  -13.8679   27.7038 O   0  0  0  0  0  0  0  0  0  0  0  0
    8.0514  -12.0464   28.3063 O   0  0  0  0  0  0  0  0  0  0  0  0
  2  1  1  1
  3  2  1  0
  4  3  1  0
  5  4  1  0
  6  5  1  0
  7  6  1  0
  8  9  2  0
  8  2  1  0
 10  8  1  0
 11 10  1  0
 11 12  1  0
 12 16  1  0
 12 13  2  0
 15 14  1  1
 15 17  1  0
 16 15  1  0
 17 19  1  0
 18 17  2  0
M  END
$$$$
