KGA.pdb
     RDKit          3D

 19 18  0  0  1  0  0  0  0  0999 V2000
    5.0685  -19.0194   19.5062 N   0  0  0  0  0  0  0  0  0  0  0  0
    5.1332  -17.8993   20.4608 C   0  0  1  0  0  0  0  0  0  0  0  0
    4.4607  -18.2673   21.7457 C   0  0  0  0  0  0  0  0  0  0  0  0
    2.9706  -18.4046   21.6699 C   0  0  0  0  0  0  0  0  0  0  0  0
    2.5533  -19.8452   21.4700 C   0  0  0  0  0  0  0  0  0  0  0  0
    1.0487  -19.9806   21.3808 C   0  0  0  0  0  0  0  0  0  0  0  0
    0.6290  -21.3538   21.2426 N   0  0  0  0  0  0  0  0  0  0  0  0
    6.5587  -17.5723   20.7134 C   0  0  0  0  0  0  0  0  0  0  0  0
    7.4945  -18.3601   20.4978 O   0  0  0  0  0  0  0  0  0  0  0  0
    6.8791  -16.2924   21.2291 N   0  0  0  0  0  0  0  0  0  0  0  0
    8.2709  -15.9526   21.4151 C   0  0  0  0  0  0  0  0  0  0  0  0
    8.7945  -16.6398   22.6013 C   0  0  0  0  0  0  0  0  0  0  0  0
    8.1421  -16.8172   23.6630 O   0  0  0  0  0  0  0  0  0  0  0  0
   11.7111  -18.8536   23.0606 C   0  0  0  0  0  0  0  0  0  0  0  0
   10.7369  -17.8516   23.6390 C   0  0  2  0  0  0  0  0  0  0  0  0
   10.1429  -17.1397   22.5361 N   0  0  0  0  0  0  0  0  0  0  0  0
   11.3667  -16.9032   24.5538 C   0  0  0  0  0  0  0  0  0  0  0  0
   11.7080  -17.2277   25.7264 O   0  0  0  0  0  0  0  0  0  0  0  0
   11.6031  -15.6060   24.1378 O   0  0  0  0  0  0  0  0  0  0  0  0
  2  1  1  6
  3  2  1  0
  4  3  1  0
  5  4  1  0
  6  5  1  0
  7  6  1  0
  8  9  2  0
  8  2  1  0
 10  8  1  0
 11 10  1  0
 11 12  1  0
 12 16  1  0
 12 13  2  0
 15 14  1  6
 15 17  1  0
 16 15  1  0
 17 19  1  0
 18 17  2  0
M  END
$$$$
