KGA.pdb
     RDKit          3D

 19 18  0  0  1  0  0  0  0  0999 V2000
    8.0320  -16.1807   20.7501 N   0  0  0  0  0  0  0  0  0  0  0  0
    8.4801  -14.8079   21.0408 C   0  0  1  0  0  0  0  0  0  0  0  0
    7.7000  -13.8204   20.2314 C   0  0  0  0  0  0  0  0  0  0  0  0
    7.3382  -14.2717   18.8493 C   0  0  0  0  0  0  0  0  0  0  0  0
    8.1696  -13.5691   17.7983 C   0  0  0  0  0  0  0  0  0  0  0  0
    7.7549  -13.9733   16.4001 C   0  0  0  0  0  0  0  0  0  0  0  0
    8.4750  -13.2465   15.3831 N   0  0  0  0  0  0  0  0  0  0  0  0
    8.2843  -14.5407   22.4875 C   0  0  0  0  0  0  0  0  0  0  0  0
    8.5405  -13.4520   23.0276 O   0  0  0  0  0  0  0  0  0  0  0  0
    7.7772  -15.5800   23.3058 N   0  0  0  0  0  0  0  0  0  0  0  0
    7.5088  -15.2941   24.6962 C   0  0  0  0  0  0  0  0  0  0  0  0
    8.7739  -15.1339   25.4224 C   0  0  0  0  0  0  0  0  0  0  0  0
    9.9051  -15.4097   24.9442 O   0  0  0  0  0  0  0  0  0  0  0  0
    9.6017  -13.2125   28.4613 C   0  0  0  0  0  0  0  0  0  0  0  0
    9.8963  -14.3749   27.5396 C   0  0  2  0  0  0  0  0  0  0  0  0
    8.7058  -14.6277   26.7682 N   0  0  0  0  0  0  0  0  0  0  0  0
   10.2855  -15.5878   28.2540 C   0  0  0  0  0  0  0  0  0  0  0  0
    9.5215  -16.5907   28.3393 O   0  0  0  0  0  0  0  0  0  0  0  0
   11.5260  -15.6555   28.8610 O   0  0  0  0  0  0  0  0  0  0  0  0
  2  1  1  1
  3  2  1  0
  4  3  1  0
  5  4  1  0
  6  5  1  0
  7  6  1  0
  8  9  2  0
  8  2  1  0
 10  8  1  0
 11 10  1  0
 11 12  1  0
 12 16  1  0
 12 13  2  0
 15 14  1  1
 15 17  1  0
 16 15  1  0
 17 19  1  0
 18 17  2  0
M  END
$$$$
