KGA.pdb
     RDKit          3D

 19 18  0  0  1  0  0  0  0  0999 V2000
    6.2615  -17.5415   21.3304 N   0  0  0  0  0  0  0  0  0  0  0  0
    7.2403  -16.6617   21.9922 C   0  0  1  0  0  0  0  0  0  0  0  0
    7.1161  -15.2617   21.4793 C   0  0  0  0  0  0  0  0  0  0  0  0
    7.7171  -15.0211   20.1281 C   0  0  0  0  0  0  0  0  0  0  0  0
    7.5834  -13.5734   19.7087 C   0  0  0  0  0  0  0  0  0  0  0  0
    8.2359  -13.3212   18.3667 C   0  0  0  0  0  0  0  0  0  0  0  0
    7.9790  -11.9901   17.8737 N   0  0  0  0  0  0  0  0  0  0  0  0
    6.9889  -16.6871   23.4547 C   0  0  0  0  0  0  0  0  0  0  0  0
    5.8699  -16.8811   23.9578 O   0  0  0  0  0  0  0  0  0  0  0  0
    8.0804  -16.4796   24.3334 N   0  0  0  0  0  0  0  0  0  0  0  0
    7.8684  -16.6598   25.7510 C   0  0  0  0  0  0  0  0  0  0  0  0
    9.0901  -16.3075   26.4836 C   0  0  0  0  0  0  0  0  0  0  0  0
   10.2143  -16.8367   26.2824 O   0  0  0  0  0  0  0  0  0  0  0  0
    9.6948  -13.6569   29.0782 C   0  0  0  0  0  0  0  0  0  0  0  0
   10.1467  -14.7957   28.1913 C   0  0  2  0  0  0  0  0  0  0  0  0
    8.9854  -15.2894   27.4958 N   0  0  0  0  0  0  0  0  0  0  0  0
   10.7746  -15.8853   28.9339 C   0  0  0  0  0  0  0  0  0  0  0  0
   11.9413  -15.7880   29.4097 O   0  0  0  0  0  0  0  0  0  0  0  0
   10.0831  -17.0663   29.1306 O   0  0  0  0  0  0  0  0  0  0  0  0
  2  1  1  6
  3  2  1  0
  4  3  1  0
  5  4  1  0
  6  5  1  0
  7  6  1  0
  8  9  2  0
  8  2  1  0
 10  8  1  0
 11 10  1  0
 11 12  1  0
 12 16  1  0
 12 13  2  0
 15 14  1  1
 15 17  1  0
 16 15  1  0
 17 19  1  0
 18 17  2  0
M  END
$$$$
