KGA.pdb
     RDKit          3D

 19 18  0  0  1  0  0  0  0  0999 V2000
    6.1521  -19.1559   23.1672 N   0  0  0  0  0  0  0  0  0  0  0  0
    6.6221  -18.4048   21.9903 C   0  0  1  0  0  0  0  0  0  0  0  0
    5.6229  -18.4929   20.8801 C   0  0  0  0  0  0  0  0  0  0  0  0
    4.3680  -19.2427   21.2086 C   0  0  0  0  0  0  0  0  0  0  0  0
    3.3888  -19.2223   20.0553 C   0  0  0  0  0  0  0  0  0  0  0  0
    2.0659  -19.8496   20.4384 C   0  0  0  0  0  0  0  0  0  0  0  0
    1.0732  -19.7122   19.4009 N   0  0  0  0  0  0  0  0  0  0  0  0
    6.8193  -16.9863   22.3799 C   0  0  0  0  0  0  0  0  0  0  0  0
    7.2941  -16.1239   21.6226 O   0  0  0  0  0  0  0  0  0  0  0  0
    6.4478  -16.5847   23.6866 N   0  0  0  0  0  0  0  0  0  0  0  0
    6.5417  -15.1848   24.0305 C   0  0  0  0  0  0  0  0  0  0  0  0
    7.7718  -14.9433   24.7934 C   0  0  0  0  0  0  0  0  0  0  0  0
    8.8751  -15.4995   24.5532 O   0  0  0  0  0  0  0  0  0  0  0  0
    8.4955  -12.4827   27.5332 C   0  0  0  0  0  0  0  0  0  0  0  0
    8.8704  -13.6507   26.6483 C   0  0  2  0  0  0  0  0  0  0  0  0
    7.7014  -14.0079   25.8853 N   0  0  0  0  0  0  0  0  0  0  0  0
    9.3397  -14.8113   27.4004 C   0  0  0  0  0  0  0  0  0  0  0  0
    8.6018  -15.8143   27.6159 O   0  0  0  0  0  0  0  0  0  0  0  0
   10.6294  -14.8275   27.8984 O   0  0  0  0  0  0  0  0  0  0  0  0
  2  1  1  1
  3  2  1  0
  4  3  1  0
  5  4  1  0
  6  5  1  0
  7  6  1  0
  8  9  2  0
  8  2  1  0
 10  8  1  0
 11 10  1  0
 11 12  1  0
 12 16  1  0
 12 13  2  0
 15 14  1  1
 15 17  1  0
 16 15  1  0
 17 19  1  0
 18 17  2  0
M  END
$$$$
