GPL.pdb
     RDKit          3D

 20 20  0  0  1  0  0  0  0  0999 V2000
   19.4380  -27.8100   -1.4158 N   0  0  0  0  0  0  0  0  0  0  0  0
   19.0916  -26.5670   -0.8041 C   0  0  0  0  0  0  0  0  0  0  0  0
   19.0226  -26.5640    0.6606 C   0  0  0  0  0  0  0  0  0  0  0  0
   18.1646  -27.3264    1.2075 O   0  0  0  0  0  0  0  0  0  0  0  0
   19.8291  -25.7832    1.5318 N   0  0  0  0  0  0  0  0  0  0  0  0
   20.8100  -24.8717    1.0647 C   0  0  0  0  0  0  0  0  0  0  0  0
   21.6667  -24.5839    2.2768 C   0  0  0  0  0  0  0  0  0  0  0  0
   20.7535  -24.8094    3.4526 C   0  0  0  0  0  0  0  0  0  0  0  0
   19.7558  -25.7979    2.9355 C   0  0  1  0  0  0  0  0  0  0  0  0
   18.3955  -25.5318    3.4771 C   0  0  0  0  0  0  0  0  0  0  0  0
   17.6675  -24.7780    2.7996 O   0  0  0  0  0  0  0  0  0  0  0  0
   13.5276  -26.7167    4.7691 C   0  0  0  0  0  0  0  0  0  0  0  0
   14.4232  -26.7857    6.0621 C   0  0  1  0  0  0  0  0  0  0  0  0
   13.8632  -27.9210    6.8342 C   0  0  0  0  0  0  0  0  0  0  0  0
   15.8187  -26.8144    5.6301 C   0  0  0  0  0  0  0  0  0  0  0  0
   16.5374  -25.6293    5.1428 C   0  0  2  0  0  0  0  0  0  0  0  0
   17.9012  -26.0663    4.6726 N   0  0  0  0  0  0  0  0  0  0  0  0
   16.8012  -24.6257    6.1823 C   0  0  0  0  0  0  0  0  0  0  0  0
   17.8249  -24.6058    6.9051 O   0  0  0  0  0  0  0  0  0  0  0  0
   15.8741  -23.5779    6.4383 O   0  0  0  0  0  0  0  0  0  0  0  0
  2  1  1  0
  3  2  1  0
  4  3  2  0
  5  6  1  0
  5  3  1  0
  7  6  1  0
  8  9  1  0
  8  7  1  0
  9 10  1  6
  9  5  1  0
 10 17  1  0
 11 10  2  0
 13 12  1  6
 13 14  1  0
 15 13  1  0
 16 15  1  1
 17 16  1  0
 18 20  1  0
 18 16  1  0
 19 18  2  0
M  END
$$$$
