GPL.pdb
     RDKit          3D

 20 20  0  0  1  0  0  0  0  0999 V2000
   24.6339  -32.6302  -13.5853 N   0  0  0  0  0  0  0  0  0  0  0  0
   25.2948  -32.4360  -12.3345 C   0  0  0  0  0  0  0  0  0  0  0  0
   24.8693  -33.3088  -11.2357 C   0  0  0  0  0  0  0  0  0  0  0  0
   23.7859  -33.9564  -11.3888 O   0  0  0  0  0  0  0  0  0  0  0  0
   25.5579  -33.4993  -10.0074 N   0  0  0  0  0  0  0  0  0  0  0  0
   26.7281  -32.7779   -9.6594 C   0  0  0  0  0  0  0  0  0  0  0  0
   27.3255  -33.5577   -8.5100 C   0  0  0  0  0  0  0  0  0  0  0  0
   26.1533  -34.2528   -7.8697 C   0  0  0  0  0  0  0  0  0  0  0  0
   25.1744  -34.3938   -8.9931 C   0  0  1  0  0  0  0  0  0  0  0  0
   23.7747  -34.2150   -8.5205 C   0  0  0  0  0  0  0  0  0  0  0  0
   23.3738  -33.0385   -8.4094 O   0  0  0  0  0  0  0  0  0  0  0  0
   19.5715  -35.4446  -11.0906 C   0  0  0  0  0  0  0  0  0  0  0  0
   20.5671  -34.6478  -10.1672 C   0  0  1  0  0  0  0  0  0  0  0  0
   20.1145  -33.2396  -10.2715 C   0  0  0  0  0  0  0  0  0  0  0  0
   20.5892  -35.3130   -8.8664 C   0  0  0  0  0  0  0  0  0  0  0  0
   21.4996  -34.9294   -7.7790 C   0  0  2  0  0  0  0  0  0  0  0  0
   22.9066  -35.2658   -8.2025 N   0  0  0  0  0  0  0  0  0  0  0  0
   21.2902  -35.6828   -6.5356 C   0  0  0  0  0  0  0  0  0  0  0  0
   20.2800  -35.5732   -5.8020 O   0  0  0  0  0  0  0  0  0  0  0  0
   22.2592  -36.6163   -6.0750 O   0  0  0  0  0  0  0  0  0  0  0  0
  2  1  1  0
  3  2  1  0
  4  3  2  0
  5  6  1  0
  5  3  1  0
  7  6  1  0
  8  9  1  0
  8  7  1  0
  9 10  1  1
  9  5  1  0
 10 17  1  0
 11 10  2  0
 13 12  1  6
 13 14  1  0
 15 13  1  0
 16 15  1  6
 17 16  1  0
 18 20  1  0
 18 16  1  0
 19 18  2  0
M  END
$$$$
