GPL.pdb
     RDKit          3D

 20 20  0  0  1  0  0  0  0  0999 V2000
   25.7896  -21.6177  -12.5100 N   0  0  0  0  0  0  0  0  0  0  0  0
   27.0113  -20.9285  -12.2426 C   0  0  0  0  0  0  0  0  0  0  0  0
   27.6380  -21.2026  -10.9457 C   0  0  0  0  0  0  0  0  0  0  0  0
   26.8687  -21.3623   -9.9461 O   0  0  0  0  0  0  0  0  0  0  0  0
   29.0336  -21.3062  -10.6992 N   0  0  0  0  0  0  0  0  0  0  0  0
   30.0049  -21.2556  -11.7312 C   0  0  0  0  0  0  0  0  0  0  0  0
   31.2648  -21.7940  -11.0918 C   0  0  0  0  0  0  0  0  0  0  0  0
   31.1083  -21.4914   -9.6251 C   0  0  0  0  0  0  0  0  0  0  0  0
   29.6246  -21.4544   -9.4323 C   0  0  1  0  0  0  0  0  0  0  0  0
   29.2295  -20.4087   -8.4500 C   0  0  0  0  0  0  0  0  0  0  0  0
   28.8423  -19.3214   -8.9244 O   0  0  0  0  0  0  0  0  0  0  0  0
   27.4633  -20.9998   -3.7248 C   0  0  0  0  0  0  0  0  0  0  0  0
   26.9716  -20.9440   -5.2195 C   0  0  1  0  0  0  0  0  0  0  0  0
   25.5209  -21.2396   -5.1381 C   0  0  0  0  0  0  0  0  0  0  0  0
   27.4278  -19.6768   -5.7860 C   0  0  0  0  0  0  0  0  0  0  0  0
   28.8179  -19.4275   -6.1907 C   0  0  2  0  0  0  0  0  0  0  0  0
   29.2675  -20.5735   -7.0606 N   0  0  0  0  0  0  0  0  0  0  0  0
   29.7683  -19.4091   -5.0710 C   0  0  0  0  0  0  0  0  0  0  0  0
   30.5760  -20.3316   -4.8116 O   0  0  0  0  0  0  0  0  0  0  0  0
   29.8290  -18.3003   -4.1824 O   0  0  0  0  0  0  0  0  0  0  0  0
  2  1  1  0
  3  2  1  0
  4  3  2  0
  5  6  1  0
  5  3  1  0
  7  6  1  0
  8  9  1  0
  8  7  1  0
  9 10  1  1
  9  5  1  0
 10 17  1  0
 11 10  2  0
 13 12  1  1
 13 14  1  0
 15 13  1  0
 16 15  1  1
 17 16  1  0
 18 20  1  0
 18 16  1  0
 19 18  2  0
M  END
$$$$
