GPL.pdb
     RDKit          3D

 20 20  0  0  1  0  0  0  0  0999 V2000
   25.9070  -35.6682   -7.9013 N   0  0  0  0  0  0  0  0  0  0  0  0
   26.9419  -34.9495   -7.2294 C   0  0  0  0  0  0  0  0  0  0  0  0
   27.2873  -35.4197   -5.8841 C   0  0  0  0  0  0  0  0  0  0  0  0
   26.3698  -35.9824   -5.2074 O   0  0  0  0  0  0  0  0  0  0  0  0
   28.5593  -35.3038   -5.2613 N   0  0  0  0  0  0  0  0  0  0  0  0
   29.6161  -34.5295   -5.8040 C   0  0  0  0  0  0  0  0  0  0  0  0
   30.8489  -35.0031   -5.0677 C   0  0  0  0  0  0  0  0  0  0  0  0
   30.3345  -35.5051   -3.7446 C   0  0  0  0  0  0  0  0  0  0  0  0
   28.9270  -35.9129   -4.0489 C   0  0  1  0  0  0  0  0  0  0  0  0
   28.0149  -35.6085   -2.9132 C   0  0  0  0  0  0  0  0  0  0  0  0
   27.4356  -34.5038   -2.9490 O   0  0  0  0  0  0  0  0  0  0  0  0
   23.9965  -38.5239    0.2964 C   0  0  0  0  0  0  0  0  0  0  0  0
   24.7763  -37.1614    0.4166 C   0  0  1  0  0  0  0  0  0  0  0  0
   25.0528  -37.0255    1.8670 C   0  0  0  0  0  0  0  0  0  0  0  0
   25.8828  -37.2019   -0.5369 C   0  0  0  0  0  0  0  0  0  0  0  0
   26.7659  -36.0571   -0.7977 C   0  0  2  0  0  0  0  0  0  0  0  0
   27.7775  -36.4701   -1.8360 N   0  0  0  0  0  0  0  0  0  0  0  0
   27.5649  -35.6466    0.3644 C   0  0  0  0  0  0  0  0  0  0  0  0
   27.1626  -34.8712    1.2631 O   0  0  0  0  0  0  0  0  0  0  0  0
   28.8925  -36.1242    0.5436 O   0  0  0  0  0  0  0  0  0  0  0  0
  2  1  1  0
  3  2  1  0
  4  3  2  0
  5  6  1  0
  5  3  1  0
  7  6  1  0
  8  9  1  0
  8  7  1  0
  9 10  1  1
  9  5  1  0
 10 17  1  0
 11 10  2  0
 13 12  1  1
 13 14  1  0
 15 13  1  0
 16 15  1  1
 17 16  1  0
 18 20  1  0
 18 16  1  0
 19 18  2  0
M  END
$$$$
