GPL.pdb
     RDKit          3D

 20 20  0  0  1  0  0  0  0  0999 V2000
   28.8518  -19.4064  -17.0719 N   0  0  0  0  0  0  0  0  0  0  0  0
   29.1775  -19.1674  -15.7023 C   0  0  0  0  0  0  0  0  0  0  0  0
   28.5976  -20.0970  -14.7278 C   0  0  0  0  0  0  0  0  0  0  0  0
   27.4674  -20.6080  -15.0074 O   0  0  0  0  0  0  0  0  0  0  0  0
   29.1834  -20.4822  -13.4919 N   0  0  0  0  0  0  0  0  0  0  0  0
   30.5071  -20.1313  -13.1232 C   0  0  0  0  0  0  0  0  0  0  0  0
   30.8362  -21.0539  -11.9714 C   0  0  0  0  0  0  0  0  0  0  0  0
   29.5037  -21.3819  -11.3517 C   0  0  0  0  0  0  0  0  0  0  0  0
   28.5426  -21.2303  -12.4890 C   0  0  1  0  0  0  0  0  0  0  0  0
   27.2476  -20.6554  -12.0339 C   0  0  0  0  0  0  0  0  0  0  0  0
   27.1419  -19.4134  -12.0930 O   0  0  0  0  0  0  0  0  0  0  0  0
   22.2855  -19.5223  -12.9074 C   0  0  0  0  0  0  0  0  0  0  0  0
   22.4320  -20.8356  -12.0514 C   0  0  1  0  0  0  0  0  0  0  0  0
   21.3691  -21.7300  -12.5700 C   0  0  0  0  0  0  0  0  0  0  0  0
   23.8315  -21.2503  -12.1174 C   0  0  0  0  0  0  0  0  0  0  0  0
   24.8784  -20.7000  -11.2458 C   0  0  2  0  0  0  0  0  0  0  0  0
   26.1708  -21.4111  -11.5560 N   0  0  0  0  0  0  0  0  0  0  0  0
   24.6487  -20.9430   -9.8155 C   0  0  0  0  0  0  0  0  0  0  0  0
   25.0594  -21.9500   -9.1927 O   0  0  0  0  0  0  0  0  0  0  0  0
   23.9189  -20.0133   -9.0245 O   0  0  0  0  0  0  0  0  0  0  0  0
  2  1  1  0
  3  2  1  0
  4  3  2  0
  5  6  1  0
  5  3  1  0
  7  6  1  0
  8  9  1  0
  8  7  1  0
  9 10  1  1
  9  5  1  0
 10 17  1  0
 11 10  2  0
 13 12  1  6
 13 14  1  0
 15 13  1  0
 16 15  1  6
 17 16  1  0
 18 20  1  0
 18 16  1  0
 19 18  2  0
M  END
$$$$
