GPL.pdb
     RDKit          3D

 20 20  0  0  1  0  0  0  0  0999 V2000
   14.6845  -20.4449    1.3155 N   0  0  0  0  0  0  0  0  0  0  0  0
   15.8181  -20.6674    2.1548 C   0  0  0  0  0  0  0  0  0  0  0  0
   15.9160  -19.8201    3.3475 C   0  0  0  0  0  0  0  0  0  0  0  0
   15.4290  -18.6479    3.2741 O   0  0  0  0  0  0  0  0  0  0  0  0
   16.5088  -20.1879    4.5854 N   0  0  0  0  0  0  0  0  0  0  0  0
   17.0517  -21.4753    4.8282 C   0  0  0  0  0  0  0  0  0  0  0  0
   17.1918  -21.5494    6.3318 C   0  0  0  0  0  0  0  0  0  0  0  0
   17.3492  -20.1181    6.7721 C   0  0  0  0  0  0  0  0  0  0  0  0
   16.6463  -19.3440    5.7012 C   0  0  1  0  0  0  0  0  0  0  0  0
   17.3421  -18.0606    5.4121 C   0  0  0  0  0  0  0  0  0  0  0  0
   18.0671  -18.0404    4.3966 O   0  0  0  0  0  0  0  0  0  0  0  0
   18.9282  -14.0810    3.1212 C   0  0  0  0  0  0  0  0  0  0  0  0
   17.6406  -13.8223    3.9895 C   0  0  1  0  0  0  0  0  0  0  0  0
   16.7038  -13.1451    3.0609 C   0  0  0  0  0  0  0  0  0  0  0  0
   17.2649  -15.0913    4.6087 C   0  0  0  0  0  0  0  0  0  0  0  0
   17.9735  -15.6695    5.7585 C   0  0  2  0  0  0  0  0  0  0  0  0
   17.2308  -16.9062    6.1956 N   0  0  0  0  0  0  0  0  0  0  0  0
   17.9902  -14.8016    6.9434 C   0  0  0  0  0  0  0  0  0  0  0  0
   17.0988  -14.7875    7.8243 O   0  0  0  0  0  0  0  0  0  0  0  0
   19.0605  -13.8924    7.1681 O   0  0  0  0  0  0  0  0  0  0  0  0
  2  1  1  0
  3  2  1  0
  4  3  2  0
  5  6  1  0
  5  3  1  0
  7  6  1  0
  8  9  1  0
  8  7  1  0
  9 10  1  6
  9  5  1  0
 10 17  1  0
 11 10  2  0
 13 12  1  6
 13 14  1  0
 15 13  1  0
 16 15  1  6
 17 16  1  0
 18 20  1  0
 18 16  1  0
 19 18  2  0
M  END
$$$$
