GPL.pdb
     RDKit          3D

 20 20  0  0  1  0  0  0  0  0999 V2000
   28.5064  -19.6276  -16.9537 N   0  0  0  0  0  0  0  0  0  0  0  0
   28.7722  -19.1824  -15.6232 C   0  0  0  0  0  0  0  0  0  0  0  0
   28.2466  -20.0230  -14.5428 C   0  0  0  0  0  0  0  0  0  0  0  0
   27.0358  -20.4007  -14.6315 O   0  0  0  0  0  0  0  0  0  0  0  0
   28.9678  -20.4571  -13.3980 N   0  0  0  0  0  0  0  0  0  0  0  0
   30.3552  -20.2202  -13.2249 C   0  0  0  0  0  0  0  0  0  0  0  0
   30.7661  -21.1680  -12.1208 C   0  0  0  0  0  0  0  0  0  0  0  0
   29.5125  -21.3819  -11.3146 C   0  0  0  0  0  0  0  0  0  0  0  0
   28.4156  -21.1486  -12.3058 C   0  0  1  0  0  0  0  0  0  0  0  0
   27.2516  -20.4660  -11.6784 C   0  0  0  0  0  0  0  0  0  0  0  0
   27.3140  -19.2220  -11.6028 O   0  0  0  0  0  0  0  0  0  0  0  0
   23.3654  -22.2537  -12.6037 C   0  0  0  0  0  0  0  0  0  0  0  0
   23.8100  -20.7438  -12.6402 C   0  0  1  0  0  0  0  0  0  0  0  0
   22.8759  -20.1111  -13.6025 C   0  0  0  0  0  0  0  0  0  0  0  0
   23.8686  -20.2686  -11.2598 C   0  0  0  0  0  0  0  0  0  0  0  0
   25.0876  -20.3156  -10.4410 C   0  0  2  0  0  0  0  0  0  0  0  0
   26.1211  -21.1251  -11.1817 N   0  0  0  0  0  0  0  0  0  0  0  0
   24.9147  -21.0091   -9.1578 C   0  0  0  0  0  0  0  0  0  0  0  0
   25.3948  -22.1355   -8.8905 O   0  0  0  0  0  0  0  0  0  0  0  0
   24.1636  -20.4193   -8.1040 O   0  0  0  0  0  0  0  0  0  0  0  0
  2  1  1  0
  3  2  1  0
  4  3  2  0
  5  6  1  0
  5  3  1  0
  7  6  1  0
  8  9  1  0
  8  7  1  0
  9 10  1  1
  9  5  1  0
 10 17  1  0
 11 10  2  0
 13 12  1  1
 13 14  1  0
 15 13  1  0
 16 15  1  6
 17 16  1  0
 18 20  1  0
 18 16  1  0
 19 18  2  0
M  END
$$$$
