GPL.pdb
     RDKit          3D

 20 20  0  0  1  0  0  0  0  0999 V2000
   25.5628  -24.3943  -14.8532 N   0  0  0  0  0  0  0  0  0  0  0  0
   25.1188  -23.1769  -14.2534 C   0  0  0  0  0  0  0  0  0  0  0  0
   25.9223  -22.6771  -13.1333 C   0  0  0  0  0  0  0  0  0  0  0  0
   26.0318  -23.4261  -12.1117 O   0  0  0  0  0  0  0  0  0  0  0  0
   26.5938  -21.4259  -13.0816 N   0  0  0  0  0  0  0  0  0  0  0  0
   26.6406  -20.5297  -14.1796 C   0  0  0  0  0  0  0  0  0  0  0  0
   27.7516  -19.5645  -13.8331 C   0  0  0  0  0  0  0  0  0  0  0  0
   27.8027  -19.5648  -12.3283 C   0  0  0  0  0  0  0  0  0  0  0  0
   27.2717  -20.9151  -11.9610 C   0  0  1  0  0  0  0  0  0  0  0  0
   26.4462  -20.8569  -10.7241 C   0  0  0  0  0  0  0  0  0  0  0  0
   25.2308  -21.1063  -10.8574 O   0  0  0  0  0  0  0  0  0  0  0  0
   28.7526  -19.2822   -5.9826 C   0  0  0  0  0  0  0  0  0  0  0  0
   27.9962  -20.4611   -6.7016 C   0  0  1  0  0  0  0  0  0  0  0  0
   28.0713  -21.5851   -5.7374 C   0  0  0  0  0  0  0  0  0  0  0  0
   26.6951  -19.9528   -7.1303 C   0  0  0  0  0  0  0  0  0  0  0  0
   25.9745  -20.4662   -8.3031 C   0  0  2  0  0  0  0  0  0  0  0  0
   26.9449  -20.5461   -9.4538 N   0  0  0  0  0  0  0  0  0  0  0  0
   24.9021  -19.5808   -8.7757 C   0  0  0  0  0  0  0  0  0  0  0  0
   25.0466  -18.6984   -9.6539 O   0  0  0  0  0  0  0  0  0  0  0  0
   23.5868  -19.6777   -8.2432 O   0  0  0  0  0  0  0  0  0  0  0  0
  2  1  1  0
  3  2  1  0
  4  3  2  0
  5  6  1  0
  5  3  1  0
  7  6  1  0
  8  9  1  0
  8  7  1  0
  9 10  1  1
  9  5  1  0
 10 17  1  0
 11 10  2  0
 13 12  1  1
 13 14  1  0
 15 13  1  0
 16 15  1  1
 17 16  1  0
 18 20  1  0
 18 16  1  0
 19 18  2  0
M  END
$$$$
