GPL.pdb
     RDKit          3D

 20 20  0  0  1  0  0  0  0  0999 V2000
   14.9772  -12.5225  -14.2878 N   0  0  0  0  0  0  0  0  0  0  0  0
   15.5694  -11.2450  -14.5254 C   0  0  0  0  0  0  0  0  0  0  0  0
   16.1057  -10.5521  -13.3497 C   0  0  0  0  0  0  0  0  0  0  0  0
   15.5957  -10.8357  -12.2201 O   0  0  0  0  0  0  0  0  0  0  0  0
   17.1480   -9.5863  -13.3544 N   0  0  0  0  0  0  0  0  0  0  0  0
   17.8714   -9.2379  -14.5233 C   0  0  0  0  0  0  0  0  0  0  0  0
   19.0962   -8.5156  -14.0091 C   0  0  0  0  0  0  0  0  0  0  0  0
   18.6698   -7.9334  -12.6876 C   0  0  0  0  0  0  0  0  0  0  0  0
   17.5813   -8.8553  -12.2345 C   0  0  1  0  0  0  0  0  0  0  0  0
   16.4972   -8.1143  -11.5343 C   0  0  0  0  0  0  0  0  0  0  0  0
   15.6219   -7.5984  -12.2587 O   0  0  0  0  0  0  0  0  0  0  0  0
   12.3606   -8.7048   -7.6702 C   0  0  0  0  0  0  0  0  0  0  0  0
   13.1421   -7.4622   -8.2394 C   0  0  1  0  0  0  0  0  0  0  0  0
   13.2233   -6.5254   -7.0929 C   0  0  0  0  0  0  0  0  0  0  0  0
   14.3658   -7.9599   -8.8635 C   0  0  0  0  0  0  0  0  0  0  0  0
   15.3121   -7.0982   -9.5851 C   0  0  2  0  0  0  0  0  0  0  0  0
   16.4081   -7.9684  -10.1451 N   0  0  0  0  0  0  0  0  0  0  0  0
   16.0035   -6.1268   -8.7274 C   0  0  0  0  0  0  0  0  0  0  0  0
   15.5825   -4.9721   -8.4819 O   0  0  0  0  0  0  0  0  0  0  0  0
   17.2382   -6.4534   -8.1017 O   0  0  0  0  0  0  0  0  0  0  0  0
  2  1  1  0
  3  2  1  0
  4  3  2  0
  5  6  1  0
  5  3  1  0
  7  6  1  0
  8  9  1  0
  8  7  1  0
  9 10  1  6
  9  5  1  0
 10 17  1  0
 11 10  2  0
 13 12  1  1
 13 14  1  0
 15 13  1  0
 16 15  1  1
 17 16  1  0
 18 20  1  0
 18 16  1  0
 19 18  2  0
M  END
$$$$
