GPL.pdb
     RDKit          3D

 20 20  0  0  1  0  0  0  0  0999 V2000
   24.0277  -19.5471  -17.3393 N   0  0  0  0  0  0  0  0  0  0  0  0
   24.7169  -18.3382  -17.6594 C   0  0  0  0  0  0  0  0  0  0  0  0
   24.1893  -17.1125  -17.0517 C   0  0  0  0  0  0  0  0  0  0  0  0
   22.9317  -16.9311  -17.0976 O   0  0  0  0  0  0  0  0  0  0  0  0
   24.9565  -16.1013  -16.4129 N   0  0  0  0  0  0  0  0  0  0  0  0
   26.3513  -16.2194  -16.1855 C   0  0  0  0  0  0  0  0  0  0  0  0
   26.6597  -15.1499  -15.1621 C   0  0  0  0  0  0  0  0  0  0  0  0
   25.5997  -14.1017  -15.3736 C   0  0  0  0  0  0  0  0  0  0  0  0
   24.4530  -14.8747  -15.9458 C   0  0  1  0  0  0  0  0  0  0  0  0
   23.7236  -14.0845  -16.9745 C   0  0  0  0  0  0  0  0  0  0  0  0
   24.0860  -14.2471  -18.1574 O   0  0  0  0  0  0  0  0  0  0  0  0
   18.7472  -12.5333  -17.0514 C   0  0  0  0  0  0  0  0  0  0  0  0
   19.8170  -13.6775  -17.2102 C   0  0  1  0  0  0  0  0  0  0  0  0
   19.0125  -14.8970  -17.4639 C   0  0  0  0  0  0  0  0  0  0  0  0
   20.7964  -13.2305  -18.1981 C   0  0  0  0  0  0  0  0  0  0  0  0
   22.0143  -12.4871  -17.8481 C   0  0  2  0  0  0  0  0  0  0  0  0
   22.6815  -13.1928  -16.6953 N   0  0  0  0  0  0  0  0  0  0  0  0
   21.7593  -11.1256  -17.3595 C   0  0  0  0  0  0  0  0  0  0  0  0
   21.3043  -10.1936  -18.0632 O   0  0  0  0  0  0  0  0  0  0  0  0
   22.0240  -10.7731  -16.0074 O   0  0  0  0  0  0  0  0  0  0  0  0
  2  1  1  0
  3  2  1  0
  4  3  2  0
  5  6  1  0
  5  3  1  0
  7  6  1  0
  8  9  1  0
  8  7  1  0
  9 10  1  6
  9  5  1  0
 10 17  1  0
 11 10  2  0
 13 12  1  6
 13 14  1  0
 15 13  1  0
 16 15  1  1
 17 16  1  0
 18 20  1  0
 18 16  1  0
 19 18  2  0
M  END
$$$$
