EPP.pdb
     RDKit          3D

 24 25  0  0  1  0  0  0  0  0999 V2000
   25.4087  -22.5761  -17.7912 N   0  0  0  0  0  0  0  0  0  0  0  0
   25.2151  -21.3943  -17.0175 C   0  0  1  0  0  0  0  0  0  0  0  0
   23.7505  -21.0303  -16.9949 C   0  0  0  0  0  0  0  0  0  0  0  0
   23.1263  -20.7671  -18.3242 C   0  0  0  0  0  0  0  0  0  0  0  0
   21.7213  -21.0933  -18.5050 C   0  0  0  0  0  0  0  0  0  0  0  0
   20.7850  -20.4498  -18.0404 O   0  0  0  0  0  0  0  0  0  0  0  0
   25.7139  -21.5939  -15.6149 C   0  0  0  0  0  0  0  0  0  0  0  0
   25.3480  -22.6506  -15.0763 O   0  0  0  0  0  0  0  0  0  0  0  0
   21.3784  -22.2303  -19.2672 O   0  0  0  0  0  0  0  0  0  0  0  0
   26.5167  -20.6456  -15.0111 N   0  0  0  0  0  0  0  0  0  0  0  0
   27.7389  -20.1036  -15.6528 C   0  0  0  0  0  0  0  0  0  0  0  0
   27.5978  -18.6319  -15.3693 C   0  0  0  0  0  0  0  0  0  0  0  0
   26.6173  -18.5255  -14.2289 C   0  0  0  0  0  0  0  0  0  0  0  0
   26.5680  -19.9837  -13.7229 C   0  0  1  0  0  0  0  0  0  0  0  0
   25.3811  -20.1586  -12.8780 C   0  0  0  0  0  0  0  0  0  0  0  0
   24.2907  -19.7315  -13.4304 O   0  0  0  0  0  0  0  0  0  0  0  0
   25.2546  -20.7044  -11.6063 N   0  0  0  0  0  0  0  0  0  0  0  0
   26.3802  -21.5432  -11.0440 C   0  0  0  0  0  0  0  0  0  0  0  0
   26.5748  -20.8239   -9.7010 C   0  0  0  0  0  0  0  0  0  0  0  0
   25.2740  -20.0381   -9.4650 C   0  0  0  0  0  0  0  0  0  0  0  0
   24.3867  -20.7473  -10.4897 C   0  0  1  0  0  0  0  0  0  0  0  0
   23.0233  -20.3325  -10.5318 C   0  0  0  0  0  0  0  0  0  0  0  0
   22.6201  -19.0574  -11.0037 O   0  0  0  0  0  0  0  0  0  0  0  0
   22.0850  -21.0509  -10.1607 O   0  0  0  0  0  0  0  0  0  0  0  0
  2  1  1  6
  3  2  1  0
  3  4  1  0
  4  5  1  0
  5  9  1  0
  5  6  2  0
  7  2  1  0
  8  7  2  0
 10  7  1  0
 10 14  1  0
 11 12  1  0
 11 10  1  0
 12 13  1  0
 13 14  1  0
 14 15  1  1
 15 16  2  0
 17 15  1  0
 17 21  1  0
 18 19  1  0
 18 17  1  0
 19 20  1  0
 20 21  1  0
 21 22  1  6
 22 24  2  0
 22 23  1  0
M  END
$$$$
