EPP.pdb
     RDKit          3D

 24 25  0  0  1  0  0  0  0  0999 V2000
   27.2299  -22.6515  -18.1325 N   0  0  0  0  0  0  0  0  0  0  0  0
   26.8526  -21.3532  -17.6801 C   0  0  1  0  0  0  0  0  0  0  0  0
   25.5519  -20.9427  -18.3265 C   0  0  0  0  0  0  0  0  0  0  0  0
   24.3115  -21.4324  -17.6576 C   0  0  0  0  0  0  0  0  0  0  0  0
   23.3586  -20.4517  -17.1646 C   0  0  0  0  0  0  0  0  0  0  0  0
   22.3885  -20.7081  -16.4576 O   0  0  0  0  0  0  0  0  0  0  0  0
   26.7084  -21.3362  -16.1852 C   0  0  0  0  0  0  0  0  0  0  0  0
   26.1137  -22.3152  -15.7071 O   0  0  0  0  0  0  0  0  0  0  0  0
   23.5372  -19.0950  -17.5091 O   0  0  0  0  0  0  0  0  0  0  0  0
   27.2151  -20.2889  -15.4403 N   0  0  0  0  0  0  0  0  0  0  0  0
   28.3983  -19.5020  -15.8646 C   0  0  0  0  0  0  0  0  0  0  0  0
   27.9411  -18.0966  -15.5781 C   0  0  0  0  0  0  0  0  0  0  0  0
   26.7930  -18.2277  -14.6097 C   0  0  0  0  0  0  0  0  0  0  0  0
   26.9403  -19.6939  -14.1479 C   0  0  1  0  0  0  0  0  0  0  0  0
   25.6908  -20.1240  -13.5100 C   0  0  0  0  0  0  0  0  0  0  0  0
   24.6406  -19.8926  -14.2312 O   0  0  0  0  0  0  0  0  0  0  0  0
   25.4716  -20.7314  -12.2795 N   0  0  0  0  0  0  0  0  0  0  0  0
   26.5716  -21.5600  -11.6550 C   0  0  0  0  0  0  0  0  0  0  0  0
   26.6215  -20.8976  -10.2702 C   0  0  0  0  0  0  0  0  0  0  0  0
   25.2784  -20.1641  -10.1184 C   0  0  0  0  0  0  0  0  0  0  0  0
   24.5103  -20.8524  -11.2483 C   0  0  1  0  0  0  0  0  0  0  0  0
   23.1424  -20.4784  -11.3948 C   0  0  0  0  0  0  0  0  0  0  0  0
   22.0677  -21.3298  -11.0325 O   0  0  0  0  0  0  0  0  0  0  0  0
   22.7847  -19.3828  -11.8487 O   0  0  0  0  0  0  0  0  0  0  0  0
  2  1  1  6
  3  2  1  0
  3  4  1  0
  4  5  1  0
  5  9  1  0
  5  6  2  0
  7  2  1  0
  8  7  2  0
 10  7  1  0
 10 14  1  0
 11 12  1  0
 11 10  1  0
 12 13  1  0
 13 14  1  0
 14 15  1  6
 15 16  2  0
 17 15  1  0
 17 21  1  0
 18 19  1  0
 18 17  1  0
 19 20  1  0
 20 21  1  0
 21 22  1  6
 22 24  2  0
 22 23  1  0
M  END
$$$$
