EPP.pdb
     RDKit          3D

 24 25  0  0  1  0  0  0  0  0999 V2000
   22.9832  -21.5417  -16.2723 N   0  0  0  0  0  0  0  0  0  0  0  0
   23.8588  -20.4994  -15.8486 C   0  0  1  0  0  0  0  0  0  0  0  0
   23.0539  -19.3057  -15.3955 C   0  0  0  0  0  0  0  0  0  0  0  0
   21.6246  -19.2864  -15.8229 C   0  0  0  0  0  0  0  0  0  0  0  0
   20.6012  -19.5542  -14.8259 C   0  0  0  0  0  0  0  0  0  0  0  0
   19.4010  -19.6580  -15.0612 O   0  0  0  0  0  0  0  0  0  0  0  0
   24.7428  -20.9740  -14.7310 C   0  0  0  0  0  0  0  0  0  0  0  0
   24.2073  -21.7712  -13.9446 O   0  0  0  0  0  0  0  0  0  0  0  0
   20.9877  -19.7111  -13.4779 O   0  0  0  0  0  0  0  0  0  0  0  0
   26.0466  -20.5294  -14.6265 N   0  0  0  0  0  0  0  0  0  0  0  0
   26.9139  -20.3039  -15.8081 C   0  0  0  0  0  0  0  0  0  0  0  0
   27.5512  -18.9842  -15.4638 C   0  0  0  0  0  0  0  0  0  0  0  0
   27.3779  -18.8206  -13.9751 C   0  0  0  0  0  0  0  0  0  0  0  0
   26.9742  -20.2490  -13.5491 C   0  0  1  0  0  0  0  0  0  0  0  0
   26.3835  -20.2007  -12.2068 C   0  0  0  0  0  0  0  0  0  0  0  0
   25.4926  -19.2709  -12.0716 O   0  0  0  0  0  0  0  0  0  0  0  0
   26.6283  -20.9868  -11.0873 N   0  0  0  0  0  0  0  0  0  0  0  0
   27.3425  -22.3096  -11.2518 C   0  0  0  0  0  0  0  0  0  0  0  0
   28.4535  -22.1197  -10.2084 C   0  0  0  0  0  0  0  0  0  0  0  0
   27.9566  -20.9985   -9.2804 C   0  0  0  0  0  0  0  0  0  0  0  0
   26.4800  -21.0051   -9.6803 C   0  0  1  0  0  0  0  0  0  0  0  0
   25.6325  -20.1108   -8.9630 C   0  0  0  0  0  0  0  0  0  0  0  0
   25.8404  -18.7082   -8.9345 O   0  0  0  0  0  0  0  0  0  0  0  0
   24.6497  -20.4867   -8.3095 O   0  0  0  0  0  0  0  0  0  0  0  0
  2  1  1  1
  3  2  1  0
  3  4  1  0
  4  5  1  0
  5  9  1  0
  5  6  2  0
  7  2  1  0
  8  7  2  0
 10  7  1  0
 10 14  1  0
 11 12  1  0
 11 10  1  0
 12 13  1  0
 13 14  1  0
 14 15  1  1
 15 16  2  0
 17 15  1  0
 17 21  1  0
 18 19  1  0
 18 17  1  0
 19 20  1  0
 20 21  1  0
 21 22  1  1
 22 24  2  0
 22 23  1  0
M  END
$$$$
