EPP.pdb
     RDKit          3D

 24 25  0  0  1  0  0  0  0  0999 V2000
   25.4519  -22.1379  -11.7761 N   0  0  0  0  0  0  0  0  0  0  0  0
   26.1662  -20.9964  -11.3076 C   0  0  1  0  0  0  0  0  0  0  0  0
   25.2567  -19.7920  -11.2942 C   0  0  0  0  0  0  0  0  0  0  0  0
   24.5554  -19.4937  -12.5768 C   0  0  0  0  0  0  0  0  0  0  0  0
   23.1667  -19.9001  -12.7162 C   0  0  0  0  0  0  0  0  0  0  0  0
   22.7285  -20.6068  -13.6191 O   0  0  0  0  0  0  0  0  0  0  0  0
   26.7091  -21.2425   -9.9290 C   0  0  0  0  0  0  0  0  0  0  0  0
   25.8592  -21.2347   -9.0243 O   0  0  0  0  0  0  0  0  0  0  0  0
   22.2293  -19.4639  -11.7558 O   0  0  0  0  0  0  0  0  0  0  0  0
   28.0595  -21.4561   -9.7312 N   0  0  0  0  0  0  0  0  0  0  0  0
   28.8965  -22.2288  -10.6808 C   0  0  0  0  0  0  0  0  0  0  0  0
   30.1234  -21.3613  -10.7721 C   0  0  0  0  0  0  0  0  0  0  0  0
   30.0880  -20.4707   -9.5561 C   0  0  0  0  0  0  0  0  0  0  0  0
   29.0225  -21.1727   -8.6862 C   0  0  1  0  0  0  0  0  0  0  0  0
   28.5662  -20.2453   -7.6447 C   0  0  0  0  0  0  0  0  0  0  0  0
   28.2302  -19.0825   -8.1047 O   0  0  0  0  0  0  0  0  0  0  0  0
   28.4400  -20.4249   -6.2725 N   0  0  0  0  0  0  0  0  0  0  0  0
   28.2662  -21.8220   -5.7204 C   0  0  0  0  0  0  0  0  0  0  0  0
   29.3916  -21.8143   -4.6752 C   0  0  0  0  0  0  0  0  0  0  0  0
   29.7088  -20.3303   -4.4257 C   0  0  0  0  0  0  0  0  0  0  0  0
   28.4521  -19.7179   -5.0469 C   0  0  1  0  0  0  0  0  0  0  0  0
   28.3324  -18.3005   -4.9507 C   0  0  0  0  0  0  0  0  0  0  0  0
   29.3153  -17.4842   -4.3353 O   0  0  0  0  0  0  0  0  0  0  0  0
   27.3630  -17.6709   -5.3959 O   0  0  0  0  0  0  0  0  0  0  0  0
  2  1  1  1
  3  2  1  0
  3  4  1  0
  4  5  1  0
  5  9  1  0
  5  6  2  0
  7  2  1  0
  8  7  2  0
 10  7  1  0
 10 14  1  0
 11 12  1  0
 11 10  1  0
 12 13  1  0
 13 14  1  0
 14 15  1  1
 15 16  2  0
 17 15  1  0
 17 21  1  0
 18 19  1  0
 18 17  1  0
 19 20  1  0
 20 21  1  0
 21 22  1  6
 22 24  2  0
 22 23  1  0
M  END
$$$$
