FYP.pdb
     RDKit          3D

 31 33  0  0  1  0  0  0  0  0999 V2000
   28.9422  -21.1025   -9.3550 N   0  0  0  0  0  0  0  0  0  0  0  0
   27.5067  -21.0066   -9.2144 C   0  0  1  0  0  0  0  0  0  0  0  0
   27.2197  -19.7239   -8.4742 C   0  0  0  0  0  0  0  0  0  0  0  0
   27.6317  -19.7737   -7.0565 C   0  0  0  0  0  0  0  0  0  0  0  0
   28.9322  -19.5430   -6.6825 C   0  0  0  0  0  0  0  0  0  0  0  0
   29.2863  -19.5964   -5.3509 C   0  0  0  0  0  0  0  0  0  0  0  0
   28.3447  -19.8795   -4.3926 C   0  0  0  0  0  0  0  0  0  0  0  0
   27.0298  -20.1122   -4.7763 C   0  0  0  0  0  0  0  0  0  0  0  0
   26.6750  -20.0580   -6.1182 C   0  0  0  0  0  0  0  0  0  0  0  0
   26.8065  -20.9790  -10.5073 C   0  0  0  0  0  0  0  0  0  0  0  0
   27.1780  -20.1357  -11.3588 O   0  0  0  0  0  0  0  0  0  0  0  0
   22.8217  -23.3653  -17.8682 O   0  0  0  0  0  0  0  0  0  0  0  0
   23.2861  -23.3628  -16.5568 C   0  0  0  0  0  0  0  0  0  0  0  0
   22.4336  -23.4302  -15.4744 C   0  0  0  0  0  0  0  0  0  0  0  0
   22.9545  -23.4240  -14.1919 C   0  0  0  0  0  0  0  0  0  0  0  0
   24.3103  -23.3521  -13.9545 C   0  0  0  0  0  0  0  0  0  0  0  0
   24.8764  -23.3447  -12.5667 C   0  0  0  0  0  0  0  0  0  0  0  0
   25.1658  -21.8991  -12.1924 C   0  0  2  0  0  0  0  0  0  0  0  0
   25.7381  -21.8464  -10.8506 N   0  0  0  0  0  0  0  0  0  0  0  0
   23.8872  -21.1548  -12.2381 C   0  0  0  0  0  0  0  0  0  0  0  0
   23.1866  -21.1991  -11.1612 O   0  0  0  0  0  0  0  0  0  0  0  0
   25.1522  -23.2851  -15.0463 C   0  0  0  0  0  0  0  0  0  0  0  0
   24.6440  -23.2907  -16.3201 C   0  0  0  0  0  0  0  0  0  0  0  0
   23.4016  -20.4280  -13.3313 N   0  0  0  0  0  0  0  0  0  0  0  0
   23.9743  -20.2917  -14.6459 C   0  0  0  0  0  0  0  0  0  0  0  0
   23.5346  -18.9099  -15.1065 C   0  0  0  0  0  0  0  0  0  0  0  0
   22.5775  -18.4133  -14.0805 C   0  0  0  0  0  0  0  0  0  0  0  0
   22.1624  -19.6296  -13.3223 C   0  0  1  0  0  0  0  0  0  0  0  0
   21.1173  -20.3850  -14.0218 C   0  0  0  0  0  0  0  0  0  0  0  0
   21.3488  -21.5981  -14.6870 O   0  0  0  0  0  0  0  0  0  0  0  0
   19.9341  -19.9571  -14.0515 O   0  0  0  0  0  0  0  0  0  0  0  0
  2  1  1  6
  2  3  1  0
  3  4  1  0
  4  5  2  0
  5  6  1  0
  7  6  2  0
  8  7  1  0
  9  4  1  0
  9  8  2  0
 10  2  1  0
 11 10  2  0
 13 12  1  0
 13 14  2  0
 15 14  1  0
 16 15  2  0
 17 16  1  0
 18 19  1  0
 18 17  1  1
 19 10  1  0
 20 18  1  0
 21 20  2  0
 22 23  2  0
 22 16  1  0
 23 13  1  0
 24 20  1  0
 25 24  1  0
 26 25  1  0
 26 27  1  0
 27 28  1  0
 28 24  1  0
 28 29  1  6
 30 29  1  0
 31 29  2  0
M  END
$$$$
