FYP.pdb
     RDKit          3D

 31 33  0  0  1  0  0  0  0  0999 V2000
   26.2223  -18.4750   -7.6875 N   0  0  0  0  0  0  0  0  0  0  0  0
   26.8590  -19.6935   -8.1342 C   0  0  1  0  0  0  0  0  0  0  0  0
   26.7671  -20.6823   -6.9987 C   0  0  0  0  0  0  0  0  0  0  0  0
   27.6693  -20.3539   -5.8761 C   0  0  0  0  0  0  0  0  0  0  0  0
   29.0294  -20.2868   -6.0494 C   0  0  0  0  0  0  0  0  0  0  0  0
   29.8459  -19.9778   -4.9821 C   0  0  0  0  0  0  0  0  0  0  0  0
   29.3071  -19.7356   -3.7426 C   0  0  0  0  0  0  0  0  0  0  0  0
   27.9299  -19.8047   -3.5724 C   0  0  0  0  0  0  0  0  0  0  0  0
   27.1090  -20.1163   -4.6488 C   0  0  0  0  0  0  0  0  0  0  0  0
   26.2159  -20.2711   -9.3240 C   0  0  0  0  0  0  0  0  0  0  0  0
   24.9627  -20.2541   -9.3811 O   0  0  0  0  0  0  0  0  0  0  0  0
   27.3432  -18.8662  -17.8968 O   0  0  0  0  0  0  0  0  0  0  0  0
   27.5351  -19.2214  -16.5655 C   0  0  0  0  0  0  0  0  0  0  0  0
   27.6912  -18.2810  -15.5685 C   0  0  0  0  0  0  0  0  0  0  0  0
   27.8790  -18.6950  -14.2609 C   0  0  0  0  0  0  0  0  0  0  0  0
   27.9160  -20.0287  -13.9152 C   0  0  0  0  0  0  0  0  0  0  0  0
   28.1198  -20.4792  -12.5002 C   0  0  0  0  0  0  0  0  0  0  0  0
   26.7828  -20.3713  -11.7830 C   0  0  2  0  0  0  0  0  0  0  0  0
   26.9248  -20.8458  -10.4099 N   0  0  0  0  0  0  0  0  0  0  0  0
   25.8056  -21.2046  -12.5189 C   0  0  0  0  0  0  0  0  0  0  0  0
   25.9472  -22.4742  -12.3751 O   0  0  0  0  0  0  0  0  0  0  0  0
   27.7586  -20.9593  -14.9224 C   0  0  0  0  0  0  0  0  0  0  0  0
   27.5721  -20.5573  -16.2203 C   0  0  0  0  0  0  0  0  0  0  0  0
   24.7708  -20.7275  -13.3317 N   0  0  0  0  0  0  0  0  0  0  0  0
   24.5892  -19.4044  -13.8716 C   0  0  0  0  0  0  0  0  0  0  0  0
   23.0796  -19.2435  -13.9730 C   0  0  0  0  0  0  0  0  0  0  0  0
   22.4955  -20.5727  -13.6456 C   0  0  0  0  0  0  0  0  0  0  0  0
   23.6264  -21.5352  -13.7912 C   0  0  1  0  0  0  0  0  0  0  0  0
   23.8542  -21.9103  -15.1910 C   0  0  0  0  0  0  0  0  0  0  0  0
   23.1087  -22.8894  -15.8642 O   0  0  0  0  0  0  0  0  0  0  0  0
   24.7582  -21.3477  -15.8619 O   0  0  0  0  0  0  0  0  0  0  0  0
  2  1  1  1
  2  3  1  0
  3  4  1  0
  4  5  2  0
  5  6  1  0
  7  6  2  0
  8  7  1  0
  9  4  1  0
  9  8  2  0
 10  2  1  0
 11 10  2  0
 13 12  1  0
 13 14  2  0
 15 14  1  0
 16 15  2  0
 17 16  1  0
 18 19  1  0
 18 17  1  6
 19 10  1  0
 20 18  1  0
 21 20  2  0
 22 23  2  0
 22 16  1  0
 23 13  1  0
 24 20  1  0
 25 24  1  0
 26 25  1  0
 26 27  1  0
 27 28  1  0
 28 24  1  0
 28 29  1  6
 30 29  1  0
 31 29  2  0
M  END
$$$$
