FYP.pdb
     RDKit          3D

 31 33  0  0  1  0  0  0  0  0999 V2000
   29.3402  -22.0790  -10.2405 N   0  0  0  0  0  0  0  0  0  0  0  0
   28.2816  -21.4127   -9.5159 C   0  0  1  0  0  0  0  0  0  0  0  0
   28.7924  -20.0419   -9.1479 C   0  0  0  0  0  0  0  0  0  0  0  0
   28.5456  -19.6972   -7.7328 C   0  0  0  0  0  0  0  0  0  0  0  0
   27.4827  -18.9104   -7.3647 C   0  0  0  0  0  0  0  0  0  0  0  0
   27.2782  -18.6059   -6.0355 C   0  0  0  0  0  0  0  0  0  0  0  0
   28.1327  -19.0854   -5.0737 C   0  0  0  0  0  0  0  0  0  0  0  0
   29.2070  -19.8814   -5.4514 C   0  0  0  0  0  0  0  0  0  0  0  0
   29.4113  -20.1871   -6.7910 C   0  0  0  0  0  0  0  0  0  0  0  0
   27.0509  -21.2673  -10.3078 C   0  0  0  0  0  0  0  0  0  0  0  0
   27.0666  -21.6676  -11.4967 O   0  0  0  0  0  0  0  0  0  0  0  0
   18.4986  -21.2520  -12.2124 O   0  0  0  0  0  0  0  0  0  0  0  0
   19.7204  -20.9598  -11.6149 C   0  0  0  0  0  0  0  0  0  0  0  0
   20.4963  -19.8905  -12.0118 C   0  0  0  0  0  0  0  0  0  0  0  0
   21.7039  -19.6494  -11.3793 C   0  0  0  0  0  0  0  0  0  0  0  0
   22.1644  -20.4486  -10.3552 C   0  0  0  0  0  0  0  0  0  0  0  0
   23.4718  -20.1897   -9.6694 C   0  0  0  0  0  0  0  0  0  0  0  0
   24.5638  -20.8659  -10.4841 C   0  0  2  0  0  0  0  0  0  0  0  0
   25.8485  -20.7028   -9.8105 N   0  0  0  0  0  0  0  0  0  0  0  0
   24.5954  -20.2261  -11.8184 C   0  0  0  0  0  0  0  0  0  0  0  0
   24.9758  -18.9982  -11.8304 O   0  0  0  0  0  0  0  0  0  0  0  0
   21.3783  -21.5150   -9.9678 C   0  0  0  0  0  0  0  0  0  0  0  0
   20.1807  -21.7607  -10.5893 C   0  0  0  0  0  0  0  0  0  0  0  0
   24.2547  -20.8402  -13.0291 N   0  0  0  0  0  0  0  0  0  0  0  0
   23.7003  -22.1517  -13.2469 C   0  0  0  0  0  0  0  0  0  0  0  0
   24.2359  -22.5650  -14.6097 C   0  0  0  0  0  0  0  0  0  0  0  0
   24.9273  -21.3701  -15.1660 C   0  0  0  0  0  0  0  0  0  0  0  0
   24.4211  -20.2228  -14.3574 C   0  0  1  0  0  0  0  0  0  0  0  0
   23.1095  -19.7576  -14.8216 C   0  0  0  0  0  0  0  0  0  0  0  0
   21.9005  -20.0865  -14.1909 O   0  0  0  0  0  0  0  0  0  0  0  0
   23.0184  -19.0208  -15.8379 O   0  0  0  0  0  0  0  0  0  0  0  0
  2  1  1  6
  2  3  1  0
  3  4  1  0
  4  5  2  0
  5  6  1  0
  7  6  2  0
  8  7  1  0
  9  4  1  0
  9  8  2  0
 10  2  1  0
 11 10  2  0
 13 12  1  0
 13 14  2  0
 15 14  1  0
 16 15  2  0
 17 16  1  0
 18 19  1  0
 18 17  1  1
 19 10  1  0
 20 18  1  0
 21 20  2  0
 22 23  2  0
 22 16  1  0
 23 13  1  0
 24 20  1  0
 25 24  1  0
 26 25  1  0
 26 27  1  0
 27 28  1  0
 28 24  1  0
 28 29  1  6
 30 29  1  0
 31 29  2  0
M  END
$$$$
