FYP.pdb
     RDKit          3D

 31 33  0  0  1  0  0  0  0  0999 V2000
   27.3620  -20.3654  -14.4917 N   0  0  0  0  0  0  0  0  0  0  0  0
   28.0506  -20.8348  -13.3105 C   0  0  1  0  0  0  0  0  0  0  0  0
   29.4642  -20.3140  -13.3866 C   0  0  0  0  0  0  0  0  0  0  0  0
   30.3200  -20.8118  -12.2902 C   0  0  0  0  0  0  0  0  0  0  0  0
   30.6301  -20.0215  -11.2116 C   0  0  0  0  0  0  0  0  0  0  0  0
   31.4314  -20.5144  -10.2035 C   0  0  0  0  0  0  0  0  0  0  0  0
   31.9235  -21.7945  -10.2705 C   0  0  0  0  0  0  0  0  0  0  0  0
   31.6067  -22.5905  -11.3644 C   0  0  0  0  0  0  0  0  0  0  0  0
   30.7993  -22.0921  -12.3789 C   0  0  0  0  0  0  0  0  0  0  0  0
   27.4331  -20.3605  -12.0629 C   0  0  0  0  0  0  0  0  0  0  0  0
   27.2243  -19.1293  -11.9418 O   0  0  0  0  0  0  0  0  0  0  0  0
   21.0757  -18.8974  -12.5015 O   0  0  0  0  0  0  0  0  0  0  0  0
   22.0641  -19.4981  -11.7285 C   0  0  0  0  0  0  0  0  0  0  0  0
   22.2334  -19.2026  -10.3917 C   0  0  0  0  0  0  0  0  0  0  0  0
   23.2350  -19.8328   -9.6733 C   0  0  0  0  0  0  0  0  0  0  0  0
   24.0791  -20.7557  -10.2523 C   0  0  0  0  0  0  0  0  0  0  0  0
   25.1646  -21.4388   -9.4765 C   0  0  0  0  0  0  0  0  0  0  0  0
   26.4662  -20.7027   -9.7551 C   0  0  2  0  0  0  0  0  0  0  0  0
   27.0596  -21.2085  -10.9891 N   0  0  0  0  0  0  0  0  0  0  0  0
   27.3743  -20.9394   -8.6105 C   0  0  0  0  0  0  0  0  0  0  0  0
   28.0730  -22.0165   -8.6766 O   0  0  0  0  0  0  0  0  0  0  0  0
   23.8989  -21.0422  -11.5905 C   0  0  0  0  0  0  0  0  0  0  0  0
   22.9090  -20.4222  -12.3092 C   0  0  0  0  0  0  0  0  0  0  0  0
   27.5251  -20.1029   -7.4984 N   0  0  0  0  0  0  0  0  0  0  0  0
   26.9042  -18.8288   -7.2414 C   0  0  0  0  0  0  0  0  0  0  0  0
   27.9226  -18.0777   -6.3966 C   0  0  0  0  0  0  0  0  0  0  0  0
   28.9983  -19.0545   -6.0738 C   0  0  0  0  0  0  0  0  0  0  0  0
   28.3957  -20.3924   -6.3446 C   0  0  1  0  0  0  0  0  0  0  0  0
   27.5568  -20.8542   -5.2332 C   0  0  0  0  0  0  0  0  0  0  0  0
   28.0636  -21.2237   -3.9786 O   0  0  0  0  0  0  0  0  0  0  0  0
   26.3086  -20.9384   -5.3701 O   0  0  0  0  0  0  0  0  0  0  0  0
  2  1  1  6
  2  3  1  0
  3  4  1  0
  4  5  2  0
  5  6  1  0
  7  6  2  0
  8  7  1  0
  9  4  1  0
  9  8  2  0
 10  2  1  0
 11 10  2  0
 13 12  1  0
 13 14  2  0
 15 14  1  0
 16 15  2  0
 17 16  1  0
 18 19  1  0
 18 17  1  1
 19 10  1  0
 20 18  1  0
 21 20  2  0
 22 23  2  0
 22 16  1  0
 23 13  1  0
 24 20  1  0
 25 24  1  0
 26 25  1  0
 26 27  1  0
 27 28  1  0
 28 24  1  0
 28 29  1  1
 30 29  1  0
 31 29  2  0
M  END
$$$$
