FYP.pdb
     RDKit          3D

 31 33  0  0  1  0  0  0  0  0999 V2000
   23.6643  -15.4595  -18.1922 N   0  0  0  0  0  0  0  0  0  0  0  0
   24.3809  -16.6538  -17.8053 C   0  0  1  0  0  0  0  0  0  0  0  0
   25.8399  -16.2826  -17.7097 C   0  0  0  0  0  0  0  0  0  0  0  0
   26.5548  -16.4255  -18.9944 C   0  0  0  0  0  0  0  0  0  0  0  0
   26.9853  -17.6507  -19.4393 C   0  0  0  0  0  0  0  0  0  0  0  0
   27.6500  -17.7523  -20.6431 C   0  0  0  0  0  0  0  0  0  0  0  0
   27.8856  -16.6333  -21.4031 C   0  0  0  0  0  0  0  0  0  0  0  0
   27.4479  -15.3955  -20.9484 C   0  0  0  0  0  0  0  0  0  0  0  0
   26.7784  -15.2952  -19.7354 C   0  0  0  0  0  0  0  0  0  0  0  0
   23.9387  -17.1911  -16.5097 C   0  0  0  0  0  0  0  0  0  0  0  0
   23.5626  -16.3760  -15.6332 O   0  0  0  0  0  0  0  0  0  0  0  0
   19.6825  -20.7743  -10.0779 O   0  0  0  0  0  0  0  0  0  0  0  0
   20.2071  -20.4082  -11.3132 C   0  0  0  0  0  0  0  0  0  0  0  0
   20.5872  -21.3404  -12.2564 C   0  0  0  0  0  0  0  0  0  0  0  0
   21.1032  -20.9157  -13.4687 C   0  0  0  0  0  0  0  0  0  0  0  0
   21.2527  -19.5793  -13.7710 C   0  0  0  0  0  0  0  0  0  0  0  0
   21.8116  -19.1173  -15.0828 C   0  0  0  0  0  0  0  0  0  0  0  0
   23.3269  -19.0845  -14.9545 C   0  0  2  0  0  0  0  0  0  0  0  0
   23.9113  -18.5728  -16.1904 N   0  0  0  0  0  0  0  0  0  0  0  0
   23.7897  -20.4669  -14.6982 C   0  0  0  0  0  0  0  0  0  0  0  0
   23.7093  -21.2683  -15.7001 O   0  0  0  0  0  0  0  0  0  0  0  0
   20.8685  -18.6571  -12.8186 C   0  0  0  0  0  0  0  0  0  0  0  0
   20.3565  -19.0697  -11.6150 C   0  0  0  0  0  0  0  0  0  0  0  0
   24.2942  -20.9496  -13.4851 N   0  0  0  0  0  0  0  0  0  0  0  0
   24.2614  -20.3269  -12.1866 C   0  0  0  0  0  0  0  0  0  0  0  0
   25.5150  -20.8381  -11.4924 C   0  0  0  0  0  0  0  0  0  0  0  0
   26.0960  -21.8736  -12.3900 C   0  0  0  0  0  0  0  0  0  0  0  0
   24.9887  -22.2395  -13.3208 C   0  0  1  0  0  0  0  0  0  0  0  0
   24.0551  -23.1969  -12.7174 C   0  0  0  0  0  0  0  0  0  0  0  0
   22.7459  -22.8695  -12.3347 O   0  0  0  0  0  0  0  0  0  0  0  0
   24.4073  -24.3879  -12.5141 O   0  0  0  0  0  0  0  0  0  0  0  0
  2  1  1  1
  2  3  1  0
  3  4  1  0
  4  5  2  0
  5  6  1  0
  7  6  2  0
  8  7  1  0
  9  4  1  0
  9  8  2  0
 10  2  1  0
 11 10  2  0
 13 12  1  0
 13 14  2  0
 15 14  1  0
 16 15  2  0
 17 16  1  0
 18 19  1  0
 18 17  1  6
 19 10  1  0
 20 18  1  0
 21 20  2  0
 22 23  2  0
 22 16  1  0
 23 13  1  0
 24 20  1  0
 25 24  1  0
 26 25  1  0
 26 27  1  0
 27 28  1  0
 28 24  1  0
 28 29  1  1
 30 29  1  0
 31 29  2  0
M  END
$$$$
