FYP.pdb
     RDKit          3D

 31 33  0  0  1  0  0  0  0  0999 V2000
   25.3323  -21.3314   -7.0173 N   0  0  0  0  0  0  0  0  0  0  0  0
   25.9834  -20.5537   -8.0472 C   0  0  1  0  0  0  0  0  0  0  0  0
   27.4677  -20.7772   -7.8981 C   0  0  0  0  0  0  0  0  0  0  0  0
   28.0169  -20.1850   -6.6612 C   0  0  0  0  0  0  0  0  0  0  0  0
   28.8969  -20.8779   -5.8676 C   0  0  0  0  0  0  0  0  0  0  0  0
   29.3926  -20.2983   -4.7189 C   0  0  0  0  0  0  0  0  0  0  0  0
   29.0114  -19.0287   -4.3612 C   0  0  0  0  0  0  0  0  0  0  0  0
   28.1205  -18.3315   -5.1679 C   0  0  0  0  0  0  0  0  0  0  0  0
   27.6222  -18.9171   -6.3247 C   0  0  0  0  0  0  0  0  0  0  0  0
   25.5750  -20.9467   -9.4042 C   0  0  0  0  0  0  0  0  0  0  0  0
   26.0057  -22.0354   -9.8552 O   0  0  0  0  0  0  0  0  0  0  0  0
   21.4324  -22.1848  -16.9491 O   0  0  0  0  0  0  0  0  0  0  0  0
   21.8159  -21.6267  -15.7339 C   0  0  0  0  0  0  0  0  0  0  0  0
   22.3042  -20.3402  -15.6367 C   0  0  0  0  0  0  0  0  0  0  0  0
   22.6701  -19.8390  -14.3992 C   0  0  0  0  0  0  0  0  0  0  0  0
   22.5628  -20.5878  -13.2471 C   0  0  0  0  0  0  0  0  0  0  0  0
   22.9588  -20.0473  -11.9063 C   0  0  0  0  0  0  0  0  0  0  0  0
   24.3419  -20.5889  -11.5790 C   0  0  2  0  0  0  0  0  0  0  0  0
   24.7248  -20.1714  -10.2337 N   0  0  0  0  0  0  0  0  0  0  0  0
   25.2893  -20.0451  -12.5777 C   0  0  0  0  0  0  0  0  0  0  0  0
   25.5860  -18.8025  -12.4345 O   0  0  0  0  0  0  0  0  0  0  0  0
   22.0727  -21.8734  -13.3583 C   0  0  0  0  0  0  0  0  0  0  0  0
   21.7081  -22.3774  -14.5806 C   0  0  0  0  0  0  0  0  0  0  0  0
   25.8691  -20.7615  -13.6312 N   0  0  0  0  0  0  0  0  0  0  0  0
   25.6122  -22.1172  -14.0448 C   0  0  0  0  0  0  0  0  0  0  0  0
   26.9350  -22.5890  -14.6300 C   0  0  0  0  0  0  0  0  0  0  0  0
   27.8216  -21.3942  -14.6738 C   0  0  0  0  0  0  0  0  0  0  0  0
   26.9006  -20.2279  -14.5392 C   0  0  1  0  0  0  0  0  0  0  0  0
   26.2630  -19.8792  -15.8136 C   0  0  0  0  0  0  0  0  0  0  0  0
   24.8998  -20.0754  -16.0797 O   0  0  0  0  0  0  0  0  0  0  0  0
   26.9396  -19.3738  -16.7468 O   0  0  0  0  0  0  0  0  0  0  0  0
  2  1  1  1
  2  3  1  0
  3  4  1  0
  4  5  2  0
  5  6  1  0
  7  6  2  0
  8  7  1  0
  9  4  1  0
  9  8  2  0
 10  2  1  0
 11 10  2  0
 13 12  1  0
 13 14  2  0
 15 14  1  0
 16 15  2  0
 17 16  1  0
 18 19  1  0
 18 17  1  6
 19 10  1  0
 20 18  1  0
 21 20  2  0
 22 23  2  0
 22 16  1  0
 23 13  1  0
 24 20  1  0
 25 24  1  0
 26 25  1  0
 26 27  1  0
 27 28  1  0
 28 24  1  0
 28 29  1  6
 30 29  1  0
 31 29  2  0
M  END
$$$$
