FYP.pdb
     RDKit          3D

 31 33  0  0  1  0  0  0  0  0999 V2000
   19.7585   -9.2119    8.7745 N   0  0  0  0  0  0  0  0  0  0  0  0
   20.4531  -10.3772    8.2752 C   0  0  1  0  0  0  0  0  0  0  0  0
   21.4941  -10.7455    9.3029 C   0  0  0  0  0  0  0  0  0  0  0  0
   22.6742   -9.8576    9.2696 C   0  0  0  0  0  0  0  0  0  0  0  0
   23.4438   -9.7351    8.1394 C   0  0  0  0  0  0  0  0  0  0  0  0
   24.5394   -8.8980    8.1389 C   0  0  0  0  0  0  0  0  0  0  0  0
   24.8680   -8.1832    9.2642 C   0  0  0  0  0  0  0  0  0  0  0  0
   24.0860   -8.3106   10.4055 C   0  0  0  0  0  0  0  0  0  0  0  0
   22.9825   -9.1544   10.4041 C   0  0  0  0  0  0  0  0  0  0  0  0
   19.5613  -11.5275    8.0650 C   0  0  0  0  0  0  0  0  0  0  0  0
   18.4799  -11.5563    8.7003 O   0  0  0  0  0  0  0  0  0  0  0  0
   13.7142  -15.0501    3.6980 O   0  0  0  0  0  0  0  0  0  0  0  0
   15.0188  -14.8841    4.1515 C   0  0  0  0  0  0  0  0  0  0  0  0
   15.8505  -15.9546    4.4072 C   0  0  0  0  0  0  0  0  0  0  0  0
   17.1398  -15.7271    4.8571 C   0  0  0  0  0  0  0  0  0  0  0  0
   17.6283  -14.4546    5.0613 C   0  0  0  0  0  0  0  0  0  0  0  0
   19.0236  -14.2060    5.5489 C   0  0  0  0  0  0  0  0  0  0  0  0
   18.9319  -13.7236    6.9885 C   0  0  2  0  0  0  0  0  0  0  0  0
   19.8485  -12.6054    7.1889 N   0  0  0  0  0  0  0  0  0  0  0  0
   19.2976  -14.8554    7.8695 C   0  0  0  0  0  0  0  0  0  0  0  0
   20.5547  -14.9850    8.1049 O   0  0  0  0  0  0  0  0  0  0  0  0
   16.7858  -13.3924    4.8016 C   0  0  0  0  0  0  0  0  0  0  0  0
   15.5072  -13.6094    4.3557 C   0  0  0  0  0  0  0  0  0  0  0  0
   18.4042  -15.7642    8.4483 N   0  0  0  0  0  0  0  0  0  0  0  0
   16.9777  -15.8589    8.2715 C   0  0  0  0  0  0  0  0  0  0  0  0
   16.4703  -16.4109    9.5953 C   0  0  0  0  0  0  0  0  0  0  0  0
   17.6780  -16.7672   10.3890 C   0  0  0  0  0  0  0  0  0  0  0  0
   18.7873  -16.8292    9.3929 C   0  0  1  0  0  0  0  0  0  0  0  0
   18.8086  -18.1059    8.6706 C   0  0  0  0  0  0  0  0  0  0  0  0
   19.2662  -19.3078    9.2306 O   0  0  0  0  0  0  0  0  0  0  0  0
   18.4032  -18.1712    7.4810 O   0  0  0  0  0  0  0  0  0  0  0  0
  2  1  1  1
  2  3  1  0
  3  4  1  0
  4  5  2  0
  5  6  1  0
  7  6  2  0
  8  7  1  0
  9  4  1  0
  9  8  2  0
 10  2  1  0
 11 10  2  0
 13 12  1  0
 13 14  2  0
 15 14  1  0
 16 15  2  0
 17 16  1  0
 18 19  1  0
 18 17  1  6
 19 10  1  0
 20 18  1  0
 21 20  2  0
 22 23  2  0
 22 16  1  0
 23 13  1  0
 24 20  1  0
 25 24  1  0
 26 25  1  0
 26 27  1  0
 27 28  1  0
 28 24  1  0
 28 29  1  6
 30 29  1  0
 31 29  2  0
M  END
$$$$
