LMH.pdb
     RDKit          3D

 27 27  0  0  1  0  0  0  0  0999 V2000
   30.2113  -12.0517  -16.9893 C   0  0  0  0  0  0  0  0  0  0  0  0
   28.7402  -12.2560  -16.7575 C   0  0  1  0  0  0  0  0  0  0  0  0
   28.4835  -13.2985  -15.7280 C   0  0  0  0  0  0  0  0  0  0  0  0
   28.1030  -10.9280  -16.4560 C   0  0  0  0  0  0  0  0  0  0  0  0
   26.6257  -10.9911  -16.2981 C   0  0  2  0  0  0  0  0  0  0  0  0
   26.0174  -12.1057  -16.9612 N   0  0  0  0  0  0  0  0  0  0  0  0
   26.0346   -9.7244  -16.8032 C   0  0  0  0  0  0  0  0  0  0  0  0
   26.4270   -8.5894  -16.3720 O   0  0  0  0  0  0  0  0  0  0  0  0
   24.6564   -7.1413  -22.6460 C   0  0  0  0  0  0  0  0  0  0  0  0
   23.1462   -6.7708  -21.6850 S   0  0  0  0  0  0  0  0  0  0  0  0
   23.5503   -7.0278  -19.9488 C   0  0  0  0  0  0  0  0  0  0  0  0
   24.0874   -8.4024  -19.6629 C   0  0  0  0  0  0  0  0  0  0  0  0
   24.3550   -8.4623  -18.1619 C   0  0  2  0  0  0  0  0  0  0  0  0
   25.0101   -9.6965  -17.7843 N   0  0  0  0  0  0  0  0  0  0  0  0
   23.1006   -8.2759  -17.3766 C   0  0  0  0  0  0  0  0  0  0  0  0
   22.3133   -9.2474  -17.1336 O   0  0  0  0  0  0  0  0  0  0  0  0
   22.7804   -6.9937  -16.8930 N   0  0  0  0  0  0  0  0  0  0  0  0
   21.5627   -6.8214  -16.0793 C   0  0  1  0  0  0  0  0  0  0  0  0
   21.6773   -7.6222  -14.8118 C   0  0  0  0  0  0  0  0  0  0  0  0
   20.7761   -8.7807  -14.8632 C   0  0  0  0  0  0  0  0  0  0  0  0
   19.9769   -9.1378  -15.9484 C   0  0  0  0  0  0  0  0  0  0  0  0
   19.3100  -10.2523  -15.5889 N   0  0  0  0  0  0  0  0  0  0  0  0
   19.6519  -10.6044  -14.3426 C   0  0  0  0  0  0  0  0  0  0  0  0
   20.5445   -9.6925  -13.9251 N   0  0  0  0  0  0  0  0  0  0  0  0
   21.3653   -5.3861  -15.7685 C   0  0  0  0  0  0  0  0  0  0  0  0
   22.2559   -4.5723  -16.1189 O   0  0  0  0  0  0  0  0  0  0  0  0
   20.2643   -4.8735  -15.1182 O   0  0  0  0  0  0  0  0  0  0  0  0
  2  1  1  1
  2  3  1  0
  4  2  1  0
  5  4  1  0
  5  6  1  6
  7  8  2  0
  7  5  1  0
 10  9  1  0
 11 10  1  0
 11 12  1  0
 13 12  1  6
 13 14  1  0
 14  7  1  0
 15 16  2  0
 15 13  1  0
 17 15  1  0
 18 19  1  1
 18 17  1  0
 20 19  1  0
 20 21  2  0
 22 21  1  0
 23 24  2  0
 23 22  1  0
 24 20  1  0
 25 18  1  0
 26 25  2  0
 27 25  1  0
M  END
$$$$
