LMH.pdb
     RDKit          3D

 27 27  0  0  1  0  0  0  0  0999 V2000
   15.0909  -12.2051  -15.2907 C   0  0  0  0  0  0  0  0  0  0  0  0
   15.9229  -11.4872  -16.3164 C   0  0  1  0  0  0  0  0  0  0  0  0
   15.1482  -10.4220  -17.0076 C   0  0  0  0  0  0  0  0  0  0  0  0
   17.1883  -11.0002  -15.6666 C   0  0  0  0  0  0  0  0  0  0  0  0
   18.0208  -10.1347  -16.5437 C   0  0  2  0  0  0  0  0  0  0  0  0
   18.5462  -10.8072  -17.6942 N   0  0  0  0  0  0  0  0  0  0  0  0
   19.1367   -9.5699  -15.7406 C   0  0  0  0  0  0  0  0  0  0  0  0
   18.9395   -9.0869  -14.5761 O   0  0  0  0  0  0  0  0  0  0  0  0
   24.4503  -13.2383  -15.0595 C   0  0  0  0  0  0  0  0  0  0  0  0
   24.5097  -11.5704  -15.8051 S   0  0  0  0  0  0  0  0  0  0  0  0
   23.0191  -10.7058  -15.2816 C   0  0  0  0  0  0  0  0  0  0  0  0
   22.9015   -9.3239  -15.8613 C   0  0  0  0  0  0  0  0  0  0  0  0
   21.5097   -8.8153  -15.4972 C   0  0  2  0  0  0  0  0  0  0  0  0
   20.4747   -9.5323  -16.2111 N   0  0  0  0  0  0  0  0  0  0  0  0
   21.3864   -7.3478  -15.7341 C   0  0  0  0  0  0  0  0  0  0  0  0
   20.9198   -6.8835  -16.8246 O   0  0  0  0  0  0  0  0  0  0  0  0
   21.7964   -6.4553  -14.7263 N   0  0  0  0  0  0  0  0  0  0  0  0
   21.6111   -5.0075  -14.9364 C   0  0  1  0  0  0  0  0  0  0  0  0
   20.1569   -4.7076  -15.1741 C   0  0  0  0  0  0  0  0  0  0  0  0
   19.8683   -4.7172  -16.6141 C   0  0  0  0  0  0  0  0  0  0  0  0
   20.8123   -4.5775  -17.6306 C   0  0  0  0  0  0  0  0  0  0  0  0
   20.1395   -4.6419  -18.7964 N   0  0  0  0  0  0  0  0  0  0  0  0
   18.8326   -4.8135  -18.5581 C   0  0  0  0  0  0  0  0  0  0  0  0
   18.6956   -4.8558  -17.2231 N   0  0  0  0  0  0  0  0  0  0  0  0
   22.1071   -4.2612  -13.7563 C   0  0  0  0  0  0  0  0  0  0  0  0
   22.1754   -4.8632  -12.6557 O   0  0  0  0  0  0  0  0  0  0  0  0
   22.5046   -2.9424  -13.7785 O   0  0  0  0  0  0  0  0  0  0  0  0
  2  1  1  1
  2  3  1  0
  4  2  1  0
  5  4  1  0
  5  6  1  6
  7  8  2  0
  7  5  1  0
 10  9  1  0
 11 10  1  0
 11 12  1  0
 13 12  1  6
 13 14  1  0
 14  7  1  0
 15 16  2  0
 15 13  1  0
 17 15  1  0
 18 19  1  1
 18 17  1  0
 20 19  1  0
 20 21  2  0
 22 21  1  0
 23 24  2  0
 23 22  1  0
 24 20  1  0
 25 18  1  0
 26 25  2  0
 27 25  1  0
M  END
$$$$
