LMH.pdb
     RDKit          3D

 27 27  0  0  1  0  0  0  0  0999 V2000
   29.5840  -19.7079  -17.2257 C   0  0  0  0  0  0  0  0  0  0  0  0
   28.5999  -18.8949  -16.4320 C   0  0  1  0  0  0  0  0  0  0  0  0
   27.7102  -18.0917  -17.3130 C   0  0  0  0  0  0  0  0  0  0  0  0
   27.8657  -19.8029  -15.4849 C   0  0  0  0  0  0  0  0  0  0  0  0
   26.8320  -19.1125  -14.6686 C   0  0  2  0  0  0  0  0  0  0  0  0
   27.3373  -18.0168  -13.8965 N   0  0  0  0  0  0  0  0  0  0  0  0
   26.1896  -20.1054  -13.7683 C   0  0  0  0  0  0  0  0  0  0  0  0
   25.7495  -21.2179  -14.2119 O   0  0  0  0  0  0  0  0  0  0  0  0
   29.4353  -21.2037   -8.5120 C   0  0  0  0  0  0  0  0  0  0  0  0
   27.6145  -21.2299   -8.3525 S   0  0  0  0  0  0  0  0  0  0  0  0
   26.9395  -21.2404  -10.0222 C   0  0  0  0  0  0  0  0  0  0  0  0
   25.5449  -20.6850  -10.1007 C   0  0  0  0  0  0  0  0  0  0  0  0
   25.1490  -20.7075  -11.5741 C   0  0  2  0  0  0  0  0  0  0  0  0
   26.0269  -19.8828  -12.3765 N   0  0  0  0  0  0  0  0  0  0  0  0
   23.7281  -20.2947  -11.7631 C   0  0  0  0  0  0  0  0  0  0  0  0
   23.3227  -19.1294  -11.4462 O   0  0  0  0  0  0  0  0  0  0  0  0
   22.8140  -21.2171  -12.3051 N   0  0  0  0  0  0  0  0  0  0  0  0
   21.6209  -20.7103  -13.0083 C   0  0  1  0  0  0  0  0  0  0  0  0
   22.0379  -19.9109  -14.2116 C   0  0  0  0  0  0  0  0  0  0  0  0
   20.8531  -19.4551  -14.9502 C   0  0  0  0  0  0  0  0  0  0  0  0
   19.5293  -19.6579  -14.5628 C   0  0  0  0  0  0  0  0  0  0  0  0
   18.7566  -19.0877  -15.5082 N   0  0  0  0  0  0  0  0  0  0  0  0
   19.5281  -18.5437  -16.4585 C   0  0  0  0  0  0  0  0  0  0  0  0
   20.7983  -18.7817  -16.0942 N   0  0  0  0  0  0  0  0  0  0  0  0
   20.7576  -21.8443  -13.4142 C   0  0  0  0  0  0  0  0  0  0  0  0
   21.3089  -22.8970  -13.8218 O   0  0  0  0  0  0  0  0  0  0  0  0
   19.3807  -21.8288  -13.3750 O   0  0  0  0  0  0  0  0  0  0  0  0
  2  1  1  6
  2  3  1  0
  4  2  1  0
  5  4  1  0
  5  6  1  1
  7  8  2  0
  7  5  1  0
 10  9  1  0
 11 10  1  0
 11 12  1  0
 13 12  1  1
 13 14  1  0
 14  7  1  0
 15 16  2  0
 15 13  1  0
 17 15  1  0
 18 19  1  6
 18 17  1  0
 20 19  1  0
 20 21  2  0
 22 21  1  0
 23 24  2  0
 23 22  1  0
 24 20  1  0
 25 18  1  0
 26 25  2  0
 27 25  1  0
M  END
$$$$
