LMH.pdb
     RDKit          3D

 27 27  0  0  1  0  0  0  0  0999 V2000
   30.0083  -20.8343  -16.5273 C   0  0  0  0  0  0  0  0  0  0  0  0
   28.8078  -21.6247  -16.9673 C   0  0  1  0  0  0  0  0  0  0  0  0
   29.1984  -22.8648  -17.6900 C   0  0  0  0  0  0  0  0  0  0  0  0
   27.9166  -21.8631  -15.7800 C   0  0  0  0  0  0  0  0  0  0  0  0
   27.2228  -20.6413  -15.2930 C   0  0  2  0  0  0  0  0  0  0  0  0
   28.0967  -19.6751  -14.6973 N   0  0  0  0  0  0  0  0  0  0  0  0
   26.1771  -21.0409  -14.3152 C   0  0  0  0  0  0  0  0  0  0  0  0
   25.3029  -21.9252  -14.6012 O   0  0  0  0  0  0  0  0  0  0  0  0
   26.0921  -19.9088   -7.8428 C   0  0  0  0  0  0  0  0  0  0  0  0
   27.3624  -20.8693   -8.7401 S   0  0  0  0  0  0  0  0  0  0  0  0
   26.6899  -21.2391  -10.3694 C   0  0  0  0  0  0  0  0  0  0  0  0
   25.4012  -20.5201  -10.6554 C   0  0  0  0  0  0  0  0  0  0  0  0
   25.0315  -20.8456  -12.0996 C   0  0  2  0  0  0  0  0  0  0  0  0
   26.0855  -20.4722  -13.0186 N   0  0  0  0  0  0  0  0  0  0  0  0
   23.7447  -20.2010  -12.4914 C   0  0  0  0  0  0  0  0  0  0  0  0
   23.6976  -18.9941  -12.8963 O   0  0  0  0  0  0  0  0  0  0  0  0
   22.5538  -20.9463  -12.4110 N   0  0  0  0  0  0  0  0  0  0  0  0
   21.3973  -20.5340  -13.2277 C   0  0  1  0  0  0  0  0  0  0  0  0
   21.7762  -20.5255  -14.6828 C   0  0  0  0  0  0  0  0  0  0  0  0
   20.6789  -19.9723  -15.4870 C   0  0  0  0  0  0  0  0  0  0  0  0
   20.5274  -18.6314  -15.8374 C   0  0  0  0  0  0  0  0  0  0  0  0
   19.4008  -18.5472  -16.5721 N   0  0  0  0  0  0  0  0  0  0  0  0
   18.8471  -19.7606  -16.6956 C   0  0  0  0  0  0  0  0  0  0  0  0
   19.6445  -20.6084  -16.0263 N   0  0  0  0  0  0  0  0  0  0  0  0
   20.2624  -21.4578  -12.9939 C   0  0  0  0  0  0  0  0  0  0  0  0
   20.4615  -22.6914  -13.1237 O   0  0  0  0  0  0  0  0  0  0  0  0
   18.9926  -21.0586  -12.6393 O   0  0  0  0  0  0  0  0  0  0  0  0
  2  1  1  1
  2  3  1  0
  4  2  1  0
  5  4  1  0
  5  6  1  1
  7  8  2  0
  7  5  1  0
 10  9  1  0
 11 10  1  0
 11 12  1  0
 13 12  1  1
 13 14  1  0
 14  7  1  0
 15 16  2  0
 15 13  1  0
 17 15  1  0
 18 19  1  6
 18 17  1  0
 20 19  1  0
 20 21  2  0
 22 21  1  0
 23 24  2  0
 23 22  1  0
 24 20  1  0
 25 18  1  0
 26 25  2  0
 27 25  1  0
M  END
$$$$
