LMH.pdb
     RDKit          3D

 27 27  0  0  1  0  0  0  0  0999 V2000
   19.4188  -10.8081  -13.7827 C   0  0  0  0  0  0  0  0  0  0  0  0
   17.9556  -10.4811  -13.8910 C   0  0  1  0  0  0  0  0  0  0  0  0
   17.2473  -11.4171  -14.8048 C   0  0  0  0  0  0  0  0  0  0  0  0
   17.3660  -10.4107  -12.5098 C   0  0  0  0  0  0  0  0  0  0  0  0
   17.8618   -9.2654  -11.7011 C   0  0  2  0  0  0  0  0  0  0  0  0
   18.5966   -9.6528  -10.5341 N   0  0  0  0  0  0  0  0  0  0  0  0
   16.7047   -8.4201  -11.3067 C   0  0  0  0  0  0  0  0  0  0  0  0
   15.9603   -7.8627  -12.1804 O   0  0  0  0  0  0  0  0  0  0  0  0
   11.2394   -8.8319   -7.6511 C   0  0  0  0  0  0  0  0  0  0  0  0
   12.3133  -10.0221   -8.5295 S   0  0  0  0  0  0  0  0  0  0  0  0
   13.4996   -9.0581   -9.4819 C   0  0  0  0  0  0  0  0  0  0  0  0
   14.2758   -8.0800   -8.6450 C   0  0  0  0  0  0  0  0  0  0  0  0
   15.2268   -7.3543   -9.5921 C   0  0  2  0  0  0  0  0  0  0  0  0
   16.3585   -8.1820   -9.9515 N   0  0  0  0  0  0  0  0  0  0  0  0
   15.6899   -6.0598   -9.0135 C   0  0  0  0  0  0  0  0  0  0  0  0
   16.5354   -6.0174   -8.0617 O   0  0  0  0  0  0  0  0  0  0  0  0
   15.1786   -4.8562   -9.5333 N   0  0  0  0  0  0  0  0  0  0  0  0
   15.5779   -3.5820   -8.9077 C   0  0  1  0  0  0  0  0  0  0  0  0
   17.0656   -3.3982   -9.0267 C   0  0  0  0  0  0  0  0  0  0  0  0
   17.4479   -2.0595   -8.5591 C   0  0  0  0  0  0  0  0  0  0  0  0
   16.5723   -1.0925   -8.0671 C   0  0  0  0  0  0  0  0  0  0  0  0
   17.3202   -0.0173   -7.7500 N   0  0  0  0  0  0  0  0  0  0  0  0
   18.6090   -0.2650   -8.0181 C   0  0  0  0  0  0  0  0  0  0  0  0
   18.6582   -1.5137   -8.5090 N   0  0  0  0  0  0  0  0  0  0  0  0
   14.8641   -2.4579   -9.5578 C   0  0  0  0  0  0  0  0  0  0  0  0
   14.6921   -2.5005  -10.8016 O   0  0  0  0  0  0  0  0  0  0  0  0
   14.3686   -1.3591   -8.8908 O   0  0  0  0  0  0  0  0  0  0  0  0
  2  1  1  1
  2  3  1  0
  4  2  1  0
  5  4  1  0
  5  6  1  1
  7  8  2  0
  7  5  1  0
 10  9  1  0
 11 10  1  0
 11 12  1  0
 13 12  1  1
 13 14  1  0
 14  7  1  0
 15 16  2  0
 15 13  1  0
 17 15  1  0
 18 19  1  6
 18 17  1  0
 20 19  1  0
 20 21  2  0
 22 21  1  0
 23 24  2  0
 23 22  1  0
 24 20  1  0
 25 18  1  0
 26 25  2  0
 27 25  1  0
M  END
$$$$
