LMH.pdb
     RDKit          3D

 27 27  0  0  1  0  0  0  0  0999 V2000
   14.8353  -22.0261    5.2423 C   0  0  0  0  0  0  0  0  0  0  0  0
   14.9171  -20.8074    4.3661 C   0  0  1  0  0  0  0  0  0  0  0  0
   13.6990  -19.9616    4.4825 C   0  0  0  0  0  0  0  0  0  0  0  0
   16.1988  -20.0784    4.6598 C   0  0  0  0  0  0  0  0  0  0  0  0
   16.4564  -18.9257    3.7563 C   0  0  2  0  0  0  0  0  0  0  0  0
   16.7291  -19.2994    2.4006 N   0  0  0  0  0  0  0  0  0  0  0  0
   17.5944  -18.1373    4.2970 C   0  0  0  0  0  0  0  0  0  0  0  0
   18.8040  -18.4687    4.0618 O   0  0  0  0  0  0  0  0  0  0  0  0
   20.9712  -11.5010    6.2151 C   0  0  0  0  0  0  0  0  0  0  0  0
   19.2955  -12.2281    6.1457 S   0  0  0  0  0  0  0  0  0  0  0  0
   19.5000  -14.0014    5.9068 C   0  0  0  0  0  0  0  0  0  0  0  0
   18.2033  -14.7183    5.6531 C   0  0  0  0  0  0  0  0  0  0  0  0
   18.5347  -16.2059    5.5798 C   0  0  2  0  0  0  0  0  0  0  0  0
   17.4111  -16.9810    5.0986 N   0  0  0  0  0  0  0  0  0  0  0  0
   19.0013  -16.7260    6.8977 C   0  0  0  0  0  0  0  0  0  0  0  0
   18.2489  -17.4368    7.6403 O   0  0  0  0  0  0  0  0  0  0  0  0
   20.3057  -16.4227    7.3299 N   0  0  0  0  0  0  0  0  0  0  0  0
   20.7936  -17.0086    8.5921 C   0  0  1  0  0  0  0  0  0  0  0  0
   21.2013  -18.4385    8.3679 C   0  0  0  0  0  0  0  0  0  0  0  0
   20.1412  -19.3440    8.8296 C   0  0  0  0  0  0  0  0  0  0  0  0
   18.9316  -18.9508    9.4006 C   0  0  0  0  0  0  0  0  0  0  0  0
   18.2496  -20.0789    9.6802 N   0  0  0  0  0  0  0  0  0  0  0  0
   18.9694  -21.1476    9.3142 C   0  0  0  0  0  0  0  0  0  0  0  0
   20.1149  -20.6720    8.8001 N   0  0  0  0  0  0  0  0  0  0  0  0
   21.9382  -16.2183    9.1032 C   0  0  0  0  0  0  0  0  0  0  0  0
   22.4438  -16.5459   10.2057 O   0  0  0  0  0  0  0  0  0  0  0  0
   22.4951  -15.1408    8.4502 O   0  0  0  0  0  0  0  0  0  0  0  0
  2  1  1  1
  2  3  1  0
  4  2  1  0
  5  4  1  0
  5  6  1  6
  7  8  2  0
  7  5  1  0
 10  9  1  0
 11 10  1  0
 11 12  1  0
 13 12  1  1
 13 14  1  0
 14  7  1  0
 15 16  2  0
 15 13  1  0
 17 15  1  0
 18 19  1  6
 18 17  1  0
 20 19  1  0
 20 21  2  0
 22 21  1  0
 23 24  2  0
 23 22  1  0
 24 20  1  0
 25 18  1  0
 26 25  2  0
 27 25  1  0
M  END
$$$$
