LMH.pdb
     RDKit          3D

 27 27  0  0  1  0  0  0  0  0999 V2000
   14.6609  -13.3563  -17.5213 C   0  0  0  0  0  0  0  0  0  0  0  0
   16.1556  -13.2771  -17.3824 C   0  0  1  0  0  0  0  0  0  0  0  0
   16.8089  -12.8925  -18.6622 C   0  0  0  0  0  0  0  0  0  0  0  0
   16.4929  -12.3751  -16.2277 C   0  0  0  0  0  0  0  0  0  0  0  0
   17.9525  -12.1684  -16.0317 C   0  0  2  0  0  0  0  0  0  0  0  0
   18.6252  -13.2901  -15.4477 N   0  0  0  0  0  0  0  0  0  0  0  0
   18.1569  -10.9648  -15.1840 C   0  0  0  0  0  0  0  0  0  0  0  0
   17.9157  -10.9854  -13.9312 O   0  0  0  0  0  0  0  0  0  0  0  0
   23.8096   -9.6403  -15.1730 C   0  0  0  0  0  0  0  0  0  0  0  0
   22.8685   -8.2579  -14.4351 S   0  0  0  0  0  0  0  0  0  0  0  0
   21.1596   -8.8057  -14.2831 C   0  0  0  0  0  0  0  0  0  0  0  0
   20.1927   -7.9500  -15.0529 C   0  0  0  0  0  0  0  0  0  0  0  0
   18.8125   -8.5718  -14.8618 C   0  0  2  0  0  0  0  0  0  0  0  0
   18.6273   -9.7324  -15.7066 N   0  0  0  0  0  0  0  0  0  0  0  0
   17.7281   -7.5753  -15.0989 C   0  0  0  0  0  0  0  0  0  0  0  0
   17.1851   -7.4377  -16.2429 O   0  0  0  0  0  0  0  0  0  0  0  0
   17.2956   -6.7678  -14.0306 N   0  0  0  0  0  0  0  0  0  0  0  0
   16.2245   -5.7826  -14.2689 C   0  0  1  0  0  0  0  0  0  0  0  0
   15.1383   -5.9503  -13.2428 C   0  0  0  0  0  0  0  0  0  0  0  0
   14.2372   -7.0416  -13.6353 C   0  0  0  0  0  0  0  0  0  0  0  0
   14.3342   -7.7905  -14.8072 C   0  0  0  0  0  0  0  0  0  0  0  0
   13.3244   -8.6826  -14.7824 N   0  0  0  0  0  0  0  0  0  0  0  0
   12.6084   -8.5274  -13.6610 C   0  0  0  0  0  0  0  0  0  0  0  0
   13.1852   -7.5230  -12.9819 N   0  0  0  0  0  0  0  0  0  0  0  0
   16.7822   -4.4109  -14.2125 C   0  0  0  0  0  0  0  0  0  0  0  0
   17.9888   -4.2707  -13.8918 O   0  0  0  0  0  0  0  0  0  0  0  0
   16.0673   -3.2667  -14.4907 O   0  0  0  0  0  0  0  0  0  0  0  0
  2  1  1  6
  2  3  1  0
  4  2  1  0
  5  4  1  0
  5  6  1  1
  7  8  2  0
  7  5  1  0
 10  9  1  0
 11 10  1  0
 11 12  1  0
 13 12  1  6
 13 14  1  0
 14  7  1  0
 15 16  2  0
 15 13  1  0
 17 15  1  0
 18 19  1  1
 18 17  1  0
 20 19  1  0
 20 21  2  0
 22 21  1  0
 23 24  2  0
 23 22  1  0
 24 20  1  0
 25 18  1  0
 26 25  2  0
 27 25  1  0
M  END
$$$$
