LMH.pdb
     RDKit          3D

 27 27  0  0  1  0  0  0  0  0999 V2000
   19.6856  -21.9704  -15.6473 C   0  0  0  0  0  0  0  0  0  0  0  0
   19.7266  -22.0605  -14.1473 C   0  0  1  0  0  0  0  0  0  0  0  0
   19.8363  -23.4691  -13.6821 C   0  0  0  0  0  0  0  0  0  0  0  0
   20.8143  -21.1594  -13.6322 C   0  0  0  0  0  0  0  0  0  0  0  0
   21.0192  -21.2428  -12.1616 C   0  0  2  0  0  0  0  0  0  0  0  0
   19.9676  -20.6460  -11.3935 N   0  0  0  0  0  0  0  0  0  0  0  0
   22.3153  -20.6003  -11.8206 C   0  0  0  0  0  0  0  0  0  0  0  0
   22.4645  -19.3342  -11.8760 O   0  0  0  0  0  0  0  0  0  0  0  0
   27.0323  -19.7664   -6.9554 C   0  0  0  0  0  0  0  0  0  0  0  0
   27.5630  -20.9507   -8.2428 S   0  0  0  0  0  0  0  0  0  0  0  0
   26.6925  -20.5088   -9.7563 C   0  0  0  0  0  0  0  0  0  0  0  0
   25.4649  -21.3420   -9.9982 C   0  0  0  0  0  0  0  0  0  0  0  0
   24.7299  -20.7043  -11.1734 C   0  0  2  0  0  0  0  0  0  0  0  0
   23.4544  -21.3436  -11.4169 N   0  0  0  0  0  0  0  0  0  0  0  0
   25.5643  -20.7168  -12.4098 C   0  0  0  0  0  0  0  0  0  0  0  0
   25.8322  -21.7997  -13.0246 O   0  0  0  0  0  0  0  0  0  0  0  0
   26.0674  -19.5006  -12.9079 N   0  0  0  0  0  0  0  0  0  0  0  0
   26.8012  -19.5022  -14.1870 C   0  0  1  0  0  0  0  0  0  0  0  0
   27.2402  -18.1046  -14.5262 C   0  0  0  0  0  0  0  0  0  0  0  0
   27.9488  -18.0962  -15.8125 C   0  0  0  0  0  0  0  0  0  0  0  0
   28.1572  -19.2063  -16.6299 C   0  0  0  0  0  0  0  0  0  0  0  0
   28.8422  -18.7724  -17.7063 N   0  0  0  0  0  0  0  0  0  0  0  0
   29.0691  -17.4565  -17.6004 C   0  0  0  0  0  0  0  0  0  0  0  0
   28.5153  -17.0711  -16.4396 N   0  0  0  0  0  0  0  0  0  0  0  0
   27.9731  -20.4041  -14.0926 C   0  0  0  0  0  0  0  0  0  0  0  0
   28.3885  -20.9538  -15.1431 O   0  0  0  0  0  0  0  0  0  0  0  0
   28.6484  -20.6853  -12.9252 O   0  0  0  0  0  0  0  0  0  0  0  0
  2  1  1  6
  2  3  1  0
  4  2  1  0
  5  4  1  0
  5  6  1  1
  7  8  2  0
  7  5  1  0
 10  9  1  0
 11 10  1  0
 11 12  1  0
 13 12  1  1
 13 14  1  0
 14  7  1  0
 15 16  2  0
 15 13  1  0
 17 15  1  0
 18 19  1  1
 18 17  1  0
 20 19  1  0
 20 21  2  0
 22 21  1  0
 23 24  2  0
 23 22  1  0
 24 20  1  0
 25 18  1  0
 26 25  2  0
 27 25  1  0
M  END
$$$$
