LMH.pdb
     RDKit          3D

 27 27  0  0  1  0  0  0  0  0999 V2000
   18.5183  -14.2791    1.5677 C   0  0  0  0  0  0  0  0  0  0  0  0
   17.6853  -15.4763    1.2040 C   0  0  1  0  0  0  0  0  0  0  0  0
   18.4595  -16.4654    0.4071 C   0  0  0  0  0  0  0  0  0  0  0  0
   17.0711  -16.0434    2.4536 C   0  0  0  0  0  0  0  0  0  0  0  0
   16.2245  -17.2429    2.2175 C   0  0  2  0  0  0  0  0  0  0  0  0
   14.8225  -16.9590    2.1419 N   0  0  0  0  0  0  0  0  0  0  0  0
   16.4780  -18.2297    3.2996 C   0  0  0  0  0  0  0  0  0  0  0  0
   15.7739  -18.2450    4.3637 O   0  0  0  0  0  0  0  0  0  0  0  0
   20.3478  -24.1726    6.5954 C   0  0  0  0  0  0  0  0  0  0  0  0
   20.2555  -23.2659    5.0108 S   0  0  0  0  0  0  0  0  0  0  0  0
   19.1103  -21.8971    5.2529 C   0  0  0  0  0  0  0  0  0  0  0  0
   18.8022  -21.1514    3.9847 C   0  0  0  0  0  0  0  0  0  0  0  0
   17.9096  -19.9771    4.3753 C   0  0  2  0  0  0  0  0  0  0  0  0
   17.5054  -19.2050    3.2197 N   0  0  0  0  0  0  0  0  0  0  0  0
   18.5729  -19.0999    5.3831 C   0  0  0  0  0  0  0  0  0  0  0  0
   19.4088  -18.2018    5.0407 O   0  0  0  0  0  0  0  0  0  0  0  0
   18.2663  -19.2704    6.7459 N   0  0  0  0  0  0  0  0  0  0  0  0
   18.2470  -18.0877    7.6265 C   0  0  1  0  0  0  0  0  0  0  0  0
   17.2062  -17.1127    7.1500 C   0  0  0  0  0  0  0  0  0  0  0  0
   17.1588  -15.9481    8.0435 C   0  0  0  0  0  0  0  0  0  0  0  0
   17.5774  -14.6589    7.7171 C   0  0  0  0  0  0  0  0  0  0  0  0
   17.3655  -13.8947    8.8067 N   0  0  0  0  0  0  0  0  0  0  0  0
   16.8396  -14.6387    9.7884 C   0  0  0  0  0  0  0  0  0  0  0  0
   16.7246  -15.8831    9.2975 N   0  0  0  0  0  0  0  0  0  0  0  0
   17.9662  -18.5041    9.0206 C   0  0  0  0  0  0  0  0  0  0  0  0
   17.6423  -19.6994    9.2320 O   0  0  0  0  0  0  0  0  0  0  0  0
   18.0368  -17.6680   10.1131 O   0  0  0  0  0  0  0  0  0  0  0  0
  2  1  1  1
  2  3  1  0
  4  2  1  0
  5  4  1  0
  5  6  1  1
  7  8  2  0
  7  5  1  0
 10  9  1  0
 11 10  1  0
 11 12  1  0
 13 12  1  6
 13 14  1  0
 14  7  1  0
 15 16  2  0
 15 13  1  0
 17 15  1  0
 18 19  1  6
 18 17  1  0
 20 19  1  0
 20 21  2  0
 22 21  1  0
 23 24  2  0
 23 22  1  0
 24 20  1  0
 25 18  1  0
 26 25  2  0
 27 25  1  0
M  END
$$$$
