LMH.pdb
     RDKit          3D

 27 27  0  0  1  0  0  0  0  0999 V2000
   16.8497  -13.9315  -18.2812 C   0  0  0  0  0  0  0  0  0  0  0  0
   16.8622  -13.1075  -17.0240 C   0  0  1  0  0  0  0  0  0  0  0  0
   17.5785  -13.7986  -15.9186 C   0  0  0  0  0  0  0  0  0  0  0  0
   17.3995  -11.7395  -17.3406 C   0  0  0  0  0  0  0  0  0  0  0  0
   17.5309  -10.8546  -16.1527 C   0  0  2  0  0  0  0  0  0  0  0  0
   16.2914  -10.5898  -15.4851 N   0  0  0  0  0  0  0  0  0  0  0  0
   18.1557   -9.5739  -16.5753 C   0  0  0  0  0  0  0  0  0  0  0  0
   19.2790   -9.5500  -17.1800 O   0  0  0  0  0  0  0  0  0  0  0  0
   17.7931   -2.2751  -19.0966 C   0  0  0  0  0  0  0  0  0  0  0  0
   16.7379   -3.5611  -18.3388 S   0  0  0  0  0  0  0  0  0  0  0  0
   17.8285   -4.8932  -17.8098 C   0  0  0  0  0  0  0  0  0  0  0  0
   17.0923   -6.0585  -17.2100 C   0  0  0  0  0  0  0  0  0  0  0  0
   18.1498   -7.0829  -16.8095 C   0  0  2  0  0  0  0  0  0  0  0  0
   17.5510   -8.3128  -16.3365 N   0  0  0  0  0  0  0  0  0  0  0  0
   19.0843   -6.5303  -15.7866 C   0  0  0  0  0  0  0  0  0  0  0  0
   18.7179   -6.3355  -14.5823 O   0  0  0  0  0  0  0  0  0  0  0  0
   20.4033   -6.2167  -16.1634 N   0  0  0  0  0  0  0  0  0  0  0  0
   21.3426   -5.7303  -15.1359 C   0  0  1  0  0  0  0  0  0  0  0  0
   22.6476   -6.4693  -15.2454 C   0  0  0  0  0  0  0  0  0  0  0  0
   22.4816   -7.8567  -14.7931 C   0  0  0  0  0  0  0  0  0  0  0  0
   21.2991   -8.4153  -14.3097 C   0  0  0  0  0  0  0  0  0  0  0  0
   21.5722   -9.6997  -14.0068 N   0  0  0  0  0  0  0  0  0  0  0  0
   22.8569   -9.9667  -14.2757 C   0  0  0  0  0  0  0  0  0  0  0  0
   23.3864   -8.8287  -14.7524 N   0  0  0  0  0  0  0  0  0  0  0  0
   21.5575   -4.2735  -15.3012 C   0  0  0  0  0  0  0  0  0  0  0  0
   21.2165   -3.7399  -16.3862 O   0  0  0  0  0  0  0  0  0  0  0  0
   22.1080   -3.4529  -14.3414 O   0  0  0  0  0  0  0  0  0  0  0  0
  2  1  1  6
  2  3  1  0
  4  2  1  0
  5  4  1  0
  5  6  1  6
  7  8  2  0
  7  5  1  0
 10  9  1  0
 11 10  1  0
 11 12  1  0
 13 12  1  1
 13 14  1  0
 14  7  1  0
 15 16  2  0
 15 13  1  0
 17 15  1  0
 18 19  1  6
 18 17  1  0
 20 19  1  0
 20 21  2  0
 22 21  1  0
 23 24  2  0
 23 22  1  0
 24 20  1  0
 25 18  1  0
 26 25  2  0
 27 25  1  0
M  END
$$$$
