LMH.pdb
     RDKit          3D

 27 27  0  0  1  0  0  0  0  0999 V2000
   27.1639  -16.8888  -17.2624 C   0  0  0  0  0  0  0  0  0  0  0  0
   28.0199  -17.9354  -16.6055 C   0  0  1  0  0  0  0  0  0  0  0  0
   29.1157  -17.3280  -15.8036 C   0  0  0  0  0  0  0  0  0  0  0  0
   27.1378  -18.8713  -15.8267 C   0  0  0  0  0  0  0  0  0  0  0  0
   27.8849  -19.8941  -15.0475 C   0  0  2  0  0  0  0  0  0  0  0  0
   28.5385  -20.8786  -15.8571 N   0  0  0  0  0  0  0  0  0  0  0  0
   26.9464  -20.5612  -14.1077 C   0  0  0  0  0  0  0  0  0  0  0  0
   26.1652  -21.4919  -14.4973 O   0  0  0  0  0  0  0  0  0  0  0  0
   26.6055  -19.7902   -7.5516 C   0  0  0  0  0  0  0  0  0  0  0  0
   25.0507  -20.6991   -7.8644 S   0  0  0  0  0  0  0  0  0  0  0  0
   25.0283  -21.1175   -9.6161 C   0  0  0  0  0  0  0  0  0  0  0  0
   26.0206  -20.3303  -10.4257 C   0  0  0  0  0  0  0  0  0  0  0  0
   25.8193  -20.7412  -11.8813 C   0  0  2  0  0  0  0  0  0  0  0  0
   26.8602  -20.2107  -12.7356 N   0  0  0  0  0  0  0  0  0  0  0  0
   24.4747  -20.3330  -12.3819 C   0  0  0  0  0  0  0  0  0  0  0  0
   24.2795  -19.1966  -12.9233 O   0  0  0  0  0  0  0  0  0  0  0  0
   23.3959  -21.2272  -12.2520 N   0  0  0  0  0  0  0  0  0  0  0  0
   22.1276  -20.9201  -12.9389 C   0  0  1  0  0  0  0  0  0  0  0  0
   22.3034  -21.0645  -14.4253 C   0  0  0  0  0  0  0  0  0  0  0  0
   21.0281  -20.8183  -15.1107 C   0  0  0  0  0  0  0  0  0  0  0  0
   20.0216  -21.7616  -15.3129 C   0  0  0  0  0  0  0  0  0  0  0  0
   19.0295  -21.1347  -15.9752 N   0  0  0  0  0  0  0  0  0  0  0  0
   19.3659  -19.8567  -16.1939 C   0  0  0  0  0  0  0  0  0  0  0  0
   20.5858  -19.6913  -15.6581 N   0  0  0  0  0  0  0  0  0  0  0  0
   21.0611  -21.8272  -12.4535 C   0  0  0  0  0  0  0  0  0  0  0  0
   19.9255  -21.3422  -12.2225 O   0  0  0  0  0  0  0  0  0  0  0  0
   21.2253  -23.1776  -12.2366 O   0  0  0  0  0  0  0  0  0  0  0  0
  2  1  1  1
  2  3  1  0
  4  2  1  0
  5  4  1  0
  5  6  1  6
  7  8  2  0
  7  5  1  0
 10  9  1  0
 11 10  1  0
 11 12  1  0
 13 12  1  1
 13 14  1  0
 14  7  1  0
 15 16  2  0
 15 13  1  0
 17 15  1  0
 18 19  1  6
 18 17  1  0
 20 19  1  0
 20 21  2  0
 22 21  1  0
 23 24  2  0
 23 22  1  0
 24 20  1  0
 25 18  1  0
 26 25  2  0
 27 25  1  0
M  END
$$$$
