AWK.pdb
     RDKit          3D

 29 30  0  0  1  0  0  0  0  0999 V2000
    3.6188  -18.6198   22.1793 C   0  0  0  0  0  0  0  0  0  0  0  0
    5.0844  -18.9958   22.0326 C   0  0  2  0  0  0  0  0  0  0  0  0
    5.3827  -19.9531   23.0616 N   0  0  0  0  0  0  0  0  0  0  0  0
    5.8679  -17.7693   22.2356 C   0  0  0  0  0  0  0  0  0  0  0  0
    5.7319  -16.7327   21.5389 O   0  0  0  0  0  0  0  0  0  0  0  0
    6.8458  -17.7241   23.2757 N   0  0  0  0  0  0  0  0  0  0  0  0
    7.6762  -16.5641   23.4967 C   0  0  1  0  0  0  0  0  0  0  0  0
    8.0223  -16.4936   24.9668 C   0  0  0  0  0  0  0  0  0  0  0  0
    7.0752  -15.5650   25.6746 C   0  0  0  0  0  0  0  0  0  0  0  0
    5.8171  -15.8342   26.1700 C   0  0  0  0  0  0  0  0  0  0  0  0
    5.2975  -14.7244   26.7368 N   0  0  0  0  0  0  0  0  0  0  0  0
    6.2042  -13.7301   26.6169 C   0  0  0  0  0  0  0  0  0  0  0  0
    6.1424  -12.4168   27.0354 C   0  0  0  0  0  0  0  0  0  0  0  0
    7.2441  -11.6199   26.7686 C   0  0  0  0  0  0  0  0  0  0  0  0
    8.3574  -12.1127   26.1132 C   0  0  0  0  0  0  0  0  0  0  0  0
    8.4000  -13.4287   25.7027 C   0  0  0  0  0  0  0  0  0  0  0  0
    7.3127  -14.2377   25.9594 C   0  0  0  0  0  0  0  0  0  0  0  0
    8.8878  -16.6762   22.6504 C   0  0  0  0  0  0  0  0  0  0  0  0
    9.4565  -17.8047   22.4539 O   0  0  0  0  0  0  0  0  0  0  0  0
    9.4830  -15.5518   22.0146 N   0  0  0  0  0  0  0  0  0  0  0  0
   10.6571  -15.6802   21.1388 C   0  0  1  0  0  0  0  0  0  0  0  0
   10.6713  -14.6030   20.1065 C   0  0  0  0  0  0  0  0  0  0  0  0
    9.4385  -14.5563   19.2574 C   0  0  0  0  0  0  0  0  0  0  0  0
    9.5562  -13.4879   18.1743 C   0  0  0  0  0  0  0  0  0  0  0  0
    8.3636  -13.5244   17.2490 C   0  0  0  0  0  0  0  0  0  0  0  0
    8.4588  -12.5342   16.1985 N   0  0  0  0  0  0  0  0  0  0  0  0
   11.8863  -15.8225   21.9268 C   0  0  0  0  0  0  0  0  0  0  0  0
   12.0096  -15.7044   23.1616 O   0  0  0  0  0  0  0  0  0  0  0  0
   13.0718  -16.1259   21.2357 O   0  0  0  0  0  0  0  0  0  0  0  0
  2  3  1  0
  2  1  1  1
  4  2  1  0
  5  4  2  0
  6  4  1  0
  7  6  1  0
  7  8  1  1
  9  8  1  0
 10  9  2  0
 11 10  1  0
 12 11  1  0
 12 17  2  0
 13 12  1  0
 14 13  2  0
 14 15  1  0
 15 16  2  0
 16 17  1  0
 17  9  1  0
 18  7  1  0
 18 19  2  0
 20 18  1  0
 21 20  1  0
 22 23  1  0
 21 22  1  1
 24 25  1  0
 24 23  1  0
 25 26  1  0
 27 29  1  0
 27 21  1  0
 28 27  2  0
M  END
$$$$
