AWK.pdb
     RDKit          3D

 29 30  0  0  1  0  0  0  0  0999 V2000
    6.8927  -14.1245   20.6977 C   0  0  0  0  0  0  0  0  0  0  0  0
    7.8268  -15.3157   20.8386 C   0  0  2  0  0  0  0  0  0  0  0  0
    7.0052  -16.4833   20.9996 N   0  0  0  0  0  0  0  0  0  0  0  0
    8.6348  -15.0912   22.0453 C   0  0  0  0  0  0  0  0  0  0  0  0
    9.3995  -14.1063   22.1981 O   0  0  0  0  0  0  0  0  0  0  0  0
    8.5669  -16.0286   23.1209 N   0  0  0  0  0  0  0  0  0  0  0  0
    9.4175  -15.9246   24.2826 C   0  0  1  0  0  0  0  0  0  0  0  0
    8.6157  -16.3186   25.5024 C   0  0  0  0  0  0  0  0  0  0  0  0
    7.4679  -15.3666   25.6933 C   0  0  0  0  0  0  0  0  0  0  0  0
    6.1186  -15.6057   25.5419 C   0  0  0  0  0  0  0  0  0  0  0  0
    5.4184  -14.4827   25.8092 N   0  0  0  0  0  0  0  0  0  0  0  0
    6.2973  -13.5095   26.1344 C   0  0  0  0  0  0  0  0  0  0  0  0
    6.0754  -12.1939   26.4860 C   0  0  0  0  0  0  0  0  0  0  0  0
    7.1909  -11.4230   26.7708 C   0  0  0  0  0  0  0  0  0  0  0  0
    8.4706  -11.9429   26.7073 C   0  0  0  0  0  0  0  0  0  0  0  0
    8.6717  -13.2608   26.3538 C   0  0  0  0  0  0  0  0  0  0  0  0
    7.5733  -14.0442   26.0666 C   0  0  0  0  0  0  0  0  0  0  0  0
   10.5963  -16.8024   24.0913 C   0  0  0  0  0  0  0  0  0  0  0  0
   10.9297  -17.6655   24.9741 O   0  0  0  0  0  0  0  0  0  0  0  0
   11.4163  -16.7392   22.9310 N   0  0  0  0  0  0  0  0  0  0  0  0
   12.6196  -17.5704   22.7784 C   0  0  1  0  0  0  0  0  0  0  0  0
   13.0138  -17.6777   21.3433 C   0  0  0  0  0  0  0  0  0  0  0  0
   11.9074  -18.1268   20.4394 C   0  0  0  0  0  0  0  0  0  0  0  0
   12.3618  -18.1503   18.9829 C   0  0  0  0  0  0  0  0  0  0  0  0
   11.2799  -18.7078   18.0894 C   0  0  0  0  0  0  0  0  0  0  0  0
   11.6410  -18.6410   16.6900 N   0  0  0  0  0  0  0  0  0  0  0  0
   13.6771  -17.1364   23.6979 C   0  0  0  0  0  0  0  0  0  0  0  0
   13.6833  -16.1159   24.4139 O   0  0  0  0  0  0  0  0  0  0  0  0
   14.8224  -17.9442   23.8016 O   0  0  0  0  0  0  0  0  0  0  0  0
  2  3  1  0
  2  1  1  1
  4  2  1  0
  5  4  2  0
  6  4  1  0
  7  6  1  0
  7  8  1  1
  9  8  1  0
 10  9  2  0
 11 10  1  0
 12 11  1  0
 12 17  2  0
 13 12  1  0
 14 13  2  0
 14 15  1  0
 15 16  2  0
 16 17  1  0
 17  9  1  0
 18  7  1  0
 18 19  2  0
 20 18  1  0
 21 20  1  0
 22 23  1  0
 21 22  1  6
 24 25  1  0
 24 23  1  0
 25 26  1  0
 27 29  1  0
 27 21  1  0
 28 27  2  0
M  END
$$$$
