AWK.pdb
     RDKit          3D

 29 30  0  0  1  0  0  0  0  0999 V2000
    7.4099  -17.8044   19.7804 C   0  0  0  0  0  0  0  0  0  0  0  0
    7.1446  -18.1041   21.2470 C   0  0  2  0  0  0  0  0  0  0  0  0
    5.7880  -17.7183   21.5210 N   0  0  0  0  0  0  0  0  0  0  0  0
    8.0762  -17.2820   22.0317 C   0  0  0  0  0  0  0  0  0  0  0  0
    8.7697  -16.3559   21.5422 O   0  0  0  0  0  0  0  0  0  0  0  0
    8.2219  -17.5268   23.4313 N   0  0  0  0  0  0  0  0  0  0  0  0
    9.1704  -16.8003   24.2415 C   0  0  1  0  0  0  0  0  0  0  0  0
    8.5930  -16.6391   25.6295 C   0  0  0  0  0  0  0  0  0  0  0  0
    7.4916  -15.6158   25.6132 C   0  0  0  0  0  0  0  0  0  0  0  0
    6.1433  -15.8076   25.3988 C   0  0  0  0  0  0  0  0  0  0  0  0
    5.4928  -14.6265   25.4675 N   0  0  0  0  0  0  0  0  0  0  0  0
    6.4033  -13.6622   25.7250 C   0  0  0  0  0  0  0  0  0  0  0  0
    6.2350  -12.3023   25.8860 C   0  0  0  0  0  0  0  0  0  0  0  0
    7.3723  -11.5550   26.1467 C   0  0  0  0  0  0  0  0  0  0  0  0
    8.6216  -12.1398   26.2422 C   0  0  0  0  0  0  0  0  0  0  0  0
    8.7692  -13.5013   26.0781 C   0  0  0  0  0  0  0  0  0  0  0  0
    7.6484  -14.2621   25.8180 C   0  0  0  0  0  0  0  0  0  0  0  0
   10.4513  -17.5457   24.2610 C   0  0  0  0  0  0  0  0  0  0  0  0
   10.4959  -18.7933   23.9838 O   0  0  0  0  0  0  0  0  0  0  0  0
   11.6907  -16.9276   24.5844 N   0  0  0  0  0  0  0  0  0  0  0  0
   12.9389  -17.2672   23.8855 C   0  0  1  0  0  0  0  0  0  0  0  0
   12.9266  -16.7422   22.4889 C   0  0  0  0  0  0  0  0  0  0  0  0
   12.5459  -17.7601   21.4585 C   0  0  0  0  0  0  0  0  0  0  0  0
   12.6450  -17.1813   20.0501 C   0  0  0  0  0  0  0  0  0  0  0  0
   12.3130  -18.2270   19.0127 C   0  0  0  0  0  0  0  0  0  0  0  0
   12.3980  -17.7046   17.6662 N   0  0  0  0  0  0  0  0  0  0  0  0
   14.1083  -16.9014   24.6924 C   0  0  0  0  0  0  0  0  0  0  0  0
   14.1598  -16.0567   25.6077 O   0  0  0  0  0  0  0  0  0  0  0  0
   15.3185  -17.5632   24.4233 O   0  0  0  0  0  0  0  0  0  0  0  0
  2  3  1  0
  2  1  1  6
  4  2  1  0
  5  4  2  0
  6  4  1  0
  7  6  1  0
  7  8  1  1
  9  8  1  0
 10  9  2  0
 11 10  1  0
 12 11  1  0
 12 17  2  0
 13 12  1  0
 14 13  2  0
 14 15  1  0
 15 16  2  0
 16 17  1  0
 17  9  1  0
 18  7  1  0
 18 19  2  0
 20 18  1  0
 21 20  1  0
 22 23  1  0
 21 22  1  6
 24 25  1  0
 24 23  1  0
 25 26  1  0
 27 29  1  0
 27 21  1  0
 28 27  2  0
M  END
$$$$
