AWK.pdb
     RDKit          3D

 29 30  0  0  1  0  0  0  0  0999 V2000
    7.2534  -20.5820   22.8110 C   0  0  0  0  0  0  0  0  0  0  0  0
    6.4197  -19.3453   23.1050 C   0  0  2  0  0  0  0  0  0  0  0  0
    5.4461  -19.2295   22.0547 N   0  0  0  0  0  0  0  0  0  0  0  0
    7.3319  -18.1934   23.0829 C   0  0  0  0  0  0  0  0  0  0  0  0
    7.6500  -17.5770   22.0354 O   0  0  0  0  0  0  0  0  0  0  0  0
    7.9039  -17.7263   24.3055 N   0  0  0  0  0  0  0  0  0  0  0  0
    8.8596  -16.6450   24.3403 C   0  0  1  0  0  0  0  0  0  0  0  0
    8.8424  -16.0324   25.7225 C   0  0  0  0  0  0  0  0  0  0  0  0
    7.5970  -15.2103   25.9056 C   0  0  0  0  0  0  0  0  0  0  0  0
    6.3073  -15.6423   26.1307 C   0  0  0  0  0  0  0  0  0  0  0  0
    5.4782  -14.5823   26.2392 N   0  0  0  0  0  0  0  0  0  0  0  0
    6.2135  -13.4592   26.0870 C   0  0  0  0  0  0  0  0  0  0  0  0
    5.8279  -12.1347   26.1157 C   0  0  0  0  0  0  0  0  0  0  0  0
    6.8209  -11.1871   25.9264 C   0  0  0  0  0  0  0  0  0  0  0  0
    8.1397  -11.5462   25.7178 C   0  0  0  0  0  0  0  0  0  0  0  0
    8.5053  -12.8759   25.6927 C   0  0  0  0  0  0  0  0  0  0  0  0
    7.5307  -13.8341   25.8792 C   0  0  0  0  0  0  0  0  0  0  0  0
   10.1974  -17.1789   23.9912 C   0  0  0  0  0  0  0  0  0  0  0  0
   10.5903  -18.3163   24.4240 O   0  0  0  0  0  0  0  0  0  0  0  0
   11.1123  -16.4690   23.1654 N   0  0  0  0  0  0  0  0  0  0  0  0
   12.4522  -16.9898   22.8566 C   0  0  1  0  0  0  0  0  0  0  0  0
   12.9715  -16.4030   21.5868 C   0  0  0  0  0  0  0  0  0  0  0  0
   12.1120  -16.6788   20.3918 C   0  0  0  0  0  0  0  0  0  0  0  0
   12.7321  -16.1015   19.1227 C   0  0  0  0  0  0  0  0  0  0  0  0
   11.8962  -16.4403   17.9118 C   0  0  0  0  0  0  0  0  0  0  0  0
   12.4762  -15.9284   16.6891 N   0  0  0  0  0  0  0  0  0  0  0  0
   13.3397  -16.8768   24.0192 C   0  0  0  0  0  0  0  0  0  0  0  0
   13.1380  -16.2253   25.0627 O   0  0  0  0  0  0  0  0  0  0  0  0
   14.5606  -17.5717   23.9770 O   0  0  0  0  0  0  0  0  0  0  0  0
  2  3  1  0
  2  1  1  6
  4  2  1  0
  5  4  2  0
  6  4  1  0
  7  6  1  0
  7  8  1  1
  9  8  1  0
 10  9  2  0
 11 10  1  0
 12 11  1  0
 12 17  2  0
 13 12  1  0
 14 13  2  0
 14 15  1  0
 15 16  2  0
 16 17  1  0
 17  9  1  0
 18  7  1  0
 18 19  2  0
 20 18  1  0
 21 20  1  0
 22 23  1  0
 21 22  1  6
 24 25  1  0
 24 23  1  0
 25 26  1  0
 27 29  1  0
 27 21  1  0
 28 27  2  0
M  END
$$$$
