AWK.pdb
     RDKit          3D

 29 30  0  0  1  0  0  0  0  0999 V2000
    6.6311  -14.8567   21.2185 C   0  0  0  0  0  0  0  0  0  0  0  0
    7.6525  -15.9541   21.4703 C   0  0  2  0  0  0  0  0  0  0  0  0
    6.9477  -17.0675   22.0429 N   0  0  0  0  0  0  0  0  0  0  0  0
    8.6305  -15.4228   22.4298 C   0  0  0  0  0  0  0  0  0  0  0  0
    9.4069  -14.4681   22.1763 O   0  0  0  0  0  0  0  0  0  0  0  0
    8.7261  -16.0043   23.7309 N   0  0  0  0  0  0  0  0  0  0  0  0
    9.6895  -15.5490   24.7047 C   0  0  1  0  0  0  0  0  0  0  0  0
    9.0265  -15.5278   26.0634 C   0  0  0  0  0  0  0  0  0  0  0  0
    7.7148  -14.7974   25.9847 C   0  0  0  0  0  0  0  0  0  0  0  0
    6.4542  -15.3147   25.7749 C   0  0  0  0  0  0  0  0  0  0  0  0
    5.5416  -14.3198   25.7745 N   0  0  0  0  0  0  0  0  0  0  0  0
    6.1933  -13.1547   25.9821 C   0  0  0  0  0  0  0  0  0  0  0  0
    5.7051  -11.8670   26.0660 C   0  0  0  0  0  0  0  0  0  0  0  0
    6.6284  -10.8584   26.2900 C   0  0  0  0  0  0  0  0  0  0  0  0
    7.9787  -11.1242   26.4239 C   0  0  0  0  0  0  0  0  0  0  0  0
    8.4472  -12.4185   26.3368 C   0  0  0  0  0  0  0  0  0  0  0  0
    7.5431  -13.4362   26.1143 C   0  0  0  0  0  0  0  0  0  0  0  0
   10.8610  -16.4565   24.6776 C   0  0  0  0  0  0  0  0  0  0  0  0
   11.7028  -16.4803   25.6400 O   0  0  0  0  0  0  0  0  0  0  0  0
   11.1163  -17.3431   23.5953 N   0  0  0  0  0  0  0  0  0  0  0  0
   12.2872  -18.2323   23.5734 C   0  0  1  0  0  0  0  0  0  0  0  0
   12.0194  -19.4443   22.7452 C   0  0  0  0  0  0  0  0  0  0  0  0
   10.9655  -20.3468   23.3088 C   0  0  0  0  0  0  0  0  0  0  0  0
   10.6358  -21.4796   22.3410 C   0  0  0  0  0  0  0  0  0  0  0  0
    9.5039  -22.3278   22.8692 C   0  0  0  0  0  0  0  0  0  0  0  0
    9.0835  -23.3307   21.9148 N   0  0  0  0  0  0  0  0  0  0  0  0
   13.5053  -17.4877   23.2359 C   0  0  0  0  0  0  0  0  0  0  0  0
   13.6357  -16.6104   22.3599 O   0  0  0  0  0  0  0  0  0  0  0  0
   14.6696  -17.7770   23.9678 O   0  0  0  0  0  0  0  0  0  0  0  0
  2  3  1  0
  2  1  1  1
  4  2  1  0
  5  4  2  0
  6  4  1  0
  7  6  1  0
  7  8  1  1
  9  8  1  0
 10  9  2  0
 11 10  1  0
 12 11  1  0
 12 17  2  0
 13 12  1  0
 14 13  2  0
 14 15  1  0
 15 16  2  0
 16 17  1  0
 17  9  1  0
 18  7  1  0
 18 19  2  0
 20 18  1  0
 21 20  1  0
 22 23  1  0
 21 22  1  6
 24 25  1  0
 24 23  1  0
 25 26  1  0
 27 29  1  0
 27 21  1  0
 28 27  2  0
M  END
$$$$
