AWK.pdb
     RDKit          3D

 29 30  0  0  1  0  0  0  0  0999 V2000
    6.6578  -14.2744   20.7177 C   0  0  0  0  0  0  0  0  0  0  0  0
    7.4548  -15.5529   20.9202 C   0  0  2  0  0  0  0  0  0  0  0  0
    6.5203  -16.5841   21.2775 N   0  0  0  0  0  0  0  0  0  0  0  0
    8.3907  -15.3083   22.0264 C   0  0  0  0  0  0  0  0  0  0  0  0
    9.2702  -14.4114   22.0091 O   0  0  0  0  0  0  0  0  0  0  0  0
    8.3198  -16.1200   23.1996 N   0  0  0  0  0  0  0  0  0  0  0  0
    9.2475  -15.9662   24.2948 C   0  0  1  0  0  0  0  0  0  0  0  0
    8.5048  -16.2016   25.5906 C   0  0  0  0  0  0  0  0  0  0  0  0
    7.3775  -15.2158   25.7241 C   0  0  0  0  0  0  0  0  0  0  0  0
    6.0259  -15.4272   25.5530 C   0  0  0  0  0  0  0  0  0  0  0  0
    5.3489  -14.2788   25.7661 N   0  0  0  0  0  0  0  0  0  0  0  0
    6.2451  -13.3164   26.0754 C   0  0  0  0  0  0  0  0  0  0  0  0
    6.0492  -11.9841   26.3760 C   0  0  0  0  0  0  0  0  0  0  0  0
    7.1778  -11.2309   26.6569 C   0  0  0  0  0  0  0  0  0  0  0  0
    8.4451  -11.7836   26.6383 C   0  0  0  0  0  0  0  0  0  0  0  0
    8.6202  -13.1177   26.3354 C   0  0  0  0  0  0  0  0  0  0  0  0
    7.5085  -13.8839   26.0530 C   0  0  0  0  0  0  0  0  0  0  0  0
   10.3611  -16.9277   24.1159 C   0  0  0  0  0  0  0  0  0  0  0  0
   10.1788  -18.1858   24.2554 O   0  0  0  0  0  0  0  0  0  0  0  0
   11.6809  -16.5156   23.7827 N   0  0  0  0  0  0  0  0  0  0  0  0
   12.7763  -17.4786   23.5959 C   0  0  1  0  0  0  0  0  0  0  0  0
   13.8057  -16.9385   22.6605 C   0  0  0  0  0  0  0  0  0  0  0  0
   14.9049  -17.9041   22.3405 C   0  0  0  0  0  0  0  0  0  0  0  0
   15.9198  -17.2855   21.3836 C   0  0  0  0  0  0  0  0  0  0  0  0
   16.3267  -18.2735   20.3167 C   0  0  0  0  0  0  0  0  0  0  0  0
   17.2425  -17.6938   19.3583 N   0  0  0  0  0  0  0  0  0  0  0  0
   13.2796  -17.9579   24.8878 C   0  0  0  0  0  0  0  0  0  0  0  0
   14.0026  -18.9521   25.0947 O   0  0  0  0  0  0  0  0  0  0  0  0
   12.9209  -17.2323   26.0367 O   0  0  0  0  0  0  0  0  0  0  0  0
  2  3  1  0
  2  1  1  1
  4  2  1  0
  5  4  2  0
  6  4  1  0
  7  6  1  0
  7  8  1  1
  9  8  1  0
 10  9  2  0
 11 10  1  0
 12 11  1  0
 12 17  2  0
 13 12  1  0
 14 13  2  0
 14 15  1  0
 15 16  2  0
 16 17  1  0
 17  9  1  0
 18  7  1  0
 18 19  2  0
 20 18  1  0
 21 20  1  0
 22 23  1  0
 21 22  1  1
 24 25  1  0
 24 23  1  0
 25 26  1  0
 27 29  1  0
 27 21  1  0
 28 27  2  0
M  END
$$$$
