AWK.pdb
     RDKit          3D

 29 30  0  0  1  0  0  0  0  0999 V2000
    7.1887  -16.6631   19.8339 C   0  0  0  0  0  0  0  0  0  0  0  0
    6.7683  -15.5186   20.7419 C   0  0  2  0  0  0  0  0  0  0  0  0
    6.6237  -14.3519   19.9160 N   0  0  0  0  0  0  0  0  0  0  0  0
    7.8495  -15.3211   21.7174 C   0  0  0  0  0  0  0  0  0  0  0  0
    8.8532  -14.5955   21.5070 O   0  0  0  0  0  0  0  0  0  0  0  0
    7.7821  -15.9780   22.9839 N   0  0  0  0  0  0  0  0  0  0  0  0
    8.8283  -15.8496   23.9702 C   0  0  1  0  0  0  0  0  0  0  0  0
    8.2323  -16.0944   25.3380 C   0  0  0  0  0  0  0  0  0  0  0  0
    7.1898  -15.0538   25.6389 C   0  0  0  0  0  0  0  0  0  0  0  0
    5.8192  -15.1969   25.6801 C   0  0  0  0  0  0  0  0  0  0  0  0
    5.2414  -14.0166   25.9892 N   0  0  0  0  0  0  0  0  0  0  0  0
    6.2215  -13.1009   26.1509 C   0  0  0  0  0  0  0  0  0  0  0  0
    6.1411  -11.7612   26.4710 C   0  0  0  0  0  0  0  0  0  0  0  0
    7.3356  -11.0662   26.5700 C   0  0  0  0  0  0  0  0  0  0  0  0
    8.5557  -11.6816   26.3586 C   0  0  0  0  0  0  0  0  0  0  0  0
    8.6151  -13.0220   26.0394 C   0  0  0  0  0  0  0  0  0  0  0  0
    7.4363  -13.7309   25.9364 C   0  0  0  0  0  0  0  0  0  0  0  0
    9.9027  -16.8209   23.6557 C   0  0  0  0  0  0  0  0  0  0  0  0
    9.6486  -18.0658   23.5105 O   0  0  0  0  0  0  0  0  0  0  0  0
   11.2620  -16.4330   23.4985 N   0  0  0  0  0  0  0  0  0  0  0  0
   12.3288  -17.4114   23.2402 C   0  0  1  0  0  0  0  0  0  0  0  0
   13.4657  -16.7787   22.5097 C   0  0  0  0  0  0  0  0  0  0  0  0
   14.6450  -17.6817   22.3182 C   0  0  0  0  0  0  0  0  0  0  0  0
   15.8331  -16.9199   21.7381 C   0  0  0  0  0  0  0  0  0  0  0  0
   16.9803  -17.8554   21.4406 C   0  0  0  0  0  0  0  0  0  0  0  0
   18.0471  -17.1968   20.7185 N   0  0  0  0  0  0  0  0  0  0  0  0
   12.6842  -18.1357   24.4654 C   0  0  0  0  0  0  0  0  0  0  0  0
   13.0627  -19.3198   24.5598 O   0  0  0  0  0  0  0  0  0  0  0  0
   12.5967  -17.4391   25.6828 O   0  0  0  0  0  0  0  0  0  0  0  0
  2  3  1  0
  2  1  1  6
  4  2  1  0
  5  4  2  0
  6  4  1  0
  7  6  1  0
  7  8  1  1
  9  8  1  0
 10  9  2  0
 11 10  1  0
 12 11  1  0
 12 17  2  0
 13 12  1  0
 14 13  2  0
 14 15  1  0
 15 16  2  0
 16 17  1  0
 17  9  1  0
 18  7  1  0
 18 19  2  0
 20 18  1  0
 21 20  1  0
 22 23  1  0
 21 22  1  1
 24 25  1  0
 24 23  1  0
 25 26  1  0
 27 29  1  0
 27 21  1  0
 28 27  2  0
M  END
$$$$
