AWK.pdb
     RDKit          3D

 29 30  0  0  1  0  0  0  0  0999 V2000
    6.2847  -14.5735   20.8463 C   0  0  0  0  0  0  0  0  0  0  0  0
    7.1775  -15.7970   20.9764 C   0  0  2  0  0  0  0  0  0  0  0  0
    6.3598  -16.8688   21.4733 N   0  0  0  0  0  0  0  0  0  0  0  0
    8.2276  -15.4646   21.9491 C   0  0  0  0  0  0  0  0  0  0  0  0
    9.0489  -14.5267   21.7940 O   0  0  0  0  0  0  0  0  0  0  0  0
    8.3449  -16.2336   23.1470 N   0  0  0  0  0  0  0  0  0  0  0  0
    9.3180  -15.9204   24.1663 C   0  0  1  0  0  0  0  0  0  0  0  0
    8.6910  -16.1634   25.5205 C   0  0  0  0  0  0  0  0  0  0  0  0
    7.4942  -15.2715   25.7011 C   0  0  0  0  0  0  0  0  0  0  0  0
    6.1589  -15.5873   25.5672 C   0  0  0  0  0  0  0  0  0  0  0  0
    5.4003  -14.4986   25.8163 N   0  0  0  0  0  0  0  0  0  0  0  0
    6.2270  -13.4718   26.1121 C   0  0  0  0  0  0  0  0  0  0  0  0
    5.9361  -12.1628   26.4368 C   0  0  0  0  0  0  0  0  0  0  0  0
    7.0099  -11.3259   26.6945 C   0  0  0  0  0  0  0  0  0  0  0  0
    8.3157  -11.7764   26.6306 C   0  0  0  0  0  0  0  0  0  0  0  0
    8.5859  -13.0888   26.3042 C   0  0  0  0  0  0  0  0  0  0  0  0
    7.5299  -13.9374   26.0443 C   0  0  0  0  0  0  0  0  0  0  0  0
   10.5182  -16.7640   23.9557 C   0  0  0  0  0  0  0  0  0  0  0  0
   10.4152  -18.0198   23.7372 O   0  0  0  0  0  0  0  0  0  0  0  0
   11.8385  -16.2358   23.9835 N   0  0  0  0  0  0  0  0  0  0  0  0
   13.0247  -17.0880   23.8142 C   0  0  1  0  0  0  0  0  0  0  0  0
   14.1600  -16.3110   23.2366 C   0  0  0  0  0  0  0  0  0  0  0  0
   15.4338  -17.0897   23.1186 C   0  0  0  0  0  0  0  0  0  0  0  0
   16.5348  -16.2502   22.4771 C   0  0  0  0  0  0  0  0  0  0  0  0
   17.7933  -17.0633   22.2902 C   0  0  0  0  0  0  0  0  0  0  0  0
   18.8203  -16.3239   21.5889 N   0  0  0  0  0  0  0  0  0  0  0  0
   13.3208  -17.8260   25.0470 C   0  0  0  0  0  0  0  0  0  0  0  0
   13.1186  -17.4511   26.2186 O   0  0  0  0  0  0  0  0  0  0  0  0
   13.8975  -19.1013   24.9204 O   0  0  0  0  0  0  0  0  0  0  0  0
  2  3  1  0
  2  1  1  1
  4  2  1  0
  5  4  2  0
  6  4  1  0
  7  6  1  0
  7  8  1  1
  9  8  1  0
 10  9  2  0
 11 10  1  0
 12 11  1  0
 12 17  2  0
 13 12  1  0
 14 13  2  0
 14 15  1  0
 15 16  2  0
 16 17  1  0
 17  9  1  0
 18  7  1  0
 18 19  2  0
 20 18  1  0
 21 20  1  0
 22 23  1  0
 21 22  1  1
 24 25  1  0
 24 23  1  0
 25 26  1  0
 27 29  1  0
 27 21  1  0
 28 27  2  0
M  END
$$$$
