AWK.pdb
     RDKit          3D

 29 30  0  0  1  0  0  0  0  0999 V2000
   10.8362  -19.7207   20.5096 C   0  0  0  0  0  0  0  0  0  0  0  0
    9.8888  -18.6222   20.0549 C   0  0  2  0  0  0  0  0  0  0  0  0
   10.1196  -18.4158   18.6519 N   0  0  0  0  0  0  0  0  0  0  0  0
   10.2359  -17.4113   20.8117 C   0  0  0  0  0  0  0  0  0  0  0  0
   11.1110  -16.5879   20.4450 O   0  0  0  0  0  0  0  0  0  0  0  0
    9.5566  -17.1288   22.0360 N   0  0  0  0  0  0  0  0  0  0  0  0
    9.8437  -15.9492   22.8169 C   0  0  1  0  0  0  0  0  0  0  0  0
    8.5478  -15.4292   23.3967 C   0  0  0  0  0  0  0  0  0  0  0  0
    7.6047  -15.0485   22.2895 C   0  0  0  0  0  0  0  0  0  0  0  0
    6.4087  -15.6376   21.9385 C   0  0  0  0  0  0  0  0  0  0  0  0
    5.8680  -14.9909   20.8839 N   0  0  0  0  0  0  0  0  0  0  0  0
    6.6995  -13.9829   20.5406 C   0  0  0  0  0  0  0  0  0  0  0  0
    6.5894  -13.0444   19.5352 C   0  0  0  0  0  0  0  0  0  0  0  0
    7.6147  -12.1190   19.4247 C   0  0  0  0  0  0  0  0  0  0  0  0
    8.7012  -12.1306   20.2799 C   0  0  0  0  0  0  0  0  0  0  0  0
    8.7929  -13.0771   21.2788 C   0  0  0  0  0  0  0  0  0  0  0  0
    7.7818  -14.0069   21.4048 C   0  0  0  0  0  0  0  0  0  0  0  0
   10.8180  -16.3034   23.8761 C   0  0  0  0  0  0  0  0  0  0  0  0
   11.1103  -15.4797   24.8097 O   0  0  0  0  0  0  0  0  0  0  0  0
   11.4774  -17.5629   23.9181 N   0  0  0  0  0  0  0  0  0  0  0  0
   12.4558  -17.8980   24.9633 C   0  0  1  0  0  0  0  0  0  0  0  0
   12.6727  -19.3725   25.0361 C   0  0  0  0  0  0  0  0  0  0  0  0
   11.6277  -20.1042   25.8206 C   0  0  0  0  0  0  0  0  0  0  0  0
   11.9663  -21.5873   25.9392 C   0  0  0  0  0  0  0  0  0  0  0  0
   10.8783  -22.3317   26.6752 C   0  0  0  0  0  0  0  0  0  0  0  0
   11.2299  -23.7147   26.9138 N   0  0  0  0  0  0  0  0  0  0  0  0
   13.6679  -17.0826   24.8283 C   0  0  0  0  0  0  0  0  0  0  0  0
   14.1504  -16.6152   23.7782 O   0  0  0  0  0  0  0  0  0  0  0  0
   14.3835  -16.7802   25.9994 O   0  0  0  0  0  0  0  0  0  0  0  0
  2  3  1  0
  2  1  1  1
  4  2  1  0
  5  4  2  0
  6  4  1  0
  7  6  1  0
  7  8  1  1
  9  8  1  0
 10  9  2  0
 11 10  1  0
 12 11  1  0
 12 17  2  0
 13 12  1  0
 14 13  2  0
 14 15  1  0
 15 16  2  0
 16 17  1  0
 17  9  1  0
 18  7  1  0
 18 19  2  0
 20 18  1  0
 21 20  1  0
 22 23  1  0
 21 22  1  6
 24 25  1  0
 24 23  1  0
 25 26  1  0
 27 29  1  0
 27 21  1  0
 28 27  2  0
M  END
$$$$
