AWK.pdb
     RDKit          3D

 29 30  0  0  1  0  0  0  0  0999 V2000
    8.0821  -13.0290   19.4725 C   0  0  0  0  0  0  0  0  0  0  0  0
    7.8192  -14.4295   20.0022 C   0  0  2  0  0  0  0  0  0  0  0  0
    6.4022  -14.6538   19.9257 N   0  0  0  0  0  0  0  0  0  0  0  0
    8.2635  -14.4525   21.4027 C   0  0  0  0  0  0  0  0  0  0  0  0
    8.7048  -13.4451   22.0099 O   0  0  0  0  0  0  0  0  0  0  0  0
    8.2013  -15.6743   22.1398 N   0  0  0  0  0  0  0  0  0  0  0  0
    8.6605  -15.7697   23.5051 C   0  0  1  0  0  0  0  0  0  0  0  0
    7.5315  -16.3061   24.3558 C   0  0  0  0  0  0  0  0  0  0  0  0
    6.9001  -15.1879   25.1376 C   0  0  0  0  0  0  0  0  0  0  0  0
    5.6892  -15.1767   25.7965 C   0  0  0  0  0  0  0  0  0  0  0  0
    5.4915  -13.9744   26.3779 N   0  0  0  0  0  0  0  0  0  0  0  0
    6.5626  -13.1973   26.1055 C   0  0  0  0  0  0  0  0  0  0  0  0
    6.8319  -11.8954   26.4745 C   0  0  0  0  0  0  0  0  0  0  0  0
    8.0314  -11.3546   26.0403 C   0  0  0  0  0  0  0  0  0  0  0  0
    8.9219  -12.0816   25.2719 C   0  0  0  0  0  0  0  0  0  0  0  0
    8.6344  -13.3820   24.9133 C   0  0  0  0  0  0  0  0  0  0  0  0
    7.4449  -13.9378   25.3362 C   0  0  0  0  0  0  0  0  0  0  0  0
    9.8500  -16.6529   23.5480 C   0  0  0  0  0  0  0  0  0  0  0  0
    9.7370  -17.9055   23.7799 O   0  0  0  0  0  0  0  0  0  0  0  0
   11.1702  -16.1680   23.3369 N   0  0  0  0  0  0  0  0  0  0  0  0
   12.3456  -17.0493   23.3998 C   0  0  1  0  0  0  0  0  0  0  0  0
   13.5771  -16.3255   22.9687 C   0  0  0  0  0  0  0  0  0  0  0  0
   14.8247  -17.1511   23.0371 C   0  0  0  0  0  0  0  0  0  0  0  0
   15.6036  -17.0812   21.7268 C   0  0  0  0  0  0  0  0  0  0  0  0
   16.8003  -18.0012   21.7611 C   0  0  0  0  0  0  0  0  0  0  0  0
   17.5298  -17.9928   20.5116 N   0  0  0  0  0  0  0  0  0  0  0  0
   12.4265  -17.7239   24.7001 C   0  0  0  0  0  0  0  0  0  0  0  0
   12.8649  -18.8677   24.9313 O   0  0  0  0  0  0  0  0  0  0  0  0
   11.9646  -17.0234   25.8274 O   0  0  0  0  0  0  0  0  0  0  0  0
  2  3  1  0
  2  1  1  1
  4  2  1  0
  5  4  2  0
  6  4  1  0
  7  6  1  0
  7  8  1  1
  9  8  1  0
 10  9  2  0
 11 10  1  0
 12 11  1  0
 12 17  2  0
 13 12  1  0
 14 13  2  0
 14 15  1  0
 15 16  2  0
 16 17  1  0
 17  9  1  0
 18  7  1  0
 18 19  2  0
 20 18  1  0
 21 20  1  0
 22 23  1  0
 21 22  1  1
 24 25  1  0
 24 23  1  0
 25 26  1  0
 27 29  1  0
 27 21  1  0
 28 27  2  0
M  END
$$$$
