AWK.pdb
     RDKit          3D

 29 30  0  0  1  0  0  0  0  0999 V2000
    7.4839  -21.3782   23.0858 C   0  0  0  0  0  0  0  0  0  0  0  0
    7.0571  -20.6453   24.3474 C   0  0  2  0  0  0  0  0  0  0  0  0
    5.7926  -21.1952   24.7511 N   0  0  0  0  0  0  0  0  0  0  0  0
    6.9058  -19.2271   23.9934 C   0  0  0  0  0  0  0  0  0  0  0  0
    5.9479  -18.7765   23.3170 O   0  0  0  0  0  0  0  0  0  0  0  0
    7.8875  -18.2854   24.4290 N   0  0  0  0  0  0  0  0  0  0  0  0
    7.7857  -16.8775   24.1271 C   0  0  1  0  0  0  0  0  0  0  0  0
    8.3859  -16.0953   25.2734 C   0  0  0  0  0  0  0  0  0  0  0  0
    7.3597  -15.1614   25.8523 C   0  0  0  0  0  0  0  0  0  0  0  0
    6.1115  -15.4609   26.3552 C   0  0  0  0  0  0  0  0  0  0  0  0
    5.5027  -14.3332   26.7799 N   0  0  0  0  0  0  0  0  0  0  0  0
    6.3411  -13.2970   26.5595 C   0  0  0  0  0  0  0  0  0  0  0  0
    6.1783  -11.9521   26.8206 C   0  0  0  0  0  0  0  0  0  0  0  0
    7.2284  -11.1145   26.4807 C   0  0  0  0  0  0  0  0  0  0  0  0
    8.3890  -11.5986   25.9055 C   0  0  0  0  0  0  0  0  0  0  0  0
    8.5325  -12.9468   25.6523 C   0  0  0  0  0  0  0  0  0  0  0  0
    7.4978  -13.7965   25.9839 C   0  0  0  0  0  0  0  0  0  0  0  0
    8.4895  -16.6110   22.8503 C   0  0  0  0  0  0  0  0  0  0  0  0
    9.5689  -17.2265   22.5479 O   0  0  0  0  0  0  0  0  0  0  0  0
    8.0140  -15.6681   21.8975 N   0  0  0  0  0  0  0  0  0  0  0  0
    8.7345  -15.3909   20.6461 C   0  0  1  0  0  0  0  0  0  0  0  0
    8.0493  -14.3212   19.8633 C   0  0  0  0  0  0  0  0  0  0  0  0
    8.7481  -13.9551   18.5903 C   0  0  0  0  0  0  0  0  0  0  0  0
    7.7507  -13.5204   17.5204 C   0  0  0  0  0  0  0  0  0  0  0  0
    8.4480  -13.2623   16.2062 C   0  0  0  0  0  0  0  0  0  0  0  0
    7.5320  -12.8035   15.1845 N   0  0  0  0  0  0  0  0  0  0  0  0
   10.1636  -15.1772   20.8997 C   0  0  0  0  0  0  0  0  0  0  0  0
   11.1190  -15.5280   20.1798 O   0  0  0  0  0  0  0  0  0  0  0  0
   10.5223  -14.5039   22.0799 O   0  0  0  0  0  0  0  0  0  0  0  0
  2  3  1  0
  2  1  1  6
  4  2  1  0
  5  4  2  0
  6  4  1  0
  7  6  1  0
  7  8  1  1
  9  8  1  0
 10  9  2  0
 11 10  1  0
 12 11  1  0
 12 17  2  0
 13 12  1  0
 14 13  2  0
 14 15  1  0
 15 16  2  0
 16 17  1  0
 17  9  1  0
 18  7  1  0
 18 19  2  0
 20 18  1  0
 21 20  1  0
 22 23  1  0
 21 22  1  1
 24 25  1  0
 24 23  1  0
 25 26  1  0
 27 29  1  0
 27 21  1  0
 28 27  2  0
M  END
$$$$
