RAG.pdb
     RDKit          3D

 21 20  0  0  1  0  0  0  0  0999 V2000
   22.5153  -21.2298  -11.0623 N   0  0  0  0  0  0  0  0  0  0  0  0
   22.2324  -20.8666   -9.7145 C   0  0  0  0  0  0  0  0  0  0  0  0
   21.0085  -20.5950   -9.4254 N   0  0  0  0  0  0  0  0  0  0  0  0
   23.2805  -20.8192   -8.7685 N   0  0  0  0  0  0  0  0  0  0  0  0
   24.6210  -21.1284   -9.2254 C   0  0  0  0  0  0  0  0  0  0  0  0
   25.3060  -19.9154   -9.7980 C   0  0  0  0  0  0  0  0  0  0  0  0
   26.6424  -20.3121  -10.3367 C   0  0  0  0  0  0  0  0  0  0  0  0
   26.5714  -21.2748  -11.4838 C   0  0  2  0  0  0  0  0  0  0  0  0
   27.8365  -21.8245  -11.8501 N   0  0  0  0  0  0  0  0  0  0  0  0
   25.8734  -20.5972  -12.6027 C   0  0  0  0  0  0  0  0  0  0  0  0
   26.3006  -19.4614  -12.9364 O   0  0  0  0  0  0  0  0  0  0  0  0
   20.7261  -20.3338   -8.4558 C   0  0  0  0  0  0  0  0  0  0  0  0
   23.9023  -21.4470  -15.5682 C   0  0  1  0  0  0  0  0  0  0  0  0
   24.2221  -20.4781  -14.4541 N   0  0  0  0  0  0  0  0  0  0  0  0
   24.7805  -21.1440  -13.2983 C   0  0  0  0  0  0  0  0  0  0  0  0
   22.9533  -19.8124  -14.0661 O   0  0  0  0  0  0  0  0  0  0  0  0
   22.3484  -20.2123  -13.0436 N   0  0  0  0  0  0  0  0  0  0  0  0
   22.3955  -18.7415  -14.8040 C   0  0  0  0  0  0  0  0  0  0  0  0
   21.1567  -18.1621  -14.3796 C   0  0  0  0  0  0  0  0  0  0  0  0
   20.6756  -17.1048  -15.2764 O   0  0  0  0  0  0  0  0  0  0  0  0
   21.3729  -16.7333  -16.2486 O   0  0  0  0  0  0  0  0  0  0  0  0
  1  2  1  0
  2  3  2  0
  4  5  1  0
  4  2  1  0
  5  6  1  0
  6  7  1  0
  7  8  1  0
  8 10  1  0
  8  9  1  6
 10 11  2  0
 10 14  1  0
 13 12  1  6
 13 15  1  0
 14 13  1  0
 15 17  1  0
 15 16  2  0
 17 18  1  0
 18 19  1  0
 19 21  1  0
 20 19  2  0
M  END
$$$$
