RAG.pdb
     RDKit          3D

 21 20  0  0  1  0  0  0  0  0999 V2000
   20.4329  -23.0763  -14.0559 N   0  0  0  0  0  0  0  0  0  0  0  0
   20.1418  -21.7407  -13.6560 C   0  0  0  0  0  0  0  0  0  0  0  0
   18.9084  -21.4525  -13.4299 N   0  0  0  0  0  0  0  0  0  0  0  0
   21.1922  -20.8052  -13.5256 N   0  0  0  0  0  0  0  0  0  0  0  0
   22.4405  -21.2632  -12.9483 C   0  0  0  0  0  0  0  0  0  0  0  0
   22.5299  -20.9291  -11.4824 C   0  0  0  0  0  0  0  0  0  0  0  0
   23.7747  -20.1411  -11.2312 C   0  0  0  0  0  0  0  0  0  0  0  0
   25.0062  -20.9841  -11.0874 C   0  0  2  0  0  0  0  0  0  0  0  0
   25.4429  -21.1352   -9.7371 N   0  0  0  0  0  0  0  0  0  0  0  0
   26.0449  -20.4281  -11.9875 C   0  0  0  0  0  0  0  0  0  0  0  0
   26.6445  -19.3935  -11.5949 O   0  0  0  0  0  0  0  0  0  0  0  0
   18.6153  -20.4821  -13.1838 C   0  0  0  0  0  0  0  0  0  0  0  0
   27.9463  -21.3276  -15.0966 C   0  0  1  0  0  0  0  0  0  0  0  0
   27.3897  -20.3644  -14.0745 N   0  0  0  0  0  0  0  0  0  0  0  0
   26.3901  -20.9831  -13.2325 C   0  0  0  0  0  0  0  0  0  0  0  0
   26.7707  -19.2375  -14.8165 O   0  0  0  0  0  0  0  0  0  0  0  0
   25.5347  -19.2566  -15.0249 N   0  0  0  0  0  0  0  0  0  0  0  0
   27.5192  -18.1383  -15.3006 C   0  0  0  0  0  0  0  0  0  0  0  0
   26.8422  -17.0508  -15.9404 C   0  0  0  0  0  0  0  0  0  0  0  0
   26.5920  -17.2849  -17.3673 O   0  0  0  0  0  0  0  0  0  0  0  0
   26.9763  -18.3457  -17.9120 O   0  0  0  0  0  0  0  0  0  0  0  0
  1  2  1  0
  2  3  2  0
  4  5  1  0
  4  2  1  0
  5  6  1  0
  6  7  1  0
  7  8  1  0
  8 10  1  0
  8  9  1  1
 10 11  2  0
 10 14  1  0
 13 12  1  1
 13 15  1  0
 14 13  1  0
 15 17  1  0
 15 16  2  0
 17 18  1  0
 18 19  1  0
 19 21  1  0
 20 19  2  0
M  END
$$$$
