RAG.pdb
     RDKit          3D

 21 20  0  0  1  0  0  0  0  0999 V2000
   16.9598  -25.1224  -10.5925 N   0  0  0  0  0  0  0  0  0  0  0  0
   17.7707  -26.2927  -10.6288 C   0  0  0  0  0  0  0  0  0  0  0  0
   17.3497  -27.3178   -9.9751 N   0  0  0  0  0  0  0  0  0  0  0  0
   18.9774  -26.2846  -11.3632 N   0  0  0  0  0  0  0  0  0  0  0  0
   19.3088  -25.0873  -12.1101 C   0  0  0  0  0  0  0  0  0  0  0  0
   20.4740  -25.3156  -13.0367 C   0  0  0  0  0  0  0  0  0  0  0  0
   20.6955  -24.0894  -13.8619 C   0  0  0  0  0  0  0  0  0  0  0  0
   21.8458  -24.2021  -14.8169 C   0  0  2  0  0  0  0  0  0  0  0  0
   22.8243  -25.1641  -14.4248 N   0  0  0  0  0  0  0  0  0  0  0  0
   22.4005  -22.8425  -15.0220 C   0  0  0  0  0  0  0  0  0  0  0  0
   23.4357  -22.5452  -14.3710 O   0  0  0  0  0  0  0  0  0  0  0  0
   17.9161  -28.1916   -9.9146 C   0  0  0  0  0  0  0  0  0  0  0  0
   22.6220  -20.3225  -17.6110 C   0  0  1  0  0  0  0  0  0  0  0  0
   22.5086  -20.6249  -16.1352 N   0  0  0  0  0  0  0  0  0  0  0  0
   21.8435  -21.8849  -15.8881 C   0  0  0  0  0  0  0  0  0  0  0  0
   21.7209  -19.5295  -15.5162 O   0  0  0  0  0  0  0  0  0  0  0  0
   20.4809  -19.6690  -15.3963 N   0  0  0  0  0  0  0  0  0  0  0  0
   22.3123  -18.3299  -15.0538 C   0  0  0  0  0  0  0  0  0  0  0  0
   21.4875  -17.3177  -14.4660 C   0  0  0  0  0  0  0  0  0  0  0  0
   20.7211  -16.5502  -15.4544 O   0  0  0  0  0  0  0  0  0  0  0  0
   20.7740  -16.8512  -16.6694 O   0  0  0  0  0  0  0  0  0  0  0  0
  1  2  1  0
  2  3  2  0
  4  5  1  0
  4  2  1  0
  5  6  1  0
  6  7  1  0
  7  8  1  0
  8 10  1  0
  8  9  1  1
 10 11  2  0
 10 14  1  0
 13 12  1  6
 13 15  1  0
 14 13  1  0
 15 17  1  0
 15 16  2  0
 17 18  1  0
 18 19  1  0
 19 21  1  0
 20 19  2  0
M  END
$$$$
