RAG.pdb
     RDKit          3D

 21 20  0  0  1  0  0  0  0  0999 V2000
   24.8095  -20.7581   -9.7986 N   0  0  0  0  0  0  0  0  0  0  0  0
   25.6834  -21.1193  -10.8636 C   0  0  0  0  0  0  0  0  0  0  0  0
   26.9110  -21.3559  -10.5596 N   0  0  0  0  0  0  0  0  0  0  0  0
   25.1822  -21.2024  -12.1817 N   0  0  0  0  0  0  0  0  0  0  0  0
   24.0978  -20.3146  -12.5520 C   0  0  0  0  0  0  0  0  0  0  0  0
   22.7548  -20.9086  -12.2173 C   0  0  0  0  0  0  0  0  0  0  0  0
   21.6770  -19.9773  -12.6693 C   0  0  0  0  0  0  0  0  0  0  0  0
   21.0291  -20.3818  -13.9594 C   0  0  2  0  0  0  0  0  0  0  0  0
   21.0104  -21.7927  -14.1739 N   0  0  0  0  0  0  0  0  0  0  0  0
   21.6838  -19.6248  -15.0533 C   0  0  0  0  0  0  0  0  0  0  0  0
   22.4908  -20.2590  -15.7816 O   0  0  0  0  0  0  0  0  0  0  0  0
   27.6194  -21.5702  -11.2946 C   0  0  0  0  0  0  0  0  0  0  0  0
   21.4935  -16.2220  -16.6771 C   0  0  1  0  0  0  0  0  0  0  0  0
   22.0290  -17.6207  -16.4791 N   0  0  0  0  0  0  0  0  0  0  0  0
   21.4564  -18.2623  -15.3166 C   0  0  0  0  0  0  0  0  0  0  0  0
   23.4987  -17.5129  -16.3007 O   0  0  0  0  0  0  0  0  0  0  0  0
   23.9645  -17.4545  -15.1384 N   0  0  0  0  0  0  0  0  0  0  0  0
   24.4000  -17.4730  -17.3911 C   0  0  0  0  0  0  0  0  0  0  0  0
   25.8037  -17.3397  -17.1415 C   0  0  0  0  0  0  0  0  0  0  0  0
   26.4872  -18.6282  -16.9804 O   0  0  0  0  0  0  0  0  0  0  0  0
   25.8284  -19.6926  -16.9296 O   0  0  0  0  0  0  0  0  0  0  0  0
  1  2  1  0
  2  3  2  0
  4  5  1  0
  4  2  1  0
  5  6  1  0
  6  7  1  0
  7  8  1  0
  8 10  1  0
  8  9  1  6
 10 11  2  0
 10 14  1  0
 13 12  1  6
 13 15  1  0
 14 13  1  0
 15 17  1  0
 15 16  2  0
 17 18  1  0
 18 19  1  0
 19 21  1  0
 20 19  2  0
M  END
$$$$
