IFM.pdb
     RDKit          3D

 28 28  0  0  1  0  0  0  0  0999 V2000
   13.7332  -18.5897   17.5238 C   0  0  0  0  0  0  0  0  0  0  0  0
   12.3179  -18.7525   18.0020 C   0  0  0  0  0  0  0  0  0  0  0  0
   12.1089  -17.9618   19.2566 C   0  0  2  0  0  0  0  0  0  0  0  0
   13.0462  -18.4478   20.3603 C   0  0  0  0  0  0  0  0  0  0  0  0
   10.6775  -17.9924   19.7327 C   0  0  2  0  0  0  0  0  0  0  0  0
    9.9043  -17.4914   18.5510 N   0  0  0  0  0  0  0  0  0  0  0  0
   10.3648  -17.0202   20.7975 C   0  0  0  0  0  0  0  0  0  0  0  0
   11.2743  -16.2229   21.2282 O   0  0  0  0  0  0  0  0  0  0  0  0
    9.0923  -16.8849   21.4101 N   0  0  0  0  0  0  0  0  0  0  0  0
    8.8351  -15.9109   22.4620 C   0  0  1  0  0  0  0  0  0  0  0  0
    7.4051  -15.5562   22.6269 C   0  0  0  0  0  0  0  0  0  0  0  0
    7.1122  -14.5555   23.6350 C   0  0  0  0  0  0  0  0  0  0  0  0
    6.6101  -14.8870   24.8652 C   0  0  0  0  0  0  0  0  0  0  0  0
    6.3419  -13.9285   25.8164 C   0  0  0  0  0  0  0  0  0  0  0  0
    6.5671  -12.6061   25.5694 C   0  0  0  0  0  0  0  0  0  0  0  0
    7.0728  -12.2444   24.3387 C   0  0  0  0  0  0  0  0  0  0  0  0
    7.3411  -13.2236   23.3809 C   0  0  0  0  0  0  0  0  0  0  0  0
    9.3354  -16.4344   23.7849 C   0  0  0  0  0  0  0  0  0  0  0  0
    9.4353  -17.6904   23.9785 O   0  0  0  0  0  0  0  0  0  0  0  0
    9.9838  -12.7537   29.3175 C   0  0  0  0  0  0  0  0  0  0  0  0
   11.0195  -14.1535   29.6966 S   0  0  0  0  0  0  0  0  0  0  0  0
   10.9126  -15.4453   28.4729 C   0  0  0  0  0  0  0  0  0  0  0  0
   10.3887  -15.0743   27.1419 C   0  0  0  0  0  0  0  0  0  0  0  0
   10.2979  -16.1185   26.0943 C   0  0  2  0  0  0  0  0  0  0  0  0
    9.7100  -15.5975   24.8491 N   0  0  0  0  0  0  0  0  0  0  0  0
    9.5249  -17.3068   26.4782 C   0  0  0  0  0  0  0  0  0  0  0  0
   10.1025  -18.4032   27.0631 O   0  0  0  0  0  0  0  0  0  0  0  0
    8.2901  -17.3376   26.2742 O   0  0  0  0  0  0  0  0  0  0  0  0
  2  1  1  0
  3  2  1  0
  3  4  1  1
  5  3  1  0
  5  6  1  6
  7  5  1  0
  8  7  2  0
  9  7  1  0
 10 11  1  1
 10  9  1  0
 11 12  1  0
 12 17  2  0
 13 14  2  0
 13 12  1  0
 14 15  1  0
 15 16  2  0
 17 16  1  0
 18 10  1  0
 18 19  2  0
 20 21  1  0
 22 21  1  0
 22 23  1  0
 24 23  1  1
 24 26  1  0
 24 25  1  0
 25 18  1  0
 26 27  1  0
 28 26  2  0
M  END
$$$$
