IFM.pdb
     RDKit          3D

 28 28  0  0  1  0  0  0  0  0999 V2000
   12.2325  -20.4748   20.3010 C   0  0  0  0  0  0  0  0  0  0  0  0
   11.0871  -19.5423   20.0240 C   0  0  0  0  0  0  0  0  0  0  0  0
   10.9793  -18.5268   21.1194 C   0  0  2  0  0  0  0  0  0  0  0  0
   10.9525  -19.2103   22.4849 C   0  0  0  0  0  0  0  0  0  0  0  0
    9.7807  -17.6241   20.9609 C   0  0  2  0  0  0  0  0  0  0  0  0
   10.0806  -16.8601   19.7073 N   0  0  0  0  0  0  0  0  0  0  0  0
    9.6614  -16.5767   21.9931 C   0  0  0  0  0  0  0  0  0  0  0  0
   10.5593  -15.6643   22.0908 O   0  0  0  0  0  0  0  0  0  0  0  0
    8.5946  -16.4875   22.9241 N   0  0  0  0  0  0  0  0  0  0  0  0
    8.5318  -15.4431   23.9373 C   0  0  1  0  0  0  0  0  0  0  0  0
    7.1707  -14.9045   24.1730 C   0  0  0  0  0  0  0  0  0  0  0  0
    7.0476  -13.9416   25.2504 C   0  0  0  0  0  0  0  0  0  0  0  0
    6.8025  -14.3229   26.5428 C   0  0  0  0  0  0  0  0  0  0  0  0
    6.6940  -13.3997   27.5584 C   0  0  0  0  0  0  0  0  0  0  0  0
    6.8272  -12.0640   27.3158 C   0  0  0  0  0  0  0  0  0  0  0  0
    7.0748  -11.6525   26.0233 C   0  0  0  0  0  0  0  0  0  0  0  0
    7.1829  -12.5962   25.0005 C   0  0  0  0  0  0  0  0  0  0  0  0
    9.0543  -15.9659   25.2519 C   0  0  0  0  0  0  0  0  0  0  0  0
    8.4731  -16.9439   25.8270 O   0  0  0  0  0  0  0  0  0  0  0  0
   15.1201  -17.1295   24.7498 C   0  0  0  0  0  0  0  0  0  0  0  0
   14.6656  -15.5110   25.3412 S   0  0  0  0  0  0  0  0  0  0  0  0
   12.9178  -15.3540   25.6545 C   0  0  0  0  0  0  0  0  0  0  0  0
   12.3487  -16.1784   26.7408 C   0  0  0  0  0  0  0  0  0  0  0  0
   10.8863  -16.1377   26.9763 C   0  0  2  0  0  0  0  0  0  0  0  0
   10.1765  -15.4252   25.9011 N   0  0  0  0  0  0  0  0  0  0  0  0
   10.4867  -15.5196   28.2473 C   0  0  0  0  0  0  0  0  0  0  0  0
    9.7097  -14.3924   28.3054 O   0  0  0  0  0  0  0  0  0  0  0  0
   10.8575  -16.0284   29.3295 O   0  0  0  0  0  0  0  0  0  0  0  0
  2  1  1  0
  3  2  1  0
  3  4  1  1
  5  3  1  0
  5  6  1  6
  7  5  1  0
  8  7  2  0
  9  7  1  0
 10 11  1  1
 10  9  1  0
 11 12  1  0
 12 17  2  0
 13 14  2  0
 13 12  1  0
 14 15  1  0
 15 16  2  0
 17 16  1  0
 18 10  1  0
 18 19  2  0
 20 21  1  0
 22 21  1  0
 22 23  1  0
 24 23  1  6
 24 26  1  0
 24 25  1  0
 25 18  1  0
 26 27  1  0
 28 26  2  0
M  END
$$$$
