IFM.pdb
     RDKit          3D

 28 28  0  0  1  0  0  0  0  0999 V2000
    9.8656  -21.6693   20.5033 C   0  0  0  0  0  0  0  0  0  0  0  0
    9.0808  -20.4277   20.1860 C   0  0  0  0  0  0  0  0  0  0  0  0
    9.2984  -19.3997   21.2531 C   0  0  2  0  0  0  0  0  0  0  0  0
    9.0897  -20.0099   22.6375 C   0  0  0  0  0  0  0  0  0  0  0  0
    8.4221  -18.1838   21.0780 C   0  0  2  0  0  0  0  0  0  0  0  0
    8.9092  -17.5826   19.7949 N   0  0  0  0  0  0  0  0  0  0  0  0
    8.6452  -17.1189   22.0745 C   0  0  0  0  0  0  0  0  0  0  0  0
    9.7559  -16.4751   22.0905 O   0  0  0  0  0  0  0  0  0  0  0  0
    7.6976  -16.7289   23.0556 N   0  0  0  0  0  0  0  0  0  0  0  0
    7.9516  -15.6449   23.9947 C   0  0  1  0  0  0  0  0  0  0  0  0
    6.7455  -14.8675   24.3678 C   0  0  0  0  0  0  0  0  0  0  0  0
    6.9367  -13.8484   25.3819 C   0  0  0  0  0  0  0  0  0  0  0  0
    7.5102  -12.6377   25.0979 C   0  0  0  0  0  0  0  0  0  0  0  0
    7.6806  -11.6756   26.0679 C   0  0  0  0  0  0  0  0  0  0  0  0
    7.2828  -11.8919   27.3546 C   0  0  0  0  0  0  0  0  0  0  0  0
    6.7019  -13.1025   27.6680 C   0  0  0  0  0  0  0  0  0  0  0  0
    6.5337  -14.0714   26.6775 C   0  0  0  0  0  0  0  0  0  0  0  0
    8.5583  -16.1908   25.2628 C   0  0  0  0  0  0  0  0  0  0  0  0
    7.9542  -17.1010   25.9198 O   0  0  0  0  0  0  0  0  0  0  0  0
   13.4396  -16.0131   23.2663 C   0  0  0  0  0  0  0  0  0  0  0  0
   13.5960  -17.4225   24.3457 S   0  0  0  0  0  0  0  0  0  0  0  0
   12.1401  -17.7010   25.3359 C   0  0  0  0  0  0  0  0  0  0  0  0
   11.8998  -16.7735   26.4609 C   0  0  0  0  0  0  0  0  0  0  0  0
   10.5023  -16.4651   26.8455 C   0  0  2  0  0  0  0  0  0  0  0  0
    9.7858  -15.7448   25.7801 N   0  0  0  0  0  0  0  0  0  0  0  0
   10.3649  -15.6746   28.0757 C   0  0  0  0  0  0  0  0  0  0  0  0
    9.8627  -16.2013   29.2367 O   0  0  0  0  0  0  0  0  0  0  0  0
   10.7169  -14.4732   28.0849 O   0  0  0  0  0  0  0  0  0  0  0  0
  2  1  1  0
  3  2  1  0
  3  4  1  1
  5  3  1  0
  5  6  1  6
  7  5  1  0
  8  7  2  0
  9  7  1  0
 10 11  1  1
 10  9  1  0
 11 12  1  0
 12 17  2  0
 13 14  2  0
 13 12  1  0
 14 15  1  0
 15 16  2  0
 17 16  1  0
 18 10  1  0
 18 19  2  0
 20 21  1  0
 22 21  1  0
 22 23  1  0
 24 23  1  6
 24 26  1  0
 24 25  1  0
 25 18  1  0
 26 27  1  0
 28 26  2  0
M  END
$$$$
