IFM.pdb
     RDKit          3D

 28 28  0  0  1  0  0  0  0  0999 V2000
   13.5179  -20.1116   19.2442 C   0  0  0  0  0  0  0  0  0  0  0  0
   12.3550  -19.2141   18.9273 C   0  0  0  0  0  0  0  0  0  0  0  0
   12.0221  -18.3702   20.1189 C   0  0  2  0  0  0  0  0  0  0  0  0
   11.8271  -19.2424   21.3573 C   0  0  0  0  0  0  0  0  0  0  0  0
   10.8110  -17.4983   19.8951 C   0  0  2  0  0  0  0  0  0  0  0  0
   11.2539  -16.5523   18.8209 N   0  0  0  0  0  0  0  0  0  0  0  0
   10.4743  -16.6147   21.0276 C   0  0  0  0  0  0  0  0  0  0  0  0
   11.3112  -15.7233   21.4192 O   0  0  0  0  0  0  0  0  0  0  0  0
    9.2539  -16.6673   21.7492 N   0  0  0  0  0  0  0  0  0  0  0  0
    8.9958  -15.8178   22.9038 C   0  0  1  0  0  0  0  0  0  0  0  0
    7.5914  -15.3568   23.0187 C   0  0  0  0  0  0  0  0  0  0  0  0
    7.2739  -14.5794   24.2011 C   0  0  0  0  0  0  0  0  0  0  0  0
    6.6239  -15.1235   25.2768 C   0  0  0  0  0  0  0  0  0  0  0  0
    6.3336  -14.3769   26.3966 C   0  0  0  0  0  0  0  0  0  0  0  0
    6.6838  -13.0612   26.4784 C   0  0  0  0  0  0  0  0  0  0  0  0
    7.3397  -12.4881   25.4095 C   0  0  0  0  0  0  0  0  0  0  0  0
    7.6293  -13.2534   24.2786 C   0  0  0  0  0  0  0  0  0  0  0  0
    9.3452  -16.5516   24.1741 C   0  0  0  0  0  0  0  0  0  0  0  0
    9.1560  -17.8095   24.2580 O   0  0  0  0  0  0  0  0  0  0  0  0
   10.2112  -13.6100   30.1325 C   0  0  0  0  0  0  0  0  0  0  0  0
   10.6230  -13.1148   28.4708 S   0  0  0  0  0  0  0  0  0  0  0  0
   11.2001  -14.4705   27.4674 C   0  0  0  0  0  0  0  0  0  0  0  0
   10.5434  -15.7804   27.6579 C   0  0  0  0  0  0  0  0  0  0  0  0
   10.3556  -16.6623   26.4820 C   0  0  2  0  0  0  0  0  0  0  0  0
    9.8831  -15.9149   25.3048 N   0  0  0  0  0  0  0  0  0  0  0  0
    9.4235  -17.7774   26.6941 C   0  0  0  0  0  0  0  0  0  0  0  0
    9.8496  -19.0519   26.9619 O   0  0  0  0  0  0  0  0  0  0  0  0
    8.1894  -17.5756   26.6349 O   0  0  0  0  0  0  0  0  0  0  0  0
  2  1  1  0
  3  2  1  0
  3  4  1  1
  5  3  1  0
  5  6  1  6
  7  5  1  0
  8  7  2  0
  9  7  1  0
 10 11  1  1
 10  9  1  0
 11 12  1  0
 12 17  2  0
 13 14  2  0
 13 12  1  0
 14 15  1  0
 15 16  2  0
 17 16  1  0
 18 10  1  0
 18 19  2  0
 20 21  1  0
 22 21  1  0
 22 23  1  0
 24 23  1  1
 24 26  1  0
 24 25  1  0
 25 18  1  0
 26 27  1  0
 28 26  2  0
M  END
$$$$
