IFM.pdb
     RDKit          3D

 28 28  0  0  1  0  0  0  0  0999 V2000
   12.4476  -20.8857   19.2533 C   0  0  0  0  0  0  0  0  0  0  0  0
   11.5796  -19.7406   18.8131 C   0  0  0  0  0  0  0  0  0  0  0  0
   11.2972  -18.8383   19.9745 C   0  0  2  0  0  0  0  0  0  0  0  0
   10.7560  -19.6386   21.1574 C   0  0  0  0  0  0  0  0  0  0  0  0
   10.3517  -17.7160   19.6237 C   0  0  2  0  0  0  0  0  0  0  0  0
   11.1070  -16.9296   18.5960 N   0  0  0  0  0  0  0  0  0  0  0  0
   10.1210  -16.7463   20.7115 C   0  0  0  0  0  0  0  0  0  0  0  0
   11.0993  -16.0585   21.1785 O   0  0  0  0  0  0  0  0  0  0  0  0
    8.8583  -16.4980   21.3087 N   0  0  0  0  0  0  0  0  0  0  0  0
    8.7018  -15.6203   22.4604 C   0  0  1  0  0  0  0  0  0  0  0  0
    7.3307  -15.0838   22.6351 C   0  0  0  0  0  0  0  0  0  0  0  0
    7.1250  -14.2341   23.7923 C   0  0  0  0  0  0  0  0  0  0  0  0
    7.4800  -12.9114   23.7963 C   0  0  0  0  0  0  0  0  0  0  0  0
    7.2738  -12.1132   24.8989 C   0  0  0  0  0  0  0  0  0  0  0  0
    6.7054  -12.6107   26.0346 C   0  0  0  0  0  0  0  0  0  0  0  0
    6.3380  -13.9396   26.0576 C   0  0  0  0  0  0  0  0  0  0  0  0
    6.5513  -14.7407   24.9347 C   0  0  0  0  0  0  0  0  0  0  0  0
    9.0737  -16.3542   23.7242 C   0  0  0  0  0  0  0  0  0  0  0  0
    8.8454  -17.6041   23.8280 O   0  0  0  0  0  0  0  0  0  0  0  0
    9.2508  -13.1739   28.9801 C   0  0  0  0  0  0  0  0  0  0  0  0
   10.5975  -14.2837   29.3418 S   0  0  0  0  0  0  0  0  0  0  0  0
   10.5819  -15.7463   28.3230 C   0  0  0  0  0  0  0  0  0  0  0  0
   10.9630  -15.5864   26.9043 C   0  0  0  0  0  0  0  0  0  0  0  0
   10.3501  -16.4822   25.8954 C   0  0  2  0  0  0  0  0  0  0  0  0
    9.6750  -15.7262   24.8276 N   0  0  0  0  0  0  0  0  0  0  0  0
    9.3756  -17.4390   26.4360 C   0  0  0  0  0  0  0  0  0  0  0  0
    9.7497  -18.6272   27.0068 O   0  0  0  0  0  0  0  0  0  0  0  0
    8.1527  -17.1761   26.3853 O   0  0  0  0  0  0  0  0  0  0  0  0
  2  1  1  0
  3  2  1  0
  3  4  1  1
  5  3  1  0
  5  6  1  6
  7  5  1  0
  8  7  2  0
  9  7  1  0
 10 11  1  1
 10  9  1  0
 11 12  1  0
 12 17  2  0
 13 14  2  0
 13 12  1  0
 14 15  1  0
 15 16  2  0
 17 16  1  0
 18 10  1  0
 18 19  2  0
 20 21  1  0
 22 21  1  0
 22 23  1  0
 24 23  1  1
 24 26  1  0
 24 25  1  0
 25 18  1  0
 26 27  1  0
 28 26  2  0
M  END
$$$$
