IFM.pdb
     RDKit          3D

 28 28  0  0  1  0  0  0  0  0999 V2000
   11.1466  -21.1098   20.7941 C   0  0  0  0  0  0  0  0  0  0  0  0
   10.3159  -19.9457   20.3324 C   0  0  0  0  0  0  0  0  0  0  0  0
   10.2652  -18.8988   21.4022 C   0  0  2  0  0  0  0  0  0  0  0  0
    9.8084  -19.5061   22.7270 C   0  0  0  0  0  0  0  0  0  0  0  0
    9.3876  -17.7288   21.0311 C   0  0  2  0  0  0  0  0  0  0  0  0
   10.0907  -17.1224   19.8551 N   0  0  0  0  0  0  0  0  0  0  0  0
    9.3627  -16.6410   22.0275 C   0  0  0  0  0  0  0  0  0  0  0  0
   10.4472  -16.0286   22.3388 O   0  0  0  0  0  0  0  0  0  0  0  0
    8.1942  -16.1949   22.6972 N   0  0  0  0  0  0  0  0  0  0  0  0
    8.2377  -15.1931   23.7535 C   0  0  1  0  0  0  0  0  0  0  0  0
    6.9609  -14.4677   23.9576 C   0  0  0  0  0  0  0  0  0  0  0  0
    6.9298  -13.5401   25.0720 C   0  0  0  0  0  0  0  0  0  0  0  0
    6.1517  -13.7571   26.1779 C   0  0  0  0  0  0  0  0  0  0  0  0
    6.1354  -12.8723   27.2326 C   0  0  0  0  0  0  0  0  0  0  0  0
    6.8969  -11.7407   27.2169 C   0  0  0  0  0  0  0  0  0  0  0  0
    7.6901  -11.4979   26.1155 C   0  0  0  0  0  0  0  0  0  0  0  0
    7.6996  -12.4009   25.0513 C   0  0  0  0  0  0  0  0  0  0  0  0
    8.6152  -15.8387   25.0631 C   0  0  0  0  0  0  0  0  0  0  0  0
    7.9892  -16.8721   25.4699 O   0  0  0  0  0  0  0  0  0  0  0  0
   14.2059  -17.9731   25.7480 C   0  0  0  0  0  0  0  0  0  0  0  0
   13.6709  -18.3185   27.4125 S   0  0  0  0  0  0  0  0  0  0  0  0
   12.0985  -17.5747   27.8026 C   0  0  0  0  0  0  0  0  0  0  0  0
   11.4534  -16.7647   26.7484 C   0  0  0  0  0  0  0  0  0  0  0  0
   10.1538  -16.1160   27.0418 C   0  0  2  0  0  0  0  0  0  0  0  0
    9.6458  -15.3570   25.8871 N   0  0  0  0  0  0  0  0  0  0  0  0
   10.1700  -15.2026   28.1918 C   0  0  0  0  0  0  0  0  0  0  0  0
   10.3457  -13.8505   28.0552 O   0  0  0  0  0  0  0  0  0  0  0  0
   10.0165  -15.6566   29.3483 O   0  0  0  0  0  0  0  0  0  0  0  0
  2  1  1  0
  3  2  1  0
  3  4  1  1
  5  3  1  0
  5  6  1  6
  7  5  1  0
  8  7  2  0
  9  7  1  0
 10 11  1  1
 10  9  1  0
 11 12  1  0
 12 17  2  0
 13 14  2  0
 13 12  1  0
 14 15  1  0
 15 16  2  0
 17 16  1  0
 18 10  1  0
 18 19  2  0
 20 21  1  0
 22 21  1  0
 22 23  1  0
 24 23  1  6
 24 26  1  0
 24 25  1  0
 25 18  1  0
 26 27  1  0
 28 26  2  0
M  END
$$$$
