IFM.pdb
     RDKit          3D

 28 28  0  0  1  0  0  0  0  0999 V2000
    8.8148  -20.4330   18.8122 C   0  0  0  0  0  0  0  0  0  0  0  0
    8.8332  -18.9402   18.6398 C   0  0  0  0  0  0  0  0  0  0  0  0
    8.9065  -18.2727   19.9784 C   0  0  2  0  0  0  0  0  0  0  0  0
    7.7638  -18.7424   20.8762 C   0  0  0  0  0  0  0  0  0  0  0  0
    8.9109  -16.7671   19.8790 C   0  0  2  0  0  0  0  0  0  0  0  0
   10.1887  -16.4673   19.1564 N   0  0  0  0  0  0  0  0  0  0  0  0
    9.0622  -16.0681   21.1695 C   0  0  0  0  0  0  0  0  0  0  0  0
   10.1517  -16.1820   21.8391 O   0  0  0  0  0  0  0  0  0  0  0  0
    8.0661  -15.2461   21.7567 N   0  0  0  0  0  0  0  0  0  0  0  0
    8.2330  -14.6401   23.0706 C   0  0  1  0  0  0  0  0  0  0  0  0
    7.1818  -13.6566   23.4254 C   0  0  0  0  0  0  0  0  0  0  0  0
    7.2535  -13.1078   24.7659 C   0  0  0  0  0  0  0  0  0  0  0  0
    8.1470  -12.1264   25.1037 C   0  0  0  0  0  0  0  0  0  0  0  0
    8.2013  -11.6087   26.3782 C   0  0  0  0  0  0  0  0  0  0  0  0
    7.3637  -12.0548   27.3580 C   0  0  0  0  0  0  0  0  0  0  0  0
    6.4537  -13.0424   27.0450 C   0  0  0  0  0  0  0  0  0  0  0  0
    6.4066  -13.5609   25.7499 C   0  0  0  0  0  0  0  0  0  0  0  0
    8.2429  -15.7082   24.1352 C   0  0  0  0  0  0  0  0  0  0  0  0
    7.2889  -16.5509   24.2036 O   0  0  0  0  0  0  0  0  0  0  0  0
   12.7227  -19.5803   23.6968 C   0  0  0  0  0  0  0  0  0  0  0  0
   11.8017  -20.3940   24.9874 S   0  0  0  0  0  0  0  0  0  0  0  0
   10.7002  -19.2913   25.8525 C   0  0  0  0  0  0  0  0  0  0  0  0
   10.2730  -18.0677   25.1425 C   0  0  0  0  0  0  0  0  0  0  0  0
    9.4677  -17.0622   25.8747 C   0  0  2  0  0  0  0  0  0  0  0  0
    9.2702  -15.8357   25.0847 N   0  0  0  0  0  0  0  0  0  0  0  0
   10.0223  -16.6601   27.1739 C   0  0  0  0  0  0  0  0  0  0  0  0
   10.0104  -17.4866   28.2668 O   0  0  0  0  0  0  0  0  0  0  0  0
   10.5321  -15.5244   27.3073 O   0  0  0  0  0  0  0  0  0  0  0  0
  2  1  1  0
  3  2  1  0
  3  4  1  1
  5  3  1  0
  5  6  1  6
  7  5  1  0
  8  7  2  0
  9  7  1  0
 10 11  1  1
 10  9  1  0
 11 12  1  0
 12 17  2  0
 13 14  2  0
 13 12  1  0
 14 15  1  0
 15 16  2  0
 17 16  1  0
 18 10  1  0
 18 19  2  0
 20 21  1  0
 22 21  1  0
 22 23  1  0
 24 23  1  6
 24 26  1  0
 24 25  1  0
 25 18  1  0
 26 27  1  0
 28 26  2  0
M  END
$$$$
