IFM.pdb
     RDKit          3D

 28 28  0  0  1  0  0  0  0  0999 V2000
   11.9676  -20.9042   18.9998 C   0  0  0  0  0  0  0  0  0  0  0  0
   10.5795  -20.3286   19.0129 C   0  0  0  0  0  0  0  0  0  0  0  0
   10.5133  -19.1776   19.9688 C   0  0  2  0  0  0  0  0  0  0  0  0
   10.9947  -19.6018   21.3547 C   0  0  0  0  0  0  0  0  0  0  0  0
    9.1344  -18.5709   20.0553 C   0  0  2  0  0  0  0  0  0  0  0  0
    8.8940  -18.0484   18.6717 N   0  0  0  0  0  0  0  0  0  0  0  0
    9.0457  -17.3696   20.9072 C   0  0  0  0  0  0  0  0  0  0  0  0
    9.8112  -16.3637   20.6829 O   0  0  0  0  0  0  0  0  0  0  0  0
    8.1487  -17.2250   21.9969 N   0  0  0  0  0  0  0  0  0  0  0  0
    8.1825  -16.0703   22.8840 C   0  0  1  0  0  0  0  0  0  0  0  0
    6.8569  -15.6716   23.4151 C   0  0  0  0  0  0  0  0  0  0  0  0
    6.8531  -14.5481   24.3321 C   0  0  0  0  0  0  0  0  0  0  0  0
    6.4314  -14.6691   25.6295 C   0  0  0  0  0  0  0  0  0  0  0  0
    6.4383  -13.5965   26.4926 C   0  0  0  0  0  0  0  0  0  0  0  0
    6.8675  -12.3668   26.0875 C   0  0  0  0  0  0  0  0  0  0  0  0
    7.2980  -12.2171   24.7861 C   0  0  0  0  0  0  0  0  0  0  0  0
    7.2869  -13.3105   23.9187 C   0  0  0  0  0  0  0  0  0  0  0  0
    9.0853  -16.3478   24.0597 C   0  0  0  0  0  0  0  0  0  0  0  0
    8.7800  -17.2574   24.8990 O   0  0  0  0  0  0  0  0  0  0  0  0
    9.9813  -12.4905   29.4778 C   0  0  0  0  0  0  0  0  0  0  0  0
   10.4913  -14.1198   28.9668 S   0  0  0  0  0  0  0  0  0  0  0  0
   10.2252  -14.4153   27.2292 C   0  0  0  0  0  0  0  0  0  0  0  0
   10.4783  -15.7826   26.7292 C   0  0  0  0  0  0  0  0  0  0  0  0
   11.1663  -15.9505   25.4275 C   0  0  2  0  0  0  0  0  0  0  0  0
   10.2786  -15.6445   24.2936 N   0  0  0  0  0  0  0  0  0  0  0  0
   11.7237  -17.2895   25.1966 C   0  0  0  0  0  0  0  0  0  0  0  0
   10.9564  -18.4239   25.2417 O   0  0  0  0  0  0  0  0  0  0  0  0
   12.9431  -17.4202   24.9447 O   0  0  0  0  0  0  0  0  0  0  0  0
  2  1  1  0
  3  2  1  0
  3  4  1  1
  5  3  1  0
  5  6  1  6
  7  5  1  0
  8  7  2  0
  9  7  1  0
 10 11  1  1
 10  9  1  0
 11 12  1  0
 12 17  2  0
 13 14  2  0
 13 12  1  0
 14 15  1  0
 15 16  2  0
 17 16  1  0
 18 10  1  0
 18 19  2  0
 20 21  1  0
 22 21  1  0
 22 23  1  0
 24 23  1  1
 24 26  1  0
 24 25  1  0
 25 18  1  0
 26 27  1  0
 28 26  2  0
M  END
$$$$
