IFM.pdb
     RDKit          3D

 28 28  0  0  1  0  0  0  0  0999 V2000
   12.6968  -20.2472   18.9456 C   0  0  0  0  0  0  0  0  0  0  0  0
   11.5862  -19.2779   18.6532 C   0  0  0  0  0  0  0  0  0  0  0  0
   11.3643  -18.3845   19.8345 C   0  0  2  0  0  0  0  0  0  0  0  0
   11.2295  -19.2084   21.1134 C   0  0  0  0  0  0  0  0  0  0  0  0
   10.1684  -17.4803   19.6644 C   0  0  2  0  0  0  0  0  0  0  0  0
   10.5632  -16.5871   18.5280 N   0  0  0  0  0  0  0  0  0  0  0  0
    9.9411  -16.5474   20.7846 C   0  0  0  0  0  0  0  0  0  0  0  0
   10.8637  -15.7265   21.1356 O   0  0  0  0  0  0  0  0  0  0  0  0
    8.7402  -16.4765   21.5368 N   0  0  0  0  0  0  0  0  0  0  0  0
    8.5799  -15.5656   22.6618 C   0  0  1  0  0  0  0  0  0  0  0  0
    7.1964  -15.0663   22.8485 C   0  0  0  0  0  0  0  0  0  0  0  0
    6.9705  -14.2492   24.0253 C   0  0  0  0  0  0  0  0  0  0  0  0
    7.3706  -12.9411   24.0906 C   0  0  0  0  0  0  0  0  0  0  0  0
    7.1449  -12.1735   25.2110 C   0  0  0  0  0  0  0  0  0  0  0  0
    6.5112  -12.6882   26.3038 C   0  0  0  0  0  0  0  0  0  0  0  0
    6.0974  -14.0029   26.2646 C   0  0  0  0  0  0  0  0  0  0  0  0
    6.3311  -14.7729   25.1242 C   0  0  0  0  0  0  0  0  0  0  0  0
    9.0011  -16.2445   23.9409 C   0  0  0  0  0  0  0  0  0  0  0  0
    8.8516  -17.5033   24.0754 O   0  0  0  0  0  0  0  0  0  0  0  0
   10.4877  -13.1562   29.6779 C   0  0  0  0  0  0  0  0  0  0  0  0
   11.4270  -14.6635   29.8259 S   0  0  0  0  0  0  0  0  0  0  0  0
   11.0693  -15.8322   28.5282 C   0  0  0  0  0  0  0  0  0  0  0  0
   10.4914  -15.2982   27.2775 C   0  0  0  0  0  0  0  0  0  0  0  0
   10.1167  -16.2468   26.2025 C   0  0  2  0  0  0  0  0  0  0  0  0
    9.5657  -15.5540   25.0261 N   0  0  0  0  0  0  0  0  0  0  0  0
    9.1434  -17.2720   26.6009 C   0  0  0  0  0  0  0  0  0  0  0  0
    9.5186  -18.5303   26.9928 O   0  0  0  0  0  0  0  0  0  0  0  0
    7.9203  -17.0048   26.5916 O   0  0  0  0  0  0  0  0  0  0  0  0
  2  1  1  0
  3  2  1  0
  3  4  1  1
  5  3  1  0
  5  6  1  6
  7  5  1  0
  8  7  2  0
  9  7  1  0
 10 11  1  1
 10  9  1  0
 11 12  1  0
 12 17  2  0
 13 14  2  0
 13 12  1  0
 14 15  1  0
 15 16  2  0
 17 16  1  0
 18 10  1  0
 18 19  2  0
 20 21  1  0
 22 21  1  0
 22 23  1  0
 24 23  1  1
 24 26  1  0
 24 25  1  0
 25 18  1  0
 26 27  1  0
 28 26  2  0
M  END
$$$$
