SQV.pdb
     RDKit          3D

 23 22  0  0  1  0  0  0  0  0999 V2000
    9.2190  -14.4492   18.3918 O   0  0  0  0  0  0  0  0  0  0  0  0
    8.1549  -14.6691   19.2683 C   0  0  0  0  0  0  0  0  0  0  0  0
    8.2604  -16.0344   19.8936 C   0  0  2  0  0  0  0  0  0  0  0  0
    7.6433  -16.9915   19.0258 N   0  0  0  0  0  0  0  0  0  0  0  0
    7.6946  -16.0860   21.2506 C   0  0  0  0  0  0  0  0  0  0  0  0
    6.5005  -15.8223   21.4880 O   0  0  0  0  0  0  0  0  0  0  0  0
    5.0743  -19.0165   23.5587 N   0  0  0  0  0  0  0  0  0  0  0  0
    6.2903  -19.0292   24.2844 C   0  0  0  0  0  0  0  0  0  0  0  0
    6.2702  -19.1528   25.5318 O   0  0  0  0  0  0  0  0  0  0  0  0
    7.5618  -18.8985   23.5805 C   0  0  0  0  0  0  0  0  0  0  0  0
    8.4964  -17.9066   24.2206 C   0  0  0  0  0  0  0  0  0  0  0  0
    8.1181  -16.5150   23.6995 C   0  0  2  0  0  0  0  0  0  0  0  0
    8.5254  -16.4469   22.3356 N   0  0  0  0  0  0  0  0  0  0  0  0
    8.6153  -15.4493   24.5550 C   0  0  0  0  0  0  0  0  0  0  0  0
    9.8245  -15.1201   24.4999 O   0  0  0  0  0  0  0  0  0  0  0  0
    7.0649  -11.8723   25.4513 C   0  0  0  0  0  0  0  0  0  0  0  0
    7.4175  -12.6331   26.7089 C   0  0  1  0  0  0  0  0  0  0  0  0
    6.1442  -13.2531   27.2338 C   0  0  0  0  0  0  0  0  0  0  0  0
    8.3739  -13.7396   26.3675 C   0  0  2  0  0  0  0  0  0  0  0  0
    7.8173  -14.7267   25.4784 N   0  0  0  0  0  0  0  0  0  0  0  0
    8.7934  -14.3982   27.6296 C   0  0  0  0  0  0  0  0  0  0  0  0
    9.4748  -13.7692   28.6479 O   0  0  0  0  0  0  0  0  0  0  0  0
    8.5237  -15.6327   27.8243 O   0  0  0  0  0  0  0  0  0  0  0  0
  2  1  1  0
  3  2  1  0
  3  5  1  0
  3  4  1  6
  5  6  2  0
  7  8  1  0
  8  9  2  0
  8 10  1  0
 10 11  1  0
 12 11  1  1
 12 14  1  0
 13 12  1  0
 13  5  1  0
 14 20  1  0
 15 14  2  0
 17 16  1  6
 17 19  1  0
 18 17  1  0
 19 21  1  0
 19 20  1  6
 21 23  2  0
 21 22  1  0
M  END
$$$$
