SQV.pdb
     RDKit          3D

 23 22  0  0  1  0  0  0  0  0999 V2000
    5.3083  -17.2630   24.6125 O   0  0  0  0  0  0  0  0  0  0  0  0
    5.3570  -18.2940   23.6726 C   0  0  0  0  0  0  0  0  0  0  0  0
    5.7471  -17.7575   22.3212 C   0  0  2  0  0  0  0  0  0  0  0  0
    5.6539  -18.8128   21.3581 N   0  0  0  0  0  0  0  0  0  0  0  0
    7.0794  -17.1337   22.3175 C   0  0  0  0  0  0  0  0  0  0  0  0
    8.1283  -17.7954   22.4338 O   0  0  0  0  0  0  0  0  0  0  0  0
    8.1461  -12.0843   19.0853 N   0  0  0  0  0  0  0  0  0  0  0  0
    8.1110  -13.4660   18.7766 C   0  0  0  0  0  0  0  0  0  0  0  0
    7.9931  -13.8352   17.5843 O   0  0  0  0  0  0  0  0  0  0  0  0
    8.2119  -14.4553   19.8444 C   0  0  0  0  0  0  0  0  0  0  0  0
    8.2822  -13.8425   21.2179 C   0  0  0  0  0  0  0  0  0  0  0  0
    8.4044  -14.9896   22.2281 C   0  0  2  0  0  0  0  0  0  0  0  0
    7.1887  -15.7315   22.1776 N   0  0  0  0  0  0  0  0  0  0  0  0
    8.7996  -14.5252   23.5483 C   0  0  0  0  0  0  0  0  0  0  0  0
    9.9824  -14.1604   23.7513 O   0  0  0  0  0  0  0  0  0  0  0  0
    7.0421  -11.8237   25.5636 C   0  0  0  0  0  0  0  0  0  0  0  0
    7.3170  -12.9577   26.5245 C   0  0  1  0  0  0  0  0  0  0  0  0
    6.0276  -13.7247   26.6989 C   0  0  0  0  0  0  0  0  0  0  0  0
    8.3366  -13.8815   25.9227 C   0  0  2  0  0  0  0  0  0  0  0  0
    7.9268  -14.4483   24.6637 N   0  0  0  0  0  0  0  0  0  0  0  0
    8.6013  -14.9759   26.8896 C   0  0  0  0  0  0  0  0  0  0  0  0
    8.4020  -16.3131   26.6271 O   0  0  0  0  0  0  0  0  0  0  0  0
    9.0449  -14.7013   28.0569 O   0  0  0  0  0  0  0  0  0  0  0  0
  2  1  1  0
  3  2  1  0
  3  5  1  0
  3  4  1  6
  5  6  2  0
  7  8  1  0
  8  9  2  0
  8 10  1  0
 10 11  1  0
 12 11  1  6
 12 14  1  0
 13 12  1  0
 13  5  1  0
 14 20  1  0
 15 14  2  0
 17 16  1  6
 17 19  1  0
 18 17  1  0
 19 21  1  0
 19 20  1  6
 21 23  2  0
 21 22  1  0
M  END
$$$$
