SQV.pdb
     RDKit          3D

 23 22  0  0  1  0  0  0  0  0999 V2000
    9.2178  -16.1922   18.5215 O   0  0  0  0  0  0  0  0  0  0  0  0
    8.1739  -15.8850   19.3960 C   0  0  0  0  0  0  0  0  0  0  0  0
    7.8150  -17.0852   20.2309 C   0  0  2  0  0  0  0  0  0  0  0  0
    7.1899  -18.0636   19.3932 N   0  0  0  0  0  0  0  0  0  0  0  0
    6.9749  -16.7441   21.3893 C   0  0  0  0  0  0  0  0  0  0  0  0
    5.7547  -16.9922   21.4271 O   0  0  0  0  0  0  0  0  0  0  0  0
    6.4206  -19.8967   25.4498 N   0  0  0  0  0  0  0  0  0  0  0  0
    7.4921  -19.0816   25.8891 C   0  0  0  0  0  0  0  0  0  0  0  0
    8.2645  -19.4974   26.7848 O   0  0  0  0  0  0  0  0  0  0  0  0
    7.6948  -17.7622   25.2999 C   0  0  0  0  0  0  0  0  0  0  0  0
    6.6363  -17.3907   24.2956 C   0  0  0  0  0  0  0  0  0  0  0  0
    6.9551  -15.9778   23.7921 C   0  0  2  0  0  0  0  0  0  0  0  0
    7.5605  -16.1106   22.5088 N   0  0  0  0  0  0  0  0  0  0  0  0
    7.7098  -15.2012   24.7627 C   0  0  0  0  0  0  0  0  0  0  0  0
    8.9376  -15.4122   24.9092 O   0  0  0  0  0  0  0  0  0  0  0  0
    6.8221  -11.2462   25.6596 C   0  0  0  0  0  0  0  0  0  0  0  0
    7.2359  -12.0801   26.8504 C   0  0  1  0  0  0  0  0  0  0  0  0
    5.9738  -12.5293   27.5478 C   0  0  0  0  0  0  0  0  0  0  0  0
    7.9685  -13.3003   26.3708 C   0  0  2  0  0  0  0  0  0  0  0  0
    7.1518  -14.1897   25.5857 N   0  0  0  0  0  0  0  0  0  0  0  0
    8.4859  -14.0283   27.5560 C   0  0  0  0  0  0  0  0  0  0  0  0
    8.1948  -15.3414   27.8526 O   0  0  0  0  0  0  0  0  0  0  0  0
    9.2574  -13.4323   28.3833 O   0  0  0  0  0  0  0  0  0  0  0  0
  2  1  1  0
  3  2  1  0
  3  5  1  0
  3  4  1  6
  5  6  2  0
  7  8  1  0
  8  9  2  0
  8 10  1  0
 10 11  1  0
 12 11  1  1
 12 14  1  0
 13 12  1  0
 13  5  1  0
 14 20  1  0
 15 14  2  0
 17 16  1  6
 17 19  1  0
 18 17  1  0
 19 21  1  0
 19 20  1  1
 21 23  2  0
 21 22  1  0
M  END
$$$$
