SQV.pdb
     RDKit          3D

 23 22  0  0  1  0  0  0  0  0999 V2000
    8.4781  -13.4673   20.0822 O   0  0  0  0  0  0  0  0  0  0  0  0
    7.5040  -14.2855   19.5072 C   0  0  0  0  0  0  0  0  0  0  0  0
    7.6350  -15.6971   20.0137 C   0  0  2  0  0  0  0  0  0  0  0  0
    6.6846  -16.5244   19.3340 N   0  0  0  0  0  0  0  0  0  0  0  0
    7.4945  -15.7946   21.4748 C   0  0  0  0  0  0  0  0  0  0  0  0
    6.4118  -15.5952   22.0577 O   0  0  0  0  0  0  0  0  0  0  0  0
   11.3262  -19.2662   25.0940 N   0  0  0  0  0  0  0  0  0  0  0  0
   10.5432  -18.5290   26.0153 C   0  0  0  0  0  0  0  0  0  0  0  0
   10.6448  -18.7590   27.2435 O   0  0  0  0  0  0  0  0  0  0  0  0
    9.6214  -17.5051   25.5345 C   0  0  0  0  0  0  0  0  0  0  0  0
    9.6656  -17.3194   24.0410 C   0  0  0  0  0  0  0  0  0  0  0  0
    8.6327  -16.2451   23.6799 C   0  0  2  0  0  0  0  0  0  0  0  0
    8.6221  -16.1263   22.2598 N   0  0  0  0  0  0  0  0  0  0  0  0
    8.8447  -15.0054   24.4100 C   0  0  0  0  0  0  0  0  0  0  0  0
    9.8631  -14.3116   24.1758 O   0  0  0  0  0  0  0  0  0  0  0  0
    6.8147  -11.7692   24.8198 C   0  0  0  0  0  0  0  0  0  0  0  0
    7.0686  -12.3483   26.1927 C   0  0  1  0  0  0  0  0  0  0  0  0
    5.8451  -13.1442   26.5807 C   0  0  0  0  0  0  0  0  0  0  0  0
    8.2392  -13.2867   26.1264 C   0  0  2  0  0  0  0  0  0  0  0  0
    7.9636  -14.4992   25.3996 N   0  0  0  0  0  0  0  0  0  0  0  0
    8.6414  -13.6279   27.5136 C   0  0  0  0  0  0  0  0  0  0  0  0
    8.6564  -14.9050   28.0292 O   0  0  0  0  0  0  0  0  0  0  0  0
    9.0055  -12.7025   28.3173 O   0  0  0  0  0  0  0  0  0  0  0  0
  2  1  1  0
  3  2  1  0
  3  5  1  0
  3  4  1  6
  5  6  2  0
  7  8  1  0
  8  9  2  0
  8 10  1  0
 10 11  1  0
 12 11  1  6
 12 14  1  0
 13 12  1  0
 13  5  1  0
 14 20  1  0
 15 14  2  0
 17 16  1  6
 17 19  1  0
 18 17  1  0
 19 21  1  0
 19 20  1  6
 21 23  2  0
 21 22  1  0
M  END
$$$$
