SQV.pdb
     RDKit          3D

 23 22  0  0  1  0  0  0  0  0999 V2000
    8.7534  -16.0192   18.7085 O   0  0  0  0  0  0  0  0  0  0  0  0
    7.9032  -15.4699   19.6698 C   0  0  0  0  0  0  0  0  0  0  0  0
    7.1244  -16.5538   20.3661 C   0  0  2  0  0  0  0  0  0  0  0  0
    5.9312  -16.8201   19.6210 N   0  0  0  0  0  0  0  0  0  0  0  0
    6.8283  -16.2315   21.7706 C   0  0  0  0  0  0  0  0  0  0  0  0
    5.9417  -15.4201   22.0983 O   0  0  0  0  0  0  0  0  0  0  0  0
    8.2033  -20.2589   26.4420 N   0  0  0  0  0  0  0  0  0  0  0  0
    7.6340  -19.1334   27.0857 C   0  0  0  0  0  0  0  0  0  0  0  0
    7.3437  -19.1930   28.3039 O   0  0  0  0  0  0  0  0  0  0  0  0
    7.3866  -17.9088   26.3318 C   0  0  0  0  0  0  0  0  0  0  0  0
    7.6917  -18.0429   24.8635 C   0  0  0  0  0  0  0  0  0  0  0  0
    7.3319  -16.7107   24.1950 C   0  0  2  0  0  0  0  0  0  0  0  0
    7.5696  -16.8586   22.7976 N   0  0  0  0  0  0  0  0  0  0  0  0
    7.9919  -15.5786   24.8255 C   0  0  0  0  0  0  0  0  0  0  0  0
    9.2310  -15.4307   24.6982 O   0  0  0  0  0  0  0  0  0  0  0  0
    6.8967  -11.7101   25.1749 C   0  0  0  0  0  0  0  0  0  0  0  0
    7.2360  -12.3129   26.5189 C   0  0  1  0  0  0  0  0  0  0  0  0
    5.9347  -12.6896   27.1866 C   0  0  0  0  0  0  0  0  0  0  0  0
    8.0389  -13.5651   26.3122 C   0  0  2  0  0  0  0  0  0  0  0  0
    7.3262  -14.5940   25.5996 N   0  0  0  0  0  0  0  0  0  0  0  0
    8.4451  -14.0824   27.6426 C   0  0  0  0  0  0  0  0  0  0  0  0
    9.2821  -13.4210   28.5138 O   0  0  0  0  0  0  0  0  0  0  0  0
    8.0110  -15.2156   28.0453 O   0  0  0  0  0  0  0  0  0  0  0  0
  2  1  1  0
  3  2  1  0
  3  5  1  0
  3  4  1  6
  5  6  2  0
  7  8  1  0
  8  9  2  0
  8 10  1  0
 10 11  1  0
 12 11  1  1
 12 14  1  0
 13 12  1  0
 13  5  1  0
 14 20  1  0
 15 14  2  0
 17 16  1  6
 17 19  1  0
 18 17  1  0
 19 21  1  0
 19 20  1  1
 21 23  2  0
 21 22  1  0
M  END
$$$$
