SQV.pdb
     RDKit          3D

 23 22  0  0  1  0  0  0  0  0999 V2000
    8.1158  -17.2379   19.1863 O   0  0  0  0  0  0  0  0  0  0  0  0
    7.1491  -16.6039   19.9688 C   0  0  0  0  0  0  0  0  0  0  0  0
    6.4551  -17.5999   20.8592 C   0  0  2  0  0  0  0  0  0  0  0  0
    5.1905  -17.9386   20.2797 N   0  0  0  0  0  0  0  0  0  0  0  0
    6.3093  -17.1236   22.2434 C   0  0  0  0  0  0  0  0  0  0  0  0
    5.4639  -16.2695   22.5715 O   0  0  0  0  0  0  0  0  0  0  0  0
    8.5682  -20.3676   27.2310 N   0  0  0  0  0  0  0  0  0  0  0  0
    7.9037  -19.2408   27.7734 C   0  0  0  0  0  0  0  0  0  0  0  0
    7.7650  -19.1373   29.0151 O   0  0  0  0  0  0  0  0  0  0  0  0
    7.3827  -18.2045   26.8881 C   0  0  0  0  0  0  0  0  0  0  0  0
    7.5837  -18.5135   25.4283 C   0  0  0  0  0  0  0  0  0  0  0  0
    7.1073  -17.2943   24.6298 C   0  0  2  0  0  0  0  0  0  0  0  0
    7.1534  -17.6459   23.2495 N   0  0  0  0  0  0  0  0  0  0  0  0
    7.8237  -16.0814   24.9908 C   0  0  0  0  0  0  0  0  0  0  0  0
    9.0451  -15.9775   24.7247 O   0  0  0  0  0  0  0  0  0  0  0  0
    6.0611  -12.5323   24.9417 C   0  0  0  0  0  0  0  0  0  0  0  0
    7.0858  -12.5457   26.0529 C   0  0  1  0  0  0  0  0  0  0  0  0
    6.3354  -12.6658   27.3580 C   0  0  0  0  0  0  0  0  0  0  0  0
    7.9647  -13.7542   25.9023 C   0  0  2  0  0  0  0  0  0  0  0  0
    7.2340  -14.9677   25.6418 N   0  0  0  0  0  0  0  0  0  0  0  0
    8.7526  -13.9150   27.1497 C   0  0  0  0  0  0  0  0  0  0  0  0
    9.7008  -13.0202   27.5937 O   0  0  0  0  0  0  0  0  0  0  0  0
    8.5693  -14.9403   27.8914 O   0  0  0  0  0  0  0  0  0  0  0  0
  2  1  1  0
  3  2  1  0
  3  5  1  0
  3  4  1  6
  5  6  2  0
  7  8  1  0
  8  9  2  0
  8 10  1  0
 10 11  1  0
 12 11  1  1
 12 14  1  0
 13 12  1  0
 13  5  1  0
 14 20  1  0
 15 14  2  0
 17 16  1  6
 17 19  1  0
 18 17  1  0
 19 21  1  0
 19 20  1  1
 21 23  2  0
 21 22  1  0
M  END
$$$$
