SQV.pdb
     RDKit          3D

 23 22  0  0  1  0  0  0  0  0999 V2000
    9.7063  -15.1594   20.2013 O   0  0  0  0  0  0  0  0  0  0  0  0
    8.6579  -15.5492   19.3659 C   0  0  0  0  0  0  0  0  0  0  0  0
    7.9053  -16.7054   19.9687 C   0  0  2  0  0  0  0  0  0  0  0  0
    6.8936  -17.1308   19.0494 N   0  0  0  0  0  0  0  0  0  0  0  0
    7.3420  -16.3925   21.2912 C   0  0  0  0  0  0  0  0  0  0  0  0
    6.3266  -15.6855   21.4356 O   0  0  0  0  0  0  0  0  0  0  0  0
    7.7352  -20.3065   26.1503 N   0  0  0  0  0  0  0  0  0  0  0  0
    7.0758  -19.1607   26.6580 C   0  0  0  0  0  0  0  0  0  0  0  0
    6.5171  -19.2090   27.7793 O   0  0  0  0  0  0  0  0  0  0  0  0
    7.0478  -17.9285   25.8768 C   0  0  0  0  0  0  0  0  0  0  0  0
    7.5910  -18.0961   24.4826 C   0  0  0  0  0  0  0  0  0  0  0  0
    7.4974  -16.7337   23.7852 C   0  0  2  0  0  0  0  0  0  0  0  0
    7.9660  -16.9065   22.4505 N   0  0  0  0  0  0  0  0  0  0  0  0
    8.1468  -15.6771   24.5445 C   0  0  0  0  0  0  0  0  0  0  0  0
    9.3987  -15.5997   24.5579 O   0  0  0  0  0  0  0  0  0  0  0  0
    7.1151  -11.7737   24.9590 C   0  0  0  0  0  0  0  0  0  0  0  0
    7.3518  -12.4446   26.2927 C   0  0  1  0  0  0  0  0  0  0  0  0
    6.0019  -12.8264   26.8522 C   0  0  0  0  0  0  0  0  0  0  0  0
    8.1465  -13.7013   26.0816 C   0  0  2  0  0  0  0  0  0  0  0  0
    7.4566  -14.6929   25.2973 N   0  0  0  0  0  0  0  0  0  0  0  0
    8.4773  -14.2716   27.4112 C   0  0  0  0  0  0  0  0  0  0  0  0
    9.2320  -13.6306   28.3685 O   0  0  0  0  0  0  0  0  0  0  0  0
    8.0523  -15.4349   27.7292 O   0  0  0  0  0  0  0  0  0  0  0  0
  2  1  1  0
  3  2  1  0
  3  5  1  0
  3  4  1  6
  5  6  2  0
  7  8  1  0
  8  9  2  0
  8 10  1  0
 10 11  1  0
 12 11  1  1
 12 14  1  0
 13 12  1  0
 13  5  1  0
 14 20  1  0
 15 14  2  0
 17 16  1  6
 17 19  1  0
 18 17  1  0
 19 21  1  0
 19 20  1  6
 21 23  2  0
 21 22  1  0
M  END
$$$$
