SQV.pdb
     RDKit          3D

 23 22  0  0  1  0  0  0  0  0999 V2000
   12.0875  -16.0085   19.3099 O   0  0  0  0  0  0  0  0  0  0  0  0
   10.9866  -15.8784   20.1584 C   0  0  0  0  0  0  0  0  0  0  0  0
   10.6439  -17.2039   20.7845 C   0  0  2  0  0  0  0  0  0  0  0  0
   10.0403  -18.0431   19.7940 N   0  0  0  0  0  0  0  0  0  0  0  0
    9.7917  -17.0690   21.9760 C   0  0  0  0  0  0  0  0  0  0  0  0
    8.5517  -16.9741   21.9045 O   0  0  0  0  0  0  0  0  0  0  0  0
   12.1876  -20.0522   25.8716 N   0  0  0  0  0  0  0  0  0  0  0  0
   10.9808  -20.4107   25.2232 C   0  0  0  0  0  0  0  0  0  0  0  0
   10.7954  -21.5974   24.8637 O   0  0  0  0  0  0  0  0  0  0  0  0
    9.9573  -19.4007   24.9753 C   0  0  0  0  0  0  0  0  0  0  0  0
   10.3589  -18.0231   25.4312 C   0  0  0  0  0  0  0  0  0  0  0  0
    9.6838  -17.0134   24.4952 C   0  0  2  0  0  0  0  0  0  0  0  0
   10.3886  -17.0448   23.2570 N   0  0  0  0  0  0  0  0  0  0  0  0
    9.5465  -15.6999   25.1039 C   0  0  0  0  0  0  0  0  0  0  0  0
   10.5250  -14.9152   25.1180 O   0  0  0  0  0  0  0  0  0  0  0  0
    6.8232  -12.0752   27.0809 C   0  0  0  0  0  0  0  0  0  0  0  0
    6.8711  -13.3271   26.2352 C   0  0  1  0  0  0  0  0  0  0  0  0
    6.5586  -12.9241   24.8136 C   0  0  0  0  0  0  0  0  0  0  0  0
    8.2608  -13.8954   26.2689 C   0  0  2  0  0  0  0  0  0  0  0  0
    8.3554  -15.2167   25.7037 N   0  0  0  0  0  0  0  0  0  0  0  0
    8.7141  -13.9333   27.6815 C   0  0  0  0  0  0  0  0  0  0  0  0
    9.1120  -12.8292   28.4025 O   0  0  0  0  0  0  0  0  0  0  0  0
    8.7529  -15.0469   28.3086 O   0  0  0  0  0  0  0  0  0  0  0  0
  2  1  1  0
  3  2  1  0
  3  5  1  0
  3  4  1  6
  5  6  2  0
  7  8  1  0
  8  9  2  0
  8 10  1  0
 10 11  1  0
 12 11  1  1
 12 14  1  0
 13 12  1  0
 13  5  1  0
 14 20  1  0
 15 14  2  0
 17 16  1  1
 17 19  1  0
 18 17  1  0
 19 21  1  0
 19 20  1  1
 21 23  2  0
 21 22  1  0
M  END
$$$$
