SQV.pdb
     RDKit          3D

 23 22  0  0  1  0  0  0  0  0999 V2000
    8.8576  -12.0432   18.2376 O   0  0  0  0  0  0  0  0  0  0  0  0
    8.2223  -12.5507   19.3724 C   0  0  0  0  0  0  0  0  0  0  0  0
    8.3615  -14.0486   19.4291 C   0  0  2  0  0  0  0  0  0  0  0  0
    7.5959  -14.6266   18.3662 N   0  0  0  0  0  0  0  0  0  0  0  0
    7.9856  -14.6077   20.7368 C   0  0  0  0  0  0  0  0  0  0  0  0
    6.8013  -14.8248   21.0562 O   0  0  0  0  0  0  0  0  0  0  0  0
   10.7711  -19.3463   23.0419 N   0  0  0  0  0  0  0  0  0  0  0  0
    9.4312  -19.2612   22.5916 C   0  0  0  0  0  0  0  0  0  0  0  0
    8.8306  -20.2983   22.2233 O   0  0  0  0  0  0  0  0  0  0  0  0
    8.7533  -17.9695   22.5570 C   0  0  0  0  0  0  0  0  0  0  0  0
    9.6419  -16.8210   22.9550 C   0  0  0  0  0  0  0  0  0  0  0  0
    8.7863  -15.5487   22.9355 C   0  0  2  0  0  0  0  0  0  0  0  0
    8.9958  -14.9150   21.6763 N   0  0  0  0  0  0  0  0  0  0  0  0
    9.0124  -14.7113   24.1027 C   0  0  0  0  0  0  0  0  0  0  0  0
   10.1637  -14.2741   24.3413 O   0  0  0  0  0  0  0  0  0  0  0  0
    6.8692  -11.6349   25.5527 C   0  0  0  0  0  0  0  0  0  0  0  0
    7.1353  -12.6728   26.6189 C   0  0  1  0  0  0  0  0  0  0  0  0
    5.9028  -13.5396   26.7231 C   0  0  0  0  0  0  0  0  0  0  0  0
    8.2853  -13.5390   26.1916 C   0  0  2  0  0  0  0  0  0  0  0  0
    8.0028  -14.3356   25.0254 N   0  0  0  0  0  0  0  0  0  0  0  0
    8.6392  -14.4335   27.3218 C   0  0  0  0  0  0  0  0  0  0  0  0
    8.6032  -15.8093   27.2679 O   0  0  0  0  0  0  0  0  0  0  0  0
    9.0076  -13.9330   28.4392 O   0  0  0  0  0  0  0  0  0  0  0  0
  2  1  1  0
  3  2  1  0
  3  5  1  0
  3  4  1  6
  5  6  2  0
  7  8  1  0
  8  9  2  0
  8 10  1  0
 10 11  1  0
 12 11  1  1
 12 14  1  0
 13 12  1  0
 13  5  1  0
 14 20  1  0
 15 14  2  0
 17 16  1  6
 17 19  1  0
 18 17  1  0
 19 21  1  0
 19 20  1  6
 21 23  2  0
 21 22  1  0
M  END
$$$$
