SQV.pdb
     RDKit          3D

 23 22  0  0  1  0  0  0  0  0999 V2000
    9.4707  -13.9072   18.5193 O   0  0  0  0  0  0  0  0  0  0  0  0
    8.6289  -13.6339   19.5989 C   0  0  0  0  0  0  0  0  0  0  0  0
    7.7442  -14.8165   19.8903 C   0  0  2  0  0  0  0  0  0  0  0  0
    6.6557  -14.8224   18.9603 N   0  0  0  0  0  0  0  0  0  0  0  0
    7.2704  -14.8457   21.2827 C   0  0  0  0  0  0  0  0  0  0  0  0
    6.3561  -14.1063   21.6939 O   0  0  0  0  0  0  0  0  0  0  0  0
    7.8965  -20.0117   24.8441 N   0  0  0  0  0  0  0  0  0  0  0  0
    7.2916  -19.0585   25.6990 C   0  0  0  0  0  0  0  0  0  0  0  0
    6.8855  -19.4073   26.8327 O   0  0  0  0  0  0  0  0  0  0  0  0
    7.1423  -17.6749   25.2600 C   0  0  0  0  0  0  0  0  0  0  0  0
    7.6393  -17.4392   23.8584 C   0  0  0  0  0  0  0  0  0  0  0  0
    7.4386  -15.9521   23.5429 C   0  0  2  0  0  0  0  0  0  0  0  0
    7.8658  -15.7413   22.1997 N   0  0  0  0  0  0  0  0  0  0  0  0
    8.0525  -15.0871   24.5377 C   0  0  0  0  0  0  0  0  0  0  0  0
    9.3012  -14.9760   24.5802 O   0  0  0  0  0  0  0  0  0  0  0  0
    6.8284  -11.4343   25.7387 C   0  0  0  0  0  0  0  0  0  0  0  0
    7.1336  -12.3316   26.9162 C   0  0  1  0  0  0  0  0  0  0  0  0
    5.8197  -12.8848   27.4150 C   0  0  0  0  0  0  0  0  0  0  0  0
    7.9841  -13.4809   26.4566 C   0  0  2  0  0  0  0  0  0  0  0  0
    7.3298  -14.3328   25.4972 N   0  0  0  0  0  0  0  0  0  0  0  0
    8.3639  -14.2836   27.6457 C   0  0  0  0  0  0  0  0  0  0  0  0
    9.1442  -13.8207   28.6819 O   0  0  0  0  0  0  0  0  0  0  0  0
    7.9601  -15.4919   27.7542 O   0  0  0  0  0  0  0  0  0  0  0  0
  2  1  1  0
  3  2  1  0
  3  5  1  0
  3  4  1  6
  5  6  2  0
  7  8  1  0
  8  9  2  0
  8 10  1  0
 10 11  1  0
 12 11  1  1
 12 14  1  0
 13 12  1  0
 13  5  1  0
 14 20  1  0
 15 14  2  0
 17 16  1  6
 17 19  1  0
 18 17  1  0
 19 21  1  0
 19 20  1  6
 21 23  2  0
 21 22  1  0
M  END
$$$$
