SQV.pdb
     RDKit          3D

 23 22  0  0  1  0  0  0  0  0999 V2000
    8.6291  -14.3403   18.1881 O   0  0  0  0  0  0  0  0  0  0  0  0
    7.9788  -14.4144   19.4212 C   0  0  0  0  0  0  0  0  0  0  0  0
    7.7460  -15.8502   19.8092 C   0  0  2  0  0  0  0  0  0  0  0  0
    6.7989  -16.4280   18.9043 N   0  0  0  0  0  0  0  0  0  0  0  0
    7.3227  -16.0016   21.2099 C   0  0  0  0  0  0  0  0  0  0  0  0
    6.1359  -15.8771   21.5673 O   0  0  0  0  0  0  0  0  0  0  0  0
    6.4260  -19.1940   24.6631 N   0  0  0  0  0  0  0  0  0  0  0  0
    7.1638  -18.6293   25.7318 C   0  0  0  0  0  0  0  0  0  0  0  0
    6.7068  -18.6773   26.8983 O   0  0  0  0  0  0  0  0  0  0  0  0
    8.4519  -17.9940   25.4741 C   0  0  0  0  0  0  0  0  0  0  0  0
    8.7298  -17.7865   24.0090 C   0  0  0  0  0  0  0  0  0  0  0  0
    8.0169  -16.4974   23.5833 C   0  0  2  0  0  0  0  0  0  0  0  0
    8.2881  -16.2994   22.1983 N   0  0  0  0  0  0  0  0  0  0  0  0
    8.3378  -15.3748   24.4503 C   0  0  0  0  0  0  0  0  0  0  0  0
    9.5080  -14.9238   24.4771 O   0  0  0  0  0  0  0  0  0  0  0  0
    7.1407  -11.7131   27.5375 C   0  0  0  0  0  0  0  0  0  0  0  0
    6.6245  -12.8769   26.7227 C   0  0  1  0  0  0  0  0  0  0  0  0
    5.8718  -12.3051   25.5447 C   0  0  0  0  0  0  0  0  0  0  0  0
    7.7873  -13.6697   26.1985 C   0  0  2  0  0  0  0  0  0  0  0  0
    7.4035  -14.7259   25.2976 N   0  0  0  0  0  0  0  0  0  0  0  0
    8.5129  -14.2517   27.3548 C   0  0  0  0  0  0  0  0  0  0  0  0
    9.4282  -13.5686   28.1247 O   0  0  0  0  0  0  0  0  0  0  0  0
    8.3033  -15.4670   27.6925 O   0  0  0  0  0  0  0  0  0  0  0  0
  2  1  1  0
  3  2  1  0
  3  5  1  0
  3  4  1  6
  5  6  2  0
  7  8  1  0
  8  9  2  0
  8 10  1  0
 10 11  1  0
 12 11  1  1
 12 14  1  0
 13 12  1  0
 13  5  1  0
 14 20  1  0
 15 14  2  0
 17 16  1  1
 17 19  1  0
 18 17  1  0
 19 21  1  0
 19 20  1  6
 21 23  2  0
 21 22  1  0
M  END
$$$$
