VGE.pdb
     RDKit          3D

 21 20  0  0  1  0  0  0  0  0999 V2000
    7.9319  -12.1778   20.4017 C   0  0  0  0  0  0  0  0  0  0  0  0
    8.0671  -13.4997   19.6965 C   0  0  2  0  0  0  0  0  0  0  0  0
    7.3258  -13.4988   18.3657 C   0  0  0  0  0  0  0  0  0  0  0  0
    7.4998  -14.6467   20.4990 C   0  0  2  0  0  0  0  0  0  0  0  0
    6.0675  -14.5267   20.5933 N   0  0  0  0  0  0  0  0  0  0  0  0
    8.1181  -14.6833   21.8403 C   0  0  0  0  0  0  0  0  0  0  0  0
    7.7800  -13.7651   22.6457 O   0  0  0  0  0  0  0  0  0  0  0  0
    9.0465  -15.6857   22.2312 N   0  0  0  0  0  0  0  0  0  0  0  0
    9.6269  -15.5497   23.5270 C   0  0  0  0  0  0  0  0  0  0  0  0
   10.5507  -16.6556   23.8848 C   0  0  0  0  0  0  0  0  0  0  0  0
   10.6064  -17.7282   23.2361 O   0  0  0  0  0  0  0  0  0  0  0  0
   11.4032  -16.5005   24.9985 N   0  0  0  0  0  0  0  0  0  0  0  0
   12.3494  -17.5599   25.4497 C   0  0  1  0  0  0  0  0  0  0  0  0
   13.6941  -16.9479   25.3407 C   0  0  0  0  0  0  0  0  0  0  0  0
   14.0583  -16.4807   23.9833 C   0  0  0  0  0  0  0  0  0  0  0  0
   15.4513  -15.9954   23.9377 C   0  0  0  0  0  0  0  0  0  0  0  0
   15.8461  -15.3570   22.9322 O   0  0  0  0  0  0  0  0  0  0  0  0
   11.9278  -18.1007   26.7244 C   0  0  0  0  0  0  0  0  0  0  0  0
   11.0967  -17.4763   27.4435 O   0  0  0  0  0  0  0  0  0  0  0  0
   16.3456  -16.2209   24.9724 O   0  0  0  0  0  0  0  0  0  0  0  0
   12.4045  -19.3067   27.2118 O   0  0  0  0  0  0  0  0  0  0  0  0
  2  4  1  0
  2  1  1  1
  3  2  1  0
  4  5  1  1
  6  4  1  0
  7  6  2  0
  8  6  1  0
  9 10  1  0
  9  8  1  0
 10 12  1  0
 11 10  2  0
 12 13  1  0
 13 14  1  1
 14 15  1  0
 15 16  1  0
 16 20  1  0
 17 16  2  0
 18 13  1  0
 18 21  1  0
 19 18  2  0
M  END
$$$$
