VGE.pdb
     RDKit          3D

 21 20  0  0  1  0  0  0  0  0999 V2000
    7.6008  -12.4366   17.7008 C   0  0  0  0  0  0  0  0  0  0  0  0
    7.6835  -13.3080   18.9243 C   0  0  2  0  0  0  0  0  0  0  0  0
    8.3071  -12.5625   20.0973 C   0  0  0  0  0  0  0  0  0  0  0  0
    8.5299  -14.5394   18.7042 C   0  0  2  0  0  0  0  0  0  0  0  0
    8.0174  -15.3029   17.5954 N   0  0  0  0  0  0  0  0  0  0  0  0
    8.5707  -15.3548   19.9354 C   0  0  0  0  0  0  0  0  0  0  0  0
    7.5754  -16.1097   20.1488 O   0  0  0  0  0  0  0  0  0  0  0  0
    9.6584  -15.3128   20.8491 N   0  0  0  0  0  0  0  0  0  0  0  0
    9.5224  -16.0834   22.0416 C   0  0  0  0  0  0  0  0  0  0  0  0
   10.7807  -16.2023   22.8207 C   0  0  0  0  0  0  0  0  0  0  0  0
   11.6865  -15.3350   22.7805 O   0  0  0  0  0  0  0  0  0  0  0  0
   10.9718  -17.3340   23.6414 N   0  0  0  0  0  0  0  0  0  0  0  0
   12.1627  -17.5067   24.5208 C   0  0  1  0  0  0  0  0  0  0  0  0
   11.7318  -18.4585   25.5711 C   0  0  0  0  0  0  0  0  0  0  0  0
   12.7859  -18.8365   26.5405 C   0  0  0  0  0  0  0  0  0  0  0  0
   12.3023  -19.8585   27.4889 C   0  0  0  0  0  0  0  0  0  0  0  0
   11.9770  -20.9910   27.0576 O   0  0  0  0  0  0  0  0  0  0  0  0
   13.3317  -17.8218   23.7275 C   0  0  0  0  0  0  0  0  0  0  0  0
   13.2265  -18.5163   22.6767 O   0  0  0  0  0  0  0  0  0  0  0  0
   12.1932  -19.6109   28.8484 O   0  0  0  0  0  0  0  0  0  0  0  0
   14.6008  -17.3866   24.0730 O   0  0  0  0  0  0  0  0  0  0  0  0
  2  4  1  0
  2  1  1  6
  3  2  1  0
  4  5  1  6
  6  4  1  0
  7  6  2  0
  8  6  1  0
  9 10  1  0
  9  8  1  0
 10 12  1  0
 11 10  2  0
 12 13  1  0
 13 14  1  1
 14 15  1  0
 15 16  1  0
 16 20  1  0
 17 16  2  0
 18 13  1  0
 18 21  1  0
 19 18  2  0
M  END
$$$$
