VGE.pdb
     RDKit          3D

 21 20  0  0  1  0  0  0  0  0999 V2000
    7.0906  -14.8324   20.0726 C   0  0  0  0  0  0  0  0  0  0  0  0
    7.4354  -13.4519   20.5611 C   0  0  2  0  0  0  0  0  0  0  0  0
    8.1731  -12.6525   19.4947 C   0  0  0  0  0  0  0  0  0  0  0  0
    8.3339  -13.4729   21.7749 C   0  0  2  0  0  0  0  0  0  0  0  0
    9.5337  -14.2181   21.4922 N   0  0  0  0  0  0  0  0  0  0  0  0
    7.6137  -14.0463   22.9304 C   0  0  0  0  0  0  0  0  0  0  0  0
    6.5478  -13.4585   23.2828 O   0  0  0  0  0  0  0  0  0  0  0  0
    8.0721  -15.1968   23.6275 N   0  0  0  0  0  0  0  0  0  0  0  0
    7.2393  -15.6818   24.6790 C   0  0  0  0  0  0  0  0  0  0  0  0
    7.7928  -16.8692   25.3777 C   0  0  0  0  0  0  0  0  0  0  0  0
    7.0986  -17.8774   25.6533 O   0  0  0  0  0  0  0  0  0  0  0  0
    9.1539  -16.8701   25.7496 N   0  0  0  0  0  0  0  0  0  0  0  0
    9.8892  -18.1085   26.1333 C   0  0  1  0  0  0  0  0  0  0  0  0
   11.1821  -18.0278   25.4144 C   0  0  0  0  0  0  0  0  0  0  0  0
   11.0706  -17.8194   23.9524 C   0  0  0  0  0  0  0  0  0  0  0  0
   12.3991  -17.7928   23.3105 C   0  0  0  0  0  0  0  0  0  0  0  0
   13.4281  -17.8083   24.0285 O   0  0  0  0  0  0  0  0  0  0  0  0
    9.8971  -18.2628   27.5725 C   0  0  0  0  0  0  0  0  0  0  0  0
    9.4974  -17.3260   28.3209 O   0  0  0  0  0  0  0  0  0  0  0  0
   12.5528  -17.7507   21.9335 O   0  0  0  0  0  0  0  0  0  0  0  0
   10.3345  -19.4229   28.1909 O   0  0  0  0  0  0  0  0  0  0  0  0
  2  4  1  0
  2  1  1  6
  3  2  1  0
  4  5  1  6
  6  4  1  0
  7  6  2  0
  8  6  1  0
  9 10  1  0
  9  8  1  0
 10 12  1  0
 11 10  2  0
 12 13  1  0
 13 14  1  1
 14 15  1  0
 15 16  1  0
 16 20  1  0
 17 16  2  0
 18 13  1  0
 18 21  1  0
 19 18  2  0
M  END
$$$$
