VGE.pdb
     RDKit          3D

 21 20  0  0  1  0  0  0  0  0999 V2000
    8.0338  -14.1665   20.6281 C   0  0  0  0  0  0  0  0  0  0  0  0
    8.3349  -13.1764   19.5363 C   0  0  2  0  0  0  0  0  0  0  0  0
    7.0698  -12.4779   19.0542 C   0  0  0  0  0  0  0  0  0  0  0  0
    8.9537  -13.8234   18.3199 C   0  0  2  0  0  0  0  0  0  0  0  0
    8.0186  -14.7349   17.7120 N   0  0  0  0  0  0  0  0  0  0  0  0
   10.2034  -14.5171   18.6937 C   0  0  0  0  0  0  0  0  0  0  0  0
   10.1896  -15.7828   18.6318 O   0  0  0  0  0  0  0  0  0  0  0  0
   11.3738  -13.8236   19.1046 N   0  0  0  0  0  0  0  0  0  0  0  0
   12.5261  -14.6188   19.3773 C   0  0  0  0  0  0  0  0  0  0  0  0
   12.4501  -15.3562   20.6637 C   0  0  0  0  0  0  0  0  0  0  0  0
   11.6115  -15.0787   21.5548 O   0  0  0  0  0  0  0  0  0  0  0  0
   13.3547  -16.4130   20.8999 N   0  0  0  0  0  0  0  0  0  0  0  0
   13.3633  -17.2070   22.1613 C   0  0  1  0  0  0  0  0  0  0  0  0
   14.0778  -18.4600   21.8234 C   0  0  0  0  0  0  0  0  0  0  0  0
   14.3025  -19.3768   22.9647 C   0  0  0  0  0  0  0  0  0  0  0  0
   15.0753  -20.5654   22.5551 C   0  0  0  0  0  0  0  0  0  0  0  0
   15.4146  -20.6928   21.3538 O   0  0  0  0  0  0  0  0  0  0  0  0
   13.8480  -16.3993   23.2603 C   0  0  0  0  0  0  0  0  0  0  0  0
   14.5379  -15.3633   23.0403 O   0  0  0  0  0  0  0  0  0  0  0  0
   15.4423  -21.5534   23.4554 O   0  0  0  0  0  0  0  0  0  0  0  0
   13.5856  -16.7146   24.5835 O   0  0  0  0  0  0  0  0  0  0  0  0
  2  4  1  0
  2  1  1  1
  3  2  1  0
  4  5  1  1
  6  4  1  0
  7  6  2  0
  8  6  1  0
  9 10  1  0
  9  8  1  0
 10 12  1  0
 11 10  2  0
 12 13  1  0
 13 14  1  6
 14 15  1  0
 15 16  1  0
 16 20  1  0
 17 16  2  0
 18 13  1  0
 18 21  1  0
 19 18  2  0
M  END
$$$$
