VGE.pdb
     RDKit          3D

 21 20  0  0  1  0  0  0  0  0999 V2000
    7.6550  -12.4248   26.7318 C   0  0  0  0  0  0  0  0  0  0  0  0
    6.6845  -12.0116   25.6591 C   0  0  2  0  0  0  0  0  0  0  0  0
    5.6091  -11.0835   26.2092 C   0  0  0  0  0  0  0  0  0  0  0  0
    5.9600  -13.1871   25.0472 C   0  0  2  0  0  0  0  0  0  0  0  0
    5.3070  -13.9577   26.0742 N   0  0  0  0  0  0  0  0  0  0  0  0
    6.9053  -14.0223   24.2782 C   0  0  0  0  0  0  0  0  0  0  0  0
    7.4876  -13.4656   23.2999 O   0  0  0  0  0  0  0  0  0  0  0  0
    7.1653  -15.3822   24.5987 N   0  0  0  0  0  0  0  0  0  0  0  0
    7.9807  -16.1108   23.6829 C   0  0  0  0  0  0  0  0  0  0  0  0
    9.4203  -16.1223   24.0462 C   0  0  0  0  0  0  0  0  0  0  0  0
   10.2102  -15.2063   23.7125 O   0  0  0  0  0  0  0  0  0  0  0  0
    9.9269  -17.2043   24.7968 N   0  0  0  0  0  0  0  0  0  0  0  0
   11.3783  -17.3827   25.0851 C   0  0  1  0  0  0  0  0  0  0  0  0
   11.4382  -18.4336   26.1276 C   0  0  0  0  0  0  0  0  0  0  0  0
   10.7138  -18.1125   27.3789 C   0  0  0  0  0  0  0  0  0  0  0  0
   10.8205  -19.2111   28.3586 C   0  0  0  0  0  0  0  0  0  0  0  0
   11.9425  -19.4931   28.8446 O   0  0  0  0  0  0  0  0  0  0  0  0
   12.1153  -17.5749   23.8543 C   0  0  0  0  0  0  0  0  0  0  0  0
   11.5401  -18.0336   22.8264 O   0  0  0  0  0  0  0  0  0  0  0  0
    9.7188  -19.9480   28.7640 O   0  0  0  0  0  0  0  0  0  0  0  0
   13.4625  -17.2719   23.7423 O   0  0  0  0  0  0  0  0  0  0  0  0
  2  4  1  0
  2  1  1  1
  3  2  1  0
  4  5  1  1
  6  4  1  0
  7  6  2  0
  8  6  1  0
  9 10  1  0
  9  8  1  0
 10 12  1  0
 11 10  2  0
 12 13  1  0
 13 14  1  1
 14 15  1  0
 15 16  1  0
 16 20  1  0
 17 16  2  0
 18 13  1  0
 18 21  1  0
 19 18  2  0
M  END
$$$$
