VGE.pdb
     RDKit          3D

 21 20  0  0  1  0  0  0  0  0999 V2000
    6.5200  -13.8922   19.8906 C   0  0  0  0  0  0  0  0  0  0  0  0
    7.6991  -13.2042   20.5228 C   0  0  2  0  0  0  0  0  0  0  0  0
    8.6011  -12.5685   19.4727 C   0  0  0  0  0  0  0  0  0  0  0  0
    8.5691  -14.1522   21.3137 C   0  0  2  0  0  0  0  0  0  0  0  0
    9.0081  -15.2393   20.4768 N   0  0  0  0  0  0  0  0  0  0  0  0
    7.8330  -14.6544   22.4921 C   0  0  0  0  0  0  0  0  0  0  0  0
    7.6219  -13.8233   23.4253 O   0  0  0  0  0  0  0  0  0  0  0  0
    7.3748  -15.9955   22.5976 N   0  0  0  0  0  0  0  0  0  0  0  0
    6.7057  -16.3497   23.8064 C   0  0  0  0  0  0  0  0  0  0  0  0
    7.5926  -16.9833   24.8145 C   0  0  0  0  0  0  0  0  0  0  0  0
    7.1617  -17.7510   25.7085 O   0  0  0  0  0  0  0  0  0  0  0  0
    8.9772  -16.7153   24.7710 N   0  0  0  0  0  0  0  0  0  0  0  0
    9.9666  -17.4140   25.6396 C   0  0  1  0  0  0  0  0  0  0  0  0
   11.2916  -17.0432   25.0905 C   0  0  0  0  0  0  0  0  0  0  0  0
   11.5564  -17.5315   23.7175 C   0  0  0  0  0  0  0  0  0  0  0  0
   12.8669  -17.0652   23.2247 C   0  0  0  0  0  0  0  0  0  0  0  0
   13.8091  -16.9104   24.0388 O   0  0  0  0  0  0  0  0  0  0  0  0
    9.6874  -17.1472   27.0346 C   0  0  0  0  0  0  0  0  0  0  0  0
    9.0972  -16.0840   27.3794 O   0  0  0  0  0  0  0  0  0  0  0  0
   13.0965  -16.7897   21.8858 O   0  0  0  0  0  0  0  0  0  0  0  0
   10.0461  -18.0265   28.0433 O   0  0  0  0  0  0  0  0  0  0  0  0
  2  4  1  0
  2  1  1  6
  3  2  1  0
  4  5  1  6
  6  4  1  0
  7  6  2  0
  8  6  1  0
  9 10  1  0
  9  8  1  0
 10 12  1  0
 11 10  2  0
 12 13  1  0
 13 14  1  6
 14 15  1  0
 15 16  1  0
 16 20  1  0
 17 16  2  0
 18 13  1  0
 18 21  1  0
 19 18  2  0
M  END
$$$$
