VGE.pdb
     RDKit          3D

 21 20  0  0  1  0  0  0  0  0999 V2000
    8.2256  -13.0606   21.3330 C   0  0  0  0  0  0  0  0  0  0  0  0
    8.2535  -13.1664   19.8326 C   0  0  2  0  0  0  0  0  0  0  0  0
    7.1563  -12.3237   19.1950 C   0  0  0  0  0  0  0  0  0  0  0  0
    8.0413  -14.5804   19.3461 C   0  0  2  0  0  0  0  0  0  0  0  0
    6.8439  -15.1314   19.9270 N   0  0  0  0  0  0  0  0  0  0  0  0
    9.2188  -15.4116   19.6707 C   0  0  0  0  0  0  0  0  0  0  0  0
   10.2807  -15.1679   19.0234 O   0  0  0  0  0  0  0  0  0  0  0  0
    9.1877  -16.4374   20.6537 N   0  0  0  0  0  0  0  0  0  0  0  0
   10.4197  -17.1044   20.9216 C   0  0  0  0  0  0  0  0  0  0  0  0
   11.0524  -16.6954   22.2010 C   0  0  0  0  0  0  0  0  0  0  0  0
   10.6789  -15.6885   22.8497 O   0  0  0  0  0  0  0  0  0  0  0  0
   12.1174  -17.4661   22.7136 N   0  0  0  0  0  0  0  0  0  0  0  0
   12.7541  -17.1938   24.0334 C   0  0  1  0  0  0  0  0  0  0  0  0
   12.8944  -18.5216   24.6752 C   0  0  0  0  0  0  0  0  0  0  0  0
   13.2339  -18.4848   26.1163 C   0  0  0  0  0  0  0  0  0  0  0  0
   13.3908  -19.8453   26.6664 C   0  0  0  0  0  0  0  0  0  0  0  0
   12.4527  -20.6693   26.5425 O   0  0  0  0  0  0  0  0  0  0  0  0
   13.9326  -16.3710   23.8625 C   0  0  0  0  0  0  0  0  0  0  0  0
   14.4789  -16.2592   22.7282 O   0  0  0  0  0  0  0  0  0  0  0  0
   14.5448  -20.2486   27.3198 O   0  0  0  0  0  0  0  0  0  0  0  0
   14.5107  -15.6775   24.9134 O   0  0  0  0  0  0  0  0  0  0  0  0
  2  4  1  0
  2  1  1  1
  3  2  1  0
  4  5  1  1
  6  4  1  0
  7  6  2  0
  8  6  1  0
  9 10  1  0
  9  8  1  0
 10 12  1  0
 11 10  2  0
 12 13  1  0
 13 14  1  6
 14 15  1  0
 15 16  1  0
 16 20  1  0
 17 16  2  0
 18 13  1  0
 18 21  1  0
 19 18  2  0
M  END
$$$$
