VGE.pdb
     RDKit          3D

 21 20  0  0  1  0  0  0  0  0999 V2000
    7.4377  -12.4179   18.4433 C   0  0  0  0  0  0  0  0  0  0  0  0
    8.0397  -13.4446   19.3635 C   0  0  2  0  0  0  0  0  0  0  0  0
    7.8005  -13.0898   20.8255 C   0  0  0  0  0  0  0  0  0  0  0  0
    9.5355  -13.5695   19.1950 C   0  0  2  0  0  0  0  0  0  0  0  0
    9.8552  -13.9127   17.8330 N   0  0  0  0  0  0  0  0  0  0  0  0
   10.0704  -14.5761   20.1348 C   0  0  0  0  0  0  0  0  0  0  0  0
    9.9271  -14.3313   21.3699 O   0  0  0  0  0  0  0  0  0  0  0  0
   10.7164  -15.7653   19.7011 N   0  0  0  0  0  0  0  0  0  0  0  0
   11.1324  -16.6748   20.7180 C   0  0  0  0  0  0  0  0  0  0  0  0
   12.2434  -16.1611   21.5584 C   0  0  0  0  0  0  0  0  0  0  0  0
   12.9200  -15.1524   21.2437 O   0  0  0  0  0  0  0  0  0  0  0  0
   12.5562  -16.8299   22.7608 N   0  0  0  0  0  0  0  0  0  0  0  0
   13.7032  -16.4424   23.6300 C   0  0  1  0  0  0  0  0  0  0  0  0
   13.6158  -17.3386   24.8064 C   0  0  0  0  0  0  0  0  0  0  0  0
   12.3552  -17.2351   25.5768 C   0  0  0  0  0  0  0  0  0  0  0  0
   12.3329  -18.1901   26.7017 C   0  0  0  0  0  0  0  0  0  0  0  0
   12.5476  -17.7727   27.8654 O   0  0  0  0  0  0  0  0  0  0  0  0
   14.9293  -16.4141   22.8612 C   0  0  0  0  0  0  0  0  0  0  0  0
   15.0779  -17.1729   21.8613 O   0  0  0  0  0  0  0  0  0  0  0  0
   12.0820  -19.5409   26.5182 O   0  0  0  0  0  0  0  0  0  0  0  0
   15.9819  -15.5701   23.1761 O   0  0  0  0  0  0  0  0  0  0  0  0
  2  4  1  0
  2  1  1  6
  3  2  1  0
  4  5  1  6
  6  4  1  0
  7  6  2  0
  8  6  1  0
  9 10  1  0
  9  8  1  0
 10 12  1  0
 11 10  2  0
 12 13  1  0
 13 14  1  1
 14 15  1  0
 15 16  1  0
 16 20  1  0
 17 16  2  0
 18 13  1  0
 18 21  1  0
 19 18  2  0
M  END
$$$$
