STY.pdb
     RDKit          3D

 26 26  0  0  1  0  0  0  0  0999 V2000
   10.3770  -12.5534   20.0173 O   0  0  0  0  0  0  0  0  0  0  0  0
   10.2566  -13.6725   19.1614 C   0  0  0  0  0  0  0  0  0  0  0  0
    8.7672  -13.9427   18.9117 C   0  0  2  0  0  0  0  0  0  0  0  0
    8.1377  -12.6739   18.6297 N   0  0  0  0  0  0  0  0  0  0  0  0
    8.2340  -14.4338   20.2241 C   0  0  0  0  0  0  0  0  0  0  0  0
    7.3875  -13.7806   20.8747 O   0  0  0  0  0  0  0  0  0  0  0  0
    6.6695  -18.0863   20.7776 C   0  0  0  0  0  0  0  0  0  0  0  0
    7.7908  -17.7954   21.7680 C   0  0  1  0  0  0  0  0  0  0  0  0
    8.8805  -18.6146   21.5778 O   0  0  0  0  0  0  0  0  0  0  0  0
    8.0763  -16.3535   21.8821 C   0  0  2  0  0  0  0  0  0  0  0  0
    8.6489  -15.6584   20.8101 N   0  0  0  0  0  0  0  0  0  0  0  0
    8.9401  -16.1411   23.0856 C   0  0  0  0  0  0  0  0  0  0  0  0
   10.1292  -15.7939   22.8760 O   0  0  0  0  0  0  0  0  0  0  0  0
    5.9645  -10.6387   26.1227 O   0  0  0  0  0  0  0  0  0  0  0  0
    6.5889  -11.8758   26.2723 C   0  0  0  0  0  0  0  0  0  0  0  0
    5.8463  -13.0369   26.2899 C   0  0  0  0  0  0  0  0  0  0  0  0
    6.4663  -14.2559   26.4376 C   0  0  0  0  0  0  0  0  0  0  0  0
    7.8575  -14.3703   26.5746 C   0  0  0  0  0  0  0  0  0  0  0  0
    8.4763  -15.6935   26.7602 C   0  0  0  0  0  0  0  0  0  0  0  0
    9.3083  -16.0541   25.5851 C   0  0  2  0  0  0  0  0  0  0  0  0
    8.4972  -16.3066   24.3991 N   0  0  0  0  0  0  0  0  0  0  0  0
   10.0851  -17.2747   25.8484 C   0  0  0  0  0  0  0  0  0  0  0  0
   11.1401  -17.2779   26.7345 O   0  0  0  0  0  0  0  0  0  0  0  0
    8.5554  -13.1703   26.5504 C   0  0  0  0  0  0  0  0  0  0  0  0
    7.9523  -11.9472   26.4037 C   0  0  0  0  0  0  0  0  0  0  0  0
    9.7898  -18.3651   25.2477 O   0  0  0  0  0  0  0  0  0  0  0  0
  2  1  1  0
  3  4  1  1
  3  2  1  0
  5  3  1  0
  6  5  2  0
  8  7  1  6
  8 10  1  0
  9  8  1  0
 10 12  1  0
 10 11  1  6
 11  5  1  0
 12 21  1  0
 13 12  2  0
 15 14  1  0
 16 15  2  0
 17 16  1  0
 18 17  2  0
 18 24  1  0
 19 18  1  0
 20 19  1  1
 20 22  1  0
 21 20  1  0
 22 26  2  0
 22 23  1  0
 24 25  2  0
 25 15  1  0
M  END
$$$$
