STY.pdb
     RDKit          3D

 26 26  0  0  1  0  0  0  0  0999 V2000
   10.7496  -14.7978   16.5838 O   0  0  0  0  0  0  0  0  0  0  0  0
    9.6174  -15.6242   16.3984 C   0  0  0  0  0  0  0  0  0  0  0  0
    8.3646  -14.8428   16.8155 C   0  0  2  0  0  0  0  0  0  0  0  0
    8.6706  -13.4366   16.6947 N   0  0  0  0  0  0  0  0  0  0  0  0
    8.1826  -15.1457   18.2725 C   0  0  0  0  0  0  0  0  0  0  0  0
    8.3483  -14.2697   19.1510 O   0  0  0  0  0  0  0  0  0  0  0  0
    5.4365  -18.0237   19.9168 C   0  0  0  0  0  0  0  0  0  0  0  0
    6.8936  -18.1002   20.3570 C   0  0  1  0  0  0  0  0  0  0  0  0
    7.4995  -19.2690   19.9551 O   0  0  0  0  0  0  0  0  0  0  0  0
    7.6309  -16.8562   20.0695 C   0  0  2  0  0  0  0  0  0  0  0  0
    7.8143  -16.4316   18.7480 N   0  0  0  0  0  0  0  0  0  0  0  0
    8.9770  -16.9495   20.7167 C   0  0  0  0  0  0  0  0  0  0  0  0
    9.9500  -17.2117   19.9663 O   0  0  0  0  0  0  0  0  0  0  0  0
   13.1878  -13.3050   18.0885 O   0  0  0  0  0  0  0  0  0  0  0  0
   12.6686  -13.8333   19.2692 C   0  0  0  0  0  0  0  0  0  0  0  0
   11.4152  -13.4650   19.7089 C   0  0  0  0  0  0  0  0  0  0  0  0
   10.9063  -13.9888   20.8747 C   0  0  0  0  0  0  0  0  0  0  0  0
   11.6271  -14.9049   21.6546 C   0  0  0  0  0  0  0  0  0  0  0  0
   11.0556  -15.4176   22.9111 C   0  0  0  0  0  0  0  0  0  0  0  0
   10.5089  -16.7844   22.7208 C   0  0  2  0  0  0  0  0  0  0  0  0
    9.1973  -16.7634   22.0825 N   0  0  0  0  0  0  0  0  0  0  0  0
   10.3529  -17.4703   24.0123 C   0  0  0  0  0  0  0  0  0  0  0  0
   11.4428  -17.7922   24.7911 O   0  0  0  0  0  0  0  0  0  0  0  0
   12.8825  -15.2400   21.1654 C   0  0  0  0  0  0  0  0  0  0  0  0
   13.4040  -14.7270   20.0052 C   0  0  0  0  0  0  0  0  0  0  0  0
    9.1869  -17.7847   24.4349 O   0  0  0  0  0  0  0  0  0  0  0  0
  2  1  1  0
  3  4  1  1
  3  2  1  0
  5  3  1  0
  6  5  2  0
  8  7  1  6
  8 10  1  0
  9  8  1  0
 10 12  1  0
 10 11  1  6
 11  5  1  0
 12 21  1  0
 13 12  2  0
 15 14  1  0
 16 15  2  0
 17 16  1  0
 18 17  2  0
 18 24  1  0
 19 18  1  0
 20 19  1  1
 20 22  1  0
 21 20  1  0
 22 26  2  0
 22 23  1  0
 24 25  2  0
 25 15  1  0
M  END
$$$$
