STY.pdb
     RDKit          3D

 26 26  0  0  1  0  0  0  0  0999 V2000
    5.2635  -18.6008   24.6354 O   0  0  0  0  0  0  0  0  0  0  0  0
    5.4352  -19.3604   23.4551 C   0  0  0  0  0  0  0  0  0  0  0  0
    5.1648  -18.4568   22.2451 C   0  0  2  0  0  0  0  0  0  0  0  0
    4.6339  -19.2900   21.1918 N   0  0  0  0  0  0  0  0  0  0  0  0
    6.5157  -17.9754   21.8077 C   0  0  0  0  0  0  0  0  0  0  0  0
    7.3848  -18.7642   21.3731 O   0  0  0  0  0  0  0  0  0  0  0  0
    7.9427  -15.5911   19.0556 C   0  0  0  0  0  0  0  0  0  0  0  0
    8.1766  -15.0028   20.4420 C   0  0  1  0  0  0  0  0  0  0  0  0
    7.4323  -13.8653   20.6586 O   0  0  0  0  0  0  0  0  0  0  0  0
    8.1181  -16.0266   21.5012 C   0  0  2  0  0  0  0  0  0  0  0  0
    6.8951  -16.6083   21.8566 N   0  0  0  0  0  0  0  0  0  0  0  0
    8.7360  -15.4557   22.7389 C   0  0  0  0  0  0  0  0  0  0  0  0
    8.5538  -14.2307   22.9505 O   0  0  0  0  0  0  0  0  0  0  0  0
    5.6625  -11.4637   26.4973 O   0  0  0  0  0  0  0  0  0  0  0  0
    6.5349  -12.5457   26.3937 C   0  0  0  0  0  0  0  0  0  0  0  0
    7.8980  -12.3552   26.4685 C   0  0  0  0  0  0  0  0  0  0  0  0
    8.7558  -13.4257   26.3660 C   0  0  0  0  0  0  0  0  0  0  0  0
    8.2902  -14.7362   26.1839 C   0  0  0  0  0  0  0  0  0  0  0  0
    9.2454  -15.8487   26.0495 C   0  0  0  0  0  0  0  0  0  0  0  0
   10.1051  -15.6619   24.8540 C   0  0  2  0  0  0  0  0  0  0  0  0
    9.4875  -16.2024   23.6480 N   0  0  0  0  0  0  0  0  0  0  0  0
   11.3958  -16.3456   25.0252 C   0  0  0  0  0  0  0  0  0  0  0  0
   12.3094  -15.9301   25.9692 O   0  0  0  0  0  0  0  0  0  0  0  0
    6.9100  -14.8699   26.1153 C   0  0  0  0  0  0  0  0  0  0  0  0
    6.0416  -13.8131   26.2159 C   0  0  0  0  0  0  0  0  0  0  0  0
   11.6937  -17.3478   24.2878 O   0  0  0  0  0  0  0  0  0  0  0  0
  2  1  1  0
  3  4  1  6
  3  2  1  0
  5  3  1  0
  6  5  2  0
  8  7  1  6
  8 10  1  0
  9  8  1  0
 10 12  1  0
 10 11  1  1
 11  5  1  0
 12 21  1  0
 13 12  2  0
 15 14  1  0
 16 15  2  0
 17 16  1  0
 18 17  2  0
 18 24  1  0
 19 18  1  0
 20 19  1  1
 20 22  1  0
 21 20  1  0
 22 26  2  0
 22 23  1  0
 24 25  2  0
 25 15  1  0
M  END
$$$$
