STY.pdb
     RDKit          3D

 26 26  0  0  1  0  0  0  0  0999 V2000
    9.2562  -11.3470   18.3196 O   0  0  0  0  0  0  0  0  0  0  0  0
    8.5487  -12.3553   19.0141 C   0  0  0  0  0  0  0  0  0  0  0  0
    8.6756  -13.6707   18.2347 C   0  0  2  0  0  0  0  0  0  0  0  0
    7.6778  -13.6542   17.1909 N   0  0  0  0  0  0  0  0  0  0  0  0
    8.2944  -14.7419   19.2121 C   0  0  0  0  0  0  0  0  0  0  0  0
    7.1043  -15.0982   19.3647 O   0  0  0  0  0  0  0  0  0  0  0  0
   10.9444  -17.8713   20.1024 C   0  0  0  0  0  0  0  0  0  0  0  0
    9.4904  -17.8393   20.5583 C   0  0  1  0  0  0  0  0  0  0  0  0
    9.2102  -18.8241   21.4783 O   0  0  0  0  0  0  0  0  0  0  0  0
    9.0440  -16.4788   20.9093 C   0  0  2  0  0  0  0  0  0  0  0  0
    9.2467  -15.4160   20.0206 N   0  0  0  0  0  0  0  0  0  0  0  0
    9.6595  -16.1082   22.2221 C   0  0  0  0  0  0  0  0  0  0  0  0
   10.8854  -15.8333   22.2161 O   0  0  0  0  0  0  0  0  0  0  0  0
   11.0257  -14.5520   30.7731 O   0  0  0  0  0  0  0  0  0  0  0  0
   10.4060  -14.8120   29.5520 C   0  0  0  0  0  0  0  0  0  0  0  0
   10.0544  -16.0991   29.2058 C   0  0  0  0  0  0  0  0  0  0  0  0
    9.4428  -16.3516   27.9997 C   0  0  0  0  0  0  0  0  0  0  0  0
    9.1546  -15.3290   27.0842 C   0  0  0  0  0  0  0  0  0  0  0  0
    8.5256  -15.6487   25.7918 C   0  0  0  0  0  0  0  0  0  0  0  0
    9.5506  -15.7780   24.7260 C   0  0  2  0  0  0  0  0  0  0  0  0
    8.9524  -16.0548   23.4246 N   0  0  0  0  0  0  0  0  0  0  0  0
   10.4772  -16.8809   25.0220 C   0  0  0  0  0  0  0  0  0  0  0  0
   10.0840  -18.1973   24.9182 O   0  0  0  0  0  0  0  0  0  0  0  0
    9.5302  -14.0535   27.4837 C   0  0  0  0  0  0  0  0  0  0  0  0
   10.1404  -13.7851   28.6824 C   0  0  0  0  0  0  0  0  0  0  0  0
   11.6773  -16.6298   25.3878 O   0  0  0  0  0  0  0  0  0  0  0  0
  2  1  1  0
  3  4  1  6
  3  2  1  0
  5  3  1  0
  6  5  2  0
  8  7  1  1
  8 10  1  0
  9  8  1  0
 10 12  1  0
 10 11  1  6
 11  5  1  0
 12 21  1  0
 13 12  2  0
 15 14  1  0
 16 15  2  0
 17 16  1  0
 18 17  2  0
 18 24  1  0
 19 18  1  0
 20 19  1  1
 20 22  1  0
 21 20  1  0
 22 26  2  0
 22 23  1  0
 24 25  2  0
 25 15  1  0
M  END
$$$$
