STY.pdb
     RDKit          3D

 26 26  0  0  1  0  0  0  0  0999 V2000
   10.4667  -12.3134   19.2475 O   0  0  0  0  0  0  0  0  0  0  0  0
   10.5330  -13.7137   19.0627 C   0  0  0  0  0  0  0  0  0  0  0  0
    9.1726  -14.2074   18.5535 C   0  0  2  0  0  0  0  0  0  0  0  0
    8.5282  -13.0971   17.8920 N   0  0  0  0  0  0  0  0  0  0  0  0
    8.3836  -14.5214   19.7892 C   0  0  0  0  0  0  0  0  0  0  0  0
    7.4108  -13.8181   20.1434 O   0  0  0  0  0  0  0  0  0  0  0  0
    6.2448  -17.5828   20.6454 C   0  0  0  0  0  0  0  0  0  0  0  0
    7.3706  -17.4745   21.6670 C   0  0  1  0  0  0  0  0  0  0  0  0
    8.2665  -18.5149   21.5685 O   0  0  0  0  0  0  0  0  0  0  0  0
    7.9526  -16.1209   21.7167 C   0  0  2  0  0  0  0  0  0  0  0  0
    8.6838  -15.6246   20.6306 N   0  0  0  0  0  0  0  0  0  0  0  0
    8.8143  -16.0261   22.9366 C   0  0  0  0  0  0  0  0  0  0  0  0
   10.0481  -15.8807   22.7495 O   0  0  0  0  0  0  0  0  0  0  0  0
    5.9933  -10.5182   26.2461 O   0  0  0  0  0  0  0  0  0  0  0  0
    6.5561  -11.7889   26.3531 C   0  0  0  0  0  0  0  0  0  0  0  0
    7.9163  -11.9655   26.2165 C   0  0  0  0  0  0  0  0  0  0  0  0
    8.4679  -13.2212   26.3229 C   0  0  0  0  0  0  0  0  0  0  0  0
    7.6850  -14.3582   26.5709 C   0  0  0  0  0  0  0  0  0  0  0  0
    8.3141  -15.6873   26.6478 C   0  0  0  0  0  0  0  0  0  0  0  0
    9.1399  -15.9485   25.4423 C   0  0  2  0  0  0  0  0  0  0  0  0
    8.3232  -16.0902   24.2418 N   0  0  0  0  0  0  0  0  0  0  0  0
    9.9090  -17.1927   25.5941 C   0  0  0  0  0  0  0  0  0  0  0  0
   10.9843  -17.2726   26.4519 O   0  0  0  0  0  0  0  0  0  0  0  0
    6.3228  -14.1225   26.6994 C   0  0  0  0  0  0  0  0  0  0  0  0
    5.7575  -12.8772   26.5961 C   0  0  0  0  0  0  0  0  0  0  0  0
    9.5878  -18.2318   24.9203 O   0  0  0  0  0  0  0  0  0  0  0  0
  2  1  1  0
  3  4  1  1
  3  2  1  0
  5  3  1  0
  6  5  2  0
  8  7  1  6
  8 10  1  0
  9  8  1  0
 10 12  1  0
 10 11  1  6
 11  5  1  0
 12 21  1  0
 13 12  2  0
 15 14  1  0
 16 15  2  0
 17 16  1  0
 18 17  2  0
 18 24  1  0
 19 18  1  0
 20 19  1  1
 20 22  1  0
 21 20  1  0
 22 26  2  0
 22 23  1  0
 24 25  2  0
 25 15  1  0
M  END
$$$$
