STY.pdb
     RDKit          3D

 26 26  0  0  1  0  0  0  0  0999 V2000
   10.5312  -19.4773   20.2132 O   0  0  0  0  0  0  0  0  0  0  0  0
    9.4047  -19.0107   19.4972 C   0  0  0  0  0  0  0  0  0  0  0  0
    9.8195  -17.7858   18.6718 C   0  0  2  0  0  0  0  0  0  0  0  0
   11.1349  -18.0485   18.1369 N   0  0  0  0  0  0  0  0  0  0  0  0
    9.9465  -16.6702   19.6654 C   0  0  0  0  0  0  0  0  0  0  0  0
   11.0493  -16.1311   19.9100 O   0  0  0  0  0  0  0  0  0  0  0  0
    7.7153  -13.1741   20.1768 C   0  0  0  0  0  0  0  0  0  0  0  0
    7.6689  -14.1661   21.3329 C   0  0  1  0  0  0  0  0  0  0  0  0
    6.4224  -14.7295   21.4873 O   0  0  0  0  0  0  0  0  0  0  0  0
    8.8057  -15.1046   21.3107 C   0  0  2  0  0  0  0  0  0  0  0  0
    8.8372  -16.1564   20.3871 N   0  0  0  0  0  0  0  0  0  0  0  0
    8.9588  -15.6870   22.6807 C   0  0  0  0  0  0  0  0  0  0  0  0
    8.6428  -16.8948   22.8220 O   0  0  0  0  0  0  0  0  0  0  0  0
    6.2131  -10.2489   26.9587 O   0  0  0  0  0  0  0  0  0  0  0  0
    6.6338  -11.5405   26.6461 C   0  0  0  0  0  0  0  0  0  0  0  0
    7.9673  -11.8804   26.7248 C   0  0  0  0  0  0  0  0  0  0  0  0
    8.3784  -13.1562   26.4156 C   0  0  0  0  0  0  0  0  0  0  0  0
    7.4752  -14.1510   26.0134 C   0  0  0  0  0  0  0  0  0  0  0  0
    7.9631  -15.4955   25.6634 C   0  0  0  0  0  0  0  0  0  0  0  0
    9.3595  -15.4344   25.1639 C   0  0  2  0  0  0  0  0  0  0  0  0
    9.4252  -14.9686   23.7830 N   0  0  0  0  0  0  0  0  0  0  0  0
    9.9888  -16.7630   25.2048 C   0  0  0  0  0  0  0  0  0  0  0  0
   10.1282  -17.4558   26.3875 O   0  0  0  0  0  0  0  0  0  0  0  0
    6.1463  -13.7539   25.9512 C   0  0  0  0  0  0  0  0  0  0  0  0
    5.7203  -12.4864   26.2563 C   0  0  0  0  0  0  0  0  0  0  0  0
   10.4241  -17.3001   24.1283 O   0  0  0  0  0  0  0  0  0  0  0  0
  2  1  1  0
  3  4  1  1
  3  2  1  0
  5  3  1  0
  6  5  2  0
  8  7  1  6
  8 10  1  0
  9  8  1  0
 10 12  1  0
 10 11  1  6
 11  5  1  0
 12 21  1  0
 13 12  2  0
 15 14  1  0
 16 15  2  0
 17 16  1  0
 18 17  2  0
 18 24  1  0
 19 18  1  0
 20 19  1  6
 20 22  1  0
 21 20  1  0
 22 26  2  0
 22 23  1  0
 24 25  2  0
 25 15  1  0
M  END
$$$$
