DLM.pdb
     RDKit          3D

 25 24  0  0  1  0  0  0  0  0999 V2000
    9.4330  -18.8107   20.4266 N   0  0  0  0  0  0  0  0  0  0  0  0
   10.6575  -18.1101   20.1198 C   0  0  1  0  0  0  0  0  0  0  0  0
   10.8489  -18.0163   18.6424 C   0  0  0  0  0  0  0  0  0  0  0  0
   11.2672  -19.3257   18.1040 C   0  0  0  0  0  0  0  0  0  0  0  0
   11.3208  -20.3079   18.8733 O   0  0  0  0  0  0  0  0  0  0  0  0
   10.5936  -16.7221   20.6737 C   0  0  0  0  0  0  0  0  0  0  0  0
   11.6230  -15.9860   20.6426 O   0  0  0  0  0  0  0  0  0  0  0  0
   11.5874  -19.4428   16.7802 O   0  0  0  0  0  0  0  0  0  0  0  0
    6.1111  -13.3766   20.2399 C   0  0  0  0  0  0  0  0  0  0  0  0
    7.5628  -13.8315   20.2970 C   0  0  1  0  0  0  0  0  0  0  0  0
    8.4198  -12.8170   19.6331 C   0  0  0  0  0  0  0  0  0  0  0  0
    7.9616  -14.2426   21.6583 C   0  0  0  0  0  0  0  0  0  0  0  0
    9.2914  -14.8959   21.7929 C   0  0  2  0  0  0  0  0  0  0  0  0
    9.3980  -16.2017   21.2400 N   0  0  0  0  0  0  0  0  0  0  0  0
    9.7359  -14.8983   23.2327 C   0  0  0  0  0  0  0  0  0  0  0  0
    9.8527  -13.8411   23.8905 O   0  0  0  0  0  0  0  0  0  0  0  0
    8.3834  -12.9784   27.7464 C   0  0  0  0  0  0  0  0  0  0  0  0
    9.6435  -14.1717   28.2698 S   0  0  0  0  0  0  0  0  0  0  0  0
    9.2888  -15.8208   27.6225 C   0  0  0  0  0  0  0  0  0  0  0  0
    9.0337  -15.7736   26.1154 C   0  0  0  0  0  0  0  0  0  0  0  0
   10.2515  -16.1574   25.3426 C   0  0  2  0  0  0  0  0  0  0  0  0
   10.0439  -16.1128   23.9099 N   0  0  0  0  0  0  0  0  0  0  0  0
   10.6753  -17.5089   25.7912 C   0  0  0  0  0  0  0  0  0  0  0  0
   10.5844  -18.4611   24.9755 O   0  0  0  0  0  0  0  0  0  0  0  0
   11.1609  -17.7497   27.0638 O   0  0  0  0  0  0  0  0  0  0  0  0
  2  1  1  6
  2  3  1  0
  2  6  1  0
  4  8  1  0
  4  3  1  0
  5  4  2  0
  6  7  2  0
 10  9  1  1
 10 11  1  0
 12 10  1  0
 13 12  1  1
 14 13  1  0
 14  6  1  0
 15 13  1  0
 15 22  1  0
 16 15  2  0
 17 18  1  0
 18 19  1  0
 19 20  1  0
 21 22  1  0
 21 20  1  1
 23 21  1  0
 24 23  2  0
 25 23  1  0
M  END
$$$$
