DLM.pdb
     RDKit          3D

 25 24  0  0  1  0  0  0  0  0999 V2000
    8.9858  -18.9127   19.8537 N   0  0  0  0  0  0  0  0  0  0  0  0
   10.3497  -18.4609   19.7113 C   0  0  1  0  0  0  0  0  0  0  0  0
   10.7228  -18.3745   18.2686 C   0  0  0  0  0  0  0  0  0  0  0  0
   10.7598  -19.7259   17.6756 C   0  0  0  0  0  0  0  0  0  0  0  0
   10.5619  -20.7158   18.4108 O   0  0  0  0  0  0  0  0  0  0  0  0
   10.4929  -17.1000   20.3152 C   0  0  0  0  0  0  0  0  0  0  0  0
   11.5711  -16.4550   20.1604 O   0  0  0  0  0  0  0  0  0  0  0  0
   11.0085  -19.8728   16.3394 O   0  0  0  0  0  0  0  0  0  0  0  0
    6.2065  -13.4484   20.9932 C   0  0  0  0  0  0  0  0  0  0  0  0
    7.6071  -13.9667   20.6978 C   0  0  1  0  0  0  0  0  0  0  0  0
    8.3606  -12.9355   19.9406 C   0  0  0  0  0  0  0  0  0  0  0  0
    8.2631  -14.5095   21.9046 C   0  0  0  0  0  0  0  0  0  0  0  0
    9.5454  -15.2342   21.6953 C   0  0  2  0  0  0  0  0  0  0  0  0
    9.4423  -16.5052   21.0658 N   0  0  0  0  0  0  0  0  0  0  0  0
   10.3041  -15.3513   22.9920 C   0  0  0  0  0  0  0  0  0  0  0  0
   11.3039  -14.6421   23.2397 O   0  0  0  0  0  0  0  0  0  0  0  0
    9.6154  -12.3578   27.6337 C   0  0  0  0  0  0  0  0  0  0  0  0
    9.8434  -13.8741   28.6005 S   0  0  0  0  0  0  0  0  0  0  0  0
   10.5361  -15.1976   27.5842 C   0  0  0  0  0  0  0  0  0  0  0  0
    9.8376  -15.2665   26.2255 C   0  0  0  0  0  0  0  0  0  0  0  0
   10.4911  -16.2608   25.3245 C   0  0  2  0  0  0  0  0  0  0  0  0
    9.9119  -16.2810   23.9972 N   0  0  0  0  0  0  0  0  0  0  0  0
   10.4121  -17.5942   25.9752 C   0  0  0  0  0  0  0  0  0  0  0  0
   10.8743  -17.7160   27.1379 O   0  0  0  0  0  0  0  0  0  0  0  0
    9.8524  -18.6932   25.3490 O   0  0  0  0  0  0  0  0  0  0  0  0
  2  1  1  6
  2  3  1  0
  2  6  1  0
  4  8  1  0
  4  3  1  0
  5  4  2  0
  6  7  2  0
 10  9  1  1
 10 11  1  0
 12 10  1  0
 13 12  1  1
 14 13  1  0
 14  6  1  0
 15 13  1  0
 15 22  1  0
 16 15  2  0
 17 18  1  0
 18 19  1  0
 19 20  1  0
 21 22  1  0
 21 20  1  1
 23 21  1  0
 24 23  2  0
 25 23  1  0
M  END
$$$$
