DLM.pdb
     RDKit          3D

 25 24  0  0  1  0  0  0  0  0999 V2000
   10.3479  -19.0987   20.1975 N   0  0  0  0  0  0  0  0  0  0  0  0
   11.5032  -18.2513   20.3756 C   0  0  1  0  0  0  0  0  0  0  0  0
   12.2829  -18.1586   19.1061 C   0  0  0  0  0  0  0  0  0  0  0  0
   12.8780  -19.4704   18.7830 C   0  0  0  0  0  0  0  0  0  0  0  0
   13.6951  -19.9778   19.5795 O   0  0  0  0  0  0  0  0  0  0  0  0
   11.0611  -16.8740   20.7563 C   0  0  0  0  0  0  0  0  0  0  0  0
   11.9253  -15.9734   20.9675 O   0  0  0  0  0  0  0  0  0  0  0  0
   12.5281  -20.1060   17.6244 O   0  0  0  0  0  0  0  0  0  0  0  0
    8.3168  -12.5279   20.5154 C   0  0  0  0  0  0  0  0  0  0  0  0
    7.4085  -13.5320   21.2114 C   0  0  1  0  0  0  0  0  0  0  0  0
    5.9926  -13.2005   20.9118 C   0  0  0  0  0  0  0  0  0  0  0  0
    7.8272  -14.9257   20.9588 C   0  0  0  0  0  0  0  0  0  0  0  0
    9.2167  -15.2840   21.3512 C   0  0  2  0  0  0  0  0  0  0  0  0
    9.6845  -16.5450   20.8894 N   0  0  0  0  0  0  0  0  0  0  0  0
    9.3890  -15.1756   22.8442 C   0  0  0  0  0  0  0  0  0  0  0  0
   10.1208  -14.3048   23.3640 O   0  0  0  0  0  0  0  0  0  0  0  0
    7.4255  -11.1173   27.0623 C   0  0  0  0  0  0  0  0  0  0  0  0
    6.9654  -12.8592   26.8627 S   0  0  0  0  0  0  0  0  0  0  0  0
    8.2539  -13.7783   25.9913 C   0  0  0  0  0  0  0  0  0  0  0  0
    7.8969  -15.2622   25.8945 C   0  0  0  0  0  0  0  0  0  0  0  0
    8.9466  -16.0305   25.1629 C   0  0  2  0  0  0  0  0  0  0  0  0
    8.7212  -16.0662   23.7327 N   0  0  0  0  0  0  0  0  0  0  0  0
    9.0041  -17.3979   25.7411 C   0  0  0  0  0  0  0  0  0  0  0  0
    9.2400  -17.5136   26.9704 O   0  0  0  0  0  0  0  0  0  0  0  0
    8.8085  -18.5348   24.9779 O   0  0  0  0  0  0  0  0  0  0  0  0
  2  1  1  6
  2  3  1  0
  2  6  1  0
  4  8  1  0
  4  3  1  0
  5  4  2  0
  6  7  2  0
 10  9  1  6
 10 11  1  0
 12 10  1  0
 13 12  1  1
 14 13  1  0
 14  6  1  0
 15 13  1  0
 15 22  1  0
 16 15  2  0
 17 18  1  0
 18 19  1  0
 19 20  1  0
 21 22  1  0
 21 20  1  1
 23 21  1  0
 24 23  2  0
 25 23  1  0
M  END
$$$$
