DLM.pdb
     RDKit          3D

 25 24  0  0  1  0  0  0  0  0999 V2000
    8.8855  -18.8220   20.5521 N   0  0  0  0  0  0  0  0  0  0  0  0
   10.2039  -18.3125   20.2574 C   0  0  1  0  0  0  0  0  0  0  0  0
   10.3942  -18.1791   18.7829 C   0  0  0  0  0  0  0  0  0  0  0  0
   10.7256  -19.4927   18.1964 C   0  0  0  0  0  0  0  0  0  0  0  0
    9.8263  -20.3524   18.0887 O   0  0  0  0  0  0  0  0  0  0  0  0
   10.3691  -16.9607   20.8760 C   0  0  0  0  0  0  0  0  0  0  0  0
   11.4705  -16.3475   20.7596 O   0  0  0  0  0  0  0  0  0  0  0  0
   12.0035  -19.7468   17.7827 O   0  0  0  0  0  0  0  0  0  0  0  0
    6.2590  -13.3114   20.7295 C   0  0  0  0  0  0  0  0  0  0  0  0
    7.6613  -13.9035   20.7037 C   0  0  1  0  0  0  0  0  0  0  0  0
    8.5352  -13.0545   19.8553 C   0  0  0  0  0  0  0  0  0  0  0  0
    8.1575  -14.2121   22.0602 C   0  0  0  0  0  0  0  0  0  0  0  0
    9.3978  -15.0292   22.1446 C   0  0  2  0  0  0  0  0  0  0  0  0
    9.3140  -16.3394   21.5983 N   0  0  0  0  0  0  0  0  0  0  0  0
    9.8989  -15.0842   23.5646 C   0  0  0  0  0  0  0  0  0  0  0  0
   10.0689  -14.0497   24.2466 O   0  0  0  0  0  0  0  0  0  0  0  0
    9.0554  -13.1369   28.0408 C   0  0  0  0  0  0  0  0  0  0  0  0
   10.1975  -14.4576   28.5280 S   0  0  0  0  0  0  0  0  0  0  0  0
    9.6225  -16.0666   27.9406 C   0  0  0  0  0  0  0  0  0  0  0  0
    9.2927  -16.0180   26.4481 C   0  0  0  0  0  0  0  0  0  0  0  0
   10.4659  -16.4162   25.6158 C   0  0  2  0  0  0  0  0  0  0  0  0
   10.2022  -16.3250   24.1946 N   0  0  0  0  0  0  0  0  0  0  0  0
   10.8651  -17.7919   26.0101 C   0  0  0  0  0  0  0  0  0  0  0  0
   11.1960  -17.9947   27.2058 O   0  0  0  0  0  0  0  0  0  0  0  0
   10.8840  -18.8447   25.1131 O   0  0  0  0  0  0  0  0  0  0  0  0
  2  1  1  6
  2  3  1  0
  2  6  1  0
  4  8  1  0
  4  3  1  0
  5  4  2  0
  6  7  2  0
 10  9  1  1
 10 11  1  0
 12 10  1  0
 13 12  1  1
 14 13  1  0
 14  6  1  0
 15 13  1  0
 15 22  1  0
 16 15  2  0
 17 18  1  0
 18 19  1  0
 19 20  1  0
 21 22  1  0
 21 20  1  1
 23 21  1  0
 24 23  2  0
 25 23  1  0
M  END
$$$$
