DLM.pdb
     RDKit          3D

 25 24  0  0  1  0  0  0  0  0999 V2000
    9.8007  -18.2273   18.7056 N   0  0  0  0  0  0  0  0  0  0  0  0
   11.0678  -17.8183   19.2639 C   0  0  1  0  0  0  0  0  0  0  0  0
   11.9447  -17.2430   18.2018 C   0  0  0  0  0  0  0  0  0  0  0  0
   12.7299  -18.3160   17.5603 C   0  0  0  0  0  0  0  0  0  0  0  0
   12.5368  -19.4994   17.9092 O   0  0  0  0  0  0  0  0  0  0  0  0
   10.8416  -16.7684   20.3051 C   0  0  0  0  0  0  0  0  0  0  0  0
   11.8219  -16.3238   20.9713 O   0  0  0  0  0  0  0  0  0  0  0  0
   13.6505  -18.0004   16.6003 O   0  0  0  0  0  0  0  0  0  0  0  0
    6.3191  -13.3919   19.9567 C   0  0  0  0  0  0  0  0  0  0  0  0
    7.7453  -13.9090   20.0845 C   0  0  1  0  0  0  0  0  0  0  0  0
    8.6908  -12.8466   19.6583 C   0  0  0  0  0  0  0  0  0  0  0  0
    7.9956  -14.5241   21.4038 C   0  0  0  0  0  0  0  0  0  0  0  0
    9.2758  -15.2657   21.5595 C   0  0  2  0  0  0  0  0  0  0  0  0
    9.5441  -16.2514   20.5703 N   0  0  0  0  0  0  0  0  0  0  0  0
    9.3746  -15.8659   22.9381 C   0  0  0  0  0  0  0  0  0  0  0  0
    8.6159  -16.7859   23.3149 O   0  0  0  0  0  0  0  0  0  0  0  0
    9.7318  -13.6526   29.7805 C   0  0  0  0  0  0  0  0  0  0  0  0
    9.8588  -13.6132   27.9727 S   0  0  0  0  0  0  0  0  0  0  0  0
    8.6546  -14.7235   27.2101 C   0  0  0  0  0  0  0  0  0  0  0  0
    8.8301  -14.7605   25.6914 C   0  0  0  0  0  0  0  0  0  0  0  0
   10.0997  -15.4429   25.3042 C   0  0  2  0  0  0  0  0  0  0  0  0
   10.3428  -15.4076   23.8768 N   0  0  0  0  0  0  0  0  0  0  0  0
   10.0481  -16.8370   25.8151 C   0  0  0  0  0  0  0  0  0  0  0  0
    9.4025  -17.6887   25.1532 O   0  0  0  0  0  0  0  0  0  0  0  0
   10.6809  -17.2230   26.9830 O   0  0  0  0  0  0  0  0  0  0  0  0
  2  1  1  6
  2  3  1  0
  2  6  1  0
  4  8  1  0
  4  3  1  0
  5  4  2  0
  6  7  2  0
 10  9  1  1
 10 11  1  0
 12 10  1  0
 13 12  1  6
 14 13  1  0
 14  6  1  0
 15 13  1  0
 15 22  1  0
 16 15  2  0
 17 18  1  0
 18 19  1  0
 19 20  1  0
 21 22  1  0
 21 20  1  6
 23 21  1  0
 24 23  2  0
 25 23  1  0
M  END
$$$$
