DLM.pdb
     RDKit          3D

 25 24  0  0  1  0  0  0  0  0999 V2000
   11.1174  -18.1595   19.5291 N   0  0  0  0  0  0  0  0  0  0  0  0
   12.0425  -17.3780   20.3153 C   0  0  1  0  0  0  0  0  0  0  0  0
   13.0619  -16.7348   19.4349 C   0  0  0  0  0  0  0  0  0  0  0  0
   14.0693  -17.7305   19.0191 C   0  0  0  0  0  0  0  0  0  0  0  0
   14.3481  -18.6700   19.7933 O   0  0  0  0  0  0  0  0  0  0  0  0
   11.2997  -16.2997   21.0385 C   0  0  0  0  0  0  0  0  0  0  0  0
   11.9327  -15.4852   21.7723 O   0  0  0  0  0  0  0  0  0  0  0  0
   14.6780  -17.6104   17.8010 O   0  0  0  0  0  0  0  0  0  0  0  0
    6.5853  -13.7659   18.9978 C   0  0  0  0  0  0  0  0  0  0  0  0
    7.9504  -13.9840   19.6355 C   0  0  1  0  0  0  0  0  0  0  0  0
    8.6661  -12.6856   19.7152 C   0  0  0  0  0  0  0  0  0  0  0  0
    7.8595  -14.7647   20.8860 C   0  0  0  0  0  0  0  0  0  0  0  0
    9.1461  -15.1203   21.5428 C   0  0  2  0  0  0  0  0  0  0  0  0
    9.8894  -16.1628   20.9241 N   0  0  0  0  0  0  0  0  0  0  0  0
    8.9276  -15.4268   23.0019 C   0  0  0  0  0  0  0  0  0  0  0  0
    9.2145  -16.5401   23.4940 O   0  0  0  0  0  0  0  0  0  0  0  0
    6.3492  -11.1142   27.3222 C   0  0  0  0  0  0  0  0  0  0  0  0
    6.7861  -12.4841   28.4259 S   0  0  0  0  0  0  0  0  0  0  0  0
    7.2722  -13.9488   27.4864 C   0  0  0  0  0  0  0  0  0  0  0  0
    7.5452  -13.5948   26.0239 C   0  0  0  0  0  0  0  0  0  0  0  0
    8.0393  -14.7769   25.2584 C   0  0  2  0  0  0  0  0  0  0  0  0
    8.3815  -14.4549   23.8884 N   0  0  0  0  0  0  0  0  0  0  0  0
    7.0010  -15.8375   25.3271 C   0  0  0  0  0  0  0  0  0  0  0  0
    6.1417  -15.8877   24.4109 O   0  0  0  0  0  0  0  0  0  0  0  0
    6.9506  -16.7607   26.3559 O   0  0  0  0  0  0  0  0  0  0  0  0
  2  1  1  6
  2  3  1  0
  2  6  1  0
  4  8  1  0
  4  3  1  0
  5  4  2  0
  6  7  2  0
 10  9  1  1
 10 11  1  0
 12 10  1  0
 13 12  1  6
 14 13  1  0
 14  6  1  0
 15 13  1  0
 15 22  1  0
 16 15  2  0
 17 18  1  0
 18 19  1  0
 19 20  1  0
 21 22  1  0
 21 20  1  6
 23 21  1  0
 24 23  2  0
 25 23  1  0
M  END
$$$$
