DLM.pdb
     RDKit          3D

 25 24  0  0  1  0  0  0  0  0999 V2000
    8.2254  -17.9638   21.3222 N   0  0  0  0  0  0  0  0  0  0  0  0
    9.4855  -17.2744   21.1764 C   0  0  1  0  0  0  0  0  0  0  0  0
    9.6278  -16.7346   19.7921 C   0  0  0  0  0  0  0  0  0  0  0  0
    9.7529  -17.8456   18.8281 C   0  0  0  0  0  0  0  0  0  0  0  0
   10.2694  -18.9187   19.2040 O   0  0  0  0  0  0  0  0  0  0  0  0
    9.5438  -16.1278   22.1353 C   0  0  0  0  0  0  0  0  0  0  0  0
   10.4900  -15.2906   22.0558 O   0  0  0  0  0  0  0  0  0  0  0  0
    9.3044  -17.6845   17.5468 O   0  0  0  0  0  0  0  0  0  0  0  0
    7.8089  -11.9216   24.8841 C   0  0  0  0  0  0  0  0  0  0  0  0
    7.2636  -13.2254   25.4502 C   0  0  1  0  0  0  0  0  0  0  0  0
    5.9769  -12.9583   26.1413 C   0  0  0  0  0  0  0  0  0  0  0  0
    7.2601  -14.3074   24.4449 C   0  0  0  0  0  0  0  0  0  0  0  0
    8.5820  -14.8920   24.0926 C   0  0  2  0  0  0  0  0  0  0  0  0
    8.5573  -15.9506   23.1435 N   0  0  0  0  0  0  0  0  0  0  0  0
    9.3191  -15.3192   25.3355 C   0  0  0  0  0  0  0  0  0  0  0  0
    8.9818  -14.9243   26.4732 O   0  0  0  0  0  0  0  0  0  0  0  0
    9.3688  -13.0662   28.6738 C   0  0  0  0  0  0  0  0  0  0  0  0
   10.8103  -13.9707   29.2983 S   0  0  0  0  0  0  0  0  0  0  0  0
   11.5096  -15.0433   28.0236 C   0  0  0  0  0  0  0  0  0  0  0  0
   10.5690  -16.2084   27.7127 C   0  0  0  0  0  0  0  0  0  0  0  0
   10.9420  -16.8866   26.4366 C   0  0  2  0  0  0  0  0  0  0  0  0
   10.4388  -16.1968   25.2667 N   0  0  0  0  0  0  0  0  0  0  0  0
   10.4504  -18.2873   26.4982 C   0  0  0  0  0  0  0  0  0  0  0  0
   10.9161  -19.0416   27.3896 O   0  0  0  0  0  0  0  0  0  0  0  0
    9.5071  -18.7820   25.6157 O   0  0  0  0  0  0  0  0  0  0  0  0
  2  1  1  6
  2  3  1  0
  2  6  1  0
  4  8  1  0
  4  3  1  0
  5  4  2  0
  6  7  2  0
 10  9  1  6
 10 11  1  0
 12 10  1  0
 13 12  1  1
 14 13  1  0
 14  6  1  0
 15 13  1  0
 15 22  1  0
 16 15  2  0
 17 18  1  0
 18 19  1  0
 19 20  1  0
 21 22  1  0
 21 20  1  1
 23 21  1  0
 24 23  2  0
 25 23  1  0
M  END
$$$$
