DLM.pdb
     RDKit          3D

 25 24  0  0  1  0  0  0  0  0999 V2000
    9.7140  -19.1809   20.7620 N   0  0  0  0  0  0  0  0  0  0  0  0
   10.8573  -18.4124   20.3296 C   0  0  1  0  0  0  0  0  0  0  0  0
   10.8679  -18.2846   18.8424 C   0  0  0  0  0  0  0  0  0  0  0  0
   11.7092  -19.3440   18.2514 C   0  0  0  0  0  0  0  0  0  0  0  0
   11.4934  -19.7033   17.0750 O   0  0  0  0  0  0  0  0  0  0  0  0
   10.7900  -17.0389   20.9180 C   0  0  0  0  0  0  0  0  0  0  0  0
   11.7702  -16.2493   20.7824 O   0  0  0  0  0  0  0  0  0  0  0  0
   12.7053  -19.9121   18.9955 O   0  0  0  0  0  0  0  0  0  0  0  0
    6.1465  -13.8022   20.9792 C   0  0  0  0  0  0  0  0  0  0  0  0
    7.6133  -14.1994   20.8876 C   0  0  1  0  0  0  0  0  0  0  0  0
    8.3831  -13.0893   20.2715 C   0  0  0  0  0  0  0  0  0  0  0  0
    8.1259  -14.7258   22.1688 C   0  0  0  0  0  0  0  0  0  0  0  0
    9.5080  -15.2762   22.1561 C   0  0  2  0  0  0  0  0  0  0  0  0
    9.6455  -16.5912   21.6327 N   0  0  0  0  0  0  0  0  0  0  0  0
   10.1233  -15.1914   23.5290 C   0  0  0  0  0  0  0  0  0  0  0  0
   10.3364  -14.0950   24.0917 O   0  0  0  0  0  0  0  0  0  0  0  0
    9.7473  -12.4631   27.8935 C   0  0  0  0  0  0  0  0  0  0  0  0
    9.7790  -14.0231   28.8161 S   0  0  0  0  0  0  0  0  0  0  0  0
   10.6505  -15.3088   27.8933 C   0  0  0  0  0  0  0  0  0  0  0  0
   10.0704  -15.4609   26.4865 C   0  0  0  0  0  0  0  0  0  0  0  0
   10.9458  -16.3064   25.6226 C   0  0  2  0  0  0  0  0  0  0  0  0
   10.4907  -16.3641   24.2488 N   0  0  0  0  0  0  0  0  0  0  0  0
   11.0233  -17.6602   26.2297 C   0  0  0  0  0  0  0  0  0  0  0  0
   11.4814  -17.7629   27.3958 O   0  0  0  0  0  0  0  0  0  0  0  0
   10.6119  -18.7983   25.5597 O   0  0  0  0  0  0  0  0  0  0  0  0
  2  1  1  6
  2  3  1  0
  2  6  1  0
  4  8  1  0
  4  3  1  0
  5  4  2  0
  6  7  2  0
 10  9  1  1
 10 11  1  0
 12 10  1  0
 13 12  1  1
 14 13  1  0
 14  6  1  0
 15 13  1  0
 15 22  1  0
 16 15  2  0
 17 18  1  0
 18 19  1  0
 19 20  1  0
 21 22  1  0
 21 20  1  1
 23 21  1  0
 24 23  2  0
 25 23  1  0
M  END
$$$$
