DLM.pdb
     RDKit          3D

 25 24  0  0  1  0  0  0  0  0999 V2000
    7.9218  -17.1209   20.6989 N   0  0  0  0  0  0  0  0  0  0  0  0
    9.3381  -16.9070   20.8803 C   0  0  1  0  0  0  0  0  0  0  0  0
    9.8834  -16.0610   19.7780 C   0  0  0  0  0  0  0  0  0  0  0  0
   10.1276  -16.8892   18.5805 C   0  0  0  0  0  0  0  0  0  0  0  0
    9.7142  -18.0675   18.5642 O   0  0  0  0  0  0  0  0  0  0  0  0
    9.5766  -16.1996   22.1765 C   0  0  0  0  0  0  0  0  0  0  0  0
   10.7004  -15.6614   22.4003 O   0  0  0  0  0  0  0  0  0  0  0  0
   10.7980  -16.3574   17.5144 O   0  0  0  0  0  0  0  0  0  0  0  0
    5.8003  -13.4434   25.5817 C   0  0  0  0  0  0  0  0  0  0  0  0
    7.0443  -13.8240   24.7910 C   0  0  1  0  0  0  0  0  0  0  0  0
    7.9906  -12.6799   24.7874 C   0  0  0  0  0  0  0  0  0  0  0  0
    7.5903  -15.1302   25.2119 C   0  0  0  0  0  0  0  0  0  0  0  0
    8.7952  -15.6126   24.4848 C   0  0  2  0  0  0  0  0  0  0  0  0
    8.5672  -16.1143   23.1739 N   0  0  0  0  0  0  0  0  0  0  0  0
    9.5408  -16.6275   25.3123 C   0  0  0  0  0  0  0  0  0  0  0  0
    9.3026  -17.8524   25.2291 O   0  0  0  0  0  0  0  0  0  0  0  0
    9.9182  -13.2817   29.2687 C   0  0  0  0  0  0  0  0  0  0  0  0
   11.2849  -14.0492   28.3582 S   0  0  0  0  0  0  0  0  0  0  0  0
   11.6314  -15.7099   28.9798 C   0  0  0  0  0  0  0  0  0  0  0  0
   12.3088  -16.5648   27.9079 C   0  0  0  0  0  0  0  0  0  0  0  0
   11.3075  -17.2000   27.0017 C   0  0  2  0  0  0  0  0  0  0  0  0
   10.5553  -16.2320   26.2304 N   0  0  0  0  0  0  0  0  0  0  0  0
   10.4143  -18.0531   27.8275 C   0  0  0  0  0  0  0  0  0  0  0  0
   10.8894  -19.1071   28.3211 O   0  0  0  0  0  0  0  0  0  0  0  0
    9.0915  -17.7278   28.0674 O   0  0  0  0  0  0  0  0  0  0  0  0
  2  1  1  6
  2  3  1  0
  2  6  1  0
  4  8  1  0
  4  3  1  0
  5  4  2  0
  6  7  2  0
 10  9  1  1
 10 11  1  0
 12 10  1  0
 13 12  1  1
 14 13  1  0
 14  6  1  0
 15 13  1  0
 15 22  1  0
 16 15  2  0
 17 18  1  0
 18 19  1  0
 19 20  1  0
 21 22  1  0
 21 20  1  1
 23 21  1  0
 24 23  2  0
 25 23  1  0
M  END
$$$$
