DLM.pdb
     RDKit          3D

 25 24  0  0  1  0  0  0  0  0999 V2000
   11.1913  -18.8384   19.8555 N   0  0  0  0  0  0  0  0  0  0  0  0
   12.1856  -17.9800   20.4547 C   0  0  1  0  0  0  0  0  0  0  0  0
   13.1182  -17.4559   19.4137 C   0  0  0  0  0  0  0  0  0  0  0  0
   13.9138  -18.5626   18.8464 C   0  0  0  0  0  0  0  0  0  0  0  0
   13.6611  -18.9596   17.6897 O   0  0  0  0  0  0  0  0  0  0  0  0
   11.5135  -16.8160   21.1111 C   0  0  0  0  0  0  0  0  0  0  0  0
   12.2122  -15.9271   21.6805 O   0  0  0  0  0  0  0  0  0  0  0  0
   14.9087  -19.1326   19.5908 O   0  0  0  0  0  0  0  0  0  0  0  0
    8.7427  -12.7817   20.5846 C   0  0  0  0  0  0  0  0  0  0  0  0
    7.7203  -13.7661   21.1356 C   0  0  1  0  0  0  0  0  0  0  0  0
    6.3765  -13.4235   20.6054 C   0  0  0  0  0  0  0  0  0  0  0  0
    8.1564  -15.1677   20.9715 C   0  0  0  0  0  0  0  0  0  0  0  0
    9.4166  -15.5568   21.6597 C   0  0  2  0  0  0  0  0  0  0  0  0
   10.0985  -16.6791   21.1141 N   0  0  0  0  0  0  0  0  0  0  0  0
    9.1742  -15.7561   23.1335 C   0  0  0  0  0  0  0  0  0  0  0  0
    8.6348  -16.7919   23.5809 O   0  0  0  0  0  0  0  0  0  0  0  0
    6.2253  -11.2236   25.7736 C   0  0  0  0  0  0  0  0  0  0  0  0
    6.2839  -12.2737   27.2499 S   0  0  0  0  0  0  0  0  0  0  0  0
    7.2857  -13.7494   26.9613 C   0  0  0  0  0  0  0  0  0  0  0  0
    7.8798  -13.7400   25.5522 C   0  0  0  0  0  0  0  0  0  0  0  0
    8.9856  -14.7334   25.4185 C   0  0  2  0  0  0  0  0  0  0  0  0
    9.5518  -14.7667   24.0859 N   0  0  0  0  0  0  0  0  0  0  0  0
    8.4616  -16.0636   25.8227 C   0  0  0  0  0  0  0  0  0  0  0  0
    7.8036  -16.7240   24.9794 O   0  0  0  0  0  0  0  0  0  0  0  0
    8.6727  -16.5923   27.0834 O   0  0  0  0  0  0  0  0  0  0  0  0
  2  1  1  6
  2  3  1  0
  2  6  1  0
  4  8  1  0
  4  3  1  0
  5  4  2  0
  6  7  2  0
 10  9  1  6
 10 11  1  0
 12 10  1  0
 13 12  1  6
 14 13  1  0
 14  6  1  0
 15 13  1  0
 15 22  1  0
 16 15  2  0
 17 18  1  0
 18 19  1  0
 19 20  1  0
 21 22  1  0
 21 20  1  6
 23 21  1  0
 24 23  2  0
 25 23  1  0
M  END
$$$$
