DLM.pdb
     RDKit          3D

 25 24  0  0  1  0  0  0  0  0999 V2000
    7.8213  -17.9969   21.1045 N   0  0  0  0  0  0  0  0  0  0  0  0
    9.1648  -17.4850   20.9729 C   0  0  1  0  0  0  0  0  0  0  0  0
    9.4293  -17.0696   19.5638 C   0  0  0  0  0  0  0  0  0  0  0  0
    9.7855  -18.2481   18.7492 C   0  0  0  0  0  0  0  0  0  0  0  0
    8.9144  -19.1137   18.5224 O   0  0  0  0  0  0  0  0  0  0  0  0
    9.3344  -16.2885   21.8544 C   0  0  0  0  0  0  0  0  0  0  0  0
   10.4014  -15.6101   21.7933 O   0  0  0  0  0  0  0  0  0  0  0  0
   11.0552  -18.3736   18.2583 O   0  0  0  0  0  0  0  0  0  0  0  0
    7.7324  -12.0472   24.7052 C   0  0  0  0  0  0  0  0  0  0  0  0
    7.3824  -13.3423   25.4246 C   0  0  1  0  0  0  0  0  0  0  0  0
    6.2311  -13.1026   26.3311 C   0  0  0  0  0  0  0  0  0  0  0  0
    7.2604  -14.4797   24.4904 C   0  0  0  0  0  0  0  0  0  0  0  0
    8.4606  -14.7991   23.6715 C   0  0  2  0  0  0  0  0  0  0  0  0
    8.3214  -15.8884   22.7680 N   0  0  0  0  0  0  0  0  0  0  0  0
    9.6646  -15.0012   24.5548 C   0  0  0  0  0  0  0  0  0  0  0  0
   10.3937  -14.0483   24.9074 O   0  0  0  0  0  0  0  0  0  0  0  0
   11.7255  -13.3971   29.0797 C   0  0  0  0  0  0  0  0  0  0  0  0
   10.4533  -14.5542   29.6529 S   0  0  0  0  0  0  0  0  0  0  0  0
   10.5679  -16.1332   28.7823 C   0  0  0  0  0  0  0  0  0  0  0  0
    9.8031  -16.0848   27.4589 C   0  0  0  0  0  0  0  0  0  0  0  0
   10.6695  -16.4865   26.3119 C   0  0  2  0  0  0  0  0  0  0  0  0
   10.0258  -16.2949   25.0287 N   0  0  0  0  0  0  0  0  0  0  0  0
   11.0748  -17.9015   26.5137 C   0  0  0  0  0  0  0  0  0  0  0  0
   11.7202  -18.1921   27.5527 O   0  0  0  0  0  0  0  0  0  0  0  0
   10.7679  -18.8980   25.6048 O   0  0  0  0  0  0  0  0  0  0  0  0
  2  1  1  6
  2  3  1  0
  2  6  1  0
  4  8  1  0
  4  3  1  0
  5  4  2  0
  6  7  2  0
 10  9  1  6
 10 11  1  0
 12 10  1  0
 13 12  1  1
 14 13  1  0
 14  6  1  0
 15 13  1  0
 15 22  1  0
 16 15  2  0
 17 18  1  0
 18 19  1  0
 19 20  1  0
 21 22  1  0
 21 20  1  1
 23 21  1  0
 24 23  2  0
 25 23  1  0
M  END
$$$$
