ITL.pdb
     RDKit          3D

 24 23  0  0  1  0  0  0  0  0999 V2000
   24.8065  -20.5214   -8.0103 C   0  0  0  0  0  0  0  0  0  0  0  0
   24.8543  -21.7837   -8.8197 C   0  0  0  0  0  0  0  0  0  0  0  0
   25.1623  -21.5177  -10.2560 C   0  0  2  0  0  0  0  0  0  0  0  0
   26.5008  -20.8005  -10.3412 C   0  0  0  0  0  0  0  0  0  0  0  0
   24.0819  -20.7583  -10.9750 C   0  0  2  0  0  0  0  0  0  0  0  0
   22.8459  -21.5476  -10.8161 N   0  0  0  0  0  0  0  0  0  0  0  0
   24.3289  -20.6379  -12.4263 C   0  0  0  0  0  0  0  0  0  0  0  0
   25.2954  -21.2626  -12.9330 O   0  0  0  0  0  0  0  0  0  0  0  0
   22.4006  -21.7177  -15.3122 C   0  0  0  0  0  0  0  0  0  0  0  0
   22.6843  -20.2562  -15.5671 C   0  0  1  0  0  0  0  0  0  0  0  0
   21.5498  -19.5512  -15.1134 O   0  0  0  0  0  0  0  0  0  0  0  0
   23.9000  -19.8010  -14.7530 C   0  0  2  0  0  0  0  0  0  0  0  0
   23.5555  -19.8629  -13.3305 N   0  0  0  0  0  0  0  0  0  0  0  0
   24.2056  -18.3975  -15.1359 C   0  0  0  0  0  0  0  0  0  0  0  0
   23.7317  -17.4113  -14.4901 O   0  0  0  0  0  0  0  0  0  0  0  0
   28.9846  -15.4736  -17.2512 C   0  0  0  0  0  0  0  0  0  0  0  0
   27.5430  -15.3237  -16.8058 C   0  0  2  0  0  0  0  0  0  0  0  0
   27.3256  -14.1838  -15.8457 C   0  0  0  0  0  0  0  0  0  0  0  0
   26.8702  -16.5900  -16.4855 C   0  0  0  0  0  0  0  0  0  0  0  0
   25.4234  -16.7483  -16.6376 C   0  0  2  0  0  0  0  0  0  0  0  0
   25.0321  -18.1160  -16.2294 N   0  0  0  0  0  0  0  0  0  0  0  0
   24.7860  -16.4706  -17.9045 C   0  0  0  0  0  0  0  0  0  0  0  0
   24.4468  -15.2087  -18.3746 O   0  0  0  0  0  0  0  0  0  0  0  0
   24.4832  -17.4063  -18.6977 O   0  0  0  0  0  0  0  0  0  0  0  0
  2  1  1  0
  3  5  1  0
  3  2  1  0
  3  4  1  1
  5  6  1  6
  7  5  1  0
  8  7  2  0
 10  9  1  1
 10 12  1  0
 11 10  1  0
 12 14  1  0
 12 13  1  1
 13  7  1  0
 14 15  2  0
 17 16  1  1
 17 19  1  0
 18 17  1  0
 20 19  1  6
 20 21  1  0
 20 22  1  0
 21 14  1  0
 22 24  2  0
 22 23  1  0
M  END
$$$$
