ITL.pdb
     RDKit          3D

 24 23  0  0  1  0  0  0  0  0999 V2000
   19.8757  -19.2499  -10.0609 C   0  0  0  0  0  0  0  0  0  0  0  0
   19.6601  -19.3214  -11.5439 C   0  0  0  0  0  0  0  0  0  0  0  0
   20.9020  -19.7153  -12.2727 C   0  0  2  0  0  0  0  0  0  0  0  0
   21.4550  -18.4916  -12.9869 C   0  0  0  0  0  0  0  0  0  0  0  0
   20.7074  -20.8668  -13.2198 C   0  0  2  0  0  0  0  0  0  0  0  0
   20.3170  -22.0227  -12.3906 N   0  0  0  0  0  0  0  0  0  0  0  0
   21.9464  -21.2475  -13.9281 C   0  0  0  0  0  0  0  0  0  0  0  0
   22.8143  -21.9214  -13.3167 O   0  0  0  0  0  0  0  0  0  0  0  0
   24.4620  -22.3956  -17.9525 C   0  0  0  0  0  0  0  0  0  0  0  0
   23.2133  -21.8357  -17.3132 C   0  0  1  0  0  0  0  0  0  0  0  0
   22.2919  -22.9022  -17.2516 O   0  0  0  0  0  0  0  0  0  0  0  0
   23.5121  -21.3655  -15.8858 C   0  0  2  0  0  0  0  0  0  0  0  0
   22.2593  -20.9170  -15.2731 N   0  0  0  0  0  0  0  0  0  0  0  0
   24.4660  -20.2286  -15.9705 C   0  0  0  0  0  0  0  0  0  0  0  0
   24.1788  -19.0807  -15.5079 O   0  0  0  0  0  0  0  0  0  0  0  0
   27.4909  -19.6389  -12.6976 C   0  0  0  0  0  0  0  0  0  0  0  0
   27.3674  -20.1250  -14.1285 C   0  0  2  0  0  0  0  0  0  0  0  0
   28.4060  -21.1477  -14.5080 C   0  0  0  0  0  0  0  0  0  0  0  0
   27.0993  -19.0653  -15.1102 C   0  0  0  0  0  0  0  0  0  0  0  0
   26.7984  -19.3750  -16.5085 C   0  0  2  0  0  0  0  0  0  0  0  0
   25.7213  -20.3883  -16.5676 N   0  0  0  0  0  0  0  0  0  0  0  0
   27.8482  -19.7993  -17.4064 C   0  0  0  0  0  0  0  0  0  0  0  0
   27.8884  -21.0127  -18.0804 O   0  0  0  0  0  0  0  0  0  0  0  0
   28.8417  -19.0547  -17.6412 O   0  0  0  0  0  0  0  0  0  0  0  0
  2  1  1  0
  3  5  1  0
  3  2  1  0
  3  4  1  6
  5  6  1  1
  7  5  1  0
  8  7  2  0
 10  9  1  1
 10 12  1  0
 11 10  1  0
 12 14  1  0
 12 13  1  6
 13  7  1  0
 14 15  2  0
 17 16  1  1
 17 19  1  0
 18 17  1  0
 20 19  1  1
 20 21  1  0
 20 22  1  0
 21 14  1  0
 22 24  2  0
 22 23  1  0
M  END
$$$$
