ITL.pdb
     RDKit          3D

 24 23  0  0  1  0  0  0  0  0999 V2000
   26.3771  -19.8796   -7.2277 C   0  0  0  0  0  0  0  0  0  0  0  0
   26.0121  -21.0361   -8.1110 C   0  0  0  0  0  0  0  0  0  0  0  0
   25.9957  -20.6559   -9.5545 C   0  0  2  0  0  0  0  0  0  0  0  0
   25.0387  -19.4882   -9.7387 C   0  0  0  0  0  0  0  0  0  0  0  0
   25.6600  -21.7958  -10.4758 C   0  0  2  0  0  0  0  0  0  0  0  0
   26.7173  -22.8067  -10.2851 N   0  0  0  0  0  0  0  0  0  0  0  0
   25.6869  -21.4126  -11.9021 C   0  0  0  0  0  0  0  0  0  0  0  0
   26.7955  -21.1840  -12.4500 O   0  0  0  0  0  0  0  0  0  0  0  0
   24.2842  -23.2751  -14.8800 C   0  0  0  0  0  0  0  0  0  0  0  0
   23.7944  -21.8497  -14.9786 C   0  0  1  0  0  0  0  0  0  0  0  0
   22.4998  -21.8399  -14.4184 O   0  0  0  0  0  0  0  0  0  0  0  0
   24.6910  -20.9214  -14.1525 C   0  0  2  0  0  0  0  0  0  0  0  0
   24.5476  -21.2753  -12.7383 N   0  0  0  0  0  0  0  0  0  0  0  0
   24.2273  -19.5262  -14.3715 C   0  0  0  0  0  0  0  0  0  0  0  0
   23.4528  -18.9437  -13.5499 O   0  0  0  0  0  0  0  0  0  0  0  0
   25.0331  -14.2792  -15.0783 C   0  0  0  0  0  0  0  0  0  0  0  0
   25.5806  -15.1876  -16.1618 C   0  0  2  0  0  0  0  0  0  0  0  0
   25.1102  -14.8243  -17.5457 C   0  0  0  0  0  0  0  0  0  0  0  0
   25.5732  -16.6163  -15.8193 C   0  0  0  0  0  0  0  0  0  0  0  0
   24.3248  -17.3731  -15.7178 C   0  0  2  0  0  0  0  0  0  0  0  0
   24.6328  -18.8040  -15.4993 N   0  0  0  0  0  0  0  0  0  0  0  0
   23.3337  -17.2939  -16.7665 C   0  0  0  0  0  0  0  0  0  0  0  0
   23.2189  -18.1759  -17.8329 O   0  0  0  0  0  0  0  0  0  0  0  0
   22.4715  -16.3703  -16.7764 O   0  0  0  0  0  0  0  0  0  0  0  0
  2  1  1  0
  3  5  1  0
  3  2  1  0
  3  4  1  1
  5  6  1  6
  7  5  1  0
  8  7  2  0
 10  9  1  1
 10 12  1  0
 11 10  1  0
 12 14  1  0
 12 13  1  1
 13  7  1  0
 14 15  2  0
 17 16  1  1
 17 19  1  0
 18 17  1  0
 20 19  1  6
 20 21  1  0
 20 22  1  0
 21 14  1  0
 22 24  2  0
 22 23  1  0
M  END
$$$$
