ITL.pdb
     RDKit          3D

 24 23  0  0  1  0  0  0  0  0999 V2000
   23.2294  -28.4232  -16.2834 C   0  0  0  0  0  0  0  0  0  0  0  0
   22.2520  -27.2925  -16.4136 C   0  0  0  0  0  0  0  0  0  0  0  0
   21.9380  -26.6679  -15.0945 C   0  0  2  0  0  0  0  0  0  0  0  0
   21.3677  -27.7363  -14.1745 C   0  0  0  0  0  0  0  0  0  0  0  0
   21.0246  -25.4775  -15.1917 C   0  0  2  0  0  0  0  0  0  0  0  0
   21.7789  -24.4354  -15.9136 N   0  0  0  0  0  0  0  0  0  0  0  0
   20.6696  -24.9130  -13.8737 C   0  0  0  0  0  0  0  0  0  0  0  0
   21.5209  -24.2215  -13.2587 O   0  0  0  0  0  0  0  0  0  0  0  0
   18.6275  -22.2428  -13.0802 C   0  0  0  0  0  0  0  0  0  0  0  0
   18.0798  -23.3317  -12.1883 C   0  0  1  0  0  0  0  0  0  0  0  0
   17.0063  -23.9144  -12.8941 O   0  0  0  0  0  0  0  0  0  0  0  0
   19.1452  -24.4061  -11.9458 C   0  0  2  0  0  0  0  0  0  0  0  0
   19.4221  -25.0802  -13.2166 N   0  0  0  0  0  0  0  0  0  0  0  0
   18.5950  -25.3815  -10.9683 C   0  0  0  0  0  0  0  0  0  0  0  0
   18.1852  -26.5287  -11.3290 O   0  0  0  0  0  0  0  0  0  0  0  0
   17.4532  -25.0996   -4.8605 C   0  0  0  0  0  0  0  0  0  0  0  0
   17.5773  -26.0265   -6.0540 C   0  0  2  0  0  0  0  0  0  0  0  0
   18.1053  -27.3925   -5.7023 C   0  0  0  0  0  0  0  0  0  0  0  0
   18.1351  -25.3965   -7.2584 C   0  0  0  0  0  0  0  0  0  0  0  0
   17.8839  -25.9405   -8.5935 C   0  0  2  0  0  0  0  0  0  0  0  0
   18.5102  -25.0639   -9.6082 N   0  0  0  0  0  0  0  0  0  0  0  0
   16.5341  -26.2184   -9.0284 C   0  0  0  0  0  0  0  0  0  0  0  0
   15.6255  -25.2728   -9.4851 O   0  0  0  0  0  0  0  0  0  0  0  0
   16.0780  -27.3967   -9.0164 O   0  0  0  0  0  0  0  0  0  0  0  0
  2  1  1  0
  3  5  1  0
  3  2  1  0
  3  4  1  1
  5  6  1  6
  7  5  1  0
  8  7  2  0
 10  9  1  6
 10 12  1  0
 11 10  1  0
 12 14  1  0
 12 13  1  6
 13  7  1  0
 14 15  2  0
 17 16  1  1
 17 19  1  0
 18 17  1  0
 20 19  1  1
 20 21  1  0
 20 22  1  0
 21 14  1  0
 22 24  2  0
 22 23  1  0
M  END
$$$$
