ITL.pdb
     RDKit          3D

 24 23  0  0  1  0  0  0  0  0999 V2000
   22.4609  -20.1647  -15.9893 C   0  0  0  0  0  0  0  0  0  0  0  0
   22.3645  -20.2795  -14.4965 C   0  0  0  0  0  0  0  0  0  0  0  0
   23.4878  -21.0772  -13.9216 C   0  0  2  0  0  0  0  0  0  0  0  0
   23.5491  -22.4170  -14.6389 C   0  0  0  0  0  0  0  0  0  0  0  0
   23.4035  -21.2521  -12.4306 C   0  0  2  0  0  0  0  0  0  0  0  0
   22.8734  -19.9840  -11.8948 N   0  0  0  0  0  0  0  0  0  0  0  0
   24.7216  -21.4654  -11.7990 C   0  0  0  0  0  0  0  0  0  0  0  0
   25.1825  -22.6335  -11.7321 O   0  0  0  0  0  0  0  0  0  0  0  0
   29.2853  -20.4566  -10.7919 C   0  0  0  0  0  0  0  0  0  0  0  0
   27.9411  -20.0594  -11.3549 C   0  0  1  0  0  0  0  0  0  0  0  0
   27.9328  -20.4962  -12.6963 O   0  0  0  0  0  0  0  0  0  0  0  0
   26.8163  -20.7764  -10.6008 C   0  0  2  0  0  0  0  0  0  0  0  0
   25.5425  -20.4476  -11.2454 N   0  0  0  0  0  0  0  0  0  0  0  0
   26.8153  -20.2770   -9.2008 C   0  0  0  0  0  0  0  0  0  0  0  0
   26.0324  -19.3503   -8.8234 O   0  0  0  0  0  0  0  0  0  0  0  0
   30.7856  -21.0164   -4.4934 C   0  0  0  0  0  0  0  0  0  0  0  0
   29.3850  -20.5652   -4.8592 C   0  0  2  0  0  0  0  0  0  0  0  0
   28.3813  -20.7636   -3.7539 C   0  0  0  0  0  0  0  0  0  0  0  0
   28.9567  -20.9464   -6.2120 C   0  0  0  0  0  0  0  0  0  0  0  0
   27.8199  -20.2978   -6.8666 C   0  0  2  0  0  0  0  0  0  0  0  0
   27.6844  -20.8165   -8.2460 N   0  0  0  0  0  0  0  0  0  0  0  0
   27.7374  -18.8565   -6.9310 C   0  0  0  0  0  0  0  0  0  0  0  0
   28.5723  -18.0356   -7.6776 O   0  0  0  0  0  0  0  0  0  0  0  0
   26.8579  -18.2269   -6.2778 O   0  0  0  0  0  0  0  0  0  0  0  0
  2  1  1  0
  3  5  1  0
  3  2  1  0
  3  4  1  6
  5  6  1  1
  7  5  1  0
  8  7  2  0
 10  9  1  1
 10 12  1  0
 11 10  1  0
 12 14  1  0
 12 13  1  6
 13  7  1  0
 14 15  2  0
 17 16  1  1
 17 19  1  0
 18 17  1  0
 20 19  1  6
 20 21  1  0
 20 22  1  0
 21 14  1  0
 22 24  2  0
 22 23  1  0
M  END
$$$$
