ITL.pdb
     RDKit          3D

 24 23  0  0  1  0  0  0  0  0999 V2000
   22.7034  -21.1798   -6.3403 C   0  0  0  0  0  0  0  0  0  0  0  0
   24.0942  -21.2345   -6.9003 C   0  0  0  0  0  0  0  0  0  0  0  0
   24.1386  -20.8178   -8.3331 C   0  0  2  0  0  0  0  0  0  0  0  0
   23.0993  -21.6169   -9.1040 C   0  0  0  0  0  0  0  0  0  0  0  0
   25.5019  -20.9389   -8.9556 C   0  0  2  0  0  0  0  0  0  0  0  0
   26.4091  -20.1231   -8.1264 N   0  0  0  0  0  0  0  0  0  0  0  0
   25.5625  -20.3879  -10.3248 C   0  0  0  0  0  0  0  0  0  0  0  0
   25.5032  -19.1418  -10.4824 O   0  0  0  0  0  0  0  0  0  0  0  0
   28.0857  -20.7894  -13.0467 C   0  0  0  0  0  0  0  0  0  0  0  0
   26.7510  -21.0610  -13.6995 C   0  0  1  0  0  0  0  0  0  0  0  0
   26.6274  -22.4645  -13.7709 O   0  0  0  0  0  0  0  0  0  0  0  0
   25.6133  -20.5143  -12.8306 C   0  0  2  0  0  0  0  0  0  0  0  0
   25.6865  -21.1532  -11.5144 N   0  0  0  0  0  0  0  0  0  0  0  0
   24.3277  -20.8649  -13.4893 C   0  0  0  0  0  0  0  0  0  0  0  0
   23.3850  -21.4315  -12.8534 O   0  0  0  0  0  0  0  0  0  0  0  0
   19.9957  -19.5943  -15.3179 C   0  0  0  0  0  0  0  0  0  0  0  0
   20.9248  -18.5777  -14.6835 C   0  0  2  0  0  0  0  0  0  0  0  0
   20.6113  -17.1552  -15.0666 C   0  0  0  0  0  0  0  0  0  0  0  0
   22.3427  -18.9625  -14.6890 C   0  0  0  0  0  0  0  0  0  0  0  0
   22.8103  -20.1533  -15.3995 C   0  0  2  0  0  0  0  0  0  0  0  0
   24.1135  -20.5792  -14.8422 N   0  0  0  0  0  0  0  0  0  0  0  0
   22.9316  -20.1458  -16.8395 C   0  0  0  0  0  0  0  0  0  0  0  0
   22.0038  -20.6741  -17.7275 O   0  0  0  0  0  0  0  0  0  0  0  0
   23.9400  -19.6342  -17.4033 O   0  0  0  0  0  0  0  0  0  0  0  0
  2  1  1  0
  3  5  1  0
  3  2  1  0
  3  4  1  6
  5  6  1  1
  7  5  1  0
  8  7  2  0
 10  9  1  1
 10 12  1  0
 11 10  1  0
 12 14  1  0
 12 13  1  1
 13  7  1  0
 14 15  2  0
 17 16  1  6
 17 19  1  0
 18 17  1  0
 20 19  1  1
 20 21  1  0
 20 22  1  0
 21 14  1  0
 22 24  2  0
 22 23  1  0
M  END
$$$$
