ITL.pdb
     RDKit          3D

 24 23  0  0  1  0  0  0  0  0999 V2000
   28.3733  -19.6151  -13.5201 C   0  0  0  0  0  0  0  0  0  0  0  0
   27.4045  -20.7045  -13.1659 C   0  0  0  0  0  0  0  0  0  0  0  0
   26.4263  -20.2686  -12.1258 C   0  0  2  0  0  0  0  0  0  0  0  0
   27.1888  -19.9225  -10.8562 C   0  0  0  0  0  0  0  0  0  0  0  0
   25.3387  -21.2725  -11.8607 C   0  0  2  0  0  0  0  0  0  0  0  0
   26.0159  -22.5578  -11.6043 N   0  0  0  0  0  0  0  0  0  0  0  0
   24.4503  -21.4815  -13.0221 C   0  0  0  0  0  0  0  0  0  0  0  0
   24.9363  -21.9482  -14.0838 O   0  0  0  0  0  0  0  0  0  0  0  0
   21.9013  -23.8469  -13.7803 C   0  0  0  0  0  0  0  0  0  0  0  0
   21.2288  -22.5088  -13.9769 C   0  0  1  0  0  0  0  0  0  0  0  0
   20.5966  -22.2036  -12.7532 O   0  0  0  0  0  0  0  0  0  0  0  0
   22.2736  -21.4268  -14.2699 C   0  0  2  0  0  0  0  0  0  0  0  0
   23.0591  -21.1990  -13.0546 N   0  0  0  0  0  0  0  0  0  0  0  0
   21.5498  -20.1828  -14.6418 C   0  0  0  0  0  0  0  0  0  0  0  0
   21.4253  -19.2148  -13.8284 O   0  0  0  0  0  0  0  0  0  0  0  0
   21.2537  -16.1190  -17.3262 C   0  0  0  0  0  0  0  0  0  0  0  0
   21.5467  -17.4206  -18.0466 C   0  0  2  0  0  0  0  0  0  0  0  0
   21.9044  -17.2373  -19.4982 C   0  0  0  0  0  0  0  0  0  0  0  0
   20.6161  -18.5131  -17.7321 C   0  0  0  0  0  0  0  0  0  0  0  0
   20.2454  -18.8299  -16.3523 C   0  0  2  0  0  0  0  0  0  0  0  0
   20.9779  -20.0376  -15.9105 N   0  0  0  0  0  0  0  0  0  0  0  0
   18.8575  -19.0024  -15.9886 C   0  0  0  0  0  0  0  0  0  0  0  0
   17.9692  -17.9760  -15.6959 O   0  0  0  0  0  0  0  0  0  0  0  0
   18.3456  -20.1549  -15.9099 O   0  0  0  0  0  0  0  0  0  0  0  0
  2  1  1  0
  3  5  1  0
  3  2  1  0
  3  4  1  1
  5  6  1  6
  7  5  1  0
  8  7  2  0
 10  9  1  1
 10 12  1  0
 11 10  1  0
 12 14  1  0
 12 13  1  1
 13  7  1  0
 14 15  2  0
 17 16  1  6
 17 19  1  0
 18 17  1  0
 20 19  1  6
 20 21  1  0
 20 22  1  0
 21 14  1  0
 22 24  2  0
 22 23  1  0
M  END
$$$$
