SAS.pdb
     RDKit          3D

 18 17  0  0  1  0  0  0  0  0999 V2000
   21.0717   -3.5256  -13.2956 O   0  0  0  0  0  0  0  0  0  0  0  0
   21.0004   -4.5272  -14.2344 C   0  0  0  0  0  0  0  0  0  0  0  0
   22.3041   -5.2577  -14.4396 C   0  0  2  0  0  0  0  0  0  0  0  0
   23.2961   -4.4152  -15.0348 N   0  0  0  0  0  0  0  0  0  0  0  0
   22.1400   -6.5510  -15.1324 C   0  0  0  0  0  0  0  0  0  0  0  0
   21.9004   -6.5268  -16.3670 O   0  0  0  0  0  0  0  0  0  0  0  0
   22.5224  -10.2628  -14.3939 C   0  0  0  0  0  0  0  0  0  0  0  0
   22.0827   -9.0745  -15.1845 C   0  0  2  0  0  0  0  0  0  0  0  0
   22.2323   -7.8213  -14.5100 N   0  0  0  0  0  0  0  0  0  0  0  0
   20.7175   -9.3187  -15.6897 C   0  0  0  0  0  0  0  0  0  0  0  0
   19.7721   -8.9077  -14.9669 O   0  0  0  0  0  0  0  0  0  0  0  0
   17.7144  -10.5690  -19.2524 O   0  0  0  0  0  0  0  0  0  0  0  0
   19.0513  -10.6926  -18.8267 C   0  0  0  0  0  0  0  0  0  0  0  0
   19.1023  -10.1953  -17.4114 C   0  0  2  0  0  0  0  0  0  0  0  0
   20.4271   -9.9759  -16.9161 N   0  0  0  0  0  0  0  0  0  0  0  0
   18.3367  -11.1586  -16.5625 C   0  0  0  0  0  0  0  0  0  0  0  0
   18.8701  -12.1462  -16.0003 O   0  0  0  0  0  0  0  0  0  0  0  0
   16.9790  -10.9297  -16.4046 O   0  0  0  0  0  0  0  0  0  0  0  0
  2  1  1  0
  3  2  1  0
  3  4  1  6
  5  6  2  0
  5  3  1  0
  8  7  1  1
  8  9  1  0
  9  5  1  0
 10  8  1  0
 10 15  1  0
 11 10  2  0
 12 13  1  0
 14 13  1  6
 14 15  1  0
 14 16  1  0
 16 17  2  0
 16 18  1  0
M  END
$$$$
