SAS.pdb
     RDKit          3D

 18 17  0  0  1  0  0  0  0  0999 V2000
   25.0772  -12.8497  -16.2762 O   0  0  0  0  0  0  0  0  0  0  0  0
   24.5051  -11.6024  -16.1945 C   0  0  0  0  0  0  0  0  0  0  0  0
   23.1963  -11.4874  -16.9354 C   0  0  2  0  0  0  0  0  0  0  0  0
   23.3581  -11.7239  -18.3375 N   0  0  0  0  0  0  0  0  0  0  0  0
   22.4663  -10.2409  -16.6307 C   0  0  0  0  0  0  0  0  0  0  0  0
   22.7001   -9.2357  -17.3499 O   0  0  0  0  0  0  0  0  0  0  0  0
   19.7189   -9.0157  -14.2976 C   0  0  0  0  0  0  0  0  0  0  0  0
   20.8548   -8.8673  -15.2559 C   0  0  2  0  0  0  0  0  0  0  0  0
   21.5196  -10.0907  -15.5864 N   0  0  0  0  0  0  0  0  0  0  0  0
   21.7610   -7.8135  -14.7589 C   0  0  0  0  0  0  0  0  0  0  0  0
   22.9898   -8.0877  -14.7579 O   0  0  0  0  0  0  0  0  0  0  0  0
   23.6193   -4.0025  -15.5207 O   0  0  0  0  0  0  0  0  0  0  0  0
   22.6882   -5.0448  -15.6955 C   0  0  0  0  0  0  0  0  0  0  0  0
   22.1298   -5.3583  -14.3379 C   0  0  2  0  0  0  0  0  0  0  0  0
   21.3265   -6.5421  -14.2952 N   0  0  0  0  0  0  0  0  0  0  0  0
   21.3823   -4.1536  -13.8640 C   0  0  0  0  0  0  0  0  0  0  0  0
   20.2284   -3.8647  -14.2656 O   0  0  0  0  0  0  0  0  0  0  0  0
   22.0123   -3.3349  -12.9402 O   0  0  0  0  0  0  0  0  0  0  0  0
  2  1  1  0
  3  2  1  0
  3  4  1  6
  5  6  2  0
  5  3  1  0
  8  7  1  1
  8  9  1  0
  9  5  1  0
 10  8  1  0
 10 15  1  0
 11 10  2  0
 12 13  1  0
 14 13  1  6
 14 15  1  0
 14 16  1  0
 16 17  2  0
 16 18  1  0
M  END
$$$$
