SAS.pdb
     RDKit          3D

 18 17  0  0  1  0  0  0  0  0999 V2000
   15.1358  -12.6655  -11.3746 O   0  0  0  0  0  0  0  0  0  0  0  0
   15.6087  -11.4290  -11.7452 C   0  0  0  0  0  0  0  0  0  0  0  0
   14.9855  -10.2887  -10.9795 C   0  0  2  0  0  0  0  0  0  0  0  0
   13.5839  -10.1747  -11.2453 N   0  0  0  0  0  0  0  0  0  0  0  0
   15.7182   -9.0168  -11.1373 C   0  0  0  0  0  0  0  0  0  0  0  0
   15.7589   -8.5038  -12.2851 O   0  0  0  0  0  0  0  0  0  0  0  0
   17.3783   -6.3675   -8.9857 C   0  0  0  0  0  0  0  0  0  0  0  0
   17.1265   -7.1173  -10.2525 C   0  0  2  0  0  0  0  0  0  0  0  0
   16.3811   -8.3281  -10.0904 N   0  0  0  0  0  0  0  0  0  0  0  0
   18.4091   -7.2988  -10.9601 C   0  0  0  0  0  0  0  0  0  0  0  0
   18.8041   -8.4854  -11.1059 O   0  0  0  0  0  0  0  0  0  0  0  0
   21.3019   -7.4084  -14.1931 O   0  0  0  0  0  0  0  0  0  0  0  0
   20.0611   -7.2010  -13.5596 C   0  0  0  0  0  0  0  0  0  0  0  0
   20.3382   -6.4112  -12.3136 C   0  0  2  0  0  0  0  0  0  0  0  0
   19.1964   -6.2307  -11.4696 N   0  0  0  0  0  0  0  0  0  0  0  0
   20.9446   -5.1085  -12.7260 C   0  0  0  0  0  0  0  0  0  0  0  0
   20.2583   -4.1060  -13.0424 O   0  0  0  0  0  0  0  0  0  0  0  0
   22.3279   -5.0290  -12.7522 O   0  0  0  0  0  0  0  0  0  0  0  0
  2  1  1  0
  3  2  1  0
  3  4  1  6
  5  6  2  0
  5  3  1  0
  8  7  1  1
  8  9  1  0
  9  5  1  0
 10  8  1  0
 10 15  1  0
 11 10  2  0
 12 13  1  0
 14 13  1  6
 14 15  1  0
 14 16  1  0
 16 17  2  0
 16 18  1  0
M  END
$$$$
