SAS.pdb
     RDKit          3D

 18 17  0  0  1  0  0  0  0  0999 V2000
   17.9535  -10.8072  -20.2210 O   0  0  0  0  0  0  0  0  0  0  0  0
   18.7251  -10.0598  -19.3633 C   0  0  0  0  0  0  0  0  0  0  0  0
   18.3467  -10.2219  -17.9122 C   0  0  2  0  0  0  0  0  0  0  0  0
   16.9735   -9.8911  -17.6822 N   0  0  0  0  0  0  0  0  0  0  0  0
   19.2772   -9.5391  -16.9916 C   0  0  0  0  0  0  0  0  0  0  0  0
   18.7913   -8.7181  -16.1717 O   0  0  0  0  0  0  0  0  0  0  0  0
   22.9816   -9.5694  -16.1050 C   0  0  0  0  0  0  0  0  0  0  0  0
   21.5887   -9.0306  -16.1129 C   0  0  2  0  0  0  0  0  0  0  0  0
   20.6802   -9.7391  -16.9617 N   0  0  0  0  0  0  0  0  0  0  0  0
   21.6421   -7.5796  -16.3787 C   0  0  0  0  0  0  0  0  0  0  0  0
   21.6642   -7.2335  -17.5890 O   0  0  0  0  0  0  0  0  0  0  0  0
   19.7613   -4.7159  -14.4363 O   0  0  0  0  0  0  0  0  0  0  0  0
   20.3700   -4.5195  -15.6912 C   0  0  0  0  0  0  0  0  0  0  0  0
   21.7174   -5.1777  -15.6263 C   0  0  2  0  0  0  0  0  0  0  0  0
   21.6693   -6.5840  -15.3647 N   0  0  0  0  0  0  0  0  0  0  0  0
   22.5338   -4.4442  -14.6113 C   0  0  0  0  0  0  0  0  0  0  0  0
   22.9710   -4.9857  -13.5665 O   0  0  0  0  0  0  0  0  0  0  0  0
   22.8067   -3.1080  -14.8574 O   0  0  0  0  0  0  0  0  0  0  0  0
  2  1  1  0
  3  2  1  0
  3  4  1  6
  5  6  2  0
  5  3  1  0
  8  7  1  6
  8  9  1  0
  9  5  1  0
 10  8  1  0
 10 15  1  0
 11 10  2  0
 12 13  1  0
 14 13  1  1
 14 15  1  0
 14 16  1  0
 16 17  2  0
 16 18  1  0
M  END
$$$$
