SAS.pdb
     RDKit          3D

 18 17  0  0  1  0  0  0  0  0999 V2000
   16.5231  -10.7406  -18.3050 O   0  0  0  0  0  0  0  0  0  0  0  0
   17.1775   -9.8728  -17.4633 C   0  0  0  0  0  0  0  0  0  0  0  0
   18.0637  -10.5609  -16.4551 C   0  0  2  0  0  0  0  0  0  0  0  0
   17.3244  -11.4670  -15.6303 N   0  0  0  0  0  0  0  0  0  0  0  0
   18.9049   -9.6214  -15.6875 C   0  0  0  0  0  0  0  0  0  0  0  0
   18.3229   -8.7639  -14.9745 O   0  0  0  0  0  0  0  0  0  0  0  0
   22.5836   -9.0980  -14.8678 C   0  0  0  0  0  0  0  0  0  0  0  0
   21.1371   -8.7296  -14.9154 C   0  0  2  0  0  0  0  0  0  0  0  0
   20.3224   -9.6124  -15.6932 N   0  0  0  0  0  0  0  0  0  0  0  0
   21.0207   -7.3117  -15.3087 C   0  0  0  0  0  0  0  0  0  0  0  0
   20.9738   -7.0764  -16.5447 O   0  0  0  0  0  0  0  0  0  0  0  0
   19.8157   -2.7778  -14.4841 O   0  0  0  0  0  0  0  0  0  0  0  0
   19.9024   -4.0612  -13.9103 C   0  0  0  0  0  0  0  0  0  0  0  0
   20.8379   -4.8582  -14.7720 C   0  0  2  0  0  0  0  0  0  0  0  0
   20.9609   -6.2312  -14.3872 N   0  0  0  0  0  0  0  0  0  0  0  0
   22.1577   -4.1561  -14.7813 C   0  0  0  0  0  0  0  0  0  0  0  0
   23.1398   -4.5401  -14.1002 O   0  0  0  0  0  0  0  0  0  0  0  0
   22.2772   -3.0339  -15.5856 O   0  0  0  0  0  0  0  0  0  0  0  0
  2  1  1  0
  3  2  1  0
  3  4  1  1
  5  6  2  0
  5  3  1  0
  8  7  1  6
  8  9  1  0
  9  5  1  0
 10  8  1  0
 10 15  1  0
 11 10  2  0
 12 13  1  0
 14 13  1  1
 14 15  1  0
 14 16  1  0
 16 17  2  0
 16 18  1  0
M  END
$$$$
