SAS.pdb
     RDKit          3D

 18 17  0  0  1  0  0  0  0  0999 V2000
   12.8269  -11.8000  -16.6985 O   0  0  0  0  0  0  0  0  0  0  0  0
   13.2288  -10.6503  -16.0610 C   0  0  0  0  0  0  0  0  0  0  0  0
   13.9977  -10.9018  -14.7879 C   0  0  2  0  0  0  0  0  0  0  0  0
   13.1386  -11.3246  -13.7243 N   0  0  0  0  0  0  0  0  0  0  0  0
   14.8842   -9.7813  -14.4163 C   0  0  0  0  0  0  0  0  0  0  0  0
   14.3471   -8.7294  -13.9837 O   0  0  0  0  0  0  0  0  0  0  0  0
   18.6098   -9.0625  -14.0969 C   0  0  0  0  0  0  0  0  0  0  0  0
   17.1573   -8.7178  -14.1412 C   0  0  2  0  0  0  0  0  0  0  0  0
   16.2985   -9.8013  -14.5104 N   0  0  0  0  0  0  0  0  0  0  0  0
   16.9808   -7.5098  -14.9708 C   0  0  0  0  0  0  0  0  0  0  0  0
   16.7584   -7.7002  -16.1954 O   0  0  0  0  0  0  0  0  0  0  0  0
   16.7509   -3.6802  -13.3487 O   0  0  0  0  0  0  0  0  0  0  0  0
   16.0666   -3.9262  -14.5549 C   0  0  0  0  0  0  0  0  0  0  0  0
   16.8186   -5.0141  -15.2649 C   0  0  2  0  0  0  0  0  0  0  0  0
   17.0480   -6.1815  -14.4693 N   0  0  0  0  0  0  0  0  0  0  0  0
   18.0923   -4.4252  -15.7802 C   0  0  0  0  0  0  0  0  0  0  0  0
   19.2252   -4.8518  -15.4474 O   0  0  0  0  0  0  0  0  0  0  0  0
   17.9918   -3.3620  -16.6634 O   0  0  0  0  0  0  0  0  0  0  0  0
  2  1  1  0
  3  2  1  0
  3  4  1  1
  5  6  2  0
  5  3  1  0
  8  7  1  6
  8  9  1  0
  9  5  1  0
 10  8  1  0
 10 15  1  0
 11 10  2  0
 12 13  1  0
 14 13  1  1
 14 15  1  0
 14 16  1  0
 16 17  2  0
 16 18  1  0
M  END
$$$$
