SAS.pdb
     RDKit          3D

 18 17  0  0  1  0  0  0  0  0999 V2000
   19.0526  -13.7220  -14.6024 O   0  0  0  0  0  0  0  0  0  0  0  0
   19.3478  -12.4047  -14.8620 C   0  0  0  0  0  0  0  0  0  0  0  0
   18.5367  -11.8138  -15.9882 C   0  0  2  0  0  0  0  0  0  0  0  0
   18.7718  -12.4945  -17.2249 N   0  0  0  0  0  0  0  0  0  0  0  0
   18.6712  -10.3472  -16.0906 C   0  0  0  0  0  0  0  0  0  0  0  0
   19.5609   -9.8935  -16.8555 O   0  0  0  0  0  0  0  0  0  0  0  0
   17.0139   -7.1993  -14.7271 C   0  0  0  0  0  0  0  0  0  0  0  0
   18.1068   -7.9979  -15.3582 C   0  0  2  0  0  0  0  0  0  0  0  0
   17.8717   -9.4091  -15.3904 N   0  0  0  0  0  0  0  0  0  0  0  0
   19.3906   -7.6230  -14.7337 C   0  0  0  0  0  0  0  0  0  0  0  0
   19.8084   -8.3789  -13.8175 O   0  0  0  0  0  0  0  0  0  0  0  0
   23.7692   -6.0583  -14.9789 O   0  0  0  0  0  0  0  0  0  0  0  0
   22.5565   -6.3584  -15.6295 C   0  0  0  0  0  0  0  0  0  0  0  0
   21.4679   -6.2051  -14.6075 C   0  0  2  0  0  0  0  0  0  0  0  0
   20.1552   -6.4839  -15.1052 N   0  0  0  0  0  0  0  0  0  0  0  0
   21.5718   -4.8283  -14.0347 C   0  0  0  0  0  0  0  0  0  0  0  0
   20.9822   -3.8367  -14.5301 O   0  0  0  0  0  0  0  0  0  0  0  0
   22.3599   -4.6648  -12.9066 O   0  0  0  0  0  0  0  0  0  0  0  0
  2  1  1  0
  3  2  1  0
  3  4  1  6
  5  6  2  0
  5  3  1  0
  8  7  1  1
  8  9  1  0
  9  5  1  0
 10  8  1  0
 10 15  1  0
 11 10  2  0
 12 13  1  0
 14 13  1  6
 14 15  1  0
 14 16  1  0
 16 17  2  0
 16 18  1  0
M  END
$$$$
