SAS.pdb
     RDKit          3D

 18 17  0  0  1  0  0  0  0  0999 V2000
   20.3767  -12.9013  -15.5380 O   0  0  0  0  0  0  0  0  0  0  0  0
   20.5612  -11.5393  -15.5105 C   0  0  0  0  0  0  0  0  0  0  0  0
   21.0938  -10.9749  -16.8040 C   0  0  2  0  0  0  0  0  0  0  0  0
   22.3538  -11.5548  -17.1566 N   0  0  0  0  0  0  0  0  0  0  0  0
   21.0983   -9.4989  -16.8330 C   0  0  0  0  0  0  0  0  0  0  0  0
   22.1554   -8.9104  -16.4888 O   0  0  0  0  0  0  0  0  0  0  0  0
   18.8055   -6.6490  -17.8981 C   0  0  0  0  0  0  0  0  0  0  0  0
   20.0074   -7.2620  -17.2577 C   0  0  2  0  0  0  0  0  0  0  0  0
   19.9986   -8.6925  -17.2204 N   0  0  0  0  0  0  0  0  0  0  0  0
   20.2149   -6.6340  -15.9381 C   0  0  0  0  0  0  0  0  0  0  0  0
   20.1618   -7.3997  -14.9401 O   0  0  0  0  0  0  0  0  0  0  0  0
   22.8133   -4.7181  -13.0202 O   0  0  0  0  0  0  0  0  0  0  0  0
   22.4474   -5.2089  -14.2887 C   0  0  0  0  0  0  0  0  0  0  0  0
   21.0630   -4.6999  -14.5666 C   0  0  2  0  0  0  0  0  0  0  0  0
   20.4641   -5.2480  -15.7453 N   0  0  0  0  0  0  0  0  0  0  0  0
   21.1271   -3.2070  -14.6102 C   0  0  0  0  0  0  0  0  0  0  0  0
   21.4485   -2.5675  -15.6417 O   0  0  0  0  0  0  0  0  0  0  0  0
   20.8134   -2.5211  -13.4476 O   0  0  0  0  0  0  0  0  0  0  0  0
  2  1  1  0
  3  2  1  0
  3  4  1  1
  5  6  2  0
  5  3  1  0
  8  7  1  1
  8  9  1  0
  9  5  1  0
 10  8  1  0
 10 15  1  0
 11 10  2  0
 12 13  1  0
 14 13  1  6
 14 15  1  0
 14 16  1  0
 16 17  2  0
 16 18  1  0
M  END
$$$$
