SAS.pdb
     RDKit          3D

 18 17  0  0  1  0  0  0  0  0999 V2000
   17.9180  -12.7450  -14.9520 O   0  0  0  0  0  0  0  0  0  0  0  0
   18.5228  -11.5106  -14.9352 C   0  0  0  0  0  0  0  0  0  0  0  0
   19.0676  -11.0858  -16.2761 C   0  0  2  0  0  0  0  0  0  0  0  0
   20.1583  -11.9139  -16.6919 N   0  0  0  0  0  0  0  0  0  0  0  0
   19.3661   -9.6418  -16.3484 C   0  0  0  0  0  0  0  0  0  0  0  0
   20.5614   -9.2832  -16.1904 O   0  0  0  0  0  0  0  0  0  0  0  0
   17.5451   -6.3851  -17.1269 C   0  0  0  0  0  0  0  0  0  0  0  0
   18.7052   -7.2340  -16.7220 C   0  0  2  0  0  0  0  0  0  0  0  0
   18.4053   -8.6263  -16.5829 N   0  0  0  0  0  0  0  0  0  0  0  0
   19.3350   -6.6391  -15.5269 C   0  0  0  0  0  0  0  0  0  0  0  0
   19.1924   -7.2705  -14.4470 O   0  0  0  0  0  0  0  0  0  0  0  0
   22.6992   -5.4237  -13.0143 O   0  0  0  0  0  0  0  0  0  0  0  0
   21.9731   -5.9919  -14.0791 C   0  0  0  0  0  0  0  0  0  0  0  0
   20.9194   -4.9950  -14.4648 C   0  0  2  0  0  0  0  0  0  0  0  0
   20.0725   -5.4241  -15.5359 N   0  0  0  0  0  0  0  0  0  0  0  0
   21.6059   -3.7034  -14.7732 C   0  0  0  0  0  0  0  0  0  0  0  0
   21.8062   -3.2997  -15.9450 O   0  0  0  0  0  0  0  0  0  0  0  0
   22.0309   -2.9353  -13.7008 O   0  0  0  0  0  0  0  0  0  0  0  0
  2  1  1  0
  3  2  1  0
  3  4  1  1
  5  6  2  0
  5  3  1  0
  8  7  1  1
  8  9  1  0
  9  5  1  0
 10  8  1  0
 10 15  1  0
 11 10  2  0
 12 13  1  0
 14 13  1  6
 14 15  1  0
 14 16  1  0
 16 17  2  0
 16 18  1  0
M  END
$$$$
