SAS.pdb
     RDKit          3D

 18 17  0  0  1  0  0  0  0  0999 V2000
   20.0999   -8.8834  -20.2844 O   0  0  0  0  0  0  0  0  0  0  0  0
   20.7721  -10.0814  -20.2339 C   0  0  0  0  0  0  0  0  0  0  0  0
   20.5139  -10.8671  -18.9724 C   0  0  2  0  0  0  0  0  0  0  0  0
   19.1937  -11.4191  -18.9523 N   0  0  0  0  0  0  0  0  0  0  0  0
   20.8570  -10.1210  -17.7455 C   0  0  0  0  0  0  0  0  0  0  0  0
   19.9114   -9.6379  -17.0712 O   0  0  0  0  0  0  0  0  0  0  0  0
   23.9316   -9.2451  -15.6769 C   0  0  0  0  0  0  0  0  0  0  0  0
   22.5110   -9.1216  -16.1209 C   0  0  2  0  0  0  0  0  0  0  0  0
   22.1748   -9.9073  -17.2687 N   0  0  0  0  0  0  0  0  0  0  0  0
   22.1803   -7.6901  -16.2625 C   0  0  0  0  0  0  0  0  0  0  0  0
   22.3602   -7.1848  -17.4015 O   0  0  0  0  0  0  0  0  0  0  0  0
   19.1985   -5.8053  -15.9554 O   0  0  0  0  0  0  0  0  0  0  0  0
   20.0025   -5.0880  -15.0482 C   0  0  0  0  0  0  0  0  0  0  0  0
   21.4248   -5.4763  -15.3299 C   0  0  2  0  0  0  0  0  0  0  0  0
   21.6835   -6.8786  -15.2066 N   0  0  0  0  0  0  0  0  0  0  0  0
   22.3044   -4.6612  -14.4374 C   0  0  0  0  0  0  0  0  0  0  0  0
   23.0532   -5.1699  -13.5677 O   0  0  0  0  0  0  0  0  0  0  0  0
   22.2740   -3.2848  -14.5966 O   0  0  0  0  0  0  0  0  0  0  0  0
  2  1  1  0
  3  2  1  0
  3  4  1  1
  5  6  2  0
  5  3  1  0
  8  7  1  6
  8  9  1  0
  9  5  1  0
 10  8  1  0
 10 15  1  0
 11 10  2  0
 12 13  1  0
 14 13  1  1
 14 15  1  0
 14 16  1  0
 16 17  2  0
 16 18  1  0
M  END
$$$$
