SAS.pdb
     RDKit          3D

 18 17  0  0  1  0  0  0  0  0999 V2000
   13.6939   -8.1911   -9.6260 O   0  0  0  0  0  0  0  0  0  0  0  0
   14.8264   -7.9966  -10.3805 C   0  0  0  0  0  0  0  0  0  0  0  0
   15.1013   -9.1124  -11.3576 C   0  0  2  0  0  0  0  0  0  0  0  0
   15.1484  -10.3866  -10.7078 N   0  0  0  0  0  0  0  0  0  0  0  0
   16.2694   -8.8504  -12.2215 C   0  0  0  0  0  0  0  0  0  0  0  0
   17.4016   -9.1932  -11.7939 O   0  0  0  0  0  0  0  0  0  0  0  0
   16.9984   -7.6842  -15.7648 C   0  0  0  0  0  0  0  0  0  0  0  0
   17.3408   -8.0135  -14.3489 C   0  0  2  0  0  0  0  0  0  0  0  0
   16.2115   -8.2403  -13.4998 N   0  0  0  0  0  0  0  0  0  0  0  0
   18.2748   -6.9921  -13.8361 C   0  0  0  0  0  0  0  0  0  0  0  0
   17.7618   -6.0350  -13.1988 O   0  0  0  0  0  0  0  0  0  0  0  0
   21.9645   -7.5197  -12.4387 O   0  0  0  0  0  0  0  0  0  0  0  0
   21.9964   -6.4809  -13.3892 C   0  0  0  0  0  0  0  0  0  0  0  0
   20.5807   -6.0158  -13.5696 C   0  0  2  0  0  0  0  0  0  0  0  0
   19.6834   -7.0352  -14.0214 N   0  0  0  0  0  0  0  0  0  0  0  0
   20.6024   -4.8373  -14.4891 C   0  0  0  0  0  0  0  0  0  0  0  0
   21.1737   -3.7572  -14.2009 O   0  0  0  0  0  0  0  0  0  0  0  0
   19.9562   -4.9677  -15.7081 O   0  0  0  0  0  0  0  0  0  0  0  0
  2  1  1  0
  3  2  1  0
  3  4  1  1
  5  6  2  0
  5  3  1  0
  8  7  1  6
  8  9  1  0
  9  5  1  0
 10  8  1  0
 10 15  1  0
 11 10  2  0
 12 13  1  0
 14 13  1  6
 14 15  1  0
 14 16  1  0
 16 17  2  0
 16 18  1  0
M  END
$$$$
