HIQ.pdb
     RDKit          3D

 28 28  0  0  1  0  0  0  0  0999 V2000
   26.2023  -20.1589  -17.0328 N   0  0  0  0  0  0  0  0  0  0  0  0
   25.4453  -19.2685  -16.1707 C   0  0  1  0  0  0  0  0  0  0  0  0
   24.4267  -18.4758  -16.9954 C   0  0  0  0  0  0  0  0  0  0  0  0
   25.1785  -17.4581  -17.7447 C   0  0  0  0  0  0  0  0  0  0  0  0
   26.5305  -17.2369  -17.7445 C   0  0  0  0  0  0  0  0  0  0  0  0
   26.8176  -16.2126  -18.5632 N   0  0  0  0  0  0  0  0  0  0  0  0
   25.6537  -15.7693  -19.0943 C   0  0  0  0  0  0  0  0  0  0  0  0
   24.6560  -16.5465  -18.5802 N   0  0  0  0  0  0  0  0  0  0  0  0
   24.7159  -20.0907  -15.1787 C   0  0  0  0  0  0  0  0  0  0  0  0
   24.2052  -21.2140  -15.4987 O   0  0  0  0  0  0  0  0  0  0  0  0
   26.7956  -20.6651  -10.2574 C   0  0  0  0  0  0  0  0  0  0  0  0
   26.0285  -20.9137  -11.5210 C   0  0  0  0  0  0  0  0  0  0  0  0
   24.5877  -20.5032  -11.5010 C   0  0  2  0  0  0  0  0  0  0  0  0
   23.8358  -21.2831  -10.4402 C   0  0  0  0  0  0  0  0  0  0  0  0
   23.8940  -20.4872  -12.8085 C   0  0  2  0  0  0  0  0  0  0  0  0
   24.5357  -19.6964  -13.8265 N   0  0  0  0  0  0  0  0  0  0  0  0
   22.4575  -20.0815  -12.6938 C   0  0  0  0  0  0  0  0  0  0  0  0
   22.1877  -18.9136  -12.3375 O   0  0  0  0  0  0  0  0  0  0  0  0
   17.7665  -21.9547  -16.3512 N   0  0  0  0  0  0  0  0  0  0  0  0
   18.6952  -20.8983  -16.4933 C   0  0  0  0  0  0  0  0  0  0  0  0
   18.8243  -20.3605  -17.6094 O   0  0  0  0  0  0  0  0  0  0  0  0
   19.4966  -20.4387  -15.3519 C   0  0  0  0  0  0  0  0  0  0  0  0
   19.2161  -21.0936  -14.0523 C   0  0  0  0  0  0  0  0  0  0  0  0
   19.9866  -20.6106  -12.8727 C   0  0  2  0  0  0  0  0  0  0  0  0
   21.4013  -20.9774  -12.9755 N   0  0  0  0  0  0  0  0  0  0  0  0
   19.4327  -21.1796  -11.6189 C   0  0  0  0  0  0  0  0  0  0  0  0
   18.3940  -20.6226  -10.9163 O   0  0  0  0  0  0  0  0  0  0  0  0
   19.9487  -22.2412  -11.1689 O   0  0  0  0  0  0  0  0  0  0  0  0
  2  1  1  6
  3  2  1  0
  4  3  1  0
  4  8  1  0
  5  4  2  0
  6  5  1  0
  6  7  1  0
  7  8  2  0
  9  2  1  0
 10  9  2  0
 12 11  1  0
 13 15  1  0
 13 12  1  0
 13 14  1  1
 15 16  1  6
 16  9  1  0
 17 18  2  0
 17 15  1  0
 20 19  1  0
 21 20  2  0
 22 20  1  0
 24 23  1  6
 23 22  1  0
 24 25  1  0
 25 17  1  0
 26 27  1  0
 26 24  1  0
 28 26  2  0
M  END
$$$$
