HIQ.pdb
     RDKit          3D

 28 28  0  0  1  0  0  0  0  0999 V2000
   19.9691  -13.6159  -16.3026 N   0  0  0  0  0  0  0  0  0  0  0  0
   19.8298  -12.2067  -16.6249 C   0  0  1  0  0  0  0  0  0  0  0  0
   18.4040  -11.7352  -16.3230 C   0  0  0  0  0  0  0  0  0  0  0  0
   17.5263  -12.3453  -17.3328 C   0  0  0  0  0  0  0  0  0  0  0  0
   16.6490  -13.3851  -17.1713 C   0  0  0  0  0  0  0  0  0  0  0  0
   16.0368  -13.6409  -18.3382 N   0  0  0  0  0  0  0  0  0  0  0  0
   16.5158  -12.7685  -19.2561 C   0  0  0  0  0  0  0  0  0  0  0  0
   17.4307  -11.9792  -18.6207 N   0  0  0  0  0  0  0  0  0  0  0  0
   20.7722  -11.4406  -15.7781 C   0  0  0  0  0  0  0  0  0  0  0  0
   20.7357  -11.5238  -14.5066 O   0  0  0  0  0  0  0  0  0  0  0  0
   26.5215  -10.0704  -14.8492 C   0  0  0  0  0  0  0  0  0  0  0  0
   25.1108   -9.5699  -14.7685 C   0  0  0  0  0  0  0  0  0  0  0  0
   24.1025  -10.3278  -15.5772 C   0  0  2  0  0  0  0  0  0  0  0  0
   24.6122  -10.5333  -16.9902 C   0  0  0  0  0  0  0  0  0  0  0  0
   22.7126   -9.8206  -15.5310 C   0  0  2  0  0  0  0  0  0  0  0  0
   21.7649  -10.5753  -16.3093 N   0  0  0  0  0  0  0  0  0  0  0  0
   22.6155   -8.3718  -15.8953 C   0  0  0  0  0  0  0  0  0  0  0  0
   22.5786   -8.0555  -17.1046 O   0  0  0  0  0  0  0  0  0  0  0  0
   19.1909   -4.0062  -14.1444 N   0  0  0  0  0  0  0  0  0  0  0  0
   20.3248   -3.1705  -14.2651 C   0  0  0  0  0  0  0  0  0  0  0  0
   20.1530   -1.9469  -14.4222 O   0  0  0  0  0  0  0  0  0  0  0  0
   21.6825   -3.7271  -14.2083 C   0  0  0  0  0  0  0  0  0  0  0  0
   21.7785   -5.2008  -14.0839 C   0  0  0  0  0  0  0  0  0  0  0  0
   22.3689   -5.9385  -15.2352 C   0  0  2  0  0  0  0  0  0  0  0  0
   22.5645   -7.3548  -14.9152 N   0  0  0  0  0  0  0  0  0  0  0  0
   23.6752   -5.3478  -15.6190 C   0  0  0  0  0  0  0  0  0  0  0  0
   24.8807   -5.7473  -15.0993 O   0  0  0  0  0  0  0  0  0  0  0  0
   23.6793   -4.4196  -16.4758 O   0  0  0  0  0  0  0  0  0  0  0  0
  2  1  1  1
  3  2  1  0
  4  3  1  0
  4  8  1  0
  5  4  2  0
  6  5  1  0
  6  7  1  0
  7  8  2  0
  9  2  1  0
 10  9  2  0
 12 11  1  0
 13 15  1  0
 13 12  1  0
 13 14  1  6
 15 16  1  6
 16  9  1  0
 17 18  2  0
 17 15  1  0
 20 19  1  0
 21 20  2  0
 22 20  1  0
 24 23  1  1
 23 22  1  0
 24 25  1  0
 25 17  1  0
 26 27  1  0
 26 24  1  0
 28 26  2  0
M  END
$$$$
