HIQ.pdb
     RDKit          3D

 28 28  0  0  1  0  0  0  0  0999 V2000
   27.9439  -21.5302  -15.9977 N   0  0  0  0  0  0  0  0  0  0  0  0
   27.2661  -20.3837  -15.4188 C   0  0  1  0  0  0  0  0  0  0  0  0
   26.7004  -19.4905  -16.5272 C   0  0  0  0  0  0  0  0  0  0  0  0
   27.8446  -18.8323  -17.1752 C   0  0  0  0  0  0  0  0  0  0  0  0
   28.8730  -18.1493  -16.5813 C   0  0  0  0  0  0  0  0  0  0  0  0
   29.7167  -17.7001  -17.5239 N   0  0  0  0  0  0  0  0  0  0  0  0
   29.2368  -18.0909  -18.7282 C   0  0  0  0  0  0  0  0  0  0  0  0
   28.0852  -18.7860  -18.4951 N   0  0  0  0  0  0  0  0  0  0  0  0
   26.1442  -20.8772  -14.5883 C   0  0  0  0  0  0  0  0  0  0  0  0
   25.3882  -21.8208  -14.9920 O   0  0  0  0  0  0  0  0  0  0  0  0
   26.6654  -20.8988   -9.1004 C   0  0  0  0  0  0  0  0  0  0  0  0
   26.2461  -21.3085  -10.4800 C   0  0  0  0  0  0  0  0  0  0  0  0
   25.0087  -20.6492  -11.0084 C   0  0  2  0  0  0  0  0  0  0  0  0
   23.8103  -21.0290  -10.1608 C   0  0  0  0  0  0  0  0  0  0  0  0
   24.7599  -20.7937  -12.4605 C   0  0  2  0  0  0  0  0  0  0  0  0
   25.8349  -20.3467  -13.3079 N   0  0  0  0  0  0  0  0  0  0  0  0
   23.4815  -20.1460  -12.8933 C   0  0  0  0  0  0  0  0  0  0  0  0
   23.3952  -18.8990  -12.8571 O   0  0  0  0  0  0  0  0  0  0  0  0
   19.4479  -22.1377  -17.3050 N   0  0  0  0  0  0  0  0  0  0  0  0
   18.7597  -21.0575  -16.7065 C   0  0  0  0  0  0  0  0  0  0  0  0
   17.7119  -20.6459  -17.2396 O   0  0  0  0  0  0  0  0  0  0  0  0
   19.2647  -20.4269  -15.4803 C   0  0  0  0  0  0  0  0  0  0  0  0
   20.5637  -20.9310  -14.9751 C   0  0  0  0  0  0  0  0  0  0  0  0
   21.0976  -20.2989  -13.7367 C   0  0  2  0  0  0  0  0  0  0  0  0
   22.3733  -20.9007  -13.3402 N   0  0  0  0  0  0  0  0  0  0  0  0
   20.1313  -20.4416  -12.6194 C   0  0  0  0  0  0  0  0  0  0  0  0
   20.0729  -21.5328  -11.7895 O   0  0  0  0  0  0  0  0  0  0  0  0
   19.3108  -19.5022  -12.4193 O   0  0  0  0  0  0  0  0  0  0  0  0
  2  1  1  6
  3  2  1  0
  4  3  1  0
  4  8  1  0
  5  4  2  0
  6  5  1  0
  6  7  1  0
  7  8  2  0
  9  2  1  0
 10  9  2  0
 12 11  1  0
 13 15  1  0
 13 12  1  0
 13 14  1  1
 15 16  1  6
 16  9  1  0
 17 18  2  0
 17 15  1  0
 20 19  1  0
 21 20  2  0
 22 20  1  0
 24 23  1  6
 23 22  1  0
 24 25  1  0
 25 17  1  0
 26 27  1  0
 26 24  1  0
 28 26  2  0
M  END
$$$$
