HIQ.pdb
     RDKit          3D

 28 28  0  0  1  0  0  0  0  0999 V2000
   24.2849  -16.3127  -17.9784 N   0  0  0  0  0  0  0  0  0  0  0  0
   24.4365  -15.0378  -18.6572 C   0  0  1  0  0  0  0  0  0  0  0  0
   23.1810  -14.7241  -19.4767 C   0  0  0  0  0  0  0  0  0  0  0  0
   23.1038  -15.7294  -20.5471 C   0  0  0  0  0  0  0  0  0  0  0  0
   22.0159  -16.4650  -20.9375 C   0  0  0  0  0  0  0  0  0  0  0  0
   22.3613  -17.2726  -21.9526 N   0  0  0  0  0  0  0  0  0  0  0  0
   23.6715  -17.0618  -22.2210 C   0  0  0  0  0  0  0  0  0  0  0  0
   24.1122  -16.1098  -21.3473 N   0  0  0  0  0  0  0  0  0  0  0  0
   24.6101  -13.9833  -17.6326 C   0  0  0  0  0  0  0  0  0  0  0  0
   24.0216  -14.0549  -16.5041 O   0  0  0  0  0  0  0  0  0  0  0  0
   29.3133  -12.5855  -15.9009 C   0  0  0  0  0  0  0  0  0  0  0  0
   27.8403  -12.7885  -16.0902 C   0  0  0  0  0  0  0  0  0  0  0  0
   27.0600  -11.5729  -16.4882 C   0  0  2  0  0  0  0  0  0  0  0  0
   27.2371  -10.4760  -15.4566 C   0  0  0  0  0  0  0  0  0  0  0  0
   25.6443  -11.7966  -16.8583 C   0  0  2  0  0  0  0  0  0  0  0  0
   25.4278  -12.8389  -17.8279 N   0  0  0  0  0  0  0  0  0  0  0  0
   24.9625  -10.5436  -17.3125 C   0  0  0  0  0  0  0  0  0  0  0  0
   25.2666  -10.0616  -18.4256 O   0  0  0  0  0  0  0  0  0  0  0  0
   19.3549   -7.6706  -16.7839 N   0  0  0  0  0  0  0  0  0  0  0  0
   19.7343   -8.6751  -15.8644 C   0  0  0  0  0  0  0  0  0  0  0  0
   18.9829   -8.9207  -14.9019 O   0  0  0  0  0  0  0  0  0  0  0  0
   20.9892   -9.4187  -16.0336 C   0  0  0  0  0  0  0  0  0  0  0  0
   21.8039   -9.0619  -17.2192 C   0  0  0  0  0  0  0  0  0  0  0  0
   23.2339   -8.7222  -16.9784 C   0  0  2  0  0  0  0  0  0  0  0  0
   23.9886   -9.8922  -16.5222 N   0  0  0  0  0  0  0  0  0  0  0  0
   23.3510   -7.6482  -15.9608 C   0  0  0  0  0  0  0  0  0  0  0  0
   23.0080   -6.3385  -16.1839 O   0  0  0  0  0  0  0  0  0  0  0  0
   23.7945   -7.9569  -14.8190 O   0  0  0  0  0  0  0  0  0  0  0  0
  2  1  1  1
  3  2  1  0
  4  3  1  0
  4  8  1  0
  5  4  2  0
  6  5  1  0
  6  7  1  0
  7  8  2  0
  9  2  1  0
 10  9  2  0
 12 11  1  0
 13 15  1  0
 13 12  1  0
 13 14  1  1
 15 16  1  6
 16  9  1  0
 17 18  2  0
 17 15  1  0
 20 19  1  0
 21 20  2  0
 22 20  1  0
 24 23  1  1
 23 22  1  0
 24 25  1  0
 25 17  1  0
 26 27  1  0
 26 24  1  0
 28 26  2  0
M  END
$$$$
