HIQ.pdb
     RDKit          3D

 28 28  0  0  1  0  0  0  0  0999 V2000
   15.6967  -23.1996   -1.5941 N   0  0  0  0  0  0  0  0  0  0  0  0
   15.0283  -22.3410   -0.6322 C   0  0  1  0  0  0  0  0  0  0  0  0
   13.7112  -22.9798   -0.1810 C   0  0  0  0  0  0  0  0  0  0  0  0
   12.7943  -22.9321   -1.3296 C   0  0  0  0  0  0  0  0  0  0  0  0
   12.1356  -21.8443   -1.8393 C   0  0  0  0  0  0  0  0  0  0  0  0
   11.3942  -22.2219   -2.8927 N   0  0  0  0  0  0  0  0  0  0  0  0
   11.5711  -23.5529   -3.0668 C   0  0  0  0  0  0  0  0  0  0  0  0
   12.4351  -23.9733   -2.0969 N   0  0  0  0  0  0  0  0  0  0  0  0
   15.9104  -22.1889    0.5471 C   0  0  0  0  0  0  0  0  0  0  0  0
   16.7151  -23.1145    0.8944 O   0  0  0  0  0  0  0  0  0  0  0  0
   19.5307  -18.5565    0.6356 C   0  0  0  0  0  0  0  0  0  0  0  0
   18.6471  -19.7329    0.9226 C   0  0  0  0  0  0  0  0  0  0  0  0
   17.7879  -19.6204    2.1451 C   0  0  2  0  0  0  0  0  0  0  0  0
   18.6338  -19.2487    3.3472 C   0  0  0  0  0  0  0  0  0  0  0  0
   16.8740  -20.7547    2.4086 C   0  0  2  0  0  0  0  0  0  0  0  0
   15.9242  -21.0250    1.3606 N   0  0  0  0  0  0  0  0  0  0  0  0
   16.1522  -20.6218    3.7134 C   0  0  0  0  0  0  0  0  0  0  0  0
   14.9932  -20.1524    3.7161 O   0  0  0  0  0  0  0  0  0  0  0  0
   14.1592  -24.8297    6.9425 N   0  0  0  0  0  0  0  0  0  0  0  0
   15.5697  -24.7483    6.8919 C   0  0  0  0  0  0  0  0  0  0  0  0
   16.2347  -25.7943    7.0153 O   0  0  0  0  0  0  0  0  0  0  0  0
   16.2453  -23.4589    6.6986 C   0  0  0  0  0  0  0  0  0  0  0  0
   15.3638  -22.2848    6.4961 C   0  0  0  0  0  0  0  0  0  0  0  0
   16.0287  -20.9814    6.2181 C   0  0  2  0  0  0  0  0  0  0  0  0
   16.7411  -21.0104    4.9381 N   0  0  0  0  0  0  0  0  0  0  0  0
   16.9918  -20.6461    7.2963 C   0  0  0  0  0  0  0  0  0  0  0  0
   16.6275  -20.1666    8.5293 O   0  0  0  0  0  0  0  0  0  0  0  0
   18.2229  -20.8109    7.0663 O   0  0  0  0  0  0  0  0  0  0  0  0
  2  1  1  6
  3  2  1  0
  4  3  1  0
  4  8  1  0
  5  4  2  0
  6  5  1  0
  6  7  1  0
  7  8  2  0
  9  2  1  0
 10  9  2  0
 12 11  1  0
 13 15  1  0
 13 12  1  0
 13 14  1  1
 15 16  1  6
 16  9  1  0
 17 18  2  0
 17 15  1  0
 20 19  1  0
 21 20  2  0
 22 20  1  0
 24 23  1  1
 23 22  1  0
 24 25  1  0
 25 17  1  0
 26 27  1  0
 26 24  1  0
 28 26  2  0
M  END
$$$$
