HIQ.pdb
     RDKit          3D

 28 28  0  0  1  0  0  0  0  0999 V2000
   26.9931   -7.8420  -21.1456 N   0  0  0  0  0  0  0  0  0  0  0  0
   26.4921   -7.0980  -20.0034 C   0  0  1  0  0  0  0  0  0  0  0  0
   25.6972   -5.8773  -20.4767 C   0  0  0  0  0  0  0  0  0  0  0  0
   26.6639   -4.9323  -21.0553 C   0  0  0  0  0  0  0  0  0  0  0  0
   26.9437   -4.7152  -22.3788 C   0  0  0  0  0  0  0  0  0  0  0  0
   27.8892   -3.7687  -22.4880 N   0  0  0  0  0  0  0  0  0  0  0  0
   28.2231   -3.3718  -21.2373 C   0  0  0  0  0  0  0  0  0  0  0  0
   27.4600   -4.0976  -20.3687 N   0  0  0  0  0  0  0  0  0  0  0  0
   25.5892   -7.9824  -19.2322 C   0  0  0  0  0  0  0  0  0  0  0  0
   24.7316   -8.7229  -19.8164 O   0  0  0  0  0  0  0  0  0  0  0  0
   27.4260  -11.1878  -15.3791 C   0  0  0  0  0  0  0  0  0  0  0  0
   26.5907  -10.5605  -16.4541 C   0  0  0  0  0  0  0  0  0  0  0  0
   25.4551   -9.7046  -15.9818 C   0  0  2  0  0  0  0  0  0  0  0  0
   24.5084  -10.5186  -15.1217 C   0  0  0  0  0  0  0  0  0  0  0  0
   24.7579   -8.9121  -17.0197 C   0  0  2  0  0  0  0  0  0  0  0  0
   25.6120   -8.0686  -17.8150 N   0  0  0  0  0  0  0  0  0  0  0  0
   23.6315   -8.0980  -16.4632 C   0  0  0  0  0  0  0  0  0  0  0  0
   23.8995   -7.1040  -15.7533 O   0  0  0  0  0  0  0  0  0  0  0  0
   20.1243   -4.4657  -18.0849 N   0  0  0  0  0  0  0  0  0  0  0  0
   19.0303   -5.0526  -17.4086 C   0  0  0  0  0  0  0  0  0  0  0  0
   18.0636   -4.3323  -17.0953 O   0  0  0  0  0  0  0  0  0  0  0  0
   19.0267   -6.4832  -17.0775 C   0  0  0  0  0  0  0  0  0  0  0  0
   20.2632   -7.2316  -17.4055 C   0  0  0  0  0  0  0  0  0  0  0  0
   21.1575   -7.5889  -16.2693 C   0  0  2  0  0  0  0  0  0  0  0  0
   22.2787   -8.4195  -16.7162 N   0  0  0  0  0  0  0  0  0  0  0  0
   20.4037   -8.3225  -15.2223 C   0  0  0  0  0  0  0  0  0  0  0  0
   19.8137   -7.7225  -14.1385 O   0  0  0  0  0  0  0  0  0  0  0  0
   20.2986   -9.5764  -15.3338 O   0  0  0  0  0  0  0  0  0  0  0  0
  2  1  1  6
  3  2  1  0
  4  3  1  0
  4  8  1  0
  5  4  2  0
  6  5  1  0
  6  7  1  0
  7  8  2  0
  9  2  1  0
 10  9  2  0
 12 11  1  0
 13 15  1  0
 13 12  1  0
 13 14  1  6
 15 16  1  1
 16  9  1  0
 17 18  2  0
 17 15  1  0
 20 19  1  0
 21 20  2  0
 22 20  1  0
 24 23  1  6
 23 22  1  0
 24 25  1  0
 25 17  1  0
 26 27  1  0
 26 24  1  0
 28 26  2  0
M  END
$$$$
