HIQ.pdb
     RDKit          3D

 28 28  0  0  1  0  0  0  0  0999 V2000
   21.8593  -13.1940  -18.0812 N   0  0  0  0  0  0  0  0  0  0  0  0
   21.8307  -12.3435  -16.9043 C   0  0  1  0  0  0  0  0  0  0  0  0
   23.1353  -11.5481  -16.7966 C   0  0  0  0  0  0  0  0  0  0  0  0
   24.2054  -12.5142  -16.5070 C   0  0  0  0  0  0  0  0  0  0  0  0
   25.2106  -12.9347  -17.3375 C   0  0  0  0  0  0  0  0  0  0  0  0
   25.9825  -13.8239  -16.6930 N   0  0  0  0  0  0  0  0  0  0  0  0
   25.4793  -13.9807  -15.4458 C   0  0  0  0  0  0  0  0  0  0  0  0
   24.3867  -13.1679  -15.3487 N   0  0  0  0  0  0  0  0  0  0  0  0
   20.7052  -11.3920  -17.0455 C   0  0  0  0  0  0  0  0  0  0  0  0
   20.4707  -10.8052  -18.1526 O   0  0  0  0  0  0  0  0  0  0  0  0
   16.5907  -13.0619  -16.6824 C   0  0  0  0  0  0  0  0  0  0  0  0
   16.9718  -11.6661  -17.0743 C   0  0  0  0  0  0  0  0  0  0  0  0
   17.3804  -10.7618  -15.9517 C   0  0  2  0  0  0  0  0  0  0  0  0
   16.2860   -9.7517  -15.6680 C   0  0  0  0  0  0  0  0  0  0  0  0
   18.7219  -10.1460  -16.0632 C   0  0  2  0  0  0  0  0  0  0  0  0
   19.8229  -11.0704  -15.9803 N   0  0  0  0  0  0  0  0  0  0  0  0
   18.9291   -9.0346  -15.0819 C   0  0  0  0  0  0  0  0  0  0  0  0
   19.7061   -9.2175  -14.1193 O   0  0  0  0  0  0  0  0  0  0  0  0
   22.7739   -5.4351  -15.2784 N   0  0  0  0  0  0  0  0  0  0  0  0
   22.0320   -4.7076  -14.3198 C   0  0  0  0  0  0  0  0  0  0  0  0
   22.5825   -3.7580  -13.7311 O   0  0  0  0  0  0  0  0  0  0  0  0
   20.6387   -5.0593  -14.0177 C   0  0  0  0  0  0  0  0  0  0  0  0
   20.1015   -6.2523  -14.7140 C   0  0  0  0  0  0  0  0  0  0  0  0
   18.6717   -6.5900  -14.4694 C   0  0  2  0  0  0  0  0  0  0  0  0
   18.2741   -7.7890  -15.2118 N   0  0  0  0  0  0  0  0  0  0  0  0
   17.7931   -5.4632  -14.8708 C   0  0  0  0  0  0  0  0  0  0  0  0
   17.4279   -4.4387  -14.0342 O   0  0  0  0  0  0  0  0  0  0  0  0
   17.3529   -5.4451  -16.0547 O   0  0  0  0  0  0  0  0  0  0  0  0
  2  1  1  6
  3  2  1  0
  4  3  1  0
  4  8  1  0
  5  4  2  0
  6  5  1  0
  6  7  1  0
  7  8  2  0
  9  2  1  0
 10  9  2  0
 12 11  1  0
 13 15  1  0
 13 12  1  0
 13 14  1  6
 15 16  1  1
 16  9  1  0
 17 18  2  0
 17 15  1  0
 20 19  1  0
 21 20  2  0
 22 20  1  0
 24 23  1  6
 23 22  1  0
 24 25  1  0
 25 17  1  0
 26 27  1  0
 26 24  1  0
 28 26  2  0
M  END
$$$$
