HIQ.pdb
     RDKit          3D

 28 28  0  0  1  0  0  0  0  0999 V2000
   23.0007  -15.5767  -18.1448 N   0  0  0  0  0  0  0  0  0  0  0  0
   23.2766  -14.2845  -18.7475 C   0  0  1  0  0  0  0  0  0  0  0  0
   22.1440  -13.8955  -19.7026 C   0  0  0  0  0  0  0  0  0  0  0  0
   22.2316  -14.7949  -20.8627 C   0  0  0  0  0  0  0  0  0  0  0  0
   22.8831  -14.5818  -22.0488 C   0  0  0  0  0  0  0  0  0  0  0  0
   22.7214  -15.6485  -22.8475 N   0  0  0  0  0  0  0  0  0  0  0  0
   21.9659  -16.5530  -22.1809 C   0  0  0  0  0  0  0  0  0  0  0  0
   21.6736  -16.0118  -20.9622 N   0  0  0  0  0  0  0  0  0  0  0  0
   23.3544  -13.2748  -17.6675 C   0  0  0  0  0  0  0  0  0  0  0  0
   22.5602  -13.3103  -16.6710 O   0  0  0  0  0  0  0  0  0  0  0  0
   28.0206  -12.2538  -15.4194 C   0  0  0  0  0  0  0  0  0  0  0  0
   26.5401  -12.3530  -15.6317 C   0  0  0  0  0  0  0  0  0  0  0  0
   25.8662  -11.1071  -16.1201 C   0  0  2  0  0  0  0  0  0  0  0  0
   26.0243   -9.9934  -15.1036 C   0  0  0  0  0  0  0  0  0  0  0  0
   24.4738  -11.2612  -16.5983 C   0  0  2  0  0  0  0  0  0  0  0  0
   24.2996  -12.2150  -17.6629 N   0  0  0  0  0  0  0  0  0  0  0  0
   23.8516   -9.9573  -16.9905 C   0  0  0  0  0  0  0  0  0  0  0  0
   24.3042   -9.3482  -17.9844 O   0  0  0  0  0  0  0  0  0  0  0  0
   17.8242   -8.4230  -16.9007 N   0  0  0  0  0  0  0  0  0  0  0  0
   18.4365   -7.1574  -17.0487 C   0  0  0  0  0  0  0  0  0  0  0  0
   17.7181   -6.1694  -17.2921 O   0  0  0  0  0  0  0  0  0  0  0  0
   19.8911   -7.0026  -16.9203 C   0  0  0  0  0  0  0  0  0  0  0  0
   20.6635   -8.2497  -16.7086 C   0  0  0  0  0  0  0  0  0  0  0  0
   22.1450   -8.1206  -16.6271 C   0  0  2  0  0  0  0  0  0  0  0  0
   22.7711   -9.3968  -16.2721 N   0  0  0  0  0  0  0  0  0  0  0  0
   22.5255   -7.1017  -15.6174 C   0  0  0  0  0  0  0  0  0  0  0  0
   22.6962   -5.7694  -15.8977 O   0  0  0  0  0  0  0  0  0  0  0  0
   22.7044   -7.4828  -14.4264 O   0  0  0  0  0  0  0  0  0  0  0  0
  2  1  1  1
  3  2  1  0
  4  3  1  0
  4  8  1  0
  5  4  2  0
  6  5  1  0
  6  7  1  0
  7  8  2  0
  9  2  1  0
 10  9  2  0
 12 11  1  0
 13 15  1  0
 13 12  1  0
 13 14  1  1
 15 16  1  6
 16  9  1  0
 17 18  2  0
 17 15  1  0
 20 19  1  0
 21 20  2  0
 22 20  1  0
 24 23  1  1
 23 22  1  0
 24 25  1  0
 25 17  1  0
 26 27  1  0
 26 24  1  0
 28 26  2  0
M  END
$$$$
