HMG.pdb
     RDKit          3D

 23 23  0  0  1  0  0  0  0  0999 V2000
   10.6167  -13.5538   20.6944 N   0  0  0  0  0  0  0  0  0  0  0  0
    9.3695  -14.1355   21.0826 C   0  0  1  0  0  0  0  0  0  0  0  0
    9.0382  -15.2293   20.0929 C   0  0  0  0  0  0  0  0  0  0  0  0
    8.6566  -14.5505   18.8200 C   0  0  0  0  0  0  0  0  0  0  0  0
    9.4663  -13.8121   17.9834 C   0  0  0  0  0  0  0  0  0  0  0  0
    8.7591  -13.3576   16.9312 N   0  0  0  0  0  0  0  0  0  0  0  0
    7.5045  -13.8038   17.0958 C   0  0  0  0  0  0  0  0  0  0  0  0
    7.4262  -14.5240   18.2291 N   0  0  0  0  0  0  0  0  0  0  0  0
    9.3724  -14.6270   22.4836 C   0  0  0  0  0  0  0  0  0  0  0  0
   10.4356  -15.0575   22.9998 O   0  0  0  0  0  0  0  0  0  0  0  0
    6.7161  -10.4334   26.6866 C   0  0  0  0  0  0  0  0  0  0  0  0
    7.1898  -12.1799   26.8090 S   0  0  0  0  0  0  0  0  0  0  0  0
    6.7933  -13.0690   25.2727 C   0  0  0  0  0  0  0  0  0  0  0  0
    7.0146  -14.5534   25.4473 C   0  0  0  0  0  0  0  0  0  0  0  0
    8.2355  -15.0292   24.6938 C   0  0  2  0  0  0  0  0  0  0  0  0
    8.2074  -14.6416   23.3064 N   0  0  0  0  0  0  0  0  0  0  0  0
    8.3334  -16.5097   24.7394 C   0  0  0  0  0  0  0  0  0  0  0  0
    7.2853  -17.1766   24.7663 O   0  0  0  0  0  0  0  0  0  0  0  0
    9.5799  -17.1903   24.7533 N   0  0  0  0  0  0  0  0  0  0  0  0
   10.4167  -17.0941   25.9259 C   0  0  0  0  0  0  0  0  0  0  0  0
   10.2608  -18.3456   26.7041 C   0  0  0  0  0  0  0  0  0  0  0  0
    9.1104  -18.6364   27.1274 O   0  0  0  0  0  0  0  0  0  0  0  0
   11.2979  -19.2135   26.9945 O   0  0  0  0  0  0  0  0  0  0  0  0
  2  1  1  6
  2  3  1  0
  2  9  1  0
  4  5  2  0
  4  3  1  0
  6  5  1  0
  7  8  2  0
  7  6  1  0
  8  4  1  0
  9 16  1  0
 10  9  2  0
 12 11  1  0
 13 12  1  0
 14 13  1  0
 15 14  1  1
 15 17  1  0
 16 15  1  0
 17 19  1  0
 18 17  2  0
 19 20  1  0
 20 21  1  0
 21 22  2  0
 21 23  1  0
M  END
$$$$
