HMG.pdb
     RDKit          3D

 23 23  0  0  1  0  0  0  0  0999 V2000
   10.2064  -15.6013   19.6656 N   0  0  0  0  0  0  0  0  0  0  0  0
    9.0221  -15.6355   20.4662 C   0  0  1  0  0  0  0  0  0  0  0  0
    8.4317  -17.0236   20.3644 C   0  0  0  0  0  0  0  0  0  0  0  0
    7.9193  -17.1673   18.9704 C   0  0  0  0  0  0  0  0  0  0  0  0
    7.9421  -16.2261   17.9632 C   0  0  0  0  0  0  0  0  0  0  0  0
    7.3846  -16.7267   16.8441 N   0  0  0  0  0  0  0  0  0  0  0  0
    7.0082  -17.9811   17.1359 C   0  0  0  0  0  0  0  0  0  0  0  0
    7.3232  -18.2617   18.4131 N   0  0  0  0  0  0  0  0  0  0  0  0
    9.2642  -15.2292   21.8735 C   0  0  0  0  0  0  0  0  0  0  0  0
   10.4284  -15.2607   22.3487 O   0  0  0  0  0  0  0  0  0  0  0  0
    6.8902  -10.6800   26.9615 C   0  0  0  0  0  0  0  0  0  0  0  0
    6.3100  -12.3981   26.9289 S   0  0  0  0  0  0  0  0  0  0  0  0
    7.5857  -13.5010   26.2477 C   0  0  0  0  0  0  0  0  0  0  0  0
    7.3058  -13.8004   24.7935 C   0  0  0  0  0  0  0  0  0  0  0  0
    8.4242  -14.5968   24.1612 C   0  0  2  0  0  0  0  0  0  0  0  0
    8.2254  -14.7917   22.7476 N   0  0  0  0  0  0  0  0  0  0  0  0
    8.5262  -15.9400   24.7847 C   0  0  0  0  0  0  0  0  0  0  0  0
    7.4800  -16.5529   25.0565 O   0  0  0  0  0  0  0  0  0  0  0  0
    9.7745  -16.5490   25.0814 N   0  0  0  0  0  0  0  0  0  0  0  0
   10.2831  -16.4813   26.4310 C   0  0  0  0  0  0  0  0  0  0  0  0
    9.9190  -17.7409   27.1216 C   0  0  0  0  0  0  0  0  0  0  0  0
   10.7737  -18.2614   27.8869 O   0  0  0  0  0  0  0  0  0  0  0  0
    8.7008  -18.3805   26.9787 O   0  0  0  0  0  0  0  0  0  0  0  0
  2  1  1  6
  2  3  1  0
  2  9  1  0
  4  5  2  0
  4  3  1  0
  6  5  1  0
  7  8  2  0
  7  6  1  0
  8  4  1  0
  9 16  1  0
 10  9  2  0
 12 11  1  0
 13 12  1  0
 14 13  1  0
 15 14  1  1
 15 17  1  0
 16 15  1  0
 17 19  1  0
 18 17  2  0
 19 20  1  0
 20 21  1  0
 21 22  2  0
 21 23  1  0
M  END
$$$$
