HMG.pdb
     RDKit          3D

 23 23  0  0  1  0  0  0  0  0999 V2000
    7.5491  -17.0582   20.8714 N   0  0  0  0  0  0  0  0  0  0  0  0
    8.9256  -16.7103   21.0422 C   0  0  1  0  0  0  0  0  0  0  0  0
    9.4385  -16.1800   19.7225 C   0  0  0  0  0  0  0  0  0  0  0  0
    8.5083  -15.0879   19.3120 C   0  0  0  0  0  0  0  0  0  0  0  0
    7.5100  -14.5047   20.0630 C   0  0  0  0  0  0  0  0  0  0  0  0
    6.8827  -13.5525   19.3463 N   0  0  0  0  0  0  0  0  0  0  0  0
    7.4779  -13.5283   18.1441 C   0  0  0  0  0  0  0  0  0  0  0  0
    8.4593  -14.4475   18.1073 N   0  0  0  0  0  0  0  0  0  0  0  0
    9.1458  -15.7540   22.1563 C   0  0  0  0  0  0  0  0  0  0  0  0
   10.1986  -15.0671   22.2004 O   0  0  0  0  0  0  0  0  0  0  0  0
    6.4007  -11.0673   27.8835 C   0  0  0  0  0  0  0  0  0  0  0  0
    6.0199  -12.3459   26.6548 S   0  0  0  0  0  0  0  0  0  0  0  0
    7.5423  -13.1239   26.0346 C   0  0  0  0  0  0  0  0  0  0  0  0
    7.2354  -14.0335   24.8679 C   0  0  0  0  0  0  0  0  0  0  0  0
    8.4785  -14.7231   24.3543 C   0  0  2  0  0  0  0  0  0  0  0  0
    8.2078  -15.5600   23.2132 N   0  0  0  0  0  0  0  0  0  0  0  0
    9.0702  -15.5858   25.4074 C   0  0  0  0  0  0  0  0  0  0  0  0
    9.6387  -15.0459   26.3715 O   0  0  0  0  0  0  0  0  0  0  0  0
    9.0102  -17.0037   25.3529 N   0  0  0  0  0  0  0  0  0  0  0  0
   10.1723  -17.7688   25.7385 C   0  0  0  0  0  0  0  0  0  0  0  0
   10.2224  -17.8112   27.2191 C   0  0  0  0  0  0  0  0  0  0  0  0
    9.2133  -18.2534   27.8301 O   0  0  0  0  0  0  0  0  0  0  0  0
   11.3063  -17.3960   27.9714 O   0  0  0  0  0  0  0  0  0  0  0  0
  2  1  1  6
  2  3  1  0
  2  9  1  0
  4  5  2  0
  4  3  1  0
  6  5  1  0
  7  8  2  0
  7  6  1  0
  8  4  1  0
  9 16  1  0
 10  9  2  0
 12 11  1  0
 13 12  1  0
 14 13  1  0
 15 14  1  1
 15 17  1  0
 16 15  1  0
 17 19  1  0
 18 17  2  0
 19 20  1  0
 20 21  1  0
 21 22  2  0
 21 23  1  0
M  END
$$$$
