HMG.pdb
     RDKit          3D

 23 23  0  0  1  0  0  0  0  0999 V2000
    9.9999  -15.6959   21.3340 N   0  0  0  0  0  0  0  0  0  0  0  0
    8.8705  -14.9452   21.7875 C   0  0  1  0  0  0  0  0  0  0  0  0
    7.6955  -15.2916   20.9014 C   0  0  0  0  0  0  0  0  0  0  0  0
    7.8601  -14.5001   19.6472 C   0  0  0  0  0  0  0  0  0  0  0  0
    8.0541  -13.1403   19.5284 C   0  0  0  0  0  0  0  0  0  0  0  0
    8.1575  -12.7954   18.2306 N   0  0  0  0  0  0  0  0  0  0  0  0
    8.0301  -13.9295   17.5251 C   0  0  0  0  0  0  0  0  0  0  0  0
    7.8502  -14.9655   18.3638 N   0  0  0  0  0  0  0  0  0  0  0  0
    8.5730  -15.1613   23.2259 C   0  0  0  0  0  0  0  0  0  0  0  0
    9.4434  -15.6631   23.9826 O   0  0  0  0  0  0  0  0  0  0  0  0
    7.5059  -10.5879   27.2480 C   0  0  0  0  0  0  0  0  0  0  0  0
    7.3583  -12.3748   26.9746 S   0  0  0  0  0  0  0  0  0  0  0  0
    6.0585  -12.7397   25.7560 C   0  0  0  0  0  0  0  0  0  0  0  0
    5.8192  -14.2288   25.6662 C   0  0  0  0  0  0  0  0  0  0  0  0
    7.0629  -14.9698   25.2315 C   0  0  2  0  0  0  0  0  0  0  0  0
    7.3215  -14.8243   23.8216 N   0  0  0  0  0  0  0  0  0  0  0  0
    6.9307  -16.4216   25.5112 C   0  0  0  0  0  0  0  0  0  0  0  0
    5.9465  -17.0296   25.0575 O   0  0  0  0  0  0  0  0  0  0  0  0
    7.8868  -17.1397   26.2775 N   0  0  0  0  0  0  0  0  0  0  0  0
    7.6854  -18.5514   26.5032 C   0  0  0  0  0  0  0  0  0  0  0  0
    8.8706  -19.0741   27.2231 C   0  0  0  0  0  0  0  0  0  0  0  0
    8.6841  -19.6350   28.3355 O   0  0  0  0  0  0  0  0  0  0  0  0
   10.1676  -18.9846   26.7506 O   0  0  0  0  0  0  0  0  0  0  0  0
  2  1  1  6
  2  3  1  0
  2  9  1  0
  4  5  2  0
  4  3  1  0
  6  5  1  0
  7  8  2  0
  7  6  1  0
  8  4  1  0
  9 16  1  0
 10  9  2  0
 12 11  1  0
 13 12  1  0
 14 13  1  0
 15 14  1  6
 15 17  1  0
 16 15  1  0
 17 19  1  0
 18 17  2  0
 19 20  1  0
 20 21  1  0
 21 22  2  0
 21 23  1  0
M  END
$$$$
