HMG.pdb
     RDKit          3D

 23 23  0  0  1  0  0  0  0  0999 V2000
    8.3916  -12.7818   19.9110 N   0  0  0  0  0  0  0  0  0  0  0  0
    8.1841  -14.1199   20.3704 C   0  0  1  0  0  0  0  0  0  0  0  0
    9.0455  -15.0380   19.5332 C   0  0  0  0  0  0  0  0  0  0  0  0
    8.5360  -14.9413   18.1341 C   0  0  0  0  0  0  0  0  0  0  0  0
    7.6971  -13.9825   17.6073 C   0  0  0  0  0  0  0  0  0  0  0  0
    7.4609  -14.2336   16.3054 N   0  0  0  0  0  0  0  0  0  0  0  0
    8.1457  -15.3471   16.0032 C   0  0  0  0  0  0  0  0  0  0  0  0
    8.7986  -15.7860   17.0941 N   0  0  0  0  0  0  0  0  0  0  0  0
    8.4415  -14.2781   21.8241 C   0  0  0  0  0  0  0  0  0  0  0  0
    9.6052  -14.5175   22.2372 O   0  0  0  0  0  0  0  0  0  0  0  0
    8.2765  -12.0070   28.6192 C   0  0  0  0  0  0  0  0  0  0  0  0
    7.9555  -12.1891   26.8434 S   0  0  0  0  0  0  0  0  0  0  0  0
    6.8951  -13.6309   26.5201 C   0  0  0  0  0  0  0  0  0  0  0  0
    6.5386  -13.7084   25.0540 C   0  0  0  0  0  0  0  0  0  0  0  0
    7.6882  -14.2357   24.2261 C   0  0  2  0  0  0  0  0  0  0  0  0
    7.4184  -14.1720   22.8123 N   0  0  0  0  0  0  0  0  0  0  0  0
    7.9659  -15.6547   24.5617 C   0  0  0  0  0  0  0  0  0  0  0  0
    7.0633  -16.4936   24.4012 O   0  0  0  0  0  0  0  0  0  0  0  0
    9.2239  -16.0876   25.0589 N   0  0  0  0  0  0  0  0  0  0  0  0
    9.4146  -17.4873   25.3571 C   0  0  0  0  0  0  0  0  0  0  0  0
   10.1106  -17.5871   26.6616 C   0  0  0  0  0  0  0  0  0  0  0  0
   11.2811  -17.1281   26.7414 O   0  0  0  0  0  0  0  0  0  0  0  0
    9.5564  -18.1522   27.7960 O   0  0  0  0  0  0  0  0  0  0  0  0
  2  1  1  6
  2  3  1  0
  2  9  1  0
  4  5  2  0
  4  3  1  0
  6  5  1  0
  7  8  2  0
  7  6  1  0
  8  4  1  0
  9 16  1  0
 10  9  2  0
 12 11  1  0
 13 12  1  0
 14 13  1  0
 15 14  1  1
 15 17  1  0
 16 15  1  0
 17 19  1  0
 18 17  2  0
 19 20  1  0
 20 21  1  0
 21 22  2  0
 21 23  1  0
M  END
$$$$
