HMG.pdb
     RDKit          3D

 23 23  0  0  1  0  0  0  0  0999 V2000
    9.2426  -15.1946   20.3624 N   0  0  0  0  0  0  0  0  0  0  0  0
    8.4871  -15.9448   21.3169 C   0  0  1  0  0  0  0  0  0  0  0  0
    8.8486  -17.4037   21.1535 C   0  0  0  0  0  0  0  0  0  0  0  0
    8.2476  -17.8493   19.8625 C   0  0  0  0  0  0  0  0  0  0  0  0
    7.5975  -17.0759   18.9244 C   0  0  0  0  0  0  0  0  0  0  0  0
    7.1937  -17.8381   17.8901 N   0  0  0  0  0  0  0  0  0  0  0  0
    7.5842  -19.0915   18.1670 C   0  0  0  0  0  0  0  0  0  0  0  0
    8.2204  -19.1151   19.3518 N   0  0  0  0  0  0  0  0  0  0  0  0
    8.6821  -15.4698   22.7100 C   0  0  0  0  0  0  0  0  0  0  0  0
    9.7933  -15.0018   23.0681 O   0  0  0  0  0  0  0  0  0  0  0  0
    7.1539  -10.3894   26.5065 C   0  0  0  0  0  0  0  0  0  0  0  0
    7.4762  -12.1693   26.6383 S   0  0  0  0  0  0  0  0  0  0  0  0
    6.4094  -13.1078   25.5031 C   0  0  0  0  0  0  0  0  0  0  0  0
    6.5934  -14.5932   25.7091 C   0  0  0  0  0  0  0  0  0  0  0  0
    7.8639  -15.0944   25.0614 C   0  0  2  0  0  0  0  0  0  0  0  0
    7.6547  -15.5128   23.6986 N   0  0  0  0  0  0  0  0  0  0  0  0
    8.4052  -16.2593   25.8054 C   0  0  0  0  0  0  0  0  0  0  0  0
    8.5674  -16.1601   27.0334 O   0  0  0  0  0  0  0  0  0  0  0  0
    8.7438  -17.4811   25.1654 N   0  0  0  0  0  0  0  0  0  0  0  0
    9.2060  -18.5877   25.9693 C   0  0  0  0  0  0  0  0  0  0  0  0
   10.6433  -18.3736   26.2605 C   0  0  0  0  0  0  0  0  0  0  0  0
   11.2365  -19.2347   26.9631 O   0  0  0  0  0  0  0  0  0  0  0  0
   11.3735  -17.2887   25.8097 O   0  0  0  0  0  0  0  0  0  0  0  0
  2  1  1  6
  2  3  1  0
  2  9  1  0
  4  5  2  0
  4  3  1  0
  6  5  1  0
  7  8  2  0
  7  6  1  0
  8  4  1  0
  9 16  1  0
 10  9  2  0
 12 11  1  0
 13 12  1  0
 14 13  1  0
 15 14  1  1
 15 17  1  0
 16 15  1  0
 17 19  1  0
 18 17  2  0
 19 20  1  0
 20 21  1  0
 21 22  2  0
 21 23  1  0
M  END
$$$$
