HMG.pdb
     RDKit          3D

 23 23  0  0  1  0  0  0  0  0999 V2000
   11.3342  -14.1399   20.1870 N   0  0  0  0  0  0  0  0  0  0  0  0
    9.9721  -14.2552   20.6068 C   0  0  1  0  0  0  0  0  0  0  0  0
    9.3308  -15.3654   19.8056 C   0  0  0  0  0  0  0  0  0  0  0  0
    8.7519  -14.7304   18.5857 C   0  0  0  0  0  0  0  0  0  0  0  0
    8.8851  -13.4217   18.1731 C   0  0  0  0  0  0  0  0  0  0  0  0
    8.2158  -13.2253   17.0210 N   0  0  0  0  0  0  0  0  0  0  0  0
    7.6584  -14.4028   16.7003 C   0  0  0  0  0  0  0  0  0  0  0  0
    7.9718  -15.3199   17.6329 N   0  0  0  0  0  0  0  0  0  0  0  0
    9.8344  -14.4659   22.0700 C   0  0  0  0  0  0  0  0  0  0  0  0
   10.7867  -14.9553   22.7301 O   0  0  0  0  0  0  0  0  0  0  0  0
    5.7993  -11.1816   26.9729 C   0  0  0  0  0  0  0  0  0  0  0  0
    7.3566  -12.1028   27.0981 S   0  0  0  0  0  0  0  0  0  0  0  0
    7.2216  -13.7203   26.2776 C   0  0  0  0  0  0  0  0  0  0  0  0
    7.3261  -13.5644   24.7784 C   0  0  0  0  0  0  0  0  0  0  0  0
    8.5609  -14.2424   24.2304 C   0  0  2  0  0  0  0  0  0  0  0  0
    8.6516  -14.1373   22.7963 N   0  0  0  0  0  0  0  0  0  0  0  0
    8.5578  -15.6874   24.5704 C   0  0  0  0  0  0  0  0  0  0  0  0
    7.5368  -16.3544   24.3321 O   0  0  0  0  0  0  0  0  0  0  0  0
    9.6778  -16.3340   25.1574 N   0  0  0  0  0  0  0  0  0  0  0  0
    9.5925  -17.7427   25.4617 C   0  0  0  0  0  0  0  0  0  0  0  0
    9.6913  -17.9006   26.9320 C   0  0  0  0  0  0  0  0  0  0  0  0
    9.7914  -16.8573   27.6310 O   0  0  0  0  0  0  0  0  0  0  0  0
    9.6805  -19.1203   27.5842 O   0  0  0  0  0  0  0  0  0  0  0  0
  2  1  1  1
  2  3  1  0
  2  9  1  0
  4  5  2  0
  4  3  1  0
  6  5  1  0
  7  8  2  0
  7  6  1  0
  8  4  1  0
  9 16  1  0
 10  9  2  0
 12 11  1  0
 13 12  1  0
 14 13  1  0
 15 14  1  6
 15 17  1  0
 16 15  1  0
 17 19  1  0
 18 17  2  0
 19 20  1  0
 20 21  1  0
 21 22  2  0
 21 23  1  0
M  END
$$$$
