HMG.pdb
     RDKit          3D

 23 23  0  0  1  0  0  0  0  0999 V2000
   10.7667  -14.5466   20.3031 N   0  0  0  0  0  0  0  0  0  0  0  0
    9.4065  -14.4533   20.7343 C   0  0  1  0  0  0  0  0  0  0  0  0
    8.5912  -15.4287   19.9160 C   0  0  0  0  0  0  0  0  0  0  0  0
    8.2704  -14.7422   18.6306 C   0  0  0  0  0  0  0  0  0  0  0  0
    8.7194  -13.5129   18.1970 C   0  0  0  0  0  0  0  0  0  0  0  0
    8.2097  -13.2318   16.9825 N   0  0  0  0  0  0  0  0  0  0  0  0
    7.4393  -14.2766   16.6431 C   0  0  0  0  0  0  0  0  0  0  0  0
    7.4652  -15.1950   17.6254 N   0  0  0  0  0  0  0  0  0  0  0  0
    9.2469  -14.6727   22.1939 C   0  0  0  0  0  0  0  0  0  0  0  0
   10.0577  -15.4071   22.8147 O   0  0  0  0  0  0  0  0  0  0  0  0
    5.3459  -11.0855   27.2513 C   0  0  0  0  0  0  0  0  0  0  0  0
    6.9908  -11.8482   27.2066 S   0  0  0  0  0  0  0  0  0  0  0  0
    6.9151  -13.5120   26.4760 C   0  0  0  0  0  0  0  0  0  0  0  0
    6.9502  -13.4306   24.9678 C   0  0  0  0  0  0  0  0  0  0  0  0
    8.1104  -14.2103   24.3925 C   0  0  2  0  0  0  0  0  0  0  0  0
    8.1977  -14.0836   22.9600 N   0  0  0  0  0  0  0  0  0  0  0  0
    7.9739  -15.6554   24.7031 C   0  0  0  0  0  0  0  0  0  0  0  0
    6.9995  -16.2750   24.2441 O   0  0  0  0  0  0  0  0  0  0  0  0
    8.9152  -16.3542   25.5047 N   0  0  0  0  0  0  0  0  0  0  0  0
    8.6829  -17.7477   25.8027 C   0  0  0  0  0  0  0  0  0  0  0  0
    9.3491  -18.0582   27.0895 C   0  0  0  0  0  0  0  0  0  0  0  0
   10.0016  -17.1390   27.6519 O   0  0  0  0  0  0  0  0  0  0  0  0
    9.2996  -19.2929   27.7113 O   0  0  0  0  0  0  0  0  0  0  0  0
  2  1  1  6
  2  3  1  0
  2  9  1  0
  4  5  2  0
  4  3  1  0
  6  5  1  0
  7  8  2  0
  7  6  1  0
  8  4  1  0
  9 16  1  0
 10  9  2  0
 12 11  1  0
 13 12  1  0
 14 13  1  0
 15 14  1  6
 15 17  1  0
 16 15  1  0
 17 19  1  0
 18 17  2  0
 19 20  1  0
 20 21  1  0
 21 22  2  0
 21 23  1  0
M  END
$$$$
