ALP.pdb
     RDKit          3D

 21 21  0  0  1  0  0  0  0  0999 V2000
    9.0169  -17.5505   21.7432 C   0  0  0  0  0  0  0  0  0  0  0  0
    8.6605  -16.0904   21.5332 C   0  0  2  0  0  0  0  0  0  0  0  0
    9.2782  -15.5201   20.3771 N   0  0  0  0  0  0  0  0  0  0  0  0
    9.0321  -15.3466   22.7723 C   0  0  0  0  0  0  0  0  0  0  0  0
   10.1766  -14.8910   22.8781 O   0  0  0  0  0  0  0  0  0  0  0  0
    5.4582  -12.6489   26.3879 C   0  0  0  0  0  0  0  0  0  0  0  0
    6.6196  -12.9206   25.4436 C   0  0  1  0  0  0  0  0  0  0  0  0
    7.4733  -11.6965   25.4552 C   0  0  0  0  0  0  0  0  0  0  0  0
    7.2640  -14.1654   25.8775 C   0  0  0  0  0  0  0  0  0  0  0  0
    8.4741  -14.5982   25.0884 C   0  0  2  0  0  0  0  0  0  0  0  0
    8.0952  -15.1642   23.8086 N   0  0  0  0  0  0  0  0  0  0  0  0
    9.1874  -15.6024   25.9225 C   0  0  0  0  0  0  0  0  0  0  0  0
    9.2983  -16.7838   25.4770 O   0  0  0  0  0  0  0  0  0  0  0  0
    9.7538  -15.3153   27.1897 N   0  0  0  0  0  0  0  0  0  0  0  0
    9.4441  -14.2730   28.1529 C   0  0  0  0  0  0  0  0  0  0  0  0
   10.7812  -13.9100   28.8168 C   0  0  0  0  0  0  0  0  0  0  0  0
   11.6603  -15.0949   28.5986 C   0  0  0  0  0  0  0  0  0  0  0  0
   10.8356  -16.0665   27.8303 C   0  0  1  0  0  0  0  0  0  0  0  0
   10.2208  -17.0895   28.7146 C   0  0  0  0  0  0  0  0  0  0  0  0
    8.9876  -17.0744   28.9631 O   0  0  0  0  0  0  0  0  0  0  0  0
   10.9780  -18.0951   29.2972 O   0  0  0  0  0  0  0  0  0  0  0  0
  2  1  1  1
  3  2  1  0
  4  5  2  0
  4  2  1  0
  7  6  1  1
  7  8  1  0
  7  9  1  0
 10  9  1  1
 10 11  1  0
 10 12  1  0
 11  4  1  0
 12 14  1  0
 13 12  2  0
 14 15  1  0
 14 18  1  0
 15 16  1  0
 16 17  1  0
 18 17  1  0
 18 19  1  1
 19 21  1  0
 20 19  2  0
M  END
$$$$
