ALP.pdb
     RDKit          3D

 21 21  0  0  1  0  0  0  0  0999 V2000
    5.8783  -19.6258   25.8659 C   0  0  0  0  0  0  0  0  0  0  0  0
    7.1542  -19.0032   25.3298 C   0  0  2  0  0  0  0  0  0  0  0  0
    8.1967  -18.9262   26.3048 N   0  0  0  0  0  0  0  0  0  0  0  0
    6.8127  -17.6547   24.7897 C   0  0  0  0  0  0  0  0  0  0  0  0
    5.9148  -17.5563   23.9454 O   0  0  0  0  0  0  0  0  0  0  0  0
    8.0547  -12.5752   27.1327 C   0  0  0  0  0  0  0  0  0  0  0  0
    7.2528  -13.6519   26.4171 C   0  0  1  0  0  0  0  0  0  0  0  0
    5.9332  -13.0440   26.0759 C   0  0  0  0  0  0  0  0  0  0  0  0
    8.0586  -14.1301   25.2878 C   0  0  0  0  0  0  0  0  0  0  0  0
    7.4731  -15.2656   24.4865 C   0  0  2  0  0  0  0  0  0  0  0  0
    7.5012  -16.5081   25.2329 N   0  0  0  0  0  0  0  0  0  0  0  0
    8.2871  -15.3732   23.2460 C   0  0  0  0  0  0  0  0  0  0  0  0
    9.0832  -16.3529   23.1328 O   0  0  0  0  0  0  0  0  0  0  0  0
    8.2241  -14.4427   22.1786 N   0  0  0  0  0  0  0  0  0  0  0  0
    7.6331  -13.1176   22.1091 C   0  0  0  0  0  0  0  0  0  0  0  0
    7.1090  -12.9712   20.6723 C   0  0  0  0  0  0  0  0  0  0  0  0
    7.8805  -13.9652   19.8716 C   0  0  0  0  0  0  0  0  0  0  0  0
    8.7858  -14.6404   20.8406 C   0  0  1  0  0  0  0  0  0  0  0  0
   10.1494  -14.0513   20.8253 C   0  0  0  0  0  0  0  0  0  0  0  0
   10.5348  -13.2858   21.7462 O   0  0  0  0  0  0  0  0  0  0  0  0
   11.0451  -14.3208   19.8010 O   0  0  0  0  0  0  0  0  0  0  0  0
  2  1  1  1
  3  2  1  0
  4  5  2  0
  4  2  1  0
  7  6  1  6
  7  8  1  0
  7  9  1  0
 10  9  1  1
 10 11  1  0
 10 12  1  0
 11  4  1  0
 12 14  1  0
 13 12  2  0
 14 15  1  0
 14 18  1  0
 15 16  1  0
 16 17  1  0
 18 17  1  0
 18 19  1  1
 19 21  1  0
 20 19  2  0
M  END
$$$$
