ALP.pdb
     RDKit          3D

 21 21  0  0  1  0  0  0  0  0999 V2000
    7.1565  -20.3626   25.2000 C   0  0  0  0  0  0  0  0  0  0  0  0
    5.7947  -19.6931   25.2233 C   0  0  2  0  0  0  0  0  0  0  0  0
    4.8064  -20.3996   24.4701 N   0  0  0  0  0  0  0  0  0  0  0  0
    5.9637  -18.2965   24.7257 C   0  0  0  0  0  0  0  0  0  0  0  0
    5.8028  -18.0649   23.5219 O   0  0  0  0  0  0  0  0  0  0  0  0
    5.7542  -12.7788   25.8830 C   0  0  0  0  0  0  0  0  0  0  0  0
    7.0598  -13.5595   25.9039 C   0  0  1  0  0  0  0  0  0  0  0  0
    7.9801  -12.8257   26.8215 C   0  0  0  0  0  0  0  0  0  0  0  0
    6.7443  -14.9444   26.2723 C   0  0  0  0  0  0  0  0  0  0  0  0
    6.6458  -15.9294   25.1346 C   0  0  2  0  0  0  0  0  0  0  0  0
    6.3015  -17.2544   25.6117 N   0  0  0  0  0  0  0  0  0  0  0  0
    7.9731  -15.9355   24.4629 C   0  0  0  0  0  0  0  0  0  0  0  0
    8.8548  -16.7439   24.8817 O   0  0  0  0  0  0  0  0  0  0  0  0
    8.3112  -15.0889   23.3775 N   0  0  0  0  0  0  0  0  0  0  0  0
    7.8941  -13.7327   23.0668 C   0  0  0  0  0  0  0  0  0  0  0  0
    7.8261  -13.6597   21.5337 C   0  0  0  0  0  0  0  0  0  0  0  0
    8.6991  -14.7682   21.0505 C   0  0  0  0  0  0  0  0  0  0  0  0
    9.2159  -15.4320   22.2780 C   0  0  1  0  0  0  0  0  0  0  0  0
   10.5745  -14.9499   22.6361 C   0  0  0  0  0  0  0  0  0  0  0  0
   10.7567  -14.2113   23.6381 O   0  0  0  0  0  0  0  0  0  0  0  0
   11.6883  -15.2935   21.8842 O   0  0  0  0  0  0  0  0  0  0  0  0
  2  1  1  6
  3  2  1  0
  4  5  2  0
  4  2  1  0
  7  6  1  1
  7  8  1  0
  7  9  1  0
 10  9  1  1
 10 11  1  0
 10 12  1  0
 11  4  1  0
 12 14  1  0
 13 12  2  0
 14 15  1  0
 14 18  1  0
 15 16  1  0
 16 17  1  0
 18 17  1  0
 18 19  1  1
 19 21  1  0
 20 19  2  0
M  END
$$$$
