ALP.pdb
     RDKit          3D

 21 21  0  0  1  0  0  0  0  0999 V2000
    6.9110  -20.3282   23.7426 C   0  0  0  0  0  0  0  0  0  0  0  0
    5.8740  -19.6140   24.5898 C   0  0  2  0  0  0  0  0  0  0  0  0
    4.5521  -20.1292   24.4155 N   0  0  0  0  0  0  0  0  0  0  0  0
    5.9395  -18.1596   24.2623 C   0  0  0  0  0  0  0  0  0  0  0  0
    5.6374  -17.7870   23.1228 O   0  0  0  0  0  0  0  0  0  0  0  0
    6.2970  -12.7139   26.8982 C   0  0  0  0  0  0  0  0  0  0  0  0
    7.0659  -13.5718   25.9047 C   0  0  1  0  0  0  0  0  0  0  0  0
    8.5122  -13.2631   26.1054 C   0  0  0  0  0  0  0  0  0  0  0  0
    6.6644  -14.9670   26.1174 C   0  0  0  0  0  0  0  0  0  0  0  0
    6.6316  -15.8441   24.8910 C   0  0  2  0  0  0  0  0  0  0  0  0
    6.3392  -17.2218   25.2349 N   0  0  0  0  0  0  0  0  0  0  0  0
    7.9698  -15.7293   24.2515 C   0  0  0  0  0  0  0  0  0  0  0  0
    8.9067  -16.4665   24.6819 O   0  0  0  0  0  0  0  0  0  0  0  0
    8.2603  -14.8423   23.1848 N   0  0  0  0  0  0  0  0  0  0  0  0
    7.7187  -13.5327   22.8661 C   0  0  0  0  0  0  0  0  0  0  0  0
    7.7015  -13.4522   21.3319 C   0  0  0  0  0  0  0  0  0  0  0  0
    8.7008  -14.4613   20.8763 C   0  0  0  0  0  0  0  0  0  0  0  0
    9.2361  -15.0807   22.1190 C   0  0  1  0  0  0  0  0  0  0  0  0
   10.5238  -14.4661   22.5319 C   0  0  0  0  0  0  0  0  0  0  0  0
   10.5887  -13.7105   23.5357 O   0  0  0  0  0  0  0  0  0  0  0  0
   11.6976  -14.7002   21.8310 O   0  0  0  0  0  0  0  0  0  0  0  0
  2  1  1  6
  3  2  1  0
  4  5  2  0
  4  2  1  0
  7  6  1  1
  7  8  1  0
  7  9  1  0
 10  9  1  1
 10 11  1  0
 10 12  1  0
 11  4  1  0
 12 14  1  0
 13 12  2  0
 14 15  1  0
 14 18  1  0
 15 16  1  0
 16 17  1  0
 18 17  1  0
 18 19  1  1
 19 21  1  0
 20 19  2  0
M  END
$$$$
