ALP.pdb
     RDKit          3D

 21 21  0  0  1  0  0  0  0  0999 V2000
    8.8298  -17.6121   21.8189 C   0  0  0  0  0  0  0  0  0  0  0  0
    8.6017  -16.1323   21.5709 C   0  0  2  0  0  0  0  0  0  0  0  0
    9.3280  -15.6308   20.4466 N   0  0  0  0  0  0  0  0  0  0  0  0
    8.9581  -15.3993   22.8209 C   0  0  0  0  0  0  0  0  0  0  0  0
   10.1164  -14.9928   22.9685 O   0  0  0  0  0  0  0  0  0  0  0  0
    5.2504  -12.6650   26.2641 C   0  0  0  0  0  0  0  0  0  0  0  0
    6.4283  -12.9509   25.3448 C   0  0  1  0  0  0  0  0  0  0  0  0
    7.2395  -11.6993   25.2902 C   0  0  0  0  0  0  0  0  0  0  0  0
    7.1113  -14.1452   25.8550 C   0  0  0  0  0  0  0  0  0  0  0  0
    8.3402  -14.5830   25.0985 C   0  0  2  0  0  0  0  0  0  0  0  0
    7.9916  -15.1719   23.8204 N   0  0  0  0  0  0  0  0  0  0  0  0
    9.0419  -15.5691   25.9635 C   0  0  0  0  0  0  0  0  0  0  0  0
    9.1237  -16.7688   25.5627 O   0  0  0  0  0  0  0  0  0  0  0  0
    9.6276  -15.2456   27.2129 N   0  0  0  0  0  0  0  0  0  0  0  0
    9.3182  -14.1889   28.1603 C   0  0  0  0  0  0  0  0  0  0  0  0
   10.6613  -13.7886   28.7898 C   0  0  0  0  0  0  0  0  0  0  0  0
   11.5571  -14.9622   28.5786 C   0  0  0  0  0  0  0  0  0  0  0  0
   10.7351  -15.9641   27.8473 C   0  0  1  0  0  0  0  0  0  0  0  0
   10.1561  -16.9789   28.7646 C   0  0  0  0  0  0  0  0  0  0  0  0
    8.9288  -16.9773   29.0410 O   0  0  0  0  0  0  0  0  0  0  0  0
   10.9417  -17.9618   29.3484 O   0  0  0  0  0  0  0  0  0  0  0  0
  2  1  1  1
  3  2  1  0
  4  5  2  0
  4  2  1  0
  7  6  1  1
  7  8  1  0
  7  9  1  0
 10  9  1  1
 10 11  1  0
 10 12  1  0
 11  4  1  0
 12 14  1  0
 13 12  2  0
 14 15  1  0
 14 18  1  0
 15 16  1  0
 16 17  1  0
 18 17  1  0
 18 19  1  1
 19 21  1  0
 20 19  2  0
M  END
$$$$
