ALP.pdb
     RDKit          3D

 21 21  0  0  1  0  0  0  0  0999 V2000
    6.8525  -20.3567   24.9385 C   0  0  0  0  0  0  0  0  0  0  0  0
    5.5599  -19.5616   24.9221 C   0  0  2  0  0  0  0  0  0  0  0  0
    4.5599  -20.1293   24.0730 N   0  0  0  0  0  0  0  0  0  0  0  0
    5.8886  -18.1634   24.5174 C   0  0  0  0  0  0  0  0  0  0  0  0
    5.8849  -17.8698   23.3164 O   0  0  0  0  0  0  0  0  0  0  0  0
    6.0198  -12.7259   25.8725 C   0  0  0  0  0  0  0  0  0  0  0  0
    7.2513  -13.6003   26.0548 C   0  0  1  0  0  0  0  0  0  0  0  0
    8.0708  -12.9635   27.1273 C   0  0  0  0  0  0  0  0  0  0  0  0
    6.7906  -14.9687   26.3160 C   0  0  0  0  0  0  0  0  0  0  0  0
    6.7085  -15.8828   25.1194 C   0  0  2  0  0  0  0  0  0  0  0  0
    6.1992  -17.1894   25.4869 N   0  0  0  0  0  0  0  0  0  0  0  0
    8.0867  -15.9860   24.5691 C   0  0  0  0  0  0  0  0  0  0  0  0
    8.8726  -16.8427   25.0738 O   0  0  0  0  0  0  0  0  0  0  0  0
    8.5747  -15.1813   23.5092 N   0  0  0  0  0  0  0  0  0  0  0  0
    8.2362  -13.8249   23.1148 C   0  0  0  0  0  0  0  0  0  0  0  0
    8.3518  -13.7963   21.5830 C   0  0  0  0  0  0  0  0  0  0  0  0
    9.2437  -14.9406   21.2370 C   0  0  0  0  0  0  0  0  0  0  0  0
    9.5927  -15.5800   22.5346 C   0  0  1  0  0  0  0  0  0  0  0  0
   10.9127  -15.1217   23.0386 C   0  0  0  0  0  0  0  0  0  0  0  0
   11.9599  -15.2955   22.3634 O   0  0  0  0  0  0  0  0  0  0  0  0
   11.0411  -14.4883   24.2659 O   0  0  0  0  0  0  0  0  0  0  0  0
  2  1  1  6
  3  2  1  0
  4  5  2  0
  4  2  1  0
  7  6  1  1
  7  8  1  0
  7  9  1  0
 10  9  1  1
 10 11  1  0
 10 12  1  0
 11  4  1  0
 12 14  1  0
 13 12  2  0
 14 15  1  0
 14 18  1  0
 15 16  1  0
 16 17  1  0
 18 17  1  0
 18 19  1  1
 19 21  1  0
 20 19  2  0
M  END
$$$$
