ALP.pdb
     RDKit          3D

 21 21  0  0  1  0  0  0  0  0999 V2000
    8.6452  -17.4018   21.6533 C   0  0  0  0  0  0  0  0  0  0  0  0
    8.5434  -15.8932   21.5235 C   0  0  2  0  0  0  0  0  0  0  0  0
    9.2897  -15.3706   20.4220 N   0  0  0  0  0  0  0  0  0  0  0  0
    8.9863  -15.2924   22.8157 C   0  0  0  0  0  0  0  0  0  0  0  0
   10.1753  -14.9850   22.9580 O   0  0  0  0  0  0  0  0  0  0  0  0
    5.4593  -12.5619   26.4307 C   0  0  0  0  0  0  0  0  0  0  0  0
    6.6162  -12.8392   25.4825 C   0  0  1  0  0  0  0  0  0  0  0  0
    7.4511  -11.6025   25.4561 C   0  0  0  0  0  0  0  0  0  0  0  0
    7.2835  -14.0631   25.9408 C   0  0  0  0  0  0  0  0  0  0  0  0
    8.4740  -14.5143   25.1325 C   0  0  2  0  0  0  0  0  0  0  0  0
    8.0659  -15.0773   23.8605 N   0  0  0  0  0  0  0  0  0  0  0  0
    9.1871  -15.5268   25.9567 C   0  0  0  0  0  0  0  0  0  0  0  0
    9.2520  -16.7162   25.5238 O   0  0  0  0  0  0  0  0  0  0  0  0
    9.8018  -15.2392   27.2010 N   0  0  0  0  0  0  0  0  0  0  0  0
    9.5504  -14.1777   28.1602 C   0  0  0  0  0  0  0  0  0  0  0  0
   10.9173  -13.8414   28.7758 C   0  0  0  0  0  0  0  0  0  0  0  0
   11.7584  -15.0512   28.5444 C   0  0  0  0  0  0  0  0  0  0  0  0
   10.8845  -16.0103   27.8159 C   0  0  1  0  0  0  0  0  0  0  0  0
   10.2731  -17.0064   28.7328 C   0  0  0  0  0  0  0  0  0  0  0  0
    9.0482  -16.9602   29.0158 O   0  0  0  0  0  0  0  0  0  0  0  0
   11.0247  -18.0199   29.3090 O   0  0  0  0  0  0  0  0  0  0  0  0
  2  1  1  1
  3  2  1  0
  4  5  2  0
  4  2  1  0
  7  6  1  1
  7  8  1  0
  7  9  1  0
 10  9  1  1
 10 11  1  0
 10 12  1  0
 11  4  1  0
 12 14  1  0
 13 12  2  0
 14 15  1  0
 14 18  1  0
 15 16  1  0
 16 17  1  0
 18 17  1  0
 18 19  1  1
 19 21  1  0
 20 19  2  0
M  END
$$$$
