ALP.pdb
     RDKit          3D

 21 21  0  0  1  0  0  0  0  0999 V2000
    7.1680  -20.0767   24.9050 C   0  0  0  0  0  0  0  0  0  0  0  0
    5.8123  -19.4138   25.0651 C   0  0  2  0  0  0  0  0  0  0  0  0
    4.7679  -20.0893   24.3606 N   0  0  0  0  0  0  0  0  0  0  0  0
    5.9416  -17.9956   24.6192 C   0  0  0  0  0  0  0  0  0  0  0  0
    5.6893  -17.7112   23.4427 O   0  0  0  0  0  0  0  0  0  0  0  0
    5.9923  -12.4762   26.0394 C   0  0  0  0  0  0  0  0  0  0  0  0
    7.2396  -13.3362   25.9011 C   0  0  1  0  0  0  0  0  0  0  0  0
    8.2874  -12.7076   26.7579 C   0  0  0  0  0  0  0  0  0  0  0  0
    6.8683  -14.7156   26.2366 C   0  0  0  0  0  0  0  0  0  0  0  0
    6.7064  -15.6624   25.0740 C   0  0  2  0  0  0  0  0  0  0  0  0
    6.3450  -16.9927   25.5228 N   0  0  0  0  0  0  0  0  0  0  0  0
    8.0095  -15.6801   24.3567 C   0  0  0  0  0  0  0  0  0  0  0  0
    8.9196  -16.4524   24.7830 O   0  0  0  0  0  0  0  0  0  0  0  0
    8.2945  -14.8827   23.2200 N   0  0  0  0  0  0  0  0  0  0  0  0
    7.8497  -13.5469   22.8628 C   0  0  0  0  0  0  0  0  0  0  0  0
    7.7204  -13.5474   21.3319 C   0  0  0  0  0  0  0  0  0  0  0  0
    8.5865  -14.6691   20.8668 C   0  0  0  0  0  0  0  0  0  0  0  0
    9.1590  -15.2687   22.1026 C   0  0  1  0  0  0  0  0  0  0  0  0
   10.5250  -14.7569   22.3830 C   0  0  0  0  0  0  0  0  0  0  0  0
   10.7417  -13.9868   23.3539 O   0  0  0  0  0  0  0  0  0  0  0  0
   11.6081  -15.1062   21.5899 O   0  0  0  0  0  0  0  0  0  0  0  0
  2  1  1  6
  3  2  1  0
  4  5  2  0
  4  2  1  0
  7  6  1  1
  7  8  1  0
  7  9  1  0
 10  9  1  1
 10 11  1  0
 10 12  1  0
 11  4  1  0
 12 14  1  0
 13 12  2  0
 14 15  1  0
 14 18  1  0
 15 16  1  0
 16 17  1  0
 18 17  1  0
 18 19  1  1
 19 21  1  0
 20 19  2  0
M  END
$$$$
