WGF.pdb
     RDKit          3D

 30 32  0  0  1  0  0  0  0  0999 V2000
   26.9362  -19.3709  -12.9146 N   0  0  0  0  0  0  0  0  0  0  0  0
   27.8775  -20.4515  -12.7232 C   0  0  1  0  0  0  0  0  0  0  0  0
   27.4266  -21.4456  -11.6957 C   0  0  0  0  0  0  0  0  0  0  0  0
   27.0816  -20.8558  -10.3811 C   0  0  0  0  0  0  0  0  0  0  0  0
   25.8668  -20.2131  -10.1089 C   0  0  0  0  0  0  0  0  0  0  0  0
   25.8814  -19.7781   -8.8382 N   0  0  0  0  0  0  0  0  0  0  0  0
   27.0406  -20.0927   -8.2370 C   0  0  0  0  0  0  0  0  0  0  0  0
   27.5102  -19.8672   -6.9634 C   0  0  0  0  0  0  0  0  0  0  0  0
   28.7627  -20.3199   -6.6210 C   0  0  0  0  0  0  0  0  0  0  0  0
   29.4971  -20.9851   -7.5787 C   0  0  0  0  0  0  0  0  0  0  0  0
   29.0318  -21.2169   -8.8650 C   0  0  0  0  0  0  0  0  0  0  0  0
   27.7928  -20.7689   -9.2052 C   0  0  0  0  0  0  0  0  0  0  0  0
   28.2324  -21.0850  -14.0140 C   0  0  0  0  0  0  0  0  0  0  0  0
   29.0708  -22.0083  -14.0254 O   0  0  0  0  0  0  0  0  0  0  0  0
   27.6405  -20.6638  -15.2294 N   0  0  0  0  0  0  0  0  0  0  0  0
   27.4977  -21.5174  -16.3818 C   0  0  0  0  0  0  0  0  0  0  0  0
   26.5508  -22.6315  -16.1604 C   0  0  0  0  0  0  0  0  0  0  0  0
   26.9110  -23.8444  -16.3462 O   0  0  0  0  0  0  0  0  0  0  0  0
   25.2137  -22.4299  -15.7414 N   0  0  0  0  0  0  0  0  0  0  0  0
   24.3556  -23.5302  -15.4322 C   0  0  1  0  0  0  0  0  0  0  0  0
   24.3419  -23.9750  -14.0147 C   0  0  0  0  0  0  0  0  0  0  0  0
   24.0507  -22.8232  -13.1415 C   0  0  0  0  0  0  0  0  0  0  0  0
   24.6846  -22.6293  -11.9386 C   0  0  0  0  0  0  0  0  0  0  0  0
   24.3528  -21.5286  -11.1862 C   0  0  0  0  0  0  0  0  0  0  0  0
   23.4065  -20.6119  -11.5953 C   0  0  0  0  0  0  0  0  0  0  0  0
   22.7720  -20.8060  -12.7994 C   0  0  0  0  0  0  0  0  0  0  0  0
   23.1062  -21.9105  -13.5525 C   0  0  0  0  0  0  0  0  0  0  0  0
   22.9646  -23.1738  -15.9005 C   0  0  0  0  0  0  0  0  0  0  0  0
   22.0819  -24.0683  -15.9044 O   0  0  0  0  0  0  0  0  0  0  0  0
   22.6278  -21.9091  -16.3241 O   0  0  0  0  0  0  0  0  0  0  0  0
  2  1  1  6
  2 13  1  0
  2  3  1  0
  3  4  1  0
  4  5  2  0
  5  6  1  0
  7  6  1  0
  8  7  2  0
  9  8  1  0
 10 11  1  0
 10  9  2  0
 11 12  2  0
 12  4  1  0
 12  7  1  0
 13 15  1  0
 14 13  2  0
 15 16  1  0
 17 18  2  0
 17 16  1  0
 19 17  1  0
 20 21  1  1
 20 19  1  0
 21 22  1  0
 22 23  2  0
 23 24  1  0
 25 24  2  0
 26 25  1  0
 27 26  2  0
 27 22  1  0
 28 30  1  0
 28 20  1  0
 29 28  2  0
M  END
$$$$
