WGF.pdb
     RDKit          3D

 30 32  0  0  1  0  0  0  0  0999 V2000
   28.2270  -22.0501  -14.1397 N   0  0  0  0  0  0  0  0  0  0  0  0
   27.2198  -21.1031  -13.7167 C   0  0  1  0  0  0  0  0  0  0  0  0
   27.7834  -19.9667  -12.9176 C   0  0  0  0  0  0  0  0  0  0  0  0
   28.5014  -20.3776  -11.6886 C   0  0  0  0  0  0  0  0  0  0  0  0
   29.7683  -20.9759  -11.6882 C   0  0  0  0  0  0  0  0  0  0  0  0
   30.1229  -21.2399  -10.4199 N   0  0  0  0  0  0  0  0  0  0  0  0
   29.1640  -20.8518   -9.5631 C   0  0  0  0  0  0  0  0  0  0  0  0
   29.0742  -20.9089   -8.1912 C   0  0  0  0  0  0  0  0  0  0  0  0
   27.9487  -20.4183   -7.5722 C   0  0  0  0  0  0  0  0  0  0  0  0
   26.9525  -19.8866   -8.3622 C   0  0  0  0  0  0  0  0  0  0  0  0
   27.0343  -19.8250   -9.7458 C   0  0  0  0  0  0  0  0  0  0  0  0
   28.1474  -20.3108  -10.3595 C   0  0  0  0  0  0  0  0  0  0  0  0
   26.4028  -20.6449  -14.8638 C   0  0  0  0  0  0  0  0  0  0  0  0
   26.9437  -19.9681  -15.7609 O   0  0  0  0  0  0  0  0  0  0  0  0
   25.0255  -20.9595  -14.9603 N   0  0  0  0  0  0  0  0  0  0  0  0
   24.0565  -20.1010  -15.5937 C   0  0  0  0  0  0  0  0  0  0  0  0
   22.6838  -20.6492  -15.5488 C   0  0  0  0  0  0  0  0  0  0  0  0
   22.2562  -21.4220  -16.4736 O   0  0  0  0  0  0  0  0  0  0  0  0
   21.7749  -20.3564  -14.5037 N   0  0  0  0  0  0  0  0  0  0  0  0
   20.8182  -21.3193  -14.0565 C   0  0  1  0  0  0  0  0  0  0  0  0
   21.3648  -22.5240  -13.3802 C   0  0  0  0  0  0  0  0  0  0  0  0
   22.1301  -22.1133  -12.1887 C   0  0  0  0  0  0  0  0  0  0  0  0
   23.4931  -21.9449  -12.2082 C   0  0  0  0  0  0  0  0  0  0  0  0
   24.1283  -21.5604  -11.0522 C   0  0  0  0  0  0  0  0  0  0  0  0
   23.4468  -21.3376   -9.8736 C   0  0  0  0  0  0  0  0  0  0  0  0
   22.0825  -21.5063   -9.8541 C   0  0  0  0  0  0  0  0  0  0  0  0
   21.4473  -21.8919  -11.0146 C   0  0  0  0  0  0  0  0  0  0  0  0
   19.8268  -20.6043  -13.1693 C   0  0  0  0  0  0  0  0  0  0  0  0
   18.7976  -21.2211  -12.7956 O   0  0  0  0  0  0  0  0  0  0  0  0
   20.0064  -19.3044  -12.7567 O   0  0  0  0  0  0  0  0  0  0  0  0
  2  1  1  6
  2 13  1  0
  2  3  1  0
  3  4  1  0
  4  5  2  0
  5  6  1  0
  7  6  1  0
  8  7  2  0
  9  8  1  0
 10 11  1  0
 10  9  2  0
 11 12  2  0
 12  4  1  0
 12  7  1  0
 13 15  1  0
 14 13  2  0
 15 16  1  0
 17 18  2  0
 17 16  1  0
 19 17  1  0
 20 21  1  1
 20 19  1  0
 21 22  1  0
 22 23  2  0
 23 24  1  0
 25 24  2  0
 26 25  1  0
 27 26  2  0
 27 22  1  0
 28 30  1  0
 28 20  1  0
 29 28  2  0
M  END
$$$$
