WGF.pdb
     RDKit          3D

 30 32  0  0  1  0  0  0  0  0999 V2000
   26.1098  -22.6840  -12.3857 N   0  0  0  0  0  0  0  0  0  0  0  0
   25.7085  -21.3164  -12.1434 C   0  0  1  0  0  0  0  0  0  0  0  0
   26.8693  -20.4010  -11.8938 C   0  0  0  0  0  0  0  0  0  0  0  0
   27.7164  -20.7848  -10.7406 C   0  0  0  0  0  0  0  0  0  0  0  0
   28.8960  -21.5323  -10.8535 C   0  0  0  0  0  0  0  0  0  0  0  0
   29.4080  -21.7226   -9.6264 N   0  0  0  0  0  0  0  0  0  0  0  0
   28.6381  -21.1436   -8.6904 C   0  0  0  0  0  0  0  0  0  0  0  0
   28.7518  -21.0652   -7.3213 C   0  0  0  0  0  0  0  0  0  0  0  0
   27.7933  -20.3857   -6.6070 C   0  0  0  0  0  0  0  0  0  0  0  0
   26.7526  -19.8087   -7.3020 C   0  0  0  0  0  0  0  0  0  0  0  0
   26.6298  -19.8826   -8.6820 C   0  0  0  0  0  0  0  0  0  0  0  0
   27.5774  -20.5553   -9.3899 C   0  0  0  0  0  0  0  0  0  0  0  0
   24.8136  -20.8247  -13.2162 C   0  0  0  0  0  0  0  0  0  0  0  0
   24.2845  -19.7017  -13.0965 O   0  0  0  0  0  0  0  0  0  0  0  0
   24.5489  -21.6024  -14.3696 N   0  0  0  0  0  0  0  0  0  0  0  0
   23.5410  -21.2639  -15.3424 C   0  0  0  0  0  0  0  0  0  0  0  0
   22.2246  -21.8674  -15.0428 C   0  0  0  0  0  0  0  0  0  0  0  0
   22.0188  -23.1159  -15.2274 O   0  0  0  0  0  0  0  0  0  0  0  0
   21.1317  -21.1165  -14.5470 N   0  0  0  0  0  0  0  0  0  0  0  0
   19.9531  -21.7546  -14.0507 C   0  0  1  0  0  0  0  0  0  0  0  0
   20.1179  -22.5775  -12.8246 C   0  0  0  0  0  0  0  0  0  0  0  0
   20.6240  -21.7303  -11.7291 C   0  0  0  0  0  0  0  0  0  0  0  0
   19.7934  -20.9906  -10.9233 C   0  0  0  0  0  0  0  0  0  0  0  0
   20.3485  -20.2271   -9.9249 C   0  0  0  0  0  0  0  0  0  0  0  0
   21.7092  -20.1770   -9.7031 C   0  0  0  0  0  0  0  0  0  0  0  0
   22.5406  -20.9174  -10.5097 C   0  0  0  0  0  0  0  0  0  0  0  0
   21.9818  -21.6824  -11.5104 C   0  0  0  0  0  0  0  0  0  0  0  0
   18.9033  -20.6877  -13.8486 C   0  0  0  0  0  0  0  0  0  0  0  0
   17.7499  -21.0364  -13.4918 O   0  0  0  0  0  0  0  0  0  0  0  0
   19.1609  -19.3502  -14.0418 O   0  0  0  0  0  0  0  0  0  0  0  0
  2  1  1  6
  2 13  1  0
  2  3  1  0
  3  4  1  0
  4  5  2  0
  5  6  1  0
  7  6  1  0
  8  7  2  0
  9  8  1  0
 10 11  1  0
 10  9  2  0
 11 12  2  0
 12  4  1  0
 12  7  1  0
 13 15  1  0
 14 13  2  0
 15 16  1  0
 17 18  2  0
 17 16  1  0
 19 17  1  0
 20 21  1  1
 20 19  1  0
 21 22  1  0
 22 23  2  0
 23 24  1  0
 25 24  2  0
 26 25  1  0
 27 26  2  0
 27 22  1  0
 28 30  1  0
 28 20  1  0
 29 28  2  0
M  END
$$$$
