WGF.pdb
     RDKit          3D

 30 32  0  0  1  0  0  0  0  0999 V2000
   25.5521  -20.0036  -11.7185 N   0  0  0  0  0  0  0  0  0  0  0  0
   26.5271  -21.0409  -11.9706 C   0  0  1  0  0  0  0  0  0  0  0  0
   26.9127  -21.7952  -10.7337 C   0  0  0  0  0  0  0  0  0  0  0  0
   27.0924  -20.9497   -9.5305 C   0  0  0  0  0  0  0  0  0  0  0  0
   26.1351  -20.0372   -9.0680 C   0  0  0  0  0  0  0  0  0  0  0  0
   26.6149  -19.4219   -7.9747 N   0  0  0  0  0  0  0  0  0  0  0  0
   27.8448  -19.8699   -7.6732 C   0  0  0  0  0  0  0  0  0  0  0  0
   28.7210  -19.5499   -6.6616 C   0  0  0  0  0  0  0  0  0  0  0  0
   29.9361  -20.1907   -6.5997 C   0  0  0  0  0  0  0  0  0  0  0  0
   30.2231  -21.1333   -7.5631 C   0  0  0  0  0  0  0  0  0  0  0  0
   29.3460  -21.4622   -8.5865 C   0  0  0  0  0  0  0  0  0  0  0  0
   28.1435  -20.8283   -8.6492 C   0  0  0  0  0  0  0  0  0  0  0  0
   26.0870  -21.9316  -13.0690 C   0  0  0  0  0  0  0  0  0  0  0  0
   26.9242  -22.6746  -13.6189 O   0  0  0  0  0  0  0  0  0  0  0  0
   24.7398  -21.9550  -13.5042 N   0  0  0  0  0  0  0  0  0  0  0  0
   24.3194  -21.5212  -14.8127 C   0  0  0  0  0  0  0  0  0  0  0  0
   22.8847  -21.7707  -15.0697 C   0  0  0  0  0  0  0  0  0  0  0  0
   22.4221  -21.7672  -16.2619 O   0  0  0  0  0  0  0  0  0  0  0  0
   21.9521  -22.0199  -14.0341 N   0  0  0  0  0  0  0  0  0  0  0  0
   20.9516  -21.0607  -13.6854 C   0  0  1  0  0  0  0  0  0  0  0  0
   21.3976  -19.9236  -12.8396 C   0  0  0  0  0  0  0  0  0  0  0  0
   21.7433  -20.4184  -11.4943 C   0  0  0  0  0  0  0  0  0  0  0  0
   22.8875  -20.0356  -10.8380 C   0  0  0  0  0  0  0  0  0  0  0  0
   23.1334  -20.5452   -9.5859 C   0  0  0  0  0  0  0  0  0  0  0  0
   22.2729  -21.4267   -8.9649 C   0  0  0  0  0  0  0  0  0  0  0  0
   21.1277  -21.8099   -9.6219 C   0  0  0  0  0  0  0  0  0  0  0  0
   20.8829  -21.2977  -10.8775 C   0  0  0  0  0  0  0  0  0  0  0  0
   20.3219  -20.5671  -14.9665 C   0  0  0  0  0  0  0  0  0  0  0  0
   19.0689  -20.5697  -15.0626 O   0  0  0  0  0  0  0  0  0  0  0  0
   21.0669  -20.1170  -16.0317 O   0  0  0  0  0  0  0  0  0  0  0  0
  2  1  1  1
  2 13  1  0
  2  3  1  0
  3  4  1  0
  4  5  2  0
  5  6  1  0
  7  6  1  0
  8  7  2  0
  9  8  1  0
 10 11  1  0
 10  9  2  0
 11 12  2  0
 12  4  1  0
 12  7  1  0
 13 15  1  0
 14 13  2  0
 15 16  1  0
 17 18  2  0
 17 16  1  0
 19 17  1  0
 20 21  1  6
 20 19  1  0
 21 22  1  0
 22 23  2  0
 23 24  1  0
 25 24  2  0
 26 25  1  0
 27 26  2  0
 27 22  1  0
 28 30  1  0
 28 20  1  0
 29 28  2  0
M  END
$$$$
