WGF.pdb
     RDKit          3D

 30 32  0  0  1  0  0  0  0  0999 V2000
   24.9038  -18.9250  -14.8830 N   0  0  0  0  0  0  0  0  0  0  0  0
   26.1391  -19.1468  -14.1652 C   0  0  1  0  0  0  0  0  0  0  0  0
   26.7258  -17.8856  -13.6058 C   0  0  0  0  0  0  0  0  0  0  0  0
   27.0542  -16.8584  -14.6217 C   0  0  0  0  0  0  0  0  0  0  0  0
   26.4390  -15.6013  -14.6873 C   0  0  0  0  0  0  0  0  0  0  0  0
   26.9478  -14.9233  -15.7292 N   0  0  0  0  0  0  0  0  0  0  0  0
   27.8739  -15.6545  -16.3710 C   0  0  0  0  0  0  0  0  0  0  0  0
   28.6580  -15.3910  -17.4706 C   0  0  0  0  0  0  0  0  0  0  0  0
   29.5420  -16.3490  -17.9085 C   0  0  0  0  0  0  0  0  0  0  0  0
   29.6026  -17.5405  -17.2189 C   0  0  0  0  0  0  0  0  0  0  0  0
   28.8160  -17.8149  -16.1095 C   0  0  0  0  0  0  0  0  0  0  0  0
   27.9403  -16.8679  -15.6756 C   0  0  0  0  0  0  0  0  0  0  0  0
   25.9791  -20.2054  -13.1420 C   0  0  0  0  0  0  0  0  0  0  0  0
   24.8406  -20.6607  -12.9142 O   0  0  0  0  0  0  0  0  0  0  0  0
   27.0895  -20.7075  -12.4209 N   0  0  0  0  0  0  0  0  0  0  0  0
   27.1338  -22.0296  -11.8489 C   0  0  0  0  0  0  0  0  0  0  0  0
   27.1756  -22.0173  -10.3707 C   0  0  0  0  0  0  0  0  0  0  0  0
   27.2262  -23.1094   -9.7074 O   0  0  0  0  0  0  0  0  0  0  0  0
   27.1588  -20.8216   -9.6129 N   0  0  0  0  0  0  0  0  0  0  0  0
   27.3036  -20.8382   -8.1912 C   0  0  1  0  0  0  0  0  0  0  0  0
   28.5505  -20.2381   -7.6504 C   0  0  0  0  0  0  0  0  0  0  0  0
   28.4402  -20.1138   -6.1854 C   0  0  0  0  0  0  0  0  0  0  0  0
   27.9597  -18.9814   -5.5744 C   0  0  0  0  0  0  0  0  0  0  0  0
   27.8907  -18.9491   -4.2025 C   0  0  0  0  0  0  0  0  0  0  0  0
   28.2863  -20.0123   -3.4175 C   0  0  0  0  0  0  0  0  0  0  0  0
   28.7674  -21.1457   -4.0292 C   0  0  0  0  0  0  0  0  0  0  0  0
   28.8358  -21.1761   -5.4051 C   0  0  0  0  0  0  0  0  0  0  0  0
   26.0831  -20.1758   -7.5972 C   0  0  0  0  0  0  0  0  0  0  0  0
   25.7152  -20.5129   -6.4438 O   0  0  0  0  0  0  0  0  0  0  0  0
   25.3585  -19.2199   -8.2707 O   0  0  0  0  0  0  0  0  0  0  0  0
  2  1  1  1
  2 13  1  0
  2  3  1  0
  3  4  1  0
  4  5  2  0
  5  6  1  0
  7  6  1  0
  8  7  2  0
  9  8  1  0
 10 11  1  0
 10  9  2  0
 11 12  2  0
 12  4  1  0
 12  7  1  0
 13 15  1  0
 14 13  2  0
 15 16  1  0
 17 18  2  0
 17 16  1  0
 19 17  1  0
 20 21  1  6
 20 19  1  0
 21 22  1  0
 22 23  2  0
 23 24  1  0
 25 24  2  0
 26 25  1  0
 27 26  2  0
 27 22  1  0
 28 30  1  0
 28 20  1  0
 29 28  2  0
M  END
$$$$
