WGF.pdb
     RDKit          3D

 30 32  0  0  1  0  0  0  0  0999 V2000
   26.8524  -21.9643  -10.8431 N   0  0  0  0  0  0  0  0  0  0  0  0
   26.1185  -21.0838   -9.9619 C   0  0  1  0  0  0  0  0  0  0  0  0
   26.9510  -19.9520   -9.4388 C   0  0  0  0  0  0  0  0  0  0  0  0
   28.0302  -20.3622   -8.5104 C   0  0  0  0  0  0  0  0  0  0  0  0
   29.2172  -20.9839   -8.9197 C   0  0  0  0  0  0  0  0  0  0  0  0
   29.9686  -21.2401   -7.8362 N   0  0  0  0  0  0  0  0  0  0  0  0
   29.3535  -20.8245   -6.7168 C   0  0  0  0  0  0  0  0  0  0  0  0
   29.7229  -20.8643   -5.3919 C   0  0  0  0  0  0  0  0  0  0  0  0
   28.8732  -20.3458   -4.4433 C   0  0  0  0  0  0  0  0  0  0  0  0
   27.6789  -19.8047   -4.8674 C   0  0  0  0  0  0  0  0  0  0  0  0
   27.2981  -19.7604   -6.2008 C   0  0  0  0  0  0  0  0  0  0  0  0
   28.1379  -20.2737   -7.1404 C   0  0  0  0  0  0  0  0  0  0  0  0
   24.8608  -20.6233  -10.5939 C   0  0  0  0  0  0  0  0  0  0  0  0
   24.9160  -20.0212  -11.6848 O   0  0  0  0  0  0  0  0  0  0  0  0
   23.6029  -20.8527   -9.9855 N   0  0  0  0  0  0  0  0  0  0  0  0
   22.4526  -20.0104  -10.1960 C   0  0  0  0  0  0  0  0  0  0  0  0
   21.6803  -20.3799  -11.4018 C   0  0  0  0  0  0  0  0  0  0  0  0
   20.5872  -19.7815  -11.6887 O   0  0  0  0  0  0  0  0  0  0  0  0
   22.0914  -21.3999  -12.2932 N   0  0  0  0  0  0  0  0  0  0  0  0
   21.3029  -21.7588  -13.4298 C   0  0  1  0  0  0  0  0  0  0  0  0
   21.9528  -21.6024  -14.7567 C   0  0  0  0  0  0  0  0  0  0  0  0
   22.1415  -20.1689  -15.0450 C   0  0  0  0  0  0  0  0  0  0  0  0
   21.1680  -19.3996  -15.6343 C   0  0  0  0  0  0  0  0  0  0  0  0
   21.4269  -18.0706  -15.8680 C   0  0  0  0  0  0  0  0  0  0  0  0
   22.6284  -17.4817  -15.5324 C   0  0  0  0  0  0  0  0  0  0  0  0
   23.6028  -18.2518  -14.9426 C   0  0  0  0  0  0  0  0  0  0  0  0
   23.3412  -19.5843  -14.7091 C   0  0  0  0  0  0  0  0  0  0  0  0
   20.8225  -23.1763  -13.2268 C   0  0  0  0  0  0  0  0  0  0  0  0
   21.3605  -23.8727  -12.3297 O   0  0  0  0  0  0  0  0  0  0  0  0
   19.8207  -23.7340  -13.9869 O   0  0  0  0  0  0  0  0  0  0  0  0
  2  1  1  6
  2 13  1  0
  2  3  1  0
  3  4  1  0
  4  5  2  0
  5  6  1  0
  7  6  1  0
  8  7  2  0
  9  8  1  0
 10 11  1  0
 10  9  2  0
 11 12  2  0
 12  4  1  0
 12  7  1  0
 13 15  1  0
 14 13  2  0
 15 16  1  0
 17 18  2  0
 17 16  1  0
 19 17  1  0
 20 21  1  6
 20 19  1  0
 21 22  1  0
 22 23  2  0
 23 24  1  0
 25 24  2  0
 26 25  1  0
 27 26  2  0
 27 22  1  0
 28 30  1  0
 28 20  1  0
 29 28  2  0
M  END
$$$$
