WGF.pdb
     RDKit          3D

 30 32  0  0  1  0  0  0  0  0999 V2000
   27.0369  -22.1399  -10.9227 N   0  0  0  0  0  0  0  0  0  0  0  0
   26.7335  -20.7502  -10.6639 C   0  0  1  0  0  0  0  0  0  0  0  0
   27.9396  -19.9508  -10.2719 C   0  0  0  0  0  0  0  0  0  0  0  0
   28.5927  -20.3993   -9.0200 C   0  0  0  0  0  0  0  0  0  0  0  0
   29.5923  -21.3798   -8.9693 C   0  0  0  0  0  0  0  0  0  0  0  0
   29.9541  -21.5645   -7.6891 N   0  0  0  0  0  0  0  0  0  0  0  0
   29.2532  -20.7614   -6.8719 C   0  0  0  0  0  0  0  0  0  0  0  0
   29.2728  -20.5903   -5.5067 C   0  0  0  0  0  0  0  0  0  0  0  0
   28.4268  -19.6696   -4.9344 C   0  0  0  0  0  0  0  0  0  0  0  0
   27.5901  -18.9535   -5.7628 C   0  0  0  0  0  0  0  0  0  0  0  0
   27.5635  -19.1194   -7.1399 C   0  0  0  0  0  0  0  0  0  0  0  0
   28.3997  -20.0306   -7.7074 C   0  0  0  0  0  0  0  0  0  0  0  0
   25.9906  -20.1467  -11.7940 C   0  0  0  0  0  0  0  0  0  0  0  0
   25.3534  -19.0913  -11.6054 O   0  0  0  0  0  0  0  0  0  0  0  0
   25.9904  -20.7428  -13.0784 N   0  0  0  0  0  0  0  0  0  0  0  0
   25.2578  -20.2129  -14.2006 C   0  0  0  0  0  0  0  0  0  0  0  0
   23.9961  -20.9392  -14.4604 C   0  0  0  0  0  0  0  0  0  0  0  0
   23.9525  -21.8940  -15.3100 O   0  0  0  0  0  0  0  0  0  0  0  0
   22.7822  -20.6276  -13.8020 N   0  0  0  0  0  0  0  0  0  0  0  0
   21.7124  -21.5721  -13.7248 C   0  0  1  0  0  0  0  0  0  0  0  0
   21.9857  -22.8135  -12.9555 C   0  0  0  0  0  0  0  0  0  0  0  0
   22.2807  -22.4670  -11.5531 C   0  0  0  0  0  0  0  0  0  0  0  0
   23.5207  -22.0428  -11.1421 C   0  0  0  0  0  0  0  0  0  0  0  0
   23.7098  -21.7405   -9.8152 C   0  0  0  0  0  0  0  0  0  0  0  0
   22.6997  -21.8476   -8.8817 C   0  0  0  0  0  0  0  0  0  0  0  0
   21.4585  -22.2723   -9.2931 C   0  0  0  0  0  0  0  0  0  0  0  0
   21.2709  -22.5749  -10.6243 C   0  0  0  0  0  0  0  0  0  0  0  0
   20.5025  -20.8524  -13.1777 C   0  0  0  0  0  0  0  0  0  0  0  0
   19.3969  -21.4498  -13.1720 O   0  0  0  0  0  0  0  0  0  0  0  0
   20.5642  -19.5686  -12.6875 O   0  0  0  0  0  0  0  0  0  0  0  0
  2  1  1  6
  2 13  1  0
  2  3  1  0
  3  4  1  0
  4  5  2  0
  5  6  1  0
  7  6  1  0
  8  7  2  0
  9  8  1  0
 10 11  1  0
 10  9  2  0
 11 12  2  0
 12  4  1  0
 12  7  1  0
 13 15  1  0
 14 13  2  0
 15 16  1  0
 17 18  2  0
 17 16  1  0
 19 17  1  0
 20 21  1  1
 20 19  1  0
 21 22  1  0
 22 23  2  0
 23 24  1  0
 25 24  2  0
 26 25  1  0
 27 26  2  0
 27 22  1  0
 28 30  1  0
 28 20  1  0
 29 28  2  0
M  END
$$$$
