WGF.pdb
     RDKit          3D

 30 32  0  0  1  0  0  0  0  0999 V2000
   25.9938  -16.4927  -16.2103 N   0  0  0  0  0  0  0  0  0  0  0  0
   25.7857  -17.8406  -15.7305 C   0  0  1  0  0  0  0  0  0  0  0  0
   25.0166  -18.6930  -16.6947 C   0  0  0  0  0  0  0  0  0  0  0  0
   23.6704  -18.1750  -17.0330 C   0  0  0  0  0  0  0  0  0  0  0  0
   23.4141  -17.3094  -18.1045 C   0  0  0  0  0  0  0  0  0  0  0  0
   22.1033  -17.0169  -18.1217 N   0  0  0  0  0  0  0  0  0  0  0  0
   21.4599  -17.6385  -17.1198 C   0  0  0  0  0  0  0  0  0  0  0  0
   20.1376  -17.6504  -16.7393 C   0  0  0  0  0  0  0  0  0  0  0  0
   19.7602  -18.4009  -15.6507 C   0  0  0  0  0  0  0  0  0  0  0  0
   20.7332  -19.1139  -14.9844 C   0  0  0  0  0  0  0  0  0  0  0  0
   22.0685  -19.1078  -15.3608 C   0  0  0  0  0  0  0  0  0  0  0  0
   22.4434  -18.3650  -16.4375 C   0  0  0  0  0  0  0  0  0  0  0  0
   27.0635  -18.4617  -15.3125 C   0  0  0  0  0  0  0  0  0  0  0  0
   28.0978  -18.2176  -15.9652 O   0  0  0  0  0  0  0  0  0  0  0  0
   27.1323  -19.3233  -14.1909 N   0  0  0  0  0  0  0  0  0  0  0  0
   28.2063  -20.2590  -13.9720 C   0  0  0  0  0  0  0  0  0  0  0  0
   28.1111  -20.9515  -12.6689 C   0  0  0  0  0  0  0  0  0  0  0  0
   28.8972  -21.9185  -12.3816 O   0  0  0  0  0  0  0  0  0  0  0  0
   27.1618  -20.5979  -11.6800 N   0  0  0  0  0  0  0  0  0  0  0  0
   26.2955  -21.5731  -11.0960 C   0  0  1  0  0  0  0  0  0  0  0  0
   26.7209  -22.1299   -9.7859 C   0  0  0  0  0  0  0  0  0  0  0  0
   27.0616  -21.0255   -8.8704 C   0  0  0  0  0  0  0  0  0  0  0  0
   26.1061  -20.2897   -8.2129 C   0  0  0  0  0  0  0  0  0  0  0  0
   26.5107  -19.2768   -7.3774 C   0  0  0  0  0  0  0  0  0  0  0  0
   27.8410  -18.9724   -7.1755 C   0  0  0  0  0  0  0  0  0  0  0  0
   28.7973  -19.7089   -7.8337 C   0  0  0  0  0  0  0  0  0  0  0  0
   28.3895  -20.7243   -8.6711 C   0  0  0  0  0  0  0  0  0  0  0  0
   24.9160  -20.9652  -11.0028 C   0  0  0  0  0  0  0  0  0  0  0  0
   24.7764  -19.7437  -11.2629 O   0  0  0  0  0  0  0  0  0  0  0  0
   23.8080  -21.6966  -10.6427 O   0  0  0  0  0  0  0  0  0  0  0  0
  2  1  1  6
  2 13  1  0
  2  3  1  0
  3  4  1  0
  4  5  2  0
  5  6  1  0
  7  6  1  0
  8  7  2  0
  9  8  1  0
 10 11  1  0
 10  9  2  0
 11 12  2  0
 12  4  1  0
 12  7  1  0
 13 15  1  0
 14 13  2  0
 15 16  1  0
 17 18  2  0
 17 16  1  0
 19 17  1  0
 20 21  1  1
 20 19  1  0
 21 22  1  0
 22 23  2  0
 23 24  1  0
 25 24  2  0
 26 25  1  0
 27 26  2  0
 27 22  1  0
 28 30  1  0
 28 20  1  0
 29 28  2  0
M  END
$$$$
