WGF.pdb
     RDKit          3D

 30 32  0  0  1  0  0  0  0  0999 V2000
   26.5957  -17.0585  -16.1711 N   0  0  0  0  0  0  0  0  0  0  0  0
   26.1246  -18.2939  -15.5861 C   0  0  1  0  0  0  0  0  0  0  0  0
   25.0833  -18.9771  -16.4207 C   0  0  0  0  0  0  0  0  0  0  0  0
   23.7181  -18.4203  -16.2754 C   0  0  0  0  0  0  0  0  0  0  0  0
   23.1436  -17.5171  -17.1793 C   0  0  0  0  0  0  0  0  0  0  0  0
   21.9125  -17.1962  -16.7486 N   0  0  0  0  0  0  0  0  0  0  0  0
   21.6240  -17.8344  -15.6024 C   0  0  0  0  0  0  0  0  0  0  0  0
   20.5063  -17.8296  -14.7998 C   0  0  0  0  0  0  0  0  0  0  0  0
   20.4933  -18.6048  -13.6642 C   0  0  0  0  0  0  0  0  0  0  0  0
   21.6113  -19.3585  -13.3795 C   0  0  0  0  0  0  0  0  0  0  0  0
   22.7425  -19.3694  -14.1826 C   0  0  0  0  0  0  0  0  0  0  0  0
   22.7568  -18.6022  -15.3064 C   0  0  0  0  0  0  0  0  0  0  0  0
   27.2551  -19.1858  -15.2402 C   0  0  0  0  0  0  0  0  0  0  0  0
   28.1483  -19.3880  -16.0868 O   0  0  0  0  0  0  0  0  0  0  0  0
   27.3402  -19.8103  -13.9722 N   0  0  0  0  0  0  0  0  0  0  0  0
   28.4716  -20.5952  -13.5470 C   0  0  0  0  0  0  0  0  0  0  0  0
   28.3150  -21.1399  -12.1811 C   0  0  0  0  0  0  0  0  0  0  0  0
   29.0702  -22.0824  -11.7608 O   0  0  0  0  0  0  0  0  0  0  0  0
   27.3376  -20.6652  -11.2736 N   0  0  0  0  0  0  0  0  0  0  0  0
   26.2751  -21.5044  -10.8163 C   0  0  1  0  0  0  0  0  0  0  0  0
   26.3923  -22.0147   -9.4258 C   0  0  0  0  0  0  0  0  0  0  0  0
   27.0770  -21.0109   -8.5907 C   0  0  0  0  0  0  0  0  0  0  0  0
   26.4128  -19.9630   -8.0015 C   0  0  0  0  0  0  0  0  0  0  0  0
   27.1281  -19.0719   -7.2385 C   0  0  0  0  0  0  0  0  0  0  0  0
   28.4884  -19.1920   -7.0432 C   0  0  0  0  0  0  0  0  0  0  0  0
   29.1533  -20.2409   -7.6330 C   0  0  0  0  0  0  0  0  0  0  0  0
   28.4341  -21.1334   -8.3978 C   0  0  0  0  0  0  0  0  0  0  0  0
   24.9798  -20.7518  -11.0086 C   0  0  0  0  0  0  0  0  0  0  0  0
   23.8971  -21.3446  -10.7729 O   0  0  0  0  0  0  0  0  0  0  0  0
   24.9400  -19.4439  -11.4331 O   0  0  0  0  0  0  0  0  0  0  0  0
  2  1  1  6
  2 13  1  0
  2  3  1  0
  3  4  1  0
  4  5  2  0
  5  6  1  0
  7  6  1  0
  8  7  2  0
  9  8  1  0
 10 11  1  0
 10  9  2  0
 11 12  2  0
 12  4  1  0
 12  7  1  0
 13 15  1  0
 14 13  2  0
 15 16  1  0
 17 18  2  0
 17 16  1  0
 19 17  1  0
 20 21  1  1
 20 19  1  0
 21 22  1  0
 22 23  2  0
 23 24  1  0
 25 24  2  0
 26 25  1  0
 27 26  2  0
 27 22  1  0
 28 30  1  0
 28 20  1  0
 29 28  2  0
M  END
$$$$
