WGF.pdb
     RDKit          3D

 30 32  0  0  1  0  0  0  0  0999 V2000
   22.3802  -19.0376  -15.0749 N   0  0  0  0  0  0  0  0  0  0  0  0
   23.2870  -18.3513  -15.9675 C   0  0  1  0  0  0  0  0  0  0  0  0
   22.9107  -16.9182  -16.1961 C   0  0  0  0  0  0  0  0  0  0  0  0
   21.5291  -16.7181  -16.6920 C   0  0  0  0  0  0  0  0  0  0  0  0
   20.5151  -16.1000  -15.9485 C   0  0  0  0  0  0  0  0  0  0  0  0
   19.3854  -16.0960  -16.6752 N   0  0  0  0  0  0  0  0  0  0  0  0
   19.5816  -16.6777  -17.8698 C   0  0  0  0  0  0  0  0  0  0  0  0
   18.7413  -16.9013  -18.9363 C   0  0  0  0  0  0  0  0  0  0  0  0
   19.2327  -17.5291  -20.0567 C   0  0  0  0  0  0  0  0  0  0  0  0
   20.5573  -17.9092  -20.0599 C   0  0  0  0  0  0  0  0  0  0  0  0
   21.4117  -17.6881  -18.9893 C   0  0  0  0  0  0  0  0  0  0  0  0
   20.9264  -17.0674  -17.8798 C   0  0  0  0  0  0  0  0  0  0  0  0
   24.6919  -18.5097  -15.5266 C   0  0  0  0  0  0  0  0  0  0  0  0
   24.9690  -18.3577  -14.3201 O   0  0  0  0  0  0  0  0  0  0  0  0
   25.7213  -18.8290  -16.4450 N   0  0  0  0  0  0  0  0  0  0  0  0
   27.0611  -19.1801  -16.0468 C   0  0  0  0  0  0  0  0  0  0  0  0
   27.1125  -20.3919  -15.2009 C   0  0  0  0  0  0  0  0  0  0  0  0
   28.1793  -21.0928  -15.1240 O   0  0  0  0  0  0  0  0  0  0  0  0
   26.0066  -20.8448  -14.4419 N   0  0  0  0  0  0  0  0  0  0  0  0
   26.0758  -22.0431  -13.6661 C   0  0  1  0  0  0  0  0  0  0  0  0
   26.9256  -21.9898  -12.4486 C   0  0  0  0  0  0  0  0  0  0  0  0
   26.3786  -20.9915  -11.5114 C   0  0  0  0  0  0  0  0  0  0  0  0
   26.6202  -19.6457  -11.6418 C   0  0  0  0  0  0  0  0  0  0  0  0
   26.0716  -18.7835  -10.7235 C   0  0  0  0  0  0  0  0  0  0  0  0
   25.2875  -19.2207   -9.6760 C   0  0  0  0  0  0  0  0  0  0  0  0
   25.0458  -20.5678   -9.5455 C   0  0  0  0  0  0  0  0  0  0  0  0
   25.5968  -21.4308  -10.4676 C   0  0  0  0  0  0  0  0  0  0  0  0
   24.6625  -22.4497  -13.3216 C   0  0  0  0  0  0  0  0  0  0  0  0
   24.4725  -23.5640  -12.7724 O   0  0  0  0  0  0  0  0  0  0  0  0
   23.5765  -21.6484  -13.5873 O   0  0  0  0  0  0  0  0  0  0  0  0
  2  1  1  1
  2 13  1  0
  2  3  1  0
  3  4  1  0
  4  5  2  0
  5  6  1  0
  7  6  1  0
  8  7  2  0
  9  8  1  0
 10 11  1  0
 10  9  2  0
 11 12  2  0
 12  4  1  0
 12  7  1  0
 13 15  1  0
 14 13  2  0
 15 16  1  0
 17 18  2  0
 17 16  1  0
 19 17  1  0
 20 21  1  1
 20 19  1  0
 21 22  1  0
 22 23  2  0
 23 24  1  0
 25 24  2  0
 26 25  1  0
 27 26  2  0
 27 22  1  0
 28 30  1  0
 28 20  1  0
 29 28  2  0
M  END
$$$$
