WGF.pdb
     RDKit          3D

 30 32  0  0  1  0  0  0  0  0999 V2000
   28.4831  -30.6677  -19.1653 N   0  0  0  0  0  0  0  0  0  0  0  0
   29.6191  -31.1712  -19.9044 C   0  0  1  0  0  0  0  0  0  0  0  0
   30.0999  -30.2199  -20.9586 C   0  0  0  0  0  0  0  0  0  0  0  0
   29.0966  -29.9009  -22.0010 C   0  0  0  0  0  0  0  0  0  0  0  0
   28.6249  -28.6074  -22.2601 C   0  0  0  0  0  0  0  0  0  0  0  0
   27.7145  -28.6670  -23.2459 N   0  0  0  0  0  0  0  0  0  0  0  0
   27.5460  -29.9312  -23.6672 C   0  0  0  0  0  0  0  0  0  0  0  0
   26.7416  -30.4803  -24.6392 C   0  0  0  0  0  0  0  0  0  0  0  0
   26.7857  -31.8371  -24.8581 C   0  0  0  0  0  0  0  0  0  0  0  0
   27.6422  -32.5920  -24.0862 C   0  0  0  0  0  0  0  0  0  0  0  0
   28.4566  -32.0471  -23.1041 C   0  0  0  0  0  0  0  0  0  0  0  0
   28.4133  -30.7046  -22.8861 C   0  0  0  0  0  0  0  0  0  0  0  0
   30.7006  -31.6054  -18.9905 C   0  0  0  0  0  0  0  0  0  0  0  0
   31.7503  -32.0745  -19.4737 O   0  0  0  0  0  0  0  0  0  0  0  0
   30.5654  -31.4983  -17.5850 N   0  0  0  0  0  0  0  0  0  0  0  0
   31.5258  -32.0301  -16.6513 C   0  0  0  0  0  0  0  0  0  0  0  0
   30.9388  -33.0168  -15.7193 C   0  0  0  0  0  0  0  0  0  0  0  0
   31.5219  -33.3064  -14.6187 O   0  0  0  0  0  0  0  0  0  0  0  0
   29.7223  -33.6913  -15.9828 N   0  0  0  0  0  0  0  0  0  0  0  0
   28.9671  -34.3028  -14.9349 C   0  0  1  0  0  0  0  0  0  0  0  0
   28.3016  -33.3799  -13.9794 C   0  0  0  0  0  0  0  0  0  0  0  0
   27.3347  -32.5358  -14.7050 C   0  0  0  0  0  0  0  0  0  0  0  0
   26.0240  -32.9037  -14.8873 C   0  0  0  0  0  0  0  0  0  0  0  0
   25.1894  -32.0572  -15.5764 C   0  0  0  0  0  0  0  0  0  0  0  0
   25.6204  -30.8521  -16.0912 C   0  0  0  0  0  0  0  0  0  0  0  0
   26.9324  -30.4839  -15.9088 C   0  0  0  0  0  0  0  0  0  0  0  0
   27.7677  -31.3343  -15.2174 C   0  0  0  0  0  0  0  0  0  0  0  0
   27.9646  -35.2342  -15.5742 C   0  0  0  0  0  0  0  0  0  0  0  0
   27.2618  -35.9653  -14.8319 O   0  0  0  0  0  0  0  0  0  0  0  0
   27.7928  -35.3140  -16.9367 O   0  0  0  0  0  0  0  0  0  0  0  0
  2  1  1  1
  2 13  1  0
  2  3  1  0
  3  4  1  0
  4  5  2  0
  5  6  1  0
  7  6  1  0
  8  7  2  0
  9  8  1  0
 10 11  1  0
 10  9  2  0
 11 12  2  0
 12  4  1  0
 12  7  1  0
 13 15  1  0
 14 13  2  0
 15 16  1  0
 17 18  2  0
 17 16  1  0
 19 17  1  0
 20 21  1  6
 20 19  1  0
 21 22  1  0
 22 23  2  0
 23 24  1  0
 25 24  2  0
 26 25  1  0
 27 26  2  0
 27 22  1  0
 28 30  1  0
 28 20  1  0
 29 28  2  0
M  END
$$$$
