VHK.pdb
     RDKit          3D

 27 27  0  0  1  0  0  0  0  0999 V2000
    7.5592  -11.6896   19.2192 C   0  0  0  0  0  0  0  0  0  0  0  0
    8.3000  -12.8809   19.8077 C   0  0  1  0  0  0  0  0  0  0  0  0
    7.3744  -13.6845   20.7050 C   0  0  0  0  0  0  0  0  0  0  0  0
    8.8691  -13.7279   18.6984 C   0  0  2  0  0  0  0  0  0  0  0  0
    7.8260  -14.3068   17.8776 N   0  0  0  0  0  0  0  0  0  0  0  0
    9.7153  -14.7915   19.3228 C   0  0  0  0  0  0  0  0  0  0  0  0
    9.2918  -15.9690   19.4409 O   0  0  0  0  0  0  0  0  0  0  0  0
   11.0279  -14.5278   19.8094 N   0  0  0  0  0  0  0  0  0  0  0  0
   11.8760  -15.5536   20.3911 C   0  0  1  0  0  0  0  0  0  0  0  0
   13.3295  -15.2904   20.1450 C   0  0  0  0  0  0  0  0  0  0  0  0
   13.7121  -15.6082   18.7685 C   0  0  0  0  0  0  0  0  0  0  0  0
   13.2150  -16.6876   18.0463 C   0  0  0  0  0  0  0  0  0  0  0  0
   13.7767  -16.6812   16.8253 N   0  0  0  0  0  0  0  0  0  0  0  0
   14.6074  -15.6354   16.7595 C   0  0  0  0  0  0  0  0  0  0  0  0
   14.5696  -14.9948   17.9181 N   0  0  0  0  0  0  0  0  0  0  0  0
   11.5358  -15.7969   21.8155 C   0  0  0  0  0  0  0  0  0  0  0  0
   11.6817  -14.8894   22.6604 O   0  0  0  0  0  0  0  0  0  0  0  0
   11.0422  -17.0411   22.2671 N   0  0  0  0  0  0  0  0  0  0  0  0
   10.6443  -17.3525   23.5978 C   0  0  1  0  0  0  0  0  0  0  0  0
    9.8142  -18.6386   23.6619 C   0  0  0  0  0  0  0  0  0  0  0  0
    9.4158  -18.9370   25.0935 C   0  0  0  0  0  0  0  0  0  0  0  0
    8.6630  -20.2380   25.1382 C   0  0  0  0  0  0  0  0  0  0  0  0
    8.1787  -20.5752   26.5234 C   0  0  0  0  0  0  0  0  0  0  0  0
    7.5827  -21.8804   26.5762 N   0  0  0  0  0  0  0  0  0  0  0  0
   11.7190  -17.3895   24.5765 C   0  0  0  0  0  0  0  0  0  0  0  0
   12.7643  -18.0291   24.3426 O   0  0  0  0  0  0  0  0  0  0  0  0
   11.6044  -16.7216   25.7763 O   0  0  0  0  0  0  0  0  0  0  0  0
  2  1  1  6
  2  4  1  0
  2  3  1  0
  4  5  1  1
  6  4  1  0
  6  7  2  0
  8  6  1  0
  9  8  1  0
  9 10  1  1
 11 10  1  0
 11 15  1  0
 12 13  1  0
 12 11  2  0
 13 14  1  0
 14 15  2  0
 16  9  1  0
 17 16  2  0
 18 16  1  0
 19 18  1  0
 19 25  1  0
 19 20  1  6
 21 20  1  0
 21 22  1  0
 23 24  1  0
 23 22  1  0
 25 27  1  0
 26 25  2  0
M  END
$$$$
