VHK.pdb
     RDKit          3D

 27 27  0  0  1  0  0  0  0  0999 V2000
    5.6359  -11.7979   27.7002 C   0  0  0  0  0  0  0  0  0  0  0  0
    5.7626  -12.3705   26.2966 C   0  0  1  0  0  0  0  0  0  0  0  0
    5.8550  -11.2481   25.2772 C   0  0  0  0  0  0  0  0  0  0  0  0
    6.9585  -13.2851   26.2236 C   0  0  2  0  0  0  0  0  0  0  0  0
    8.1849  -12.5905   26.5560 N   0  0  0  0  0  0  0  0  0  0  0  0
    7.0182  -13.8509   24.8402 C   0  0  0  0  0  0  0  0  0  0  0  0
    6.2360  -14.7670   24.4817 O   0  0  0  0  0  0  0  0  0  0  0  0
    7.9527  -13.3863   23.8708 N   0  0  0  0  0  0  0  0  0  0  0  0
    8.1452  -14.0338   22.5848 C   0  0  1  0  0  0  0  0  0  0  0  0
    8.0918  -13.0596   21.4488 C   0  0  0  0  0  0  0  0  0  0  0  0
    8.1179  -13.7376   20.1519 C   0  0  0  0  0  0  0  0  0  0  0  0
    7.0493  -14.4499   19.6185 C   0  0  0  0  0  0  0  0  0  0  0  0
    7.4158  -14.9398   18.4219 N   0  0  0  0  0  0  0  0  0  0  0  0
    8.6762  -14.5584   18.1890 C   0  0  0  0  0  0  0  0  0  0  0  0
    9.0958  -13.8413   19.2206 N   0  0  0  0  0  0  0  0  0  0  0  0
    9.3519  -14.8984   22.5868 C   0  0  0  0  0  0  0  0  0  0  0  0
   10.4110  -14.4984   23.1132 O   0  0  0  0  0  0  0  0  0  0  0  0
    9.3537  -16.1855   22.0045 N   0  0  0  0  0  0  0  0  0  0  0  0
   10.2893  -17.2249   22.2701 C   0  0  1  0  0  0  0  0  0  0  0  0
    9.9613  -17.9743   23.5654 C   0  0  0  0  0  0  0  0  0  0  0  0
   10.9736  -19.0763   23.8066 C   0  0  0  0  0  0  0  0  0  0  0  0
   10.6053  -19.8233   25.0587 C   0  0  0  0  0  0  0  0  0  0  0  0
   11.6038  -20.8961   25.4035 C   0  0  0  0  0  0  0  0  0  0  0  0
   11.9403  -20.8817   26.7992 N   0  0  0  0  0  0  0  0  0  0  0  0
   10.5054  -18.1617   21.1793 C   0  0  0  0  0  0  0  0  0  0  0  0
   11.4145  -19.0133   21.2490 O   0  0  0  0  0  0  0  0  0  0  0  0
    9.7136  -18.1274   20.0521 O   0  0  0  0  0  0  0  0  0  0  0  0
  2  1  1  1
  2  4  1  0
  2  3  1  0
  4  5  1  6
  6  4  1  0
  6  7  2  0
  8  6  1  0
  9  8  1  0
  9 10  1  6
 11 10  1  0
 11 15  1  0
 12 13  1  0
 12 11  2  0
 13 14  1  0
 14 15  2  0
 16  9  1  0
 17 16  2  0
 18 16  1  0
 19 18  1  0
 19 25  1  0
 19 20  1  1
 21 20  1  0
 21 22  1  0
 23 24  1  0
 23 22  1  0
 25 27  1  0
 26 25  2  0
M  END
$$$$
