VHK.pdb
     RDKit          3D

 27 27  0  0  1  0  0  0  0  0999 V2000
    6.9039   -9.9512   27.0149 C   0  0  0  0  0  0  0  0  0  0  0  0
    7.2812  -11.3011   26.4238 C   0  0  1  0  0  0  0  0  0  0  0  0
    7.7687  -12.2361   27.5173 C   0  0  0  0  0  0  0  0  0  0  0  0
    6.1041  -11.8816   25.6826 C   0  0  2  0  0  0  0  0  0  0  0  0
    5.0151  -12.2087   26.5792 N   0  0  0  0  0  0  0  0  0  0  0  0
    6.5792  -13.0948   24.9478 C   0  0  0  0  0  0  0  0  0  0  0  0
    6.3814  -14.2480   25.4069 O   0  0  0  0  0  0  0  0  0  0  0  0
    7.2712  -13.0063   23.7058 N   0  0  0  0  0  0  0  0  0  0  0  0
    7.5841  -14.1675   22.8911 C   0  0  1  0  0  0  0  0  0  0  0  0
    7.9890  -13.7882   21.5001 C   0  0  0  0  0  0  0  0  0  0  0  0
    8.1603  -14.9645   20.6461 C   0  0  0  0  0  0  0  0  0  0  0  0
    7.2527  -15.3639   19.6711 C   0  0  0  0  0  0  0  0  0  0  0  0
    7.7201  -16.4774   19.0813 N   0  0  0  0  0  0  0  0  0  0  0  0
    8.8881  -16.7877   19.6537 C   0  0  0  0  0  0  0  0  0  0  0  0
    9.1514  -15.8858   20.5873 N   0  0  0  0  0  0  0  0  0  0  0  0
    8.5419  -15.0707   23.5771 C   0  0  0  0  0  0  0  0  0  0  0  0
    9.6025  -14.6167   24.0543 O   0  0  0  0  0  0  0  0  0  0  0  0
    8.2992  -16.4553   23.7166 N   0  0  0  0  0  0  0  0  0  0  0  0
    9.1544  -17.3965   24.3562 C   0  0  1  0  0  0  0  0  0  0  0  0
    8.4577  -18.7418   24.5839 C   0  0  0  0  0  0  0  0  0  0  0  0
    9.3789  -19.6934   25.3208 C   0  0  0  0  0  0  0  0  0  0  0  0
    8.6841  -21.0144   25.5044 C   0  0  0  0  0  0  0  0  0  0  0  0
    9.4825  -21.9720   26.3484 C   0  0  0  0  0  0  0  0  0  0  0  0
    8.8137  -23.2335   26.4998 N   0  0  0  0  0  0  0  0  0  0  0  0
   10.4484  -17.5926   23.7230 C   0  0  0  0  0  0  0  0  0  0  0  0
   10.5366  -17.6855   22.4820 O   0  0  0  0  0  0  0  0  0  0  0  0
   11.5978  -17.6795   24.4780 O   0  0  0  0  0  0  0  0  0  0  0  0
  2  1  1  1
  2  4  1  0
  2  3  1  0
  4  5  1  1
  6  4  1  0
  6  7  2  0
  8  6  1  0
  9  8  1  0
  9 10  1  6
 11 10  1  0
 11 15  1  0
 12 13  1  0
 12 11  2  0
 13 14  1  0
 14 15  2  0
 16  9  1  0
 17 16  2  0
 18 16  1  0
 19 18  1  0
 19 25  1  0
 19 20  1  6
 21 20  1  0
 21 22  1  0
 23 24  1  0
 23 22  1  0
 25 27  1  0
 26 25  2  0
M  END
$$$$
