VHK.pdb
     RDKit          3D

 27 27  0  0  1  0  0  0  0  0999 V2000
    9.9471  -20.1620   19.5529 C   0  0  0  0  0  0  0  0  0  0  0  0
   10.1907  -19.4786   18.2159 C   0  0  1  0  0  0  0  0  0  0  0  0
    9.8497  -20.4206   17.0740 C   0  0  0  0  0  0  0  0  0  0  0  0
    9.3901  -18.2037   18.1401 C   0  0  2  0  0  0  0  0  0  0  0  0
    9.6122  -17.5054   16.8912 N   0  0  0  0  0  0  0  0  0  0  0  0
    9.7737  -17.3522   19.3085 C   0  0  0  0  0  0  0  0  0  0  0  0
   10.8892  -16.7743   19.3494 O   0  0  0  0  0  0  0  0  0  0  0  0
    8.9057  -17.1553   20.4206 N   0  0  0  0  0  0  0  0  0  0  0  0
    9.2637  -16.3394   21.5678 C   0  0  1  0  0  0  0  0  0  0  0  0
    8.1788  -15.3744   21.9345 C   0  0  0  0  0  0  0  0  0  0  0  0
    7.9654  -14.3752   20.8864 C   0  0  0  0  0  0  0  0  0  0  0  0
    6.8155  -14.2880   20.1094 C   0  0  0  0  0  0  0  0  0  0  0  0
    6.9556  -13.2639   19.2504 N   0  0  0  0  0  0  0  0  0  0  0  0
    8.1531  -12.7082   19.4636 C   0  0  0  0  0  0  0  0  0  0  0  0
    8.7561  -13.3705   20.4394 N   0  0  0  0  0  0  0  0  0  0  0  0
    9.7429  -17.1725   22.6991 C   0  0  0  0  0  0  0  0  0  0  0  0
    9.0445  -18.1157   23.1251 O   0  0  0  0  0  0  0  0  0  0  0  0
   10.9850  -16.9386   23.3298 N   0  0  0  0  0  0  0  0  0  0  0  0
   11.5814  -17.7508   24.3353 C   0  0  1  0  0  0  0  0  0  0  0  0
   13.1108  -17.7431   24.2461 C   0  0  0  0  0  0  0  0  0  0  0  0
   13.5930  -18.8877   23.3774 C   0  0  0  0  0  0  0  0  0  0  0  0
   15.0953  -18.8639   23.3139 C   0  0  0  0  0  0  0  0  0  0  0  0
   15.6517  -19.9580   22.4420 C   0  0  0  0  0  0  0  0  0  0  0  0
   17.0851  -19.9087   22.3754 N   0  0  0  0  0  0  0  0  0  0  0  0
   11.1482  -17.4758   25.6957 C   0  0  0  0  0  0  0  0  0  0  0  0
   10.4662  -16.4621   25.9486 O   0  0  0  0  0  0  0  0  0  0  0  0
   11.4811  -18.3257   26.7279 O   0  0  0  0  0  0  0  0  0  0  0  0
  2  1  1  1
  2  4  1  0
  2  3  1  0
  4  5  1  6
  6  4  1  0
  6  7  2  0
  8  6  1  0
  9  8  1  0
  9 10  1  1
 11 10  1  0
 11 15  1  0
 12 13  1  0
 12 11  2  0
 13 14  1  0
 14 15  2  0
 16  9  1  0
 17 16  2  0
 18 16  1  0
 19 18  1  0
 19 25  1  0
 19 20  1  1
 21 20  1  0
 21 22  1  0
 23 24  1  0
 23 22  1  0
 25 27  1  0
 26 25  2  0
M  END
$$$$
