VHK.pdb
     RDKit          3D

 27 27  0  0  1  0  0  0  0  0999 V2000
    7.1476  -12.6467   19.1024 C   0  0  0  0  0  0  0  0  0  0  0  0
    8.4340  -13.3765   19.4582 C   0  0  1  0  0  0  0  0  0  0  0  0
    8.1985  -14.3174   20.6273 C   0  0  0  0  0  0  0  0  0  0  0  0
    8.9548  -14.1129   18.2506 C   0  0  2  0  0  0  0  0  0  0  0  0
    8.0053  -15.0959   17.7721 N   0  0  0  0  0  0  0  0  0  0  0  0
   10.2505  -14.7565   18.6306 C   0  0  0  0  0  0  0  0  0  0  0  0
   10.2947  -15.9615   18.9856 O   0  0  0  0  0  0  0  0  0  0  0  0
   11.4848  -14.0459   18.6101 N   0  0  0  0  0  0  0  0  0  0  0  0
   12.7486  -14.6455   19.0017 C   0  0  1  0  0  0  0  0  0  0  0  0
   13.9226  -13.9070   18.4369 C   0  0  0  0  0  0  0  0  0  0  0  0
   15.1028  -14.7662   18.3304 C   0  0  0  0  0  0  0  0  0  0  0  0
   16.2900  -14.3934   17.7097 C   0  0  0  0  0  0  0  0  0  0  0  0
   17.1567  -15.4172   17.7929 N   0  0  0  0  0  0  0  0  0  0  0  0
   16.5523  -16.4167   18.4441 C   0  0  0  0  0  0  0  0  0  0  0  0
   15.3271  -16.0293   18.7650 N   0  0  0  0  0  0  0  0  0  0  0  0
   12.8162  -14.8618   20.4688 C   0  0  0  0  0  0  0  0  0  0  0  0
   11.9820  -14.3197   21.2232 O   0  0  0  0  0  0  0  0  0  0  0  0
   13.8076  -15.6742   21.0626 N   0  0  0  0  0  0  0  0  0  0  0  0
   13.6695  -16.4216   22.2661 C   0  0  1  0  0  0  0  0  0  0  0  0
   12.3722  -17.2362   22.2894 C   0  0  0  0  0  0  0  0  0  0  0  0
   12.2027  -17.9176   23.6326 C   0  0  0  0  0  0  0  0  0  0  0  0
   10.9076  -18.6818   23.6415 C   0  0  0  0  0  0  0  0  0  0  0  0
   10.7234  -19.4873   24.9002 C   0  0  0  0  0  0  0  0  0  0  0  0
    9.4074  -20.0557   24.9810 N   0  0  0  0  0  0  0  0  0  0  0  0
   14.8053  -17.2609   22.6117 C   0  0  0  0  0  0  0  0  0  0  0  0
   15.3328  -17.9950   21.7518 O   0  0  0  0  0  0  0  0  0  0  0  0
   15.3192  -17.2619   23.8902 O   0  0  0  0  0  0  0  0  0  0  0  0
  2  1  1  6
  2  4  1  0
  2  3  1  0
  4  5  1  1
  6  4  1  0
  6  7  2  0
  8  6  1  0
  9  8  1  0
  9 10  1  1
 11 10  1  0
 11 15  1  0
 12 13  1  0
 12 11  2  0
 13 14  1  0
 14 15  2  0
 16  9  1  0
 17 16  2  0
 18 16  1  0
 19 18  1  0
 19 25  1  0
 19 20  1  6
 21 20  1  0
 21 22  1  0
 23 24  1  0
 23 22  1  0
 25 27  1  0
 26 25  2  0
M  END
$$$$
