VHK.pdb
     RDKit          3D

 27 27  0  0  1  0  0  0  0  0999 V2000
    7.6192  -12.0223   19.1797 C   0  0  0  0  0  0  0  0  0  0  0  0
    8.5612  -13.0720   19.7497 C   0  0  1  0  0  0  0  0  0  0  0  0
    7.8034  -14.0149   20.6686 C   0  0  0  0  0  0  0  0  0  0  0  0
    9.2364  -13.8168   18.6266 C   0  0  2  0  0  0  0  0  0  0  0  0
    8.2741  -14.4480   17.7479 N   0  0  0  0  0  0  0  0  0  0  0  0
   10.1544  -14.8288   19.2354 C   0  0  0  0  0  0  0  0  0  0  0  0
    9.8609  -16.0510   19.2358 O   0  0  0  0  0  0  0  0  0  0  0  0
   11.3923  -14.4639   19.8383 N   0  0  0  0  0  0  0  0  0  0  0  0
   12.3058  -15.4339   20.4168 C   0  0  1  0  0  0  0  0  0  0  0  0
   13.7324  -15.1454   20.0645 C   0  0  0  0  0  0  0  0  0  0  0  0
   14.0011  -15.3926   18.6471 C   0  0  0  0  0  0  0  0  0  0  0  0
   14.3307  -14.4028   17.7278 C   0  0  0  0  0  0  0  0  0  0  0  0
   14.5080  -14.9767   16.5255 N   0  0  0  0  0  0  0  0  0  0  0  0
   14.3006  -16.2907   16.6616 C   0  0  0  0  0  0  0  0  0  0  0  0
   13.9982  -16.5397   17.9269 N   0  0  0  0  0  0  0  0  0  0  0  0
   12.0631  -15.6094   21.8707 C   0  0  0  0  0  0  0  0  0  0  0  0
   12.6042  -14.8437   22.6952 O   0  0  0  0  0  0  0  0  0  0  0  0
   11.2262  -16.6301   22.3740 N   0  0  0  0  0  0  0  0  0  0  0  0
   10.9078  -16.8549   23.7430 C   0  0  1  0  0  0  0  0  0  0  0  0
    9.6070  -17.6476   23.9065 C   0  0  0  0  0  0  0  0  0  0  0  0
    9.7907  -19.0682   23.4113 C   0  0  0  0  0  0  0  0  0  0  0  0
    8.5068  -19.8286   23.5974 C   0  0  0  0  0  0  0  0  0  0  0  0
    8.5869  -21.2332   23.0608 C   0  0  0  0  0  0  0  0  0  0  0  0
    7.3804  -21.9694   23.3135 N   0  0  0  0  0  0  0  0  0  0  0  0
   11.9699  -17.4472   24.5400 C   0  0  0  0  0  0  0  0  0  0  0  0
   12.9347  -18.0122   23.9865 O   0  0  0  0  0  0  0  0  0  0  0  0
   11.9316  -17.3963   25.9165 O   0  0  0  0  0  0  0  0  0  0  0  0
  2  1  1  6
  2  4  1  0
  2  3  1  0
  4  5  1  1
  6  4  1  0
  6  7  2  0
  8  6  1  0
  9  8  1  0
  9 10  1  1
 11 10  1  0
 11 15  1  0
 12 13  1  0
 12 11  2  0
 13 14  1  0
 14 15  2  0
 16  9  1  0
 17 16  2  0
 18 16  1  0
 19 18  1  0
 19 25  1  0
 19 20  1  6
 21 20  1  0
 21 22  1  0
 23 24  1  0
 23 22  1  0
 25 27  1  0
 26 25  2  0
M  END
$$$$
