VHK.pdb
     RDKit          3D

 27 27  0  0  1  0  0  0  0  0999 V2000
    7.6411  -20.9450   19.1008 C   0  0  0  0  0  0  0  0  0  0  0  0
    8.5068  -19.8402   19.6873 C   0  0  1  0  0  0  0  0  0  0  0  0
    9.9363  -20.3256   19.8553 C   0  0  0  0  0  0  0  0  0  0  0  0
    8.4368  -18.6161   18.8106 C   0  0  2  0  0  0  0  0  0  0  0  0
    9.0031  -18.8623   17.5009 N   0  0  0  0  0  0  0  0  0  0  0  0
    9.1604  -17.5099   19.5106 C   0  0  0  0  0  0  0  0  0  0  0  0
   10.3594  -17.2476   19.2393 O   0  0  0  0  0  0  0  0  0  0  0  0
    8.5358  -16.7072   20.5079 N   0  0  0  0  0  0  0  0  0  0  0  0
    9.2370  -15.6643   21.2365 C   0  0  1  0  0  0  0  0  0  0  0  0
    8.3777  -14.4590   21.4632 C   0  0  0  0  0  0  0  0  0  0  0  0
    7.9391  -13.8613   20.2012 C   0  0  0  0  0  0  0  0  0  0  0  0
    6.6089  -13.7227   19.8203 C   0  0  0  0  0  0  0  0  0  0  0  0
    6.5684  -13.1382   18.6108 N   0  0  0  0  0  0  0  0  0  0  0  0
    7.8269  -12.9067   18.2226 C   0  0  0  0  0  0  0  0  0  0  0  0
    8.6452  -13.3377   19.1707 N   0  0  0  0  0  0  0  0  0  0  0  0
    9.8743  -16.1956   22.4675 C   0  0  0  0  0  0  0  0  0  0  0  0
    9.1699  -16.6006   23.4154 O   0  0  0  0  0  0  0  0  0  0  0  0
   11.2774  -16.2646   22.6162 N   0  0  0  0  0  0  0  0  0  0  0  0
   11.9791  -16.9639   23.6383 C   0  0  1  0  0  0  0  0  0  0  0  0
   12.6034  -18.2631   23.1192 C   0  0  0  0  0  0  0  0  0  0  0  0
   13.1467  -19.0832   24.2722 C   0  0  0  0  0  0  0  0  0  0  0  0
   13.6845  -20.3850   23.7452 C   0  0  0  0  0  0  0  0  0  0  0  0
   14.1842  -21.2873   24.8421 C   0  0  0  0  0  0  0  0  0  0  0  0
   14.7951  -22.4758   24.3171 N   0  0  0  0  0  0  0  0  0  0  0  0
   12.9638  -16.1797   24.3659 C   0  0  0  0  0  0  0  0  0  0  0  0
   13.1213  -16.3445   25.5925 O   0  0  0  0  0  0  0  0  0  0  0  0
   13.7390  -15.2430   23.7175 O   0  0  0  0  0  0  0  0  0  0  0  0
  2  1  1  6
  2  4  1  0
  2  3  1  0
  4  5  1  6
  6  4  1  0
  6  7  2  0
  8  6  1  0
  9  8  1  0
  9 10  1  1
 11 10  1  0
 11 15  1  0
 12 13  1  0
 12 11  2  0
 13 14  1  0
 14 15  2  0
 16  9  1  0
 17 16  2  0
 18 16  1  0
 19 18  1  0
 19 25  1  0
 19 20  1  6
 21 20  1  0
 21 22  1  0
 23 24  1  0
 23 22  1  0
 25 27  1  0
 26 25  2  0
M  END
$$$$
