MVT.pdb
     RDKit          3D

 23 22  0  0  1  0  0  0  0  0999 V2000
    5.3991  -20.4256   23.3510 C   0  0  0  0  0  0  0  0  0  0  0  0
    4.6814  -19.6953   21.8892 S   0  0  0  0  0  0  0  0  0  0  0  0
    4.8286  -17.9298   21.7432 C   0  0  0  0  0  0  0  0  0  0  0  0
    6.0381  -17.3078   22.3350 C   0  0  0  0  0  0  0  0  0  0  0  0
    6.0330  -15.8237   22.2477 C   0  0  2  0  0  0  0  0  0  0  0  0
    6.4265  -15.3943   20.9323 N   0  0  0  0  0  0  0  0  0  0  0  0
    7.0304  -15.2179   23.2173 C   0  0  0  0  0  0  0  0  0  0  0  0
    8.2283  -15.0797   22.8827 O   0  0  0  0  0  0  0  0  0  0  0  0
    7.7775  -12.8994   27.6050 C   0  0  0  0  0  0  0  0  0  0  0  0
    6.9949  -13.3416   26.4142 C   0  0  1  0  0  0  0  0  0  0  0  0
    6.3828  -12.2510   25.5985 C   0  0  0  0  0  0  0  0  0  0  0  0
    7.5629  -14.4181   25.5830 C   0  0  2  0  0  0  0  0  0  0  0  0
    6.6399  -14.8008   24.5017 N   0  0  0  0  0  0  0  0  0  0  0  0
    8.1424  -15.5854   26.2306 C   0  0  0  0  0  0  0  0  0  0  0  0
    7.3365  -16.3923   26.8183 O   0  0  0  0  0  0  0  0  0  0  0  0
   10.4469  -18.2301   24.7578 C   0  0  0  0  0  0  0  0  0  0  0  0
   11.0597  -17.8090   26.0730 C   0  0  1  0  0  0  0  0  0  0  0  0
   12.0903  -16.9007   25.7460 O   0  0  0  0  0  0  0  0  0  0  0  0
   10.0014  -17.1436   26.9160 C   0  0  2  0  0  0  0  0  0  0  0  0
    9.4793  -15.9392   26.2909 N   0  0  0  0  0  0  0  0  0  0  0  0
   10.6126  -16.7529   28.1955 C   0  0  0  0  0  0  0  0  0  0  0  0
   11.1144  -17.6989   29.0639 O   0  0  0  0  0  0  0  0  0  0  0  0
   10.6840  -15.5503   28.5117 O   0  0  0  0  0  0  0  0  0  0  0  0
  2  1  1  0
  3  2  1  0
  4  3  1  0
  5  4  1  0
  5  7  1  0
  5  6  1  6
  7 13  1  0
  7  8  2  0
 10  9  1  6
 10 11  1  0
 12 10  1  0
 12 13  1  6
 14 12  1  0
 14 15  2  0
 17 16  1  6
 17 19  1  0
 18 17  1  0
 19 20  1  6
 20 14  1  0
 21 19  1  0
 22 21  1  0
 23 21  2  0
M  END
$$$$
