MVT.pdb
     RDKit          3D

 23 22  0  0  1  0  0  0  0  0999 V2000
    6.1873  -11.1495   27.3380 C   0  0  0  0  0  0  0  0  0  0  0  0
    6.6004  -12.6406   26.4485 S   0  0  0  0  0  0  0  0  0  0  0  0
    7.4571  -13.8928   27.3747 C   0  0  0  0  0  0  0  0  0  0  0  0
    7.8610  -15.1135   26.6352 C   0  0  0  0  0  0  0  0  0  0  0  0
    6.8402  -15.5656   25.6536 C   0  0  2  0  0  0  0  0  0  0  0  0
    6.0524  -16.6371   26.2021 N   0  0  0  0  0  0  0  0  0  0  0  0
    7.4955  -16.1091   24.3979 C   0  0  0  0  0  0  0  0  0  0  0  0
    7.7210  -17.3350   24.2864 O   0  0  0  0  0  0  0  0  0  0  0  0
    8.8576  -15.0639   19.6637 C   0  0  0  0  0  0  0  0  0  0  0  0
    8.1845  -14.8114   20.9710 C   0  0  1  0  0  0  0  0  0  0  0  0
    6.7228  -14.5144   20.9016 C   0  0  0  0  0  0  0  0  0  0  0  0
    8.5288  -15.6942   22.1001 C   0  0  2  0  0  0  0  0  0  0  0  0
    7.8624  -15.2603   23.3392 N   0  0  0  0  0  0  0  0  0  0  0  0
    9.9235  -16.0375   22.3340 C   0  0  0  0  0  0  0  0  0  0  0  0
   10.6357  -15.1924   22.9854 O   0  0  0  0  0  0  0  0  0  0  0  0
   11.6418  -19.1482   24.0306 C   0  0  0  0  0  0  0  0  0  0  0  0
   12.1558  -18.9467   22.6243 C   0  0  1  0  0  0  0  0  0  0  0  0
   11.3763  -19.7907   21.8032 O   0  0  0  0  0  0  0  0  0  0  0  0
   11.9738  -17.5005   22.2385 C   0  0  2  0  0  0  0  0  0  0  0  0
   10.5878  -17.1842   21.9342 N   0  0  0  0  0  0  0  0  0  0  0  0
   12.7660  -17.2461   21.0255 C   0  0  0  0  0  0  0  0  0  0  0  0
   14.1437  -17.2173   21.0672 O   0  0  0  0  0  0  0  0  0  0  0  0
   12.1944  -17.0517   19.9362 O   0  0  0  0  0  0  0  0  0  0  0  0
  2  1  1  0
  3  2  1  0
  4  3  1  0
  5  4  1  0
  5  7  1  0
  5  6  1  1
  7 13  1  0
  7  8  2  0
 10  9  1  6
 10 11  1  0
 12 10  1  0
 12 13  1  1
 14 12  1  0
 14 15  2  0
 17 16  1  1
 17 19  1  0
 18 17  1  0
 19 20  1  6
 20 14  1  0
 21 19  1  0
 22 21  1  0
 23 21  2  0
M  END
$$$$
