MVT.pdb
     RDKit          3D

 23 22  0  0  1  0  0  0  0  0999 V2000
    9.8999  -13.0601   28.6551 C   0  0  0  0  0  0  0  0  0  0  0  0
   10.0662  -14.7147   29.3031 S   0  0  0  0  0  0  0  0  0  0  0  0
    9.0290  -15.9536   28.5621 C   0  0  0  0  0  0  0  0  0  0  0  0
    8.8552  -15.8882   27.0905 C   0  0  0  0  0  0  0  0  0  0  0  0
    7.7999  -16.8059   26.5863 C   0  0  2  0  0  0  0  0  0  0  0  0
    8.0179  -18.1417   27.0736 N   0  0  0  0  0  0  0  0  0  0  0  0
    7.8279  -16.8878   25.0716 C   0  0  0  0  0  0  0  0  0  0  0  0
    7.6701  -17.9890   24.4984 O   0  0  0  0  0  0  0  0  0  0  0  0
    7.5838  -14.2608   20.7956 C   0  0  0  0  0  0  0  0  0  0  0  0
    7.5731  -14.4453   22.2761 C   0  0  1  0  0  0  0  0  0  0  0  0
    6.3469  -13.9663   22.9808 C   0  0  0  0  0  0  0  0  0  0  0  0
    8.0672  -15.7273   22.8098 C   0  0  2  0  0  0  0  0  0  0  0  0
    8.0293  -15.7427   24.2815 N   0  0  0  0  0  0  0  0  0  0  0  0
    9.3153  -16.2753   22.3004 C   0  0  0  0  0  0  0  0  0  0  0  0
    9.4231  -16.4093   21.0291 O   0  0  0  0  0  0  0  0  0  0  0  0
   12.8094  -15.2114   21.9969 C   0  0  0  0  0  0  0  0  0  0  0  0
   12.8588  -16.5078   22.7712 C   0  0  1  0  0  0  0  0  0  0  0  0
   12.9170  -16.1422   24.1339 O   0  0  0  0  0  0  0  0  0  0  0  0
   11.6107  -17.3015   22.4783 C   0  0  2  0  0  0  0  0  0  0  0  0
   10.4205  -16.6759   23.0314 N   0  0  0  0  0  0  0  0  0  0  0  0
   11.7510  -18.6248   23.1048 C   0  0  0  0  0  0  0  0  0  0  0  0
   12.7396  -19.5000   22.7080 O   0  0  0  0  0  0  0  0  0  0  0  0
   10.9697  -18.9727   24.0101 O   0  0  0  0  0  0  0  0  0  0  0  0
  2  1  1  0
  3  2  1  0
  4  3  1  0
  5  4  1  0
  5  7  1  0
  5  6  1  1
  7 13  1  0
  7  8  2  0
 10  9  1  6
 10 11  1  0
 12 10  1  0
 12 13  1  1
 14 12  1  0
 14 15  2  0
 17 16  1  6
 17 19  1  0
 18 17  1  0
 19 20  1  1
 20 14  1  0
 21 19  1  0
 22 21  1  0
 23 21  2  0
M  END
$$$$
