MVT.pdb
     RDKit          3D

 23 22  0  0  1  0  0  0  0  0999 V2000
    4.7748  -19.4934   22.1705 C   0  0  0  0  0  0  0  0  0  0  0  0
    4.5873  -18.5569   20.6628 S   0  0  0  0  0  0  0  0  0  0  0  0
    5.4090  -16.9814   20.6125 C   0  0  0  0  0  0  0  0  0  0  0  0
    6.1372  -16.5670   21.8364 C   0  0  0  0  0  0  0  0  0  0  0  0
    6.7127  -15.1997   21.7381 C   0  0  2  0  0  0  0  0  0  0  0  0
    7.6210  -15.1133   20.6260 N   0  0  0  0  0  0  0  0  0  0  0  0
    7.5142  -14.8558   22.9795 C   0  0  0  0  0  0  0  0  0  0  0  0
    8.7382  -15.1118   23.0286 O   0  0  0  0  0  0  0  0  0  0  0  0
    7.4455  -12.7235   27.5488 C   0  0  0  0  0  0  0  0  0  0  0  0
    6.9420  -12.9783   26.1676 C   0  0  1  0  0  0  0  0  0  0  0  0
    6.7359  -11.7676   25.3184 C   0  0  0  0  0  0  0  0  0  0  0  0
    7.5366  -14.0996   25.4182 C   0  0  2  0  0  0  0  0  0  0  0  0
    6.9105  -14.2480   24.0939 N   0  0  0  0  0  0  0  0  0  0  0  0
    7.7047  -15.3857   26.0782 C   0  0  0  0  0  0  0  0  0  0  0  0
    6.6401  -16.0161   26.4173 O   0  0  0  0  0  0  0  0  0  0  0  0
    8.6023  -18.5211   24.8950 C   0  0  0  0  0  0  0  0  0  0  0  0
    9.5536  -18.3684   26.0588 C   0  0  1  0  0  0  0  0  0  0  0  0
   10.7794  -17.9419   25.5026 O   0  0  0  0  0  0  0  0  0  0  0  0
    9.0036  -17.3350   27.0091 C   0  0  2  0  0  0  0  0  0  0  0  0
    8.8927  -16.0243   26.3897 N   0  0  0  0  0  0  0  0  0  0  0  0
    9.9318  -17.2150   28.1437 C   0  0  0  0  0  0  0  0  0  0  0  0
   10.1548  -18.2746   28.9972 O   0  0  0  0  0  0  0  0  0  0  0  0
   10.5326  -16.1434   28.3479 O   0  0  0  0  0  0  0  0  0  0  0  0
  2  1  1  0
  3  2  1  0
  4  3  1  0
  5  4  1  0
  5  7  1  0
  5  6  1  6
  7 13  1  0
  7  8  2  0
 10  9  1  1
 10 11  1  0
 12 10  1  0
 12 13  1  6
 14 12  1  0
 14 15  2  0
 17 16  1  6
 17 19  1  0
 18 17  1  0
 19 20  1  6
 20 14  1  0
 21 19  1  0
 22 21  1  0
 23 21  2  0
M  END
$$$$
