MVT.pdb
     RDKit          3D

 23 22  0  0  1  0  0  0  0  0999 V2000
    7.8410  -11.4147   27.1523 C   0  0  0  0  0  0  0  0  0  0  0  0
    6.4651  -12.2479   27.9255 S   0  0  0  0  0  0  0  0  0  0  0  0
    6.0344  -13.8365   27.2542 C   0  0  0  0  0  0  0  0  0  0  0  0
    6.9778  -14.4269   26.2736 C   0  0  0  0  0  0  0  0  0  0  0  0
    6.3792  -15.5331   25.4811 C   0  0  2  0  0  0  0  0  0  0  0  0
    6.1177  -16.6714   26.3209 N   0  0  0  0  0  0  0  0  0  0  0  0
    7.3313  -16.0040   24.3978 C   0  0  0  0  0  0  0  0  0  0  0  0
    7.8439  -17.1437   24.4632 O   0  0  0  0  0  0  0  0  0  0  0  0
    9.2145  -14.9838   19.8284 C   0  0  0  0  0  0  0  0  0  0  0  0
    8.3518  -14.7294   21.0188 C   0  0  1  0  0  0  0  0  0  0  0  0
    6.8989  -14.5320   20.7368 C   0  0  0  0  0  0  0  0  0  0  0  0
    8.5879  -15.5465   22.2226 C   0  0  2  0  0  0  0  0  0  0  0  0
    7.6590  -15.1824   23.3053 N   0  0  0  0  0  0  0  0  0  0  0  0
    9.9474  -15.7094   22.7155 C   0  0  0  0  0  0  0  0  0  0  0  0
   10.4356  -14.7549   23.4201 O   0  0  0  0  0  0  0  0  0  0  0  0
   11.6093  -18.2882   25.0647 C   0  0  0  0  0  0  0  0  0  0  0  0
   12.3255  -18.2723   23.7344 C   0  0  1  0  0  0  0  0  0  0  0  0
   11.7346  -19.2985   22.9650 O   0  0  0  0  0  0  0  0  0  0  0  0
   12.1235  -16.9266   23.0851 C   0  0  2  0  0  0  0  0  0  0  0  0
   10.7932  -16.7867   22.5153 N   0  0  0  0  0  0  0  0  0  0  0  0
   13.0945  -16.7962   21.9880 C   0  0  0  0  0  0  0  0  0  0  0  0
   14.4437  -16.6695   22.2418 O   0  0  0  0  0  0  0  0  0  0  0  0
   12.7041  -16.7987   20.8054 O   0  0  0  0  0  0  0  0  0  0  0  0
  2  1  1  0
  3  2  1  0
  4  3  1  0
  5  4  1  0
  5  7  1  0
  5  6  1  1
  7 13  1  0
  7  8  2  0
 10  9  1  6
 10 11  1  0
 12 10  1  0
 12 13  1  1
 14 12  1  0
 14 15  2  0
 17 16  1  1
 17 19  1  0
 18 17  1  0
 19 20  1  6
 20 14  1  0
 21 19  1  0
 22 21  1  0
 23 21  2  0
M  END
$$$$
