MVT.pdb
     RDKit          3D

 23 22  0  0  1  0  0  0  0  0999 V2000
    7.9447  -11.7449   27.5072 C   0  0  0  0  0  0  0  0  0  0  0  0
    7.2249  -13.0527   28.4853 S   0  0  0  0  0  0  0  0  0  0  0  0
    6.4822  -14.3897   27.5794 C   0  0  0  0  0  0  0  0  0  0  0  0
    7.2365  -14.9076   26.4120 C   0  0  0  0  0  0  0  0  0  0  0  0
    6.4822  -15.9264   25.6353 C   0  0  2  0  0  0  0  0  0  0  0  0
    6.3496  -17.1420   26.3930 N   0  0  0  0  0  0  0  0  0  0  0  0
    7.2158  -16.2903   24.3581 C   0  0  0  0  0  0  0  0  0  0  0  0
    7.5427  -17.4779   24.1372 O   0  0  0  0  0  0  0  0  0  0  0  0
    8.6685  -14.6812   19.8117 C   0  0  0  0  0  0  0  0  0  0  0  0
    7.9567  -14.5814   21.1191 C   0  0  1  0  0  0  0  0  0  0  0  0
    6.4896  -14.3151   21.0405 C   0  0  0  0  0  0  0  0  0  0  0  0
    8.2971  -15.5669   22.1610 C   0  0  2  0  0  0  0  0  0  0  0  0
    7.5438  -15.3147   23.4006 N   0  0  0  0  0  0  0  0  0  0  0  0
    9.6967  -15.8571   22.4346 C   0  0  0  0  0  0  0  0  0  0  0  0
   10.3642  -14.9744   23.0836 O   0  0  0  0  0  0  0  0  0  0  0  0
   11.5814  -18.6834   24.3309 C   0  0  0  0  0  0  0  0  0  0  0  0
   12.0584  -18.6138   22.8990 C   0  0  1  0  0  0  0  0  0  0  0  0
   11.2951  -19.5675   22.1906 O   0  0  0  0  0  0  0  0  0  0  0  0
   11.8133  -17.2242   22.3678 C   0  0  2  0  0  0  0  0  0  0  0  0
   10.4087  -16.9885   22.0754 N   0  0  0  0  0  0  0  0  0  0  0  0
   12.5617  -17.0751   21.1103 C   0  0  0  0  0  0  0  0  0  0  0  0
   13.9379  -16.9937   21.1054 O   0  0  0  0  0  0  0  0  0  0  0  0
   11.9535  -17.0201   20.0249 O   0  0  0  0  0  0  0  0  0  0  0  0
  2  1  1  0
  3  2  1  0
  4  3  1  0
  5  4  1  0
  5  7  1  0
  5  6  1  1
  7 13  1  0
  7  8  2  0
 10  9  1  6
 10 11  1  0
 12 10  1  0
 12 13  1  1
 14 12  1  0
 14 15  2  0
 17 16  1  1
 17 19  1  0
 18 17  1  0
 19 20  1  6
 20 14  1  0
 21 19  1  0
 22 21  1  0
 23 21  2  0
M  END
$$$$
