MVT.pdb
     RDKit          3D

 23 22  0  0  1  0  0  0  0  0999 V2000
    7.3052  -10.8698   27.4150 C   0  0  0  0  0  0  0  0  0  0  0  0
    5.6259  -11.1867   26.9005 S   0  0  0  0  0  0  0  0  0  0  0  0
    5.3008  -12.8060   26.2433 C   0  0  0  0  0  0  0  0  0  0  0  0
    6.4742  -13.5930   25.7916 C   0  0  0  0  0  0  0  0  0  0  0  0
    6.1002  -14.8713   25.1313 C   0  0  2  0  0  0  0  0  0  0  0  0
    5.4114  -15.7334   26.0542 N   0  0  0  0  0  0  0  0  0  0  0  0
    7.3325  -15.6270   24.6705 C   0  0  0  0  0  0  0  0  0  0  0  0
    7.8071  -16.5455   25.3755 O   0  0  0  0  0  0  0  0  0  0  0  0
   10.3122  -16.5837   20.7265 C   0  0  0  0  0  0  0  0  0  0  0  0
    9.2181  -15.8647   21.4421 C   0  0  1  0  0  0  0  0  0  0  0  0
    7.8793  -15.8982   20.7819 C   0  0  0  0  0  0  0  0  0  0  0  0
    9.1314  -16.0311   22.9041 C   0  0  2  0  0  0  0  0  0  0  0  0
    7.9660  -15.3190   23.4540 N   0  0  0  0  0  0  0  0  0  0  0  0
   10.3208  -15.8183   23.7153 C   0  0  0  0  0  0  0  0  0  0  0  0
   10.9104  -14.6840   23.6079 O   0  0  0  0  0  0  0  0  0  0  0  0
   10.9514  -15.0895   27.1243 C   0  0  0  0  0  0  0  0  0  0  0  0
   11.7655  -16.3382   26.8776 C   0  0  1  0  0  0  0  0  0  0  0  0
   10.9521  -17.4172   27.2875 O   0  0  0  0  0  0  0  0  0  0  0  0
   12.0856  -16.4320   25.4071 C   0  0  2  0  0  0  0  0  0  0  0  0
   10.9040  -16.7041   24.6049 N   0  0  0  0  0  0  0  0  0  0  0  0
   13.0237  -17.5480   25.2121 C   0  0  0  0  0  0  0  0  0  0  0  0
   14.2926  -17.5146   25.7502 O   0  0  0  0  0  0  0  0  0  0  0  0
   12.6780  -18.5457   24.5516 O   0  0  0  0  0  0  0  0  0  0  0  0
  2  1  1  0
  3  2  1  0
  4  3  1  0
  5  4  1  0
  5  7  1  0
  5  6  1  1
  7 13  1  0
  7  8  2  0
 10  9  1  6
 10 11  1  0
 12 10  1  0
 12 13  1  1
 14 12  1  0
 14 15  2  0
 17 16  1  6
 17 19  1  0
 18 17  1  0
 19 20  1  6
 20 14  1  0
 21 19  1  0
 22 21  1  0
 23 21  2  0
M  END
$$$$
