MVT.pdb
     RDKit          3D

 23 22  0  0  1  0  0  0  0  0999 V2000
    8.8554  -11.6645   19.2466 C   0  0  0  0  0  0  0  0  0  0  0  0
    7.2727  -12.4336   19.5449 S   0  0  0  0  0  0  0  0  0  0  0  0
    7.3066  -14.1657   19.9428 C   0  0  0  0  0  0  0  0  0  0  0  0
    8.6188  -14.8500   19.8425 C   0  0  0  0  0  0  0  0  0  0  0  0
    8.5634  -16.2799   20.2454 C   0  0  2  0  0  0  0  0  0  0  0  0
    7.4813  -16.9512   19.5761 N   0  0  0  0  0  0  0  0  0  0  0  0
    8.3030  -16.4165   21.7338 C   0  0  0  0  0  0  0  0  0  0  0  0
    7.1446  -16.6385   22.1518 O   0  0  0  0  0  0  0  0  0  0  0  0
   10.2488  -17.6402   26.1204 C   0  0  0  0  0  0  0  0  0  0  0  0
   10.1508  -17.4747   24.6409 C   0  0  1  0  0  0  0  0  0  0  0  0
   10.1440  -18.7384   23.8457 C   0  0  0  0  0  0  0  0  0  0  0  0
    9.1957  -16.4775   24.1253 C   0  0  2  0  0  0  0  0  0  0  0  0
    9.3437  -16.2987   22.6714 N   0  0  0  0  0  0  0  0  0  0  0  0
    9.0617  -15.2009   24.8110 C   0  0  0  0  0  0  0  0  0  0  0  0
    9.9104  -14.2845   24.5183 O   0  0  0  0  0  0  0  0  0  0  0  0
    6.3983  -12.4757   24.9623 C   0  0  0  0  0  0  0  0  0  0  0  0
    6.6590  -12.9632   26.3684 C   0  0  1  0  0  0  0  0  0  0  0  0
    5.6732  -13.9404   26.6276 O   0  0  0  0  0  0  0  0  0  0  0  0
    8.0416  -13.5615   26.4312 C   0  0  2  0  0  0  0  0  0  0  0  0
    8.1141  -14.8471   25.7560 N   0  0  0  0  0  0  0  0  0  0  0  0
    8.3828  -13.7806   27.8451 C   0  0  0  0  0  0  0  0  0  0  0  0
    8.5018  -12.7230   28.7216 O   0  0  0  0  0  0  0  0  0  0  0  0
    8.5701  -14.9361   28.2701 O   0  0  0  0  0  0  0  0  0  0  0  0
  2  1  1  0
  3  2  1  0
  4  3  1  0
  5  4  1  0
  5  7  1  0
  5  6  1  6
  7 13  1  0
  7  8  2  0
 10  9  1  1
 10 11  1  0
 12 10  1  0
 12 13  1  6
 14 12  1  0
 14 15  2  0
 17 16  1  6
 17 19  1  0
 18 17  1  0
 19 20  1  6
 20 14  1  0
 21 19  1  0
 22 21  1  0
 23 21  2  0
M  END
$$$$
