EMM.pdb
     RDKit          3D

 26 25  0  0  1  0  0  0  0  0999 V2000
    9.7387  -16.4414   18.6682 N   0  0  0  0  0  0  0  0  0  0  0  0
    9.0899  -17.0853   19.7795 C   0  0  1  0  0  0  0  0  0  0  0  0
    9.5756  -18.4943   19.9639 C   0  0  0  0  0  0  0  0  0  0  0  0
    9.6594  -19.1839   18.6353 C   0  0  0  0  0  0  0  0  0  0  0  0
    9.9899  -20.6076   18.8193 C   0  0  0  0  0  0  0  0  0  0  0  0
    9.1252  -21.4994   19.1030 O   0  0  0  0  0  0  0  0  0  0  0  0
    9.3515  -16.3249   21.0465 C   0  0  0  0  0  0  0  0  0  0  0  0
   10.3732  -15.6446   21.1124 O   0  0  0  0  0  0  0  0  0  0  0  0
   11.2982  -21.0597   18.6884 O   0  0  0  0  0  0  0  0  0  0  0  0
    6.5365  -11.8267   26.7666 C   0  0  0  0  0  0  0  0  0  0  0  0
    6.3276  -12.8744   25.3265 S   0  0  0  0  0  0  0  0  0  0  0  0
    7.7026  -14.0375   25.0901 C   0  0  0  0  0  0  0  0  0  0  0  0
    7.4732  -14.8470   23.8443 C   0  0  0  0  0  0  0  0  0  0  0  0
    8.6698  -15.5703   23.3483 C   0  0  2  0  0  0  0  0  0  0  0  0
    8.4668  -16.3650   22.1608 N   0  0  0  0  0  0  0  0  0  0  0  0
    9.4135  -16.3221   24.4025 C   0  0  0  0  0  0  0  0  0  0  0  0
    9.1434  -17.4986   24.7507 O   0  0  0  0  0  0  0  0  0  0  0  0
   10.1112  -12.9396   29.3120 C   0  0  0  0  0  0  0  0  0  0  0  0
   10.9584  -14.3723   30.0494 S   0  0  0  0  0  0  0  0  0  0  0  0
   11.1546  -15.6828   28.8193 C   0  0  0  0  0  0  0  0  0  0  0  0
   10.7883  -15.1552   27.4501 C   0  0  0  0  0  0  0  0  0  0  0  0
   11.0032  -16.1962   26.3736 C   0  0  2  0  0  0  0  0  0  0  0  0
   10.5059  -15.7105   25.0823 N   0  0  0  0  0  0  0  0  0  0  0  0
   10.4878  -17.5169   26.7215 C   0  0  0  0  0  0  0  0  0  0  0  0
   11.3498  -18.5808   26.8978 O   0  0  0  0  0  0  0  0  0  0  0  0
    9.2618  -17.7154   26.8670 O   0  0  0  0  0  0  0  0  0  0  0  0
  2  1  1  6
  2  7  1  0
  3  2  1  0
  4  3  1  0
  4  5  1  0
  5  9  1  0
  5  6  2  0
  7  8  2  0
  7 15  1  0
 10 11  1  0
 11 12  1  0
 13 12  1  0
 14 13  1  1
 15 14  1  0
 16 14  1  0
 16 17  2  0
 18 19  1  0
 19 20  1  0
 20 21  1  0
 22 21  1  1
 22 23  1  0
 23 16  1  0
 24 22  1  0
 25 24  1  0
 26 24  2  0
M  END
$$$$
