EMM.pdb
     RDKit          3D

 26 25  0  0  1  0  0  0  0  0999 V2000
    8.5830  -18.3614   20.5441 N   0  0  0  0  0  0  0  0  0  0  0  0
    9.9871  -18.1459   20.7739 C   0  0  1  0  0  0  0  0  0  0  0  0
   10.7106  -17.8056   19.5027 C   0  0  0  0  0  0  0  0  0  0  0  0
   10.0228  -18.4481   18.3357 C   0  0  0  0  0  0  0  0  0  0  0  0
   10.7066  -18.0912   17.0807 C   0  0  0  0  0  0  0  0  0  0  0  0
   10.1066  -17.6096   16.0651 O   0  0  0  0  0  0  0  0  0  0  0  0
   10.1883  -17.0223   21.7482 C   0  0  0  0  0  0  0  0  0  0  0  0
   11.3363  -16.6354   21.9560 O   0  0  0  0  0  0  0  0  0  0  0  0
   12.0786  -18.2675   16.9399 O   0  0  0  0  0  0  0  0  0  0  0  0
    5.6472  -13.0102   26.0229 C   0  0  0  0  0  0  0  0  0  0  0  0
    7.0379  -12.6885   24.9376 S   0  0  0  0  0  0  0  0  0  0  0  0
    7.2797  -13.9871   23.6908 C   0  0  0  0  0  0  0  0  0  0  0  0
    8.0801  -15.1142   24.2817 C   0  0  0  0  0  0  0  0  0  0  0  0
    9.3021  -15.4702   23.5197 C   0  0  2  0  0  0  0  0  0  0  0  0
    9.1070  -16.3978   22.4315 N   0  0  0  0  0  0  0  0  0  0  0  0
   10.4690  -15.8471   24.3718 C   0  0  0  0  0  0  0  0  0  0  0  0
   11.5137  -15.1576   24.4793 O   0  0  0  0  0  0  0  0  0  0  0  0
    9.8944  -13.3298   28.8364 C   0  0  0  0  0  0  0  0  0  0  0  0
   10.8251  -14.7716   29.4441 S   0  0  0  0  0  0  0  0  0  0  0  0
   10.0791  -16.3001   28.8308 C   0  0  0  0  0  0  0  0  0  0  0  0
    9.8426  -16.1894   27.3412 C   0  0  0  0  0  0  0  0  0  0  0  0
   10.7693  -17.0939   26.5590 C   0  0  2  0  0  0  0  0  0  0  0  0
   10.4422  -17.0529   25.1300 N   0  0  0  0  0  0  0  0  0  0  0  0
   10.8476  -18.4530   27.0859 C   0  0  0  0  0  0  0  0  0  0  0  0
    9.8620  -19.3748   26.7942 O   0  0  0  0  0  0  0  0  0  0  0  0
   11.8019  -18.8127   27.8092 O   0  0  0  0  0  0  0  0  0  0  0  0
  2  1  1  6
  2  7  1  0
  3  2  1  0
  4  3  1  0
  4  5  1  0
  5  9  1  0
  5  6  2  0
  7  8  2  0
  7 15  1  0
 10 11  1  0
 11 12  1  0
 13 12  1  0
 14 13  1  1
 15 14  1  0
 16 14  1  0
 16 17  2  0
 18 19  1  0
 19 20  1  0
 20 21  1  0
 22 21  1  1
 22 23  1  0
 23 16  1  0
 24 22  1  0
 25 24  1  0
 26 24  2  0
M  END
$$$$
