EMM.pdb
     RDKit          3D

 26 25  0  0  1  0  0  0  0  0999 V2000
    7.6809  -19.6926   21.8796 N   0  0  0  0  0  0  0  0  0  0  0  0
    9.0681  -19.6764   21.4975 C   0  0  1  0  0  0  0  0  0  0  0  0
    9.2909  -20.3819   20.1906 C   0  0  0  0  0  0  0  0  0  0  0  0
    8.2134  -21.4006   19.9697 C   0  0  0  0  0  0  0  0  0  0  0  0
    8.4682  -22.1518   18.7284 C   0  0  0  0  0  0  0  0  0  0  0  0
    7.8852  -21.9026   17.6232 O   0  0  0  0  0  0  0  0  0  0  0  0
    9.5536  -18.2630   21.3611 C   0  0  0  0  0  0  0  0  0  0  0  0
   10.7448  -18.0814   21.1185 O   0  0  0  0  0  0  0  0  0  0  0  0
    9.3831  -23.1984   18.7022 O   0  0  0  0  0  0  0  0  0  0  0  0
    6.4322  -11.6051   21.6935 C   0  0  0  0  0  0  0  0  0  0  0  0
    7.3347  -12.2805   20.2990 S   0  0  0  0  0  0  0  0  0  0  0  0
    8.6865  -13.3865   20.7975 C   0  0  0  0  0  0  0  0  0  0  0  0
    8.1839  -14.8015   20.8677 C   0  0  0  0  0  0  0  0  0  0  0  0
    9.1604  -15.7779   21.4101 C   0  0  2  0  0  0  0  0  0  0  0  0
    8.6910  -17.1396   21.5020 N   0  0  0  0  0  0  0  0  0  0  0  0
    9.8385  -15.3356   22.6648 C   0  0  0  0  0  0  0  0  0  0  0  0
   10.4774  -14.2598   22.7777 O   0  0  0  0  0  0  0  0  0  0  0  0
    6.8496  -11.7041   25.4002 C   0  0  0  0  0  0  0  0  0  0  0  0
    7.7640  -12.8628   26.4657 S   0  0  0  0  0  0  0  0  0  0  0  0
    7.2285  -14.5600   26.1466 C   0  0  0  0  0  0  0  0  0  0  0  0
    7.8485  -15.0562   24.8594 C   0  0  0  0  0  0  0  0  0  0  0  0
    9.2072  -15.6779   25.0964 C   0  0  2  0  0  0  0  0  0  0  0  0
    9.7842  -16.1490   23.8331 N   0  0  0  0  0  0  0  0  0  0  0  0
    9.2130  -16.6985   26.1400 C   0  0  0  0  0  0  0  0  0  0  0  0
    9.3185  -18.0353   25.8114 O   0  0  0  0  0  0  0  0  0  0  0  0
    9.1229  -16.3892   27.3482 O   0  0  0  0  0  0  0  0  0  0  0  0
  2  1  1  6
  2  7  1  0
  3  2  1  0
  4  3  1  0
  4  5  1  0
  5  9  1  0
  5  6  2  0
  7  8  2  0
  7 15  1  0
 10 11  1  0
 11 12  1  0
 13 12  1  0
 14 13  1  1
 15 14  1  0
 16 14  1  0
 16 17  2  0
 18 19  1  0
 19 20  1  0
 20 21  1  0
 22 21  1  6
 22 23  1  0
 23 16  1  0
 24 22  1  0
 25 24  1  0
 26 24  2  0
M  END
$$$$
