EMM.pdb
     RDKit          3D

 26 25  0  0  1  0  0  0  0  0999 V2000
   10.3614  -16.2230   18.8323 N   0  0  0  0  0  0  0  0  0  0  0  0
    9.9146  -17.0651   19.9102 C   0  0  1  0  0  0  0  0  0  0  0  0
   10.8079  -18.2593   20.0870 C   0  0  0  0  0  0  0  0  0  0  0  0
   11.0156  -18.9417   18.7684 C   0  0  0  0  0  0  0  0  0  0  0  0
   11.8261  -20.1589   18.9459 C   0  0  0  0  0  0  0  0  0  0  0  0
   11.4479  -21.3166   18.5713 O   0  0  0  0  0  0  0  0  0  0  0  0
    9.8940  -16.2947   21.1979 C   0  0  0  0  0  0  0  0  0  0  0  0
   10.8134  -15.5088   21.4166 O   0  0  0  0  0  0  0  0  0  0  0  0
   13.0783  -20.1016   19.5474 O   0  0  0  0  0  0  0  0  0  0  0  0
    6.3575  -11.9757   26.5145 C   0  0  0  0  0  0  0  0  0  0  0  0
    6.3608  -12.9579   25.0143 S   0  0  0  0  0  0  0  0  0  0  0  0
    7.5640  -14.3179   25.0597 C   0  0  0  0  0  0  0  0  0  0  0  0
    7.5691  -15.0343   23.7380 C   0  0  0  0  0  0  0  0  0  0  0  0
    8.8441  -15.7188   23.4112 C   0  0  2  0  0  0  0  0  0  0  0  0
    8.8578  -16.4425   22.1626 N   0  0  0  0  0  0  0  0  0  0  0  0
    9.4115  -16.5274   24.5310 C   0  0  0  0  0  0  0  0  0  0  0  0
    8.8955  -17.5873   24.9656 O   0  0  0  0  0  0  0  0  0  0  0  0
   10.2104  -12.8732   29.2997 C   0  0  0  0  0  0  0  0  0  0  0  0
   11.0213  -14.4265   29.7934 S   0  0  0  0  0  0  0  0  0  0  0  0
   10.2564  -15.8276   28.9443 C   0  0  0  0  0  0  0  0  0  0  0  0
   10.0645  -15.4937   27.4818 C   0  0  0  0  0  0  0  0  0  0  0  0
   10.8864  -16.3974   26.5893 C   0  0  2  0  0  0  0  0  0  0  0  0
   10.6117  -16.1130   25.1771 N   0  0  0  0  0  0  0  0  0  0  0  0
   10.7671  -17.8148   26.9177 C   0  0  0  0  0  0  0  0  0  0  0  0
    9.9739  -18.6464   26.1527 O   0  0  0  0  0  0  0  0  0  0  0  0
   11.3759  -18.3065   27.8929 O   0  0  0  0  0  0  0  0  0  0  0  0
  2  1  1  6
  2  7  1  0
  3  2  1  0
  4  3  1  0
  4  5  1  0
  5  9  1  0
  5  6  2  0
  7  8  2  0
  7 15  1  0
 10 11  1  0
 11 12  1  0
 13 12  1  0
 14 13  1  1
 15 14  1  0
 16 14  1  0
 16 17  2  0
 18 19  1  0
 19 20  1  0
 20 21  1  0
 22 21  1  1
 22 23  1  0
 23 16  1  0
 24 22  1  0
 25 24  1  0
 26 24  2  0
M  END
$$$$
