EMM.pdb
     RDKit          3D

 26 25  0  0  1  0  0  0  0  0999 V2000
    9.1742  -18.6451   20.3415 N   0  0  0  0  0  0  0  0  0  0  0  0
   10.0394  -17.4984   20.2578 C   0  0  1  0  0  0  0  0  0  0  0  0
    9.9041  -16.7978   18.9364 C   0  0  0  0  0  0  0  0  0  0  0  0
    8.4735  -16.8230   18.4888 C   0  0  0  0  0  0  0  0  0  0  0  0
    8.3478  -16.2261   17.1480 C   0  0  0  0  0  0  0  0  0  0  0  0
    7.6962  -15.1568   16.9124 O   0  0  0  0  0  0  0  0  0  0  0  0
    9.7132  -16.5199   21.3479 C   0  0  0  0  0  0  0  0  0  0  0  0
   10.3448  -15.4662   21.3874 O   0  0  0  0  0  0  0  0  0  0  0  0
    8.9513  -16.8172   16.0436 O   0  0  0  0  0  0  0  0  0  0  0  0
    7.0549  -11.9920   26.2999 C   0  0  0  0  0  0  0  0  0  0  0  0
    7.2963  -12.9162   24.7823 S   0  0  0  0  0  0  0  0  0  0  0  0
    6.9041  -14.6812   24.9569 C   0  0  0  0  0  0  0  0  0  0  0  0
    7.1418  -15.3848   23.6499 C   0  0  0  0  0  0  0  0  0  0  0  0
    8.5140  -15.9219   23.4778 C   0  0  2  0  0  0  0  0  0  0  0  0
    8.7093  -16.7689   22.3257 N   0  0  0  0  0  0  0  0  0  0  0  0
    9.0991  -16.5193   24.7150 C   0  0  0  0  0  0  0  0  0  0  0  0
    8.4305  -17.1310   25.5852 O   0  0  0  0  0  0  0  0  0  0  0  0
   11.2817  -12.5757   28.8166 C   0  0  0  0  0  0  0  0  0  0  0  0
   10.6752  -14.1105   29.5849 S   0  0  0  0  0  0  0  0  0  0  0  0
   11.1730  -15.5417   28.5984 C   0  0  0  0  0  0  0  0  0  0  0  0
   10.6469  -15.3959   27.1880 C   0  0  0  0  0  0  0  0  0  0  0  0
   11.0687  -16.5544   26.3112 C   0  0  2  0  0  0  0  0  0  0  0  0
   10.4974  -16.4167   24.9676 N   0  0  0  0  0  0  0  0  0  0  0  0
   10.8164  -17.8638   26.9052 C   0  0  0  0  0  0  0  0  0  0  0  0
    9.9400  -18.7470   26.3068 O   0  0  0  0  0  0  0  0  0  0  0  0
   11.3834  -18.2147   27.9630 O   0  0  0  0  0  0  0  0  0  0  0  0
  2  1  1  6
  2  7  1  0
  3  2  1  0
  4  3  1  0
  4  5  1  0
  5  9  1  0
  5  6  2  0
  7  8  2  0
  7 15  1  0
 10 11  1  0
 11 12  1  0
 13 12  1  0
 14 13  1  1
 15 14  1  0
 16 14  1  0
 16 17  2  0
 18 19  1  0
 19 20  1  0
 20 21  1  0
 22 21  1  1
 22 23  1  0
 23 16  1  0
 24 22  1  0
 25 24  1  0
 26 24  2  0
M  END
$$$$
