EMM.pdb
     RDKit          3D

 26 25  0  0  1  0  0  0  0  0999 V2000
    8.6502  -16.5368   18.9450 N   0  0  0  0  0  0  0  0  0  0  0  0
    9.5975  -17.1629   19.8289 C   0  0  1  0  0  0  0  0  0  0  0  0
   10.9559  -17.2716   19.1977 C   0  0  0  0  0  0  0  0  0  0  0  0
   11.1963  -18.6793   18.7419 C   0  0  0  0  0  0  0  0  0  0  0  0
   12.5502  -18.8082   18.1758 C   0  0  0  0  0  0  0  0  0  0  0  0
   12.7829  -18.9243   16.9285 O   0  0  0  0  0  0  0  0  0  0  0  0
    9.7270  -16.3717   21.0975 C   0  0  0  0  0  0  0  0  0  0  0  0
   10.6799  -15.6029   21.2050 O   0  0  0  0  0  0  0  0  0  0  0  0
   13.6710  -18.8092   18.9985 O   0  0  0  0  0  0  0  0  0  0  0  0
    6.5357  -12.0669   26.7633 C   0  0  0  0  0  0  0  0  0  0  0  0
    6.3893  -13.1640   25.3526 S   0  0  0  0  0  0  0  0  0  0  0  0
    7.9283  -14.0563   24.9853 C   0  0  0  0  0  0  0  0  0  0  0  0
    7.7393  -14.9109   23.7631 C   0  0  0  0  0  0  0  0  0  0  0  0
    8.9199  -15.7294   23.3928 C   0  0  2  0  0  0  0  0  0  0  0  0
    8.7944  -16.4812   22.1673 N   0  0  0  0  0  0  0  0  0  0  0  0
    9.4621  -16.5638   24.5062 C   0  0  0  0  0  0  0  0  0  0  0  0
    8.8446  -17.5238   25.0313 O   0  0  0  0  0  0  0  0  0  0  0  0
    9.4757  -13.0957   29.6226 C   0  0  0  0  0  0  0  0  0  0  0  0
   11.0858  -13.9452   29.6212 S   0  0  0  0  0  0  0  0  0  0  0  0
   10.9597  -15.5210   28.7436 C   0  0  0  0  0  0  0  0  0  0  0  0
   10.8129  -15.2673   27.2599 C   0  0  0  0  0  0  0  0  0  0  0  0
   11.0902  -16.5142   26.4492 C   0  0  2  0  0  0  0  0  0  0  0  0
   10.7559  -16.2947   25.0383 N   0  0  0  0  0  0  0  0  0  0  0  0
   10.4781  -17.7206   26.9979 C   0  0  0  0  0  0  0  0  0  0  0  0
   11.2626  -18.7206   27.5368 O   0  0  0  0  0  0  0  0  0  0  0  0
    9.2375  -17.8765   26.9928 O   0  0  0  0  0  0  0  0  0  0  0  0
  2  1  1  6
  2  7  1  0
  3  2  1  0
  4  3  1  0
  4  5  1  0
  5  9  1  0
  5  6  2  0
  7  8  2  0
  7 15  1  0
 10 11  1  0
 11 12  1  0
 13 12  1  0
 14 13  1  1
 15 14  1  0
 16 14  1  0
 16 17  2  0
 18 19  1  0
 19 20  1  0
 20 21  1  0
 22 21  1  1
 22 23  1  0
 23 16  1  0
 24 22  1  0
 25 24  1  0
 26 24  2  0
M  END
$$$$
