EMM.pdb
     RDKit          3D

 26 25  0  0  1  0  0  0  0  0999 V2000
    8.3390  -18.8045   20.5554 N   0  0  0  0  0  0  0  0  0  0  0  0
    9.7129  -18.3771   20.5775 C   0  0  1  0  0  0  0  0  0  0  0  0
   10.2147  -18.0542   19.1994 C   0  0  0  0  0  0  0  0  0  0  0  0
    9.1597  -17.3162   18.4314 C   0  0  0  0  0  0  0  0  0  0  0  0
    9.6339  -17.0203   17.0684 C   0  0  0  0  0  0  0  0  0  0  0  0
    9.7430  -17.9018   16.1548 O   0  0  0  0  0  0  0  0  0  0  0  0
    9.8636  -17.1545   21.4347 C   0  0  0  0  0  0  0  0  0  0  0  0
   10.9783  -16.6444   21.5239 O   0  0  0  0  0  0  0  0  0  0  0  0
    9.9952  -15.7285   16.7027 O   0  0  0  0  0  0  0  0  0  0  0  0
    5.7408  -11.9220   25.1581 C   0  0  0  0  0  0  0  0  0  0  0  0
    6.3068  -13.5706   25.5791 S   0  0  0  0  0  0  0  0  0  0  0  0
    7.8994  -13.9907   24.8133 C   0  0  0  0  0  0  0  0  0  0  0  0
    7.6971  -15.0619   23.7781 C   0  0  0  0  0  0  0  0  0  0  0  0
    8.9457  -15.5544   23.1463 C   0  0  2  0  0  0  0  0  0  0  0  0
    8.7718  -16.5734   22.1392 N   0  0  0  0  0  0  0  0  0  0  0  0
   10.0266  -15.9058   24.1148 C   0  0  0  0  0  0  0  0  0  0  0  0
   11.1549  -15.3539   24.1408 O   0  0  0  0  0  0  0  0  0  0  0  0
   11.6333  -14.0037   30.8644 C   0  0  0  0  0  0  0  0  0  0  0  0
   10.7646  -14.0366   29.2650 S   0  0  0  0  0  0  0  0  0  0  0  0
   11.0381  -15.6212   28.4383 C   0  0  0  0  0  0  0  0  0  0  0  0
   10.3459  -15.6204   27.0937 C   0  0  0  0  0  0  0  0  0  0  0  0
   10.5148  -16.9419   26.3768 C   0  0  2  0  0  0  0  0  0  0  0  0
    9.8119  -16.9220   25.0899 N   0  0  0  0  0  0  0  0  0  0  0  0
   10.1727  -18.1021   27.1940 C   0  0  0  0  0  0  0  0  0  0  0  0
   10.9966  -18.4968   28.2291 O   0  0  0  0  0  0  0  0  0  0  0  0
    9.1329  -18.7621   26.9778 O   0  0  0  0  0  0  0  0  0  0  0  0
  2  1  1  6
  2  7  1  0
  3  2  1  0
  4  3  1  0
  4  5  1  0
  5  9  1  0
  5  6  2  0
  7  8  2  0
  7 15  1  0
 10 11  1  0
 11 12  1  0
 13 12  1  0
 14 13  1  1
 15 14  1  0
 16 14  1  0
 16 17  2  0
 18 19  1  0
 19 20  1  0
 20 21  1  0
 22 21  1  1
 22 23  1  0
 23 16  1  0
 24 22  1  0
 25 24  1  0
 26 24  2  0
M  END
$$$$
