EMM.pdb
     RDKit          3D

 26 25  0  0  1  0  0  0  0  0999 V2000
    8.1734  -18.7920   20.7668 N   0  0  0  0  0  0  0  0  0  0  0  0
    9.3567  -18.0778   20.3664 C   0  0  1  0  0  0  0  0  0  0  0  0
    9.2656  -17.6090   18.9427 C   0  0  0  0  0  0  0  0  0  0  0  0
    9.8608  -18.6364   18.0274 C   0  0  0  0  0  0  0  0  0  0  0  0
    9.7831  -18.1802   16.6289 C   0  0  0  0  0  0  0  0  0  0  0  0
   10.3052  -17.0948   16.2131 O   0  0  0  0  0  0  0  0  0  0  0  0
    9.5643  -16.8802   21.2467 C   0  0  0  0  0  0  0  0  0  0  0  0
   10.6525  -16.3106   21.2014 O   0  0  0  0  0  0  0  0  0  0  0  0
    9.1176  -18.9332   15.6680 O   0  0  0  0  0  0  0  0  0  0  0  0
    6.6634  -11.8234   26.6125 C   0  0  0  0  0  0  0  0  0  0  0  0
    6.5221  -13.3042   25.6112 S   0  0  0  0  0  0  0  0  0  0  0  0
    7.6473  -13.3063   24.1854 C   0  0  0  0  0  0  0  0  0  0  0  0
    7.4585  -14.5695   23.3926 C   0  0  0  0  0  0  0  0  0  0  0  0
    8.7160  -15.1844   22.9011 C   0  0  2  0  0  0  0  0  0  0  0  0
    8.5551  -16.3883   22.1217 N   0  0  0  0  0  0  0  0  0  0  0  0
    9.7756  -15.3316   23.9429 C   0  0  0  0  0  0  0  0  0  0  0  0
   10.4211  -14.3706   24.4308 O   0  0  0  0  0  0  0  0  0  0  0  0
   10.6685  -13.1671   29.7024 C   0  0  0  0  0  0  0  0  0  0  0  0
    9.7260  -13.9420   28.3513 S   0  0  0  0  0  0  0  0  0  0  0  0
   10.4023  -15.5761   27.9753 C   0  0  0  0  0  0  0  0  0  0  0  0
    9.6498  -16.1834   26.8124 C   0  0  0  0  0  0  0  0  0  0  0  0
   10.5869  -16.8331   25.8181 C   0  0  2  0  0  0  0  0  0  0  0  0
   10.1092  -16.6214   24.4478 N   0  0  0  0  0  0  0  0  0  0  0  0
   10.8748  -18.2341   26.1101 C   0  0  0  0  0  0  0  0  0  0  0  0
   12.0592  -18.5925   26.7222 O   0  0  0  0  0  0  0  0  0  0  0  0
   10.0618  -19.1370   25.8149 O   0  0  0  0  0  0  0  0  0  0  0  0
  2  1  1  1
  2  7  1  0
  3  2  1  0
  4  3  1  0
  4  5  1  0
  5  9  1  0
  5  6  2  0
  7  8  2  0
  7 15  1  0
 10 11  1  0
 11 12  1  0
 13 12  1  0
 14 13  1  1
 15 14  1  0
 16 14  1  0
 16 17  2  0
 18 19  1  0
 19 20  1  0
 20 21  1  0
 22 21  1  1
 22 23  1  0
 23 16  1  0
 24 22  1  0
 25 24  1  0
 26 24  2  0
M  END
$$$$
