EMM.pdb
     RDKit          3D

 26 25  0  0  1  0  0  0  0  0999 V2000
   10.0449  -15.9499   19.2300 N   0  0  0  0  0  0  0  0  0  0  0  0
    9.2794  -16.7016   20.1890 C   0  0  1  0  0  0  0  0  0  0  0  0
    9.6837  -18.1477   20.2094 C   0  0  0  0  0  0  0  0  0  0  0  0
   11.1764  -18.2599   20.2923 C   0  0  0  0  0  0  0  0  0  0  0  0
   11.5872  -19.6722   20.2119 C   0  0  0  0  0  0  0  0  0  0  0  0
   12.0492  -20.3278   21.2020 O   0  0  0  0  0  0  0  0  0  0  0  0
    9.4722  -16.1368   21.5660 C   0  0  0  0  0  0  0  0  0  0  0  0
   10.5799  -15.6920   21.8590 O   0  0  0  0  0  0  0  0  0  0  0  0
   11.4876  -20.3781   19.0181 O   0  0  0  0  0  0  0  0  0  0  0  0
    6.0665  -11.4900   25.6124 C   0  0  0  0  0  0  0  0  0  0  0  0
    6.0195  -13.2125   26.1086 S   0  0  0  0  0  0  0  0  0  0  0  0
    7.5320  -14.1181   25.6709 C   0  0  0  0  0  0  0  0  0  0  0  0
    7.3651  -14.7616   24.3226 C   0  0  0  0  0  0  0  0  0  0  0  0
    8.5735  -15.4576   23.8162 C   0  0  2  0  0  0  0  0  0  0  0  0
    8.4275  -16.1001   22.5322 N   0  0  0  0  0  0  0  0  0  0  0  0
    9.2314  -16.3510   24.8156 C   0  0  0  0  0  0  0  0  0  0  0  0
    8.9738  -17.5740   24.9433 O   0  0  0  0  0  0  0  0  0  0  0  0
   10.7676  -14.0498   30.9400 C   0  0  0  0  0  0  0  0  0  0  0  0
   10.0152  -13.7094   29.3176 S   0  0  0  0  0  0  0  0  0  0  0  0
   10.9671  -14.5128   28.0069 C   0  0  0  0  0  0  0  0  0  0  0  0
   10.7694  -16.0105   28.0788 C   0  0  0  0  0  0  0  0  0  0  0  0
   10.8830  -16.6556   26.7151 C   0  0  2  0  0  0  0  0  0  0  0  0
   10.2202  -15.8309   25.6995 N   0  0  0  0  0  0  0  0  0  0  0  0
   10.4512  -18.0498   26.6863 C   0  0  0  0  0  0  0  0  0  0  0  0
   11.3722  -19.0707   26.8108 O   0  0  0  0  0  0  0  0  0  0  0  0
    9.2455  -18.3511   26.5488 O   0  0  0  0  0  0  0  0  0  0  0  0
  2  1  1  6
  2  7  1  0
  3  2  1  0
  4  3  1  0
  4  5  1  0
  5  9  1  0
  5  6  2  0
  7  8  2  0
  7 15  1  0
 10 11  1  0
 11 12  1  0
 13 12  1  0
 14 13  1  1
 15 14  1  0
 16 14  1  0
 16 17  2  0
 18 19  1  0
 19 20  1  0
 20 21  1  0
 22 21  1  1
 22 23  1  0
 23 16  1  0
 24 22  1  0
 25 24  1  0
 26 24  2  0
M  END
$$$$
