EMM.pdb
     RDKit          3D

 26 25  0  0  1  0  0  0  0  0999 V2000
    9.7887  -18.7349   20.1794 N   0  0  0  0  0  0  0  0  0  0  0  0
   11.0107  -17.9879   20.3180 C   0  0  1  0  0  0  0  0  0  0  0  0
   11.6079  -17.6501   18.9822 C   0  0  0  0  0  0  0  0  0  0  0  0
   11.9689  -18.9081   18.2510 C   0  0  0  0  0  0  0  0  0  0  0  0
   12.6332  -18.5849   16.9766 C   0  0  0  0  0  0  0  0  0  0  0  0
   13.8569  -18.2409   16.8887 O   0  0  0  0  0  0  0  0  0  0  0  0
   10.7570  -16.7085   21.0602 C   0  0  0  0  0  0  0  0  0  0  0  0
   11.7130  -15.9680   21.2801 O   0  0  0  0  0  0  0  0  0  0  0  0
   11.9375  -18.6414   15.7741 O   0  0  0  0  0  0  0  0  0  0  0  0
    7.8307  -11.9152   18.9518 C   0  0  0  0  0  0  0  0  0  0  0  0
    6.7664  -13.2226   19.5627 S   0  0  0  0  0  0  0  0  0  0  0  0
    7.6880  -14.5870   20.3298 C   0  0  0  0  0  0  0  0  0  0  0  0
    8.4150  -14.0865   21.5467 C   0  0  0  0  0  0  0  0  0  0  0  0
    9.2179  -15.1147   22.2532 C   0  0  2  0  0  0  0  0  0  0  0  0
    9.4618  -16.3290   21.5125 N   0  0  0  0  0  0  0  0  0  0  0  0
    8.7667  -15.3936   23.6491 C   0  0  0  0  0  0  0  0  0  0  0  0
    7.6754  -14.9966   24.1285 O   0  0  0  0  0  0  0  0  0  0  0  0
    7.9349  -12.2504   27.5439 C   0  0  0  0  0  0  0  0  0  0  0  0
    9.2554  -13.2960   28.2345 S   0  0  0  0  0  0  0  0  0  0  0  0
    8.8171  -15.0427   28.0738 C   0  0  0  0  0  0  0  0  0  0  0  0
    8.5775  -15.3759   26.6182 C   0  0  0  0  0  0  0  0  0  0  0  0
    9.8632  -15.7400   25.9088 C   0  0  2  0  0  0  0  0  0  0  0  0
    9.5892  -16.1544   24.5290 N   0  0  0  0  0  0  0  0  0  0  0  0
   10.6858  -16.7002   26.6385 C   0  0  0  0  0  0  0  0  0  0  0  0
   11.1871  -16.3870   27.8862 O   0  0  0  0  0  0  0  0  0  0  0  0
   10.9548  -17.8213   26.1546 O   0  0  0  0  0  0  0  0  0  0  0  0
  2  1  1  6
  2  7  1  0
  3  2  1  0
  4  3  1  0
  4  5  1  0
  5  9  1  0
  5  6  2  0
  7  8  2  0
  7 15  1  0
 10 11  1  0
 11 12  1  0
 13 12  1  0
 14 13  1  6
 15 14  1  0
 16 14  1  0
 16 17  2  0
 18 19  1  0
 19 20  1  0
 20 21  1  0
 22 21  1  1
 22 23  1  0
 23 16  1  0
 24 22  1  0
 25 24  1  0
 26 24  2  0
M  END
$$$$
