EMM.pdb
     RDKit          3D

 26 25  0  0  1  0  0  0  0  0999 V2000
    9.6241  -16.6143   19.9697 N   0  0  0  0  0  0  0  0  0  0  0  0
    8.8474  -17.1459   21.0581 C   0  0  1  0  0  0  0  0  0  0  0  0
    9.1456  -18.5987   21.2937 C   0  0  0  0  0  0  0  0  0  0  0  0
    8.6604  -19.4146   20.1334 C   0  0  0  0  0  0  0  0  0  0  0  0
    8.8180  -20.8512   20.4184 C   0  0  0  0  0  0  0  0  0  0  0  0
    9.8951  -21.4970   20.2029 O   0  0  0  0  0  0  0  0  0  0  0  0
    9.1392  -16.3917   22.3224 C   0  0  0  0  0  0  0  0  0  0  0  0
   10.3023  -16.0619   22.5438 O   0  0  0  0  0  0  0  0  0  0  0  0
    7.7696  -21.5927   20.9515 O   0  0  0  0  0  0  0  0  0  0  0  0
    7.0789  -10.9489   26.6297 C   0  0  0  0  0  0  0  0  0  0  0  0
    6.4394  -12.6182   26.7706 S   0  0  0  0  0  0  0  0  0  0  0  0
    7.6772  -13.8876   26.3759 C   0  0  0  0  0  0  0  0  0  0  0  0
    7.3994  -14.4602   25.0140 C   0  0  0  0  0  0  0  0  0  0  0  0
    8.4157  -15.4271   24.5311 C   0  0  2  0  0  0  0  0  0  0  0  0
    8.1260  -16.0503   23.2620 N   0  0  0  0  0  0  0  0  0  0  0  0
    8.8513  -16.4227   25.5551 C   0  0  0  0  0  0  0  0  0  0  0  0
    8.1572  -17.4029   25.9235 O   0  0  0  0  0  0  0  0  0  0  0  0
   14.5668  -21.0146   26.6169 C   0  0  0  0  0  0  0  0  0  0  0  0
   14.1827  -19.2377   26.7122 S   0  0  0  0  0  0  0  0  0  0  0  0
   12.4058  -18.9944   26.9418 C   0  0  0  0  0  0  0  0  0  0  0  0
   12.0945  -17.5148   26.9757 C   0  0  0  0  0  0  0  0  0  0  0  0
   10.6165  -17.2586   27.1719 C   0  0  2  0  0  0  0  0  0  0  0  0
   10.1255  -16.2966   26.1798 N   0  0  0  0  0  0  0  0  0  0  0  0
   10.2589  -16.8971   28.5403 C   0  0  0  0  0  0  0  0  0  0  0  0
   10.2561  -17.8510   29.5385 O   0  0  0  0  0  0  0  0  0  0  0  0
    9.9485  -15.7234   28.8395 O   0  0  0  0  0  0  0  0  0  0  0  0
  2  1  1  6
  2  7  1  0
  3  2  1  0
  4  3  1  0
  4  5  1  0
  5  9  1  0
  5  6  2  0
  7  8  2  0
  7 15  1  0
 10 11  1  0
 11 12  1  0
 13 12  1  0
 14 13  1  1
 15 14  1  0
 16 14  1  0
 16 17  2  0
 18 19  1  0
 19 20  1  0
 20 21  1  0
 22 21  1  1
 22 23  1  0
 23 16  1  0
 24 22  1  0
 25 24  1  0
 26 24  2  0
M  END
$$$$
