ETL.pdb
     RDKit          3D

 25 24  0  0  1  0  0  0  0  0999 V2000
   17.1620  -12.2907  -19.0637 N   0  0  0  0  0  0  0  0  0  0  0  0
   17.1019  -11.5166  -17.8748 C   0  0  1  0  0  0  0  0  0  0  0  0
   17.1046  -12.2992  -16.5846 C   0  0  0  0  0  0  0  0  0  0  0  0
   15.9932  -13.2641  -16.4481 C   0  0  0  0  0  0  0  0  0  0  0  0
   14.7354  -12.6435  -16.0258 C   0  0  0  0  0  0  0  0  0  0  0  0
   14.4723  -12.2600  -14.8616 O   0  0  0  0  0  0  0  0  0  0  0  0
   18.1796  -10.4662  -17.8027 C   0  0  0  0  0  0  0  0  0  0  0  0
   19.4020  -10.7967  -17.8340 O   0  0  0  0  0  0  0  0  0  0  0  0
   13.7216  -12.4420  -16.9814 O   0  0  0  0  0  0  0  0  0  0  0  0
   17.9881   -6.8438  -19.6155 C   0  0  0  0  0  0  0  0  0  0  0  0
   18.4547   -6.7659  -18.1824 C   0  0  1  0  0  0  0  0  0  0  0  0
   17.2958   -6.4066  -17.4550 O   0  0  0  0  0  0  0  0  0  0  0  0
   18.9934   -8.0981  -17.6604 C   0  0  2  0  0  0  0  0  0  0  0  0
   17.9072   -9.0862  -17.7002 N   0  0  0  0  0  0  0  0  0  0  0  0
   19.4575   -7.8910  -16.2852 C   0  0  0  0  0  0  0  0  0  0  0  0
   18.7796   -8.4917  -15.3681 O   0  0  0  0  0  0  0  0  0  0  0  0
   23.4349   -9.6499  -12.7645 C   0  0  0  0  0  0  0  0  0  0  0  0
   22.4189   -8.4966  -12.7798 C   0  0  2  0  0  0  0  0  0  0  0  0
   21.4256   -8.8151  -11.7023 C   0  0  0  0  0  0  0  0  0  0  0  0
   21.8253   -8.4124  -14.1308 C   0  0  0  0  0  0  0  0  0  0  0  0
   21.0082   -7.1846  -14.4272 C   0  0  2  0  0  0  0  0  0  0  0  0
   20.5306   -7.1384  -15.8125 N   0  0  0  0  0  0  0  0  0  0  0  0
   21.9110   -6.0126  -14.2933 C   0  0  0  0  0  0  0  0  0  0  0  0
   22.2600   -5.5160  -13.0148 O   0  0  0  0  0  0  0  0  0  0  0  0
   22.4245   -5.3892  -15.2498 O   0  0  0  0  0  0  0  0  0  0  0  0
  2  1  1  6
  3  2  1  0
  4  3  1  0
  5  4  1  0
  6  5  2  0
  7 14  1  0
  7  2  1  0
  8  7  2  0
  9  5  1  0
 11 10  1  6
 11 13  1  0
 12 11  1  0
 13 15  1  0
 13 14  1  1
 15 22  1  0
 16 15  2  0
 18 20  1  0
 18 17  1  6
 19 18  1  0
 21 23  1  0
 21 20  1  6
 22 21  1  0
 23 24  1  0
 25 23  2  0
M  END
$$$$
