ETL.pdb
     RDKit          3D

 25 24  0  0  1  0  0  0  0  0999 V2000
   25.1089  -19.0369  -15.6549 N   0  0  0  0  0  0  0  0  0  0  0  0
   26.1458  -18.8436  -14.7042 C   0  0  1  0  0  0  0  0  0  0  0  0
   27.0032  -17.6195  -14.9122 C   0  0  0  0  0  0  0  0  0  0  0  0
   28.4085  -17.9063  -15.2699 C   0  0  0  0  0  0  0  0  0  0  0  0
   28.6213  -18.0527  -16.7117 C   0  0  0  0  0  0  0  0  0  0  0  0
   28.3203  -17.1984  -17.5784 O   0  0  0  0  0  0  0  0  0  0  0  0
   25.6470  -18.8459  -13.2825 C   0  0  0  0  0  0  0  0  0  0  0  0
   25.2523  -17.7723  -12.7385 O   0  0  0  0  0  0  0  0  0  0  0  0
   29.2149  -19.2339  -17.1953 O   0  0  0  0  0  0  0  0  0  0  0  0
   22.7197  -20.7733  -11.9724 C   0  0  0  0  0  0  0  0  0  0  0  0
   23.9050  -21.0702  -11.0868 C   0  0  1  0  0  0  0  0  0  0  0  0
   24.4273  -22.2830  -11.5944 O   0  0  0  0  0  0  0  0  0  0  0  0
   24.9797  -19.9846  -11.1499 C   0  0  2  0  0  0  0  0  0  0  0  0
   25.5869  -20.0090  -12.4872 N   0  0  0  0  0  0  0  0  0  0  0  0
   25.9803  -20.2779  -10.1192 C   0  0  0  0  0  0  0  0  0  0  0  0
   26.8396  -21.1918  -10.4158 O   0  0  0  0  0  0  0  0  0  0  0  0
   28.5665  -18.6292   -4.7338 C   0  0  0  0  0  0  0  0  0  0  0  0
   28.3771  -19.7655   -5.7515 C   0  0  2  0  0  0  0  0  0  0  0  0
   29.7593  -20.1839   -6.1559 C   0  0  0  0  0  0  0  0  0  0  0  0
   27.5564  -19.2597   -6.8719 C   0  0  0  0  0  0  0  0  0  0  0  0
   27.0015  -20.2926   -7.8142 C   0  0  2  0  0  0  0  0  0  0  0  0
   26.1480  -19.7138   -8.8563 N   0  0  0  0  0  0  0  0  0  0  0  0
   26.1004  -21.1702   -7.0240 C   0  0  0  0  0  0  0  0  0  0  0  0
   26.6326  -22.1742   -6.1804 O   0  0  0  0  0  0  0  0  0  0  0  0
   24.8502  -21.1041   -7.0269 O   0  0  0  0  0  0  0  0  0  0  0  0
  2  1  1  6
  3  2  1  0
  4  3  1  0
  5  4  1  0
  6  5  2  0
  7 14  1  0
  7  2  1  0
  8  7  2  0
  9  5  1  0
 11 10  1  6
 11 13  1  0
 12 11  1  0
 13 15  1  0
 13 14  1  6
 15 22  1  0
 16 15  2  0
 18 20  1  0
 18 17  1  1
 19 18  1  0
 21 23  1  0
 21 20  1  1
 22 21  1  0
 23 24  1  0
 25 23  2  0
M  END
$$$$
