ETL.pdb
     RDKit          3D

 25 24  0  0  1  0  0  0  0  0999 V2000
   18.8387  -12.8849  -18.8159 N   0  0  0  0  0  0  0  0  0  0  0  0
   18.3440  -11.5885  -18.5145 C   0  0  1  0  0  0  0  0  0  0  0  0
   17.1981  -11.5378  -17.5342 C   0  0  0  0  0  0  0  0  0  0  0  0
   16.5116  -12.8297  -17.3231 C   0  0  0  0  0  0  0  0  0  0  0  0
   16.1250  -13.0596  -15.9290 C   0  0  0  0  0  0  0  0  0  0  0  0
   16.8550  -13.5773  -15.0512 O   0  0  0  0  0  0  0  0  0  0  0  0
   19.4201  -10.6435  -18.0463 C   0  0  0  0  0  0  0  0  0  0  0  0
   20.3997  -11.0714  -17.3668 O   0  0  0  0  0  0  0  0  0  0  0  0
   14.8384  -12.6741  -15.5074 O   0  0  0  0  0  0  0  0  0  0  0  0
   20.5617   -7.5860  -20.4287 C   0  0  0  0  0  0  0  0  0  0  0  0
   20.5396   -7.2056  -18.9685 C   0  0  1  0  0  0  0  0  0  0  0  0
   19.3130   -6.5205  -18.8028 O   0  0  0  0  0  0  0  0  0  0  0  0
   20.5775   -8.4185  -18.0386 C   0  0  2  0  0  0  0  0  0  0  0  0
   19.4093   -9.2613  -18.3264 N   0  0  0  0  0  0  0  0  0  0  0  0
   20.5387   -7.9307  -16.6566 C   0  0  0  0  0  0  0  0  0  0  0  0
   19.4159   -8.0786  -16.0410 O   0  0  0  0  0  0  0  0  0  0  0  0
   23.0337   -8.4029  -11.3698 C   0  0  0  0  0  0  0  0  0  0  0  0
   22.0209   -7.5172  -12.1130 C   0  0  2  0  0  0  0  0  0  0  0  0
   20.7076   -7.7331  -11.4219 C   0  0  0  0  0  0  0  0  0  0  0  0
   22.0146   -7.9069  -13.5388 C   0  0  0  0  0  0  0  0  0  0  0  0
   21.3728   -6.9384  -14.4942 C   0  0  2  0  0  0  0  0  0  0  0  0
   21.5395   -7.3272  -15.8980 N   0  0  0  0  0  0  0  0  0  0  0  0
   22.0969   -5.6479  -14.3650 C   0  0  0  0  0  0  0  0  0  0  0  0
   23.1078   -5.2947  -15.2904 O   0  0  0  0  0  0  0  0  0  0  0  0
   21.8884   -4.7940  -13.4736 O   0  0  0  0  0  0  0  0  0  0  0  0
  2  1  1  1
  3  2  1  0
  4  3  1  0
  5  4  1  0
  6  5  2  0
  7 14  1  0
  7  2  1  0
  8  7  2  0
  9  5  1  0
 11 10  1  6
 11 13  1  0
 12 11  1  0
 13 15  1  0
 13 14  1  6
 15 22  1  0
 16 15  2  0
 18 20  1  0
 18 17  1  1
 19 18  1  0
 21 23  1  0
 21 20  1  1
 22 21  1  0
 23 24  1  0
 25 23  2  0
M  END
$$$$
