ETL.pdb
     RDKit          3D

 25 24  0  0  1  0  0  0  0  0999 V2000
   29.9213  -14.2976  -19.5440 N   0  0  0  0  0  0  0  0  0  0  0  0
   28.6619  -13.6437  -19.5957 C   0  0  1  0  0  0  0  0  0  0  0  0
   27.4586  -14.5495  -19.6871 C   0  0  0  0  0  0  0  0  0  0  0  0
   27.2742  -15.1964  -21.0033 C   0  0  0  0  0  0  0  0  0  0  0  0
   26.0440  -15.9866  -21.0936 C   0  0  0  0  0  0  0  0  0  0  0  0
   25.0991  -15.9516  -20.2704 O   0  0  0  0  0  0  0  0  0  0  0  0
   28.4534  -12.6799  -18.4565 C   0  0  0  0  0  0  0  0  0  0  0  0
   28.8852  -12.9523  -17.2973 O   0  0  0  0  0  0  0  0  0  0  0  0
   25.8757  -16.8613  -22.1836 O   0  0  0  0  0  0  0  0  0  0  0  0
   29.8381   -9.3474  -18.2609 C   0  0  0  0  0  0  0  0  0  0  0  0
   28.3733   -9.1818  -17.9376 C   0  0  1  0  0  0  0  0  0  0  0  0
   27.7924   -8.7488  -19.1526 O   0  0  0  0  0  0  0  0  0  0  0  0
   27.7128  -10.4865  -17.4916 C   0  0  2  0  0  0  0  0  0  0  0  0
   27.7847  -11.4466  -18.6010 N   0  0  0  0  0  0  0  0  0  0  0  0
   26.3182  -10.1933  -17.1475 C   0  0  0  0  0  0  0  0  0  0  0  0
   25.4464  -10.4693  -18.0561 O   0  0  0  0  0  0  0  0  0  0  0  0
   22.3856   -9.4848  -12.4576 C   0  0  0  0  0  0  0  0  0  0  0  0
   22.5258   -9.4853  -13.9882 C   0  0  2  0  0  0  0  0  0  0  0  0
   21.5769  -10.5359  -14.4833 C   0  0  0  0  0  0  0  0  0  0  0  0
   23.9391   -9.7510  -14.3297 C   0  0  0  0  0  0  0  0  0  0  0  0
   24.3483   -9.4707  -15.7498 C   0  0  2  0  0  0  0  0  0  0  0  0
   25.7846   -9.6582  -15.9769 N   0  0  0  0  0  0  0  0  0  0  0  0
   24.1056   -8.0268  -16.0007 C   0  0  0  0  0  0  0  0  0  0  0  0
   25.1763   -7.1017  -15.9699 O   0  0  0  0  0  0  0  0  0  0  0  0
   22.9893   -7.5200  -16.2540 O   0  0  0  0  0  0  0  0  0  0  0  0
  2  1  1  1
  3  2  1  0
  4  3  1  0
  5  4  1  0
  6  5  2  0
  7 14  1  0
  7  2  1  0
  8  7  2  0
  9  5  1  0
 11 10  1  6
 11 13  1  0
 12 11  1  0
 13 15  1  0
 13 14  1  6
 15 22  1  0
 16 15  2  0
 18 20  1  0
 18 17  1  1
 19 18  1  0
 21 23  1  0
 21 20  1  1
 22 21  1  0
 23 24  1  0
 25 23  2  0
M  END
$$$$
