ETL.pdb
     RDKit          3D

 25 24  0  0  1  0  0  0  0  0999 V2000
   28.3333  -21.1705   -9.5090 N   0  0  0  0  0  0  0  0  0  0  0  0
   26.9252  -21.0102   -9.4213 C   0  0  1  0  0  0  0  0  0  0  0  0
   26.4313  -20.2021   -8.2466 C   0  0  0  0  0  0  0  0  0  0  0  0
   26.9893  -20.6112   -6.9404 C   0  0  0  0  0  0  0  0  0  0  0  0
   27.8697  -19.6033   -6.3449 C   0  0  0  0  0  0  0  0  0  0  0  0
   27.9656  -18.4117   -6.7226 O   0  0  0  0  0  0  0  0  0  0  0  0
   26.3184  -20.4487  -10.6810 C   0  0  0  0  0  0  0  0  0  0  0  0
   26.6280  -19.2873  -11.0808 O   0  0  0  0  0  0  0  0  0  0  0  0
   28.6827  -19.9684   -5.2553 O   0  0  0  0  0  0  0  0  0  0  0  0
   27.0573  -21.1161  -13.9459 C   0  0  0  0  0  0  0  0  0  0  0  0
   25.5660  -21.3415  -13.8949 C   0  0  1  0  0  0  0  0  0  0  0  0
   25.4280  -22.7368  -13.7068 O   0  0  0  0  0  0  0  0  0  0  0  0
   24.8931  -20.6008  -12.7390 C   0  0  2  0  0  0  0  0  0  0  0  0
   25.3942  -21.1581  -11.4756 N   0  0  0  0  0  0  0  0  0  0  0  0
   23.4452  -20.7987  -12.8564 C   0  0  0  0  0  0  0  0  0  0  0  0
   22.9427  -21.7206  -12.1084 O   0  0  0  0  0  0  0  0  0  0  0  0
   19.4738  -18.9477  -11.5176 C   0  0  0  0  0  0  0  0  0  0  0  0
   20.1934  -18.2607  -12.6893 C   0  0  2  0  0  0  0  0  0  0  0  0
   19.4169  -17.0077  -12.9652 C   0  0  0  0  0  0  0  0  0  0  0  0
   20.2340  -19.1995  -13.8301 C   0  0  0  0  0  0  0  0  0  0  0  0
   21.0826  -20.4291  -13.6549 C   0  0  2  0  0  0  0  0  0  0  0  0
   22.5191  -20.1358  -13.6590 N   0  0  0  0  0  0  0  0  0  0  0  0
   20.8631  -21.2885  -14.8464 C   0  0  0  0  0  0  0  0  0  0  0  0
   19.6545  -22.0086  -15.0009 O   0  0  0  0  0  0  0  0  0  0  0  0
   21.6829  -21.4448  -15.7795 O   0  0  0  0  0  0  0  0  0  0  0  0
  2  1  1  6
  3  2  1  0
  4  3  1  0
  5  4  1  0
  6  5  2  0
  7 14  1  0
  7  2  1  0
  8  7  2  0
  9  5  1  0
 11 10  1  1
 11 13  1  0
 12 11  1  0
 13 15  1  0
 13 14  1  1
 15 22  1  0
 16 15  2  0
 18 20  1  0
 18 17  1  1
 19 18  1  0
 21 23  1  0
 21 20  1  6
 22 21  1  0
 23 24  1  0
 25 23  2  0
M  END
$$$$
