ETL.pdb
     RDKit          3D

 25 24  0  0  1  0  0  0  0  0999 V2000
   17.0124  -13.8407  -19.6228 N   0  0  0  0  0  0  0  0  0  0  0  0
   17.3282  -13.1524  -18.4216 C   0  0  1  0  0  0  0  0  0  0  0  0
   17.4555  -14.0135  -17.1891 C   0  0  0  0  0  0  0  0  0  0  0  0
   18.5128  -15.0437  -17.2649 C   0  0  0  0  0  0  0  0  0  0  0  0
   18.6570  -15.8181  -16.0299 C   0  0  0  0  0  0  0  0  0  0  0  0
   17.9945  -15.6382  -14.9810 O   0  0  0  0  0  0  0  0  0  0  0  0
   18.5635  -12.2981  -18.5416 C   0  0  0  0  0  0  0  0  0  0  0  0
   19.6944  -12.8295  -18.7486 O   0  0  0  0  0  0  0  0  0  0  0  0
   19.6034  -16.8593  -15.9864 O   0  0  0  0  0  0  0  0  0  0  0  0
   18.6027   -8.6160  -20.3594 C   0  0  0  0  0  0  0  0  0  0  0  0
   19.3390   -8.6753  -19.0434 C   0  0  1  0  0  0  0  0  0  0  0  0
   18.4080   -8.1847  -18.0979 O   0  0  0  0  0  0  0  0  0  0  0  0
   19.7566  -10.0952  -18.6605 C   0  0  2  0  0  0  0  0  0  0  0  0
   18.5431  -10.8919  -18.4360 N   0  0  0  0  0  0  0  0  0  0  0  0
   20.5603  -10.0162  -17.4369 C   0  0  0  0  0  0  0  0  0  0  0  0
   19.9395  -10.2861  -16.3398 O   0  0  0  0  0  0  0  0  0  0  0  0
   26.3249  -10.0541  -15.1855 C   0  0  0  0  0  0  0  0  0  0  0  0
   24.8372   -9.8939  -14.8337 C   0  0  2  0  0  0  0  0  0  0  0  0
   24.5430  -10.9562  -13.8169 C   0  0  0  0  0  0  0  0  0  0  0  0
   24.0453  -10.0222  -16.0751 C   0  0  0  0  0  0  0  0  0  0  0  0
   22.5865   -9.6684  -15.9776 C   0  0  2  0  0  0  0  0  0  0  0  0
   21.9059   -9.6926  -17.2759 N   0  0  0  0  0  0  0  0  0  0  0  0
   22.5058   -8.2548  -15.5285 C   0  0  0  0  0  0  0  0  0  0  0  0
   22.3891   -7.2061  -16.4717 O   0  0  0  0  0  0  0  0  0  0  0  0
   22.5280   -7.8786  -14.3346 O   0  0  0  0  0  0  0  0  0  0  0  0
  2  1  1  6
  3  2  1  0
  4  3  1  0
  5  4  1  0
  6  5  2  0
  7 14  1  0
  7  2  1  0
  8  7  2  0
  9  5  1  0
 11 10  1  6
 11 13  1  0
 12 11  1  0
 13 15  1  0
 13 14  1  1
 15 22  1  0
 16 15  2  0
 18 20  1  0
 18 17  1  6
 19 18  1  0
 21 23  1  0
 21 20  1  6
 22 21  1  0
 23 24  1  0
 25 23  2  0
M  END
$$$$
