ETL.pdb
     RDKit          3D

 25 24  0  0  1  0  0  0  0  0999 V2000
   24.7232  -21.4518  -14.4502 N   0  0  0  0  0  0  0  0  0  0  0  0
   25.7988  -21.4391  -13.5233 C   0  0  1  0  0  0  0  0  0  0  0  0
   27.1388  -21.0291  -14.0828 C   0  0  0  0  0  0  0  0  0  0  0  0
   27.2636  -21.1731  -15.5486 C   0  0  0  0  0  0  0  0  0  0  0  0
   26.7923  -20.0000  -16.2884 C   0  0  0  0  0  0  0  0  0  0  0  0
   27.1718  -18.8210  -16.0943 O   0  0  0  0  0  0  0  0  0  0  0  0
   25.5116  -20.6050  -12.3018 C   0  0  0  0  0  0  0  0  0  0  0  0
   25.0512  -19.4309  -12.4194 O   0  0  0  0  0  0  0  0  0  0  0  0
   25.8406  -20.1774  -17.3104 O   0  0  0  0  0  0  0  0  0  0  0  0
   23.0001  -20.9479   -9.9987 C   0  0  0  0  0  0  0  0  0  0  0  0
   24.2078  -20.8121   -9.1040 C   0  0  1  0  0  0  0  0  0  0  0  0
   24.4998  -22.1376   -8.7051 O   0  0  0  0  0  0  0  0  0  0  0  0
   25.4171  -20.2172   -9.8257 C   0  0  2  0  0  0  0  0  0  0  0  0
   25.7284  -21.0630  -10.9856 N   0  0  0  0  0  0  0  0  0  0  0  0
   26.5400  -20.1935   -8.8834 C   0  0  0  0  0  0  0  0  0  0  0  0
   27.2168  -21.2866   -8.7898 O   0  0  0  0  0  0  0  0  0  0  0  0
   28.0462  -19.5627   -3.2908 C   0  0  0  0  0  0  0  0  0  0  0  0
   28.7136  -19.5215   -4.6748 C   0  0  2  0  0  0  0  0  0  0  0  0
   29.7733  -18.4641   -4.5841 C   0  0  0  0  0  0  0  0  0  0  0  0
   27.6753  -19.2386   -5.6879 C   0  0  0  0  0  0  0  0  0  0  0  0
   28.1107  -19.2976   -7.1266 C   0  0  2  0  0  0  0  0  0  0  0  0
   26.9939  -19.1601   -8.0664 N   0  0  0  0  0  0  0  0  0  0  0  0
   28.6493  -20.6608   -7.3676 C   0  0  0  0  0  0  0  0  0  0  0  0
   30.0460  -20.8829   -7.4223 O   0  0  0  0  0  0  0  0  0  0  0  0
   27.9538  -21.6887   -7.5322 O   0  0  0  0  0  0  0  0  0  0  0  0
  2  1  1  6
  3  2  1  0
  4  3  1  0
  5  4  1  0
  6  5  2  0
  7 14  1  0
  7  2  1  0
  8  7  2  0
  9  5  1  0
 11 10  1  6
 11 13  1  0
 12 11  1  0
 13 15  1  0
 13 14  1  6
 15 22  1  0
 16 15  2  0
 18 20  1  0
 18 17  1  1
 19 18  1  0
 21 23  1  0
 21 20  1  1
 22 21  1  0
 23 24  1  0
 25 23  2  0
M  END
$$$$
