QEG.pdb
     RDKit          3D

 23 22  0  0  1  0  0  0  0  0999 V2000
   17.2104  -15.1219  -14.9213 N   0  0  0  0  0  0  0  0  0  0  0  0
   17.7963  -15.3823  -16.2106 C   0  0  0  0  0  0  0  0  0  0  0  0
   17.0107  -15.8088  -17.0775 O   0  0  0  0  0  0  0  0  0  0  0  0
   19.2185  -15.1452  -16.4200 C   0  0  0  0  0  0  0  0  0  0  0  0
   19.6721  -13.8511  -15.8459 C   0  0  0  0  0  0  0  0  0  0  0  0
   19.2184  -12.6392  -16.5743 C   0  0  2  0  0  0  0  0  0  0  0  0
   19.1042  -12.7009  -17.9815 N   0  0  0  0  0  0  0  0  0  0  0  0
   20.1426  -11.5248  -16.1927 C   0  0  0  0  0  0  0  0  0  0  0  0
   20.5790  -11.4107  -15.0116 O   0  0  0  0  0  0  0  0  0  0  0  0
   20.5300  -10.5959  -17.1472 N   0  0  0  0  0  0  0  0  0  0  0  0
   21.4057   -9.4299  -16.8463 C   0  0  1  0  0  0  0  0  0  0  0  0
   22.1099   -9.1690  -18.1340 C   0  0  0  0  0  0  0  0  0  0  0  0
   23.0256   -7.9908  -18.1909 C   0  0  0  0  0  0  0  0  0  0  0  0
   23.5399   -7.8081  -19.5578 C   0  0  0  0  0  0  0  0  0  0  0  0
   22.9535   -7.0054  -20.3312 O   0  0  0  0  0  0  0  0  0  0  0  0
   20.6161   -8.3756  -16.2367 C   0  0  0  0  0  0  0  0  0  0  0  0
   19.3864   -8.2211  -16.5625 O   0  0  0  0  0  0  0  0  0  0  0  0
   24.6400   -8.4871  -20.0149 O   0  0  0  0  0  0  0  0  0  0  0  0
   21.0954   -7.4550  -15.2693 N   0  0  0  0  0  0  0  0  0  0  0  0
   20.2913   -6.3850  -14.7088 C   0  0  0  0  0  0  0  0  0  0  0  0
   20.9885   -5.7560  -13.5753 C   0  0  0  0  0  0  0  0  0  0  0  0
   22.1135   -6.1347  -13.1706 O   0  0  0  0  0  0  0  0  0  0  0  0
   20.3777   -4.6999  -12.9266 O   0  0  0  0  0  0  0  0  0  0  0  0
  2  1  1  0
  2  3  2  0
  4  2  1  0
  5  4  1  0
  6  5  1  0
  6  7  1  6
  8  6  1  0
  8 10  1  0
  9  8  2  0
 11 10  1  0
 11 12  1  6
 12 13  1  0
 13 14  1  0
 14 15  2  0
 16 11  1  0
 17 16  2  0
 18 14  1  0
 19 16  1  0
 20 21  1  0
 20 19  1  0
 21 23  1  0
 22 21  2  0
M  END
$$$$
