QEG.pdb
     RDKit          3D

 23 22  0  0  1  0  0  0  0  0999 V2000
   26.9275  -19.0588  -17.2410 N   0  0  0  0  0  0  0  0  0  0  0  0
   27.5042  -20.2810  -16.7437 C   0  0  0  0  0  0  0  0  0  0  0  0
   28.7489  -20.3187  -16.7344 O   0  0  0  0  0  0  0  0  0  0  0  0
   26.6350  -21.3629  -16.3003 C   0  0  0  0  0  0  0  0  0  0  0  0
   25.1933  -21.0155  -16.4033 C   0  0  0  0  0  0  0  0  0  0  0  0
   24.7589  -19.8566  -15.5828 C   0  0  2  0  0  0  0  0  0  0  0  0
   25.3258  -19.6881  -14.2994 N   0  0  0  0  0  0  0  0  0  0  0  0
   23.2680  -19.9327  -15.4685 C   0  0  0  0  0  0  0  0  0  0  0  0
   22.6158  -20.8688  -16.0132 O   0  0  0  0  0  0  0  0  0  0  0  0
   22.5831  -18.9605  -14.7544 N   0  0  0  0  0  0  0  0  0  0  0  0
   21.1090  -18.9848  -14.5456 C   0  0  1  0  0  0  0  0  0  0  0  0
   20.8848  -20.2021  -13.7148 C   0  0  0  0  0  0  0  0  0  0  0  0
   19.7428  -21.0889  -14.0879 C   0  0  0  0  0  0  0  0  0  0  0  0
   19.7195  -22.2825  -13.2273 C   0  0  0  0  0  0  0  0  0  0  0  0
   20.5998  -22.4129  -12.3360 O   0  0  0  0  0  0  0  0  0  0  0  0
   20.6681  -17.6924  -14.0539 C   0  0  0  0  0  0  0  0  0  0  0  0
   21.4291  -16.9996  -13.2904 O   0  0  0  0  0  0  0  0  0  0  0  0
   18.7666  -23.2585  -13.3674 O   0  0  0  0  0  0  0  0  0  0  0  0
   19.4168  -17.0923  -14.3497 N   0  0  0  0  0  0  0  0  0  0  0  0
   18.9975  -15.8055  -13.8263 C   0  0  0  0  0  0  0  0  0  0  0  0
   17.6854  -15.4283  -14.3762 C   0  0  0  0  0  0  0  0  0  0  0  0
   17.0740  -16.1238  -15.2219 O   0  0  0  0  0  0  0  0  0  0  0  0
   17.0987  -14.2549  -13.9421 O   0  0  0  0  0  0  0  0  0  0  0  0
  2  1  1  0
  2  3  2  0
  4  2  1  0
  5  4  1  0
  6  5  1  0
  6  7  1  1
  8  6  1  0
  8 10  1  0
  9  8  2  0
 11 10  1  0
 11 12  1  1
 12 13  1  0
 13 14  1  0
 14 15  2  0
 16 11  1  0
 17 16  2  0
 18 14  1  0
 19 16  1  0
 20 21  1  0
 20 19  1  0
 21 23  1  0
 22 21  2  0
M  END
$$$$
