QEG.pdb
     RDKit          3D

 23 22  0  0  1  0  0  0  0  0999 V2000
   24.6955  -21.2928   -7.9176 N   0  0  0  0  0  0  0  0  0  0  0  0
   25.4311  -20.4887   -8.8587 C   0  0  0  0  0  0  0  0  0  0  0  0
   24.9608  -19.3562   -9.0753 O   0  0  0  0  0  0  0  0  0  0  0  0
   26.6341  -21.0240   -9.4825 C   0  0  0  0  0  0  0  0  0  0  0  0
   26.7994  -20.5682  -10.8879 C   0  0  0  0  0  0  0  0  0  0  0  0
   25.6291  -20.7988  -11.7723 C   0  0  2  0  0  0  0  0  0  0  0  0
   25.2069  -22.1279  -12.0001 N   0  0  0  0  0  0  0  0  0  0  0  0
   25.9286  -20.1346  -13.0803 C   0  0  0  0  0  0  0  0  0  0  0  0
   26.3844  -18.9563  -13.1279 O   0  0  0  0  0  0  0  0  0  0  0  0
   25.7026  -20.8184  -14.2658 N   0  0  0  0  0  0  0  0  0  0  0  0
   25.8651  -20.2004  -15.6108 C   0  0  1  0  0  0  0  0  0  0  0  0
   26.6353  -21.2176  -16.3818 C   0  0  0  0  0  0  0  0  0  0  0  0
   26.9610  -20.9010  -17.8042 C   0  0  0  0  0  0  0  0  0  0  0  0
   27.7588  -21.9849  -18.3998 C   0  0  0  0  0  0  0  0  0  0  0  0
   28.8228  -21.6987  -19.0101 O   0  0  0  0  0  0  0  0  0  0  0  0
   24.5719  -19.7599  -16.1009 C   0  0  0  0  0  0  0  0  0  0  0  0
   23.5409  -20.5078  -15.9607 O   0  0  0  0  0  0  0  0  0  0  0  0
   27.3776  -23.2989  -18.3099 O   0  0  0  0  0  0  0  0  0  0  0  0
   24.3259  -18.5233  -16.7516 N   0  0  0  0  0  0  0  0  0  0  0  0
   22.9977  -18.0239  -17.0552 C   0  0  0  0  0  0  0  0  0  0  0  0
   22.5335  -18.5482  -18.3498 C   0  0  0  0  0  0  0  0  0  0  0  0
   21.4497  -18.2024  -18.8776 O   0  0  0  0  0  0  0  0  0  0  0  0
   23.3267  -19.4630  -19.0158 O   0  0  0  0  0  0  0  0  0  0  0  0
  2  1  1  0
  2  3  2  0
  4  2  1  0
  5  4  1  0
  6  5  1  0
  6  7  1  6
  8  6  1  0
  8 10  1  0
  9  8  2  0
 11 10  1  0
 11 12  1  6
 12 13  1  0
 13 14  1  0
 14 15  2  0
 16 11  1  0
 17 16  2  0
 18 14  1  0
 19 16  1  0
 20 21  1  0
 20 19  1  0
 21 23  1  0
 22 21  2  0
M  END
$$$$
