QEG.pdb
     RDKit          3D

 23 22  0  0  1  0  0  0  0  0999 V2000
   18.0265  -14.4978  -14.5357 N   0  0  0  0  0  0  0  0  0  0  0  0
   17.0962  -14.6422  -15.6252 C   0  0  0  0  0  0  0  0  0  0  0  0
   16.3955  -15.6712  -15.5959 O   0  0  0  0  0  0  0  0  0  0  0  0
   17.0312  -13.6198  -16.6612 C   0  0  0  0  0  0  0  0  0  0  0  0
   17.9505  -12.4816  -16.3983 C   0  0  0  0  0  0  0  0  0  0  0  0
   17.4692  -11.4939  -15.3994 C   0  0  2  0  0  0  0  0  0  0  0  0
   16.0765  -11.3010  -15.2580 N   0  0  0  0  0  0  0  0  0  0  0  0
   18.1283  -10.1881  -15.7190 C   0  0  0  0  0  0  0  0  0  0  0  0
   19.1775  -10.1384  -16.4226 O   0  0  0  0  0  0  0  0  0  0  0  0
   17.5839   -9.0072  -15.2361 N   0  0  0  0  0  0  0  0  0  0  0  0
   18.1648   -7.6646  -15.5136 C   0  0  1  0  0  0  0  0  0  0  0  0
   16.9723   -6.7900  -15.7014 C   0  0  0  0  0  0  0  0  0  0  0  0
   17.2102   -5.3221  -15.8373 C   0  0  0  0  0  0  0  0  0  0  0  0
   15.9307   -4.6061  -15.9643 C   0  0  0  0  0  0  0  0  0  0  0  0
   14.9262   -5.0291  -15.3333 O   0  0  0  0  0  0  0  0  0  0  0  0
   19.1378   -7.3364  -14.4879 C   0  0  0  0  0  0  0  0  0  0  0  0
   18.9991   -7.7927  -13.2985 O   0  0  0  0  0  0  0  0  0  0  0  0
   15.7996   -3.4905  -16.7508 O   0  0  0  0  0  0  0  0  0  0  0  0
   20.2823   -6.5206  -14.6824 N   0  0  0  0  0  0  0  0  0  0  0  0
   21.2208   -6.1860  -13.6275 C   0  0  0  0  0  0  0  0  0  0  0  0
   22.3017   -5.3347  -14.1504 C   0  0  0  0  0  0  0  0  0  0  0  0
   22.4318   -5.0678  -15.3688 O   0  0  0  0  0  0  0  0  0  0  0  0
   23.2155   -4.8041  -13.2599 O   0  0  0  0  0  0  0  0  0  0  0  0
  2  1  1  0
  2  3  2  0
  4  2  1  0
  5  4  1  0
  6  5  1  0
  6  7  1  6
  8  6  1  0
  8 10  1  0
  9  8  2  0
 11 10  1  0
 11 12  1  1
 12 13  1  0
 13 14  1  0
 14 15  2  0
 16 11  1  0
 17 16  2  0
 18 14  1  0
 19 16  1  0
 20 21  1  0
 20 19  1  0
 21 23  1  0
 22 21  2  0
M  END
$$$$
