QEG.pdb
     RDKit          3D

 23 22  0  0  1  0  0  0  0  0999 V2000
   18.1842  -14.4616  -18.5793 N   0  0  0  0  0  0  0  0  0  0  0  0
   17.4629  -14.8556  -17.3969 C   0  0  0  0  0  0  0  0  0  0  0  0
   16.7786  -15.8898  -17.5090 O   0  0  0  0  0  0  0  0  0  0  0  0
   17.5668  -14.0532  -16.1852 C   0  0  0  0  0  0  0  0  0  0  0  0
   18.4094  -12.8429  -16.3726 C   0  0  0  0  0  0  0  0  0  0  0  0
   18.5086  -11.9488  -15.1912 C   0  0  2  0  0  0  0  0  0  0  0  0
   17.3373  -11.6804  -14.4477 N   0  0  0  0  0  0  0  0  0  0  0  0
   19.1114  -10.6619  -15.6627 C   0  0  0  0  0  0  0  0  0  0  0  0
   20.1435  -10.6504  -16.3928 O   0  0  0  0  0  0  0  0  0  0  0  0
   18.5327   -9.4563  -15.2943 N   0  0  0  0  0  0  0  0  0  0  0  0
   19.0280   -8.1332  -15.7647 C   0  0  1  0  0  0  0  0  0  0  0  0
   17.7826   -7.3600  -16.0352 C   0  0  0  0  0  0  0  0  0  0  0  0
   17.9324   -5.9191  -16.3975 C   0  0  0  0  0  0  0  0  0  0  0  0
   16.6111   -5.2997  -16.5888 C   0  0  0  0  0  0  0  0  0  0  0  0
   16.2181   -5.0426  -17.7574 O   0  0  0  0  0  0  0  0  0  0  0  0
   19.9999   -7.6157  -14.8191 C   0  0  0  0  0  0  0  0  0  0  0  0
   19.7593   -7.6553  -13.5611 O   0  0  0  0  0  0  0  0  0  0  0  0
   15.7942   -4.9936  -15.5309 O   0  0  0  0  0  0  0  0  0  0  0  0
   21.2500   -7.0424  -15.1679 N   0  0  0  0  0  0  0  0  0  0  0  0
   22.1889   -6.5083  -14.1990 C   0  0  0  0  0  0  0  0  0  0  0  0
   21.7860   -5.1553  -13.7827 C   0  0  0  0  0  0  0  0  0  0  0  0
   20.7356   -4.6013  -14.1858 O   0  0  0  0  0  0  0  0  0  0  0  0
   22.6007   -4.4622  -12.9078 O   0  0  0  0  0  0  0  0  0  0  0  0
  2  1  1  0
  2  3  2  0
  4  2  1  0
  5  4  1  0
  6  5  1  0
  6  7  1  6
  8  6  1  0
  8 10  1  0
  9  8  2  0
 11 10  1  0
 11 12  1  1
 12 13  1  0
 13 14  1  0
 14 15  2  0
 16 11  1  0
 17 16  2  0
 18 14  1  0
 19 16  1  0
 20 21  1  0
 20 19  1  0
 21 23  1  0
 22 21  2  0
M  END
$$$$
