QEG.pdb
     RDKit          3D

 23 22  0  0  1  0  0  0  0  0999 V2000
   15.9766  -10.4551  -17.0371 N   0  0  0  0  0  0  0  0  0  0  0  0
   16.0746  -11.7138  -16.3446 C   0  0  0  0  0  0  0  0  0  0  0  0
   15.0549  -12.4272  -16.3875 O   0  0  0  0  0  0  0  0  0  0  0  0
   17.3097  -12.0670  -15.6572 C   0  0  0  0  0  0  0  0  0  0  0  0
   18.3628  -11.0283  -15.8058 C   0  0  0  0  0  0  0  0  0  0  0  0
   19.2917  -11.2242  -16.9476 C   0  0  2  0  0  0  0  0  0  0  0  0
   19.9655  -12.4608  -17.0648 N   0  0  0  0  0  0  0  0  0  0  0  0
   20.2902  -10.1096  -16.8986 C   0  0  0  0  0  0  0  0  0  0  0  0
   21.4715  -10.3053  -16.4932 O   0  0  0  0  0  0  0  0  0  0  0  0
   19.9184   -8.8358  -17.3028 N   0  0  0  0  0  0  0  0  0  0  0  0
   20.8528   -7.6765  -17.3173 C   0  0  1  0  0  0  0  0  0  0  0  0
   20.4123   -6.8761  -18.4952 C   0  0  0  0  0  0  0  0  0  0  0  0
   21.0633   -5.5491  -18.7075 C   0  0  0  0  0  0  0  0  0  0  0  0
   20.5199   -4.8994  -19.9111 C   0  0  0  0  0  0  0  0  0  0  0  0
   19.2764   -4.7215  -20.0032 O   0  0  0  0  0  0  0  0  0  0  0  0
   20.8802   -7.0601  -16.0036 C   0  0  0  0  0  0  0  0  0  0  0  0
   19.7870   -6.7178  -15.4294 O   0  0  0  0  0  0  0  0  0  0  0  0
   21.3284   -4.4815  -20.9367 O   0  0  0  0  0  0  0  0  0  0  0  0
   22.0554   -6.7859  -15.2572 N   0  0  0  0  0  0  0  0  0  0  0  0
   22.0512   -6.1399  -13.9579 C   0  0  0  0  0  0  0  0  0  0  0  0
   21.8563   -7.1332  -12.8893 C   0  0  0  0  0  0  0  0  0  0  0  0
   21.5389   -8.3253  -13.1148 O   0  0  0  0  0  0  0  0  0  0  0  0
   22.0309   -6.7362  -11.5773 O   0  0  0  0  0  0  0  0  0  0  0  0
  2  1  1  0
  2  3  2  0
  4  2  1  0
  5  4  1  0
  6  5  1  0
  6  7  1  1
  8  6  1  0
  8 10  1  0
  9  8  2  0
 11 10  1  0
 11 12  1  6
 12 13  1  0
 13 14  1  0
 14 15  2  0
 16 11  1  0
 17 16  2  0
 18 14  1  0
 19 16  1  0
 20 21  1  0
 20 19  1  0
 21 23  1  0
 22 21  2  0
M  END
$$$$
