QEG.pdb
     RDKit          3D

 23 22  0  0  1  0  0  0  0  0999 V2000
   19.8901  -14.7835  -16.6734 N   0  0  0  0  0  0  0  0  0  0  0  0
   18.5396  -14.4541  -17.0492 C   0  0  0  0  0  0  0  0  0  0  0  0
   17.9374  -15.3300  -17.6977 O   0  0  0  0  0  0  0  0  0  0  0  0
   17.9767  -13.1653  -16.6683 C   0  0  0  0  0  0  0  0  0  0  0  0
   18.9147  -12.3520  -15.8506 C   0  0  0  0  0  0  0  0  0  0  0  0
   18.4337  -10.9925  -15.4962 C   0  0  2  0  0  0  0  0  0  0  0  0
   17.3457  -10.4522  -16.2180 N   0  0  0  0  0  0  0  0  0  0  0  0
   19.6096  -10.0707  -15.5932 C   0  0  0  0  0  0  0  0  0  0  0  0
   20.6901  -10.3207  -14.9864 O   0  0  0  0  0  0  0  0  0  0  0  0
   19.5181   -8.9186  -16.3601 N   0  0  0  0  0  0  0  0  0  0  0  0
   20.6140   -7.9160  -16.4648 C   0  0  1  0  0  0  0  0  0  0  0  0
   20.8211   -7.7636  -17.9331 C   0  0  0  0  0  0  0  0  0  0  0  0
   21.7413   -6.6796  -18.3892 C   0  0  0  0  0  0  0  0  0  0  0  0
   21.7824   -6.6284  -19.8595 C   0  0  0  0  0  0  0  0  0  0  0  0
   21.1747   -5.7015  -20.4578 O   0  0  0  0  0  0  0  0  0  0  0  0
   20.2829   -6.7512  -15.6646 C   0  0  0  0  0  0  0  0  0  0  0  0
   19.0656   -6.3640  -15.5630 O   0  0  0  0  0  0  0  0  0  0  0  0
   22.4635   -7.5613  -20.5984 O   0  0  0  0  0  0  0  0  0  0  0  0
   21.2200   -5.9612  -14.9499 N   0  0  0  0  0  0  0  0  0  0  0  0
   20.8738   -4.7381  -14.2500 C   0  0  0  0  0  0  0  0  0  0  0  0
   22.0294   -4.2343  -13.4904 C   0  0  0  0  0  0  0  0  0  0  0  0
   23.1087   -4.8652  -13.3909 O   0  0  0  0  0  0  0  0  0  0  0  0
   21.9226   -3.0105  -12.8577 O   0  0  0  0  0  0  0  0  0  0  0  0
  2  1  1  0
  2  3  2  0
  4  2  1  0
  5  4  1  0
  6  5  1  0
  6  7  1  6
  8  6  1  0
  8 10  1  0
  9  8  2  0
 11 10  1  0
 11 12  1  6
 12 13  1  0
 13 14  1  0
 14 15  2  0
 16 11  1  0
 17 16  2  0
 18 14  1  0
 19 16  1  0
 20 21  1  0
 20 19  1  0
 21 23  1  0
 22 21  2  0
M  END
$$$$
