QEG.pdb
     RDKit          3D

 23 22  0  0  1  0  0  0  0  0999 V2000
   27.4846  -10.3112  -15.9688 N   0  0  0  0  0  0  0  0  0  0  0  0
   27.0480  -11.6818  -16.0356 C   0  0  0  0  0  0  0  0  0  0  0  0
   27.9430  -12.5348  -15.8874 O   0  0  0  0  0  0  0  0  0  0  0  0
   25.6413  -11.9824  -16.2670 C   0  0  0  0  0  0  0  0  0  0  0  0
   24.7993  -10.7590  -16.3313 C   0  0  0  0  0  0  0  0  0  0  0  0
   23.3440  -10.9978  -16.5047 C   0  0  2  0  0  0  0  0  0  0  0  0
   22.9228  -11.8985  -17.5087 N   0  0  0  0  0  0  0  0  0  0  0  0
   22.7022   -9.6631  -16.7244 C   0  0  0  0  0  0  0  0  0  0  0  0
   22.7927   -9.0674  -17.8358 O   0  0  0  0  0  0  0  0  0  0  0  0
   21.9950   -9.0626  -15.6933 N   0  0  0  0  0  0  0  0  0  0  0  0
   21.2328   -7.7936  -15.8541 C   0  0  1  0  0  0  0  0  0  0  0  0
   19.8120   -8.2023  -15.6630 C   0  0  0  0  0  0  0  0  0  0  0  0
   19.1722   -8.9971  -16.7533 C   0  0  0  0  0  0  0  0  0  0  0  0
   17.7528   -9.2363  -16.4467 C   0  0  0  0  0  0  0  0  0  0  0  0
   17.4337  -10.2523  -15.7742 O   0  0  0  0  0  0  0  0  0  0  0  0
   21.8050   -6.7728  -14.9956 C   0  0  0  0  0  0  0  0  0  0  0  0
   22.1326   -7.0548  -13.7893 O   0  0  0  0  0  0  0  0  0  0  0  0
   16.7660   -8.3846  -16.8722 O   0  0  0  0  0  0  0  0  0  0  0  0
   22.0484   -5.4287  -15.3794 N   0  0  0  0  0  0  0  0  0  0  0  0
   22.4721   -4.3922  -14.4564 C   0  0  0  0  0  0  0  0  0  0  0  0
   21.3262   -3.8962  -13.6773 C   0  0  0  0  0  0  0  0  0  0  0  0
   20.1710   -4.3729  -13.7830 O   0  0  0  0  0  0  0  0  0  0  0  0
   21.5303   -2.8583  -12.7882 O   0  0  0  0  0  0  0  0  0  0  0  0
  2  1  1  0
  2  3  2  0
  4  2  1  0
  5  4  1  0
  6  5  1  0
  6  7  1  6
  8  6  1  0
  8 10  1  0
  9  8  2  0
 11 10  1  0
 11 12  1  1
 12 13  1  0
 13 14  1  0
 14 15  2  0
 16 11  1  0
 17 16  2  0
 18 14  1  0
 19 16  1  0
 20 21  1  0
 20 19  1  0
 21 23  1  0
 22 21  2  0
M  END
$$$$
