QEG.pdb
     RDKit          3D

 23 22  0  0  1  0  0  0  0  0999 V2000
   17.2505  -12.5120  -14.6631 N   0  0  0  0  0  0  0  0  0  0  0  0
   17.3407  -12.9192  -16.0414 C   0  0  0  0  0  0  0  0  0  0  0  0
   16.5077  -13.7719  -16.4016 O   0  0  0  0  0  0  0  0  0  0  0  0
   18.3621  -12.3374  -16.9021 C   0  0  0  0  0  0  0  0  0  0  0  0
   19.2941  -11.4475  -16.1608 C   0  0  0  0  0  0  0  0  0  0  0  0
   20.7235  -11.5618  -16.5466 C   0  0  2  0  0  0  0  0  0  0  0  0
   21.3460  -12.8276  -16.4621 N   0  0  0  0  0  0  0  0  0  0  0  0
   21.4829  -10.5712  -15.7198 C   0  0  0  0  0  0  0  0  0  0  0  0
   21.5269  -10.6660  -14.4599 O   0  0  0  0  0  0  0  0  0  0  0  0
   22.1516   -9.5267  -16.3411 N   0  0  0  0  0  0  0  0  0  0  0  0
   23.0400   -8.5772  -15.6157 C   0  0  1  0  0  0  0  0  0  0  0  0
   24.4117   -8.9662  -16.0510 C   0  0  0  0  0  0  0  0  0  0  0  0
   25.0168  -10.1761  -15.4188 C   0  0  0  0  0  0  0  0  0  0  0  0
   26.3949  -10.3687  -15.8981 C   0  0  0  0  0  0  0  0  0  0  0  0
   26.8443   -9.6065  -16.7945 O   0  0  0  0  0  0  0  0  0  0  0  0
   22.5786   -7.2186  -15.8347 C   0  0  0  0  0  0  0  0  0  0  0  0
   22.1349   -6.8662  -16.9840 O   0  0  0  0  0  0  0  0  0  0  0  0
   27.2053  -11.3549  -15.3972 O   0  0  0  0  0  0  0  0  0  0  0  0
   22.5707   -6.1934  -14.8539 N   0  0  0  0  0  0  0  0  0  0  0  0
   22.0433   -4.8616  -15.0860 C   0  0  0  0  0  0  0  0  0  0  0  0
   22.0149   -4.0927  -13.8313 C   0  0  0  0  0  0  0  0  0  0  0  0
   22.3548   -4.5774  -12.7257 O   0  0  0  0  0  0  0  0  0  0  0  0
   21.5951   -2.7768  -13.8711 O   0  0  0  0  0  0  0  0  0  0  0  0
  2  1  1  0
  2  3  2  0
  4  2  1  0
  5  4  1  0
  6  5  1  0
  6  7  1  1
  8  6  1  0
  8 10  1  0
  9  8  2  0
 11 10  1  0
 11 12  1  6
 12 13  1  0
 13 14  1  0
 14 15  2  0
 16 11  1  0
 17 16  2  0
 18 14  1  0
 19 16  1  0
 20 21  1  0
 20 19  1  0
 21 23  1  0
 22 21  2  0
M  END
$$$$
