QEG.pdb
     RDKit          3D

 23 22  0  0  1  0  0  0  0  0999 V2000
   15.6416   -5.1323   -8.3372 N   0  0  0  0  0  0  0  0  0  0  0  0
   14.4115   -5.7856   -8.7025 C   0  0  0  0  0  0  0  0  0  0  0  0
   13.3722   -5.2302   -8.3000 O   0  0  0  0  0  0  0  0  0  0  0  0
   14.4495   -7.0123   -9.4879 C   0  0  0  0  0  0  0  0  0  0  0  0
   15.8358   -7.4878   -9.7371 C   0  0  0  0  0  0  0  0  0  0  0  0
   15.9502   -8.6799  -10.6149 C   0  0  2  0  0  0  0  0  0  0  0  0
   15.4904   -9.9239  -10.1271 N   0  0  0  0  0  0  0  0  0  0  0  0
   17.3887   -8.7962  -11.0135 C   0  0  0  0  0  0  0  0  0  0  0  0
   18.2353   -9.3535  -10.2578 O   0  0  0  0  0  0  0  0  0  0  0  0
   17.8075   -8.2838  -12.2326 N   0  0  0  0  0  0  0  0  0  0  0  0
   19.1643   -8.5221  -12.7978 C   0  0  1  0  0  0  0  0  0  0  0  0
   19.0082   -9.7769  -13.5875 C   0  0  0  0  0  0  0  0  0  0  0  0
   17.9566   -9.7962  -14.6475 C   0  0  0  0  0  0  0  0  0  0  0  0
   18.0514  -11.0330  -15.4396 C   0  0  0  0  0  0  0  0  0  0  0  0
   18.5108  -10.9770  -16.6110 O   0  0  0  0  0  0  0  0  0  0  0  0
   19.6334   -7.3166  -13.4561 C   0  0  0  0  0  0  0  0  0  0  0  0
   18.8072   -6.5571  -14.0747 O   0  0  0  0  0  0  0  0  0  0  0  0
   17.6537  -12.2462  -14.9394 O   0  0  0  0  0  0  0  0  0  0  0  0
   20.9818   -6.8759  -13.4834 N   0  0  0  0  0  0  0  0  0  0  0  0
   21.4263   -5.6884  -14.1891 C   0  0  0  0  0  0  0  0  0  0  0  0
   21.1199   -4.4795  -13.4073 C   0  0  0  0  0  0  0  0  0  0  0  0
   20.5089   -4.5110  -12.3126 O   0  0  0  0  0  0  0  0  0  0  0  0
   21.5231   -3.2532  -13.9001 O   0  0  0  0  0  0  0  0  0  0  0  0
  2  1  1  0
  2  3  2  0
  4  2  1  0
  5  4  1  0
  6  5  1  0
  6  7  1  1
  8  6  1  0
  8 10  1  0
  9  8  2  0
 11 10  1  0
 11 12  1  6
 12 13  1  0
 13 14  1  0
 14 15  2  0
 16 11  1  0
 17 16  2  0
 18 14  1  0
 19 16  1  0
 20 21  1  0
 20 19  1  0
 21 23  1  0
 22 21  2  0
M  END
$$$$
