YSM.pdb
     RDKit          3D

 27 27  0  0  1  0  0  0  0  0999 V2000
    4.6861  -10.5818   27.1825 O   0  0  0  0  0  0  0  0  0  0  0  0
    5.4813  -11.5408   26.5241 C   0  0  0  0  0  0  0  0  0  0  0  0
    6.8094  -11.3043   26.2372 C   0  0  0  0  0  0  0  0  0  0  0  0
    7.5600  -12.2719   25.5882 C   0  0  0  0  0  0  0  0  0  0  0  0
    7.0254  -13.4850   25.2094 C   0  0  0  0  0  0  0  0  0  0  0  0
    7.8856  -14.4448   24.5307 C   0  0  0  0  0  0  0  0  0  0  0  0
    7.2471  -15.7789   24.2745 C   0  0  2  0  0  0  0  0  0  0  0  0
    6.8449  -16.3429   25.5495 N   0  0  0  0  0  0  0  0  0  0  0  0
    8.2914  -16.6839   23.6781 C   0  0  0  0  0  0  0  0  0  0  0  0
    8.7227  -17.6926   24.2935 O   0  0  0  0  0  0  0  0  0  0  0  0
    5.6986  -13.7322   25.4914 C   0  0  0  0  0  0  0  0  0  0  0  0
    4.9636  -12.7553   26.1399 C   0  0  0  0  0  0  0  0  0  0  0  0
   10.0682  -15.2895   20.4067 O   0  0  0  0  0  0  0  0  0  0  0  0
   10.1710  -16.6734   20.3972 C   0  0  0  0  0  0  0  0  0  0  0  0
    9.9056  -17.2315   21.8016 C   0  0  2  0  0  0  0  0  0  0  0  0
    8.8285  -16.4201   22.3814 N   0  0  0  0  0  0  0  0  0  0  0  0
   11.1368  -16.9742   22.5920 C   0  0  0  0  0  0  0  0  0  0  0  0
   11.8175  -15.9076   22.4233 O   0  0  0  0  0  0  0  0  0  0  0  0
   10.6190  -14.4741   29.2466 C   0  0  0  0  0  0  0  0  0  0  0  0
   10.1592  -15.0766   27.6173 S   0  0  0  0  0  0  0  0  0  0  0  0
   11.4291  -16.0900   26.8668 C   0  0  0  0  0  0  0  0  0  0  0  0
   11.1754  -16.5336   25.4873 C   0  0  0  0  0  0  0  0  0  0  0  0
   12.2139  -17.3790   24.8266 C   0  0  2  0  0  0  0  0  0  0  0  0
   11.6153  -17.8749   23.5544 N   0  0  0  0  0  0  0  0  0  0  0  0
   12.6652  -18.5608   25.5471 C   0  0  0  0  0  0  0  0  0  0  0  0
   12.1703  -19.8369   25.3382 O   0  0  0  0  0  0  0  0  0  0  0  0
   13.5744  -18.4545   26.4459 O   0  0  0  0  0  0  0  0  0  0  0  0
  1  2  1  0
  2  3  2  0
  3  4  1  0
  5  6  1  0
  5  4  2  0
  6  7  1  0
  7  8  1  1
  7  9  1  0
  9 16  1  0
  9 10  2  0
 11  5  1  0
 12 11  2  0
 12  2  1  0
 14 13  1  0
 15 14  1  6
 16 15  1  0
 17 15  1  0
 17 18  2  0
 19 20  1  0
 20 21  1  0
 21 22  1  0
 23 22  1  1
 23 24  1  0
 24 17  1  0
 25 23  1  0
 26 25  1  0
 27 25  2  0
M  END
$$$$
