YSM.pdb
     RDKit          3D

 27 27  0  0  1  0  0  0  0  0999 V2000
    7.7119  -11.5872   17.2630 O   0  0  0  0  0  0  0  0  0  0  0  0
    7.8052  -12.5496   18.2880 C   0  0  0  0  0  0  0  0  0  0  0  0
    9.0239  -13.0299   18.7194 C   0  0  0  0  0  0  0  0  0  0  0  0
    9.0759  -13.9766   19.7304 C   0  0  0  0  0  0  0  0  0  0  0  0
    7.9390  -14.4687   20.3353 C   0  0  0  0  0  0  0  0  0  0  0  0
    8.0847  -15.4631   21.3898 C   0  0  0  0  0  0  0  0  0  0  0  0
    8.4428  -16.8370   20.9028 C   0  0  2  0  0  0  0  0  0  0  0  0
    7.2871  -17.3952   20.2260 N   0  0  0  0  0  0  0  0  0  0  0  0
    8.7309  -17.6932   22.1067 C   0  0  0  0  0  0  0  0  0  0  0  0
    7.8100  -18.2445   22.7627 O   0  0  0  0  0  0  0  0  0  0  0  0
    6.7152  -13.9955   19.9119 C   0  0  0  0  0  0  0  0  0  0  0  0
    6.6812  -13.0504   18.9015 C   0  0  0  0  0  0  0  0  0  0  0  0
   12.5750  -18.7636   22.8191 O   0  0  0  0  0  0  0  0  0  0  0  0
   11.6112  -19.4992   23.4943 C   0  0  0  0  0  0  0  0  0  0  0  0
   10.3869  -18.6217   23.7868 C   0  0  2  0  0  0  0  0  0  0  0  0
   10.0737  -17.9068   22.5435 N   0  0  0  0  0  0  0  0  0  0  0  0
   10.8256  -17.6138   24.7860 C   0  0  0  0  0  0  0  0  0  0  0  0
   11.5947  -16.6499   24.4561 O   0  0  0  0  0  0  0  0  0  0  0  0
    8.9955  -11.7842   29.0306 C   0  0  0  0  0  0  0  0  0  0  0  0
    8.6615  -13.1852   27.9560 S   0  0  0  0  0  0  0  0  0  0  0  0
    9.9570  -14.4192   27.9996 C   0  0  0  0  0  0  0  0  0  0  0  0
    9.8045  -15.5542   27.0761 C   0  0  0  0  0  0  0  0  0  0  0  0
   10.8620  -16.6084   27.0893 C   0  0  2  0  0  0  0  0  0  0  0  0
   10.4264  -17.6627   26.1294 N   0  0  0  0  0  0  0  0  0  0  0  0
   11.1049  -17.2895   28.3529 C   0  0  0  0  0  0  0  0  0  0  0  0
   11.9350  -16.8075   29.3507 O   0  0  0  0  0  0  0  0  0  0  0  0
   10.5367  -18.4142   28.5936 O   0  0  0  0  0  0  0  0  0  0  0  0
  1  2  1  0
  2  3  2  0
  3  4  1  0
  5  6  1  0
  5  4  2  0
  6  7  1  0
  7  8  1  1
  7  9  1  0
  9 16  1  0
  9 10  2  0
 11  5  1  0
 12 11  2  0
 12  2  1  0
 14 13  1  0
 15 14  1  6
 16 15  1  0
 17 15  1  0
 17 18  2  0
 19 20  1  0
 20 21  1  0
 21 22  1  0
 23 22  1  1
 23 24  1  0
 24 17  1  0
 25 23  1  0
 26 25  1  0
 27 25  2  0
M  END
$$$$
