YSM.pdb
     RDKit          3D

 27 27  0  0  1  0  0  0  0  0999 V2000
    9.0773  -11.8593   17.7482 O   0  0  0  0  0  0  0  0  0  0  0  0
    8.4424  -12.7161   18.6692 C   0  0  0  0  0  0  0  0  0  0  0  0
    7.5402  -13.6757   18.2600 C   0  0  0  0  0  0  0  0  0  0  0  0
    6.9356  -14.5005   19.1955 C   0  0  0  0  0  0  0  0  0  0  0  0
    7.2025  -14.4010   20.5445 C   0  0  0  0  0  0  0  0  0  0  0  0
    6.5216  -15.3076   21.4589 C   0  0  0  0  0  0  0  0  0  0  0  0
    6.9637  -16.7386   21.3589 C   0  0  2  0  0  0  0  0  0  0  0  0
    5.7829  -17.5710   21.2237 N   0  0  0  0  0  0  0  0  0  0  0  0
    7.6407  -17.1043   22.6524 C   0  0  0  0  0  0  0  0  0  0  0  0
    6.9941  -17.2400   23.7228 O   0  0  0  0  0  0  0  0  0  0  0  0
    8.1029  -13.4451   20.9647 C   0  0  0  0  0  0  0  0  0  0  0  0
    8.6975  -12.6299   20.0176 C   0  0  0  0  0  0  0  0  0  0  0  0
   11.8409  -17.0354   22.9304 O   0  0  0  0  0  0  0  0  0  0  0  0
   11.1695  -18.0702   23.5662 C   0  0  0  0  0  0  0  0  0  0  0  0
    9.7543  -17.6213   23.9535 C   0  0  2  0  0  0  0  0  0  0  0  0
    9.0530  -17.3104   22.7019 N   0  0  0  0  0  0  0  0  0  0  0  0
    9.9116  -16.3510   24.7074 C   0  0  0  0  0  0  0  0  0  0  0  0
    9.8946  -15.2232   24.1097 O   0  0  0  0  0  0  0  0  0  0  0  0
    6.2522  -11.2663   28.2429 C   0  0  0  0  0  0  0  0  0  0  0  0
    6.6401  -12.6698   27.1899 S   0  0  0  0  0  0  0  0  0  0  0  0
    8.2901  -13.3077   27.4614 C   0  0  0  0  0  0  0  0  0  0  0  0
    8.6989  -14.4355   26.6098 C   0  0  0  0  0  0  0  0  0  0  0  0
   10.0526  -15.0234   26.8370 C   0  0  2  0  0  0  0  0  0  0  0  0
   10.0856  -16.3181   26.0985 N   0  0  0  0  0  0  0  0  0  0  0  0
   10.4197  -15.3339   28.2111 C   0  0  0  0  0  0  0  0  0  0  0  0
   10.4111  -16.6089   28.7507 O   0  0  0  0  0  0  0  0  0  0  0  0
   10.7743  -14.3926   29.0074 O   0  0  0  0  0  0  0  0  0  0  0  0
  1  2  1  0
  2  3  2  0
  3  4  1  0
  5  6  1  0
  5  4  2  0
  6  7  1  0
  7  8  1  1
  7  9  1  0
  9 16  1  0
  9 10  2  0
 11  5  1  0
 12 11  2  0
 12  2  1  0
 14 13  1  0
 15 14  1  6
 16 15  1  0
 17 15  1  0
 17 18  2  0
 19 20  1  0
 20 21  1  0
 21 22  1  0
 23 22  1  1
 23 24  1  0
 24 17  1  0
 25 23  1  0
 26 25  1  0
 27 25  2  0
M  END
$$$$
