YSM.pdb
     RDKit          3D

 27 27  0  0  1  0  0  0  0  0999 V2000
    7.4844  -12.3466   16.5218 O   0  0  0  0  0  0  0  0  0  0  0  0
    7.5919  -13.0405   17.7436 C   0  0  0  0  0  0  0  0  0  0  0  0
    8.3862  -12.5759   18.7709 C   0  0  0  0  0  0  0  0  0  0  0  0
    8.4668  -13.2859   19.9585 C   0  0  0  0  0  0  0  0  0  0  0  0
    7.7732  -14.4601   20.1611 C   0  0  0  0  0  0  0  0  0  0  0  0
    7.9161  -15.1427   21.4399 C   0  0  0  0  0  0  0  0  0  0  0  0
    8.5059  -16.5198   21.3466 C   0  0  2  0  0  0  0  0  0  0  0  0
    7.5319  -17.3898   20.7142 N   0  0  0  0  0  0  0  0  0  0  0  0
    8.7321  -17.0214   22.7476 C   0  0  0  0  0  0  0  0  0  0  0  0
    7.7745  -17.2680   23.5251 O   0  0  0  0  0  0  0  0  0  0  0  0
    6.9760  -14.9337   19.1407 C   0  0  0  0  0  0  0  0  0  0  0  0
    6.9069  -14.2126   17.9616 C   0  0  0  0  0  0  0  0  0  0  0  0
   12.6425  -17.4414   24.0906 O   0  0  0  0  0  0  0  0  0  0  0  0
   11.7100  -18.3313   24.6048 C   0  0  0  0  0  0  0  0  0  0  0  0
   10.3161  -17.6897   24.6107 C   0  0  2  0  0  0  0  0  0  0  0  0
   10.0557  -17.2341   23.2397 N   0  0  0  0  0  0  0  0  0  0  0  0
   10.4157  -16.4843   25.4731 C   0  0  0  0  0  0  0  0  0  0  0  0
   10.6648  -15.3359   24.9747 O   0  0  0  0  0  0  0  0  0  0  0  0
    7.6792  -11.3759   26.1195 C   0  0  0  0  0  0  0  0  0  0  0  0
    7.3401  -12.3502   27.5908 S   0  0  0  0  0  0  0  0  0  0  0  0
    8.7484  -13.3172   28.1242 C   0  0  0  0  0  0  0  0  0  0  0  0
    9.0642  -14.5054   27.3161 C   0  0  0  0  0  0  0  0  0  0  0  0
   10.2802  -15.2915   27.6813 C   0  0  2  0  0  0  0  0  0  0  0  0
   10.2446  -16.5378   26.8639 N   0  0  0  0  0  0  0  0  0  0  0  0
   10.4014  -15.7217   29.0668 C   0  0  0  0  0  0  0  0  0  0  0  0
   10.8642  -14.9177   30.0946 O   0  0  0  0  0  0  0  0  0  0  0  0
   10.0741  -16.9174   29.3970 O   0  0  0  0  0  0  0  0  0  0  0  0
  1  2  1  0
  2  3  2  0
  3  4  1  0
  5  6  1  0
  5  4  2  0
  6  7  1  0
  7  8  1  1
  7  9  1  0
  9 16  1  0
  9 10  2  0
 11  5  1  0
 12 11  2  0
 12  2  1  0
 14 13  1  0
 15 14  1  6
 16 15  1  0
 17 15  1  0
 17 18  2  0
 19 20  1  0
 20 21  1  0
 21 22  1  0
 23 22  1  1
 23 24  1  0
 24 17  1  0
 25 23  1  0
 26 25  1  0
 27 25  2  0
M  END
$$$$
