YSM.pdb
     RDKit          3D

 27 27  0  0  1  0  0  0  0  0999 V2000
   11.7275  -19.9809   33.6338 O   0  0  0  0  0  0  0  0  0  0  0  0
   11.5839  -19.7957   32.2443 C   0  0  0  0  0  0  0  0  0  0  0  0
   12.2844  -18.8180   31.5694 C   0  0  0  0  0  0  0  0  0  0  0  0
   12.1169  -18.6660   30.2020 C   0  0  0  0  0  0  0  0  0  0  0  0
   11.2631  -19.4661   29.4729 C   0  0  0  0  0  0  0  0  0  0  0  0
   11.1468  -19.2371   28.0390 C   0  0  0  0  0  0  0  0  0  0  0  0
   11.3948  -20.4524   27.1936 C   0  0  2  0  0  0  0  0  0  0  0  0
   12.6912  -20.9977   27.5505 N   0  0  0  0  0  0  0  0  0  0  0  0
   11.4598  -20.0098   25.7565 C   0  0  0  0  0  0  0  0  0  0  0  0
   12.5561  -19.7854   25.1819 O   0  0  0  0  0  0  0  0  0  0  0  0
   10.5578  -20.4469   30.1375 C   0  0  0  0  0  0  0  0  0  0  0  0
   10.7368  -20.5851   31.5027 C   0  0  0  0  0  0  0  0  0  0  0  0
    7.9341  -19.1589   23.9492 O   0  0  0  0  0  0  0  0  0  0  0  0
    8.8723  -19.6268   23.0401 C   0  0  0  0  0  0  0  0  0  0  0  0
   10.2896  -19.4136   23.5881 C   0  0  2  0  0  0  0  0  0  0  0  0
   10.2649  -19.8303   24.9954 N   0  0  0  0  0  0  0  0  0  0  0  0
   10.5322  -17.9484   23.5578 C   0  0  0  0  0  0  0  0  0  0  0  0
    9.7298  -17.1354   24.1275 O   0  0  0  0  0  0  0  0  0  0  0  0
    9.4588  -13.8290   27.4603 C   0  0  0  0  0  0  0  0  0  0  0  0
   10.9852  -14.4360   26.7320 S   0  0  0  0  0  0  0  0  0  0  0  0
   10.7750  -15.0008   25.0468 C   0  0  0  0  0  0  0  0  0  0  0  0
   11.9784  -15.5252   24.3825 C   0  0  0  0  0  0  0  0  0  0  0  0
   11.8669  -15.9090   22.9437 C   0  0  2  0  0  0  0  0  0  0  0  0
   11.6401  -17.3822   22.9108 N   0  0  0  0  0  0  0  0  0  0  0  0
   13.0261  -15.6609   22.0985 C   0  0  0  0  0  0  0  0  0  0  0  0
   13.2756  -14.4631   21.4505 O   0  0  0  0  0  0  0  0  0  0  0  0
   13.8928  -16.5882   21.9120 O   0  0  0  0  0  0  0  0  0  0  0  0
  1  2  1  0
  2  3  2  0
  3  4  1  0
  5  6  1  0
  5  4  2  0
  6  7  1  0
  7  8  1  1
  7  9  1  0
  9 16  1  0
  9 10  2  0
 11  5  1  0
 12 11  2  0
 12  2  1  0
 14 13  1  0
 15 14  1  1
 16 15  1  0
 17 15  1  0
 17 18  2  0
 19 20  1  0
 20 21  1  0
 21 22  1  0
 23 22  1  1
 23 24  1  0
 24 17  1  0
 25 23  1  0
 26 25  1  0
 27 25  2  0
M  END
$$$$
