YSM.pdb
     RDKit          3D

 27 27  0  0  1  0  0  0  0  0999 V2000
   -0.0210  -20.1752   22.1121 O   0  0  0  0  0  0  0  0  0  0  0  0
    1.2987  -19.6815   22.1255 C   0  0  0  0  0  0  0  0  0  0  0  0
    2.2143  -20.0926   23.0714 C   0  0  0  0  0  0  0  0  0  0  0  0
    3.5038  -19.5846   23.0526 C   0  0  0  0  0  0  0  0  0  0  0  0
    3.9187  -18.6677   22.1103 C   0  0  0  0  0  0  0  0  0  0  0  0
    5.2920  -18.1850   22.1643 C   0  0  0  0  0  0  0  0  0  0  0  0
    6.0639  -18.3639   20.8894 C   0  0  2  0  0  0  0  0  0  0  0  0
    6.0915  -19.7788   20.5692 N   0  0  0  0  0  0  0  0  0  0  0  0
    7.4799  -17.9197   21.1406 C   0  0  0  0  0  0  0  0  0  0  0  0
    8.3887  -18.7388   21.4326 O   0  0  0  0  0  0  0  0  0  0  0  0
    3.0114  -18.2498   21.1599 C   0  0  0  0  0  0  0  0  0  0  0  0
    1.7283  -18.7670   21.1930 C   0  0  0  0  0  0  0  0  0  0  0  0
    8.3281  -13.9570   20.4540 O   0  0  0  0  0  0  0  0  0  0  0  0
    9.3138  -14.8776   20.1272 C   0  0  0  0  0  0  0  0  0  0  0  0
    9.2337  -16.0907   21.0633 C   0  0  2  0  0  0  0  0  0  0  0  0
    7.8361  -16.5395   21.0535 N   0  0  0  0  0  0  0  0  0  0  0  0
    9.5334  -15.5851   22.4275 C   0  0  0  0  0  0  0  0  0  0  0  0
   10.0602  -14.4358   22.6036 O   0  0  0  0  0  0  0  0  0  0  0  0
    6.6168  -11.4677   27.3705 C   0  0  0  0  0  0  0  0  0  0  0  0
    6.9241  -12.3319   25.8253 S   0  0  0  0  0  0  0  0  0  0  0  0
    7.9873  -13.7575   26.0255 C   0  0  0  0  0  0  0  0  0  0  0  0
    8.3438  -14.4801   24.7946 C   0  0  0  0  0  0  0  0  0  0  0  0
    9.2328  -15.6732   24.9214 C   0  0  2  0  0  0  0  0  0  0  0  0
    9.2594  -16.3303   23.5834 N   0  0  0  0  0  0  0  0  0  0  0  0
    8.8307  -16.7033   25.8683 C   0  0  0  0  0  0  0  0  0  0  0  0
    9.3486  -16.8322   27.1458 O   0  0  0  0  0  0  0  0  0  0  0  0
    7.9463  -17.5704   25.5339 O   0  0  0  0  0  0  0  0  0  0  0  0
  1  2  1  0
  2  3  2  0
  3  4  1  0
  5  6  1  0
  5  4  2  0
  6  7  1  0
  7  8  1  1
  7  9  1  0
  9 16  1  0
  9 10  2  0
 11  5  1  0
 12 11  2  0
 12  2  1  0
 14 13  1  0
 15 14  1  6
 16 15  1  0
 17 15  1  0
 17 18  2  0
 19 20  1  0
 20 21  1  0
 21 22  1  0
 23 22  1  6
 23 24  1  0
 24 17  1  0
 25 23  1  0
 26 25  1  0
 27 25  2  0
M  END
$$$$
