YSM.pdb
     RDKit          3D

 27 27  0  0  1  0  0  0  0  0999 V2000
    7.6407  -12.7778   15.7725 O   0  0  0  0  0  0  0  0  0  0  0  0
    7.8176  -13.3275   17.0578 C   0  0  0  0  0  0  0  0  0  0  0  0
    9.0046  -13.9212   17.4327 C   0  0  0  0  0  0  0  0  0  0  0  0
    9.1413  -14.4511   18.7061 C   0  0  0  0  0  0  0  0  0  0  0  0
    8.1212  -14.4093   19.6327 C   0  0  0  0  0  0  0  0  0  0  0  0
    8.3500  -14.9911   20.9484 C   0  0  0  0  0  0  0  0  0  0  0  0
    8.6063  -16.4700   20.9377 C   0  0  2  0  0  0  0  0  0  0  0  0
    7.4322  -17.1312   20.3995 N   0  0  0  0  0  0  0  0  0  0  0  0
    8.7762  -16.9196   22.3640 C   0  0  0  0  0  0  0  0  0  0  0  0
    7.8047  -16.9740   23.1612 O   0  0  0  0  0  0  0  0  0  0  0  0
    6.9301  -13.8180   19.2686 C   0  0  0  0  0  0  0  0  0  0  0  0
    6.8105  -13.2940   17.9934 C   0  0  0  0  0  0  0  0  0  0  0  0
   12.6318  -17.5787   23.8894 O   0  0  0  0  0  0  0  0  0  0  0  0
   11.6246  -18.4450   24.2904 C   0  0  0  0  0  0  0  0  0  0  0  0
   10.2669  -17.7314   24.2471 C   0  0  2  0  0  0  0  0  0  0  0  0
   10.0602  -17.3020   22.8587 N   0  0  0  0  0  0  0  0  0  0  0  0
   10.4119  -16.5089   25.0783 C   0  0  0  0  0  0  0  0  0  0  0  0
   10.5578  -15.3601   24.5413 O   0  0  0  0  0  0  0  0  0  0  0  0
    6.7727  -11.0541   27.6967 C   0  0  0  0  0  0  0  0  0  0  0  0
    7.2608  -12.4744   26.7100 S   0  0  0  0  0  0  0  0  0  0  0  0
    8.3309  -13.6022   27.5965 C   0  0  0  0  0  0  0  0  0  0  0  0
    8.8935  -14.7140   26.8144 C   0  0  0  0  0  0  0  0  0  0  0  0
   10.1900  -15.2984   27.2699 C   0  0  2  0  0  0  0  0  0  0  0  0
   10.3974  -16.5458   26.4801 N   0  0  0  0  0  0  0  0  0  0  0  0
   10.2880  -15.6868   28.6696 C   0  0  0  0  0  0  0  0  0  0  0  0
   10.7380  -14.8536   29.6796 O   0  0  0  0  0  0  0  0  0  0  0  0
    9.9508  -16.8708   29.0307 O   0  0  0  0  0  0  0  0  0  0  0  0
  1  2  1  0
  2  3  2  0
  3  4  1  0
  5  6  1  0
  5  4  2  0
  6  7  1  0
  7  8  1  1
  7  9  1  0
  9 16  1  0
  9 10  2  0
 11  5  1  0
 12 11  2  0
 12  2  1  0
 14 13  1  0
 15 14  1  6
 16 15  1  0
 17 15  1  0
 17 18  2  0
 19 20  1  0
 20 21  1  0
 21 22  1  0
 23 22  1  1
 23 24  1  0
 24 17  1  0
 25 23  1  0
 26 25  1  0
 27 25  2  0
M  END
$$$$
