YSM.pdb
     RDKit          3D

 27 27  0  0  1  0  0  0  0  0999 V2000
    9.3860  -19.6863   30.1906 O   0  0  0  0  0  0  0  0  0  0  0  0
    8.6149  -19.6073   29.0139 C   0  0  0  0  0  0  0  0  0  0  0  0
    8.4231  -18.4113   28.3546 C   0  0  0  0  0  0  0  0  0  0  0  0
    7.6580  -18.3729   27.1995 C   0  0  0  0  0  0  0  0  0  0  0  0
    7.0687  -19.5016   26.6707 C   0  0  0  0  0  0  0  0  0  0  0  0
    6.2800  -19.3712   25.4530 C   0  0  0  0  0  0  0  0  0  0  0  0
    6.7581  -20.2178   24.3094 C   0  0  2  0  0  0  0  0  0  0  0  0
    7.7130  -21.1811   24.8249 N   0  0  0  0  0  0  0  0  0  0  0  0
    7.4833  -19.3209   23.3424 C   0  0  0  0  0  0  0  0  0  0  0  0
    8.7391  -19.2539   23.3160 O   0  0  0  0  0  0  0  0  0  0  0  0
    7.2540  -20.7028   27.3217 C   0  0  0  0  0  0  0  0  0  0  0  0
    8.0206  -20.7233   28.4736 C   0  0  0  0  0  0  0  0  0  0  0  0
    5.0578  -16.8428   21.1631 O   0  0  0  0  0  0  0  0  0  0  0  0
    6.3757  -16.8354   20.7284 C   0  0  0  0  0  0  0  0  0  0  0  0
    7.3092  -17.2665   21.8673 C   0  0  2  0  0  0  0  0  0  0  0  0
    6.7578  -18.5112   22.4164 N   0  0  0  0  0  0  0  0  0  0  0  0
    7.1943  -16.2227   22.9180 C   0  0  0  0  0  0  0  0  0  0  0  0
    6.2914  -16.2895   23.8178 O   0  0  0  0  0  0  0  0  0  0  0  0
    7.0017  -11.7395   28.3817 C   0  0  0  0  0  0  0  0  0  0  0  0
    7.0054  -12.2252   26.6517 S   0  0  0  0  0  0  0  0  0  0  0  0
    7.0207  -14.0008   26.4281 C   0  0  0  0  0  0  0  0  0  0  0  0
    7.0139  -14.4805   25.0373 C   0  0  0  0  0  0  0  0  0  0  0  0
    8.2945  -14.4135   24.2724 C   0  0  2  0  0  0  0  0  0  0  0  0
    8.0582  -15.1198   22.9808 N   0  0  0  0  0  0  0  0  0  0  0  0
    9.4598  -15.0482   24.8713 C   0  0  0  0  0  0  0  0  0  0  0  0
   10.7612  -14.6083   24.6992 O   0  0  0  0  0  0  0  0  0  0  0  0
    9.3145  -16.0883   25.6082 O   0  0  0  0  0  0  0  0  0  0  0  0
  1  2  1  0
  2  3  2  0
  3  4  1  0
  5  6  1  0
  5  4  2  0
  6  7  1  0
  7  8  1  1
  7  9  1  0
  9 16  1  0
  9 10  2  0
 11  5  1  0
 12 11  2  0
 12  2  1  0
 14 13  1  0
 15 14  1  6
 16 15  1  0
 17 15  1  0
 17 18  2  0
 19 20  1  0
 20 21  1  0
 21 22  1  0
 23 22  1  1
 23 24  1  0
 24 17  1  0
 25 23  1  0
 26 25  1  0
 27 25  2  0
M  END
$$$$
