QFC.pdb
     RDKit          3D

 27 27  0  0  1  0  0  0  0  0999 V2000
   19.4494  -25.0302   -8.8861 N   0  0  0  0  0  0  0  0  0  0  0  0
   18.6598  -24.6692  -10.0027 C   0  0  0  0  0  0  0  0  0  0  0  0
   19.2253  -24.5562  -11.1118 O   0  0  0  0  0  0  0  0  0  0  0  0
   17.2288  -24.4488   -9.8043 C   0  0  0  0  0  0  0  0  0  0  0  0
   16.7224  -24.6825   -8.4069 C   0  0  0  0  0  0  0  0  0  0  0  0
   16.4474  -26.1519   -8.2287 C   0  0  2  0  0  0  0  0  0  0  0  0
   15.2050  -26.4230   -8.9275 N   0  0  0  0  0  0  0  0  0  0  0  0
   16.2546  -26.5229   -6.8056 C   0  0  0  0  0  0  0  0  0  0  0  0
   15.0882  -26.5320   -6.3588 O   0  0  0  0  0  0  0  0  0  0  0  0
   17.3230  -26.8633   -5.9429 N   0  0  0  0  0  0  0  0  0  0  0  0
   17.1322  -27.0229   -4.5212 C   0  0  1  0  0  0  0  0  0  0  0  0
   18.3354  -27.6680   -3.8654 C   0  0  0  0  0  0  0  0  0  0  0  0
   18.1219  -27.8565   -2.4131 C   0  0  0  0  0  0  0  0  0  0  0  0
   18.7375  -27.0002   -1.5336 C   0  0  0  0  0  0  0  0  0  0  0  0
   18.5276  -27.2021   -0.1704 C   0  0  0  0  0  0  0  0  0  0  0  0
   17.7296  -28.2255    0.2837 C   0  0  0  0  0  0  0  0  0  0  0  0
   17.1198  -29.0743   -0.6086 C   0  0  0  0  0  0  0  0  0  0  0  0
   17.3197  -28.8855   -1.9663 C   0  0  0  0  0  0  0  0  0  0  0  0
   16.7489  -25.7537   -3.8450 C   0  0  0  0  0  0  0  0  0  0  0  0
   17.2442  -24.6465   -4.2190 O   0  0  0  0  0  0  0  0  0  0  0  0
   15.8316  -25.6916   -2.7657 N   0  0  0  0  0  0  0  0  0  0  0  0
   15.4302  -24.4303   -2.1584 C   0  0  1  0  0  0  0  0  0  0  0  0
   14.7353  -23.5445   -3.1716 C   0  0  0  0  0  0  0  0  0  0  0  0
   13.9828  -22.1187   -2.3459 S   0  0  0  0  0  0  0  0  0  0  0  0
   14.5576  -24.6706   -0.9836 C   0  0  0  0  0  0  0  0  0  0  0  0
   13.8480  -25.7057   -0.9767 O   0  0  0  0  0  0  0  0  0  0  0  0
   14.4923  -23.8150    0.0915 O   0  0  0  0  0  0  0  0  0  0  0  0
  2  4  1  0
  2  1  1  0
  3  2  2  0
  5  4  1  0
  6  5  1  0
  6  8  1  0
  6  7  1  6
  8  9  2  0
 10  8  1  0
 10 11  1  0
 11 12  1  1
 12 13  1  0
 13 14  2  0
 14 15  1  0
 16 15  2  0
 17 16  1  0
 18 13  1  0
 18 17  2  0
 19 21  1  0
 19 11  1  0
 20 19  2  0
 22 25  1  0
 22 23  1  6
 22 21  1  0
 23 24  1  0
 25 27  1  0
 26 25  2  0
M  END
$$$$
