QFC.pdb
     RDKit          3D

 27 27  0  0  1  0  0  0  0  0999 V2000
   27.6170  -17.9610  -13.5332 N   0  0  0  0  0  0  0  0  0  0  0  0
   28.8594  -18.4073  -14.0410 C   0  0  0  0  0  0  0  0  0  0  0  0
   29.5365  -17.6099  -14.7254 O   0  0  0  0  0  0  0  0  0  0  0  0
   29.2873  -19.7719  -13.7400 C   0  0  0  0  0  0  0  0  0  0  0  0
   28.3959  -20.5414  -12.8036 C   0  0  0  0  0  0  0  0  0  0  0  0
   29.0835  -20.6662  -11.4702 C   0  0  2  0  0  0  0  0  0  0  0  0
   30.0816  -21.7087  -11.6209 N   0  0  0  0  0  0  0  0  0  0  0  0
   28.1549  -21.0836  -10.3915 C   0  0  0  0  0  0  0  0  0  0  0  0
   27.8852  -22.2991  -10.2929 O   0  0  0  0  0  0  0  0  0  0  0  0
   27.5687  -20.1741   -9.4800 N   0  0  0  0  0  0  0  0  0  0  0  0
   26.2222  -20.3483   -8.9906 C   0  0  1  0  0  0  0  0  0  0  0  0
   25.9597  -19.4991   -7.7643 C   0  0  0  0  0  0  0  0  0  0  0  0
   26.9330  -19.7900   -6.6880 C   0  0  0  0  0  0  0  0  0  0  0  0
   27.9697  -18.9152   -6.4744 C   0  0  0  0  0  0  0  0  0  0  0  0
   28.8780  -19.2142   -5.4602 C   0  0  0  0  0  0  0  0  0  0  0  0
   28.7437  -20.3486   -4.6950 C   0  0  0  0  0  0  0  0  0  0  0  0
   27.7007  -21.2147   -4.9205 C   0  0  0  0  0  0  0  0  0  0  0  0
   26.7906  -20.9301   -5.9252 C   0  0  0  0  0  0  0  0  0  0  0  0
   25.1934  -20.1304  -10.0438 C   0  0  0  0  0  0  0  0  0  0  0  0
   24.8974  -18.9567  -10.4257 O   0  0  0  0  0  0  0  0  0  0  0  0
   24.4898  -21.1863  -10.6765 N   0  0  0  0  0  0  0  0  0  0  0  0
   23.5271  -20.9492  -11.7432 C   0  0  1  0  0  0  0  0  0  0  0  0
   23.8336  -21.8185  -12.9450 C   0  0  0  0  0  0  0  0  0  0  0  0
   24.3091  -23.4824  -12.4101 S   0  0  0  0  0  0  0  0  0  0  0  0
   22.1447  -21.1861  -11.2613 C   0  0  0  0  0  0  0  0  0  0  0  0
   21.1962  -20.9483  -12.0479 O   0  0  0  0  0  0  0  0  0  0  0  0
   21.8583  -21.6516   -9.9990 O   0  0  0  0  0  0  0  0  0  0  0  0
  2  4  1  0
  2  1  1  0
  3  2  2  0
  5  4  1  0
  6  5  1  0
  6  8  1  0
  6  7  1  6
  8  9  2  0
 10  8  1  0
 10 11  1  0
 11 12  1  1
 12 13  1  0
 13 14  2  0
 14 15  1  0
 16 15  2  0
 17 16  1  0
 18 13  1  0
 18 17  2  0
 19 21  1  0
 19 11  1  0
 20 19  2  0
 22 25  1  0
 22 23  1  6
 22 21  1  0
 23 24  1  0
 25 27  1  0
 26 25  2  0
M  END
$$$$
