QFC.pdb
     RDKit          3D

 27 27  0  0  1  0  0  0  0  0999 V2000
   22.8552   -9.5570  -21.5891 N   0  0  0  0  0  0  0  0  0  0  0  0
   22.7116  -10.8767  -22.0777 C   0  0  0  0  0  0  0  0  0  0  0  0
   22.9926  -11.0946  -23.2761 O   0  0  0  0  0  0  0  0  0  0  0  0
   22.2451  -11.9142  -21.1602 C   0  0  0  0  0  0  0  0  0  0  0  0
   21.8961  -11.4469  -19.7733 C   0  0  0  0  0  0  0  0  0  0  0  0
   23.1661  -11.1010  -19.0427 C   0  0  2  0  0  0  0  0  0  0  0  0
   23.7498  -12.3599  -18.6188 N   0  0  0  0  0  0  0  0  0  0  0  0
   22.9163  -10.2878  -17.8275 C   0  0  0  0  0  0  0  0  0  0  0  0
   22.4684  -10.8713  -16.8181 O   0  0  0  0  0  0  0  0  0  0  0  0
   23.1612   -8.8959  -17.7638 N   0  0  0  0  0  0  0  0  0  0  0  0
   22.8885   -8.1287  -16.5722 C   0  0  1  0  0  0  0  0  0  0  0  0
   24.1428   -7.4764  -16.0290 C   0  0  0  0  0  0  0  0  0  0  0  0
   25.2016   -8.4769  -15.7677 C   0  0  0  0  0  0  0  0  0  0  0  0
   25.0779   -9.3081  -14.6817 C   0  0  0  0  0  0  0  0  0  0  0  0
   26.0913  -10.2372  -14.4516 C   0  0  0  0  0  0  0  0  0  0  0  0
   27.1824  -10.3222  -15.2840 C   0  0  0  0  0  0  0  0  0  0  0  0
   27.2921   -9.4837  -16.3672 C   0  0  0  0  0  0  0  0  0  0  0  0
   26.2925   -8.5554  -16.6078 C   0  0  0  0  0  0  0  0  0  0  0  0
   21.7901   -7.1422  -16.7605 C   0  0  0  0  0  0  0  0  0  0  0  0
   21.9243   -6.1712  -17.5668 O   0  0  0  0  0  0  0  0  0  0  0  0
   20.5525   -7.2128  -16.0724 N   0  0  0  0  0  0  0  0  0  0  0  0
   19.4631   -6.2828  -16.3351 C   0  0  1  0  0  0  0  0  0  0  0  0
   18.1307   -6.8978  -15.9600 C   0  0  0  0  0  0  0  0  0  0  0  0
   17.8577   -8.4225  -16.8990 S   0  0  0  0  0  0  0  0  0  0  0  0
   19.6775   -5.0082  -15.6079 C   0  0  0  0  0  0  0  0  0  0  0  0
   20.7138   -4.8940  -14.9092 O   0  0  0  0  0  0  0  0  0  0  0  0
   18.7969   -3.9531  -15.6650 O   0  0  0  0  0  0  0  0  0  0  0  0
  2  4  1  0
  2  1  1  0
  3  2  2  0
  5  4  1  0
  6  5  1  0
  6  8  1  0
  6  7  1  1
  8  9  2  0
 10  8  1  0
 10 11  1  0
 11 12  1  6
 12 13  1  0
 13 14  2  0
 14 15  1  0
 16 15  2  0
 17 16  1  0
 18 13  1  0
 18 17  2  0
 19 21  1  0
 19 11  1  0
 20 19  2  0
 22 25  1  0
 22 23  1  1
 22 21  1  0
 23 24  1  0
 25 27  1  0
 26 25  2  0
M  END
$$$$
