QFC.pdb
     RDKit          3D

 27 27  0  0  1  0  0  0  0  0999 V2000
   26.1572  -19.1660  -19.7443 N   0  0  0  0  0  0  0  0  0  0  0  0
   26.9071  -20.3640  -19.8012 C   0  0  0  0  0  0  0  0  0  0  0  0
   28.1505  -20.2763  -19.8956 O   0  0  0  0  0  0  0  0  0  0  0  0
   26.1933  -21.6381  -19.7457 C   0  0  0  0  0  0  0  0  0  0  0  0
   25.5863  -21.9860  -18.4138 C   0  0  0  0  0  0  0  0  0  0  0  0
   26.6620  -21.9382  -17.3617 C   0  0  2  0  0  0  0  0  0  0  0  0
   27.5041  -23.0985  -17.5850 N   0  0  0  0  0  0  0  0  0  0  0  0
   26.1138  -22.0368  -15.9870 C   0  0  0  0  0  0  0  0  0  0  0  0
   25.0705  -22.7035  -15.8223 O   0  0  0  0  0  0  0  0  0  0  0  0
   26.7153  -21.4153  -14.8674 N   0  0  0  0  0  0  0  0  0  0  0  0
   26.0646  -21.3718  -13.5800 C   0  0  1  0  0  0  0  0  0  0  0  0
   27.0047  -20.8887  -12.4952 C   0  0  0  0  0  0  0  0  0  0  0  0
   26.3043  -20.7431  -11.1996 C   0  0  0  0  0  0  0  0  0  0  0  0
   26.2045  -19.4958  -10.6339 C   0  0  0  0  0  0  0  0  0  0  0  0
   25.5471  -19.3847   -9.4098 C   0  0  0  0  0  0  0  0  0  0  0  0
   25.0134  -20.4870   -8.7849 C   0  0  0  0  0  0  0  0  0  0  0  0
   25.1209  -21.7289   -9.3636 C   0  0  0  0  0  0  0  0  0  0  0  0
   25.7718  -21.8541  -10.5799 C   0  0  0  0  0  0  0  0  0  0  0  0
   24.7976  -20.5911  -13.6006 C   0  0  0  0  0  0  0  0  0  0  0  0
   24.8067  -19.3505  -13.8687 O   0  0  0  0  0  0  0  0  0  0  0  0
   23.5274  -21.1593  -13.3289 N   0  0  0  0  0  0  0  0  0  0  0  0
   22.3258  -20.3477  -13.1934 C   0  0  1  0  0  0  0  0  0  0  0  0
   21.5193  -20.3655  -14.4753 C   0  0  0  0  0  0  0  0  0  0  0  0
   21.5721  -22.0130  -15.2262 S   0  0  0  0  0  0  0  0  0  0  0  0
   21.5060  -20.8152  -12.0495 C   0  0  0  0  0  0  0  0  0  0  0  0
   21.7360  -21.9586  -11.5862 O   0  0  0  0  0  0  0  0  0  0  0  0
   20.5115  -20.0562  -11.4778 O   0  0  0  0  0  0  0  0  0  0  0  0
  2  4  1  0
  2  1  1  0
  3  2  2  0
  5  4  1  0
  6  5  1  0
  6  8  1  0
  6  7  1  6
  8  9  2  0
 10  8  1  0
 10 11  1  0
 11 12  1  1
 12 13  1  0
 13 14  2  0
 14 15  1  0
 16 15  2  0
 17 16  1  0
 18 13  1  0
 18 17  2  0
 19 21  1  0
 19 11  1  0
 20 19  2  0
 22 25  1  0
 22 23  1  6
 22 21  1  0
 23 24  1  0
 25 27  1  0
 26 25  2  0
M  END
$$$$
