QFC.pdb
     RDKit          3D

 27 27  0  0  1  0  0  0  0  0999 V2000
   20.1493   -7.6259  -21.6765 N   0  0  0  0  0  0  0  0  0  0  0  0
   20.2088   -9.0382  -21.7279 C   0  0  0  0  0  0  0  0  0  0  0  0
   20.3250   -9.5821  -22.8474 O   0  0  0  0  0  0  0  0  0  0  0  0
   20.1329   -9.7865  -20.4749 C   0  0  0  0  0  0  0  0  0  0  0  0
   19.9175   -8.9604  -19.2360 C   0  0  0  0  0  0  0  0  0  0  0  0
   21.1089   -9.1226  -18.3301 C   0  0  2  0  0  0  0  0  0  0  0  0
   21.0147  -10.4560  -17.7657 N   0  0  0  0  0  0  0  0  0  0  0  0
   21.1007   -8.1553  -17.2056 C   0  0  0  0  0  0  0  0  0  0  0  0
   20.3352   -8.3845  -16.2457 O   0  0  0  0  0  0  0  0  0  0  0  0
   21.9136   -6.9978  -17.1744 N   0  0  0  0  0  0  0  0  0  0  0  0
   21.7985   -6.0149  -16.1240 C   0  0  1  0  0  0  0  0  0  0  0  0
   22.9967   -6.0445  -15.1980 C   0  0  0  0  0  0  0  0  0  0  0  0
   23.0858   -7.3310  -14.4719 C   0  0  0  0  0  0  0  0  0  0  0  0
   23.9846   -8.2763  -14.9013 C   0  0  0  0  0  0  0  0  0  0  0  0
   24.0452   -9.4831  -14.2064 C   0  0  0  0  0  0  0  0  0  0  0  0
   23.2323   -9.7235  -13.1238 C   0  0  0  0  0  0  0  0  0  0  0  0
   22.3379   -8.7677  -12.7056 C   0  0  0  0  0  0  0  0  0  0  0  0
   22.2668   -7.5637  -13.3870 C   0  0  0  0  0  0  0  0  0  0  0  0
   21.5351   -4.6450  -16.6427 C   0  0  0  0  0  0  0  0  0  0  0  0
   22.3591   -4.0806  -17.4260 O   0  0  0  0  0  0  0  0  0  0  0  0
   20.3803   -3.8934  -16.3083 N   0  0  0  0  0  0  0  0  0  0  0  0
   20.0798   -2.6118  -16.9311 C   0  0  1  0  0  0  0  0  0  0  0  0
   18.6056   -2.5098  -17.2637 C   0  0  0  0  0  0  0  0  0  0  0  0
   18.2243   -0.8668  -17.9239 S   0  0  0  0  0  0  0  0  0  0  0  0
   20.4996   -1.4930  -16.0528 C   0  0  0  0  0  0  0  0  0  0  0  0
   20.2682   -1.5886  -14.8231 O   0  0  0  0  0  0  0  0  0  0  0  0
   21.1271   -0.3630  -16.5233 O   0  0  0  0  0  0  0  0  0  0  0  0
  2  4  1  0
  2  1  1  0
  3  2  2  0
  5  4  1  0
  6  5  1  0
  6  8  1  0
  6  7  1  1
  8  9  2  0
 10  8  1  0
 10 11  1  0
 11 12  1  6
 12 13  1  0
 13 14  2  0
 14 15  1  0
 16 15  2  0
 17 16  1  0
 18 13  1  0
 18 17  2  0
 19 21  1  0
 19 11  1  0
 20 19  2  0
 22 25  1  0
 22 23  1  1
 22 21  1  0
 23 24  1  0
 25 27  1  0
 26 25  2  0
M  END
$$$$
