QFC.pdb
     RDKit          3D

 27 27  0  0  1  0  0  0  0  0999 V2000
   18.4396  -14.0242  -17.2725 N   0  0  0  0  0  0  0  0  0  0  0  0
   17.6702  -12.9364  -16.7975 C   0  0  0  0  0  0  0  0  0  0  0  0
   17.1881  -12.1453  -17.6368 O   0  0  0  0  0  0  0  0  0  0  0  0
   17.4776  -12.7939  -15.3559 C   0  0  0  0  0  0  0  0  0  0  0  0
   16.5289  -11.7062  -14.9308 C   0  0  0  0  0  0  0  0  0  0  0  0
   16.5713  -11.5826  -13.4311 C   0  0  2  0  0  0  0  0  0  0  0  0
   15.8629  -12.7348  -12.9057 N   0  0  0  0  0  0  0  0  0  0  0  0
   15.8773  -10.3657  -12.9437 C   0  0  0  0  0  0  0  0  0  0  0  0
   14.6617  -10.2447  -13.2042 O   0  0  0  0  0  0  0  0  0  0  0  0
   16.5258   -9.3483  -12.2049 N   0  0  0  0  0  0  0  0  0  0  0  0
   15.8758   -8.0960  -11.9011 C   0  0  1  0  0  0  0  0  0  0  0  0
   15.5944   -7.9581  -10.4194 C   0  0  0  0  0  0  0  0  0  0  0  0
   14.3645   -8.6855  -10.0337 C   0  0  0  0  0  0  0  0  0  0  0  0
   14.4677   -9.9862   -9.6056 C   0  0  0  0  0  0  0  0  0  0  0  0
   13.2950  -10.6532   -9.2550 C   0  0  0  0  0  0  0  0  0  0  0  0
   12.0710  -10.0318   -9.3337 C   0  0  0  0  0  0  0  0  0  0  0  0
   11.9837   -8.7295   -9.7639 C   0  0  0  0  0  0  0  0  0  0  0  0
   13.1410   -8.0545  -10.1156 C   0  0  0  0  0  0  0  0  0  0  0  0
   16.6140   -6.9191  -12.4349 C   0  0  0  0  0  0  0  0  0  0  0  0
   17.7967   -6.6679  -12.0486 O   0  0  0  0  0  0  0  0  0  0  0  0
   16.0656   -6.0197  -13.3838 N   0  0  0  0  0  0  0  0  0  0  0  0
   16.8372   -4.9229  -13.9515 C   0  0  1  0  0  0  0  0  0  0  0  0
   16.8389   -4.9952  -15.4645 C   0  0  0  0  0  0  0  0  0  0  0  0
   17.5654   -6.5599  -16.0164 S   0  0  0  0  0  0  0  0  0  0  0  0
   16.3085   -3.6173  -13.4878 C   0  0  0  0  0  0  0  0  0  0  0  0
   15.1493   -3.5863  -13.0078 O   0  0  0  0  0  0  0  0  0  0  0  0
   17.0275   -2.4469  -13.5600 O   0  0  0  0  0  0  0  0  0  0  0  0
  2  4  1  0
  2  1  1  0
  3  2  2  0
  5  4  1  0
  6  5  1  0
  6  8  1  0
  6  7  1  1
  8  9  2  0
 10  8  1  0
 10 11  1  0
 11 12  1  1
 12 13  1  0
 13 14  2  0
 14 15  1  0
 16 15  2  0
 17 16  1  0
 18 13  1  0
 18 17  2  0
 19 21  1  0
 19 11  1  0
 20 19  2  0
 22 25  1  0
 22 23  1  6
 22 21  1  0
 23 24  1  0
 25 27  1  0
 26 25  2  0
M  END
$$$$
