QFC.pdb
     RDKit          3D

 27 27  0  0  1  0  0  0  0  0999 V2000
   31.3614  -23.4548  -18.2955 N   0  0  0  0  0  0  0  0  0  0  0  0
   30.5119  -23.2127  -19.4003 C   0  0  0  0  0  0  0  0  0  0  0  0
   31.0152  -23.2278  -20.5444 O   0  0  0  0  0  0  0  0  0  0  0  0
   29.0946  -22.9597  -19.1491 C   0  0  0  0  0  0  0  0  0  0  0  0
   28.6699  -23.0139  -17.7069 C   0  0  0  0  0  0  0  0  0  0  0  0
   27.4647  -22.1310  -17.5213 C   0  0  2  0  0  0  0  0  0  0  0  0
   27.8786  -20.7907  -17.8923 N   0  0  0  0  0  0  0  0  0  0  0  0
   27.0068  -22.0874  -16.1111 C   0  0  0  0  0  0  0  0  0  0  0  0
   26.7744  -23.1738  -15.5403 O   0  0  0  0  0  0  0  0  0  0  0  0
   26.8247  -20.8819  -15.3933 N   0  0  0  0  0  0  0  0  0  0  0  0
   26.2740  -20.8660  -14.0595 C   0  0  1  0  0  0  0  0  0  0  0  0
   26.8546  -19.7403  -13.2291 C   0  0  0  0  0  0  0  0  0  0  0  0
   27.4646  -20.2498  -11.9806 C   0  0  0  0  0  0  0  0  0  0  0  0
   28.7406  -20.7555  -12.0219 C   0  0  0  0  0  0  0  0  0  0  0  0
   29.2911  -21.2366  -10.8351 C   0  0  0  0  0  0  0  0  0  0  0  0
   28.5821  -21.2073   -9.6574 C   0  0  0  0  0  0  0  0  0  0  0  0
   27.3060  -20.6979   -9.6317 C   0  0  0  0  0  0  0  0  0  0  0  0
   26.7463  -20.2165  -10.8038 C   0  0  0  0  0  0  0  0  0  0  0  0
   24.7858  -20.8479  -14.0505 C   0  0  0  0  0  0  0  0  0  0  0  0
   24.1404  -20.2725  -14.9797 O   0  0  0  0  0  0  0  0  0  0  0  0
   24.0050  -21.4525  -13.0332 N   0  0  0  0  0  0  0  0  0  0  0  0
   22.5506  -21.3783  -13.0222 C   0  0  1  0  0  0  0  0  0  0  0  0
   21.9827  -22.1577  -11.8542 C   0  0  0  0  0  0  0  0  0  0  0  0
   22.6255  -21.5034  -10.2922 S   0  0  0  0  0  0  0  0  0  0  0  0
   22.0999  -19.9660  -12.9811 C   0  0  0  0  0  0  0  0  0  0  0  0
   22.8990  -19.1036  -12.5421 O   0  0  0  0  0  0  0  0  0  0  0  0
   20.8535  -19.5625  -13.4001 O   0  0  0  0  0  0  0  0  0  0  0  0
  2  4  1  0
  2  1  1  0
  3  2  2  0
  5  4  1  0
  6  5  1  0
  6  8  1  0
  6  7  1  1
  8  9  2  0
 10  8  1  0
 10 11  1  0
 11 12  1  6
 12 13  1  0
 13 14  2  0
 14 15  1  0
 16 15  2  0
 17 16  1  0
 18 13  1  0
 18 17  2  0
 19 21  1  0
 19 11  1  0
 20 19  2  0
 22 25  1  0
 22 23  1  1
 22 21  1  0
 23 24  1  0
 25 27  1  0
 26 25  2  0
M  END
$$$$
