QFC.pdb
     RDKit          3D

 27 27  0  0  1  0  0  0  0  0999 V2000
   26.9744  -16.5007  -14.1345 N   0  0  0  0  0  0  0  0  0  0  0  0
   27.9552  -16.5773  -15.1508 C   0  0  0  0  0  0  0  0  0  0  0  0
   28.6718  -15.5734  -15.3543 O   0  0  0  0  0  0  0  0  0  0  0  0
   28.0813  -17.8213  -15.9073 C   0  0  0  0  0  0  0  0  0  0  0  0
   27.2046  -18.9541  -15.4471 C   0  0  0  0  0  0  0  0  0  0  0  0
   27.8420  -19.6067  -14.2496 C   0  0  2  0  0  0  0  0  0  0  0  0
   28.8964  -20.4614  -14.7626 N   0  0  0  0  0  0  0  0  0  0  0  0
   26.8917  -20.4637  -13.4994 C   0  0  0  0  0  0  0  0  0  0  0  0
   26.6878  -21.6196  -13.9265 O   0  0  0  0  0  0  0  0  0  0  0  0
   26.2146  -20.0327  -12.3344 N   0  0  0  0  0  0  0  0  0  0  0  0
   25.2839  -20.8859  -11.6353 C   0  0  1  0  0  0  0  0  0  0  0  0
   25.0736  -20.4300  -10.2064 C   0  0  0  0  0  0  0  0  0  0  0  0
   26.3364  -20.4704   -9.4356 C   0  0  0  0  0  0  0  0  0  0  0  0
   26.5219  -19.5705   -8.4151 C   0  0  0  0  0  0  0  0  0  0  0  0
   27.7223  -19.6228   -7.7084 C   0  0  0  0  0  0  0  0  0  0  0  0
   28.6929  -20.5454   -8.0200 C   0  0  0  0  0  0  0  0  0  0  0  0
   28.4928  -21.4399   -9.0440 C   0  0  0  0  0  0  0  0  0  0  0  0
   27.3046  -21.3992   -9.7549 C   0  0  0  0  0  0  0  0  0  0  0  0
   23.9935  -21.0467  -12.3593 C   0  0  0  0  0  0  0  0  0  0  0  0
   23.4690  -20.0663  -12.9715 O   0  0  0  0  0  0  0  0  0  0  0  0
   23.2777  -22.2693  -12.4145 N   0  0  0  0  0  0  0  0  0  0  0  0
   22.1274  -22.4577  -13.2874 C   0  0  1  0  0  0  0  0  0  0  0  0
   21.9519  -23.9214  -13.6349 C   0  0  0  0  0  0  0  0  0  0  0  0
   23.5375  -24.6419  -14.1326 S   0  0  0  0  0  0  0  0  0  0  0  0
   20.8992  -21.9156  -12.6572 C   0  0  0  0  0  0  0  0  0  0  0  0
   20.9900  -21.4399  -11.4995 O   0  0  0  0  0  0  0  0  0  0  0  0
   19.6735  -21.9113  -13.2814 O   0  0  0  0  0  0  0  0  0  0  0  0
  2  4  1  0
  2  1  1  0
  3  2  2  0
  5  4  1  0
  6  5  1  0
  6  8  1  0
  6  7  1  6
  8  9  2  0
 10  8  1  0
 10 11  1  0
 11 12  1  1
 12 13  1  0
 13 14  2  0
 14 15  1  0
 16 15  2  0
 17 16  1  0
 18 13  1  0
 18 17  2  0
 19 21  1  0
 19 11  1  0
 20 19  2  0
 22 25  1  0
 22 23  1  1
 22 21  1  0
 23 24  1  0
 25 27  1  0
 26 25  2  0
M  END
$$$$
