GIF.pdb
     RDKit          3D

 24 24  0  0  1  0  0  0  0  0999 V2000
   19.3528   -9.4184   10.9857 N   0  0  0  0  0  0  0  0  0  0  0  0
   18.8678  -10.7254   11.3352 C   0  0  0  0  0  0  0  0  0  0  0  0
   19.9110  -11.7784   11.0671 C   0  0  0  0  0  0  0  0  0  0  0  0
   20.9924  -11.4807   10.5157 O   0  0  0  0  0  0  0  0  0  0  0  0
   22.9015  -16.0726   13.5808 C   0  0  0  0  0  0  0  0  0  0  0  0
   21.9798  -15.9331   12.4251 C   0  0  0  0  0  0  0  0  0  0  0  0
   20.8845  -14.9326   12.5496 C   0  0  2  0  0  0  0  0  0  0  0  0
   19.6445  -15.7353   12.9846 C   0  0  0  0  0  0  0  0  0  0  0  0
   20.6249  -14.1865   11.3067 C   0  0  2  0  0  0  0  0  0  0  0  0
   19.6702  -13.1397   11.4447 N   0  0  0  0  0  0  0  0  0  0  0  0
   20.3075  -15.0063   10.1330 C   0  0  0  0  0  0  0  0  0  0  0  0
   19.1311  -15.2647    9.7545 O   0  0  0  0  0  0  0  0  0  0  0  0
   21.3602  -15.5581    9.3576 N   0  0  0  0  0  0  0  0  0  0  0  0
   21.0966  -16.3376    8.1638 C   0  0  1  0  0  0  0  0  0  0  0  0
   21.5127  -15.6732    6.8952 C   0  0  0  0  0  0  0  0  0  0  0  0
   20.8272  -14.4121    6.5897 C   0  0  0  0  0  0  0  0  0  0  0  0
   21.3296  -13.1815    6.9811 C   0  0  0  0  0  0  0  0  0  0  0  0
   20.6794  -12.0007    6.6820 C   0  0  0  0  0  0  0  0  0  0  0  0
   19.5028  -11.9999    5.9810 C   0  0  0  0  0  0  0  0  0  0  0  0
   18.9835  -13.2135    5.5808 C   0  0  0  0  0  0  0  0  0  0  0  0
   19.6462  -14.4014    5.8867 C   0  0  0  0  0  0  0  0  0  0  0  0
   21.6804  -17.7075    8.2976 C   0  0  0  0  0  0  0  0  0  0  0  0
   22.7225  -17.8998    8.9556 O   0  0  0  0  0  0  0  0  0  0  0  0
   21.0614  -18.7768    7.6866 O   0  0  0  0  0  0  0  0  0  0  0  0
  2  1  1  0
  3  2  1  0
  3  4  2  0
  6  7  1  0
  6  5  1  0
  7  8  1  6
  9 10  1  1
  9  7  1  0
 10  3  1  0
 11  9  1  0
 12 11  2  0
 13 11  1  0
 14 13  1  0
 14 15  1  6
 15 16  1  0
 16 17  2  0
 17 18  1  0
 19 18  2  0
 20 19  1  0
 21 16  1  0
 21 20  2  0
 22 14  1  0
 22 24  1  0
 23 22  2  0
M  END
$$$$
