GIF.pdb
     RDKit          3D

 24 24  0  0  1  0  0  0  0  0999 V2000
   30.4043  -21.8507  -12.6213 N   0  0  0  0  0  0  0  0  0  0  0  0
   29.9211  -20.8223  -11.7411 C   0  0  0  0  0  0  0  0  0  0  0  0
   28.5091  -21.1075  -11.3007 C   0  0  0  0  0  0  0  0  0  0  0  0
   27.8895  -22.0986  -11.7434 O   0  0  0  0  0  0  0  0  0  0  0  0
   27.2722  -19.3827   -6.3030 C   0  0  0  0  0  0  0  0  0  0  0  0
   27.3518  -20.0953   -7.6033 C   0  0  0  0  0  0  0  0  0  0  0  0
   26.2562  -19.8462   -8.5799 C   0  0  2  0  0  0  0  0  0  0  0  0
   24.9980  -20.4742   -7.9523 C   0  0  0  0  0  0  0  0  0  0  0  0
   26.5197  -20.4073   -9.9157 C   0  0  2  0  0  0  0  0  0  0  0  0
   27.8602  -20.2384  -10.3641 N   0  0  0  0  0  0  0  0  0  0  0  0
   25.5818  -20.0012  -10.9673 C   0  0  0  0  0  0  0  0  0  0  0  0
   25.3195  -18.7985  -11.2478 O   0  0  0  0  0  0  0  0  0  0  0  0
   24.9118  -20.9925  -11.7305 N   0  0  0  0  0  0  0  0  0  0  0  0
   24.0208  -20.6402  -12.8188 C   0  0  1  0  0  0  0  0  0  0  0  0
   24.5769  -20.9088  -14.1761 C   0  0  0  0  0  0  0  0  0  0  0  0
   25.7221  -20.0772  -14.5641 C   0  0  0  0  0  0  0  0  0  0  0  0
   27.0116  -20.5791  -14.6381 C   0  0  0  0  0  0  0  0  0  0  0  0
   28.0805  -19.7887  -15.0111 C   0  0  0  0  0  0  0  0  0  0  0  0
   27.9065  -18.4671  -15.3252 C   0  0  0  0  0  0  0  0  0  0  0  0
   26.6313  -17.9453  -15.2587 C   0  0  0  0  0  0  0  0  0  0  0  0
   25.5572  -18.7501  -14.8812 C   0  0  0  0  0  0  0  0  0  0  0  0
   22.6833  -21.2794  -12.6236 C   0  0  0  0  0  0  0  0  0  0  0  0
   22.4987  -22.1185  -11.7194 O   0  0  0  0  0  0  0  0  0  0  0  0
   21.6359  -20.9393  -13.4526 O   0  0  0  0  0  0  0  0  0  0  0  0
  2  1  1  0
  3  2  1  0
  3  4  2  0
  6  7  1  0
  6  5  1  0
  7  8  1  1
  9 10  1  6
  9  7  1  0
 10  3  1  0
 11  9  1  0
 12 11  2  0
 13 11  1  0
 14 13  1  0
 14 15  1  6
 15 16  1  0
 16 17  2  0
 17 18  1  0
 19 18  2  0
 20 19  1  0
 21 16  1  0
 21 20  2  0
 22 14  1  0
 22 24  1  0
 23 22  2  0
M  END
$$$$
