GIF.pdb
     RDKit          3D

 24 24  0  0  1  0  0  0  0  0999 V2000
   25.3282  -17.6827  -15.2096 N   0  0  0  0  0  0  0  0  0  0  0  0
   24.9380  -17.6822  -13.8263 C   0  0  0  0  0  0  0  0  0  0  0  0
   25.3476  -18.9638  -13.1489 C   0  0  0  0  0  0  0  0  0  0  0  0
   24.5052  -19.8534  -12.9017 O   0  0  0  0  0  0  0  0  0  0  0  0
   30.1929  -22.7175  -12.8716 C   0  0  0  0  0  0  0  0  0  0  0  0
   28.9788  -22.1278  -12.2529 C   0  0  0  0  0  0  0  0  0  0  0  0
   28.4733  -20.8540  -12.8345 C   0  0  2  0  0  0  0  0  0  0  0  0
   29.6041  -19.8304  -12.6229 C   0  0  0  0  0  0  0  0  0  0  0  0
   27.2151  -20.3882  -12.2272 C   0  0  2  0  0  0  0  0  0  0  0  0
   26.7161  -19.1749  -12.7799 N   0  0  0  0  0  0  0  0  0  0  0  0
   27.2106  -20.3140  -10.7627 C   0  0  0  0  0  0  0  0  0  0  0  0
   28.1456  -19.8068  -10.0826 O   0  0  0  0  0  0  0  0  0  0  0  0
   26.1078  -20.8355  -10.0376 N   0  0  0  0  0  0  0  0  0  0  0  0
   26.0232  -20.7183   -8.5948 C   0  0  1  0  0  0  0  0  0  0  0  0
   26.4874  -19.4062   -8.0594 C   0  0  0  0  0  0  0  0  0  0  0  0
   27.2791  -19.4732   -6.8255 C   0  0  0  0  0  0  0  0  0  0  0  0
   27.5435  -20.6697   -6.1785 C   0  0  0  0  0  0  0  0  0  0  0  0
   28.2956  -20.7213   -5.0217 C   0  0  0  0  0  0  0  0  0  0  0  0
   28.8138  -19.5827   -4.4642 C   0  0  0  0  0  0  0  0  0  0  0  0
   28.5636  -18.3797   -5.0911 C   0  0  0  0  0  0  0  0  0  0  0  0
   27.8032  -18.3360   -6.2589 C   0  0  0  0  0  0  0  0  0  0  0  0
   24.6456  -21.0606   -8.1251 C   0  0  0  0  0  0  0  0  0  0  0  0
   23.6458  -20.7991   -8.8234 O   0  0  0  0  0  0  0  0  0  0  0  0
   24.4732  -21.6742   -6.9029 O   0  0  0  0  0  0  0  0  0  0  0  0
  2  1  1  0
  3  2  1  0
  3  4  2  0
  6  7  1  0
  6  5  1  0
  7  8  1  1
  9 10  1  6
  9  7  1  0
 10  3  1  0
 11  9  1  0
 12 11  2  0
 13 11  1  0
 14 13  1  0
 14 15  1  6
 15 16  1  0
 16 17  2  0
 17 18  1  0
 19 18  2  0
 20 19  1  0
 21 16  1  0
 21 20  2  0
 22 14  1  0
 22 24  1  0
 23 22  2  0
M  END
$$$$
