GIF.pdb
     RDKit          3D

 24 24  0  0  1  0  0  0  0  0999 V2000
   18.8044  -24.0403   -7.7595 N   0  0  0  0  0  0  0  0  0  0  0  0
   18.6588  -25.4116   -7.3544 C   0  0  0  0  0  0  0  0  0  0  0  0
   18.3365  -25.5099   -5.8862 C   0  0  0  0  0  0  0  0  0  0  0  0
   18.8421  -24.7136   -5.0663 O   0  0  0  0  0  0  0  0  0  0  0  0
   13.5811  -25.2831   -3.8252 C   0  0  0  0  0  0  0  0  0  0  0  0
   15.0533  -25.3747   -3.9946 C   0  0  0  0  0  0  0  0  0  0  0  0
   15.6821  -26.7010   -3.7457 C   0  0  2  0  0  0  0  0  0  0  0  0
   15.4139  -27.0089   -2.2610 C   0  0  0  0  0  0  0  0  0  0  0  0
   17.1243  -26.7335   -4.0425 C   0  0  2  0  0  0  0  0  0  0  0  0
   17.4412  -26.5246   -5.4145 N   0  0  0  0  0  0  0  0  0  0  0  0
   17.8479  -27.9017   -3.5306 C   0  0  0  0  0  0  0  0  0  0  0  0
   17.9477  -28.9946   -4.1547 O   0  0  0  0  0  0  0  0  0  0  0  0
   18.4816  -27.8337   -2.2627 N   0  0  0  0  0  0  0  0  0  0  0  0
   19.1633  -28.9789   -1.6915 C   0  0  1  0  0  0  0  0  0  0  0  0
   20.5674  -28.7071   -1.2690 C   0  0  0  0  0  0  0  0  0  0  0  0
   20.7276  -27.6681   -0.2450 C   0  0  0  0  0  0  0  0  0  0  0  0
   20.7233  -27.9562    1.1104 C   0  0  0  0  0  0  0  0  0  0  0  0
   20.8820  -26.9711    2.0648 C   0  0  0  0  0  0  0  0  0  0  0  0
   21.0511  -25.6603    1.7061 C   0  0  0  0  0  0  0  0  0  0  0  0
   21.0588  -25.3496    0.3622 C   0  0  0  0  0  0  0  0  0  0  0  0
   20.8981  -26.3502   -0.5954 C   0  0  0  0  0  0  0  0  0  0  0  0
   18.3491  -29.5708   -0.5859 C   0  0  0  0  0  0  0  0  0  0  0  0
   17.4434  -28.9147   -0.0336 O   0  0  0  0  0  0  0  0  0  0  0  0
   18.5994  -30.8600   -0.1676 O   0  0  0  0  0  0  0  0  0  0  0  0
  2  1  1  0
  3  2  1  0
  3  4  2  0
  6  7  1  0
  6  5  1  0
  7  8  1  1
  9 10  1  6
  9  7  1  0
 10  3  1  0
 11  9  1  0
 12 11  2  0
 13 11  1  0
 14 13  1  0
 14 15  1  1
 15 16  1  0
 16 17  2  0
 17 18  1  0
 19 18  2  0
 20 19  1  0
 21 16  1  0
 21 20  2  0
 22 14  1  0
 22 24  1  0
 23 22  2  0
M  END
$$$$
