GIF.pdb
     RDKit          3D

 24 24  0  0  1  0  0  0  0  0999 V2000
   20.6604  -13.6545  -16.9669 N   0  0  0  0  0  0  0  0  0  0  0  0
   19.3887  -13.1146  -16.5707 C   0  0  0  0  0  0  0  0  0  0  0  0
   19.4127  -11.6085  -16.5857 C   0  0  0  0  0  0  0  0  0  0  0  0
   20.4921  -10.9877  -16.6933 O   0  0  0  0  0  0  0  0  0  0  0  0
   15.5421  -10.1246  -19.1155 C   0  0  0  0  0  0  0  0  0  0  0  0
   16.8039   -9.4577  -18.7060 C   0  0  0  0  0  0  0  0  0  0  0  0
   16.8933   -8.9846  -17.2973 C   0  0  2  0  0  0  0  0  0  0  0  0
   16.8620   -7.4472  -17.3791 C   0  0  0  0  0  0  0  0  0  0  0  0
   18.0990   -9.4544  -16.5941 C   0  0  2  0  0  0  0  0  0  0  0  0
   18.1895  -10.8701  -16.4758 N   0  0  0  0  0  0  0  0  0  0  0  0
   18.3594   -8.8228  -15.2966 C   0  0  0  0  0  0  0  0  0  0  0  0
   17.6994   -9.0718  -14.2495 O   0  0  0  0  0  0  0  0  0  0  0  0
   19.4048   -7.8704  -15.1775 N   0  0  0  0  0  0  0  0  0  0  0  0
   19.6833   -7.2009  -13.9219 C   0  0  1  0  0  0  0  0  0  0  0  0
   21.0188   -7.5212  -13.3409 C   0  0  0  0  0  0  0  0  0  0  0  0
   22.1696   -7.2124  -14.1977 C   0  0  0  0  0  0  0  0  0  0  0  0
   22.6839   -5.9311  -14.3150 C   0  0  0  0  0  0  0  0  0  0  0  0
   23.7716   -5.6536  -15.1190 C   0  0  0  0  0  0  0  0  0  0  0  0
   24.3895   -6.6422  -15.8377 C   0  0  0  0  0  0  0  0  0  0  0  0
   23.8950   -7.9259  -15.7365 C   0  0  0  0  0  0  0  0  0  0  0  0
   22.7963   -8.1978  -14.9224 C   0  0  0  0  0  0  0  0  0  0  0  0
   19.4699   -5.7274  -14.0597 C   0  0  0  0  0  0  0  0  0  0  0  0
   19.4387   -4.9868  -13.0566 O   0  0  0  0  0  0  0  0  0  0  0  0
   19.3048   -5.1750  -15.3117 O   0  0  0  0  0  0  0  0  0  0  0  0
  2  1  1  0
  3  2  1  0
  3  4  2  0
  6  7  1  0
  6  5  1  0
  7  8  1  6
  9 10  1  1
  9  7  1  0
 10  3  1  0
 11  9  1  0
 12 11  2  0
 13 11  1  0
 14 13  1  0
 14 15  1  6
 15 16  1  0
 16 17  2  0
 17 18  1  0
 19 18  2  0
 20 19  1  0
 21 16  1  0
 21 20  2  0
 22 14  1  0
 22 24  1  0
 23 22  2  0
M  END
$$$$
