GIF.pdb
     RDKit          3D

 24 24  0  0  1  0  0  0  0  0999 V2000
   21.2423  -21.8041  -13.8943 N   0  0  0  0  0  0  0  0  0  0  0  0
   21.8683  -20.7517  -13.1418 C   0  0  0  0  0  0  0  0  0  0  0  0
   23.1167  -21.2451  -12.4583 C   0  0  0  0  0  0  0  0  0  0  0  0
   23.0649  -22.1795  -11.6299 O   0  0  0  0  0  0  0  0  0  0  0  0
   29.3246  -21.0004  -13.0083 C   0  0  0  0  0  0  0  0  0  0  0  0
   28.0444  -21.3087  -12.3224 C   0  0  0  0  0  0  0  0  0  0  0  0
   26.8096  -20.6982  -12.8873 C   0  0  2  0  0  0  0  0  0  0  0  0
   27.0930  -19.1860  -12.9508 C   0  0  0  0  0  0  0  0  0  0  0  0
   25.5995  -20.9788  -12.0963 C   0  0  2  0  0  0  0  0  0  0  0  0
   24.3828  -20.6428  -12.7545 N   0  0  0  0  0  0  0  0  0  0  0  0
   25.5988  -20.4421  -10.7317 C   0  0  0  0  0  0  0  0  0  0  0  0
   25.1364  -19.3084  -10.4234 O   0  0  0  0  0  0  0  0  0  0  0  0
   26.1442  -21.2151   -9.6739 N   0  0  0  0  0  0  0  0  0  0  0  0
   26.3928  -20.6432   -8.3648 C   0  0  1  0  0  0  0  0  0  0  0  0
   27.2658  -21.4766   -7.4889 C   0  0  0  0  0  0  0  0  0  0  0  0
   27.7329  -20.8241   -6.2602 C   0  0  0  0  0  0  0  0  0  0  0  0
   28.9418  -20.1502   -6.1922 C   0  0  0  0  0  0  0  0  0  0  0  0
   29.3679  -19.5339   -5.0324 C   0  0  0  0  0  0  0  0  0  0  0  0
   28.6060  -19.5650   -3.8947 C   0  0  0  0  0  0  0  0  0  0  0  0
   27.3984  -20.2301   -3.9388 C   0  0  0  0  0  0  0  0  0  0  0  0
   26.9752  -20.8498   -5.1139 C   0  0  0  0  0  0  0  0  0  0  0  0
   26.9025  -19.2438   -8.4968 C   0  0  0  0  0  0  0  0  0  0  0  0
   26.3687  -18.3047   -7.8731 O   0  0  0  0  0  0  0  0  0  0  0  0
   27.9779  -18.9829   -9.3187 O   0  0  0  0  0  0  0  0  0  0  0  0
  2  1  1  0
  3  2  1  0
  3  4  2  0
  6  7  1  0
  6  5  1  0
  7  8  1  1
  9 10  1  6
  9  7  1  0
 10  3  1  0
 11  9  1  0
 12 11  2  0
 13 11  1  0
 14 13  1  0
 14 15  1  6
 15 16  1  0
 16 17  2  0
 17 18  1  0
 19 18  2  0
 20 19  1  0
 21 16  1  0
 21 20  2  0
 22 14  1  0
 22 24  1  0
 23 22  2  0
M  END
$$$$
