GIF.pdb
     RDKit          3D

 24 24  0  0  1  0  0  0  0  0999 V2000
   28.8988  -23.4458  -17.1435 N   0  0  0  0  0  0  0  0  0  0  0  0
   27.6741  -22.7099  -16.9877 C   0  0  0  0  0  0  0  0  0  0  0  0
   27.6861  -21.9041  -15.7151 C   0  0  0  0  0  0  0  0  0  0  0  0
   28.3399  -22.2882  -14.7216 O   0  0  0  0  0  0  0  0  0  0  0  0
   27.4308  -16.4732  -16.1131 C   0  0  0  0  0  0  0  0  0  0  0  0
   27.6911  -17.8397  -15.5940 C   0  0  0  0  0  0  0  0  0  0  0  0
   26.6433  -18.4456  -14.7272 C   0  0  2  0  0  0  0  0  0  0  0  0
   26.6691  -17.6286  -13.4221 C   0  0  0  0  0  0  0  0  0  0  0  0
   26.8559  -19.8783  -14.4608 C   0  0  2  0  0  0  0  0  0  0  0  0
   26.9426  -20.6818  -15.6327 N   0  0  0  0  0  0  0  0  0  0  0  0
   25.9292  -20.4862  -13.5006 C   0  0  0  0  0  0  0  0  0  0  0  0
   24.7484  -20.8303  -13.7860 O   0  0  0  0  0  0  0  0  0  0  0  0
   26.3517  -20.7120  -12.1648 N   0  0  0  0  0  0  0  0  0  0  0  0
   25.4857  -21.3479  -11.1911 C   0  0  1  0  0  0  0  0  0  0  0  0
   26.2105  -22.0235  -10.0767 C   0  0  0  0  0  0  0  0  0  0  0  0
   26.8333  -21.1277   -9.0951 C   0  0  0  0  0  0  0  0  0  0  0  0
   26.0932  -20.2545   -8.3141 C   0  0  0  0  0  0  0  0  0  0  0  0
   26.6895  -19.4212   -7.3886 C   0  0  0  0  0  0  0  0  0  0  0  0
   28.0467  -19.4252   -7.2051 C   0  0  0  0  0  0  0  0  0  0  0  0
   28.8040  -20.2865   -7.9715 C   0  0  0  0  0  0  0  0  0  0  0  0
   28.1943  -21.1249   -8.9038 C   0  0  0  0  0  0  0  0  0  0  0  0
   24.4654  -20.3767  -10.6899 C   0  0  0  0  0  0  0  0  0  0  0  0
   24.6849  -19.1490  -10.7070 O   0  0  0  0  0  0  0  0  0  0  0  0
   23.2630  -20.8404  -10.2007 O   0  0  0  0  0  0  0  0  0  0  0  0
  2  1  1  0
  3  2  1  0
  3  4  2  0
  6  7  1  0
  6  5  1  0
  7  8  1  1
  9 10  1  6
  9  7  1  0
 10  3  1  0
 11  9  1  0
 12 11  2  0
 13 11  1  0
 14 13  1  0
 14 15  1  1
 15 16  1  0
 16 17  2  0
 17 18  1  0
 19 18  2  0
 20 19  1  0
 21 16  1  0
 21 20  2  0
 22 14  1  0
 22 24  1  0
 23 22  2  0
M  END
$$$$
