VHS.pdb
     RDKit          3D

 24 24  0  0  1  0  0  0  0  0999 V2000
   13.9339  -12.9348  -10.6773 C   0  0  0  0  0  0  0  0  0  0  0  0
   13.8967  -11.4515  -10.3722 C   0  0  2  0  0  0  0  0  0  0  0  0
   12.6850  -10.8820  -11.0819 C   0  0  0  0  0  0  0  0  0  0  0  0
   15.1116  -10.7712  -10.9517 C   0  0  2  0  0  0  0  0  0  0  0  0
   16.2516  -11.1700  -10.1569 N   0  0  0  0  0  0  0  0  0  0  0  0
   14.9998   -9.3086  -10.9830 C   0  0  0  0  0  0  0  0  0  0  0  0
   14.1277   -8.7060  -11.6699 O   0  0  0  0  0  0  0  0  0  0  0  0
   15.9023   -8.5287  -10.2147 N   0  0  0  0  0  0  0  0  0  0  0  0
   15.9189   -7.1200  -10.0712 C   0  0  1  0  0  0  0  0  0  0  0  0
   15.8536   -6.6035   -8.6392 C   0  0  0  0  0  0  0  0  0  0  0  0
   14.5078   -6.7898   -8.0439 C   0  0  0  0  0  0  0  0  0  0  0  0
   14.0640   -7.9178   -7.3369 C   0  0  0  0  0  0  0  0  0  0  0  0
   12.7975   -7.7206   -6.9537 N   0  0  0  0  0  0  0  0  0  0  0  0
   12.4390   -6.5046   -7.4003 C   0  0  0  0  0  0  0  0  0  0  0  0
   13.4839   -5.9540   -8.0577 N   0  0  0  0  0  0  0  0  0  0  0  0
   16.9681   -6.3971  -10.7858 C   0  0  0  0  0  0  0  0  0  0  0  0
   18.1795   -6.6318  -10.4877 O   0  0  0  0  0  0  0  0  0  0  0  0
   17.6395   -6.5455  -14.3018 O   0  0  0  0  0  0  0  0  0  0  0  0
   17.5490   -5.1912  -14.0397 C   0  0  0  0  0  0  0  0  0  0  0  0
   17.8626   -4.8792  -12.5908 C   0  0  2  0  0  0  0  0  0  0  0  0
   16.7614   -5.4355  -11.8056 N   0  0  0  0  0  0  0  0  0  0  0  0
   17.8706   -3.4158  -12.3798 C   0  0  0  0  0  0  0  0  0  0  0  0
   16.9141   -2.8638  -11.7872 O   0  0  0  0  0  0  0  0  0  0  0  0
   18.9017   -2.5939  -12.8101 O   0  0  0  0  0  0  0  0  0  0  0  0
  2  1  1  6
  2  3  1  0
  4  6  1  0
  4  2  1  0
  4  5  1  1
  6  7  2  0
  8  6  1  0
  8  9  1  0
  9 10  1  1
 10 11  1  0
 11 15  1  0
 11 12  2  0
 12 13  1  0
 14 13  1  0
 15 14  2  0
 16 17  2  0
 16  9  1  0
 18 19  1  0
 20 19  1  6
 20 21  1  0
 21 16  1  0
 22 20  1  0
 22 24  1  0
 23 22  2  0
M  END
$$$$
