VHS.pdb
     RDKit          3D

 24 24  0  0  1  0  0  0  0  0999 V2000
   20.9664  -12.7951  -17.3748 C   0  0  0  0  0  0  0  0  0  0  0  0
   22.1727  -12.0991  -17.9706 C   0  0  2  0  0  0  0  0  0  0  0  0
   23.3228  -13.0847  -17.9233 C   0  0  0  0  0  0  0  0  0  0  0  0
   22.5645  -10.9179  -17.1187 C   0  0  2  0  0  0  0  0  0  0  0  0
   22.9468  -11.4277  -15.8209 N   0  0  0  0  0  0  0  0  0  0  0  0
   21.4967   -9.9213  -16.9795 C   0  0  0  0  0  0  0  0  0  0  0  0
   21.0236   -9.2870  -17.9639 O   0  0  0  0  0  0  0  0  0  0  0  0
   20.9659   -9.6506  -15.6919 N   0  0  0  0  0  0  0  0  0  0  0  0
   19.9313   -8.7430  -15.3586 C   0  0  1  0  0  0  0  0  0  0  0  0
   18.6394   -9.3740  -14.8543 C   0  0  0  0  0  0  0  0  0  0  0  0
   17.9090  -10.0801  -15.9351 C   0  0  0  0  0  0  0  0  0  0  0  0
   17.2244   -9.4784  -17.0021 C   0  0  0  0  0  0  0  0  0  0  0  0
   16.6925  -10.4343  -17.7722 N   0  0  0  0  0  0  0  0  0  0  0  0
   17.0248  -11.6127  -17.2176 C   0  0  0  0  0  0  0  0  0  0  0  0
   17.7605  -11.3822  -16.1073 N   0  0  0  0  0  0  0  0  0  0  0  0
   20.2874   -7.6313  -14.4802 C   0  0  0  0  0  0  0  0  0  0  0  0
   20.8301   -7.8896  -13.3621 O   0  0  0  0  0  0  0  0  0  0  0  0
   23.0333   -4.3668  -13.8509 O   0  0  0  0  0  0  0  0  0  0  0  0
   22.2656   -5.4164  -14.3197 C   0  0  0  0  0  0  0  0  0  0  0  0
   20.7918   -5.1986  -14.0450 C   0  0  2  0  0  0  0  0  0  0  0  0
   20.0820   -6.2579  -14.7609 N   0  0  0  0  0  0  0  0  0  0  0  0
   20.3583   -3.9040  -14.6126 C   0  0  0  0  0  0  0  0  0  0  0  0
   20.4323   -2.8613  -13.9211 O   0  0  0  0  0  0  0  0  0  0  0  0
   19.8607   -3.7700  -15.9004 O   0  0  0  0  0  0  0  0  0  0  0  0
  2  1  1  1
  2  3  1  0
  4  6  1  0
  4  2  1  0
  4  5  1  1
  6  7  2  0
  8  6  1  0
  8  9  1  0
  9 10  1  1
 10 11  1  0
 11 15  1  0
 11 12  2  0
 12 13  1  0
 14 13  1  0
 15 14  2  0
 16 17  2  0
 16  9  1  0
 18 19  1  0
 20 19  1  6
 20 21  1  0
 21 16  1  0
 22 20  1  0
 22 24  1  0
 23 22  2  0
M  END
$$$$
