VHS.pdb
     RDKit          3D

 24 24  0  0  1  0  0  0  0  0999 V2000
   20.4707  -13.7604  -18.2227 C   0  0  0  0  0  0  0  0  0  0  0  0
   21.1657  -12.8743  -17.2097 C   0  0  2  0  0  0  0  0  0  0  0  0
   20.7244  -13.3383  -15.8363 C   0  0  0  0  0  0  0  0  0  0  0  0
   20.7053  -11.4466  -17.3655 C   0  0  2  0  0  0  0  0  0  0  0  0
   20.8630  -11.0902  -18.7579 N   0  0  0  0  0  0  0  0  0  0  0  0
   21.4368  -10.5031  -16.5128 C   0  0  0  0  0  0  0  0  0  0  0  0
   21.4162  -10.5669  -15.2515 O   0  0  0  0  0  0  0  0  0  0  0  0
   22.2019   -9.4728  -17.1178 N   0  0  0  0  0  0  0  0  0  0  0  0
   22.9496   -8.4596  -16.4700 C   0  0  1  0  0  0  0  0  0  0  0  0
   24.4214   -8.3792  -16.8558 C   0  0  0  0  0  0  0  0  0  0  0  0
   25.1521   -9.6243  -16.5154 C   0  0  0  0  0  0  0  0  0  0  0  0
   25.8559   -9.8730  -15.3271 C   0  0  0  0  0  0  0  0  0  0  0  0
   26.3814  -11.1020  -15.3818 N   0  0  0  0  0  0  0  0  0  0  0  0
   26.0266  -11.6264  -16.5674 C   0  0  0  0  0  0  0  0  0  0  0  0
   25.2834  -10.7208  -17.2418 N   0  0  0  0  0  0  0  0  0  0  0  0
   22.3842   -7.1126  -16.4837 C   0  0  0  0  0  0  0  0  0  0  0  0
   22.0856   -6.5898  -17.6013 O   0  0  0  0  0  0  0  0  0  0  0  0
   19.3893   -3.9370  -15.2783 O   0  0  0  0  0  0  0  0  0  0  0  0
   20.0521   -5.1501  -15.2620 C   0  0  0  0  0  0  0  0  0  0  0  0
   21.5461   -4.9744  -15.4408 C   0  0  2  0  0  0  0  0  0  0  0  0
   22.1293   -6.3118  -15.3430 N   0  0  0  0  0  0  0  0  0  0  0  0
   22.0951   -4.1626  -14.3336 C   0  0  0  0  0  0  0  0  0  0  0  0
   22.6103   -4.7266  -13.3399 O   0  0  0  0  0  0  0  0  0  0  0  0
   22.0739   -2.7757  -14.3281 O   0  0  0  0  0  0  0  0  0  0  0  0
  2  1  1  6
  2  3  1  0
  4  6  1  0
  4  2  1  0
  4  5  1  6
  6  7  2  0
  8  6  1  0
  8  9  1  0
  9 10  1  6
 10 11  1  0
 11 15  1  0
 11 12  2  0
 12 13  1  0
 14 13  1  0
 15 14  2  0
 16 17  2  0
 16  9  1  0
 18 19  1  0
 20 19  1  1
 20 21  1  0
 21 16  1  0
 22 20  1  0
 22 24  1  0
 23 22  2  0
M  END
$$$$
