VHS.pdb
     RDKit          3D

 24 24  0  0  1  0  0  0  0  0999 V2000
   18.6319  -11.2207  -20.2466 C   0  0  0  0  0  0  0  0  0  0  0  0
   19.0950  -10.6792  -18.9099 C   0  0  2  0  0  0  0  0  0  0  0  0
   18.9586   -9.1712  -18.9699 C   0  0  0  0  0  0  0  0  0  0  0  0
   20.5573  -10.9852  -18.7036 C   0  0  2  0  0  0  0  0  0  0  0  0
   20.6935  -12.4230  -18.6365 N   0  0  0  0  0  0  0  0  0  0  0  0
   21.1172  -10.3642  -17.4980 C   0  0  0  0  0  0  0  0  0  0  0  0
   20.7349  -10.6696  -16.3335 O   0  0  0  0  0  0  0  0  0  0  0  0
   22.1295   -9.3794  -17.6328 N   0  0  0  0  0  0  0  0  0  0  0  0
   22.7468   -8.6300  -16.6020 C   0  0  1  0  0  0  0  0  0  0  0  0
   24.2695   -8.5891  -16.6394 C   0  0  0  0  0  0  0  0  0  0  0  0
   24.8667   -9.9148  -16.3458 C   0  0  0  0  0  0  0  0  0  0  0  0
   24.1692  -11.0708  -15.9631 C   0  0  0  0  0  0  0  0  0  0  0  0
   25.0433  -12.0682  -15.7875 N   0  0  0  0  0  0  0  0  0  0  0  0
   26.2636  -11.5689  -16.0489 C   0  0  0  0  0  0  0  0  0  0  0  0
   26.1405  -10.2655  -16.3851 N   0  0  0  0  0  0  0  0  0  0  0  0
   22.2441   -7.2765  -16.3796 C   0  0  0  0  0  0  0  0  0  0  0  0
   22.2569   -6.4562  -17.3483 O   0  0  0  0  0  0  0  0  0  0  0  0
   19.3574   -4.2773  -14.0327 O   0  0  0  0  0  0  0  0  0  0  0  0
   19.8870   -5.5210  -14.3218 C   0  0  0  0  0  0  0  0  0  0  0  0
   21.2258   -5.4104  -15.0220 C   0  0  2  0  0  0  0  0  0  0  0  0
   21.7299   -6.7765  -15.1577 N   0  0  0  0  0  0  0  0  0  0  0  0
   22.1786   -4.6620  -14.1745 C   0  0  0  0  0  0  0  0  0  0  0  0
   22.0258   -3.4306  -13.9985 O   0  0  0  0  0  0  0  0  0  0  0  0
   23.2617   -5.2572  -13.5447 O   0  0  0  0  0  0  0  0  0  0  0  0
  2  1  1  6
  2  3  1  0
  4  6  1  0
  4  2  1  0
  4  5  1  1
  6  7  2  0
  8  6  1  0
  8  9  1  0
  9 10  1  6
 10 11  1  0
 11 15  1  0
 11 12  2  0
 12 13  1  0
 14 13  1  0
 15 14  2  0
 16 17  2  0
 16  9  1  0
 18 19  1  0
 20 19  1  1
 20 21  1  0
 21 16  1  0
 22 20  1  0
 22 24  1  0
 23 22  2  0
M  END
$$$$
