VHS.pdb
     RDKit          3D

 24 24  0  0  1  0  0  0  0  0999 V2000
   14.6123   -9.1233  -10.5957 C   0  0  0  0  0  0  0  0  0  0  0  0
   15.1335   -8.5954   -9.2751 C   0  0  2  0  0  0  0  0  0  0  0  0
   13.9414   -8.0571   -8.5099 C   0  0  0  0  0  0  0  0  0  0  0  0
   16.0696   -7.4368   -9.5116 C   0  0  2  0  0  0  0  0  0  0  0  0
   15.2666   -6.3096   -9.9301 N   0  0  0  0  0  0  0  0  0  0  0  0
   17.1067   -7.7212  -10.5097 C   0  0  0  0  0  0  0  0  0  0  0  0
   18.0448   -8.5415  -10.3034 O   0  0  0  0  0  0  0  0  0  0  0  0
   17.0648   -7.0540  -11.7611 N   0  0  0  0  0  0  0  0  0  0  0  0
   18.0059   -7.1388  -12.8159 C   0  0  1  0  0  0  0  0  0  0  0  0
   17.4863   -7.7425  -14.1147 C   0  0  0  0  0  0  0  0  0  0  0  0
   17.1754   -9.1856  -13.9694 C   0  0  0  0  0  0  0  0  0  0  0  0
   18.1085  -10.2220  -13.8124 C   0  0  0  0  0  0  0  0  0  0  0  0
   17.4545  -11.3847  -13.7126 N   0  0  0  0  0  0  0  0  0  0  0  0
   16.1430  -11.1044  -13.8027 C   0  0  0  0  0  0  0  0  0  0  0  0
   15.9901   -9.7704  -13.9577 N   0  0  0  0  0  0  0  0  0  0  0  0
   18.7576   -5.9254  -13.1274 C   0  0  0  0  0  0  0  0  0  0  0  0
   18.1555   -4.8088  -13.0825 O   0  0  0  0  0  0  0  0  0  0  0  0
   22.4673   -4.8485  -12.1455 O   0  0  0  0  0  0  0  0  0  0  0  0
   22.2576   -4.8058  -13.5113 C   0  0  0  0  0  0  0  0  0  0  0  0
   20.7922   -4.6200  -13.8472 C   0  0  2  0  0  0  0  0  0  0  0  0
   20.1278   -5.8709  -13.4834 N   0  0  0  0  0  0  0  0  0  0  0  0
   20.6282   -4.4314  -15.3045 C   0  0  0  0  0  0  0  0  0  0  0  0
   20.4312   -5.4228  -16.0455 O   0  0  0  0  0  0  0  0  0  0  0  0
   20.6807   -3.1886  -15.9183 O   0  0  0  0  0  0  0  0  0  0  0  0
  2  1  1  6
  2  3  1  0
  4  6  1  0
  4  2  1  0
  4  5  1  6
  6  7  2  0
  8  6  1  0
  8  9  1  0
  9 10  1  6
 10 11  1  0
 11 15  1  0
 11 12  2  0
 12 13  1  0
 14 13  1  0
 15 14  2  0
 16 17  2  0
 16  9  1  0
 18 19  1  0
 20 19  1  6
 20 21  1  0
 21 16  1  0
 22 20  1  0
 22 24  1  0
 23 22  2  0
M  END
$$$$
