VHS.pdb
     RDKit          3D

 24 24  0  0  1  0  0  0  0  0999 V2000
   16.5890  -11.2210  -16.9889 C   0  0  0  0  0  0  0  0  0  0  0  0
   17.5232  -10.1746  -16.4172 C   0  0  2  0  0  0  0  0  0  0  0  0
   17.2741   -8.8906  -17.1823 C   0  0  0  0  0  0  0  0  0  0  0  0
   18.9580  -10.5681  -16.6647 C   0  0  2  0  0  0  0  0  0  0  0  0
   19.2166  -11.7668  -15.8988 N   0  0  0  0  0  0  0  0  0  0  0  0
   19.9190   -9.5187  -16.3073 C   0  0  0  0  0  0  0  0  0  0  0  0
   20.0574   -9.0948  -15.1255 O   0  0  0  0  0  0  0  0  0  0  0  0
   20.7314   -8.9492  -17.3216 N   0  0  0  0  0  0  0  0  0  0  0  0
   21.6698   -7.8974  -17.1861 C   0  0  1  0  0  0  0  0  0  0  0  0
   23.1144   -8.2587  -17.5083 C   0  0  0  0  0  0  0  0  0  0  0  0
   23.5877   -9.4154  -16.7094 C   0  0  0  0  0  0  0  0  0  0  0  0
   24.1079   -9.3649  -15.4071 C   0  0  0  0  0  0  0  0  0  0  0  0
   24.4253  -10.6046  -15.0170 N   0  0  0  0  0  0  0  0  0  0  0  0
   24.1187  -11.4255  -16.0362 C   0  0  0  0  0  0  0  0  0  0  0  0
   23.6132  -10.6916  -17.0526 N   0  0  0  0  0  0  0  0  0  0  0  0
   21.3423   -6.6336  -17.8417 C   0  0  0  0  0  0  0  0  0  0  0  0
   21.0543   -6.6466  -19.0780 O   0  0  0  0  0  0  0  0  0  0  0  0
   18.9633   -3.7265  -16.4781 O   0  0  0  0  0  0  0  0  0  0  0  0
   20.2194   -3.2800  -16.8438 C   0  0  0  0  0  0  0  0  0  0  0  0
   20.8398   -4.1627  -17.9072 C   0  0  2  0  0  0  0  0  0  0  0  0
   21.3131   -5.3621  -17.2173 N   0  0  0  0  0  0  0  0  0  0  0  0
   22.0166   -3.4903  -18.4981 C   0  0  0  0  0  0  0  0  0  0  0  0
   23.1659   -3.9467  -18.2944 O   0  0  0  0  0  0  0  0  0  0  0  0
   21.9227   -2.3529  -19.2865 O   0  0  0  0  0  0  0  0  0  0  0  0
  2  1  1  6
  2  3  1  0
  4  6  1  0
  4  2  1  0
  4  5  1  1
  6  7  2  0
  8  6  1  0
  8  9  1  0
  9 10  1  6
 10 11  1  0
 11 15  1  0
 11 12  2  0
 12 13  1  0
 14 13  1  0
 15 14  2  0
 16 17  2  0
 16  9  1  0
 18 19  1  0
 20 19  1  1
 20 21  1  0
 21 16  1  0
 22 20  1  0
 22 24  1  0
 23 22  2  0
M  END
$$$$
