VHS.pdb
     RDKit          3D

 24 24  0  0  1  0  0  0  0  0999 V2000
   20.9278  -14.3806  -18.2970 C   0  0  0  0  0  0  0  0  0  0  0  0
   20.6215  -12.8993  -18.2166 C   0  0  2  0  0  0  0  0  0  0  0  0
   21.9322  -12.1634  -18.4082 C   0  0  0  0  0  0  0  0  0  0  0  0
   20.1116  -12.5480  -16.8414 C   0  0  2  0  0  0  0  0  0  0  0  0
   18.9820  -13.4073  -16.5658 N   0  0  0  0  0  0  0  0  0  0  0  0
   19.7240  -11.1393  -16.7070 C   0  0  0  0  0  0  0  0  0  0  0  0
   19.1212  -10.5080  -17.6199 O   0  0  0  0  0  0  0  0  0  0  0  0
   20.0335  -10.4475  -15.5076 N   0  0  0  0  0  0  0  0  0  0  0  0
   19.7316   -9.1020  -15.1853 C   0  0  1  0  0  0  0  0  0  0  0  0
   18.5923   -8.9025  -14.1934 C   0  0  0  0  0  0  0  0  0  0  0  0
   17.3227   -9.4942  -14.6816 C   0  0  0  0  0  0  0  0  0  0  0  0
   16.4488   -8.9219  -15.6186 C   0  0  0  0  0  0  0  0  0  0  0  0
   15.4131   -9.7470  -15.8082 N   0  0  0  0  0  0  0  0  0  0  0  0
   15.6150  -10.8155  -15.0182 C   0  0  0  0  0  0  0  0  0  0  0  0
   16.7740  -10.6480  -14.3430 N   0  0  0  0  0  0  0  0  0  0  0  0
   20.8524   -8.2508  -14.7936 C   0  0  0  0  0  0  0  0  0  0  0  0
   21.7093   -8.7108  -13.9778 O   0  0  0  0  0  0  0  0  0  0  0  0
   22.6540   -5.6594  -17.2581 O   0  0  0  0  0  0  0  0  0  0  0  0
   22.4410   -5.1235  -16.0018 C   0  0  0  0  0  0  0  0  0  0  0  0
   22.3171   -6.2030  -14.9462 C   0  0  2  0  0  0  0  0  0  0  0  0
   21.0833   -6.9284  -15.2467 N   0  0  0  0  0  0  0  0  0  0  0  0
   22.1628   -5.5878  -13.6105 C   0  0  0  0  0  0  0  0  0  0  0  0
   21.0527   -5.6230  -13.0299 O   0  0  0  0  0  0  0  0  0  0  0  0
   23.2017   -4.9564  -12.9427 O   0  0  0  0  0  0  0  0  0  0  0  0
  2  1  1  1
  2  3  1  0
  4  6  1  0
  4  2  1  0
  4  5  1  6
  6  7  2  0
  8  6  1  0
  8  9  1  0
  9 10  1  1
 10 11  1  0
 11 15  1  0
 11 12  2  0
 12 13  1  0
 14 13  1  0
 15 14  2  0
 16 17  2  0
 16  9  1  0
 18 19  1  0
 20 19  1  6
 20 21  1  0
 21 16  1  0
 22 20  1  0
 22 24  1  0
 23 22  2  0
M  END
$$$$
