VHS.pdb
     RDKit          3D

 24 24  0  0  1  0  0  0  0  0999 V2000
   19.3668  -13.0300  -18.1961 C   0  0  0  0  0  0  0  0  0  0  0  0
   19.9036  -12.2207  -19.3585 C   0  0  2  0  0  0  0  0  0  0  0  0
   20.6499  -13.1814  -20.2620 C   0  0  0  0  0  0  0  0  0  0  0  0
   20.9044  -11.2053  -18.8665 C   0  0  2  0  0  0  0  0  0  0  0  0
   21.8733  -11.9093  -18.0566 N   0  0  0  0  0  0  0  0  0  0  0  0
   20.2957  -10.1138  -18.0979 C   0  0  0  0  0  0  0  0  0  0  0  0
   19.3938   -9.3669  -18.5713 O   0  0  0  0  0  0  0  0  0  0  0  0
   20.7295   -9.8779  -16.7677 N   0  0  0  0  0  0  0  0  0  0  0  0
   20.2139   -8.9338  -15.8468 C   0  0  1  0  0  0  0  0  0  0  0  0
   19.6148   -9.5164  -14.5728 C   0  0  0  0  0  0  0  0  0  0  0  0
   18.3994  -10.3205  -14.8494 C   0  0  0  0  0  0  0  0  0  0  0  0
   18.3330  -11.7198  -14.9306 C   0  0  0  0  0  0  0  0  0  0  0  0
   17.0720  -12.0810  -15.1934 N   0  0  0  0  0  0  0  0  0  0  0  0
   16.3512  -10.9497  -15.2784 C   0  0  0  0  0  0  0  0  0  0  0  0
   17.1679   -9.8933  -15.0681 N   0  0  0  0  0  0  0  0  0  0  0  0
   21.0858   -7.8172  -15.4902 C   0  0  0  0  0  0  0  0  0  0  0  0
   22.3094   -8.0541  -15.2489 O   0  0  0  0  0  0  0  0  0  0  0  0
   21.7643   -3.0011  -15.2581 O   0  0  0  0  0  0  0  0  0  0  0  0
   21.0084   -4.1098  -15.5904 C   0  0  0  0  0  0  0  0  0  0  0  0
   21.6398   -5.3902  -15.0838 C   0  0  2  0  0  0  0  0  0  0  0  0
   20.6902   -6.4608  -15.3849 N   0  0  0  0  0  0  0  0  0  0  0  0
   21.7970   -5.3289  -13.6149 C   0  0  0  0  0  0  0  0  0  0  0  0
   20.9082   -5.8043  -12.8700 O   0  0  0  0  0  0  0  0  0  0  0  0
   22.8997   -4.7611  -12.9940 O   0  0  0  0  0  0  0  0  0  0  0  0
  2  1  1  1
  2  3  1  0
  4  6  1  0
  4  2  1  0
  4  5  1  1
  6  7  2  0
  8  6  1  0
  8  9  1  0
  9 10  1  1
 10 11  1  0
 11 15  1  0
 11 12  2  0
 12 13  1  0
 14 13  1  0
 15 14  2  0
 16 17  2  0
 16  9  1  0
 18 19  1  0
 20 19  1  1
 20 21  1  0
 21 16  1  0
 22 20  1  0
 22 24  1  0
 23 22  2  0
M  END
$$$$
