VHS.pdb
     RDKit          3D

 24 24  0  0  1  0  0  0  0  0999 V2000
   20.1569  -13.1227  -18.1208 C   0  0  0  0  0  0  0  0  0  0  0  0
   20.7942  -12.4086  -19.2948 C   0  0  2  0  0  0  0  0  0  0  0  0
   21.6866  -13.4134  -19.9951 C   0  0  0  0  0  0  0  0  0  0  0  0
   21.6816  -11.2921  -18.8045 C   0  0  2  0  0  0  0  0  0  0  0  0
   22.7424  -11.8919  -18.0264 N   0  0  0  0  0  0  0  0  0  0  0  0
   20.9679  -10.2903  -18.0047 C   0  0  0  0  0  0  0  0  0  0  0  0
   19.9666   -9.6564  -18.4416 O   0  0  0  0  0  0  0  0  0  0  0  0
   21.4112  -10.0137  -16.6855 N   0  0  0  0  0  0  0  0  0  0  0  0
   20.8158   -9.1439  -15.7400 C   0  0  1  0  0  0  0  0  0  0  0  0
   20.2010   -9.8190  -14.5203 C   0  0  0  0  0  0  0  0  0  0  0  0
   19.0027  -10.6183  -14.8746 C   0  0  0  0  0  0  0  0  0  0  0  0
   18.9419  -12.0161  -14.9824 C   0  0  0  0  0  0  0  0  0  0  0  0
   17.6970  -12.3728  -15.3180 N   0  0  0  0  0  0  0  0  0  0  0  0
   16.9807  -11.2403  -15.4225 C   0  0  0  0  0  0  0  0  0  0  0  0
   17.7841  -10.1876  -15.1514 N   0  0  0  0  0  0  0  0  0  0  0  0
   21.6169   -8.0060  -15.2955 C   0  0  0  0  0  0  0  0  0  0  0  0
   22.7113   -8.2312  -14.6929 O   0  0  0  0  0  0  0  0  0  0  0  0
   20.3697   -4.0854  -15.5994 O   0  0  0  0  0  0  0  0  0  0  0  0
   21.7079   -4.3269  -15.8480 C   0  0  0  0  0  0  0  0  0  0  0  0
   22.2000   -5.5586  -15.1161 C   0  0  2  0  0  0  0  0  0  0  0  0
   21.2844   -6.6406  -15.4758 N   0  0  0  0  0  0  0  0  0  0  0  0
   22.0995   -5.3517  -13.6554 C   0  0  0  0  0  0  0  0  0  0  0  0
   21.2783   -6.0193  -12.9840 O   0  0  0  0  0  0  0  0  0  0  0  0
   22.8811   -4.4379  -12.9641 O   0  0  0  0  0  0  0  0  0  0  0  0
  2  1  1  1
  2  3  1  0
  4  6  1  0
  4  2  1  0
  4  5  1  1
  6  7  2  0
  8  6  1  0
  8  9  1  0
  9 10  1  1
 10 11  1  0
 11 15  1  0
 11 12  2  0
 12 13  1  0
 14 13  1  0
 15 14  2  0
 16 17  2  0
 16  9  1  0
 18 19  1  0
 20 19  1  6
 20 21  1  0
 21 16  1  0
 22 20  1  0
 22 24  1  0
 23 22  2  0
M  END
$$$$
