VHS.pdb
     RDKit          3D

 24 24  0  0  1  0  0  0  0  0999 V2000
   20.7542  -12.2113    6.4536 C   0  0  0  0  0  0  0  0  0  0  0  0
   19.7656  -12.8734    5.5163 C   0  0  2  0  0  0  0  0  0  0  0  0
   19.3827  -11.8426    4.4736 C   0  0  0  0  0  0  0  0  0  0  0  0
   18.5070  -13.2393    6.2624 C   0  0  2  0  0  0  0  0  0  0  0  0
   18.0020  -12.0324    6.8778 N   0  0  0  0  0  0  0  0  0  0  0  0
   18.7134  -14.2795    7.2763 C   0  0  0  0  0  0  0  0  0  0  0  0
   18.8988  -14.0142    8.4972 O   0  0  0  0  0  0  0  0  0  0  0  0
   18.7066  -15.6422    6.8815 N   0  0  0  0  0  0  0  0  0  0  0  0
   18.9426  -16.7772    7.6948 C   0  0  1  0  0  0  0  0  0  0  0  0
   18.1463  -18.0243    7.3316 C   0  0  0  0  0  0  0  0  0  0  0  0
   16.7044  -17.8716    7.6445 C   0  0  0  0  0  0  0  0  0  0  0  0
   16.1624  -17.4642    8.8731 C   0  0  0  0  0  0  0  0  0  0  0  0
   14.8283  -17.4440    8.7748 N   0  0  0  0  0  0  0  0  0  0  0  0
   14.5230  -17.8263    7.5229 C   0  0  0  0  0  0  0  0  0  0  0  0
   15.6681  -18.0815    6.8514 N   0  0  0  0  0  0  0  0  0  0  0  0
   20.3373  -17.1546    7.9108 C   0  0  0  0  0  0  0  0  0  0  0  0
   21.0450  -17.4690    6.9048 O   0  0  0  0  0  0  0  0  0  0  0  0
   23.1315  -15.5368   10.4156 O   0  0  0  0  0  0  0  0  0  0  0  0
   23.1599  -16.2137    9.2106 C   0  0  0  0  0  0  0  0  0  0  0  0
   22.4152  -17.5305    9.2904 C   0  0  2  0  0  0  0  0  0  0  0  0
   20.9950  -17.2048    9.1647 N   0  0  0  0  0  0  0  0  0  0  0  0
   22.6191  -18.1462   10.6191 C   0  0  0  0  0  0  0  0  0  0  0  0
   21.6710  -18.1976   11.4372 O   0  0  0  0  0  0  0  0  0  0  0  0
   23.8304  -18.6855   11.0264 O   0  0  0  0  0  0  0  0  0  0  0  0
  2  1  1  1
  2  3  1  0
  4  6  1  0
  4  2  1  0
  4  5  1  1
  6  7  2  0
  8  6  1  0
  8  9  1  0
  9 10  1  6
 10 11  1  0
 11 15  1  0
 11 12  2  0
 12 13  1  0
 14 13  1  0
 15 14  2  0
 16 17  2  0
 16  9  1  0
 18 19  1  0
 20 19  1  1
 20 21  1  0
 21 16  1  0
 22 20  1  0
 22 24  1  0
 23 22  2  0
M  END
$$$$
