PVD.pdb
     RDKit          3D

 23 23  0  0  1  0  0  0  0  0999 V2000
    8.2132  -14.7841   20.3464 N   0  0  0  0  0  0  0  0  0  0  0  0
    7.3367  -15.3117   19.2927 C   0  0  0  0  0  0  0  0  0  0  0  0
    6.5614  -16.4390   19.9731 C   0  0  0  0  0  0  0  0  0  0  0  0
    6.8465  -16.2632   21.4493 C   0  0  0  0  0  0  0  0  0  0  0  0
    7.3412  -14.8327   21.4907 C   0  0  1  0  0  0  0  0  0  0  0  0
    8.0991  -14.5877   22.7648 C   0  0  0  0  0  0  0  0  0  0  0  0
    9.3400  -14.7642   22.7504 O   0  0  0  0  0  0  0  0  0  0  0  0
    6.6524  -11.7755   25.3271 C   0  0  0  0  0  0  0  0  0  0  0  0
    6.8708  -13.1043   26.0319 C   0  0  2  0  0  0  0  0  0  0  0  0
    7.4883  -12.8496   27.3753 C   0  0  0  0  0  0  0  0  0  0  0  0
    7.7878  -13.9744   25.2152 C   0  0  2  0  0  0  0  0  0  0  0  0
    7.3606  -14.1791   23.8783 N   0  0  0  0  0  0  0  0  0  0  0  0
    8.3196  -15.1509   25.8790 C   0  0  0  0  0  0  0  0  0  0  0  0
    7.5563  -16.0622   26.2747 O   0  0  0  0  0  0  0  0  0  0  0  0
    9.7337  -15.3137   26.1060 N   0  0  0  0  0  0  0  0  0  0  0  0
   10.2780  -16.5015   26.6944 C   0  0  1  0  0  0  0  0  0  0  0  0
   11.7577  -16.6013   26.4363 C   0  0  0  0  0  0  0  0  0  0  0  0
   12.2216  -17.9442   26.0718 C   0  0  0  0  0  0  0  0  0  0  0  0
   11.4280  -18.9187   26.1217 O   0  0  0  0  0  0  0  0  0  0  0  0
    9.9849  -16.6100   28.1413 C   0  0  0  0  0  0  0  0  0  0  0  0
   10.1123  -15.5361   28.9981 O   0  0  0  0  0  0  0  0  0  0  0  0
   13.5158  -18.2010   25.6672 O   0  0  0  0  0  0  0  0  0  0  0  0
    9.6100  -17.7100   28.6015 O   0  0  0  0  0  0  0  0  0  0  0  0
  1  2  1  0
  2  3  1  0
  4  3  1  0
  5  1  1  0
  5  4  1  0
  5  6  1  1
  6  7  2  0
  9  8  1  6
  9 11  1  0
 10  9  1  0
 11 12  1  6
 11 13  1  0
 12  6  1  0
 13 15  1  0
 14 13  2  0
 15 16  1  0
 16 20  1  0
 16 17  1  1
 17 18  1  0
 18 22  1  0
 18 19  2  0
 20 23  2  0
 20 21  1  0
M  END
$$$$
