PVD.pdb
     RDKit          3D

 23 23  0  0  1  0  0  0  0  0999 V2000
    6.9128  -14.5091   20.9541 N   0  0  0  0  0  0  0  0  0  0  0  0
    6.6755  -14.2638   19.5257 C   0  0  0  0  0  0  0  0  0  0  0  0
    7.4234  -12.9634   19.2345 C   0  0  0  0  0  0  0  0  0  0  0  0
    8.2797  -12.7314   20.4610 C   0  0  0  0  0  0  0  0  0  0  0  0
    8.2900  -14.1110   21.0848 C   0  0  1  0  0  0  0  0  0  0  0  0
    8.6966  -14.0193   22.5284 C   0  0  0  0  0  0  0  0  0  0  0  0
    9.9162  -13.8859   22.7853 O   0  0  0  0  0  0  0  0  0  0  0  0
    6.6667  -11.8047   24.8746 C   0  0  0  0  0  0  0  0  0  0  0  0
    6.7115  -13.1684   25.5444 C   0  0  2  0  0  0  0  0  0  0  0  0
    7.0348  -12.9887   26.9984 C   0  0  0  0  0  0  0  0  0  0  0  0
    7.7674  -14.0240   24.8978 C   0  0  2  0  0  0  0  0  0  0  0  0
    7.6795  -14.0903   23.4838 N   0  0  0  0  0  0  0  0  0  0  0  0
    8.0686  -15.2824   25.5560 C   0  0  0  0  0  0  0  0  0  0  0  0
    7.1567  -16.0987   25.8238 O   0  0  0  0  0  0  0  0  0  0  0  0
    9.4166  -15.6371   25.9231 N   0  0  0  0  0  0  0  0  0  0  0  0
    9.7477  -16.9299   26.4452 C   0  0  1  0  0  0  0  0  0  0  0  0
   10.8952  -17.5400   25.6855 C   0  0  0  0  0  0  0  0  0  0  0  0
   11.3794  -18.8113   26.2340 C   0  0  0  0  0  0  0  0  0  0  0  0
   10.6169  -19.8109   26.2719 O   0  0  0  0  0  0  0  0  0  0  0  0
   10.0285  -16.9060   27.8984 C   0  0  0  0  0  0  0  0  0  0  0  0
    9.8702  -18.0216   28.6946 O   0  0  0  0  0  0  0  0  0  0  0  0
   12.6597  -18.9721   26.7234 O   0  0  0  0  0  0  0  0  0  0  0  0
   10.4216  -15.8407   28.4208 O   0  0  0  0  0  0  0  0  0  0  0  0
  1  2  1  0
  2  3  1  0
  4  3  1  0
  5  1  1  0
  5  4  1  0
  5  6  1  1
  6  7  2  0
  9  8  1  6
  9 11  1  0
 10  9  1  0
 11 12  1  6
 11 13  1  0
 12  6  1  0
 13 15  1  0
 14 13  2  0
 15 16  1  0
 16 20  1  0
 16 17  1  6
 17 18  1  0
 18 22  1  0
 18 19  2  0
 20 23  2  0
 20 21  1  0
M  END
$$$$
