PVD.pdb
     RDKit          3D

 23 23  0  0  1  0  0  0  0  0999 V2000
    7.5036  -12.0446   25.7230 N   0  0  0  0  0  0  0  0  0  0  0  0
    6.8799  -11.0576   26.6141 C   0  0  0  0  0  0  0  0  0  0  0  0
    5.4685  -11.5950   26.8470 C   0  0  0  0  0  0  0  0  0  0  0  0
    5.5029  -13.0084   26.3062 C   0  0  0  0  0  0  0  0  0  0  0  0
    6.9924  -13.2769   26.2636 C   0  0  1  0  0  0  0  0  0  0  0  0
    7.2801  -14.4343   25.3495 C   0  0  0  0  0  0  0  0  0  0  0  0
    6.8005  -15.5521   25.6524 O   0  0  0  0  0  0  0  0  0  0  0  0
    6.8246  -14.1310   21.6565 C   0  0  0  0  0  0  0  0  0  0  0  0
    8.2675  -14.5837   21.8089 C   0  0  2  0  0  0  0  0  0  0  0  0
    8.5350  -15.6985   20.8410 C   0  0  0  0  0  0  0  0  0  0  0  0
    8.5079  -15.0699   23.2127 C   0  0  2  0  0  0  0  0  0  0  0  0
    8.0657  -14.1779   24.2229 N   0  0  0  0  0  0  0  0  0  0  0  0
    9.7915  -15.6992   23.4653 C   0  0  0  0  0  0  0  0  0  0  0  0
   10.8266  -15.0075   23.6061 O   0  0  0  0  0  0  0  0  0  0  0  0
    9.9226  -17.1314   23.5628 N   0  0  0  0  0  0  0  0  0  0  0  0
   11.1936  -17.7686   23.7417 C   0  0  1  0  0  0  0  0  0  0  0  0
   11.0763  -18.9565   24.6589 C   0  0  0  0  0  0  0  0  0  0  0  0
   10.8569  -18.6162   26.0688 C   0  0  0  0  0  0  0  0  0  0  0  0
   11.4479  -17.6289   26.5766 O   0  0  0  0  0  0  0  0  0  0  0  0
   11.8283  -18.1504   22.4601 C   0  0  0  0  0  0  0  0  0  0  0  0
   13.1979  -18.1580   22.2933 O   0  0  0  0  0  0  0  0  0  0  0  0
   10.0152  -19.3409   26.8878 O   0  0  0  0  0  0  0  0  0  0  0  0
   11.0999  -18.4763   21.4981 O   0  0  0  0  0  0  0  0  0  0  0  0
  1  2  1  0
  2  3  1  0
  4  3  1  0
  5  1  1  0
  5  4  1  0
  5  6  1  6
  6  7  2  0
  9  8  1  1
  9 11  1  0
 10  9  1  0
 11 12  1  1
 11 13  1  0
 12  6  1  0
 13 15  1  0
 14 13  2  0
 15 16  1  0
 16 20  1  0
 16 17  1  1
 17 18  1  0
 18 22  1  0
 18 19  2  0
 20 23  2  0
 20 21  1  0
M  END
$$$$
