PVD.pdb
     RDKit          3D

 23 23  0  0  1  0  0  0  0  0999 V2000
    7.1217  -15.8190   21.9208 N   0  0  0  0  0  0  0  0  0  0  0  0
    6.6370  -15.8581   20.5350 C   0  0  0  0  0  0  0  0  0  0  0  0
    6.8027  -14.4239   20.0343 C   0  0  0  0  0  0  0  0  0  0  0  0
    7.6533  -13.7466   21.0875 C   0  0  0  0  0  0  0  0  0  0  0  0
    8.2549  -14.9396   21.7997 C   0  0  1  0  0  0  0  0  0  0  0  0
    8.7711  -14.5261   23.1489 C   0  0  0  0  0  0  0  0  0  0  0  0
    9.9611  -14.1402   23.2268 O   0  0  0  0  0  0  0  0  0  0  0  0
    6.5652  -12.3625   25.4566 C   0  0  0  0  0  0  0  0  0  0  0  0
    6.9507  -13.5937   26.2602 C   0  0  2  0  0  0  0  0  0  0  0  0
    7.3600  -13.1688   27.6397 C   0  0  0  0  0  0  0  0  0  0  0  0
    8.0975  -14.3041   25.5932 C   0  0  2  0  0  0  0  0  0  0  0  0
    7.8816  -14.6030   24.2237 N   0  0  0  0  0  0  0  0  0  0  0  0
    8.7358  -15.3583   26.3606 C   0  0  0  0  0  0  0  0  0  0  0  0
    8.0832  -16.3579   26.7407 O   0  0  0  0  0  0  0  0  0  0  0  0
   10.1326  -15.2952   26.7112 N   0  0  0  0  0  0  0  0  0  0  0  0
   10.7567  -16.2907   27.5316 C   0  0  1  0  0  0  0  0  0  0  0  0
   12.1474  -16.5966   27.0434 C   0  0  0  0  0  0  0  0  0  0  0  0
   12.2369  -16.8900   25.6089 C   0  0  0  0  0  0  0  0  0  0  0  0
   11.7512  -17.9572   25.1539 O   0  0  0  0  0  0  0  0  0  0  0  0
   10.7680  -15.9258   28.9661 C   0  0  0  0  0  0  0  0  0  0  0  0
   11.0604  -16.8433   29.9542 O   0  0  0  0  0  0  0  0  0  0  0  0
   12.8416  -16.0351   24.7100 O   0  0  0  0  0  0  0  0  0  0  0  0
   10.5039  -14.7485   29.2927 O   0  0  0  0  0  0  0  0  0  0  0  0
  1  2  1  0
  2  3  1  0
  4  3  1  0
  5  1  1  0
  5  4  1  0
  5  6  1  1
  6  7  2  0
  9  8  1  6
  9 11  1  0
 10  9  1  0
 11 12  1  6
 11 13  1  0
 12  6  1  0
 13 15  1  0
 14 13  2  0
 15 16  1  0
 16 20  1  0
 16 17  1  6
 17 18  1  0
 18 22  1  0
 18 19  2  0
 20 23  2  0
 20 21  1  0
M  END
$$$$
