PVD.pdb
     RDKit          3D

 23 23  0  0  1  0  0  0  0  0999 V2000
    6.9647  -14.5945   21.1772 N   0  0  0  0  0  0  0  0  0  0  0  0
    6.6312  -14.2621   19.7861 C   0  0  0  0  0  0  0  0  0  0  0  0
    7.3359  -12.9298   19.5347 C   0  0  0  0  0  0  0  0  0  0  0  0
    8.2658  -12.7595   20.7170 C   0  0  0  0  0  0  0  0  0  0  0  0
    8.3404  -14.1761   21.2462 C   0  0  1  0  0  0  0  0  0  0  0  0
    8.8380  -14.1696   22.6640 C   0  0  0  0  0  0  0  0  0  0  0  0
   10.0773  -14.1333   22.8487 O   0  0  0  0  0  0  0  0  0  0  0  0
    6.7965  -11.9719   25.0544 C   0  0  0  0  0  0  0  0  0  0  0  0
    6.9942  -13.2926   25.7804 C   0  0  2  0  0  0  0  0  0  0  0  0
    7.4280  -13.0157   27.1897 C   0  0  0  0  0  0  0  0  0  0  0  0
    8.0480  -14.1096   25.0826 C   0  0  2  0  0  0  0  0  0  0  0  0
    7.8773  -14.2050   23.6778 N   0  0  0  0  0  0  0  0  0  0  0  0
    8.4481  -15.3408   25.7396 C   0  0  0  0  0  0  0  0  0  0  0  0
    7.5913  -16.1789   26.1046 O   0  0  0  0  0  0  0  0  0  0  0  0
    9.8343  -15.6430   25.9946 N   0  0  0  0  0  0  0  0  0  0  0  0
   10.2445  -16.8695   26.6117 C   0  0  1  0  0  0  0  0  0  0  0  0
   11.6650  -17.2078   26.2461 C   0  0  0  0  0  0  0  0  0  0  0  0
   11.8820  -17.4556   24.8167 C   0  0  0  0  0  0  0  0  0  0  0  0
   10.8980  -17.6146   24.0497 O   0  0  0  0  0  0  0  0  0  0  0  0
   10.0643  -16.8596   28.0809 C   0  0  0  0  0  0  0  0  0  0  0  0
   10.1646  -15.7018   28.8245 O   0  0  0  0  0  0  0  0  0  0  0  0
   13.1408  -17.5255   24.2554 O   0  0  0  0  0  0  0  0  0  0  0  0
    9.8134  -17.9349   28.6665 O   0  0  0  0  0  0  0  0  0  0  0  0
  1  2  1  0
  2  3  1  0
  4  3  1  0
  5  1  1  0
  5  4  1  0
  5  6  1  1
  6  7  2  0
  9  8  1  6
  9 11  1  0
 10  9  1  0
 11 12  1  6
 11 13  1  0
 12  6  1  0
 13 15  1  0
 14 13  2  0
 15 16  1  0
 16 20  1  0
 16 17  1  1
 17 18  1  0
 18 22  1  0
 18 19  2  0
 20 23  2  0
 20 21  1  0
M  END
$$$$
