PVD.pdb
     RDKit          3D

 23 23  0  0  1  0  0  0  0  0999 V2000
    7.0424  -18.4873   18.5233 N   0  0  0  0  0  0  0  0  0  0  0  0
    6.4704  -19.0494   17.2929 C   0  0  0  0  0  0  0  0  0  0  0  0
    6.8052  -18.0203   16.2141 C   0  0  0  0  0  0  0  0  0  0  0  0
    7.8079  -17.0933   16.8672 C   0  0  0  0  0  0  0  0  0  0  0  0
    8.2787  -17.9352   18.0342 C   0  0  1  0  0  0  0  0  0  0  0  0
    8.9324  -17.0618   19.0674 C   0  0  0  0  0  0  0  0  0  0  0  0
   10.1155  -16.7008   18.8643 O   0  0  0  0  0  0  0  0  0  0  0  0
    6.8868  -14.0918   20.7246 C   0  0  0  0  0  0  0  0  0  0  0  0
    7.3660  -15.0500   21.8028 C   0  0  2  0  0  0  0  0  0  0  0  0
    7.8258  -14.2582   22.9914 C   0  0  0  0  0  0  0  0  0  0  0  0
    8.5074  -15.8808   21.2814 C   0  0  2  0  0  0  0  0  0  0  0  0
    8.1692  -16.7145   20.1851 N   0  0  0  0  0  0  0  0  0  0  0  0
    9.3665  -16.4929   22.2790 C   0  0  0  0  0  0  0  0  0  0  0  0
    9.0205  -17.5468   22.8614 O   0  0  0  0  0  0  0  0  0  0  0  0
   10.6390  -15.9163   22.6338 N   0  0  0  0  0  0  0  0  0  0  0  0
   11.5995  -16.6232   23.4283 C   0  0  1  0  0  0  0  0  0  0  0  0
   12.9672  -16.0091   23.2929 C   0  0  0  0  0  0  0  0  0  0  0  0
   14.0192  -16.6959   24.0501 C   0  0  0  0  0  0  0  0  0  0  0  0
   15.1429  -16.8990   23.5228 O   0  0  0  0  0  0  0  0  0  0  0  0
   11.2032  -16.7236   24.8510 C   0  0  0  0  0  0  0  0  0  0  0  0
   11.4816  -17.8395   25.6131 O   0  0  0  0  0  0  0  0  0  0  0  0
   13.8359  -17.1424   25.3430 O   0  0  0  0  0  0  0  0  0  0  0  0
   10.5967  -15.7665   25.3787 O   0  0  0  0  0  0  0  0  0  0  0  0
  1  2  1  0
  2  3  1  0
  4  3  1  0
  5  1  1  0
  5  4  1  0
  5  6  1  1
  6  7  2  0
  9  8  1  6
  9 11  1  0
 10  9  1  0
 11 12  1  1
 11 13  1  0
 12  6  1  0
 13 15  1  0
 14 13  2  0
 15 16  1  0
 16 20  1  0
 16 17  1  1
 17 18  1  0
 18 22  1  0
 18 19  2  0
 20 23  2  0
 20 21  1  0
M  END
$$$$
