PVD.pdb
     RDKit          3D

 23 23  0  0  1  0  0  0  0  0999 V2000
    6.9282  -14.5563   21.1323 N   0  0  0  0  0  0  0  0  0  0  0  0
    6.6533  -14.2980   19.7129 C   0  0  0  0  0  0  0  0  0  0  0  0
    7.4550  -13.0368   19.3944 C   0  0  0  0  0  0  0  0  0  0  0  0
    8.3647  -12.8493   20.5897 C   0  0  0  0  0  0  0  0  0  0  0  0
    8.3274  -14.2282   21.2140 C   0  0  1  0  0  0  0  0  0  0  0  0
    8.7888  -14.1584   22.6423 C   0  0  0  0  0  0  0  0  0  0  0  0
   10.0229  -14.1125   22.8567 O   0  0  0  0  0  0  0  0  0  0  0  0
    6.7541  -11.8820   24.9904 C   0  0  0  0  0  0  0  0  0  0  0  0
    6.8908  -13.2131   25.7113 C   0  0  2  0  0  0  0  0  0  0  0  0
    7.2876  -12.9593   27.1358 C   0  0  0  0  0  0  0  0  0  0  0  0
    7.9422  -14.0552   25.0402 C   0  0  2  0  0  0  0  0  0  0  0  0
    7.8026  -14.1501   23.6320 N   0  0  0  0  0  0  0  0  0  0  0  0
    8.2989  -15.2935   25.7087 C   0  0  0  0  0  0  0  0  0  0  0  0
    7.4402  -16.1842   25.9064 O   0  0  0  0  0  0  0  0  0  0  0  0
    9.6428  -15.5430   26.1663 N   0  0  0  0  0  0  0  0  0  0  0  0
   10.0394  -16.8089   26.7081 C   0  0  1  0  0  0  0  0  0  0  0  0
   11.2847  -17.3177   26.0326 C   0  0  0  0  0  0  0  0  0  0  0  0
   11.8095  -18.5694   26.5889 C   0  0  0  0  0  0  0  0  0  0  0  0
   11.0192  -19.4895   26.9220 O   0  0  0  0  0  0  0  0  0  0  0  0
   10.2112  -16.7744   28.1779 C   0  0  0  0  0  0  0  0  0  0  0  0
   10.1587  -17.9168   28.9497 O   0  0  0  0  0  0  0  0  0  0  0  0
   13.1585  -18.7960   26.7710 O   0  0  0  0  0  0  0  0  0  0  0  0
   10.4103  -15.6747   28.7377 O   0  0  0  0  0  0  0  0  0  0  0  0
  1  2  1  0
  2  3  1  0
  4  3  1  0
  5  1  1  0
  5  4  1  0
  5  6  1  1
  6  7  2  0
  9  8  1  6
  9 11  1  0
 10  9  1  0
 11 12  1  6
 11 13  1  0
 12  6  1  0
 13 15  1  0
 14 13  2  0
 15 16  1  0
 16 20  1  0
 16 17  1  6
 17 18  1  0
 18 22  1  0
 18 19  2  0
 20 23  2  0
 20 21  1  0
M  END
$$$$
