PVD.pdb
     RDKit          3D

 23 23  0  0  1  0  0  0  0  0999 V2000
    6.9420  -14.3465   20.8249 N   0  0  0  0  0  0  0  0  0  0  0  0
    6.6769  -13.9148   19.4464 C   0  0  0  0  0  0  0  0  0  0  0  0
    7.3572  -12.5508   19.3384 C   0  0  0  0  0  0  0  0  0  0  0  0
    8.2151  -12.4513   20.5816 C   0  0  0  0  0  0  0  0  0  0  0  0
    8.2996  -13.9027   21.0044 C   0  0  1  0  0  0  0  0  0  0  0  0
    8.7176  -13.9949   22.4447 C   0  0  0  0  0  0  0  0  0  0  0  0
    9.9444  -14.0534   22.6952 O   0  0  0  0  0  0  0  0  0  0  0  0
    6.8945  -11.7876   25.1030 C   0  0  0  0  0  0  0  0  0  0  0  0
    6.7879  -13.2366   25.5492 C   0  0  2  0  0  0  0  0  0  0  0  0
    7.0465  -13.3141   27.0250 C   0  0  0  0  0  0  0  0  0  0  0  0
    7.8012  -14.0752   24.8177 C   0  0  2  0  0  0  0  0  0  0  0  0
    7.7022  -14.0092   23.4044 N   0  0  0  0  0  0  0  0  0  0  0  0
    8.0502  -15.4000   25.3567 C   0  0  0  0  0  0  0  0  0  0  0  0
    7.1346  -16.2538   25.4046 O   0  0  0  0  0  0  0  0  0  0  0  0
    9.3493  -15.7799   25.8526 N   0  0  0  0  0  0  0  0  0  0  0  0
    9.6903  -17.1449   26.1248 C   0  0  1  0  0  0  0  0  0  0  0  0
   10.7154  -17.6497   25.1448 C   0  0  0  0  0  0  0  0  0  0  0  0
   11.1239  -19.0426   25.3565 C   0  0  0  0  0  0  0  0  0  0  0  0
   11.0930  -19.5382   26.5120 O   0  0  0  0  0  0  0  0  0  0  0  0
   10.1423  -17.3552   27.5186 C   0  0  0  0  0  0  0  0  0  0  0  0
    9.8461  -18.5058   28.2201 O   0  0  0  0  0  0  0  0  0  0  0  0
   11.5513  -19.8580   24.3284 O   0  0  0  0  0  0  0  0  0  0  0  0
   10.8138  -16.4616   28.0779 O   0  0  0  0  0  0  0  0  0  0  0  0
  1  2  1  0
  2  3  1  0
  4  3  1  0
  5  1  1  0
  5  4  1  0
  5  6  1  1
  6  7  2  0
  9  8  1  6
  9 11  1  0
 10  9  1  0
 11 12  1  6
 11 13  1  0
 12  6  1  0
 13 15  1  0
 14 13  2  0
 15 16  1  0
 16 20  1  0
 16 17  1  6
 17 18  1  0
 18 22  1  0
 18 19  2  0
 20 23  2  0
 20 21  1  0
M  END
$$$$
