PVD.pdb
     RDKit          3D

 23 23  0  0  1  0  0  0  0  0999 V2000
    6.6898  -14.3043   21.0091 N   0  0  0  0  0  0  0  0  0  0  0  0
    6.3394  -13.9058   19.6397 C   0  0  0  0  0  0  0  0  0  0  0  0
    7.1997  -12.6718   19.3716 C   0  0  0  0  0  0  0  0  0  0  0  0
    8.1968  -12.6454   20.5103 C   0  0  0  0  0  0  0  0  0  0  0  0
    8.1100  -14.0692   21.0177 C   0  0  1  0  0  0  0  0  0  0  0  0
    8.6683  -14.1535   22.4102 C   0  0  0  0  0  0  0  0  0  0  0  0
    9.9141  -14.1173   22.5440 O   0  0  0  0  0  0  0  0  0  0  0  0
    6.7634  -12.0191   24.8623 C   0  0  0  0  0  0  0  0  0  0  0  0
    6.9656  -13.3370   25.5921 C   0  0  2  0  0  0  0  0  0  0  0  0
    7.4650  -13.0563   26.9788 C   0  0  0  0  0  0  0  0  0  0  0  0
    7.9719  -14.1816   24.8580 C   0  0  2  0  0  0  0  0  0  0  0  0
    7.7526  -14.2670   23.4593 N   0  0  0  0  0  0  0  0  0  0  0  0
    8.3574  -15.4262   25.4983 C   0  0  0  0  0  0  0  0  0  0  0  0
    7.5013  -16.3022   25.7617 O   0  0  0  0  0  0  0  0  0  0  0  0
    9.7279  -15.6988   25.8521 N   0  0  0  0  0  0  0  0  0  0  0  0
   10.1302  -16.9456   26.4327 C   0  0  1  0  0  0  0  0  0  0  0  0
   11.5399  -17.2945   26.0366 C   0  0  0  0  0  0  0  0  0  0  0  0
   11.8071  -17.2020   24.5973 C   0  0  0  0  0  0  0  0  0  0  0  0
   11.2612  -18.0104   23.8032 O   0  0  0  0  0  0  0  0  0  0  0  0
    9.9729  -16.9691   27.9044 C   0  0  0  0  0  0  0  0  0  0  0  0
    9.9814  -18.1461   28.6244 O   0  0  0  0  0  0  0  0  0  0  0  0
   12.6474  -16.2510   24.0551 O   0  0  0  0  0  0  0  0  0  0  0  0
    9.8278  -15.8879   28.5144 O   0  0  0  0  0  0  0  0  0  0  0  0
  1  2  1  0
  2  3  1  0
  4  3  1  0
  5  1  1  0
  5  4  1  0
  5  6  1  1
  6  7  2  0
  9  8  1  6
  9 11  1  0
 10  9  1  0
 11 12  1  6
 11 13  1  0
 12  6  1  0
 13 15  1  0
 14 13  2  0
 15 16  1  0
 16 20  1  0
 16 17  1  1
 17 18  1  0
 18 22  1  0
 18 19  2  0
 20 23  2  0
 20 21  1  0
M  END
$$$$
