GMP.pdb
     RDKit          3D

 20 20  0  0  1  0  0  0  0  0999 V2000
    5.2782  -20.6165   24.7849 N   0  0  0  0  0  0  0  0  0  0  0  0
    6.2713  -19.7469   25.3809 C   0  0  0  0  0  0  0  0  0  0  0  0
    6.0411  -18.3333   24.9282 C   0  0  0  0  0  0  0  0  0  0  0  0
    5.1435  -18.0655   24.0946 O   0  0  0  0  0  0  0  0  0  0  0  0
   10.6277  -14.1074   28.5412 C   0  0  0  0  0  0  0  0  0  0  0  0
    9.1424  -13.8006   27.6087 S   0  0  0  0  0  0  0  0  0  0  0  0
    8.5042  -15.2096   26.7017 C   0  0  0  0  0  0  0  0  0  0  0  0
    7.2621  -14.9562   25.9081 C   0  0  0  0  0  0  0  0  0  0  0  0
    6.9846  -15.9843   24.8489 C   0  0  2  0  0  0  0  0  0  0  0  0
    6.8425  -17.3056   25.4479 N   0  0  0  0  0  0  0  0  0  0  0  0
    7.9653  -15.9957   23.7708 C   0  0  0  0  0  0  0  0  0  0  0  0
    8.8665  -16.9348   23.8684 O   0  0  0  0  0  0  0  0  0  0  0  0
    8.1104  -15.1770   22.6480 N   0  0  0  0  0  0  0  0  0  0  0  0
    7.2758  -13.9631   22.4602 C   0  0  0  0  0  0  0  0  0  0  0  0
    7.1745  -13.9802   20.9284 C   0  0  0  0  0  0  0  0  0  0  0  0
    8.6509  -14.0992   20.6243 C   0  0  0  0  0  0  0  0  0  0  0  0
    9.0005  -15.3086   21.5373 C   0  0  1  0  0  0  0  0  0  0  0  0
   10.4391  -15.2329   21.8744 C   0  0  0  0  0  0  0  0  0  0  0  0
   11.3647  -15.5691   20.9025 O   0  0  0  0  0  0  0  0  0  0  0  0
   10.8296  -14.8766   23.0038 O   0  0  0  0  0  0  0  0  0  0  0  0
  2  1  1  0
  3  2  1  0
  3 10  1  0
  4  3  2  0
  5  6  1  0
  7  6  1  0
  8  7  1  0
  9 11  1  0
  9  8  1  1
  9 10  1  0
 11 13  1  0
 12 11  2  0
 13 14  1  0
 13 17  1  0
 14 15  1  0
 15 16  1  0
 17 16  1  0
 17 18  1  1
 18 19  1  0
 20 18  2  0
M  END
$$$$
