GMP.pdb
     RDKit          3D

 20 20  0  0  1  0  0  0  0  0999 V2000
    4.5524  -20.2831   23.4761 N   0  0  0  0  0  0  0  0  0  0  0  0
    5.6890  -19.7765   24.2172 C   0  0  0  0  0  0  0  0  0  0  0  0
    5.8249  -18.2987   23.9848 C   0  0  0  0  0  0  0  0  0  0  0  0
    5.4149  -17.7769   22.9209 O   0  0  0  0  0  0  0  0  0  0  0  0
    6.7636  -11.1810   26.7422 C   0  0  0  0  0  0  0  0  0  0  0  0
    6.3180  -12.9045   26.7722 S   0  0  0  0  0  0  0  0  0  0  0  0
    7.4836  -14.0096   25.9751 C   0  0  0  0  0  0  0  0  0  0  0  0
    7.1641  -15.4670   26.0789 C   0  0  0  0  0  0  0  0  0  0  0  0
    6.8853  -16.1342   24.7625 C   0  0  2  0  0  0  0  0  0  0  0  0
    6.4180  -17.4988   24.9732 N   0  0  0  0  0  0  0  0  0  0  0  0
    8.0101  -16.0982   23.8364 C   0  0  0  0  0  0  0  0  0  0  0  0
    8.8812  -17.0556   24.0048 O   0  0  0  0  0  0  0  0  0  0  0  0
    8.3205  -15.2176   22.7970 N   0  0  0  0  0  0  0  0  0  0  0  0
    7.5267  -13.9848   22.5619 C   0  0  0  0  0  0  0  0  0  0  0  0
    7.6499  -13.9120   21.0333 C   0  0  0  0  0  0  0  0  0  0  0  0
    9.1544  -14.0311   20.9408 C   0  0  0  0  0  0  0  0  0  0  0  0
    9.3627  -15.2955   21.8218 C   0  0  1  0  0  0  0  0  0  0  0  0
   10.7369  -15.2571   22.3685 C   0  0  0  0  0  0  0  0  0  0  0  0
   11.7944  -15.5317   21.5194 O   0  0  0  0  0  0  0  0  0  0  0  0
   10.9588  -14.9856   23.5652 O   0  0  0  0  0  0  0  0  0  0  0  0
  2  1  1  0
  3  2  1  0
  3 10  1  0
  4  3  2  0
  5  6  1  0
  7  6  1  0
  8  7  1  0
  9 11  1  0
  9  8  1  1
  9 10  1  0
 11 13  1  0
 12 11  2  0
 13 14  1  0
 13 17  1  0
 14 15  1  0
 15 16  1  0
 17 16  1  0
 17 18  1  1
 18 19  1  0
 20 18  2  0
M  END
$$$$
