GMP.pdb
     RDKit          3D

 20 20  0  0  1  0  0  0  0  0999 V2000
    4.9779  -19.9002   23.5511 N   0  0  0  0  0  0  0  0  0  0  0  0
    6.1042  -19.2258   24.1631 C   0  0  0  0  0  0  0  0  0  0  0  0
    6.1011  -17.7770   23.7667 C   0  0  0  0  0  0  0  0  0  0  0  0
    5.2000  -17.3173   23.0257 O   0  0  0  0  0  0  0  0  0  0  0  0
    6.6695  -11.4211   26.6875 C   0  0  0  0  0  0  0  0  0  0  0  0
    7.4161  -12.9966   27.0487 S   0  0  0  0  0  0  0  0  0  0  0  0
    6.9100  -14.3453   25.9810 C   0  0  0  0  0  0  0  0  0  0  0  0
    7.8950  -14.7363   24.9257 C   0  0  0  0  0  0  0  0  0  0  0  0
    7.3123  -15.5532   23.8081 C   0  0  2  0  0  0  0  0  0  0  0  0
    7.1204  -16.9339   24.2343 N   0  0  0  0  0  0  0  0  0  0  0  0
    8.0780  -15.4842   22.5698 C   0  0  0  0  0  0  0  0  0  0  0  0
    8.8391  -16.5205   22.3452 O   0  0  0  0  0  0  0  0  0  0  0  0
    8.1401  -14.5021   21.5780 N   0  0  0  0  0  0  0  0  0  0  0  0
    7.2956  -13.2822   21.6405 C   0  0  0  0  0  0  0  0  0  0  0  0
    7.0803  -13.0661   20.1359 C   0  0  0  0  0  0  0  0  0  0  0  0
    8.5297  -13.1224   19.7089 C   0  0  0  0  0  0  0  0  0  0  0  0
    8.9447  -14.4535   20.3976 C   0  0  1  0  0  0  0  0  0  0  0  0
   10.4046  -14.4158   20.6350 C   0  0  0  0  0  0  0  0  0  0  0  0
   11.2521  -14.7764   19.6025 O   0  0  0  0  0  0  0  0  0  0  0  0
   10.8809  -14.0699   21.7343 O   0  0  0  0  0  0  0  0  0  0  0  0
  2  1  1  0
  3  2  1  0
  3 10  1  0
  4  3  2  0
  5  6  1  0
  7  6  1  0
  8  7  1  0
  9 11  1  0
  9  8  1  1
  9 10  1  0
 11 13  1  0
 12 11  2  0
 13 14  1  0
 13 17  1  0
 14 15  1  0
 15 16  1  0
 17 16  1  0
 17 18  1  1
 18 19  1  0
 20 18  2  0
M  END
$$$$
