GMP.pdb
     RDKit          3D

 20 20  0  0  1  0  0  0  0  0999 V2000
   11.5458  -16.4845   20.8635 N   0  0  0  0  0  0  0  0  0  0  0  0
   10.2759  -16.7999   21.4845 C   0  0  0  0  0  0  0  0  0  0  0  0
   10.1220  -16.0057   22.7501 C   0  0  0  0  0  0  0  0  0  0  0  0
   11.1006  -15.4029   23.2515 O   0  0  0  0  0  0  0  0  0  0  0  0
    6.0991  -11.5950   27.2973 C   0  0  0  0  0  0  0  0  0  0  0  0
    6.5433  -12.4737   25.8139 S   0  0  0  0  0  0  0  0  0  0  0  0
    6.7314  -14.2469   26.0028 C   0  0  0  0  0  0  0  0  0  0  0  0
    7.1136  -14.9902   24.7625 C   0  0  0  0  0  0  0  0  0  0  0  0
    8.5907  -15.2114   24.6045 C   0  0  2  0  0  0  0  0  0  0  0  0
    8.8666  -15.9413   23.3732 N   0  0  0  0  0  0  0  0  0  0  0  0
    9.2135  -15.8580   25.7526 C   0  0  0  0  0  0  0  0  0  0  0  0
    9.3126  -17.1558   25.6555 O   0  0  0  0  0  0  0  0  0  0  0  0
    9.7250  -15.3318   26.9416 N   0  0  0  0  0  0  0  0  0  0  0  0
    9.5651  -13.8963   27.2865 C   0  0  0  0  0  0  0  0  0  0  0  0
   10.8800  -13.6887   28.0513 C   0  0  0  0  0  0  0  0  0  0  0  0
   10.7492  -14.8523   29.0080 C   0  0  0  0  0  0  0  0  0  0  0  0
   10.4470  -15.9861   27.9874 C   0  0  1  0  0  0  0  0  0  0  0  0
    9.7025  -17.0544   28.6899 C   0  0  0  0  0  0  0  0  0  0  0  0
   10.3838  -17.8518   29.5923 O   0  0  0  0  0  0  0  0  0  0  0  0
    8.4875  -17.2483   28.4872 O   0  0  0  0  0  0  0  0  0  0  0  0
  2  1  1  0
  3  2  1  0
  3 10  1  0
  4  3  2  0
  5  6  1  0
  7  6  1  0
  8  7  1  0
  9 11  1  0
  9  8  1  1
  9 10  1  0
 11 13  1  0
 12 11  2  0
 13 14  1  0
 13 17  1  0
 14 15  1  0
 15 16  1  0
 17 16  1  0
 17 18  1  1
 18 19  1  0
 20 18  2  0
M  END
$$$$
