GMP.pdb
     RDKit          3D

 20 20  0  0  1  0  0  0  0  0999 V2000
    4.9502  -20.6217   23.3657 N   0  0  0  0  0  0  0  0  0  0  0  0
    5.8568  -19.9776   24.2936 C   0  0  0  0  0  0  0  0  0  0  0  0
    5.8906  -18.5005   24.0229 C   0  0  0  0  0  0  0  0  0  0  0  0
    5.3366  -18.0228   23.0045 O   0  0  0  0  0  0  0  0  0  0  0  0
    7.2452  -11.3018   27.1007 C   0  0  0  0  0  0  0  0  0  0  0  0
    7.4377  -13.0660   27.2442 S   0  0  0  0  0  0  0  0  0  0  0  0
    6.9258  -14.0103   25.8084 C   0  0  0  0  0  0  0  0  0  0  0  0
    7.0052  -15.4968   25.9530 C   0  0  0  0  0  0  0  0  0  0  0  0
    6.8651  -16.2520   24.6622 C   0  0  2  0  0  0  0  0  0  0  0  0
    6.5509  -17.6513   24.9236 N   0  0  0  0  0  0  0  0  0  0  0  0
    8.0184  -16.1255   23.7801 C   0  0  0  0  0  0  0  0  0  0  0  0
    8.9596  -17.0052   23.9896 O   0  0  0  0  0  0  0  0  0  0  0  0
    8.2942  -15.2266   22.7466 N   0  0  0  0  0  0  0  0  0  0  0  0
    7.4049  -14.0709   22.4660 C   0  0  0  0  0  0  0  0  0  0  0  0
    7.5874  -13.9960   20.9435 C   0  0  0  0  0  0  0  0  0  0  0  0
    9.0992  -13.9810   20.9165 C   0  0  0  0  0  0  0  0  0  0  0  0
    9.3805  -15.2168   21.8177 C   0  0  1  0  0  0  0  0  0  0  0  0
   10.7209  -15.0528   22.4222 C   0  0  0  0  0  0  0  0  0  0  0  0
   11.8344  -15.2405   21.6228 O   0  0  0  0  0  0  0  0  0  0  0  0
   10.8654  -14.7526   23.6239 O   0  0  0  0  0  0  0  0  0  0  0  0
  2  1  1  0
  3  2  1  0
  3 10  1  0
  4  3  2  0
  5  6  1  0
  7  6  1  0
  8  7  1  0
  9 11  1  0
  9  8  1  1
  9 10  1  0
 11 13  1  0
 12 11  2  0
 13 14  1  0
 13 17  1  0
 14 15  1  0
 15 16  1  0
 17 16  1  0
 17 18  1  1
 18 19  1  0
 20 18  2  0
M  END
$$$$
