GMP.pdb
     RDKit          3D

 20 20  0  0  1  0  0  0  0  0999 V2000
    4.7491  -20.3866   23.3078 N   0  0  0  0  0  0  0  0  0  0  0  0
    5.5220  -19.7653   24.3634 C   0  0  0  0  0  0  0  0  0  0  0  0
    5.7493  -18.3168   24.0368 C   0  0  0  0  0  0  0  0  0  0  0  0
    5.3902  -17.8450   22.9320 O   0  0  0  0  0  0  0  0  0  0  0  0
    7.1608  -11.1183   26.9999 C   0  0  0  0  0  0  0  0  0  0  0  0
    6.7396  -12.8364   27.2010 S   0  0  0  0  0  0  0  0  0  0  0  0
    7.2520  -13.9113   25.8603 C   0  0  0  0  0  0  0  0  0  0  0  0
    6.9016  -15.3562   26.0230 C   0  0  0  0  0  0  0  0  0  0  0  0
    6.7890  -16.1143   24.7313 C   0  0  2  0  0  0  0  0  0  0  0  0
    6.3707  -17.4879   24.9829 N   0  0  0  0  0  0  0  0  0  0  0  0
    7.9976  -16.0709   23.9180 C   0  0  0  0  0  0  0  0  0  0  0  0
    8.9138  -16.9342   24.2627 O   0  0  0  0  0  0  0  0  0  0  0  0
    8.3488  -15.2663   22.8310 N   0  0  0  0  0  0  0  0  0  0  0  0
    7.5039  -14.1201   22.4096 C   0  0  0  0  0  0  0  0  0  0  0  0
    7.7672  -14.1751   20.8981 C   0  0  0  0  0  0  0  0  0  0  0  0
    9.2782  -14.1929   20.9514 C   0  0  0  0  0  0  0  0  0  0  0  0
    9.4819  -15.3553   21.9642 C   0  0  1  0  0  0  0  0  0  0  0  0
   10.7926  -15.1689   22.6247 C   0  0  0  0  0  0  0  0  0  0  0  0
   11.9417  -15.4303   21.8996 O   0  0  0  0  0  0  0  0  0  0  0  0
   10.8814  -14.7857   23.8080 O   0  0  0  0  0  0  0  0  0  0  0  0
  2  1  1  0
  3  2  1  0
  3 10  1  0
  4  3  2  0
  5  6  1  0
  7  6  1  0
  8  7  1  0
  9 11  1  0
  9  8  1  1
  9 10  1  0
 11 13  1  0
 12 11  2  0
 13 14  1  0
 13 17  1  0
 14 15  1  0
 15 16  1  0
 17 16  1  0
 17 18  1  1
 18 19  1  0
 20 18  2  0
M  END
$$$$
