FCS.pdb
     RDKit          3D

 24 24  0  0  1  0  0  0  0  0999 V2000
   22.7887  -12.4253  -18.5727 N   0  0  0  0  0  0  0  0  0  0  0  0
   23.1607  -11.0429  -18.3375 C   0  0  1  0  0  0  0  0  0  0  0  0
   22.9048  -10.1863  -19.5642 C   0  0  0  0  0  0  0  0  0  0  0  0
   23.7176  -10.6204  -20.7172 C   0  0  0  0  0  0  0  0  0  0  0  0
   23.2279  -11.5715  -21.6162 C   0  0  0  0  0  0  0  0  0  0  0  0
   24.0259  -11.9439  -22.6774 C   0  0  0  0  0  0  0  0  0  0  0  0
   25.2779  -11.4369  -22.9083 C   0  0  0  0  0  0  0  0  0  0  0  0
   25.7566  -10.4911  -22.0083 C   0  0  0  0  0  0  0  0  0  0  0  0
   24.9798  -10.0904  -20.9250 C   0  0  0  0  0  0  0  0  0  0  0  0
   22.3869  -10.5142  -17.1843 C   0  0  0  0  0  0  0  0  0  0  0  0
   21.5046  -11.2245  -16.6290 O   0  0  0  0  0  0  0  0  0  0  0  0
   22.5965   -9.2167  -16.6632 N   0  0  0  0  0  0  0  0  0  0  0  0
   21.9807   -8.7094  -15.4582 C   0  0  1  0  0  0  0  0  0  0  0  0
   22.3638   -9.6460  -14.3329 C   0  0  0  0  0  0  0  0  0  0  0  0
   21.6893   -8.9810  -12.7873 S   0  0  0  0  0  0  0  0  0  0  0  0
   22.3128   -7.3129  -15.1830 C   0  0  0  0  0  0  0  0  0  0  0  0
   23.5076   -6.9557  -15.0216 O   0  0  0  0  0  0  0  0  0  0  0  0
   19.2904   -4.6865  -14.5547 O   0  0  0  0  0  0  0  0  0  0  0  0
   20.3719   -4.0992  -15.2325 C   0  0  0  0  0  0  0  0  0  0  0  0
   21.5790   -4.9713  -14.9606 C   0  0  2  0  0  0  0  0  0  0  0  0
   21.2566   -6.3662  -15.1017 N   0  0  0  0  0  0  0  0  0  0  0  0
   22.0349   -4.7166  -13.5831 C   0  0  0  0  0  0  0  0  0  0  0  0
   22.5413   -3.4662  -13.2404 O   0  0  0  0  0  0  0  0  0  0  0  0
   21.9663   -5.6266  -12.7207 O   0  0  0  0  0  0  0  0  0  0  0  0
  2  1  1  6
  2 10  1  0
  3  2  1  0
  4  9  2  0
  4  3  1  0
  5  4  1  0
  6  7  1  0
  6  5  2  0
  7  8  2  0
  8  9  1  0
 10 11  2  0
 12 10  1  0
 12 13  1  0
 13 16  1  0
 13 14  1  1
 14 15  1  0
 16 17  2  0
 18 19  1  0
 20 19  1  1
 20 22  1  0
 21 16  1  0
 21 20  1  0
 22 24  2  0
 22 23  1  0
M  END
$$$$
