FCS.pdb
     RDKit          3D

 24 24  0  0  1  0  0  0  0  0999 V2000
   24.0220  -12.3492  -15.7187 N   0  0  0  0  0  0  0  0  0  0  0  0
   22.9317  -11.5951  -16.3079 C   0  0  1  0  0  0  0  0  0  0  0  0
   21.6977  -12.4600  -16.4899 C   0  0  0  0  0  0  0  0  0  0  0  0
   21.9198  -13.5336  -17.4781 C   0  0  0  0  0  0  0  0  0  0  0  0
   22.2527  -14.8258  -17.0635 C   0  0  0  0  0  0  0  0  0  0  0  0
   22.4499  -15.7937  -18.0255 C   0  0  0  0  0  0  0  0  0  0  0  0
   22.3395  -15.5676  -19.3727 C   0  0  0  0  0  0  0  0  0  0  0  0
   22.0078  -14.2786  -19.7756 C   0  0  0  0  0  0  0  0  0  0  0  0
   21.8011  -13.2752  -18.8333 C   0  0  0  0  0  0  0  0  0  0  0  0
   22.6090  -10.4348  -15.4375 C   0  0  0  0  0  0  0  0  0  0  0  0
   23.3126  -10.1851  -14.4207 O   0  0  0  0  0  0  0  0  0  0  0  0
   21.5206   -9.5713  -15.7000 N   0  0  0  0  0  0  0  0  0  0  0  0
   21.2815   -8.3233  -15.0117 C   0  0  1  0  0  0  0  0  0  0  0  0
   22.4576   -7.4180  -15.3078 C   0  0  0  0  0  0  0  0  0  0  0  0
   22.1512   -5.8144  -14.5198 S   0  0  0  0  0  0  0  0  0  0  0  0
   19.9924   -7.7187  -15.3418 C   0  0  0  0  0  0  0  0  0  0  0  0
   19.7530   -7.3101  -16.5066 O   0  0  0  0  0  0  0  0  0  0  0  0
   17.2783   -7.5911  -12.4045 O   0  0  0  0  0  0  0  0  0  0  0  0
   16.6652   -7.5972  -13.6687 C   0  0  0  0  0  0  0  0  0  0  0  0
   17.7045   -7.1123  -14.6567 C   0  0  2  0  0  0  0  0  0  0  0  0
   19.0142   -7.6021  -14.3180 N   0  0  0  0  0  0  0  0  0  0  0  0
   17.7171   -5.6394  -14.6320 C   0  0  0  0  0  0  0  0  0  0  0  0
   18.8813   -4.9617  -14.2820 O   0  0  0  0  0  0  0  0  0  0  0  0
   16.6788   -4.9978  -14.9264 O   0  0  0  0  0  0  0  0  0  0  0  0
  2  1  1  1
  2 10  1  0
  3  2  1  0
  4  9  2  0
  4  3  1  0
  5  4  1  0
  6  7  1  0
  6  5  2  0
  7  8  2  0
  8  9  1  0
 10 11  2  0
 12 10  1  0
 12 13  1  0
 13 16  1  0
 13 14  1  6
 14 15  1  0
 16 17  2  0
 18 19  1  0
 20 19  1  1
 20 22  1  0
 21 16  1  0
 21 20  1  0
 22 24  2  0
 22 23  1  0
M  END
$$$$
