FCS.pdb
     RDKit          3D

 24 24  0  0  1  0  0  0  0  0999 V2000
   19.5633   -9.4241  -14.6610 N   0  0  0  0  0  0  0  0  0  0  0  0
   19.8429   -8.3528  -15.5983 C   0  0  1  0  0  0  0  0  0  0  0  0
   18.8092   -8.3076  -16.7089 C   0  0  0  0  0  0  0  0  0  0  0  0
   18.9040   -9.4832  -17.5963 C   0  0  0  0  0  0  0  0  0  0  0  0
   19.9019   -9.5611  -18.5714 C   0  0  0  0  0  0  0  0  0  0  0  0
   19.9482  -10.6803  -19.3756 C   0  0  0  0  0  0  0  0  0  0  0  0
   19.0714  -11.7290  -19.2789 C   0  0  0  0  0  0  0  0  0  0  0  0
   18.0818  -11.6424  -18.3057 C   0  0  0  0  0  0  0  0  0  0  0  0
   18.0035  -10.5281  -17.4752 C   0  0  0  0  0  0  0  0  0  0  0  0
   19.8593   -7.0559  -14.8732 C   0  0  0  0  0  0  0  0  0  0  0  0
   19.0997   -6.8690  -13.8835 O   0  0  0  0  0  0  0  0  0  0  0  0
   20.7088   -5.9897  -15.2481 N   0  0  0  0  0  0  0  0  0  0  0  0
   20.7064   -4.6844  -14.6280 C   0  0  1  0  0  0  0  0  0  0  0  0
   22.1212   -4.4062  -14.1681 C   0  0  0  0  0  0  0  0  0  0  0  0
   22.3498   -5.1734  -12.5416 S   0  0  0  0  0  0  0  0  0  0  0  0
   20.1648   -3.6357  -15.4901 C   0  0  0  0  0  0  0  0  0  0  0  0
   20.4357   -3.6085  -16.7177 O   0  0  0  0  0  0  0  0  0  0  0  0
   16.6521   -2.3181  -14.8926 O   0  0  0  0  0  0  0  0  0  0  0  0
   17.4056   -1.1720  -15.1969 C   0  0  0  0  0  0  0  0  0  0  0  0
   18.7223   -1.6571  -15.7647 C   0  0  2  0  0  0  0  0  0  0  0  0
   19.3249   -2.6465  -14.9117 N   0  0  0  0  0  0  0  0  0  0  0  0
   19.6300   -0.5030  -15.8839 C   0  0  0  0  0  0  0  0  0  0  0  0
   20.8649   -0.5229  -15.2423 O   0  0  0  0  0  0  0  0  0  0  0  0
   19.2890    0.4963  -16.5634 O   0  0  0  0  0  0  0  0  0  0  0  0
  2  1  1  1
  2 10  1  0
  3  2  1  0
  4  9  2  0
  4  3  1  0
  5  4  1  0
  6  7  1  0
  6  5  2  0
  7  8  2  0
  8  9  1  0
 10 11  2  0
 12 10  1  0
 12 13  1  0
 13 16  1  0
 13 14  1  6
 14 15  1  0
 16 17  2  0
 18 19  1  0
 20 19  1  1
 20 22  1  0
 21 16  1  0
 21 20  1  0
 22 24  2  0
 22 23  1  0
M  END
$$$$
