FCS.pdb
     RDKit          3D

 24 24  0  0  1  0  0  0  0  0999 V2000
   25.1400  -10.1101  -20.4601 N   0  0  0  0  0  0  0  0  0  0  0  0
   24.1412  -10.0020  -19.4135 C   0  0  1  0  0  0  0  0  0  0  0  0
   24.2388  -11.1594  -18.4362 C   0  0  0  0  0  0  0  0  0  0  0  0
   23.9950  -12.4574  -19.0952 C   0  0  0  0  0  0  0  0  0  0  0  0
   25.0532  -13.3288  -19.3657 C   0  0  0  0  0  0  0  0  0  0  0  0
   24.7735  -14.5297  -19.9830 C   0  0  0  0  0  0  0  0  0  0  0  0
   23.5143  -14.9261  -20.3508 C   0  0  0  0  0  0  0  0  0  0  0  0
   22.4677  -14.0523  -20.0775 C   0  0  0  0  0  0  0  0  0  0  0  0
   22.7113  -12.8310  -19.4555 C   0  0  0  0  0  0  0  0  0  0  0  0
   24.3226   -8.7165  -18.6907 C   0  0  0  0  0  0  0  0  0  0  0  0
   25.3988   -8.0680  -18.8030 O   0  0  0  0  0  0  0  0  0  0  0  0
   23.3196   -8.1678  -17.8588 N   0  0  0  0  0  0  0  0  0  0  0  0
   23.3807   -6.8536  -17.2609 C   0  0  1  0  0  0  0  0  0  0  0  0
   23.6749   -5.8705  -18.3732 C   0  0  0  0  0  0  0  0  0  0  0  0
   23.5962   -4.1953  -17.6848 S   0  0  0  0  0  0  0  0  0  0  0  0
   22.1856   -6.5120  -16.4920 C   0  0  0  0  0  0  0  0  0  0  0  0
   21.0514   -6.5062  -17.0348 O   0  0  0  0  0  0  0  0  0  0  0  0
   22.4223   -6.4475  -12.4285 O   0  0  0  0  0  0  0  0  0  0  0  0
   21.1842   -6.7197  -13.0342 C   0  0  0  0  0  0  0  0  0  0  0  0
   21.1540   -5.9369  -14.3295 C   0  0  2  0  0  0  0  0  0  0  0  0
   22.3319   -6.1864  -15.1168 N   0  0  0  0  0  0  0  0  0  0  0  0
   21.0844   -4.5021  -14.0034 C   0  0  0  0  0  0  0  0  0  0  0  0
   19.9575   -3.9894  -13.3674 O   0  0  0  0  0  0  0  0  0  0  0  0
   22.0406   -3.7439  -14.2991 O   0  0  0  0  0  0  0  0  0  0  0  0
  2  1  1  6
  2 10  1  0
  3  2  1  0
  4  9  2  0
  4  3  1  0
  5  4  1  0
  6  7  1  0
  6  5  2  0
  7  8  2  0
  8  9  1  0
 10 11  2  0
 12 10  1  0
 12 13  1  0
 13 16  1  0
 13 14  1  6
 14 15  1  0
 16 17  2  0
 18 19  1  0
 20 19  1  1
 20 22  1  0
 21 16  1  0
 21 20  1  0
 22 24  2  0
 22 23  1  0
M  END
$$$$
