ISD.pdb
     RDKit          3D

 23 22  0  0  1  0  0  0  0  0999 V2000
    7.6969  -16.0457   15.7211 C   0  0  0  0  0  0  0  0  0  0  0  0
    8.7478  -14.9924   15.6041 C   0  0  0  0  0  0  0  0  0  0  0  0
    9.5263  -14.7132   16.8443 C   0  0  2  0  0  0  0  0  0  0  0  0
   10.3076  -15.9697   17.1854 C   0  0  0  0  0  0  0  0  0  0  0  0
    8.7101  -14.2287   17.9983 C   0  0  2  0  0  0  0  0  0  0  0  0
    8.0749  -12.9745   17.6174 N   0  0  0  0  0  0  0  0  0  0  0  0
    9.5695  -13.9901   19.1758 C   0  0  0  0  0  0  0  0  0  0  0  0
   10.4996  -13.1238   19.0764 O   0  0  0  0  0  0  0  0  0  0  0  0
    8.9805  -15.8577   22.8404 O   0  0  0  0  0  0  0  0  0  0  0  0
    9.6635  -14.6472   22.7782 C   0  0  0  0  0  0  0  0  0  0  0  0
   10.3781  -14.4932   21.4544 C   0  0  2  0  0  0  0  0  0  0  0  0
    9.4073  -14.6808   20.4028 N   0  0  0  0  0  0  0  0  0  0  0  0
   11.5188  -15.4285   21.3320 C   0  0  0  0  0  0  0  0  0  0  0  0
   11.3379  -16.5740   20.8673 O   0  0  0  0  0  0  0  0  0  0  0  0
   12.8420  -15.0571   21.7347 N   0  0  0  0  0  0  0  0  0  0  0  0
   13.9485  -15.9608   21.7374 C   0  0  1  0  0  0  0  0  0  0  0  0
   15.1639  -15.2990   21.1315 C   0  0  0  0  0  0  0  0  0  0  0  0
   14.9995  -14.8662   19.7423 C   0  0  0  0  0  0  0  0  0  0  0  0
   14.4131  -15.5824   18.8992 O   0  0  0  0  0  0  0  0  0  0  0  0
   14.2482  -16.4850   23.0999 C   0  0  0  0  0  0  0  0  0  0  0  0
   13.6504  -16.0713   24.1202 O   0  0  0  0  0  0  0  0  0  0  0  0
   15.4866  -13.6315   19.2951 O   0  0  0  0  0  0  0  0  0  0  0  0
   15.2181  -17.4707   23.2852 O   0  0  0  0  0  0  0  0  0  0  0  0
  1  2  1  0
  2  3  1  0
  3  4  1  1
  5  3  1  0
  5  6  1  6
  7  5  1  0
  7  8  2  0
 10  9  1  0
 11 10  1  1
 11 12  1  0
 12  7  1  0
 13 15  1  0
 13 11  1  0
 14 13  2  0
 16 15  1  0
 16 20  1  0
 16 17  1  1
 18 17  1  0
 18 22  1  0
 19 18  2  0
 20 23  1  0
 21 20  2  0
M  END
$$$$
