ISD.pdb
     RDKit          3D

 23 22  0  0  1  0  0  0  0  0999 V2000
    7.3814  -12.0179   18.6822 C   0  0  0  0  0  0  0  0  0  0  0  0
    7.1154  -13.3880   19.2110 C   0  0  0  0  0  0  0  0  0  0  0  0
    7.6800  -13.6834   20.5586 C   0  0  2  0  0  0  0  0  0  0  0  0
    9.1718  -13.4067   20.4992 C   0  0  0  0  0  0  0  0  0  0  0  0
    7.3831  -15.0544   21.0733 C   0  0  2  0  0  0  0  0  0  0  0  0
    5.9396  -15.2486   21.0571 N   0  0  0  0  0  0  0  0  0  0  0  0
    7.8690  -15.2027   22.4603 C   0  0  0  0  0  0  0  0  0  0  0  0
    7.3866  -14.4305   23.3528 O   0  0  0  0  0  0  0  0  0  0  0  0
    7.5636  -17.6319   24.9039 O   0  0  0  0  0  0  0  0  0  0  0  0
    8.1417  -16.3835   25.1112 C   0  0  0  0  0  0  0  0  0  0  0  0
    9.3292  -16.1756   24.1982 C   0  0  2  0  0  0  0  0  0  0  0  0
    8.8448  -16.1586   22.8387 N   0  0  0  0  0  0  0  0  0  0  0  0
   10.3705  -17.2071   24.4051 C   0  0  0  0  0  0  0  0  0  0  0  0
   10.2412  -18.3356   23.8851 O   0  0  0  0  0  0  0  0  0  0  0  0
   11.5381  -16.9491   25.1932 N   0  0  0  0  0  0  0  0  0  0  0  0
   12.5940  -17.8947   25.3716 C   0  0  1  0  0  0  0  0  0  0  0  0
   13.9320  -17.2324   25.1400 C   0  0  0  0  0  0  0  0  0  0  0  0
   14.0075  -16.4050   23.9342 C   0  0  0  0  0  0  0  0  0  0  0  0
   13.5628  -16.8082   22.8354 O   0  0  0  0  0  0  0  0  0  0  0  0
   12.5464  -18.5513   26.7087 C   0  0  0  0  0  0  0  0  0  0  0  0
   11.7603  -18.1752   27.6087 O   0  0  0  0  0  0  0  0  0  0  0  0
   14.5765  -15.1253   23.9559 O   0  0  0  0  0  0  0  0  0  0  0  0
   13.3876  -19.6243   27.0044 O   0  0  0  0  0  0  0  0  0  0  0  0
  1  2  1  0
  2  3  1  0
  3  4  1  6
  5  3  1  0
  5  6  1  1
  7  5  1  0
  7  8  2  0
 10  9  1  0
 11 10  1  1
 11 12  1  0
 12  7  1  0
 13 15  1  0
 13 11  1  0
 14 13  2  0
 16 15  1  0
 16 20  1  0
 16 17  1  1
 18 17  1  0
 18 22  1  0
 19 18  2  0
 20 23  1  0
 21 20  2  0
M  END
$$$$
