ISD.pdb
     RDKit          3D

 23 22  0  0  1  0  0  0  0  0999 V2000
    7.5331  -11.6023   19.4624 C   0  0  0  0  0  0  0  0  0  0  0  0
    7.3273  -13.0805   19.4643 C   0  0  0  0  0  0  0  0  0  0  0  0
    8.2009  -13.8551   20.3911 C   0  0  2  0  0  0  0  0  0  0  0  0
    9.6418  -13.5649   20.0098 C   0  0  0  0  0  0  0  0  0  0  0  0
    7.9167  -15.3213   20.4380 C   0  0  2  0  0  0  0  0  0  0  0  0
    6.4940  -15.5057   20.6895 N   0  0  0  0  0  0  0  0  0  0  0  0
    8.6810  -15.9617   21.5279 C   0  0  0  0  0  0  0  0  0  0  0  0
    8.4403  -15.5981   22.7260 O   0  0  0  0  0  0  0  0  0  0  0  0
   10.2952  -19.6056   21.4561 O   0  0  0  0  0  0  0  0  0  0  0  0
   10.1646  -18.8745   22.6325 C   0  0  0  0  0  0  0  0  0  0  0  0
   10.4776  -17.4130   22.4024 C   0  0  2  0  0  0  0  0  0  0  0  0
    9.6663  -16.9548   21.3000 N   0  0  0  0  0  0  0  0  0  0  0  0
   11.9210  -17.1900   22.1614 C   0  0  0  0  0  0  0  0  0  0  0  0
   12.2949  -16.5870   21.1332 O   0  0  0  0  0  0  0  0  0  0  0  0
   12.9167  -17.6498   23.0823 N   0  0  0  0  0  0  0  0  0  0  0  0
   14.3198  -17.4718   22.8807 C   0  0  1  0  0  0  0  0  0  0  0  0
   14.6327  -16.0115   22.6526 C   0  0  0  0  0  0  0  0  0  0  0  0
   16.0502  -15.7131   22.4376 C   0  0  0  0  0  0  0  0  0  0  0  0
   16.9161  -16.6174   22.4367 O   0  0  0  0  0  0  0  0  0  0  0  0
   15.1280  -18.0227   24.0052 C   0  0  0  0  0  0  0  0  0  0  0  0
   14.9227  -17.6956   25.1970 O   0  0  0  0  0  0  0  0  0  0  0  0
   16.5006  -14.4049   22.2198 O   0  0  0  0  0  0  0  0  0  0  0  0
   16.1537  -18.9368   23.7626 O   0  0  0  0  0  0  0  0  0  0  0  0
  1  2  1  0
  2  3  1  0
  3  4  1  6
  5  3  1  0
  5  6  1  1
  7  5  1  0
  7  8  2  0
 10  9  1  0
 11 10  1  6
 11 12  1  0
 12  7  1  0
 13 15  1  0
 13 11  1  0
 14 13  2  0
 16 15  1  0
 16 20  1  0
 16 17  1  1
 18 17  1  0
 18 22  1  0
 19 18  2  0
 20 23  1  0
 21 20  2  0
M  END
$$$$
