ISD.pdb
     RDKit          3D

 23 22  0  0  1  0  0  0  0  0999 V2000
    7.8511  -11.8375   20.3770 C   0  0  0  0  0  0  0  0  0  0  0  0
    7.7686  -13.2827   20.7401 C   0  0  0  0  0  0  0  0  0  0  0  0
    8.8062  -14.1638   20.1324 C   0  0  2  0  0  0  0  0  0  0  0  0
    8.6685  -14.0580   18.6239 C   0  0  0  0  0  0  0  0  0  0  0  0
    8.7737  -15.5822   20.6012 C   0  0  2  0  0  0  0  0  0  0  0  0
    7.4867  -16.1576   20.2355 N   0  0  0  0  0  0  0  0  0  0  0  0
    8.9249  -15.6453   22.0693 C   0  0  0  0  0  0  0  0  0  0  0  0
   10.0447  -15.3039   22.5742 O   0  0  0  0  0  0  0  0  0  0  0  0
    6.2524  -17.6019   24.7562 O   0  0  0  0  0  0  0  0  0  0  0  0
    6.8246  -16.3693   25.0547 C   0  0  0  0  0  0  0  0  0  0  0  0
    8.1507  -16.1996   24.3480 C   0  0  2  0  0  0  0  0  0  0  0  0
    7.8858  -16.0692   22.9351 N   0  0  0  0  0  0  0  0  0  0  0  0
    9.0773  -17.3165   24.6396 C   0  0  0  0  0  0  0  0  0  0  0  0
    9.3948  -18.1153   23.7330 O   0  0  0  0  0  0  0  0  0  0  0  0
    9.6296  -17.5134   25.9462 N   0  0  0  0  0  0  0  0  0  0  0  0
   10.5835  -18.5314   26.2541 C   0  0  1  0  0  0  0  0  0  0  0  0
   11.7894  -18.4059   25.3527 C   0  0  0  0  0  0  0  0  0  0  0  0
   12.8855  -19.3266   25.6611 C   0  0  0  0  0  0  0  0  0  0  0  0
   12.6740  -20.5352   25.9106 O   0  0  0  0  0  0  0  0  0  0  0  0
   10.9846  -18.5163   27.6894 C   0  0  0  0  0  0  0  0  0  0  0  0
   11.6537  -19.4416   28.2046 O   0  0  0  0  0  0  0  0  0  0  0  0
   14.2189  -18.8986   25.6874 O   0  0  0  0  0  0  0  0  0  0  0  0
   10.6239  -17.4529   28.5174 O   0  0  0  0  0  0  0  0  0  0  0  0
  1  2  1  0
  2  3  1  0
  3  4  1  6
  5  3  1  0
  5  6  1  1
  7  5  1  0
  7  8  2  0
 10  9  1  0
 11 10  1  1
 11 12  1  0
 12  7  1  0
 13 15  1  0
 13 11  1  0
 14 13  2  0
 16 15  1  0
 16 20  1  0
 16 17  1  6
 18 17  1  0
 18 22  1  0
 19 18  2  0
 20 23  1  0
 21 20  2  0
M  END
$$$$
