ISD.pdb
     RDKit          3D

 23 22  0  0  1  0  0  0  0  0999 V2000
    7.5809  -13.0582   17.1323 C   0  0  0  0  0  0  0  0  0  0  0  0
    7.0998  -13.7484   18.3650 C   0  0  0  0  0  0  0  0  0  0  0  0
    8.0816  -13.8366   19.4833 C   0  0  2  0  0  0  0  0  0  0  0  0
    9.3682  -14.4107   18.9170 C   0  0  0  0  0  0  0  0  0  0  0  0
    7.6032  -14.5994   20.6757 C   0  0  2  0  0  0  0  0  0  0  0  0
    6.3955  -13.9580   21.1772 N   0  0  0  0  0  0  0  0  0  0  0  0
    8.6265  -14.5892   21.7409 C   0  0  0  0  0  0  0  0  0  0  0  0
    8.9428  -13.4689   22.2610 O   0  0  0  0  0  0  0  0  0  0  0  0
    9.8411  -17.8707   23.8802 O   0  0  0  0  0  0  0  0  0  0  0  0
   10.0599  -16.5664   24.3122 C   0  0  0  0  0  0  0  0  0  0  0  0
   10.3578  -15.6501   23.1467 C   0  0  2  0  0  0  0  0  0  0  0  0
    9.2700  -15.7638   22.2048 N   0  0  0  0  0  0  0  0  0  0  0  0
   11.6660  -15.9562   22.5255 C   0  0  0  0  0  0  0  0  0  0  0  0
   11.7529  -16.0807   21.2855 O   0  0  0  0  0  0  0  0  0  0  0  0
   12.8524  -16.1165   23.3117 N   0  0  0  0  0  0  0  0  0  0  0  0
   14.1596  -16.2449   22.7497 C   0  0  1  0  0  0  0  0  0  0  0  0
   14.4570  -15.0702   21.8475 C   0  0  0  0  0  0  0  0  0  0  0  0
   15.8115  -15.0501   21.2913 C   0  0  0  0  0  0  0  0  0  0  0  0
   16.4735  -16.1025   21.1435 O   0  0  0  0  0  0  0  0  0  0  0  0
   15.2123  -16.3977   23.7936 C   0  0  0  0  0  0  0  0  0  0  0  0
   16.3804  -16.7548   23.5154 O   0  0  0  0  0  0  0  0  0  0  0  0
   16.4258  -13.8549   20.8965 O   0  0  0  0  0  0  0  0  0  0  0  0
   14.9263  -16.1415   25.1348 O   0  0  0  0  0  0  0  0  0  0  0  0
  1  2  1  0
  2  3  1  0
  3  4  1  6
  5  3  1  0
  5  6  1  1
  7  5  1  0
  7  8  2  0
 10  9  1  0
 11 10  1  1
 11 12  1  0
 12  7  1  0
 13 15  1  0
 13 11  1  0
 14 13  2  0
 16 15  1  0
 16 20  1  0
 16 17  1  1
 18 17  1  0
 18 22  1  0
 19 18  2  0
 20 23  1  0
 21 20  2  0
M  END
$$$$
