ISD.pdb
     RDKit          3D

 23 22  0  0  1  0  0  0  0  0999 V2000
    7.2115  -11.6674   20.0414 C   0  0  0  0  0  0  0  0  0  0  0  0
    7.5929  -12.7279   19.0631 C   0  0  0  0  0  0  0  0  0  0  0  0
    8.8355  -13.4872   19.3820 C   0  0  2  0  0  0  0  0  0  0  0  0
    9.9757  -12.4870   19.4544 C   0  0  0  0  0  0  0  0  0  0  0  0
    9.1356  -14.6145   18.4484 C   0  0  2  0  0  0  0  0  0  0  0  0
    7.9510  -15.4560   18.3484 N   0  0  0  0  0  0  0  0  0  0  0  0
   10.2566  -15.4275   18.9625 C   0  0  0  0  0  0  0  0  0  0  0  0
   10.0171  -16.2590   19.8989 O   0  0  0  0  0  0  0  0  0  0  0  0
   14.1766  -15.3192   17.4083 O   0  0  0  0  0  0  0  0  0  0  0  0
   13.5857  -16.4839   17.8880 C   0  0  0  0  0  0  0  0  0  0  0  0
   12.6086  -16.1795   19.0012 C   0  0  2  0  0  0  0  0  0  0  0  0
   11.5794  -15.3215   18.4647 N   0  0  0  0  0  0  0  0  0  0  0  0
   13.2803  -15.5763   20.1743 C   0  0  0  0  0  0  0  0  0  0  0  0
   13.4473  -14.3395   20.2286 O   0  0  0  0  0  0  0  0  0  0  0  0
   13.7514  -16.3765   21.2646 N   0  0  0  0  0  0  0  0  0  0  0  0
   14.4033  -15.8364   22.4154 C   0  0  1  0  0  0  0  0  0  0  0  0
   14.1094  -16.6872   23.6286 C   0  0  0  0  0  0  0  0  0  0  0  0
   12.7027  -16.7130   24.0350 C   0  0  0  0  0  0  0  0  0  0  0  0
   11.8553  -15.9582   23.5062 O   0  0  0  0  0  0  0  0  0  0  0  0
   15.8717  -15.6812   22.2139 C   0  0  0  0  0  0  0  0  0  0  0  0
   16.6116  -15.1557   23.0776 O   0  0  0  0  0  0  0  0  0  0  0  0
   12.2414  -17.5846   25.0296 O   0  0  0  0  0  0  0  0  0  0  0  0
   16.4792  -16.1254   21.0391 O   0  0  0  0  0  0  0  0  0  0  0  0
  1  2  1  0
  2  3  1  0
  3  4  1  6
  5  3  1  0
  5  6  1  1
  7  5  1  0
  7  8  2  0
 10  9  1  0
 11 10  1  6
 11 12  1  0
 12  7  1  0
 13 15  1  0
 13 11  1  0
 14 13  2  0
 16 15  1  0
 16 20  1  0
 16 17  1  1
 18 17  1  0
 18 22  1  0
 19 18  2  0
 20 23  1  0
 21 20  2  0
M  END
$$$$
