ISD.pdb
     RDKit          3D

 23 22  0  0  1  0  0  0  0  0999 V2000
    6.7946  -11.4150   27.2425 C   0  0  0  0  0  0  0  0  0  0  0  0
    6.1388  -12.5000   26.4549 C   0  0  0  0  0  0  0  0  0  0  0  0
    7.0596  -13.4686   25.7947 C   0  0  2  0  0  0  0  0  0  0  0  0
    7.9711  -12.6770   24.8737 C   0  0  0  0  0  0  0  0  0  0  0  0
    6.3785  -14.5912   25.0816 C   0  0  2  0  0  0  0  0  0  0  0  0
    5.5923  -15.3416   26.0512 N   0  0  0  0  0  0  0  0  0  0  0  0
    7.3739  -15.4961   24.4715 C   0  0  0  0  0  0  0  0  0  0  0  0
    7.9157  -16.3816   25.2117 O   0  0  0  0  0  0  0  0  0  0  0  0
    9.5971  -14.9914   20.8087 O   0  0  0  0  0  0  0  0  0  0  0  0
    8.8451  -16.1245   21.1027 C   0  0  0  0  0  0  0  0  0  0  0  0
    8.7433  -16.3375   22.5964 C   0  0  2  0  0  0  0  0  0  0  0  0
    7.7524  -15.4208   23.1076 N   0  0  0  0  0  0  0  0  0  0  0  0
   10.0525  -16.1724   23.2670 C   0  0  0  0  0  0  0  0  0  0  0  0
   10.2961  -15.1290   23.9093 O   0  0  0  0  0  0  0  0  0  0  0  0
   11.0632  -17.1851   23.2023 N   0  0  0  0  0  0  0  0  0  0  0  0
   11.9247  -17.5103   24.2945 C   0  0  1  0  0  0  0  0  0  0  0  0
   11.1095  -17.9364   25.4929 C   0  0  0  0  0  0  0  0  0  0  0  0
   11.8955  -18.4128   26.6329 C   0  0  0  0  0  0  0  0  0  0  0  0
   13.1445  -18.4836   26.5822 O   0  0  0  0  0  0  0  0  0  0  0  0
   12.9288  -18.5507   23.9334 C   0  0  0  0  0  0  0  0  0  0  0  0
   13.7990  -18.9473   24.7427 O   0  0  0  0  0  0  0  0  0  0  0  0
   11.2870  -18.8067   27.8313 O   0  0  0  0  0  0  0  0  0  0  0  0
   12.9301  -19.1272   22.6628 O   0  0  0  0  0  0  0  0  0  0  0  0
  1  2  1  0
  2  3  1  0
  3  4  1  6
  5  3  1  0
  5  6  1  1
  7  5  1  0
  7  8  2  0
 10  9  1  0
 11 10  1  6
 11 12  1  0
 12  7  1  0
 13 15  1  0
 13 11  1  0
 14 13  2  0
 16 15  1  0
 16 20  1  0
 16 17  1  1
 18 17  1  0
 18 22  1  0
 19 18  2  0
 20 23  1  0
 21 20  2  0
M  END
$$$$
