ISD.pdb
     RDKit          3D

 23 22  0  0  1  0  0  0  0  0999 V2000
    7.6595  -11.8020   19.8562 C   0  0  0  0  0  0  0  0  0  0  0  0
    7.8329  -13.2224   20.2804 C   0  0  0  0  0  0  0  0  0  0  0  0
    8.8289  -14.0138   19.5034 C   0  0  2  0  0  0  0  0  0  0  0  0
    8.4118  -13.9659   18.0441 C   0  0  0  0  0  0  0  0  0  0  0  0
    9.0269  -15.4142   19.9852 C   0  0  2  0  0  0  0  0  0  0  0  0
    7.7884  -16.1515   19.7760 N   0  0  0  0  0  0  0  0  0  0  0  0
    9.3508  -15.4244   21.4264 C   0  0  0  0  0  0  0  0  0  0  0  0
   10.4551  -14.9072   21.7988 O   0  0  0  0  0  0  0  0  0  0  0  0
    7.8992  -15.8674   25.9835 O   0  0  0  0  0  0  0  0  0  0  0  0
    7.6116  -15.8378   24.6226 C   0  0  0  0  0  0  0  0  0  0  0  0
    8.8757  -15.9264   23.7973 C   0  0  2  0  0  0  0  0  0  0  0  0
    8.4934  -15.9838   22.4067 N   0  0  0  0  0  0  0  0  0  0  0  0
    9.7119  -17.0821   24.1926 C   0  0  0  0  0  0  0  0  0  0  0  0
    9.4050  -18.2319   23.8126 O   0  0  0  0  0  0  0  0  0  0  0  0
   10.8782  -16.9220   25.0083 N   0  0  0  0  0  0  0  0  0  0  0  0
   11.6901  -18.0129   25.4461 C   0  0  1  0  0  0  0  0  0  0  0  0
   13.1517  -17.6382   25.3707 C   0  0  0  0  0  0  0  0  0  0  0  0
   13.6856  -17.5164   24.0126 C   0  0  0  0  0  0  0  0  0  0  0  0
   12.9901  -17.7939   23.0092 O   0  0  0  0  0  0  0  0  0  0  0  0
   11.3265  -18.4756   26.8153 C   0  0  0  0  0  0  0  0  0  0  0  0
   10.4779  -17.8788   27.5176 O   0  0  0  0  0  0  0  0  0  0  0  0
   14.9953  -17.0809   23.7745 O   0  0  0  0  0  0  0  0  0  0  0  0
   11.9275  -19.6078   27.3664 O   0  0  0  0  0  0  0  0  0  0  0  0
  1  2  1  0
  2  3  1  0
  3  4  1  6
  5  3  1  0
  5  6  1  1
  7  5  1  0
  7  8  2  0
 10  9  1  0
 11 10  1  1
 11 12  1  0
 12  7  1  0
 13 15  1  0
 13 11  1  0
 14 13  2  0
 16 15  1  0
 16 20  1  0
 16 17  1  1
 18 17  1  0
 18 22  1  0
 19 18  2  0
 20 23  1  0
 21 20  2  0
M  END
$$$$
