ISD.pdb
     RDKit          3D

 23 22  0  0  1  0  0  0  0  0999 V2000
    7.8805  -11.9336   19.3720 C   0  0  0  0  0  0  0  0  0  0  0  0
    7.4696  -13.3676   19.4194 C   0  0  0  0  0  0  0  0  0  0  0  0
    7.9427  -14.1384   20.6044 C   0  0  2  0  0  0  0  0  0  0  0  0
    9.4593  -14.0661   20.6203 C   0  0  0  0  0  0  0  0  0  0  0  0
    7.4467  -15.5463   20.6723 C   0  0  2  0  0  0  0  0  0  0  0  0
    5.9924  -15.5253   20.5959 N   0  0  0  0  0  0  0  0  0  0  0  0
    7.8487  -16.1754   21.9469 C   0  0  0  0  0  0  0  0  0  0  0  0
    7.3760  -15.6963   23.0299 O   0  0  0  0  0  0  0  0  0  0  0  0
    8.8692  -19.9360   22.3492 O   0  0  0  0  0  0  0  0  0  0  0  0
    8.6283  -19.1650   23.4820 C   0  0  0  0  0  0  0  0  0  0  0  0
    9.1637  -17.7614   23.3087 C   0  0  2  0  0  0  0  0  0  0  0  0
    8.7340  -17.2800   22.0175 N   0  0  0  0  0  0  0  0  0  0  0  0
   10.6352  -17.7104   23.4599 C   0  0  0  0  0  0  0  0  0  0  0  0
   11.3512  -17.3978   22.4851 O   0  0  0  0  0  0  0  0  0  0  0  0
   11.2738  -18.0121   24.7059 N   0  0  0  0  0  0  0  0  0  0  0  0
   12.6894  -17.9782   24.8952 C   0  0  1  0  0  0  0  0  0  0  0  0
   13.2247  -16.6007   24.5817 C   0  0  0  0  0  0  0  0  0  0  0  0
   14.2286  -16.5593   23.5165 C   0  0  0  0  0  0  0  0  0  0  0  0
   14.5882  -17.5975   22.9161 O   0  0  0  0  0  0  0  0  0  0  0  0
   13.0879  -18.4079   26.2655 C   0  0  0  0  0  0  0  0  0  0  0  0
   12.2852  -18.3986   27.2273 O   0  0  0  0  0  0  0  0  0  0  0  0
   14.8286  -15.3578   23.1189 O   0  0  0  0  0  0  0  0  0  0  0  0
   14.3879  -18.8434   26.5243 O   0  0  0  0  0  0  0  0  0  0  0  0
  1  2  1  0
  2  3  1  0
  3  4  1  6
  5  3  1  0
  5  6  1  1
  7  5  1  0
  7  8  2  0
 10  9  1  0
 11 10  1  6
 11 12  1  0
 12  7  1  0
 13 15  1  0
 13 11  1  0
 14 13  2  0
 16 15  1  0
 16 20  1  0
 16 17  1  1
 18 17  1  0
 18 22  1  0
 19 18  2  0
 20 23  1  0
 21 20  2  0
M  END
$$$$
