ISD.pdb
     RDKit          3D

 23 22  0  0  1  0  0  0  0  0999 V2000
    7.6045  -12.1614   19.2660 C   0  0  0  0  0  0  0  0  0  0  0  0
    7.1341  -13.4217   19.9123 C   0  0  0  0  0  0  0  0  0  0  0  0
    8.0618  -14.0222   20.9127 C   0  0  2  0  0  0  0  0  0  0  0  0
    9.4097  -14.1999   20.2365 C   0  0  0  0  0  0  0  0  0  0  0  0
    7.5739  -15.2902   21.5346 C   0  0  2  0  0  0  0  0  0  0  0  0
    6.2358  -15.0586   22.0611 N   0  0  0  0  0  0  0  0  0  0  0  0
    8.4599  -15.6963   22.6446 C   0  0  0  0  0  0  0  0  0  0  0  0
    8.5160  -14.9471   23.6747 O   0  0  0  0  0  0  0  0  0  0  0  0
    9.9068  -19.4385   23.2718 O   0  0  0  0  0  0  0  0  0  0  0  0
    9.9699  -18.4542   24.2530 C   0  0  0  0  0  0  0  0  0  0  0  0
   10.2327  -17.0952   23.6443 C   0  0  2  0  0  0  0  0  0  0  0  0
    9.2476  -16.8742   22.6127 N   0  0  0  0  0  0  0  0  0  0  0  0
   11.6150  -16.9810   23.1273 C   0  0  0  0  0  0  0  0  0  0  0  0
   11.8278  -17.0477   21.8981 O   0  0  0  0  0  0  0  0  0  0  0  0
   12.7322  -16.7936   24.0036 N   0  0  0  0  0  0  0  0  0  0  0  0
   14.0920  -16.8332   23.5673 C   0  0  1  0  0  0  0  0  0  0  0  0
   14.6312  -15.4304   23.4130 C   0  0  0  0  0  0  0  0  0  0  0  0
   16.0066  -15.3520   22.9165 C   0  0  0  0  0  0  0  0  0  0  0  0
   16.9839  -15.3275   23.6988 O   0  0  0  0  0  0  0  0  0  0  0  0
   14.9548  -17.6410   24.4752 C   0  0  0  0  0  0  0  0  0  0  0  0
   14.6723  -17.8155   25.6832 O   0  0  0  0  0  0  0  0  0  0  0  0
   16.2912  -15.3045   21.5459 O   0  0  0  0  0  0  0  0  0  0  0  0
   16.1218  -18.2402   24.0004 O   0  0  0  0  0  0  0  0  0  0  0  0
  1  2  1  0
  2  3  1  0
  3  4  1  6
  5  3  1  0
  5  6  1  1
  7  5  1  0
  7  8  2  0
 10  9  1  0
 11 10  1  6
 11 12  1  0
 12  7  1  0
 13 15  1  0
 13 11  1  0
 14 13  2  0
 16 15  1  0
 16 20  1  0
 16 17  1  1
 18 17  1  0
 18 22  1  0
 19 18  2  0
 20 23  1  0
 21 20  2  0
M  END
$$$$
