ESC.pdb
     RDKit          3D

 22 21  0  0  1  0  0  0  0  0999 V2000
   15.8840  -10.3656  -17.7681 N   0  0  0  0  0  0  0  0  0  0  0  0
   16.1349   -9.8227  -16.4458 C   0  0  1  0  0  0  0  0  0  0  0  0
   16.5043  -10.9430  -15.5337 C   0  0  0  0  0  0  0  0  0  0  0  0
   15.3952  -11.9028  -15.2421 C   0  0  0  0  0  0  0  0  0  0  0  0
   15.9134  -12.9224  -14.3078 C   0  0  0  0  0  0  0  0  0  0  0  0
   16.1546  -14.0694  -14.7320 O   0  0  0  0  0  0  0  0  0  0  0  0
   17.1376   -8.7614  -16.5556 C   0  0  0  0  0  0  0  0  0  0  0  0
   18.1437   -8.8574  -17.3331 O   0  0  0  0  0  0  0  0  0  0  0  0
   16.1347  -12.6318  -12.9810 O   0  0  0  0  0  0  0  0  0  0  0  0
   16.6061   -4.8595  -14.8736 O   0  0  0  0  0  0  0  0  0  0  0  0
   17.4417   -5.1146  -15.9610 C   0  0  0  0  0  0  0  0  0  0  0  0
   18.0349   -6.4904  -15.9058 C   0  0  2  0  0  0  0  0  0  0  0  0
   17.0809   -7.5455  -15.8160 N   0  0  0  0  0  0  0  0  0  0  0  0
   19.0679   -6.5354  -14.8475 C   0  0  0  0  0  0  0  0  0  0  0  0
   18.6841   -6.6386  -13.6596 O   0  0  0  0  0  0  0  0  0  0  0  0
   20.4594   -6.4683  -15.1044 N   0  0  0  0  0  0  0  0  0  0  0  0
   21.4720   -6.4911  -14.0920 C   0  0  1  0  0  0  0  0  0  0  0  0
   22.7866   -7.0384  -14.5899 C   0  0  0  0  0  0  0  0  0  0  0  0
   22.6347   -8.7338  -15.1796 S   0  0  0  0  0  0  0  0  0  0  0  0
   21.7430   -5.0859  -13.6390 C   0  0  0  0  0  0  0  0  0  0  0  0
   22.4897   -4.8539  -12.5005 O   0  0  0  0  0  0  0  0  0  0  0  0
   21.3078   -4.0953  -14.2687 O   0  0  0  0  0  0  0  0  0  0  0  0
  2  1  1  6
  2  7  1  0
  3  2  1  0
  4  5  1  0
  4  3  1  0
  5  9  1  0
  6  5  2  0
  7 13  1  0
  7  8  2  0
 10 11  1  0
 12 11  1  1
 12 14  1  0
 13 12  1  0
 14 15  2  0
 14 16  1  0
 16 17  1  0
 17 18  1  6
 18 19  1  0
 20 17  1  0
 20 21  1  0
 22 20  2  0
M  END
$$$$
