ESC.pdb
     RDKit          3D

 22 21  0  0  1  0  0  0  0  0999 V2000
   17.3991  -11.9409  -14.8073 N   0  0  0  0  0  0  0  0  0  0  0  0
   17.3797  -10.5277  -15.1367 C   0  0  1  0  0  0  0  0  0  0  0  0
   16.0753  -10.2079  -15.7845 C   0  0  0  0  0  0  0  0  0  0  0  0
   15.8561  -10.8696  -17.1076 C   0  0  0  0  0  0  0  0  0  0  0  0
   14.5252  -10.4625  -17.6018 C   0  0  0  0  0  0  0  0  0  0  0  0
   14.4454   -9.7786  -18.6408 O   0  0  0  0  0  0  0  0  0  0  0  0
   17.6710   -9.7585  -13.9253 C   0  0  0  0  0  0  0  0  0  0  0  0
   17.4196  -10.2093  -12.7594 O   0  0  0  0  0  0  0  0  0  0  0  0
   13.3741  -10.8227  -16.9392 O   0  0  0  0  0  0  0  0  0  0  0  0
   20.8824   -7.1502  -13.1911 O   0  0  0  0  0  0  0  0  0  0  0  0
   19.6036   -6.6255  -13.0039 C   0  0  0  0  0  0  0  0  0  0  0  0
   18.5811   -7.6986  -12.7791 C   0  0  2  0  0  0  0  0  0  0  0  0
   18.2521   -8.4581  -13.9394 N   0  0  0  0  0  0  0  0  0  0  0  0
   17.4027   -7.1165  -12.0996 C   0  0  0  0  0  0  0  0  0  0  0  0
   16.4605   -6.7033  -12.8141 O   0  0  0  0  0  0  0  0  0  0  0  0
   17.2839   -7.0023  -10.6926 N   0  0  0  0  0  0  0  0  0  0  0  0
   16.1195   -6.5174  -10.0148 C   0  0  1  0  0  0  0  0  0  0  0  0
   16.1211   -6.8414   -8.5415 C   0  0  0  0  0  0  0  0  0  0  0  0
   16.0827   -8.6168   -8.2383 S   0  0  0  0  0  0  0  0  0  0  0  0
   16.0803   -5.0204  -10.1187 C   0  0  0  0  0  0  0  0  0  0  0  0
   14.9782   -4.3204   -9.6681 O   0  0  0  0  0  0  0  0  0  0  0  0
   17.0303   -4.3692  -10.6094 O   0  0  0  0  0  0  0  0  0  0  0  0
  2  1  1  1
  2  7  1  0
  3  2  1  0
  4  5  1  0
  4  3  1  0
  5  9  1  0
  6  5  2  0
  7 13  1  0
  7  8  2  0
 10 11  1  0
 12 11  1  6
 12 14  1  0
 13 12  1  0
 14 15  2  0
 14 16  1  0
 16 17  1  0
 17 18  1  1
 18 19  1  0
 20 17  1  0
 20 21  1  0
 22 20  2  0
M  END
$$$$
