ESC.pdb
     RDKit          3D

 22 21  0  0  1  0  0  0  0  0999 V2000
   24.5597  -21.3057  -13.7239 N   0  0  0  0  0  0  0  0  0  0  0  0
   23.2484  -21.1927  -14.3353 C   0  0  1  0  0  0  0  0  0  0  0  0
   23.1216  -22.2422  -15.3868 C   0  0  0  0  0  0  0  0  0  0  0  0
   23.5844  -21.8240  -16.7459 C   0  0  0  0  0  0  0  0  0  0  0  0
   22.4625  -21.1331  -17.4130 C   0  0  0  0  0  0  0  0  0  0  0  0
   21.8470  -21.7155  -18.3271 O   0  0  0  0  0  0  0  0  0  0  0  0
   22.2323  -21.2492  -13.2825 C   0  0  0  0  0  0  0  0  0  0  0  0
   22.4517  -21.8095  -12.1583 O   0  0  0  0  0  0  0  0  0  0  0  0
   22.0842  -19.8619  -17.0461 O   0  0  0  0  0  0  0  0  0  0  0  0
   19.4034  -18.3775  -12.2453 O   0  0  0  0  0  0  0  0  0  0  0  0
   18.8859  -19.6408  -12.5316 C   0  0  0  0  0  0  0  0  0  0  0  0
   19.9227  -20.7165  -12.4068 C   0  0  2  0  0  0  0  0  0  0  0  0
   20.9281  -20.6927  -13.4167 N   0  0  0  0  0  0  0  0  0  0  0  0
   19.2522  -22.0284  -12.2708 C   0  0  0  0  0  0  0  0  0  0  0  0
   19.2148  -22.7733  -13.2771 O   0  0  0  0  0  0  0  0  0  0  0  0
   18.6538  -22.4842  -11.0704 N   0  0  0  0  0  0  0  0  0  0  0  0
   18.1093  -23.7955  -10.8838 C   0  0  1  0  0  0  0  0  0  0  0  0
   18.0375  -24.1995   -9.4322 C   0  0  0  0  0  0  0  0  0  0  0  0
   19.6360  -24.0661   -8.6121 S   0  0  0  0  0  0  0  0  0  0  0  0
   16.6999  -23.8183  -11.3996 C   0  0  0  0  0  0  0  0  0  0  0  0
   16.0540  -25.0217  -11.6059 O   0  0  0  0  0  0  0  0  0  0  0  0
   16.0748  -22.7642  -11.6552 O   0  0  0  0  0  0  0  0  0  0  0  0
  2  1  1  1
  2  7  1  0
  3  2  1  0
  4  5  1  0
  4  3  1  0
  5  9  1  0
  6  5  2  0
  7 13  1  0
  7  8  2  0
 10 11  1  0
 12 11  1  6
 12 14  1  0
 13 12  1  0
 14 15  2  0
 14 16  1  0
 16 17  1  0
 17 18  1  1
 18 19  1  0
 20 17  1  0
 20 21  1  0
 22 20  2  0
M  END
$$$$
