ESC.pdb
     RDKit          3D

 22 21  0  0  1  0  0  0  0  0999 V2000
   15.4563  -10.4247  -17.0301 N   0  0  0  0  0  0  0  0  0  0  0  0
   16.0072  -10.0084  -15.7538 C   0  0  1  0  0  0  0  0  0  0  0  0
   16.5231  -11.2130  -15.0424 C   0  0  0  0  0  0  0  0  0  0  0  0
   17.1742  -12.2290  -15.9257 C   0  0  0  0  0  0  0  0  0  0  0  0
   17.6921  -13.3113  -15.0647 C   0  0  0  0  0  0  0  0  0  0  0  0
   17.5088  -13.2492  -13.8333 O   0  0  0  0  0  0  0  0  0  0  0  0
   17.0013   -8.9597  -15.9903 C   0  0  0  0  0  0  0  0  0  0  0  0
   17.8553   -9.0359  -16.9341 O   0  0  0  0  0  0  0  0  0  0  0  0
   18.3717  -14.3846  -15.5939 O   0  0  0  0  0  0  0  0  0  0  0  0
   16.7900   -5.1456  -14.0837 O   0  0  0  0  0  0  0  0  0  0  0  0
   17.3926   -5.3375  -15.3270 C   0  0  0  0  0  0  0  0  0  0  0  0
   18.0010   -6.7018  -15.4543 C   0  0  2  0  0  0  0  0  0  0  0  0
   17.1028   -7.7789  -15.2003 N   0  0  0  0  0  0  0  0  0  0  0  0
   19.2397   -6.7620  -14.6475 C   0  0  0  0  0  0  0  0  0  0  0  0
   19.1486   -7.1656  -13.4652 O   0  0  0  0  0  0  0  0  0  0  0  0
   20.5157   -6.3898  -15.1377 N   0  0  0  0  0  0  0  0  0  0  0  0
   21.7157   -6.3916  -14.3564 C   0  0  1  0  0  0  0  0  0  0  0  0
   22.9654   -6.4058  -15.2012 C   0  0  0  0  0  0  0  0  0  0  0  0
   22.9927   -7.7958  -16.3468 S   0  0  0  0  0  0  0  0  0  0  0  0
   21.7707   -5.1327  -13.5407 C   0  0  0  0  0  0  0  0  0  0  0  0
   20.8405   -4.1318  -13.7426 O   0  0  0  0  0  0  0  0  0  0  0  0
   22.6474   -4.9527  -12.6654 O   0  0  0  0  0  0  0  0  0  0  0  0
  2  1  1  6
  2  7  1  0
  3  2  1  0
  4  5  1  0
  4  3  1  0
  5  9  1  0
  6  5  2  0
  7 13  1  0
  7  8  2  0
 10 11  1  0
 12 11  1  1
 12 14  1  0
 13 12  1  0
 14 15  2  0
 14 16  1  0
 16 17  1  0
 17 18  1  6
 18 19  1  0
 20 17  1  0
 20 21  1  0
 22 20  2  0
M  END
$$$$
