ESC.pdb
     RDKit          3D

 22 21  0  0  1  0  0  0  0  0999 V2000
   18.1458  -11.6313  -15.8697 N   0  0  0  0  0  0  0  0  0  0  0  0
   19.3497  -11.0203  -16.4020 C   0  0  1  0  0  0  0  0  0  0  0  0
   19.4386  -11.3328  -17.8572 C   0  0  0  0  0  0  0  0  0  0  0  0
   19.5752  -12.7874  -18.1765 C   0  0  0  0  0  0  0  0  0  0  0  0
   19.6080  -12.9266  -19.6464 C   0  0  0  0  0  0  0  0  0  0  0  0
   20.6420  -13.3566  -20.1936 O   0  0  0  0  0  0  0  0  0  0  0  0
   19.3348   -9.5923  -16.0783 C   0  0  0  0  0  0  0  0  0  0  0  0
   18.8092   -8.7271  -16.8535 O   0  0  0  0  0  0  0  0  0  0  0  0
   18.5217  -12.5917  -20.4221 O   0  0  0  0  0  0  0  0  0  0  0  0
   20.2433   -8.1578  -12.2085 O   0  0  0  0  0  0  0  0  0  0  0  0
   19.4950   -7.3974  -13.1072 C   0  0  0  0  0  0  0  0  0  0  0  0
   19.8771   -7.6695  -14.5311 C   0  0  2  0  0  0  0  0  0  0  0  0
   19.8971   -9.0494  -14.8876 N   0  0  0  0  0  0  0  0  0  0  0  0
   21.1373   -6.9598  -14.8433 C   0  0  0  0  0  0  0  0  0  0  0  0
   22.2100   -7.4707  -14.4466 O   0  0  0  0  0  0  0  0  0  0  0  0
   21.1950   -5.7408  -15.5626 N   0  0  0  0  0  0  0  0  0  0  0  0
   22.4079   -5.0787  -15.9383 C   0  0  1  0  0  0  0  0  0  0  0  0
   22.6104   -5.0293  -17.4324 C   0  0  0  0  0  0  0  0  0  0  0  0
   22.5064   -6.6630  -18.1845 S   0  0  0  0  0  0  0  0  0  0  0  0
   22.3523   -3.6532  -15.4715 C   0  0  0  0  0  0  0  0  0  0  0  0
   23.4804   -2.8582  -15.5282 O   0  0  0  0  0  0  0  0  0  0  0  0
   21.2985   -3.1475  -15.0231 O   0  0  0  0  0  0  0  0  0  0  0  0
  2  1  1  6
  2  7  1  0
  3  2  1  0
  4  5  1  0
  4  3  1  0
  5  9  1  0
  6  5  2  0
  7 13  1  0
  7  8  2  0
 10 11  1  0
 12 11  1  1
 12 14  1  0
 13 12  1  0
 14 15  2  0
 14 16  1  0
 16 17  1  0
 17 18  1  6
 18 19  1  0
 20 17  1  0
 20 21  1  0
 22 20  2  0
M  END
$$$$
