ESC.pdb
     RDKit          3D

 22 21  0  0  1  0  0  0  0  0999 V2000
   18.4422  -11.4458  -15.1399 N   0  0  0  0  0  0  0  0  0  0  0  0
   17.2280  -10.7630  -14.7330 C   0  0  1  0  0  0  0  0  0  0  0  0
   16.2923  -11.7650  -14.1467 C   0  0  0  0  0  0  0  0  0  0  0  0
   15.7388  -12.7507  -15.1257 C   0  0  0  0  0  0  0  0  0  0  0  0
   14.8978  -13.7072  -14.3781 C   0  0  0  0  0  0  0  0  0  0  0  0
   14.6165  -14.8048  -14.8976 O   0  0  0  0  0  0  0  0  0  0  0  0
   17.5859   -9.6584  -13.8409 C   0  0  0  0  0  0  0  0  0  0  0  0
   18.4698   -9.7820  -12.9303 O   0  0  0  0  0  0  0  0  0  0  0  0
   14.4196  -13.4111  -13.1222 O   0  0  0  0  0  0  0  0  0  0  0  0
   18.1148   -4.9984  -12.9415 O   0  0  0  0  0  0  0  0  0  0  0  0
   17.7599   -6.0311  -13.8093 C   0  0  0  0  0  0  0  0  0  0  0  0
   17.3316   -7.2647  -13.0726 C   0  0  2  0  0  0  0  0  0  0  0  0
   16.9890   -8.3670  -13.9086 N   0  0  0  0  0  0  0  0  0  0  0  0
   16.2758   -6.9107  -12.0985 C   0  0  0  0  0  0  0  0  0  0  0  0
   15.1016   -6.8039  -12.5216 O   0  0  0  0  0  0  0  0  0  0  0  0
   16.5204   -6.6873  -10.7211 N   0  0  0  0  0  0  0  0  0  0  0  0
   15.5264   -6.2677   -9.7796 C   0  0  1  0  0  0  0  0  0  0  0  0
   15.9032   -6.5774   -8.3521 C   0  0  0  0  0  0  0  0  0  0  0  0
   15.9846   -8.3501   -8.0423 S   0  0  0  0  0  0  0  0  0  0  0  0
   15.3719   -4.7769   -9.8625 C   0  0  0  0  0  0  0  0  0  0  0  0
   14.3700   -4.1411   -9.1557 O   0  0  0  0  0  0  0  0  0  0  0  0
   16.1341   -4.0737  -10.5639 O   0  0  0  0  0  0  0  0  0  0  0  0
  2  1  1  1
  2  7  1  0
  3  2  1  0
  4  5  1  0
  4  3  1  0
  5  9  1  0
  6  5  2  0
  7 13  1  0
  7  8  2  0
 10 11  1  0
 12 11  1  6
 12 14  1  0
 13 12  1  0
 14 15  2  0
 14 16  1  0
 16 17  1  0
 17 18  1  1
 18 19  1  0
 20 17  1  0
 20 21  1  0
 22 20  2  0
M  END
$$$$
