ESC.pdb
     RDKit          3D

 22 21  0  0  1  0  0  0  0  0999 V2000
   18.0095  -14.9411  -17.3319 N   0  0  0  0  0  0  0  0  0  0  0  0
   17.4004  -13.7392  -16.7930 C   0  0  1  0  0  0  0  0  0  0  0  0
   16.9503  -14.0177  -15.3991 C   0  0  0  0  0  0  0  0  0  0  0  0
   15.7822  -14.9455  -15.2934 C   0  0  0  0  0  0  0  0  0  0  0  0
   14.5693  -14.1255  -15.1001 C   0  0  0  0  0  0  0  0  0  0  0  0
   14.1806  -13.3869  -16.0259 O   0  0  0  0  0  0  0  0  0  0  0  0
   18.3491  -12.6317  -16.9245 C   0  0  0  0  0  0  0  0  0  0  0  0
   19.6108  -12.8116  -16.8835 O   0  0  0  0  0  0  0  0  0  0  0  0
   13.8613  -14.1606  -13.9205 O   0  0  0  0  0  0  0  0  0  0  0  0
   18.9147  -10.1990  -19.7313 O   0  0  0  0  0  0  0  0  0  0  0  0
   18.6109   -9.4348  -18.6046 C   0  0  0  0  0  0  0  0  0  0  0  0
   18.8497  -10.1884  -17.3308 C   0  0  2  0  0  0  0  0  0  0  0  0
   17.9550  -11.2752  -17.1069 N   0  0  0  0  0  0  0  0  0  0  0  0
   18.9142   -9.2335  -16.2025 C   0  0  0  0  0  0  0  0  0  0  0  0
   17.8596   -9.0094  -15.5648 O   0  0  0  0  0  0  0  0  0  0  0  0
   20.0979   -8.5631  -15.8073 N   0  0  0  0  0  0  0  0  0  0  0  0
   20.1633   -7.5791  -14.7690 C   0  0  1  0  0  0  0  0  0  0  0  0
   21.5727   -7.3126  -14.3017 C   0  0  0  0  0  0  0  0  0  0  0  0
   22.3142   -8.7597  -13.5261 S   0  0  0  0  0  0  0  0  0  0  0  0
   19.6388   -6.2753  -15.2964 C   0  0  0  0  0  0  0  0  0  0  0  0
   19.2801   -5.2661  -14.4244 O   0  0  0  0  0  0  0  0  0  0  0  0
   19.5118   -6.0646  -16.5239 O   0  0  0  0  0  0  0  0  0  0  0  0
  2  1  1  1
  2  7  1  0
  3  2  1  0
  4  5  1  0
  4  3  1  0
  5  9  1  0
  6  5  2  0
  7 13  1  0
  7  8  2  0
 10 11  1  0
 12 11  1  6
 12 14  1  0
 13 12  1  0
 14 15  2  0
 14 16  1  0
 16 17  1  0
 17 18  1  6
 18 19  1  0
 20 17  1  0
 20 21  1  0
 22 20  2  0
M  END
$$$$
