ESC.pdb
     RDKit          3D

 22 21  0  0  1  0  0  0  0  0999 V2000
   16.2712  -13.1116  -13.5400 N   0  0  0  0  0  0  0  0  0  0  0  0
   15.8637  -11.8188  -14.0584 C   0  0  1  0  0  0  0  0  0  0  0  0
   14.3778  -11.8025  -14.1818 C   0  0  0  0  0  0  0  0  0  0  0  0
   13.8217  -12.7831  -15.1644 C   0  0  0  0  0  0  0  0  0  0  0  0
   12.3534  -12.6249  -15.1796 C   0  0  0  0  0  0  0  0  0  0  0  0
   11.8150  -12.0386  -16.1388 O   0  0  0  0  0  0  0  0  0  0  0  0
   16.4224  -10.7712  -13.2014 C   0  0  0  0  0  0  0  0  0  0  0  0
   16.4375  -10.8718  -11.9304 O   0  0  0  0  0  0  0  0  0  0  0  0
   11.5699  -13.1108  -14.1581 O   0  0  0  0  0  0  0  0  0  0  0  0
   19.7214   -8.2691  -13.9137 O   0  0  0  0  0  0  0  0  0  0  0  0
   18.5147   -7.6334  -13.6214 C   0  0  0  0  0  0  0  0  0  0  0  0
   17.5622   -8.5367  -12.8972 C   0  0  2  0  0  0  0  0  0  0  0  0
   16.9902   -9.5647  -13.7019 N   0  0  0  0  0  0  0  0  0  0  0  0
   16.5584   -7.7172  -12.1831 C   0  0  0  0  0  0  0  0  0  0  0  0
   15.5329   -7.3689  -12.8125 O   0  0  0  0  0  0  0  0  0  0  0  0
   16.6943   -7.3079  -10.8338 N   0  0  0  0  0  0  0  0  0  0  0  0
   15.7988   -6.4129  -10.1647 C   0  0  1  0  0  0  0  0  0  0  0  0
   15.7758   -6.6152   -8.6700 C   0  0  0  0  0  0  0  0  0  0  0  0
   15.1978   -8.2604   -8.2179 S   0  0  0  0  0  0  0  0  0  0  0  0
   16.2555   -5.0015  -10.3937 C   0  0  0  0  0  0  0  0  0  0  0  0
   15.4527   -3.9414  -10.0201 O   0  0  0  0  0  0  0  0  0  0  0  0
   17.3609   -4.7443  -10.9221 O   0  0  0  0  0  0  0  0  0  0  0  0
  2  1  1  1
  2  7  1  0
  3  2  1  0
  4  5  1  0
  4  3  1  0
  5  9  1  0
  6  5  2  0
  7 13  1  0
  7  8  2  0
 10 11  1  0
 12 11  1  6
 12 14  1  0
 13 12  1  0
 14 15  2  0
 14 16  1  0
 16 17  1  0
 17 18  1  1
 18 19  1  0
 20 17  1  0
 20 21  1  0
 22 20  2  0
M  END
$$$$
