ESC.pdb
     RDKit          3D

 22 21  0  0  1  0  0  0  0  0999 V2000
   15.0726  -12.8685  -16.3746 N   0  0  0  0  0  0  0  0  0  0  0  0
   15.0048  -11.4293  -16.5479 C   0  0  1  0  0  0  0  0  0  0  0  0
   14.0667  -10.8714  -15.5321 C   0  0  0  0  0  0  0  0  0  0  0  0
   14.5331  -10.9947  -14.1166 C   0  0  0  0  0  0  0  0  0  0  0  0
   13.4757  -10.4476  -13.2427 C   0  0  0  0  0  0  0  0  0  0  0  0
   13.4396   -9.2204  -13.0270 O   0  0  0  0  0  0  0  0  0  0  0  0
   16.3632  -10.8850  -16.4968 C   0  0  0  0  0  0  0  0  0  0  0  0
   17.3179  -11.4991  -15.9161 O   0  0  0  0  0  0  0  0  0  0  0  0
   12.5316  -11.2640  -12.6633 O   0  0  0  0  0  0  0  0  0  0  0  0
   19.6944   -7.8564  -18.3375 O   0  0  0  0  0  0  0  0  0  0  0  0
   18.3441   -8.1973  -18.2596 C   0  0  0  0  0  0  0  0  0  0  0  0
   18.0595   -9.1150  -17.1087 C   0  0  2  0  0  0  0  0  0  0  0  0
   16.7349   -9.6406  -17.0816 N   0  0  0  0  0  0  0  0  0  0  0  0
   18.4598   -8.4550  -15.8465 C   0  0  0  0  0  0  0  0  0  0  0  0
   17.5933   -7.7890  -15.2344 O   0  0  0  0  0  0  0  0  0  0  0  0
   19.7628   -8.5356  -15.2966 N   0  0  0  0  0  0  0  0  0  0  0  0
   20.1949   -7.8266  -14.1299 C   0  0  1  0  0  0  0  0  0  0  0  0
   21.3511   -8.4975  -13.4308 C   0  0  0  0  0  0  0  0  0  0  0  0
   21.8208   -7.6365  -11.9197 S   0  0  0  0  0  0  0  0  0  0  0  0
   20.6784   -6.4647  -14.5355 C   0  0  0  0  0  0  0  0  0  0  0  0
   20.5298   -5.3905  -13.6801 O   0  0  0  0  0  0  0  0  0  0  0  0
   21.2229   -6.2624  -15.6445 O   0  0  0  0  0  0  0  0  0  0  0  0
  2  1  1  1
  2  7  1  0
  3  2  1  0
  4  5  1  0
  4  3  1  0
  5  9  1  0
  6  5  2  0
  7 13  1  0
  7  8  2  0
 10 11  1  0
 12 11  1  6
 12 14  1  0
 13 12  1  0
 14 15  2  0
 14 16  1  0
 16 17  1  0
 17 18  1  6
 18 19  1  0
 20 17  1  0
 20 21  1  0
 22 20  2  0
M  END
$$$$
