NPK.pdb
     RDKit          3D

 25 25  0  0  1  0  0  0  0  0999 V2000
   18.4755  -11.0669  -18.9546 N   0  0  0  0  0  0  0  0  0  0  0  0
   19.1290  -10.1149  -18.1423 C   0  0  0  0  0  0  0  0  0  0  0  0
   19.9404   -9.3379  -18.7415 O   0  0  0  0  0  0  0  0  0  0  0  0
   18.8824  -10.0333  -16.6986 C   0  0  0  0  0  0  0  0  0  0  0  0
   20.2533  -10.0108  -16.0019 C   0  0  2  0  0  0  0  0  0  0  0  0
   20.6953  -11.3527  -15.9364 N   0  0  0  0  0  0  0  0  0  0  0  0
   20.0892   -9.2808  -14.7529 C   0  0  0  0  0  0  0  0  0  0  0  0
   19.2527   -9.7515  -13.8889 O   0  0  0  0  0  0  0  0  0  0  0  0
   20.7456   -8.0894  -14.3497 N   0  0  0  0  0  0  0  0  0  0  0  0
   21.7129   -7.3705  -15.1207 C   0  0  0  0  0  0  0  0  0  0  0  0
   21.5425   -5.9327  -14.6554 C   0  0  0  0  0  0  0  0  0  0  0  0
   21.4907   -6.1883  -13.1413 C   0  0  0  0  0  0  0  0  0  0  0  0
   20.5712   -7.3751  -13.0964 C   0  0  1  0  0  0  0  0  0  0  0  0
   19.1589   -7.0058  -12.8568 C   0  0  0  0  0  0  0  0  0  0  0  0
   18.4175   -6.6874  -13.8283 O   0  0  0  0  0  0  0  0  0  0  0  0
   18.5572   -6.9812  -11.5866 N   0  0  0  0  0  0  0  0  0  0  0  0
   17.1423   -6.7423  -11.3381 C   0  0  1  0  0  0  0  0  0  0  0  0
   16.6511   -7.4454  -10.1315 C   0  0  0  0  0  0  0  0  0  0  0  0
   15.1849   -7.2235   -9.9217 C   0  0  0  0  0  0  0  0  0  0  0  0
   14.6661   -7.8614   -8.6559 C   0  0  0  0  0  0  0  0  0  0  0  0
   13.1543   -7.6529   -8.6143 C   0  0  0  0  0  0  0  0  0  0  0  0
   12.5440   -8.4304   -7.5567 N   0  0  0  0  0  0  0  0  0  0  0  0
   16.9754   -5.2873  -11.1801 C   0  0  0  0  0  0  0  0  0  0  0  0
   17.7999   -4.5120  -10.6217 O   0  0  0  0  0  0  0  0  0  0  0  0
   15.7909   -4.7139  -11.6991 O   0  0  0  0  0  0  0  0  0  0  0  0
  1  2  1  0
  2  3  2  0
  4  2  1  0
  5  4  1  0
  5  6  1  1
  7  5  1  0
  7  9  1  0
  8  7  2  0
  9 13  1  0
 10  9  1  0
 10 11  1  0
 11 12  1  0
 13 12  1  0
 13 14  1  6
 14 15  2  0
 16 14  1  0
 17 16  1  0
 17 18  1  1
 19 18  1  0
 20 19  1  0
 20 21  1  0
 22 21  1  0
 23 17  1  0
 24 23  2  0
 25 23  1  0
M  END
$$$$
