NPK.pdb
     RDKit          3D

 25 25  0  0  1  0  0  0  0  0999 V2000
   29.1992  -19.6816  -16.7529 N   0  0  0  0  0  0  0  0  0  0  0  0
   28.1882  -18.9620  -16.0799 C   0  0  0  0  0  0  0  0  0  0  0  0
   28.4873  -17.7722  -15.7388 O   0  0  0  0  0  0  0  0  0  0  0  0
   26.8774  -19.5558  -15.7954 C   0  0  0  0  0  0  0  0  0  0  0  0
   27.1281  -20.8970  -15.0858 C   0  0  2  0  0  0  0  0  0  0  0  0
   27.5098  -21.8192  -16.0878 N   0  0  0  0  0  0  0  0  0  0  0  0
   25.9416  -21.1941  -14.2958 C   0  0  0  0  0  0  0  0  0  0  0  0
   24.8516  -21.4688  -14.9317 O   0  0  0  0  0  0  0  0  0  0  0  0
   25.8231  -21.2230  -12.8824 N   0  0  0  0  0  0  0  0  0  0  0  0
   26.8814  -20.9705  -11.9533 C   0  0  0  0  0  0  0  0  0  0  0  0
   26.1615  -20.4098  -10.7367 C   0  0  0  0  0  0  0  0  0  0  0  0
   25.0145  -21.4292  -10.6612 C   0  0  0  0  0  0  0  0  0  0  0  0
   24.6264  -21.5107  -12.1100 C   0  0  1  0  0  0  0  0  0  0  0  0
   23.5060  -20.6111  -12.4618 C   0  0  0  0  0  0  0  0  0  0  0  0
   23.6702  -19.3594  -12.4330 O   0  0  0  0  0  0  0  0  0  0  0  0
   22.2276  -21.0579  -12.8389 N   0  0  0  0  0  0  0  0  0  0  0  0
   21.1272  -20.1936  -13.2426 C   0  0  1  0  0  0  0  0  0  0  0  0
   20.7700  -20.3583  -14.6698 C   0  0  0  0  0  0  0  0  0  0  0  0
   19.5872  -19.5189  -15.0432 C   0  0  0  0  0  0  0  0  0  0  0  0
   19.1763  -19.6859  -16.4860 C   0  0  0  0  0  0  0  0  0  0  0  0
   18.0112  -18.7358  -16.7521 C   0  0  0  0  0  0  0  0  0  0  0  0
   17.5631  -18.8233  -18.1257 N   0  0  0  0  0  0  0  0  0  0  0  0
   19.9771  -20.5385  -12.3892 C   0  0  0  0  0  0  0  0  0  0  0  0
   19.7045  -21.6932  -11.9591 O   0  0  0  0  0  0  0  0  0  0  0  0
   19.1074  -19.4849  -12.0223 O   0  0  0  0  0  0  0  0  0  0  0  0
  1  2  1  0
  2  3  2  0
  4  2  1  0
  5  4  1  0
  5  6  1  6
  7  5  1  0
  7  9  1  0
  8  7  2  0
  9 13  1  0
 10  9  1  0
 10 11  1  0
 11 12  1  0
 13 12  1  0
 13 14  1  1
 14 15  2  0
 16 14  1  0
 17 16  1  0
 17 18  1  6
 19 18  1  0
 20 19  1  0
 20 21  1  0
 22 21  1  0
 23 17  1  0
 24 23  2  0
 25 23  1  0
M  END
$$$$
