NPK.pdb
     RDKit          3D

 25 25  0  0  1  0  0  0  0  0999 V2000
   20.1689  -19.0561  -15.9180 N   0  0  0  0  0  0  0  0  0  0  0  0
   19.1249  -19.9389  -15.5664 C   0  0  0  0  0  0  0  0  0  0  0  0
   18.0310  -19.7846  -16.1995 O   0  0  0  0  0  0  0  0  0  0  0  0
   19.2984  -20.9671  -14.5347 C   0  0  0  0  0  0  0  0  0  0  0  0
   20.7880  -20.9837  -14.1526 C   0  0  2  0  0  0  0  0  0  0  0  0
   21.4595  -21.6936  -15.1750 N   0  0  0  0  0  0  0  0  0  0  0  0
   20.8773  -21.4927  -12.7914 C   0  0  0  0  0  0  0  0  0  0  0  0
   20.8429  -22.7732  -12.6268 O   0  0  0  0  0  0  0  0  0  0  0  0
   21.0013  -20.7469  -11.5908 N   0  0  0  0  0  0  0  0  0  0  0  0
   21.1446  -19.3261  -11.5049 C   0  0  0  0  0  0  0  0  0  0  0  0
   20.5175  -18.9851  -10.1620 C   0  0  0  0  0  0  0  0  0  0  0  0
   21.1738  -20.0884   -9.3179 C   0  0  0  0  0  0  0  0  0  0  0  0
   21.0088  -21.2672  -10.2341 C   0  0  1  0  0  0  0  0  0  0  0  0
   19.8010  -22.0680   -9.9371 C   0  0  0  0  0  0  0  0  0  0  0  0
   18.7559  -21.9118  -10.6286 O   0  0  0  0  0  0  0  0  0  0  0  0
   19.7240  -23.0230   -8.9085 N   0  0  0  0  0  0  0  0  0  0  0  0
   18.5517  -23.8330   -8.6081 C   0  0  1  0  0  0  0  0  0  0  0  0
   18.8068  -24.8274   -7.5415 C   0  0  0  0  0  0  0  0  0  0  0  0
   17.5908  -25.6533   -7.2544 C   0  0  0  0  0  0  0  0  0  0  0  0
   17.8142  -26.6750   -6.1660 C   0  0  0  0  0  0  0  0  0  0  0  0
   16.4862  -27.3844   -5.9127 C   0  0  0  0  0  0  0  0  0  0  0  0
   16.6034  -28.3573   -4.8472 N   0  0  0  0  0  0  0  0  0  0  0  0
   17.4859  -22.9052   -8.1918 C   0  0  0  0  0  0  0  0  0  0  0  0
   17.6654  -21.7556   -7.7031 O   0  0  0  0  0  0  0  0  0  0  0  0
   16.1504  -23.3422   -8.3550 O   0  0  0  0  0  0  0  0  0  0  0  0
  1  2  1  0
  2  3  2  0
  4  2  1  0
  5  4  1  0
  5  6  1  6
  7  5  1  0
  7  9  1  0
  8  7  2  0
  9 13  1  0
 10  9  1  0
 10 11  1  0
 11 12  1  0
 13 12  1  0
 13 14  1  1
 14 15  2  0
 16 14  1  0
 17 16  1  0
 17 18  1  1
 19 18  1  0
 20 19  1  0
 20 21  1  0
 22 21  1  0
 23 17  1  0
 24 23  2  0
 25 23  1  0
M  END
$$$$
