NPK.pdb
     RDKit          3D

 25 25  0  0  1  0  0  0  0  0999 V2000
   29.0765  -22.5193  -19.4938 N   0  0  0  0  0  0  0  0  0  0  0  0
   27.9981  -23.3929  -19.2350 C   0  0  0  0  0  0  0  0  0  0  0  0
   27.9268  -24.4225  -19.9807 O   0  0  0  0  0  0  0  0  0  0  0  0
   27.0249  -23.1233  -18.1711 C   0  0  0  0  0  0  0  0  0  0  0  0
   27.8179  -22.9031  -16.8720 C   0  0  2  0  0  0  0  0  0  0  0  0
   28.2740  -24.1757  -16.4563 N   0  0  0  0  0  0  0  0  0  0  0  0
   26.9602  -22.1522  -15.9663 C   0  0  0  0  0  0  0  0  0  0  0  0
   26.0691  -22.8095  -15.3017 O   0  0  0  0  0  0  0  0  0  0  0  0
   26.9760  -20.7567  -15.7109 N   0  0  0  0  0  0  0  0  0  0  0  0
   27.8456  -19.8066  -16.3336 C   0  0  0  0  0  0  0  0  0  0  0  0
   27.0370  -18.5187  -16.3170 C   0  0  0  0  0  0  0  0  0  0  0  0
   26.5357  -18.5836  -14.8662 C   0  0  0  0  0  0  0  0  0  0  0  0
   26.1290  -20.0271  -14.7825 C   0  0  1  0  0  0  0  0  0  0  0  0
   24.6906  -20.2411  -15.0537 C   0  0  0  0  0  0  0  0  0  0  0  0
   24.2817  -20.3387  -16.2445 O   0  0  0  0  0  0  0  0  0  0  0  0
   23.7092  -20.3478  -14.0530 N   0  0  0  0  0  0  0  0  0  0  0  0
   22.3105  -20.6782  -14.2879 C   0  0  1  0  0  0  0  0  0  0  0  0
   21.6768  -21.3295  -13.1192 C   0  0  0  0  0  0  0  0  0  0  0  0
   20.2234  -21.6003  -13.3588 C   0  0  0  0  0  0  0  0  0  0  0  0
   19.5524  -22.2928  -12.1976 C   0  0  0  0  0  0  0  0  0  0  0  0
   18.0962  -22.5429  -12.5822 C   0  0  0  0  0  0  0  0  0  0  0  0
   17.4032  -23.2973  -11.5593 N   0  0  0  0  0  0  0  0  0  0  0  0
   21.6195  -19.4155  -14.6010 C   0  0  0  0  0  0  0  0  0  0  0  0
   20.5574  -19.3093  -15.2742 O   0  0  0  0  0  0  0  0  0  0  0  0
   22.1971  -18.2238  -14.1037 O   0  0  0  0  0  0  0  0  0  0  0  0
  1  2  1  0
  2  3  2  0
  4  2  1  0
  5  4  1  0
  5  6  1  1
  7  5  1  0
  7  9  1  0
  8  7  2  0
  9 13  1  0
 10  9  1  0
 10 11  1  0
 11 12  1  0
 13 12  1  0
 13 14  1  6
 14 15  2  0
 16 14  1  0
 17 16  1  0
 17 18  1  1
 19 18  1  0
 20 19  1  0
 20 21  1  0
 22 21  1  0
 23 17  1  0
 24 23  2  0
 25 23  1  0
M  END
$$$$
