RFE.pdb
     RDKit          3D

 32 32  0  0  1  0  0  0  0  0999 V2000
    8.3365  -11.9741   18.9260 N   0  0  0  0  0  0  0  0  0  0  0  0
    9.2031  -13.0641   18.5930 C   0  0  0  0  0  0  0  0  0  0  0  0
   10.4481  -12.9911   18.9316 N   0  0  0  0  0  0  0  0  0  0  0  0
    8.6905  -14.1903   17.9066 N   0  0  0  0  0  0  0  0  0  0  0  0
    8.6615  -15.4647   18.5668 C   0  0  0  0  0  0  0  0  0  0  0  0
    7.3901  -15.5690   19.3805 C   0  0  0  0  0  0  0  0  0  0  0  0
    7.6836  -15.1170   20.8046 C   0  0  0  0  0  0  0  0  0  0  0  0
    7.6110  -16.3324   21.6702 C   0  0  2  0  0  0  0  0  0  0  0  0
    6.2605  -16.8297   21.8323 N   0  0  0  0  0  0  0  0  0  0  0  0
    8.2575  -16.1390   23.0061 C   0  0  0  0  0  0  0  0  0  0  0  0
    9.4610  -15.7908   23.0416 O   0  0  0  0  0  0  0  0  0  0  0  0
   11.1154  -13.7562   18.7072 N   0  0  0  0  0  0  0  0  0  0  0  0
    7.5486  -16.3383   24.2208 C   0  0  1  0  0  0  0  0  0  0  0  0
    8.0535  -16.1329   25.5399 C   0  0  0  0  0  0  0  0  0  0  0  0
    7.0331  -15.5807   26.5383 C   0  0  0  0  0  0  0  0  0  0  0  0
    6.9307  -14.1271   26.3841 C   0  0  0  0  0  0  0  0  0  0  0  0
    8.0958  -13.3845   26.5181 C   0  0  0  0  0  0  0  0  0  0  0  0
    8.0555  -12.0128   26.3993 C   0  0  0  0  0  0  0  0  0  0  0  0
    6.8758  -11.3639   26.1493 C   0  0  0  0  0  0  0  0  0  0  0  0
    5.7284  -12.0930   26.0175 C   0  0  0  0  0  0  0  0  0  0  0  0
    5.7569  -13.4887   26.1364 C   0  0  0  0  0  0  0  0  0  0  0  0
    8.8504  -17.2365   26.0650 O   0  0  0  0  0  0  0  0  0  0  0  0
    8.2323  -18.3098   26.3817 N   0  0  0  0  0  0  0  0  0  0  0  0
   10.2418  -17.2337   26.2578 C   0  0  1  0  0  0  0  0  0  0  0  0
   11.0239  -18.3979   26.6846 C   0  0  0  0  0  0  0  0  0  0  0  0
   12.4249  -18.3170   26.2050 C   0  0  0  0  0  0  0  0  0  0  0  0
   12.7547  -19.4641   25.2949 C   0  0  0  0  0  0  0  0  0  0  0  0
   13.7913  -19.0557   24.2831 O   0  0  0  0  0  0  0  0  0  0  0  0
   14.2744  -17.9116   24.3683 C   0  0  0  0  0  0  0  0  0  0  0  0
   10.8801  -18.5226   28.1477 O   0  0  0  0  0  0  0  0  0  0  0  0
   11.4744  -19.6290   28.8063 O   0  0  0  0  0  0  0  0  0  0  0  0
   14.1350  -19.9928   23.3215 O   0  0  0  0  0  0  0  0  0  0  0  0
  2  3  2  0
  2  1  1  0
  4  2  1  0
  5  4  1  0
  6  5  1  0
  7  8  1  0
  7  6  1  0
  8  9  1  1
 10 11  2  0
 10  8  1  0
 12 10  1  0
 13 12  1  0
 13 21  1  0
 13 14  1  1
 15 14  1  0
 16 15  2  0
 17 16  1  0
 18 17  2  0
 18 19  1  0
 19 20  2  0
 20 15  1  0
 21 23  1  0
 22 21  2  0
 23 24  1  0
 24 25  1  1
 24 29  1  0
 26 27  1  0
 26 25  1  0
 27 28  2  0
 29 32  2  0
 29 30  1  0
 31 27  1  0
M  END
$$$$
