RFE.pdb
     RDKit          3D

 32 32  0  0  1  0  0  0  0  0999 V2000
    9.4476  -15.0868   14.6184 N   0  0  0  0  0  0  0  0  0  0  0  0
    8.2095  -14.6335   15.1765 C   0  0  0  0  0  0  0  0  0  0  0  0
    7.6164  -13.6240   14.6295 N   0  0  0  0  0  0  0  0  0  0  0  0
    7.6608  -15.2885   16.3045 N   0  0  0  0  0  0  0  0  0  0  0  0
    8.4115  -16.3281   16.9499 C   0  0  0  0  0  0  0  0  0  0  0  0
    7.5703  -16.9301   18.0541 C   0  0  0  0  0  0  0  0  0  0  0  0
    7.5416  -15.9619   19.2290 C   0  0  0  0  0  0  0  0  0  0  0  0
    8.4002  -16.5519   20.2997 C   0  0  2  0  0  0  0  0  0  0  0  0
    7.8821  -17.8032   20.8127 N   0  0  0  0  0  0  0  0  0  0  0  0
    8.6701  -15.6013   21.4237 C   0  0  0  0  0  0  0  0  0  0  0  0
    9.5129  -14.6908   21.2456 O   0  0  0  0  0  0  0  0  0  0  0  0
    6.6994  -13.2808   14.9794 N   0  0  0  0  0  0  0  0  0  0  0  0
    8.0021  -15.7046   22.6731 C   0  0  1  0  0  0  0  0  0  0  0  0
    8.1535  -14.8286   23.7896 C   0  0  0  0  0  0  0  0  0  0  0  0
    6.8664  -14.5608   24.5737 C   0  0  0  0  0  0  0  0  0  0  0  0
    7.1089  -13.5212   25.5775 C   0  0  0  0  0  0  0  0  0  0  0  0
    7.4015  -13.9340   26.8701 C   0  0  0  0  0  0  0  0  0  0  0  0
    7.6221  -12.9998   27.8580 C   0  0  0  0  0  0  0  0  0  0  0  0
    7.5571  -11.6595   27.5841 C   0  0  0  0  0  0  0  0  0  0  0  0
    7.2691  -11.2517   26.3129 C   0  0  0  0  0  0  0  0  0  0  0  0
    7.0426  -12.1926   25.2999 C   0  0  0  0  0  0  0  0  0  0  0  0
    9.3072  -15.1148   24.6356 O   0  0  0  0  0  0  0  0  0  0  0  0
    9.0959  -15.2644   25.8876 N   0  0  0  0  0  0  0  0  0  0  0  0
   10.6378  -15.2429   24.2044 C   0  0  1  0  0  0  0  0  0  0  0  0
   11.6225  -16.1481   24.8047 C   0  0  0  0  0  0  0  0  0  0  0  0
   11.1120  -17.5388   24.8727 C   0  0  0  0  0  0  0  0  0  0  0  0
   11.2984  -18.1195   26.2441 C   0  0  0  0  0  0  0  0  0  0  0  0
   10.2699  -19.1851   26.5119 O   0  0  0  0  0  0  0  0  0  0  0  0
   10.4127  -20.2901   25.9567 C   0  0  0  0  0  0  0  0  0  0  0  0
   12.8871  -15.9920   24.0607 O   0  0  0  0  0  0  0  0  0  0  0  0
   12.8409  -15.8021   22.6563 O   0  0  0  0  0  0  0  0  0  0  0  0
    9.2292  -18.8543   27.3652 O   0  0  0  0  0  0  0  0  0  0  0  0
  2  3  2  0
  2  1  1  0
  4  2  1  0
  5  4  1  0
  6  5  1  0
  7  8  1  0
  7  6  1  0
  8  9  1  1
 10 11  2  0
 10  8  1  0
 12 10  1  0
 13 12  1  0
 13 21  1  0
 13 14  1  6
 15 14  1  0
 16 15  2  0
 17 16  1  0
 18 17  2  0
 18 19  1  0
 19 20  2  0
 20 15  1  0
 21 23  1  0
 22 21  2  0
 23 24  1  0
 24 25  1  1
 24 29  1  0
 26 27  1  0
 26 25  1  0
 27 28  2  0
 29 32  2  0
 29 30  1  0
 31 27  1  0
M  END
$$$$
