RFE.pdb
     RDKit          3D

 32 32  0  0  1  0  0  0  0  0999 V2000
    9.8294  -14.2031   15.7514 N   0  0  0  0  0  0  0  0  0  0  0  0
    8.4425  -14.4774   15.9779 C   0  0  0  0  0  0  0  0  0  0  0  0
    7.7481  -14.9922   15.0173 N   0  0  0  0  0  0  0  0  0  0  0  0
    7.8599  -14.1840   17.2337 N   0  0  0  0  0  0  0  0  0  0  0  0
    8.5560  -13.3257   18.1501 C   0  0  0  0  0  0  0  0  0  0  0  0
    7.6945  -13.1115   19.3753 C   0  0  0  0  0  0  0  0  0  0  0  0
    8.5823  -13.1630   20.6113 C   0  0  0  0  0  0  0  0  0  0  0  0
    8.5915  -14.5810   21.0814 C   0  0  2  0  0  0  0  0  0  0  0  0
    7.3436  -15.2691   20.8228 N   0  0  0  0  0  0  0  0  0  0  0  0
    8.9713  -14.7174   22.5225 C   0  0  0  0  0  0  0  0  0  0  0  0
   10.0901  -14.2863   22.8880 O   0  0  0  0  0  0  0  0  0  0  0  0
    6.7258  -15.1544   15.1157 N   0  0  0  0  0  0  0  0  0  0  0  0
    8.1048  -15.3167   23.4754 C   0  0  2  0  0  0  0  0  0  0  0  0
    8.3827  -15.5255   24.8597 C   0  0  0  0  0  0  0  0  0  0  0  0
    7.1613  -15.4419   25.7786 C   0  0  0  0  0  0  0  0  0  0  0  0
    6.9246  -14.0462   26.1569 C   0  0  0  0  0  0  0  0  0  0  0  0
    7.9267  -13.1273   25.8768 C   0  0  0  0  0  0  0  0  0  0  0  0
    7.7649  -11.8045   26.2254 C   0  0  0  0  0  0  0  0  0  0  0  0
    6.6227  -11.3771   26.8485 C   0  0  0  0  0  0  0  0  0  0  0  0
    5.6359  -12.2800   27.1250 C   0  0  0  0  0  0  0  0  0  0  0  0
    5.7892  -13.6280   26.7755 C   0  0  0  0  0  0  0  0  0  0  0  0
    9.2519  -16.6629   25.1410 O   0  0  0  0  0  0  0  0  0  0  0  0
    9.4531  -16.9604   26.3680 N   0  0  0  0  0  0  0  0  0  0  0  0
    9.8943  -17.4691   24.1868 C   0  0  2  0  0  0  0  0  0  0  0  0
   10.7095  -18.6451   24.5057 C   0  0  0  0  0  0  0  0  0  0  0  0
   11.1364  -19.3597   23.2784 C   0  0  0  0  0  0  0  0  0  0  0  0
   12.0848  -18.5264   22.4666 C   0  0  0  0  0  0  0  0  0  0  0  0
   12.5501  -19.2851   21.2529 O   0  0  0  0  0  0  0  0  0  0  0  0
   11.7587  -19.4082   20.2999 C   0  0  0  0  0  0  0  0  0  0  0  0
   11.8153  -18.2015   25.3761 O   0  0  0  0  0  0  0  0  0  0  0  0
   12.5984  -19.1759   26.0453 O   0  0  0  0  0  0  0  0  0  0  0  0
   13.8379  -19.7959   21.2861 O   0  0  0  0  0  0  0  0  0  0  0  0
  2  3  2  0
  2  1  1  0
  4  2  1  0
  5  4  1  0
  6  5  1  0
  7  8  1  0
  7  6  1  0
  8  9  1  1
 10 11  2  0
 10  8  1  0
 12 10  1  0
 13 12  1  0
 13 21  1  0
 13 14  1  6
 15 14  1  0
 16 15  2  0
 17 16  1  0
 18 17  2  0
 18 19  1  0
 19 20  2  0
 20 15  1  0
 21 23  1  0
 22 21  2  0
 23 24  1  0
 24 25  1  6
 24 29  1  0
 26 27  1  0
 26 25  1  0
 27 28  2  0
 29 32  2  0
 29 30  1  0
 31 27  1  0
M  END
$$$$
