RFE.pdb
     RDKit          3D

 32 32  0  0  1  0  0  0  0  0999 V2000
    7.5734  -15.4323   15.5522 N   0  0  0  0  0  0  0  0  0  0  0  0
    8.0805  -14.1160   15.7974 C   0  0  0  0  0  0  0  0  0  0  0  0
    8.7627  -13.5320   14.8681 N   0  0  0  0  0  0  0  0  0  0  0  0
    7.8309  -13.4822   17.0378 N   0  0  0  0  0  0  0  0  0  0  0  0
    7.7094  -14.2802   18.2249 C   0  0  0  0  0  0  0  0  0  0  0  0
    8.8002  -15.3287   18.2273 C   0  0  0  0  0  0  0  0  0  0  0  0
    9.8774  -14.9102   19.2188 C   0  0  0  0  0  0  0  0  0  0  0  0
    9.8241  -15.8802   20.3538 C   0  0  2  0  0  0  0  0  0  0  0  0
    8.7436  -16.8364   20.2284 N   0  0  0  0  0  0  0  0  0  0  0  0
    9.7748  -15.2128   21.6924 C   0  0  0  0  0  0  0  0  0  0  0  0
   10.6997  -14.4251   22.0007 O   0  0  0  0  0  0  0  0  0  0  0  0
    9.0745  -12.5449   14.9652 N   0  0  0  0  0  0  0  0  0  0  0  0
    8.7173  -15.4474   22.6115 C   0  0  1  0  0  0  0  0  0  0  0  0
    8.5063  -14.7714   23.8506 C   0  0  0  0  0  0  0  0  0  0  0  0
    7.1143  -14.1567   24.0167 C   0  0  0  0  0  0  0  0  0  0  0  0
    7.0580  -13.3971   25.2685 C   0  0  0  0  0  0  0  0  0  0  0  0
    7.5221  -12.0890   25.2461 C   0  0  0  0  0  0  0  0  0  0  0  0
    7.5082  -11.3336   26.3978 C   0  0  0  0  0  0  0  0  0  0  0  0
    7.0404  -11.8555   27.5743 C   0  0  0  0  0  0  0  0  0  0  0  0
    6.5836  -13.1425   27.5982 C   0  0  0  0  0  0  0  0  0  0  0  0
    6.5931  -13.9206   26.4332 C   0  0  0  0  0  0  0  0  0  0  0  0
    8.9710  -15.4983   25.0272 O   0  0  0  0  0  0  0  0  0  0  0  0
    9.4669  -14.8119   25.9850 N   0  0  0  0  0  0  0  0  0  0  0  0
    8.9261  -16.8902   25.2108 C   0  0  2  0  0  0  0  0  0  0  0  0
   10.0687  -17.7115   25.6220 C   0  0  0  0  0  0  0  0  0  0  0  0
   11.2145  -17.5524   24.6941 C   0  0  0  0  0  0  0  0  0  0  0  0
   12.4105  -18.3242   25.1702 C   0  0  0  0  0  0  0  0  0  0  0  0
   13.5770  -18.1188   24.2416 O   0  0  0  0  0  0  0  0  0  0  0  0
   14.4601  -17.3095   24.5804 C   0  0  0  0  0  0  0  0  0  0  0  0
   10.3679  -17.3902   27.0307 O   0  0  0  0  0  0  0  0  0  0  0  0
   10.2915  -16.0411   27.4606 O   0  0  0  0  0  0  0  0  0  0  0  0
   13.5819  -18.8529   23.0662 O   0  0  0  0  0  0  0  0  0  0  0  0
  2  3  2  0
  2  1  1  0
  4  2  1  0
  5  4  1  0
  6  5  1  0
  7  8  1  0
  7  6  1  0
  8  9  1  6
 10 11  2  0
 10  8  1  0
 12 10  1  0
 13 12  1  0
 13 21  1  0
 13 14  1  1
 15 14  1  0
 16 15  2  0
 17 16  1  0
 18 17  2  0
 18 19  1  0
 19 20  2  0
 20 15  1  0
 21 23  1  0
 22 21  2  0
 23 24  1  0
 24 25  1  6
 24 29  1  0
 26 27  1  0
 26 25  1  0
 27 28  2  0
 29 32  2  0
 29 30  1  0
 31 27  1  0
M  END
$$$$
