RFE.pdb
     RDKit          3D

 32 32  0  0  1  0  0  0  0  0999 V2000
    9.6635  -14.8626   14.9265 N   0  0  0  0  0  0  0  0  0  0  0  0
    8.2653  -14.6622   14.6919 C   0  0  0  0  0  0  0  0  0  0  0  0
    7.7542  -15.0970   13.5875 N   0  0  0  0  0  0  0  0  0  0  0  0
    7.4742  -13.9992   15.6598 N   0  0  0  0  0  0  0  0  0  0  0  0
    8.0719  -13.5929   16.9002 C   0  0  0  0  0  0  0  0  0  0  0  0
    8.9178  -14.7280   17.4343 C   0  0  0  0  0  0  0  0  0  0  0  0
    9.4419  -14.3405   18.8105 C   0  0  0  0  0  0  0  0  0  0  0  0
    9.0408  -15.4297   19.7510 C   0  0  2  0  0  0  0  0  0  0  0  0
    7.7007  -15.9212   19.5062 N   0  0  0  0  0  0  0  0  0  0  0  0
    9.2000  -15.0489   21.1896 C   0  0  0  0  0  0  0  0  0  0  0  0
   10.3513  -14.7959   21.6158 O   0  0  0  0  0  0  0  0  0  0  0  0
    6.7418  -14.9846   13.3791 N   0  0  0  0  0  0  0  0  0  0  0  0
    8.0910  -14.9681   22.0736 C   0  0  2  0  0  0  0  0  0  0  0  0
    8.1224  -14.5417   23.4353 C   0  0  0  0  0  0  0  0  0  0  0  0
    6.9510  -13.6503   23.8553 C   0  0  0  0  0  0  0  0  0  0  0  0
    7.1400  -13.2092   25.2398 C   0  0  0  0  0  0  0  0  0  0  0  0
    6.4068  -13.8569   26.2247 C   0  0  0  0  0  0  0  0  0  0  0  0
    6.5324  -13.4724   27.5414 C   0  0  0  0  0  0  0  0  0  0  0  0
    7.3753  -12.4538   27.8982 C   0  0  0  0  0  0  0  0  0  0  0  0
    8.0972  -11.8154   26.9304 C   0  0  0  0  0  0  0  0  0  0  0  0
    7.9777  -12.1974   25.5878 C   0  0  0  0  0  0  0  0  0  0  0  0
    8.4318  -15.5954   24.3958 O   0  0  0  0  0  0  0  0  0  0  0  0
    7.5325  -16.4785   24.6103 N   0  0  0  0  0  0  0  0  0  0  0  0
    9.6312  -15.7346   25.1134 C   0  0  1  0  0  0  0  0  0  0  0  0
   10.0743  -16.9739   25.7592 C   0  0  0  0  0  0  0  0  0  0  0  0
   11.3804  -17.4289   25.2240 C   0  0  0  0  0  0  0  0  0  0  0  0
   11.8344  -18.6903   25.8990 C   0  0  0  0  0  0  0  0  0  0  0  0
   13.0784  -19.2241   25.2413 O   0  0  0  0  0  0  0  0  0  0  0  0
   14.0697  -18.4747   25.1673 C   0  0  0  0  0  0  0  0  0  0  0  0
   10.0498  -16.7530   27.2178 O   0  0  0  0  0  0  0  0  0  0  0  0
    9.7896  -15.4498   27.7127 O   0  0  0  0  0  0  0  0  0  0  0  0
   13.0283  -20.5235   24.7619 O   0  0  0  0  0  0  0  0  0  0  0  0
  2  3  2  0
  2  1  1  0
  4  2  1  0
  5  4  1  0
  6  5  1  0
  7  8  1  0
  7  6  1  0
  8  9  1  1
 10 11  2  0
 10  8  1  0
 12 10  1  0
 13 12  1  0
 13 21  1  0
 13 14  1  6
 15 14  1  0
 16 15  2  0
 17 16  1  0
 18 17  2  0
 18 19  1  0
 19 20  2  0
 20 15  1  0
 21 23  1  0
 22 21  2  0
 23 24  1  0
 24 25  1  1
 24 29  1  0
 26 27  1  0
 26 25  1  0
 27 28  2  0
 29 32  2  0
 29 30  1  0
 31 27  1  0
M  END
$$$$
