VQQ.pdb
     RDKit          3D

 26 25  0  0  1  0  0  0  0  0999 V2000
    7.3125  -12.2244   19.0537 C   0  0  0  0  0  0  0  0  0  0  0  0
    8.5490  -12.9801   19.4999 C   0  0  1  0  0  0  0  0  0  0  0  0
    8.1509  -13.7725   20.7353 C   0  0  0  0  0  0  0  0  0  0  0  0
    8.9869  -13.9876   18.4612 C   0  0  2  0  0  0  0  0  0  0  0  0
    7.8607  -14.8679   18.2100 N   0  0  0  0  0  0  0  0  0  0  0  0
   10.1805  -14.7522   18.8968 C   0  0  0  0  0  0  0  0  0  0  0  0
   10.0619  -15.8330   19.4803 O   0  0  0  0  0  0  0  0  0  0  0  0
   16.9676  -13.3120   17.8048 N   0  0  0  0  0  0  0  0  0  0  0  0
   16.0623  -14.2769   17.2946 C   0  0  0  0  0  0  0  0  0  0  0  0
   16.0734  -14.5833   16.0678 O   0  0  0  0  0  0  0  0  0  0  0  0
   15.1120  -14.9052   18.2503 C   0  0  0  0  0  0  0  0  0  0  0  0
   13.7651  -14.2801   18.0452 C   0  0  0  0  0  0  0  0  0  0  0  0
   12.6967  -14.9004   18.9115 C   0  0  2  0  0  0  0  0  0  0  0  0
   11.4519  -14.2247   18.6339 N   0  0  0  0  0  0  0  0  0  0  0  0
   13.0481  -14.8742   20.3440 C   0  0  0  0  0  0  0  0  0  0  0  0
   13.3418  -13.7627   20.8595 O   0  0  0  0  0  0  0  0  0  0  0  0
   10.7071  -18.7396   24.1739 N   0  0  0  0  0  0  0  0  0  0  0  0
   10.1593  -17.4539   23.9149 C   0  0  0  0  0  0  0  0  0  0  0  0
    8.9253  -17.2614   24.0238 O   0  0  0  0  0  0  0  0  0  0  0  0
   11.0917  -16.3631   23.5162 C   0  0  0  0  0  0  0  0  0  0  0  0
   12.5071  -16.8715   23.3924 C   0  0  0  0  0  0  0  0  0  0  0  0
   13.4061  -16.0060   22.5843 C   0  0  2  0  0  0  0  0  0  0  0  0
   13.0719  -16.0308   21.1661 N   0  0  0  0  0  0  0  0  0  0  0  0
   14.8495  -16.2103   22.7978 C   0  0  0  0  0  0  0  0  0  0  0  0
   15.5990  -15.7341   23.8420 O   0  0  0  0  0  0  0  0  0  0  0  0
   15.4657  -16.9036   21.9164 O   0  0  0  0  0  0  0  0  0  0  0  0
  2  1  1  6
  2  4  1  0
  3  2  1  0
  4  6  1  0
  4  5  1  1
  6 14  1  0
  7  6  2  0
  9  8  1  0
  9 10  2  0
 11 12  1  0
 11  9  1  0
 13 12  1  6
 13 15  1  0
 14 13  1  0
 15 23  1  0
 15 16  2  0
 17 18  1  0
 18 20  1  0
 18 19  2  0
 20 21  1  0
 22 21  1  1
 22 24  1  0
 23 22  1  0
 24 26  2  0
 24 25  1  0
M  END
$$$$
