VQQ.pdb
     RDKit          3D

 26 25  0  0  1  0  0  0  0  0999 V2000
    8.2381  -12.4599   18.5806 C   0  0  0  0  0  0  0  0  0  0  0  0
    8.5302  -13.2755   19.8250 C   0  0  1  0  0  0  0  0  0  0  0  0
    7.4121  -12.9773   20.8116 C   0  0  0  0  0  0  0  0  0  0  0  0
    8.4730  -14.7593   19.5405 C   0  0  2  0  0  0  0  0  0  0  0  0
    7.2436  -15.0133   18.8122 N   0  0  0  0  0  0  0  0  0  0  0  0
    8.5390  -15.5665   20.7826 C   0  0  0  0  0  0  0  0  0  0  0  0
    7.5148  -15.8447   21.4122 O   0  0  0  0  0  0  0  0  0  0  0  0
   12.1570  -19.9839   21.6662 N   0  0  0  0  0  0  0  0  0  0  0  0
   12.1251  -19.7022   23.0556 C   0  0  0  0  0  0  0  0  0  0  0  0
   12.4948  -20.5713   23.8963 O   0  0  0  0  0  0  0  0  0  0  0  0
   11.6448  -18.3594   23.4768 C   0  0  0  0  0  0  0  0  0  0  0  0
   11.2593  -17.5962   22.2455 C   0  0  0  0  0  0  0  0  0  0  0  0
   10.0069  -16.7765   22.4363 C   0  0  2  0  0  0  0  0  0  0  0  0
    9.7897  -16.0106   21.2323 N   0  0  0  0  0  0  0  0  0  0  0  0
   10.0665  -15.9301   23.6430 C   0  0  0  0  0  0  0  0  0  0  0  0
   10.9122  -14.9965   23.6679 O   0  0  0  0  0  0  0  0  0  0  0  0
    6.5463  -11.2050   26.9956 N   0  0  0  0  0  0  0  0  0  0  0  0
    6.4617  -12.6168   26.8553 C   0  0  0  0  0  0  0  0  0  0  0  0
    5.3567  -13.1617   26.6236 O   0  0  0  0  0  0  0  0  0  0  0  0
    7.7148  -13.4101   26.9918 C   0  0  0  0  0  0  0  0  0  0  0  0
    7.8697  -14.3881   25.8531 C   0  0  0  0  0  0  0  0  0  0  0  0
    9.1368  -15.1655   25.8743 C   0  0  2  0  0  0  0  0  0  0  0  0
    9.2244  -16.1129   24.7705 N   0  0  0  0  0  0  0  0  0  0  0  0
    9.4701  -15.8069   27.1582 C   0  0  0  0  0  0  0  0  0  0  0  0
    9.9689  -15.1914   28.2767 O   0  0  0  0  0  0  0  0  0  0  0  0
    9.2737  -17.0690   27.2351 O   0  0  0  0  0  0  0  0  0  0  0  0
  2  1  1  6
  2  4  1  0
  3  2  1  0
  4  6  1  0
  4  5  1  1
  6 14  1  0
  7  6  2  0
  9  8  1  0
  9 10  2  0
 11 12  1  0
 11  9  1  0
 13 12  1  6
 13 15  1  0
 14 13  1  0
 15 23  1  0
 15 16  2  0
 17 18  1  0
 18 20  1  0
 18 19  2  0
 20 21  1  0
 22 21  1  1
 22 24  1  0
 23 22  1  0
 24 26  2  0
 24 25  1  0
M  END
$$$$
