VQQ.pdb
     RDKit          3D

 26 25  0  0  1  0  0  0  0  0999 V2000
   10.8690  -20.0653   13.4578 C   0  0  0  0  0  0  0  0  0  0  0  0
   12.3247  -20.2341   13.8473 C   0  0  1  0  0  0  0  0  0  0  0  0
   13.0810  -19.0786   13.2108 C   0  0  0  0  0  0  0  0  0  0  0  0
   12.5162  -20.1068   15.3416 C   0  0  2  0  0  0  0  0  0  0  0  0
   11.7872  -18.9282   15.7727 N   0  0  0  0  0  0  0  0  0  0  0  0
   13.9491  -20.0185   15.7129 C   0  0  0  0  0  0  0  0  0  0  0  0
   14.7208  -20.9545   15.4867 O   0  0  0  0  0  0  0  0  0  0  0  0
   17.8510  -18.8405   12.6814 N   0  0  0  0  0  0  0  0  0  0  0  0
   17.3699  -17.9057   13.6331 C   0  0  0  0  0  0  0  0  0  0  0  0
   16.7965  -16.8432   13.2572 O   0  0  0  0  0  0  0  0  0  0  0  0
   17.5654  -18.2232   15.0725 C   0  0  0  0  0  0  0  0  0  0  0  0
   16.4153  -17.6408   15.8375 C   0  0  0  0  0  0  0  0  0  0  0  0
   15.7725  -18.6368   16.7711 C   0  0  2  0  0  0  0  0  0  0  0  0
   14.4152  -18.8488   16.3281 N   0  0  0  0  0  0  0  0  0  0  0  0
   15.8482  -18.2152   18.1827 C   0  0  0  0  0  0  0  0  0  0  0  0
   15.0542  -17.3187   18.5744 O   0  0  0  0  0  0  0  0  0  0  0  0
   17.2117  -21.8175   23.7540 N   0  0  0  0  0  0  0  0  0  0  0  0
   16.7321  -21.6995   22.4212 C   0  0  0  0  0  0  0  0  0  0  0  0
   15.8534  -22.4862   21.9961 O   0  0  0  0  0  0  0  0  0  0  0  0
   17.3037  -20.6240   21.5642 C   0  0  0  0  0  0  0  0  0  0  0  0
   16.3417  -19.4704   21.4198 C   0  0  0  0  0  0  0  0  0  0  0  0
   16.8116  -18.3827   20.5219 C   0  0  2  0  0  0  0  0  0  0  0  0
   16.7646  -18.7650   19.1165 N   0  0  0  0  0  0  0  0  0  0  0  0
   18.1122  -17.7847   20.8709 C   0  0  0  0  0  0  0  0  0  0  0  0
   18.4253  -17.1224   22.0294 O   0  0  0  0  0  0  0  0  0  0  0  0
   19.0444  -17.8954   20.0014 O   0  0  0  0  0  0  0  0  0  0  0  0
  2  1  1  1
  2  4  1  0
  3  2  1  0
  4  6  1  0
  4  5  1  6
  6 14  1  0
  7  6  2  0
  9  8  1  0
  9 10  2  0
 11 12  1  0
 11  9  1  0
 13 12  1  6
 13 15  1  0
 14 13  1  0
 15 23  1  0
 15 16  2  0
 17 18  1  0
 18 20  1  0
 18 19  2  0
 20 21  1  0
 22 21  1  1
 22 24  1  0
 23 22  1  0
 24 26  2  0
 24 25  1  0
M  END
$$$$
