VQQ.pdb
     RDKit          3D

 26 25  0  0  1  0  0  0  0  0999 V2000
    8.1089  -20.6307   19.7779 C   0  0  0  0  0  0  0  0  0  0  0  0
    9.0223  -19.4221   19.7142 C   0  0  1  0  0  0  0  0  0  0  0  0
    8.3162  -18.3897   18.8493 C   0  0  0  0  0  0  0  0  0  0  0  0
    9.2050  -18.7938   21.0772 C   0  0  2  0  0  0  0  0  0  0  0  0
    7.8881  -18.6604   21.6724 N   0  0  0  0  0  0  0  0  0  0  0  0
    9.8944  -17.4834   20.9974 C   0  0  0  0  0  0  0  0  0  0  0  0
   11.0111  -17.3857   20.4816 O   0  0  0  0  0  0  0  0  0  0  0  0
    8.1583  -12.3960   19.0501 N   0  0  0  0  0  0  0  0  0  0  0  0
    7.4822  -13.6403   19.1252 C   0  0  0  0  0  0  0  0  0  0  0  0
    6.4081  -13.8278   18.4847 O   0  0  0  0  0  0  0  0  0  0  0  0
    8.0813  -14.7012   19.9776 C   0  0  0  0  0  0  0  0  0  0  0  0
    9.2807  -14.1225   20.6658 C   0  0  0  0  0  0  0  0  0  0  0  0
    9.8741  -15.0595   21.6888 C   0  0  2  0  0  0  0  0  0  0  0  0
    9.2538  -16.3518   21.5200 N   0  0  0  0  0  0  0  0  0  0  0  0
    9.7451  -14.5449   23.0653 C   0  0  0  0  0  0  0  0  0  0  0  0
    9.3806  -13.3484   23.2164 O   0  0  0  0  0  0  0  0  0  0  0  0
    7.4785  -12.4273   27.0775 N   0  0  0  0  0  0  0  0  0  0  0  0
    6.5302  -13.3677   26.5913 C   0  0  0  0  0  0  0  0  0  0  0  0
    5.3683  -12.9976   26.3003 O   0  0  0  0  0  0  0  0  0  0  0  0
    6.9625  -14.7852   26.4434 C   0  0  0  0  0  0  0  0  0  0  0  0
    7.7948  -14.9762   25.1992 C   0  0  0  0  0  0  0  0  0  0  0  0
    9.2378  -15.2276   25.4536 C   0  0  2  0  0  0  0  0  0  0  0  0
   10.0093  -15.3247   24.2212 N   0  0  0  0  0  0  0  0  0  0  0  0
    9.5395  -16.3464   26.3636 C   0  0  0  0  0  0  0  0  0  0  0  0
   10.2921  -17.4557   26.0773 O   0  0  0  0  0  0  0  0  0  0  0  0
    9.0469  -16.2739   27.5423 O   0  0  0  0  0  0  0  0  0  0  0  0
  2  1  1  1
  2  4  1  0
  3  2  1  0
  4  6  1  0
  4  5  1  6
  6 14  1  0
  7  6  2  0
  9  8  1  0
  9 10  2  0
 11 12  1  0
 11  9  1  0
 13 12  1  6
 13 15  1  0
 14 13  1  0
 15 23  1  0
 15 16  2  0
 17 18  1  0
 18 20  1  0
 18 19  2  0
 20 21  1  0
 22 21  1  6
 22 24  1  0
 23 22  1  0
 24 26  2  0
 24 25  1  0
M  END
$$$$
