VQQ.pdb
     RDKit          3D

 26 25  0  0  1  0  0  0  0  0999 V2000
    7.8305  -12.4278   19.2662 C   0  0  0  0  0  0  0  0  0  0  0  0
    8.2960  -13.2900   20.4234 C   0  0  1  0  0  0  0  0  0  0  0  0
    7.4005  -12.9509   21.6048 C   0  0  0  0  0  0  0  0  0  0  0  0
    8.0943  -14.7603   20.1345 C   0  0  2  0  0  0  0  0  0  0  0  0
    6.7810  -14.9073   19.5343 N   0  0  0  0  0  0  0  0  0  0  0  0
    8.2228  -15.5898   21.3569 C   0  0  0  0  0  0  0  0  0  0  0  0
    7.2508  -15.7930   22.0895 O   0  0  0  0  0  0  0  0  0  0  0  0
   12.3122  -19.9106   23.3207 N   0  0  0  0  0  0  0  0  0  0  0  0
   12.9843  -18.6889   23.0624 C   0  0  0  0  0  0  0  0  0  0  0  0
   14.2334  -18.5938   23.2343 O   0  0  0  0  0  0  0  0  0  0  0  0
   12.1692  -17.5396   22.5873 C   0  0  0  0  0  0  0  0  0  0  0  0
   10.7479  -17.9988   22.4600 C   0  0  0  0  0  0  0  0  0  0  0  0
    9.7538  -16.9306   22.8441 C   0  0  2  0  0  0  0  0  0  0  0  0
    9.4726  -16.1421   21.6683 N   0  0  0  0  0  0  0  0  0  0  0  0
   10.2193  -16.1101   23.9783 C   0  0  0  0  0  0  0  0  0  0  0  0
   10.9376  -15.1064   23.7251 O   0  0  0  0  0  0  0  0  0  0  0  0
    6.1509  -13.1833   25.5293 N   0  0  0  0  0  0  0  0  0  0  0  0
    6.9118  -12.7072   26.6314 C   0  0  0  0  0  0  0  0  0  0  0  0
    6.5406  -11.6877   27.2596 O   0  0  0  0  0  0  0  0  0  0  0  0
    8.1454  -13.4533   27.0048 C   0  0  0  0  0  0  0  0  0  0  0  0
    8.4337  -14.5607   26.0211 C   0  0  0  0  0  0  0  0  0  0  0  0
    9.6456  -15.3637   26.3323 C   0  0  2  0  0  0  0  0  0  0  0  0
    9.9009  -16.3923   25.3321 N   0  0  0  0  0  0  0  0  0  0  0  0
    9.7119  -15.9156   27.6968 C   0  0  0  0  0  0  0  0  0  0  0  0
   10.0129  -15.2294   28.8446 O   0  0  0  0  0  0  0  0  0  0  0  0
    9.4633  -17.1645   27.8215 O   0  0  0  0  0  0  0  0  0  0  0  0
  2  1  1  6
  2  4  1  0
  3  2  1  0
  4  6  1  0
  4  5  1  1
  6 14  1  0
  7  6  2  0
  9  8  1  0
  9 10  2  0
 11 12  1  0
 11  9  1  0
 13 12  1  6
 13 15  1  0
 14 13  1  0
 15 23  1  0
 15 16  2  0
 17 18  1  0
 18 20  1  0
 18 19  2  0
 20 21  1  0
 22 21  1  6
 22 24  1  0
 23 22  1  0
 24 26  2  0
 24 25  1  0
M  END
$$$$
