VQQ.pdb
     RDKit          3D

 26 25  0  0  1  0  0  0  0  0999 V2000
    8.1276  -12.5874   19.1131 C   0  0  0  0  0  0  0  0  0  0  0  0
    8.4966  -13.3424   20.3752 C   0  0  1  0  0  0  0  0  0  0  0  0
    7.4649  -12.9620   21.4256 C   0  0  0  0  0  0  0  0  0  0  0  0
    8.3845  -14.8373   20.1788 C   0  0  2  0  0  0  0  0  0  0  0  0
    7.1077  -15.0952   19.5387 N   0  0  0  0  0  0  0  0  0  0  0  0
    8.5035  -15.5766   21.4587 C   0  0  0  0  0  0  0  0  0  0  0  0
    7.5107  -15.7962   22.1579 O   0  0  0  0  0  0  0  0  0  0  0  0
   11.8730  -20.1017   22.2234 N   0  0  0  0  0  0  0  0  0  0  0  0
   11.9228  -19.8314   23.6146 C   0  0  0  0  0  0  0  0  0  0  0  0
   12.2612  -20.7340   24.4330 O   0  0  0  0  0  0  0  0  0  0  0  0
   11.5651  -18.4600   24.0645 C   0  0  0  0  0  0  0  0  0  0  0  0
   11.2071  -17.6520   22.8537 C   0  0  0  0  0  0  0  0  0  0  0  0
   10.0365  -16.7306   23.0933 C   0  0  2  0  0  0  0  0  0  0  0  0
    9.7683  -16.0242   21.8635 N   0  0  0  0  0  0  0  0  0  0  0  0
   10.2608  -15.8200   24.2321 C   0  0  0  0  0  0  0  0  0  0  0  0
   11.2270  -15.0145   24.1624 O   0  0  0  0  0  0  0  0  0  0  0  0
    6.6494  -12.1355   27.2074 N   0  0  0  0  0  0  0  0  0  0  0  0
    6.2605  -13.2640   26.4358 C   0  0  0  0  0  0  0  0  0  0  0  0
    5.0825  -13.3666   26.0193 O   0  0  0  0  0  0  0  0  0  0  0  0
    7.2886  -14.3018   26.1461 C   0  0  0  0  0  0  0  0  0  0  0  0
    8.6316  -13.9151   26.7153 C   0  0  0  0  0  0  0  0  0  0  0  0
    9.6947  -14.9398   26.5413 C   0  0  2  0  0  0  0  0  0  0  0  0
    9.4480  -15.8055   25.3954 N   0  0  0  0  0  0  0  0  0  0  0  0
   10.0270  -15.7244   27.7433 C   0  0  0  0  0  0  0  0  0  0  0  0
   10.0559  -17.0909   27.8480 O   0  0  0  0  0  0  0  0  0  0  0  0
   10.3177  -15.0603   28.7977 O   0  0  0  0  0  0  0  0  0  0  0  0
  2  1  1  6
  2  4  1  0
  3  2  1  0
  4  6  1  0
  4  5  1  1
  6 14  1  0
  7  6  2  0
  9  8  1  0
  9 10  2  0
 11 12  1  0
 11  9  1  0
 13 12  1  6
 13 15  1  0
 14 13  1  0
 15 23  1  0
 15 16  2  0
 17 18  1  0
 18 20  1  0
 18 19  2  0
 20 21  1  0
 22 21  1  1
 22 24  1  0
 23 22  1  0
 24 26  2  0
 24 25  1  0
M  END
$$$$
