VQQ.pdb
     RDKit          3D

 26 25  0  0  1  0  0  0  0  0999 V2000
    7.0167  -14.0419   17.4654 C   0  0  0  0  0  0  0  0  0  0  0  0
    7.8456  -14.5091   18.6459 C   0  0  1  0  0  0  0  0  0  0  0  0
    9.2804  -14.6159   18.1535 C   0  0  0  0  0  0  0  0  0  0  0  0
    7.8449  -13.4886   19.7614 C   0  0  2  0  0  0  0  0  0  0  0  0
    8.2659  -12.2226   19.1901 N   0  0  0  0  0  0  0  0  0  0  0  0
    8.7260  -13.8915   20.8840 C   0  0  0  0  0  0  0  0  0  0  0  0
    9.9305  -13.6238   20.8712 O   0  0  0  0  0  0  0  0  0  0  0  0
    6.2746  -17.3337   25.3542 N   0  0  0  0  0  0  0  0  0  0  0  0
    7.6099  -17.3779   25.8295 C   0  0  0  0  0  0  0  0  0  0  0  0
    7.8986  -18.0271   26.8755 O   0  0  0  0  0  0  0  0  0  0  0  0
    8.6426  -16.6384   25.0564 C   0  0  0  0  0  0  0  0  0  0  0  0
    7.9568  -15.9182   23.9348 C   0  0  0  0  0  0  0  0  0  0  0  0
    8.9200  -15.1654   23.0504 C   0  0  2  0  0  0  0  0  0  0  0  0
    8.1657  -14.5849   21.9653 N   0  0  0  0  0  0  0  0  0  0  0  0
   10.0308  -16.0134   22.5780 C   0  0  0  0  0  0  0  0  0  0  0  0
    9.9081  -16.5767   21.4577 O   0  0  0  0  0  0  0  0  0  0  0  0
   13.3604  -14.1451   19.3839 N   0  0  0  0  0  0  0  0  0  0  0  0
   14.3557  -15.1125   19.6902 C   0  0  0  0  0  0  0  0  0  0  0  0
   15.3982  -15.1847   18.9976 O   0  0  0  0  0  0  0  0  0  0  0  0
   14.1166  -16.0211   20.8457 C   0  0  0  0  0  0  0  0  0  0  0  0
   12.8030  -15.7127   21.5213 C   0  0  0  0  0  0  0  0  0  0  0  0
   12.5031  -16.5605   22.7052 C   0  0  2  0  0  0  0  0  0  0  0  0
   11.2236  -16.2255   23.3170 N   0  0  0  0  0  0  0  0  0  0  0  0
   13.5727  -16.6476   23.7148 C   0  0  0  0  0  0  0  0  0  0  0  0
   13.6391  -15.9619   24.8998 O   0  0  0  0  0  0  0  0  0  0  0  0
   14.5391  -17.4456   23.4569 O   0  0  0  0  0  0  0  0  0  0  0  0
  2  1  1  6
  2  4  1  0
  3  2  1  0
  4  6  1  0
  4  5  1  6
  6 14  1  0
  7  6  2  0
  9  8  1  0
  9 10  2  0
 11 12  1  0
 11  9  1  0
 13 12  1  6
 13 15  1  0
 14 13  1  0
 15 23  1  0
 15 16  2  0
 17 18  1  0
 18 20  1  0
 18 19  2  0
 20 21  1  0
 22 21  1  6
 22 24  1  0
 23 22  1  0
 24 26  2  0
 24 25  1  0
M  END
$$$$
