CSE.pdb
     RDKit          3D

 22 21  0  0  1  0  0  0  0  0999 V2000
   17.3012  -13.9753  -17.3544 N   0  0  0  0  0  0  0  0  0  0  0  0
   18.1116  -13.1057  -16.5666 C   0  0  1  0  0  0  0  0  0  0  0  0
   19.2548  -13.9449  -15.9770 C   0  0  0  0  0  0  0  0  0  0  0  0
   18.5896  -15.0196  -14.6857 S   0  0  0  0  0  0  0  0  0  0  0  0
   18.7374  -11.9902  -17.2924 C   0  0  0  0  0  0  0  0  0  0  0  0
   19.2242  -12.2676  -18.4315 O   0  0  0  0  0  0  0  0  0  0  0  0
   18.4868   -8.4834  -19.7193 O   0  0  0  0  0  0  0  0  0  0  0  0
   18.1837   -9.4991  -18.8239 C   0  0  0  0  0  0  0  0  0  0  0  0
   19.2539   -9.5647  -17.7251 C   0  0  2  0  0  0  0  0  0  0  0  0
   18.8514  -10.6576  -16.8588 N   0  0  0  0  0  0  0  0  0  0  0  0
   19.2370   -8.2520  -17.0319 C   0  0  0  0  0  0  0  0  0  0  0  0
   18.9271   -8.2832  -15.7968 O   0  0  0  0  0  0  0  0  0  0  0  0
   19.5330   -7.0383  -17.6490 N   0  0  0  0  0  0  0  0  0  0  0  0
   19.6094   -5.8125  -16.8580 C   0  0  1  0  0  0  0  0  0  0  0  0
   20.6485   -6.0815  -15.8027 C   0  0  0  0  0  0  0  0  0  0  0  0
   21.0247   -4.9199  -14.9510 C   0  0  0  0  0  0  0  0  0  0  0  0
   22.0567   -5.1889  -13.9357 C   0  0  0  0  0  0  0  0  0  0  0  0
   21.7761   -5.6669  -12.7819 O   0  0  0  0  0  0  0  0  0  0  0  0
   19.7698   -4.6243  -17.6628 C   0  0  0  0  0  0  0  0  0  0  0  0
   19.5472   -3.4454  -17.2137 O   0  0  0  0  0  0  0  0  0  0  0  0
   23.4004   -4.9338  -14.1832 O   0  0  0  0  0  0  0  0  0  0  0  0
   20.1912   -4.6355  -19.0015 O   0  0  0  0  0  0  0  0  0  0  0  0
  2  5  1  0
  2  1  1  6
  2  3  1  0
  3  4  1  0
  5 10  1  0
  6  5  2  0
  8  7  1  0
  9  8  1  6
 10  9  1  0
 11 12  2  0
 11  9  1  0
 13 11  1  0
 14 15  1  1
 14 13  1  0
 15 16  1  0
 16 17  1  0
 17 18  2  0
 19 14  1  0
 20 19  2  0
 21 17  1  0
 22 19  1  0
M  END
$$$$
