CSE.pdb
     RDKit          3D

 22 21  0  0  1  0  0  0  0  0999 V2000
   16.5980  -11.1266  -14.0029 N   0  0  0  0  0  0  0  0  0  0  0  0
   17.1987  -10.3553  -15.0413 C   0  0  1  0  0  0  0  0  0  0  0  0
   16.0670   -9.6964  -15.8435 C   0  0  0  0  0  0  0  0  0  0  0  0
   15.2058  -10.9668  -16.7971 S   0  0  0  0  0  0  0  0  0  0  0  0
   18.0864   -9.2712  -14.5944 C   0  0  0  0  0  0  0  0  0  0  0  0
   17.6821   -8.5912  -13.6016 O   0  0  0  0  0  0  0  0  0  0  0  0
   21.8397   -8.6736  -16.0930 O   0  0  0  0  0  0  0  0  0  0  0  0
   21.5816   -8.2438  -14.7992 C   0  0  0  0  0  0  0  0  0  0  0  0
   20.1199   -7.7898  -14.6804 C   0  0  2  0  0  0  0  0  0  0  0  0
   19.3276   -8.9124  -15.1486 N   0  0  0  0  0  0  0  0  0  0  0  0
   19.9727   -6.5897  -15.5419 C   0  0  0  0  0  0  0  0  0  0  0  0
   19.2404   -6.7364  -16.5737 O   0  0  0  0  0  0  0  0  0  0  0  0
   20.5766   -5.3614  -15.2809 N   0  0  0  0  0  0  0  0  0  0  0  0
   20.3304   -4.2213  -16.1605 C   0  0  1  0  0  0  0  0  0  0  0  0
   18.8358   -4.0429  -16.1754 C   0  0  0  0  0  0  0  0  0  0  0  0
   18.2526   -3.3515  -14.9931 C   0  0  0  0  0  0  0  0  0  0  0  0
   16.8258   -3.0051  -15.1040 C   0  0  0  0  0  0  0  0  0  0  0  0
   15.9027   -3.8920  -15.1087 O   0  0  0  0  0  0  0  0  0  0  0  0
   21.1355   -3.0673  -15.8360 C   0  0  0  0  0  0  0  0  0  0  0  0
   21.8498   -2.9941  -14.7751 O   0  0  0  0  0  0  0  0  0  0  0  0
   16.4071   -1.6841  -15.2105 O   0  0  0  0  0  0  0  0  0  0  0  0
   21.2271   -1.9234  -16.6441 O   0  0  0  0  0  0  0  0  0  0  0  0
  2  5  1  0
  2  1  1  1
  2  3  1  0
  3  4  1  0
  5 10  1  0
  6  5  2  0
  8  7  1  0
  9  8  1  6
 10  9  1  0
 11 12  2  0
 11  9  1  0
 13 11  1  0
 14 15  1  1
 14 13  1  0
 15 16  1  0
 16 17  1  0
 17 18  2  0
 19 14  1  0
 20 19  2  0
 21 17  1  0
 22 19  1  0
M  END
$$$$
