CSE.pdb
     RDKit          3D

 22 21  0  0  1  0  0  0  0  0999 V2000
   17.4594  -10.4210  -14.2691 N   0  0  0  0  0  0  0  0  0  0  0  0
   18.4203   -9.7367  -15.0704 C   0  0  1  0  0  0  0  0  0  0  0  0
   17.8197   -9.5705  -16.4740 C   0  0  0  0  0  0  0  0  0  0  0  0
   17.7550  -11.1862  -17.2806 S   0  0  0  0  0  0  0  0  0  0  0  0
   18.7902   -8.3907  -14.6072 C   0  0  0  0  0  0  0  0  0  0  0  0
   17.8412   -7.5532  -14.5085 O   0  0  0  0  0  0  0  0  0  0  0  0
   21.0227   -7.1707  -11.5462 O   0  0  0  0  0  0  0  0  0  0  0  0
   21.5100   -6.7606  -12.7789 C   0  0  0  0  0  0  0  0  0  0  0  0
   20.3511   -6.6005  -13.7729 C   0  0  2  0  0  0  0  0  0  0  0  0
   20.0765   -7.9384  -14.2645 N   0  0  0  0  0  0  0  0  0  0  0  0
   20.8267   -5.6869  -14.8420 C   0  0  0  0  0  0  0  0  0  0  0  0
   21.5937   -6.2092  -15.7146 O   0  0  0  0  0  0  0  0  0  0  0  0
   20.4846   -4.3389  -14.9276 N   0  0  0  0  0  0  0  0  0  0  0  0
   20.9934   -3.5212  -16.0261 C   0  0  1  0  0  0  0  0  0  0  0  0
   19.7805   -2.8711  -16.6360 C   0  0  0  0  0  0  0  0  0  0  0  0
   18.8619   -3.7776  -17.3779 C   0  0  0  0  0  0  0  0  0  0  0  0
   17.6341   -3.1492  -17.8934 C   0  0  0  0  0  0  0  0  0  0  0  0
   16.9169   -2.3609  -17.1843 O   0  0  0  0  0  0  0  0  0  0  0  0
   22.0855   -2.6603  -15.6369 C   0  0  0  0  0  0  0  0  0  0  0  0
   22.4825   -2.5461  -14.4243 O   0  0  0  0  0  0  0  0  0  0  0  0
   17.1890   -3.3840  -19.1890 O   0  0  0  0  0  0  0  0  0  0  0  0
   22.8241   -1.8762  -16.5366 O   0  0  0  0  0  0  0  0  0  0  0  0
  2  5  1  0
  2  1  1  1
  2  3  1  0
  3  4  1  0
  5 10  1  0
  6  5  2  0
  8  7  1  0
  9  8  1  1
 10  9  1  0
 11 12  2  0
 11  9  1  0
 13 11  1  0
 14 15  1  1
 14 13  1  0
 15 16  1  0
 16 17  1  0
 17 18  2  0
 19 14  1  0
 20 19  2  0
 21 17  1  0
 22 19  1  0
M  END
$$$$
