CSE.pdb
     RDKit          3D

 22 21  0  0  1  0  0  0  0  0999 V2000
   16.9183   -9.2821  -11.3660 N   0  0  0  0  0  0  0  0  0  0  0  0
   17.3084   -9.0439  -12.7168 C   0  0  1  0  0  0  0  0  0  0  0  0
   16.3974   -7.9406  -13.2750 C   0  0  0  0  0  0  0  0  0  0  0  0
   14.8766   -8.6927  -13.8966 S   0  0  0  0  0  0  0  0  0  0  0  0
   18.6927   -8.5848  -12.9063 C   0  0  0  0  0  0  0  0  0  0  0  0
   19.1227   -7.7417  -12.0602 O   0  0  0  0  0  0  0  0  0  0  0  0
   20.8359   -9.5444  -16.1918 O   0  0  0  0  0  0  0  0  0  0  0  0
   21.6293   -9.3569  -15.0690 C   0  0  0  0  0  0  0  0  0  0  0  0
   20.9174   -8.4294  -14.0742 C   0  0  2  0  0  0  0  0  0  0  0  0
   19.5831   -8.9800  -13.9200 N   0  0  0  0  0  0  0  0  0  0  0  0
   20.9084   -7.0751  -14.6821 C   0  0  0  0  0  0  0  0  0  0  0  0
   19.8160   -6.7250  -15.2358 O   0  0  0  0  0  0  0  0  0  0  0  0
   21.9984   -6.2073  -14.6735 N   0  0  0  0  0  0  0  0  0  0  0  0
   21.9182   -4.9217  -15.3627 C   0  0  1  0  0  0  0  0  0  0  0  0
   20.7165   -4.2287  -14.7782 C   0  0  0  0  0  0  0  0  0  0  0  0
   20.4427   -2.8591  -15.2930 C   0  0  0  0  0  0  0  0  0  0  0  0
   19.2332   -2.2127  -14.7569 C   0  0  0  0  0  0  0  0  0  0  0  0
   18.0681   -2.7290  -14.8781 O   0  0  0  0  0  0  0  0  0  0  0  0
   23.1679   -4.1982  -15.3661 C   0  0  0  0  0  0  0  0  0  0  0  0
   24.1232   -4.4572  -14.5529 O   0  0  0  0  0  0  0  0  0  0  0  0
   19.2981   -0.9971  -14.0861 O   0  0  0  0  0  0  0  0  0  0  0  0
   23.4672   -3.1553  -16.2564 O   0  0  0  0  0  0  0  0  0  0  0  0
  2  5  1  0
  2  1  1  1
  2  3  1  0
  3  4  1  0
  5 10  1  0
  6  5  2  0
  8  7  1  0
  9  8  1  6
 10  9  1  0
 11 12  2  0
 11  9  1  0
 13 11  1  0
 14 15  1  1
 14 13  1  0
 15 16  1  0
 16 17  1  0
 17 18  2  0
 19 14  1  0
 20 19  2  0
 21 17  1  0
 22 19  1  0
M  END
$$$$
