CSE.pdb
     RDKit          3D

 22 21  0  0  1  0  0  0  0  0999 V2000
   19.7638  -12.5416  -18.1074 N   0  0  0  0  0  0  0  0  0  0  0  0
   19.9450  -11.1360  -18.2657 C   0  0  1  0  0  0  0  0  0  0  0  0
   18.6766  -10.5763  -18.9265 C   0  0  0  0  0  0  0  0  0  0  0  0
   18.7480  -10.8994  -20.7029 S   0  0  0  0  0  0  0  0  0  0  0  0
   20.1429  -10.3773  -17.0214 C   0  0  0  0  0  0  0  0  0  0  0  0
   19.3049  -10.5972  -16.0934 O   0  0  0  0  0  0  0  0  0  0  0  0
   23.7024   -9.0618  -15.9885 O   0  0  0  0  0  0  0  0  0  0  0  0
   22.7642   -9.3456  -15.0064 C   0  0  0  0  0  0  0  0  0  0  0  0
   21.3793   -8.8510  -15.4470 C   0  0  2  0  0  0  0  0  0  0  0  0
   21.1568   -9.4406  -16.7546 N   0  0  0  0  0  0  0  0  0  0  0  0
   21.4490   -7.3688  -15.4944 C   0  0  0  0  0  0  0  0  0  0  0  0
   21.9448   -6.8725  -16.5576 O   0  0  0  0  0  0  0  0  0  0  0  0
   21.0137   -6.5327  -14.4684 N   0  0  0  0  0  0  0  0  0  0  0  0
   21.2451   -5.0924  -14.5476 C   0  0  1  0  0  0  0  0  0  0  0  0
   19.8760   -4.4700  -14.6095 C   0  0  0  0  0  0  0  0  0  0  0  0
   19.1283   -4.6708  -15.8809 C   0  0  0  0  0  0  0  0  0  0  0  0
   17.7920   -4.0546  -15.9322 C   0  0  0  0  0  0  0  0  0  0  0  0
   16.7192   -4.7250  -15.7368 O   0  0  0  0  0  0  0  0  0  0  0  0
   22.1531   -4.6049  -13.5361 C   0  0  0  0  0  0  0  0  0  0  0  0
   22.5204   -5.3117  -12.5327 O   0  0  0  0  0  0  0  0  0  0  0  0
   17.6285   -2.7003  -16.1984 O   0  0  0  0  0  0  0  0  0  0  0  0
   22.7295   -3.3253  -13.5515 O   0  0  0  0  0  0  0  0  0  0  0  0
  2  5  1  0
  2  1  1  1
  2  3  1  0
  3  4  1  0
  5 10  1  0
  6  5  2  0
  8  7  1  0
  9  8  1  6
 10  9  1  0
 11 12  2  0
 11  9  1  0
 13 11  1  0
 14 15  1  1
 14 13  1  0
 15 16  1  0
 16 17  1  0
 17 18  2  0
 19 14  1  0
 20 19  2  0
 21 17  1  0
 22 19  1  0
M  END
$$$$
