CSE.pdb
     RDKit          3D

 22 21  0  0  1  0  0  0  0  0999 V2000
   18.4391  -12.1821  -17.7497 N   0  0  0  0  0  0  0  0  0  0  0  0
   18.0400  -11.6799  -16.4760 C   0  0  1  0  0  0  0  0  0  0  0  0
   17.6255  -12.8809  -15.6131 C   0  0  0  0  0  0  0  0  0  0  0  0
   16.1792  -13.6679  -16.3573 S   0  0  0  0  0  0  0  0  0  0  0  0
   19.0778  -10.9580  -15.7245 C   0  0  0  0  0  0  0  0  0  0  0  0
   18.7220  -10.4700  -14.6079 O   0  0  0  0  0  0  0  0  0  0  0  0
   23.7502   -9.8086  -15.1055 O   0  0  0  0  0  0  0  0  0  0  0  0
   22.7526  -10.4160  -15.8545 C   0  0  0  0  0  0  0  0  0  0  0  0
   21.3733  -10.0081  -15.3176 C   0  0  2  0  0  0  0  0  0  0  0  0
   20.4140  -10.7540  -16.1115 N   0  0  0  0  0  0  0  0  0  0  0  0
   21.2551   -8.5410  -15.5111 C   0  0  0  0  0  0  0  0  0  0  0  0
   20.7956   -8.1674  -16.6389 O   0  0  0  0  0  0  0  0  0  0  0  0
   21.6107   -7.5949  -14.5520 N   0  0  0  0  0  0  0  0  0  0  0  0
   21.4281   -6.1711  -14.8229 C   0  0  1  0  0  0  0  0  0  0  0  0
   19.9588   -6.0023  -15.1029 C   0  0  0  0  0  0  0  0  0  0  0  0
   19.4831   -4.5997  -15.2521 C   0  0  0  0  0  0  0  0  0  0  0  0
   18.0350   -4.4431  -15.4676 C   0  0  0  0  0  0  0  0  0  0  0  0
   17.2414   -5.4441  -15.5507 O   0  0  0  0  0  0  0  0  0  0  0  0
   22.0160   -5.3196  -13.8156 C   0  0  0  0  0  0  0  0  0  0  0  0
   22.2320   -5.7103  -12.6148 O   0  0  0  0  0  0  0  0  0  0  0  0
   17.4527   -3.1873  -15.5930 O   0  0  0  0  0  0  0  0  0  0  0  0
   22.4172   -3.9946  -14.0464 O   0  0  0  0  0  0  0  0  0  0  0  0
  2  5  1  0
  2  1  1  6
  2  3  1  0
  3  4  1  0
  5 10  1  0
  6  5  2  0
  8  7  1  0
  9  8  1  6
 10  9  1  0
 11 12  2  0
 11  9  1  0
 13 11  1  0
 14 15  1  1
 14 13  1  0
 15 16  1  0
 16 17  1  0
 17 18  2  0
 19 14  1  0
 20 19  2  0
 21 17  1  0
 22 19  1  0
M  END
$$$$
