CSE.pdb
     RDKit          3D

 22 21  0  0  1  0  0  0  0  0999 V2000
   17.6246  -12.1505  -16.7426 N   0  0  0  0  0  0  0  0  0  0  0  0
   18.1211  -10.9119  -17.2455 C   0  0  1  0  0  0  0  0  0  0  0  0
   16.9196   -9.9752  -17.4398 C   0  0  0  0  0  0  0  0  0  0  0  0
   15.9333  -10.5659  -18.8339 S   0  0  0  0  0  0  0  0  0  0  0  0
   19.0697  -10.2061  -16.3709 C   0  0  0  0  0  0  0  0  0  0  0  0
   18.6859  -10.0040  -15.1778 O   0  0  0  0  0  0  0  0  0  0  0  0
   23.5806   -8.8150  -15.3968 O   0  0  0  0  0  0  0  0  0  0  0  0
   22.6533   -9.3550  -16.2763 C   0  0  0  0  0  0  0  0  0  0  0  0
   21.2300   -9.0533  -15.7864 C   0  0  2  0  0  0  0  0  0  0  0  0
   20.3487   -9.7355  -16.7164 N   0  0  0  0  0  0  0  0  0  0  0  0
   21.0674   -7.5782  -15.8248 C   0  0  0  0  0  0  0  0  0  0  0  0
   21.0174   -7.0577  -16.9863 O   0  0  0  0  0  0  0  0  0  0  0  0
   20.9715   -6.7726  -14.6920 N   0  0  0  0  0  0  0  0  0  0  0  0
   20.8935   -5.3203  -14.8290 C   0  0  1  0  0  0  0  0  0  0  0  0
   19.4663   -4.9644  -14.5091 C   0  0  0  0  0  0  0  0  0  0  0  0
   18.6176   -4.5785  -15.6696 C   0  0  0  0  0  0  0  0  0  0  0  0
   17.2375   -4.1851  -15.3399 C   0  0  0  0  0  0  0  0  0  0  0  0
   16.8184   -4.0978  -14.1335 O   0  0  0  0  0  0  0  0  0  0  0  0
   21.9314   -4.6234  -14.1064 C   0  0  0  0  0  0  0  0  0  0  0  0
   22.1049   -3.3567  -14.1881 O   0  0  0  0  0  0  0  0  0  0  0  0
   16.3124   -3.8865  -16.3333 O   0  0  0  0  0  0  0  0  0  0  0  0
   22.8411   -5.2512  -13.2413 O   0  0  0  0  0  0  0  0  0  0  0  0
  2  5  1  0
  2  1  1  1
  2  3  1  0
  3  4  1  0
  5 10  1  0
  6  5  2  0
  8  7  1  0
  9  8  1  6
 10  9  1  0
 11 12  2  0
 11  9  1  0
 13 11  1  0
 14 15  1  1
 14 13  1  0
 15 16  1  0
 16 17  1  0
 17 18  2  0
 19 14  1  0
 20 19  2  0
 21 17  1  0
 22 19  1  0
M  END
$$$$
