AHT.pdb
     RDKit          3D

 23 23  0  0  1  0  0  0  0  0999 V2000
    8.2403  -12.2517   19.4450 C   0  0  0  0  0  0  0  0  0  0  0  0
    8.6061  -13.4893   18.6396 C   0  0  2  0  0  0  0  0  0  0  0  0
    7.4265  -13.9352   17.8856 N   0  0  0  0  0  0  0  0  0  0  0  0
    9.0258  -14.5986   19.5306 C   0  0  0  0  0  0  0  0  0  0  0  0
    8.1338  -15.3265   20.0240 O   0  0  0  0  0  0  0  0  0  0  0  0
   10.3646  -14.8637   19.8403 N   0  0  0  0  0  0  0  0  0  0  0  0
   10.7359  -16.0373   20.6192 C   0  0  1  0  0  0  0  0  0  0  0  0
   12.0922  -16.5062   20.2519 C   0  0  0  0  0  0  0  0  0  0  0  0
   12.0843  -17.5596   19.2340 C   0  0  0  0  0  0  0  0  0  0  0  0
   11.2398  -17.6600   18.1196 C   0  0  0  0  0  0  0  0  0  0  0  0
   11.5062  -18.7924   17.4464 N   0  0  0  0  0  0  0  0  0  0  0  0
   12.4987  -19.4295   18.0914 C   0  0  0  0  0  0  0  0  0  0  0  0
   12.8380  -18.6862   19.1580 N   0  0  0  0  0  0  0  0  0  0  0  0
   10.4824  -15.7093   22.0226 C   0  0  0  0  0  0  0  0  0  0  0  0
   11.2069  -14.8026   22.5683 O   0  0  0  0  0  0  0  0  0  0  0  0
    7.5612  -14.3368   23.7075 C   0  0  0  0  0  0  0  0  0  0  0  0
    7.8839  -15.5937   24.5111 C   0  0  1  0  0  0  0  0  0  0  0  0
    7.0967  -16.6572   24.1306 O   0  0  0  0  0  0  0  0  0  0  0  0
    9.3688  -15.8910   24.2707 C   0  0  2  0  0  0  0  0  0  0  0  0
    9.5077  -16.2748   22.8793 N   0  0  0  0  0  0  0  0  0  0  0  0
    9.8195  -16.8652   25.2442 C   0  0  0  0  0  0  0  0  0  0  0  0
   10.2216  -18.1273   24.8682 O   0  0  0  0  0  0  0  0  0  0  0  0
    9.8423  -16.5480   26.4577 O   0  0  0  0  0  0  0  0  0  0  0  0
  2  1  1  1
  3  2  1  0
  4  5  2  0
  4  2  1  0
  6  4  1  0
  7 14  1  0
  7  6  1  0
  7  8  1  1
  9  8  1  0
 10  9  2  0
 11 10  1  0
 12 11  1  0
 12 13  2  0
 13  9  1  0
 14 20  1  0
 15 14  2  0
 17 18  1  0
 17 19  1  0
 17 16  1  6
 19 21  1  0
 19 20  1  6
 21 23  2  0
 21 22  1  0
M  END
$$$$
