AHT.pdb
     RDKit          3D

 23 23  0  0  1  0  0  0  0  0999 V2000
   14.5309  -16.6230   18.2720 C   0  0  0  0  0  0  0  0  0  0  0  0
   13.6574  -15.4006   18.0340 C   0  0  2  0  0  0  0  0  0  0  0  0
   14.5155  -14.2125   17.9296 N   0  0  0  0  0  0  0  0  0  0  0  0
   12.7191  -15.1895   19.1633 C   0  0  0  0  0  0  0  0  0  0  0  0
   13.0536  -14.3855   20.0637 O   0  0  0  0  0  0  0  0  0  0  0  0
   11.4868  -15.8450   19.2642 N   0  0  0  0  0  0  0  0  0  0  0  0
   10.6286  -15.6538   20.4257 C   0  0  1  0  0  0  0  0  0  0  0  0
    9.1998  -15.7498   20.0467 C   0  0  0  0  0  0  0  0  0  0  0  0
    8.7078  -14.5650   19.3395 C   0  0  0  0  0  0  0  0  0  0  0  0
    9.4081  -13.3796   19.0753 C   0  0  0  0  0  0  0  0  0  0  0  0
    8.6039  -12.5058   18.4460 N   0  0  0  0  0  0  0  0  0  0  0  0
    7.4025  -13.0894   18.2943 C   0  0  0  0  0  0  0  0  0  0  0  0
    7.4734  -14.3192   18.8308 N   0  0  0  0  0  0  0  0  0  0  0  0
   11.1220  -16.5553   21.4673 C   0  0  0  0  0  0  0  0  0  0  0  0
   11.9232  -17.4944   21.1195 O   0  0  0  0  0  0  0  0  0  0  0  0
   11.4793  -18.1007   26.1523 C   0  0  0  0  0  0  0  0  0  0  0  0
   10.8840  -17.0813   25.1847 C   0  0  1  0  0  0  0  0  0  0  0  0
   11.3457  -15.8093   25.4379 O   0  0  0  0  0  0  0  0  0  0  0  0
   11.2769  -17.5420   23.7760 C   0  0  2  0  0  0  0  0  0  0  0  0
   10.8262  -16.5201   22.8512 N   0  0  0  0  0  0  0  0  0  0  0  0
   10.7538  -18.8745   23.5512 C   0  0  0  0  0  0  0  0  0  0  0  0
   11.3870  -19.9911   24.0490 O   0  0  0  0  0  0  0  0  0  0  0  0
    9.6987  -19.0104   22.8862 O   0  0  0  0  0  0  0  0  0  0  0  0
  2  1  1  1
  3  2  1  0
  4  5  2  0
  4  2  1  0
  6  4  1  0
  7 14  1  0
  7  6  1  0
  7  8  1  6
  9  8  1  0
 10  9  2  0
 11 10  1  0
 12 11  1  0
 12 13  2  0
 13  9  1  0
 14 20  1  0
 15 14  2  0
 17 18  1  0
 17 19  1  0
 17 16  1  1
 19 21  1  0
 19 20  1  6
 21 23  2  0
 21 22  1  0
M  END
$$$$
