AHT.pdb
     RDKit          3D

 23 23  0  0  1  0  0  0  0  0999 V2000
    5.5264  -19.3259   21.8900 C   0  0  0  0  0  0  0  0  0  0  0  0
    5.6857  -18.1365   22.8249 C   0  0  2  0  0  0  0  0  0  0  0  0
    4.9048  -17.0078   22.3003 N   0  0  0  0  0  0  0  0  0  0  0  0
    7.1045  -17.7119   22.9081 C   0  0  0  0  0  0  0  0  0  0  0  0
    7.9461  -18.5477   23.3109 O   0  0  0  0  0  0  0  0  0  0  0  0
    7.5386  -16.4281   22.5586 N   0  0  0  0  0  0  0  0  0  0  0  0
    8.9360  -16.0434   22.7047 C   0  0  1  0  0  0  0  0  0  0  0  0
    9.4760  -15.5244   21.4267 C   0  0  0  0  0  0  0  0  0  0  0  0
    8.5804  -14.5734   20.7637 C   0  0  0  0  0  0  0  0  0  0  0  0
    8.6923  -13.1763   20.7361 C   0  0  0  0  0  0  0  0  0  0  0  0
    7.6526  -12.6490   20.0671 N   0  0  0  0  0  0  0  0  0  0  0  0
    6.8697  -13.6630   19.6599 C   0  0  0  0  0  0  0  0  0  0  0  0
    7.4313  -14.8089   20.0803 N   0  0  0  0  0  0  0  0  0  0  0  0
    9.0139  -15.1778   23.8819 C   0  0  0  0  0  0  0  0  0  0  0  0
   10.1142  -14.5555   24.0987 O   0  0  0  0  0  0  0  0  0  0  0  0
    6.7437  -12.3273   25.1642 C   0  0  0  0  0  0  0  0  0  0  0  0
    6.8995  -13.3553   26.2817 C   0  0  1  0  0  0  0  0  0  0  0  0
    5.8362  -14.2288   26.3216 O   0  0  0  0  0  0  0  0  0  0  0  0
    8.2137  -14.0961   26.0072 C   0  0  2  0  0  0  0  0  0  0  0  0
    8.0002  -14.9255   24.8371 N   0  0  0  0  0  0  0  0  0  0  0  0
    8.6242  -14.7921   27.2101 C   0  0  0  0  0  0  0  0  0  0  0  0
    8.8816  -14.1163   28.3817 O   0  0  0  0  0  0  0  0  0  0  0  0
    8.7475  -16.0402   27.1796 O   0  0  0  0  0  0  0  0  0  0  0  0
  2  1  1  6
  3  2  1  0
  4  5  2  0
  4  2  1  0
  6  4  1  0
  7 14  1  0
  7  6  1  0
  7  8  1  6
  9  8  1  0
 10  9  2  0
 11 10  1  0
 12 11  1  0
 12 13  2  0
 13  9  1  0
 14 20  1  0
 15 14  2  0
 17 18  1  0
 17 19  1  0
 17 16  1  6
 19 21  1  0
 19 20  1  6
 21 23  2  0
 21 22  1  0
M  END
$$$$
