AHT.pdb
     RDKit          3D

 23 23  0  0  1  0  0  0  0  0999 V2000
    7.4818  -12.9261   19.7660 C   0  0  0  0  0  0  0  0  0  0  0  0
    8.2875  -13.0761   18.4844 C   0  0  2  0  0  0  0  0  0  0  0  0
    7.4253  -13.6489   17.4417 N   0  0  0  0  0  0  0  0  0  0  0  0
    9.4365  -13.9931   18.6829 C   0  0  0  0  0  0  0  0  0  0  0  0
    9.2865  -15.1987   18.3776 O   0  0  0  0  0  0  0  0  0  0  0  0
   10.6699  -13.5717   19.1923 N   0  0  0  0  0  0  0  0  0  0  0  0
   11.7947  -14.4922   19.2901 C   0  0  1  0  0  0  0  0  0  0  0  0
   13.0584  -13.8231   18.9032 C   0  0  0  0  0  0  0  0  0  0  0  0
   14.1954  -14.7422   18.8120 C   0  0  0  0  0  0  0  0  0  0  0  0
   14.2123  -16.1088   19.1242 C   0  0  0  0  0  0  0  0  0  0  0  0
   15.4527  -16.5990   18.9576 N   0  0  0  0  0  0  0  0  0  0  0  0
   16.2408  -15.5906   18.5465 C   0  0  0  0  0  0  0  0  0  0  0  0
   15.4817  -14.4852   18.4622 N   0  0  0  0  0  0  0  0  0  0  0  0
   11.7237  -15.1049   20.6171 C   0  0  0  0  0  0  0  0  0  0  0  0
   11.5159  -14.3374   21.6233 O   0  0  0  0  0  0  0  0  0  0  0  0
   10.8718  -18.8362   23.6445 C   0  0  0  0  0  0  0  0  0  0  0  0
   11.1051  -18.3754   22.2081 C   0  0  1  0  0  0  0  0  0  0  0  0
    9.9344  -18.3541   21.4839 O   0  0  0  0  0  0  0  0  0  0  0  0
   11.7249  -16.9758   22.2985 C   0  0  2  0  0  0  0  0  0  0  0  0
   11.8516  -16.4765   20.9431 N   0  0  0  0  0  0  0  0  0  0  0  0
   12.9537  -17.0513   23.0628 C   0  0  0  0  0  0  0  0  0  0  0  0
   12.9510  -17.0021   24.4388 O   0  0  0  0  0  0  0  0  0  0  0  0
   14.0443  -17.1638   22.4530 O   0  0  0  0  0  0  0  0  0  0  0  0
  2  1  1  1
  3  2  1  0
  4  5  2  0
  4  2  1  0
  6  4  1  0
  7 14  1  0
  7  6  1  0
  7  8  1  1
  9  8  1  0
 10  9  2  0
 11 10  1  0
 12 11  1  0
 12 13  2  0
 13  9  1  0
 14 20  1  0
 15 14  2  0
 17 18  1  0
 17 19  1  0
 17 16  1  1
 19 21  1  0
 19 20  1  6
 21 23  2  0
 21 22  1  0
M  END
$$$$
