AHT.pdb
     RDKit          3D

 23 23  0  0  1  0  0  0  0  0999 V2000
    8.8881  -16.4668   14.4882 C   0  0  0  0  0  0  0  0  0  0  0  0
    9.8954  -17.1680   15.3870 C   0  0  2  0  0  0  0  0  0  0  0  0
    9.1833  -18.1148   16.2560 N   0  0  0  0  0  0  0  0  0  0  0  0
   10.6027  -16.1941   16.2540 C   0  0  0  0  0  0  0  0  0  0  0  0
   11.3305  -15.3362   15.7032 O   0  0  0  0  0  0  0  0  0  0  0  0
   10.4920  -16.1935   17.6491 N   0  0  0  0  0  0  0  0  0  0  0  0
   11.0485  -15.1077   18.4450 C   0  0  1  0  0  0  0  0  0  0  0  0
   10.1705  -14.7947   19.5963 C   0  0  0  0  0  0  0  0  0  0  0  0
    8.9649  -14.0527   19.2197 C   0  0  0  0  0  0  0  0  0  0  0  0
    8.6492  -13.5249   17.9599 C   0  0  0  0  0  0  0  0  0  0  0  0
    7.4773  -12.8695   18.0210 N   0  0  0  0  0  0  0  0  0  0  0  0
    7.0236  -12.9567   19.2834 C   0  0  0  0  0  0  0  0  0  0  0  0
    7.9183  -13.6651   19.9925 N   0  0  0  0  0  0  0  0  0  0  0  0
   12.4413  -15.4597   18.7229 C   0  0  0  0  0  0  0  0  0  0  0  0
   12.7160  -16.6915   18.9515 O   0  0  0  0  0  0  0  0  0  0  0  0
   17.2733  -14.4856   18.9492 C   0  0  0  0  0  0  0  0  0  0  0  0
   15.8766  -13.9940   18.5785 C   0  0  1  0  0  0  0  0  0  0  0  0
   15.7424  -13.8194   17.2195 O   0  0  0  0  0  0  0  0  0  0  0  0
   14.8943  -15.0496   19.1000 C   0  0  2  0  0  0  0  0  0  0  0  0
   13.5592  -14.5924   18.7666 N   0  0  0  0  0  0  0  0  0  0  0  0
   15.1514  -15.2804   20.5073 C   0  0  0  0  0  0  0  0  0  0  0  0
   16.1395  -16.1421   20.9278 O   0  0  0  0  0  0  0  0  0  0  0  0
   14.4548  -14.6794   21.3603 O   0  0  0  0  0  0  0  0  0  0  0  0
  2  1  1  6
  3  2  1  0
  4  5  2  0
  4  2  1  0
  6  4  1  0
  7 14  1  0
  7  6  1  0
  7  8  1  1
  9  8  1  0
 10  9  2  0
 11 10  1  0
 12 11  1  0
 12 13  2  0
 13  9  1  0
 14 20  1  0
 15 14  2  0
 17 18  1  0
 17 19  1  0
 17 16  1  6
 19 21  1  0
 19 20  1  1
 21 23  2  0
 21 22  1  0
M  END
$$$$
