AHT.pdb
     RDKit          3D

 23 23  0  0  1  0  0  0  0  0999 V2000
    8.2114  -12.2507   19.8426 C   0  0  0  0  0  0  0  0  0  0  0  0
    8.2341  -13.7672   19.7247 C   0  0  2  0  0  0  0  0  0  0  0  0
    7.1290  -14.1960   18.8564 N   0  0  0  0  0  0  0  0  0  0  0  0
    8.0488  -14.4064   21.0504 C   0  0  0  0  0  0  0  0  0  0  0  0
    6.8782  -14.5907   21.4562 O   0  0  0  0  0  0  0  0  0  0  0  0
    9.1175  -14.8087   21.8596 N   0  0  0  0  0  0  0  0  0  0  0  0
    8.8971  -15.6453   23.0315 C   0  0  1  0  0  0  0  0  0  0  0  0
    9.7937  -16.8243   23.0134 C   0  0  0  0  0  0  0  0  0  0  0  0
    9.4098  -17.8281   22.0180 C   0  0  0  0  0  0  0  0  0  0  0  0
    8.2106  -18.5517   21.9578 C   0  0  0  0  0  0  0  0  0  0  0  0
    8.2494  -19.4132   20.9268 N   0  0  0  0  0  0  0  0  0  0  0  0
    9.4385  -19.2696   20.3165 C   0  0  0  0  0  0  0  0  0  0  0  0
   10.1253  -18.3208   20.9748 N   0  0  0  0  0  0  0  0  0  0  0  0
    8.9525  -14.7618   24.1966 C   0  0  0  0  0  0  0  0  0  0  0  0
    9.9913  -14.0239   24.3427 O   0  0  0  0  0  0  0  0  0  0  0  0
    6.5659  -12.0853   25.5238 C   0  0  0  0  0  0  0  0  0  0  0  0
    6.8165  -13.0794   26.6546 C   0  0  1  0  0  0  0  0  0  0  0  0
    5.8126  -14.0177   26.7393 O   0  0  0  0  0  0  0  0  0  0  0  0
    8.1676  -13.7406   26.3573 C   0  0  2  0  0  0  0  0  0  0  0  0
    7.9763  -14.6062   25.2098 N   0  0  0  0  0  0  0  0  0  0  0  0
    8.6544  -14.3837   27.5611 C   0  0  0  0  0  0  0  0  0  0  0  0
    8.9341  -13.6633   28.7007 O   0  0  0  0  0  0  0  0  0  0  0  0
    8.8243  -15.6267   27.5615 O   0  0  0  0  0  0  0  0  0  0  0  0
  2  1  1  1
  3  2  1  0
  4  5  2  0
  4  2  1  0
  6  4  1  0
  7 14  1  0
  7  6  1  0
  7  8  1  1
  9  8  1  0
 10  9  2  0
 11 10  1  0
 12 11  1  0
 12 13  2  0
 13  9  1  0
 14 20  1  0
 15 14  2  0
 17 18  1  0
 17 19  1  0
 17 16  1  6
 19 21  1  0
 19 20  1  6
 21 23  2  0
 21 22  1  0
M  END
$$$$
