CTT.pdb
     RDKit          3D

 21 20  0  0  1  0  0  0  0  0999 V2000
    8.2166  -14.9823   17.7914 N   0  0  0  0  0  0  0  0  0  0  0  0
    8.5703  -14.2514   18.9880 C   0  0  1  0  0  0  0  0  0  0  0  0
    8.2959  -12.7677   18.8211 C   0  0  0  0  0  0  0  0  0  0  0  0
    8.7389  -11.8829   20.3418 S   0  0  0  0  0  0  0  0  0  0  0  0
    7.7246  -14.7313   20.1028 C   0  0  0  0  0  0  0  0  0  0  0  0
    6.6095  -15.2905   19.8705 O   0  0  0  0  0  0  0  0  0  0  0  0
    7.0768  -17.2551   21.2712 C   0  0  0  0  0  0  0  0  0  0  0  0
    7.6543  -16.7267   22.5470 C   0  0  1  0  0  0  0  0  0  0  0  0
    9.0316  -16.9971   22.6482 O   0  0  0  0  0  0  0  0  0  0  0  0
    7.5160  -15.2193   22.5654 C   0  0  2  0  0  0  0  0  0  0  0  0
    8.1394  -14.5776   21.4504 N   0  0  0  0  0  0  0  0  0  0  0  0
    8.1588  -14.7388   23.8359 C   0  0  0  0  0  0  0  0  0  0  0  0
    9.3904  -14.5254   23.9296 O   0  0  0  0  0  0  0  0  0  0  0  0
    6.6638  -11.6177   25.8445 C   0  0  0  0  0  0  0  0  0  0  0  0
    6.8420  -12.8611   26.6518 C   0  0  1  0  0  0  0  0  0  0  0  0
    5.6889  -13.6079   26.7890 O   0  0  0  0  0  0  0  0  0  0  0  0
    7.9189  -13.7771   26.1101 C   0  0  2  0  0  0  0  0  0  0  0  0
    7.3663  -14.5051   25.0035 N   0  0  0  0  0  0  0  0  0  0  0  0
    8.4208  -14.7176   27.1227 C   0  0  0  0  0  0  0  0  0  0  0  0
    8.2717  -15.9583   27.0250 O   0  0  0  0  0  0  0  0  0  0  0  0
    9.0849  -14.2186   28.2295 O   0  0  0  0  0  0  0  0  0  0  0  0
  2  3  1  0
  2  1  1  6
  4  3  1  0
  5 11  1  0
  5  2  1  0
  6  5  2  0
  8  7  1  6
  9  8  1  0
 10  8  1  0
 10 11  1  6
 12 10  1  0
 12 18  1  0
 13 12  2  0
 15 14  1  6
 16 15  1  0
 17 18  1  6
 17 15  1  0
 19 17  1  0
 20 19  2  0
 21 19  1  0
M  END
$$$$
