CTT.pdb
     RDKit          3D

 21 20  0  0  1  0  0  0  0  0999 V2000
    5.2091  -13.3628   26.1509 N   0  0  0  0  0  0  0  0  0  0  0  0
    6.4426  -13.0464   25.4655 C   0  0  1  0  0  0  0  0  0  0  0  0
    7.4496  -12.4241   26.4159 C   0  0  0  0  0  0  0  0  0  0  0  0
    6.9085  -10.7569   26.8841 S   0  0  0  0  0  0  0  0  0  0  0  0
    7.0369  -14.3019   24.9572 C   0  0  0  0  0  0  0  0  0  0  0  0
    6.9218  -15.3812   25.6147 O   0  0  0  0  0  0  0  0  0  0  0  0
    9.2418  -16.6456   21.1928 C   0  0  0  0  0  0  0  0  0  0  0  0
    8.6371  -15.3678   21.6845 C   0  0  1  0  0  0  0  0  0  0  0  0
    7.4072  -15.0966   21.0566 O   0  0  0  0  0  0  0  0  0  0  0  0
    8.3382  -15.4989   23.1628 C   0  0  2  0  0  0  0  0  0  0  0  0
    7.7456  -14.3277   23.7289 N   0  0  0  0  0  0  0  0  0  0  0  0
    9.6469  -15.7725   23.8488 C   0  0  0  0  0  0  0  0  0  0  0  0
   10.5451  -14.9052   23.9580 O   0  0  0  0  0  0  0  0  0  0  0  0
   12.2097  -18.9261   26.6932 C   0  0  0  0  0  0  0  0  0  0  0  0
   10.9552  -18.4963   26.0068 C   0  0  1  0  0  0  0  0  0  0  0  0
    9.9189  -18.2017   26.8703 O   0  0  0  0  0  0  0  0  0  0  0  0
   11.1493  -17.2998   25.0996 C   0  0  2  0  0  0  0  0  0  0  0  0
    9.9131  -17.0607   24.4107 N   0  0  0  0  0  0  0  0  0  0  0  0
   12.2308  -17.5016   24.1241 C   0  0  0  0  0  0  0  0  0  0  0  0
   12.0758  -18.1636   23.0711 O   0  0  0  0  0  0  0  0  0  0  0  0
   13.4709  -16.9405   24.3736 O   0  0  0  0  0  0  0  0  0  0  0  0
  2  3  1  0
  2  1  1  1
  4  3  1  0
  5 11  1  0
  5  2  1  0
  6  5  2  0
  8  7  1  6
  9  8  1  0
 10  8  1  0
 10 11  1  1
 12 10  1  0
 12 18  1  0
 13 12  2  0
 15 14  1  1
 16 15  1  0
 17 18  1  6
 17 15  1  0
 19 17  1  0
 20 19  2  0
 21 19  1  0
M  END
$$$$
