CTT.pdb
     RDKit          3D

 21 20  0  0  1  0  0  0  0  0999 V2000
    7.9212  -20.2903   16.7156 N   0  0  0  0  0  0  0  0  0  0  0  0
    8.0722  -18.9386   17.2070 C   0  0  1  0  0  0  0  0  0  0  0  0
    6.7216  -18.3155   17.5109 C   0  0  0  0  0  0  0  0  0  0  0  0
    5.6770  -18.3521   16.0280 S   0  0  0  0  0  0  0  0  0  0  0  0
    8.8323  -18.9784   18.4753 C   0  0  0  0  0  0  0  0  0  0  0  0
    8.7296  -19.9731   19.2565 O   0  0  0  0  0  0  0  0  0  0  0  0
   12.7938  -17.4562   20.8890 C   0  0  0  0  0  0  0  0  0  0  0  0
   11.9933  -17.5420   19.6273 C   0  0  1  0  0  0  0  0  0  0  0  0
   12.4820  -18.5417   18.7657 O   0  0  0  0  0  0  0  0  0  0  0  0
   10.5719  -17.9353   19.9692 C   0  0  2  0  0  0  0  0  0  0  0  0
    9.6892  -17.9104   18.8451 N   0  0  0  0  0  0  0  0  0  0  0  0
   10.0862  -16.9576   21.0018 C   0  0  0  0  0  0  0  0  0  0  0  0
    9.9201  -15.7405   20.7524 O   0  0  0  0  0  0  0  0  0  0  0  0
    7.5144  -16.2536   25.0664 C   0  0  0  0  0  0  0  0  0  0  0  0
    8.1067  -17.1094   23.9958 C   0  0  1  0  0  0  0  0  0  0  0  0
    7.2039  -17.4930   23.0241 O   0  0  0  0  0  0  0  0  0  0  0  0
    9.2847  -16.4641   23.2972 C   0  0  2  0  0  0  0  0  0  0  0  0
    9.7922  -17.3964   22.3311 N   0  0  0  0  0  0  0  0  0  0  0  0
   10.3550  -16.0842   24.2310 C   0  0  0  0  0  0  0  0  0  0  0  0
   11.2900  -16.8602   24.5385 O   0  0  0  0  0  0  0  0  0  0  0  0
   10.3339  -14.8211   24.7956 O   0  0  0  0  0  0  0  0  0  0  0  0
  2  3  1  0
  2  1  1  1
  4  3  1  0
  5 11  1  0
  5  2  1  0
  6  5  2  0
  8  7  1  1
  9  8  1  0
 10  8  1  0
 10 11  1  6
 12 10  1  0
 12 18  1  0
 13 12  2  0
 15 14  1  1
 16 15  1  0
 17 18  1  6
 17 15  1  0
 19 17  1  0
 20 19  2  0
 21 19  1  0
M  END
$$$$
