CTT.pdb
     RDKit          3D

 21 20  0  0  1  0  0  0  0  0999 V2000
   12.5376  -14.4579   16.1204 N   0  0  0  0  0  0  0  0  0  0  0  0
   11.6196  -15.3958   16.7279 C   0  0  1  0  0  0  0  0  0  0  0  0
   12.2357  -16.7803   16.8180 C   0  0  0  0  0  0  0  0  0  0  0  0
   11.1139  -17.8990   17.7020 S   0  0  0  0  0  0  0  0  0  0  0  0
   11.3351  -14.9516   18.1099 C   0  0  0  0  0  0  0  0  0  0  0  0
   12.2799  -14.6003   18.8807 O   0  0  0  0  0  0  0  0  0  0  0  0
    8.2693  -12.5531   19.0867 C   0  0  0  0  0  0  0  0  0  0  0  0
    8.2628  -13.7890   19.9310 C   0  0  1  0  0  0  0  0  0  0  0  0
    7.3720  -14.7574   19.4321 O   0  0  0  0  0  0  0  0  0  0  0  0
    9.6384  -14.4200   19.8945 C   0  0  2  0  0  0  0  0  0  0  0  0
   10.0056  -14.9085   18.6022 N   0  0  0  0  0  0  0  0  0  0  0  0
    9.6184  -15.5640   20.8687 C   0  0  0  0  0  0  0  0  0  0  0  0
    9.2129  -16.7082   20.5568 O   0  0  0  0  0  0  0  0  0  0  0  0
   12.3879  -15.7761   23.7947 C   0  0  0  0  0  0  0  0  0  0  0  0
   11.5081  -16.9006   23.3575 C   0  0  1  0  0  0  0  0  0  0  0  0
   11.4973  -17.9721   24.2282 O   0  0  0  0  0  0  0  0  0  0  0  0
   10.0713  -16.4821   23.1285 C   0  0  2  0  0  0  0  0  0  0  0  0
   10.0720  -15.3772   22.2124 N   0  0  0  0  0  0  0  0  0  0  0  0
    9.3917  -16.0949   24.3735 C   0  0  0  0  0  0  0  0  0  0  0  0
    9.0364  -14.9165   24.6108 O   0  0  0  0  0  0  0  0  0  0  0  0
    9.1315  -17.0660   25.3243 O   0  0  0  0  0  0  0  0  0  0  0  0
  2  3  1  0
  2  1  1  1
  4  3  1  0
  5 11  1  0
  5  2  1  0
  6  5  2  0
  8  7  1  6
  9  8  1  0
 10  8  1  0
 10 11  1  6
 12 10  1  0
 12 18  1  0
 13 12  2  0
 15 14  1  1
 16 15  1  0
 17 18  1  6
 17 15  1  0
 19 17  1  0
 20 19  2  0
 21 19  1  0
M  END
$$$$
