CTT.pdb
     RDKit          3D

 21 20  0  0  1  0  0  0  0  0999 V2000
   10.9156  -14.6452   18.0007 N   0  0  0  0  0  0  0  0  0  0  0  0
   11.1508  -15.1038   19.3519 C   0  0  1  0  0  0  0  0  0  0  0  0
   12.4604  -14.5578   19.8921 C   0  0  0  0  0  0  0  0  0  0  0  0
   13.8546  -15.3111   19.0087 S   0  0  0  0  0  0  0  0  0  0  0  0
   10.0697  -14.5899   20.2208 C   0  0  0  0  0  0  0  0  0  0  0  0
    9.4613  -13.5162   19.9251 O   0  0  0  0  0  0  0  0  0  0  0  0
    6.7780  -15.4523   20.8489 C   0  0  0  0  0  0  0  0  0  0  0  0
    7.3941  -15.6679   22.1958 C   0  0  1  0  0  0  0  0  0  0  0  0
    7.7734  -17.0093   22.3879 O   0  0  0  0  0  0  0  0  0  0  0  0
    8.6642  -14.8501   22.2952 C   0  0  2  0  0  0  0  0  0  0  0  0
    9.6904  -15.2827   21.3989 N   0  0  0  0  0  0  0  0  0  0  0  0
    9.1555  -14.9793   23.7095 C   0  0  0  0  0  0  0  0  0  0  0  0
   10.1950  -15.6133   24.0068 O   0  0  0  0  0  0  0  0  0  0  0  0
    8.8689  -12.1022   26.7553 C   0  0  0  0  0  0  0  0  0  0  0  0
    8.2577  -13.4464   26.9774 C   0  0  1  0  0  0  0  0  0  0  0  0
    6.8951  -13.4834   26.7580 O   0  0  0  0  0  0  0  0  0  0  0  0
    8.8868  -14.5362   26.1356 C   0  0  2  0  0  0  0  0  0  0  0  0
    8.4348  -14.3686   24.7837 N   0  0  0  0  0  0  0  0  0  0  0  0
    8.5434  -15.8846   26.6108 C   0  0  0  0  0  0  0  0  0  0  0  0
    7.8530  -16.6834   25.9353 O   0  0  0  0  0  0  0  0  0  0  0  0
    8.9979  -16.2930   27.8524 O   0  0  0  0  0  0  0  0  0  0  0  0
  2  3  1  0
  2  1  1  6
  4  3  1  0
  5 11  1  0
  5  2  1  0
  6  5  2  0
  8  7  1  6
  9  8  1  0
 10  8  1  0
 10 11  1  6
 12 10  1  0
 12 18  1  0
 13 12  2  0
 15 14  1  6
 16 15  1  0
 17 18  1  6
 17 15  1  0
 19 17  1  0
 20 19  2  0
 21 19  1  0
M  END
$$$$
