ENM.pdb
     RDKit          3D

 26 25  0  0  1  0  0  0  0  0999 V2000
   19.3057   -7.6504  -14.2354 N   0  0  0  0  0  0  0  0  0  0  0  0
   20.3148   -8.2259  -13.4037 C   0  0  1  0  0  0  0  0  0  0  0  0
   21.6765   -7.8417  -13.9341 C   0  0  0  0  0  0  0  0  0  0  0  0
   21.7585   -8.2631  -15.3753 C   0  0  0  0  0  0  0  0  0  0  0  0
   21.7798   -9.7074  -15.5972 C   0  0  0  0  0  0  0  0  0  0  0  0
   22.8162  -10.3937  -15.4156 O   0  0  0  0  0  0  0  0  0  0  0  0
   20.1158   -7.7883  -12.0091 C   0  0  0  0  0  0  0  0  0  0  0  0
   21.0822   -7.8049  -11.2174 O   0  0  0  0  0  0  0  0  0  0  0  0
   20.6346  -10.3671  -16.0219 O   0  0  0  0  0  0  0  0  0  0  0  0
   18.2136   -4.0299   -9.1982 N   0  0  0  0  0  0  0  0  0  0  0  0
   19.0499   -3.8156  -10.3506 C   0  0  0  0  0  0  0  0  0  0  0  0
   19.5510   -2.6822  -10.5425 O   0  0  0  0  0  0  0  0  0  0  0  0
   19.2850   -4.9628  -11.2742 C   0  0  0  0  0  0  0  0  0  0  0  0
   18.6211   -6.1965  -10.7588 C   0  0  2  0  0  0  0  0  0  0  0  0
   18.8253   -7.3592  -11.6028 N   0  0  0  0  0  0  0  0  0  0  0  0
   17.1788   -5.9422  -10.5214 C   0  0  0  0  0  0  0  0  0  0  0  0
   16.3790   -5.5036  -11.3892 O   0  0  0  0  0  0  0  0  0  0  0  0
   13.1620  -10.1887   -7.6605 C   0  0  0  0  0  0  0  0  0  0  0  0
   12.9976   -8.6828   -6.6648 S   0  0  0  0  0  0  0  0  0  0  0  0
   13.3176   -7.1918   -7.6863 C   0  0  0  0  0  0  0  0  0  0  0  0
   14.7664   -7.2240   -8.0471 C   0  0  0  0  0  0  0  0  0  0  0  0
   15.1912   -6.1336   -9.0068 C   0  0  2  0  0  0  0  0  0  0  0  0
   16.6495   -6.2072   -9.2298 N   0  0  0  0  0  0  0  0  0  0  0  0
   14.8990   -4.7793   -8.5107 C   0  0  0  0  0  0  0  0  0  0  0  0
   13.6309   -4.2613   -8.6272 O   0  0  0  0  0  0  0  0  0  0  0  0
   15.7922   -4.0915   -7.9842 O   0  0  0  0  0  0  0  0  0  0  0  0
  2  1  1  6
  2  7  1  0
  3  2  1  0
  4  3  1  0
  4  5  1  0
  5  9  1  0
  5  6  2  0
  7  8  2  0
 10 11  1  0
 11 12  2  0
 14 13  1  6
 13 11  1  0
 15 14  1  0
 15  7  1  0
 16 17  2  0
 16 14  1  0
 19 20  1  0
 19 18  1  0
 20 21  1  0
 22 21  1  1
 22 23  1  0
 22 24  1  0
 23 16  1  0
 24 25  1  0
 26 24  2  0
M  END
$$$$
