ENM.pdb
     RDKit          3D

 26 25  0  0  1  0  0  0  0  0999 V2000
   14.2921  -10.4726  -13.9319 N   0  0  0  0  0  0  0  0  0  0  0  0
   15.4038  -10.4016  -13.0372 C   0  0  1  0  0  0  0  0  0  0  0  0
   16.6310  -10.9562  -13.7226 C   0  0  0  0  0  0  0  0  0  0  0  0
   16.1902  -11.6946  -14.9563 C   0  0  0  0  0  0  0  0  0  0  0  0
   17.2705  -12.2882  -15.7411 C   0  0  0  0  0  0  0  0  0  0  0  0
   17.8043  -11.6830  -16.7039 O   0  0  0  0  0  0  0  0  0  0  0  0
   15.5946   -9.0076  -12.5942 C   0  0  0  0  0  0  0  0  0  0  0  0
   14.8880   -8.1044  -13.0902 O   0  0  0  0  0  0  0  0  0  0  0  0
   17.7410  -13.5581  -15.4359 O   0  0  0  0  0  0  0  0  0  0  0  0
   16.9344   -4.9408   -9.9531 N   0  0  0  0  0  0  0  0  0  0  0  0
   17.1705   -6.0361   -9.0487 C   0  0  0  0  0  0  0  0  0  0  0  0
   17.4737   -5.7927   -7.8565 O   0  0  0  0  0  0  0  0  0  0  0  0
   17.0431   -7.4255   -9.5756 C   0  0  0  0  0  0  0  0  0  0  0  0
   16.7601   -7.4074  -11.0413 C   0  0  2  0  0  0  0  0  0  0  0  0
   16.5811   -8.7293  -11.6125 N   0  0  0  0  0  0  0  0  0  0  0  0
   17.8103   -6.6420  -11.7573 C   0  0  0  0  0  0  0  0  0  0  0  0
   18.1545   -5.4648  -11.4731 O   0  0  0  0  0  0  0  0  0  0  0  0
   21.3288  -10.8901  -14.2419 C   0  0  0  0  0  0  0  0  0  0  0  0
   22.3624   -9.4681  -13.7997 S   0  0  0  0  0  0  0  0  0  0  0  0
   21.3565   -8.1603  -12.9955 C   0  0  0  0  0  0  0  0  0  0  0  0
   20.5781   -7.4919  -14.0807 C   0  0  0  0  0  0  0  0  0  0  0  0
   19.5228   -6.5278  -13.5837 C   0  0  2  0  0  0  0  0  0  0  0  0
   18.4825   -7.2683  -12.8411 N   0  0  0  0  0  0  0  0  0  0  0  0
   18.8436   -5.8026  -14.6691 C   0  0  0  0  0  0  0  0  0  0  0  0
   19.5313   -4.8731  -15.4128 O   0  0  0  0  0  0  0  0  0  0  0  0
   17.6453   -6.0208  -14.9234 O   0  0  0  0  0  0  0  0  0  0  0  0
  2  1  1  6
  2  7  1  0
  3  2  1  0
  4  3  1  0
  4  5  1  0
  5  9  1  0
  5  6  2  0
  7  8  2  0
 10 11  1  0
 11 12  2  0
 14 13  1  1
 13 11  1  0
 15 14  1  0
 15  7  1  0
 16 17  2  0
 16 14  1  0
 19 20  1  0
 19 18  1  0
 20 21  1  0
 22 21  1  6
 22 23  1  0
 22 24  1  0
 23 16  1  0
 24 25  1  0
 26 24  2  0
M  END
$$$$
