ENM.pdb
     RDKit          3D

 26 25  0  0  1  0  0  0  0  0999 V2000
   18.1442  -11.0657  -15.3227 N   0  0  0  0  0  0  0  0  0  0  0  0
   16.9825  -10.2351  -15.3638 C   0  0  1  0  0  0  0  0  0  0  0  0
   15.7475  -11.1011  -15.2733 C   0  0  0  0  0  0  0  0  0  0  0  0
   15.9867  -12.1578  -14.2304 C   0  0  0  0  0  0  0  0  0  0  0  0
   15.0016  -13.2369  -14.2058 C   0  0  0  0  0  0  0  0  0  0  0  0
   15.0712  -14.2199  -14.9848 O   0  0  0  0  0  0  0  0  0  0  0  0
   17.0466   -9.2400  -14.2769 C   0  0  0  0  0  0  0  0  0  0  0  0
   16.0449   -9.0574  -13.5528 O   0  0  0  0  0  0  0  0  0  0  0  0
   13.9460  -13.2004  -13.3048 O   0  0  0  0  0  0  0  0  0  0  0  0
   18.6240   -5.5602  -11.1793 N   0  0  0  0  0  0  0  0  0  0  0  0
   18.2206   -6.8579  -10.7029 C   0  0  0  0  0  0  0  0  0  0  0  0
   18.0964   -7.0470   -9.4695 O   0  0  0  0  0  0  0  0  0  0  0  0
   17.9664   -7.9301  -11.7078 C   0  0  0  0  0  0  0  0  0  0  0  0
   18.3833   -7.4830  -13.0698 C   0  0  2  0  0  0  0  0  0  0  0  0
   18.2502   -8.5132  -14.0831 N   0  0  0  0  0  0  0  0  0  0  0  0
   19.7605   -6.9325  -13.0300 C   0  0  0  0  0  0  0  0  0  0  0  0
   20.7370   -7.4926  -12.4661 O   0  0  0  0  0  0  0  0  0  0  0  0
   23.9100   -3.8183  -18.7868 C   0  0  0  0  0  0  0  0  0  0  0  0
   22.3564   -4.2462  -17.9567 S   0  0  0  0  0  0  0  0  0  0  0  0
   22.6507   -4.6252  -16.1851 C   0  0  0  0  0  0  0  0  0  0  0  0
   21.3479   -5.0958  -15.6267 C   0  0  0  0  0  0  0  0  0  0  0  0
   21.3723   -5.3652  -14.1377 C   0  0  2  0  0  0  0  0  0  0  0  0
   20.0095   -5.6877  -13.6680 N   0  0  0  0  0  0  0  0  0  0  0  0
   21.8390   -4.2143  -13.3484 C   0  0  0  0  0  0  0  0  0  0  0  0
   23.1855   -3.9975  -13.1759 O   0  0  0  0  0  0  0  0  0  0  0  0
   21.0241   -3.4297  -12.8303 O   0  0  0  0  0  0  0  0  0  0  0  0
  2  1  1  1
  2  7  1  0
  3  2  1  0
  4  3  1  0
  4  5  1  0
  5  9  1  0
  5  6  2  0
  7  8  2  0
 10 11  1  0
 11 12  2  0
 14 13  1  1
 13 11  1  0
 15 14  1  0
 15  7  1  0
 16 17  2  0
 16 14  1  0
 19 20  1  0
 19 18  1  0
 20 21  1  0
 22 21  1  6
 22 23  1  0
 22 24  1  0
 23 16  1  0
 24 25  1  0
 26 24  2  0
M  END
$$$$
