ENM.pdb
     RDKit          3D

 26 25  0  0  1  0  0  0  0  0999 V2000
   27.9816  -21.7446  -16.8174 N   0  0  0  0  0  0  0  0  0  0  0  0
   27.9440  -20.6879  -15.8565 C   0  0  1  0  0  0  0  0  0  0  0  0
   27.7258  -19.3737  -16.5697 C   0  0  0  0  0  0  0  0  0  0  0  0
   26.9189  -19.6379  -17.8108 C   0  0  0  0  0  0  0  0  0  0  0  0
   26.7227  -18.4791  -18.6794 C   0  0  0  0  0  0  0  0  0  0  0  0
   25.6211  -18.2420  -19.2347 O   0  0  0  0  0  0  0  0  0  0  0  0
   26.8923  -20.9626  -14.8594 C   0  0  0  0  0  0  0  0  0  0  0  0
   25.8835  -21.6181  -15.1969 O   0  0  0  0  0  0  0  0  0  0  0  0
   27.7683  -17.5971  -18.9161 O   0  0  0  0  0  0  0  0  0  0  0  0
   24.5310  -21.6832  -10.4988 N   0  0  0  0  0  0  0  0  0  0  0  0
   25.6465  -20.8748  -10.0797 C   0  0  0  0  0  0  0  0  0  0  0  0
   25.8060  -20.6352   -8.8592 O   0  0  0  0  0  0  0  0  0  0  0  0
   26.5717  -20.3529  -11.1266 C   0  0  0  0  0  0  0  0  0  0  0  0
   26.0843  -20.7207  -12.4889 C   0  0  2  0  0  0  0  0  0  0  0  0
   27.0556  -20.4715  -13.5378 N   0  0  0  0  0  0  0  0  0  0  0  0
   24.7927  -20.0473  -12.7710 C   0  0  0  0  0  0  0  0  0  0  0  0
   24.6818  -18.8872  -13.2476 O   0  0  0  0  0  0  0  0  0  0  0  0
   20.3349  -18.0451  -17.5317 C   0  0  0  0  0  0  0  0  0  0  0  0
   21.7484  -18.7231  -16.6215 S   0  0  0  0  0  0  0  0  0  0  0  0
   21.1814  -19.8552  -15.2926 C   0  0  0  0  0  0  0  0  0  0  0  0
   22.4077  -20.3363  -14.5892 C   0  0  0  0  0  0  0  0  0  0  0  0
   22.3170  -20.2856  -13.0793 C   0  0  2  0  0  0  0  0  0  0  0  0
   23.5894  -20.7479  -12.4885 N   0  0  0  0  0  0  0  0  0  0  0  0
   21.2523  -21.1425  -12.5340 C   0  0  0  0  0  0  0  0  0  0  0  0
   20.1168  -20.5775  -12.0034 O   0  0  0  0  0  0  0  0  0  0  0  0
   21.3681  -22.3813  -12.5459 O   0  0  0  0  0  0  0  0  0  0  0  0
  2  1  1  6
  2  7  1  0
  3  2  1  0
  4  3  1  0
  4  5  1  0
  5  9  1  0
  5  6  2  0
  7  8  2  0
 10 11  1  0
 11 12  2  0
 14 13  1  1
 13 11  1  0
 15 14  1  0
 15  7  1  0
 16 17  2  0
 16 14  1  0
 19 20  1  0
 19 18  1  0
 20 21  1  0
 22 21  1  6
 22 23  1  0
 22 24  1  0
 23 16  1  0
 24 25  1  0
 26 24  2  0
M  END
$$$$
