ENM.pdb
     RDKit          3D

 26 25  0  0  1  0  0  0  0  0999 V2000
   16.8412   -9.1814  -11.0268 N   0  0  0  0  0  0  0  0  0  0  0  0
   17.1195   -8.8662  -12.3922 C   0  0  1  0  0  0  0  0  0  0  0  0
   15.8232   -8.5662  -13.1084 C   0  0  0  0  0  0  0  0  0  0  0  0
   15.0293   -9.8400  -13.2021 C   0  0  0  0  0  0  0  0  0  0  0  0
   13.7830   -9.7379  -13.9582 C   0  0  0  0  0  0  0  0  0  0  0  0
   13.0272  -10.7260  -14.1329 O   0  0  0  0  0  0  0  0  0  0  0  0
   18.0663   -7.7368  -12.4565 C   0  0  0  0  0  0  0  0  0  0  0  0
   17.9107   -6.7619  -11.6908 O   0  0  0  0  0  0  0  0  0  0  0  0
   13.3977   -8.5244  -14.5118 O   0  0  0  0  0  0  0  0  0  0  0  0
   22.5305   -5.0333  -12.6989 N   0  0  0  0  0  0  0  0  0  0  0  0
   22.3712   -5.9181  -13.8237 C   0  0  0  0  0  0  0  0  0  0  0  0
   22.9783   -5.6675  -14.8920 O   0  0  0  0  0  0  0  0  0  0  0  0
   21.4820   -7.1050  -13.6666 C   0  0  0  0  0  0  0  0  0  0  0  0
   20.0522   -6.6832  -13.5864 C   0  0  2  0  0  0  0  0  0  0  0  0
   19.1327   -7.7888  -13.3917 N   0  0  0  0  0  0  0  0  0  0  0  0
   19.6882   -5.8747  -14.7761 C   0  0  0  0  0  0  0  0  0  0  0  0
   19.4190   -6.3533  -15.9091 O   0  0  0  0  0  0  0  0  0  0  0  0
   14.7982   -2.8835  -16.7624 C   0  0  0  0  0  0  0  0  0  0  0  0
   15.9401   -1.4940  -16.5356 S   0  0  0  0  0  0  0  0  0  0  0  0
   17.6747   -2.0291  -16.8077 C   0  0  0  0  0  0  0  0  0  0  0  0
   18.0071   -2.9784  -15.7038 C   0  0  0  0  0  0  0  0  0  0  0  0
   19.3707   -3.6227  -15.8291 C   0  0  2  0  0  0  0  0  0  0  0  0
   19.6359   -4.4612  -14.6424 N   0  0  0  0  0  0  0  0  0  0  0  0
   20.4670   -2.6453  -15.9198 C   0  0  0  0  0  0  0  0  0  0  0  0
   20.6316   -1.8983  -17.0621 O   0  0  0  0  0  0  0  0  0  0  0  0
   21.2535   -2.4860  -14.9690 O   0  0  0  0  0  0  0  0  0  0  0  0
  2  1  1  1
  2  7  1  0
  3  2  1  0
  4  3  1  0
  4  5  1  0
  5  9  1  0
  5  6  2  0
  7  8  2  0
 10 11  1  0
 11 12  2  0
 14 13  1  6
 13 11  1  0
 15 14  1  0
 15  7  1  0
 16 17  2  0
 16 14  1  0
 19 20  1  0
 19 18  1  0
 20 21  1  0
 22 21  1  1
 22 23  1  0
 22 24  1  0
 23 16  1  0
 24 25  1  0
 26 24  2  0
M  END
$$$$
