ENM.pdb
     RDKit          3D

 26 25  0  0  1  0  0  0  0  0999 V2000
   18.9500  -14.5275  -16.3142 N   0  0  0  0  0  0  0  0  0  0  0  0
   20.1426  -14.5765  -17.0994 C   0  0  1  0  0  0  0  0  0  0  0  0
   19.9214  -15.4871  -18.2849 C   0  0  0  0  0  0  0  0  0  0  0  0
   19.6435  -16.8728  -17.7710 C   0  0  0  0  0  0  0  0  0  0  0  0
   20.5124  -17.9176  -18.3084 C   0  0  0  0  0  0  0  0  0  0  0  0
   21.7630  -17.8007  -18.3246 O   0  0  0  0  0  0  0  0  0  0  0  0
   20.5224  -13.2110  -17.5084 C   0  0  0  0  0  0  0  0  0  0  0  0
   21.5403  -13.0429  -18.2133 O   0  0  0  0  0  0  0  0  0  0  0  0
   19.9663  -19.0854  -18.8236 O   0  0  0  0  0  0  0  0  0  0  0  0
   18.9765   -7.9050  -19.0936 N   0  0  0  0  0  0  0  0  0  0  0  0
   19.2769   -8.4489  -17.7946 C   0  0  0  0  0  0  0  0  0  0  0  0
   19.8750   -7.7356  -16.9544 O   0  0  0  0  0  0  0  0  0  0  0  0
   18.8592   -9.8507  -17.5035 C   0  0  0  0  0  0  0  0  0  0  0  0
   20.0517  -10.7420  -17.3939 C   0  0  2  0  0  0  0  0  0  0  0  0
   19.7177  -12.1205  -17.0871 N   0  0  0  0  0  0  0  0  0  0  0  0
   21.0203  -10.1857  -16.4172 C   0  0  0  0  0  0  0  0  0  0  0  0
   20.8348  -10.1443  -15.1726 O   0  0  0  0  0  0  0  0  0  0  0  0
   26.6081  -12.1301  -14.9217 C   0  0  0  0  0  0  0  0  0  0  0  0
   27.0806  -10.4728  -15.4841 S   0  0  0  0  0  0  0  0  0  0  0  0
   25.6761   -9.3041  -15.3103 C   0  0  0  0  0  0  0  0  0  0  0  0
   24.5514   -9.8648  -16.1172 C   0  0  0  0  0  0  0  0  0  0  0  0
   23.2425   -9.1221  -15.9571 C   0  0  2  0  0  0  0  0  0  0  0  0
   22.2461   -9.6595  -16.9060 N   0  0  0  0  0  0  0  0  0  0  0  0
   23.3584   -7.6798  -16.2249 C   0  0  0  0  0  0  0  0  0  0  0  0
   23.3530   -6.7828  -15.1830 O   0  0  0  0  0  0  0  0  0  0  0  0
   23.4608   -7.2586  -17.3911 O   0  0  0  0  0  0  0  0  0  0  0  0
  2  1  1  6
  2  7  1  0
  3  2  1  0
  4  3  1  0
  4  5  1  0
  5  9  1  0
  5  6  2  0
  7  8  2  0
 10 11  1  0
 11 12  2  0
 14 13  1  1
 13 11  1  0
 15 14  1  0
 15  7  1  0
 16 17  2  0
 16 14  1  0
 19 20  1  0
 19 18  1  0
 20 21  1  0
 22 21  1  6
 22 23  1  0
 22 24  1  0
 23 16  1  0
 24 25  1  0
 26 24  2  0
M  END
$$$$
