ENM.pdb
     RDKit          3D

 26 25  0  0  1  0  0  0  0  0999 V2000
   22.4953  -20.6339  -16.0041 N   0  0  0  0  0  0  0  0  0  0  0  0
   23.4516  -20.8873  -14.9733 C   0  0  1  0  0  0  0  0  0  0  0  0
   24.6139  -19.9339  -15.1268 C   0  0  0  0  0  0  0  0  0  0  0  0
   24.2742  -18.9446  -16.2071 C   0  0  0  0  0  0  0  0  0  0  0  0
   25.2978  -18.7768  -17.2364 C   0  0  0  0  0  0  0  0  0  0  0  0
   25.0122  -18.7339  -18.4589 O   0  0  0  0  0  0  0  0  0  0  0  0
   22.8018  -20.7667  -13.6546 C   0  0  0  0  0  0  0  0  0  0  0  0
   23.4653  -20.9953  -12.6208 O   0  0  0  0  0  0  0  0  0  0  0  0
   26.6347  -18.6589  -16.8811 O   0  0  0  0  0  0  0  0  0  0  0  0
   21.3247  -18.6435  -10.3688 N   0  0  0  0  0  0  0  0  0  0  0  0
   20.1097  -18.3488  -11.0833 C   0  0  0  0  0  0  0  0  0  0  0  0
   19.3975  -17.3861  -10.7111 O   0  0  0  0  0  0  0  0  0  0  0  0
   19.7486  -19.2107  -12.2456 C   0  0  0  0  0  0  0  0  0  0  0  0
   20.6859  -20.3676  -12.3528 C   0  0  2  0  0  0  0  0  0  0  0  0
   21.4338  -20.3932  -13.5961 N   0  0  0  0  0  0  0  0  0  0  0  0
   19.9576  -21.6407  -12.1286 C   0  0  0  0  0  0  0  0  0  0  0  0
   19.5896  -22.4231  -13.0437 O   0  0  0  0  0  0  0  0  0  0  0  0
   17.7144  -26.6846   -6.3915 C   0  0  0  0  0  0  0  0  0  0  0  0
   18.6187  -25.2169   -6.9519 S   0  0  0  0  0  0  0  0  0  0  0  0
   18.1318  -24.7697   -8.6642 C   0  0  0  0  0  0  0  0  0  0  0  0
   19.0176  -23.6413   -9.0794 C   0  0  0  0  0  0  0  0  0  0  0  0
   18.8952  -23.2613  -10.5392 C   0  0  2  0  0  0  0  0  0  0  0  0
   19.6470  -22.0156  -10.7938 N   0  0  0  0  0  0  0  0  0  0  0  0
   17.5061  -23.0199  -10.9604 C   0  0  0  0  0  0  0  0  0  0  0  0
   16.8005  -24.0070  -11.6068 O   0  0  0  0  0  0  0  0  0  0  0  0
   16.9583  -21.9251  -10.7382 O   0  0  0  0  0  0  0  0  0  0  0  0
  2  1  1  6
  2  7  1  0
  3  2  1  0
  4  3  1  0
  4  5  1  0
  5  9  1  0
  5  6  2  0
  7  8  2  0
 10 11  1  0
 11 12  2  0
 14 13  1  6
 13 11  1  0
 15 14  1  0
 15  7  1  0
 16 17  2  0
 16 14  1  0
 19 20  1  0
 19 18  1  0
 20 21  1  0
 22 21  1  1
 22 23  1  0
 22 24  1  0
 23 16  1  0
 24 25  1  0
 26 24  2  0
M  END
$$$$
