ENM.pdb
     RDKit          3D

 26 25  0  0  1  0  0  0  0  0999 V2000
   18.2918  -12.4005  -16.1624 N   0  0  0  0  0  0  0  0  0  0  0  0
   19.6190  -12.4368  -16.6901 C   0  0  1  0  0  0  0  0  0  0  0  0
   19.6195  -13.2180  -17.9836 C   0  0  0  0  0  0  0  0  0  0  0  0
   19.0296  -14.5752  -17.7162 C   0  0  0  0  0  0  0  0  0  0  0  0
   19.9336  -15.5270  -17.0740 C   0  0  0  0  0  0  0  0  0  0  0  0
   19.7727  -16.7689  -17.1727 O   0  0  0  0  0  0  0  0  0  0  0  0
   20.1182  -11.0605  -16.8697 C   0  0  0  0  0  0  0  0  0  0  0  0
   21.0895  -10.8546  -17.6283 O   0  0  0  0  0  0  0  0  0  0  0  0
   21.0112  -15.0730  -16.3257 O   0  0  0  0  0  0  0  0  0  0  0  0
   17.7196   -8.2628  -17.9147 N   0  0  0  0  0  0  0  0  0  0  0  0
   17.6983   -7.5407  -16.6691 C   0  0  0  0  0  0  0  0  0  0  0  0
   16.6930   -6.8499  -16.3778 O   0  0  0  0  0  0  0  0  0  0  0  0
   18.8849   -7.6471  -15.7720 C   0  0  0  0  0  0  0  0  0  0  0  0
   19.8767   -8.6158  -16.3257 C   0  0  2  0  0  0  0  0  0  0  0  0
   19.4790  -10.0029  -16.1718 N   0  0  0  0  0  0  0  0  0  0  0  0
   21.2183   -8.3658  -15.7435 C   0  0  0  0  0  0  0  0  0  0  0  0
   21.5480   -8.6500  -14.5621 O   0  0  0  0  0  0  0  0  0  0  0  0
   27.6279  -11.2723  -14.7593 C   0  0  0  0  0  0  0  0  0  0  0  0
   25.8925  -11.0250  -15.2210 S   0  0  0  0  0  0  0  0  0  0  0  0
   25.5316   -9.2406  -15.4548 C   0  0  0  0  0  0  0  0  0  0  0  0
   24.0833   -9.1399  -15.8051 C   0  0  0  0  0  0  0  0  0  0  0  0
   23.6155   -7.7337  -16.1115 C   0  0  2  0  0  0  0  0  0  0  0  0
   22.2098   -7.7645  -16.5644 N   0  0  0  0  0  0  0  0  0  0  0  0
   24.3966   -7.0822  -17.1748 C   0  0  0  0  0  0  0  0  0  0  0  0
   25.5986   -6.4840  -16.8791 O   0  0  0  0  0  0  0  0  0  0  0  0
   23.9793   -7.0646  -18.3468 O   0  0  0  0  0  0  0  0  0  0  0  0
  2  1  1  6
  2  7  1  0
  3  2  1  0
  4  3  1  0
  4  5  1  0
  5  9  1  0
  5  6  2  0
  7  8  2  0
 10 11  1  0
 11 12  2  0
 14 13  1  1
 13 11  1  0
 15 14  1  0
 15  7  1  0
 16 17  2  0
 16 14  1  0
 19 20  1  0
 19 18  1  0
 20 21  1  0
 22 21  1  6
 22 23  1  0
 22 24  1  0
 23 16  1  0
 24 25  1  0
 26 24  2  0
M  END
$$$$
