WTQ.pdb
     RDKit          3D

 31 32  0  0  1  0  0  0  0  0999 V2000
   26.6546  -20.9910  -12.5519 N   0  0  0  0  0  0  0  0  0  0  0  0
   25.6431  -20.9816  -11.5166 C   0  0  1  0  0  0  0  0  0  0  0  0
   26.0920  -19.9892  -10.4675 C   0  0  0  0  0  0  0  0  0  0  0  0
   27.3587  -20.4355   -9.8156 C   0  0  0  0  0  0  0  0  0  0  0  0
   28.5100  -20.8973  -10.4665 C   0  0  0  0  0  0  0  0  0  0  0  0
   29.4463  -21.2093   -9.5526 N   0  0  0  0  0  0  0  0  0  0  0  0
   28.9729  -20.9765   -8.3095 C   0  0  0  0  0  0  0  0  0  0  0  0
   29.5441  -21.1356   -7.0635 C   0  0  0  0  0  0  0  0  0  0  0  0
   28.8270  -20.8149   -5.9289 C   0  0  0  0  0  0  0  0  0  0  0  0
   27.5431  -20.3396   -6.0971 C   0  0  0  0  0  0  0  0  0  0  0  0
   26.9614  -20.1768   -7.3481 C   0  0  0  0  0  0  0  0  0  0  0  0
   27.6785  -20.4968   -8.4742 C   0  0  0  0  0  0  0  0  0  0  0  0
   24.2972  -20.7145  -12.0278 C   0  0  0  0  0  0  0  0  0  0  0  0
   24.0187  -19.5776  -12.5379 O   0  0  0  0  0  0  0  0  0  0  0  0
   22.7884  -19.7151  -14.2595 C   0  0  0  0  0  0  0  0  0  0  0  0
   21.8893  -20.8713  -13.9675 C   0  0  1  0  0  0  0  0  0  0  0  0
   22.3448  -21.9411  -14.7831 O   0  0  0  0  0  0  0  0  0  0  0  0
   21.9266  -21.3717  -12.5769 C   0  0  2  0  0  0  0  0  0  0  0  0
   23.2176  -21.6186  -12.0195 N   0  0  0  0  0  0  0  0  0  0  0  0
   20.9846  -22.5201  -12.3451 C   0  0  0  0  0  0  0  0  0  0  0  0
   21.3584  -23.7047  -12.5225 O   0  0  0  0  0  0  0  0  0  0  0  0
   19.2207  -23.5801   -7.0110 N   0  0  0  0  0  0  0  0  0  0  0  0
   18.4401  -24.5400   -7.6945 C   0  0  0  0  0  0  0  0  0  0  0  0
   17.8973  -25.4538   -7.0442 O   0  0  0  0  0  0  0  0  0  0  0  0
   18.2636  -24.4737   -9.1587 C   0  0  0  0  0  0  0  0  0  0  0  0
   18.9701  -23.3329   -9.8265 C   0  0  0  0  0  0  0  0  0  0  0  0
   18.8278  -23.3493  -11.3030 C   0  0  2  0  0  0  0  0  0  0  0  0
   19.6498  -22.2944  -11.9205 N   0  0  0  0  0  0  0  0  0  0  0  0
   17.4220  -23.2060  -11.6987 C   0  0  0  0  0  0  0  0  0  0  0  0
   16.9820  -22.0203  -11.8937 O   0  0  0  0  0  0  0  0  0  0  0  0
   16.4993  -24.2040  -11.8930 O   0  0  0  0  0  0  0  0  0  0  0  0
  2  1  1  6
  3  2  1  0
  3  4  1  0
  4  5  2  0
  5  6  1  0
  7  6  1  0
  8  7  2  0
  9  8  1  0
 10 11  1  0
 10  9  2  0
 11 12  2  0
 12  4  1  0
 12  7  1  0
 13  2  1  0
 13 19  1  0
 14 13  2  0
 16 15  1  1
 16 18  1  0
 17 16  1  0
 18 19  1  6
 20 18  1  0
 21 20  2  0
 23 22  1  0
 24 23  2  0
 25 23  1  0
 27 26  1  1
 26 25  1  0
 27 28  1  0
 28 20  1  0
 29 31  1  0
 29 27  1  0
 30 29  2  0
M  END
$$$$
