WTQ.pdb
     RDKit          3D

 31 32  0  0  1  0  0  0  0  0999 V2000
   27.9044  -22.3700   -9.3677 N   0  0  0  0  0  0  0  0  0  0  0  0
   27.3569  -21.0309   -9.3210 C   0  0  1  0  0  0  0  0  0  0  0  0
   28.4793  -20.1076   -8.9032 C   0  0  0  0  0  0  0  0  0  0  0  0
   28.8698  -20.3484   -7.4826 C   0  0  0  0  0  0  0  0  0  0  0  0
   29.5236  -21.4813   -6.9814 C   0  0  0  0  0  0  0  0  0  0  0  0
   29.7074  -21.3427   -5.6562 N   0  0  0  0  0  0  0  0  0  0  0  0
   29.2034  -20.1603   -5.2420 C   0  0  0  0  0  0  0  0  0  0  0  0
   29.1502  -19.5694   -3.9962 C   0  0  0  0  0  0  0  0  0  0  0  0
   28.5678  -18.3274   -3.8451 C   0  0  0  0  0  0  0  0  0  0  0  0
   28.0540  -17.7209   -4.9723 C   0  0  0  0  0  0  0  0  0  0  0  0
   28.1040  -18.3095   -6.2297 C   0  0  0  0  0  0  0  0  0  0  0  0
   28.6845  -19.5449   -6.3755 C   0  0  0  0  0  0  0  0  0  0  0  0
   26.7112  -20.6281  -10.5720 C   0  0  0  0  0  0  0  0  0  0  0  0
   27.4192  -20.3213  -11.5895 O   0  0  0  0  0  0  0  0  0  0  0  0
   26.5936  -21.4724  -13.2848 C   0  0  0  0  0  0  0  0  0  0  0  0
   25.1187  -21.2907  -13.1375 C   0  0  1  0  0  0  0  0  0  0  0  0
   24.5965  -22.5654  -12.7916 O   0  0  0  0  0  0  0  0  0  0  0  0
   24.6949  -20.3688  -12.0621 C   0  0  2  0  0  0  0  0  0  0  0  0
   25.3232  -20.5356  -10.7910 N   0  0  0  0  0  0  0  0  0  0  0  0
   23.2002  -20.2620  -11.9412 C   0  0  0  0  0  0  0  0  0  0  0  0
   22.6067  -20.6732  -10.9150 O   0  0  0  0  0  0  0  0  0  0  0  0
   19.2671  -17.1982  -16.1212 N   0  0  0  0  0  0  0  0  0  0  0  0
   18.4552  -17.5755  -15.0273 C   0  0  0  0  0  0  0  0  0  0  0  0
   17.2359  -17.3205  -15.0614 O   0  0  0  0  0  0  0  0  0  0  0  0
   19.0310  -18.2613  -13.8537 C   0  0  0  0  0  0  0  0  0  0  0  0
   20.4789  -18.6256  -13.9858 C   0  0  0  0  0  0  0  0  0  0  0  0
   20.9860  -19.4077  -12.8316 C   0  0  2  0  0  0  0  0  0  0  0  0
   22.4229  -19.6942  -12.9836 N   0  0  0  0  0  0  0  0  0  0  0  0
   20.2266  -20.6520  -12.6636 C   0  0  0  0  0  0  0  0  0  0  0  0
   20.5530  -21.6463  -13.4002 O   0  0  0  0  0  0  0  0  0  0  0  0
   19.1895  -20.8913  -11.7963 O   0  0  0  0  0  0  0  0  0  0  0  0
  2  1  1  6
  3  2  1  0
  3  4  1  0
  4  5  2  0
  5  6  1  0
  7  6  1  0
  8  7  2  0
  9  8  1  0
 10 11  1  0
 10  9  2  0
 11 12  2  0
 12  4  1  0
 12  7  1  0
 13  2  1  0
 13 19  1  0
 14 13  2  0
 16 15  1  1
 16 18  1  0
 17 16  1  0
 18 19  1  1
 20 18  1  0
 21 20  2  0
 23 22  1  0
 24 23  2  0
 25 23  1  0
 27 26  1  6
 26 25  1  0
 27 28  1  0
 28 20  1  0
 29 31  1  0
 29 27  1  0
 30 29  2  0
M  END
$$$$
