WTQ.pdb
     RDKit          3D

 31 32  0  0  1  0  0  0  0  0999 V2000
   26.6348  -21.7998  -13.4706 N   0  0  0  0  0  0  0  0  0  0  0  0
   25.8830  -21.2082  -12.3843 C   0  0  1  0  0  0  0  0  0  0  0  0
   26.6806  -20.0236  -11.8869 C   0  0  0  0  0  0  0  0  0  0  0  0
   27.6735  -20.4426  -10.8539 C   0  0  0  0  0  0  0  0  0  0  0  0
   28.9098  -21.0572  -11.0908 C   0  0  0  0  0  0  0  0  0  0  0  0
   29.5276  -21.2872   -9.9184 N   0  0  0  0  0  0  0  0  0  0  0  0
   28.7572  -20.8520   -8.8982 C   0  0  0  0  0  0  0  0  0  0  0  0
   28.9492  -20.8627   -7.5318 C   0  0  0  0  0  0  0  0  0  0  0  0
   27.9834  -20.3425   -6.6945 C   0  0  0  0  0  0  0  0  0  0  0  0
   26.8449  -19.8246   -7.2759 C   0  0  0  0  0  0  0  0  0  0  0  0
   26.6445  -19.8103   -8.6505 C   0  0  0  0  0  0  0  0  0  0  0  0
   27.6080  -20.3286   -9.4797 C   0  0  0  0  0  0  0  0  0  0  0  0
   24.5080  -20.8662  -12.7540 C   0  0  0  0  0  0  0  0  0  0  0  0
   24.2753  -19.8459  -13.4856 O   0  0  0  0  0  0  0  0  0  0  0  0
   22.7765  -19.8384  -14.7148 C   0  0  0  0  0  0  0  0  0  0  0  0
   21.8445  -20.8912  -14.2116 C   0  0  1  0  0  0  0  0  0  0  0  0
   22.1210  -22.0589  -14.9714 O   0  0  0  0  0  0  0  0  0  0  0  0
   22.0208  -21.2733  -12.7943 C   0  0  2  0  0  0  0  0  0  0  0  0
   23.3515  -21.5734  -12.3728 N   0  0  0  0  0  0  0  0  0  0  0  0
   21.0391  -22.3199  -12.3462 C   0  0  0  0  0  0  0  0  0  0  0  0
   21.4145  -23.4923  -12.1037 O   0  0  0  0  0  0  0  0  0  0  0  0
   14.8486  -21.7881  -11.0823 N   0  0  0  0  0  0  0  0  0  0  0  0
   15.2513  -22.9383  -10.3661 C   0  0  0  0  0  0  0  0  0  0  0  0
   14.3851  -23.6371   -9.8056 O   0  0  0  0  0  0  0  0  0  0  0  0
   16.6751  -23.3170  -10.2739 C   0  0  0  0  0  0  0  0  0  0  0  0
   17.6274  -22.3401  -10.8947 C   0  0  0  0  0  0  0  0  0  0  0  0
   18.6813  -22.9962  -11.7068 C   0  0  2  0  0  0  0  0  0  0  0  0
   19.6640  -22.0091  -12.1863 N   0  0  0  0  0  0  0  0  0  0  0  0
   18.0967  -23.7317  -12.8340 C   0  0  0  0  0  0  0  0  0  0  0  0
   18.0478  -23.1359  -13.9654 O   0  0  0  0  0  0  0  0  0  0  0  0
   17.5865  -25.0065  -12.8297 O   0  0  0  0  0  0  0  0  0  0  0  0
  2  1  1  6
  3  2  1  0
  3  4  1  0
  4  5  2  0
  5  6  1  0
  7  6  1  0
  8  7  2  0
  9  8  1  0
 10 11  1  0
 10  9  2  0
 11 12  2  0
 12  4  1  0
 12  7  1  0
 13  2  1  0
 13 19  1  0
 14 13  2  0
 16 15  1  6
 16 18  1  0
 17 16  1  0
 18 19  1  6
 20 18  1  0
 21 20  2  0
 23 22  1  0
 24 23  2  0
 25 23  1  0
 27 26  1  6
 26 25  1  0
 27 28  1  0
 28 20  1  0
 29 31  1  0
 29 27  1  0
 30 29  2  0
M  END
$$$$
