WTQ.pdb
     RDKit          3D

 31 32  0  0  1  0  0  0  0  0999 V2000
   24.6857  -21.0211   -9.1030 N   0  0  0  0  0  0  0  0  0  0  0  0
   25.8519  -20.2338   -9.4425 C   0  0  1  0  0  0  0  0  0  0  0  0
   27.0166  -20.8107   -8.6695 C   0  0  0  0  0  0  0  0  0  0  0  0
   26.8420  -20.6002   -7.2020 C   0  0  0  0  0  0  0  0  0  0  0  0
   25.6939  -20.8870   -6.4523 C   0  0  0  0  0  0  0  0  0  0  0  0
   25.9078  -20.5638   -5.1643 N   0  0  0  0  0  0  0  0  0  0  0  0
   27.1557  -20.0698   -5.0140 C   0  0  0  0  0  0  0  0  0  0  0  0
   27.8341  -19.6080   -3.9047 C   0  0  0  0  0  0  0  0  0  0  0  0
   29.1296  -19.1490   -4.0290 C   0  0  0  0  0  0  0  0  0  0  0  0
   29.6989  -19.1736   -5.2852 C   0  0  0  0  0  0  0  0  0  0  0  0
   29.0221  -19.6371   -6.4064 C   0  0  0  0  0  0  0  0  0  0  0  0
   27.7336  -20.0930   -6.2782 C   0  0  0  0  0  0  0  0  0  0  0  0
   26.0955  -20.1563  -10.8843 C   0  0  0  0  0  0  0  0  0  0  0  0
   27.2796  -20.2903  -11.3429 O   0  0  0  0  0  0  0  0  0  0  0  0
   27.4100  -21.3837  -12.9991 C   0  0  0  0  0  0  0  0  0  0  0  0
   26.1780  -21.0905  -13.7906 C   0  0  1  0  0  0  0  0  0  0  0  0
   25.3703  -22.2559  -13.7097 O   0  0  0  0  0  0  0  0  0  0  0  0
   25.3453  -19.9788  -13.2841 C   0  0  2  0  0  0  0  0  0  0  0  0
   25.1187  -19.9388  -11.8751 N   0  0  0  0  0  0  0  0  0  0  0  0
   24.0724  -19.8017  -14.0640 C   0  0  0  0  0  0  0  0  0  0  0  0
   22.9620  -20.0952  -13.5585 O   0  0  0  0  0  0  0  0  0  0  0  0
   23.5919  -18.0669  -20.3110 N   0  0  0  0  0  0  0  0  0  0  0  0
   22.2645  -18.1459  -19.8316 C   0  0  0  0  0  0  0  0  0  0  0  0
   21.3238  -17.8901  -20.6078 O   0  0  0  0  0  0  0  0  0  0  0  0
   21.9824  -18.5236  -18.4327 C   0  0  0  0  0  0  0  0  0  0  0  0
   23.1970  -18.7862  -17.5948 C   0  0  0  0  0  0  0  0  0  0  0  0
   22.8677  -19.1175  -16.1868 C   0  0  2  0  0  0  0  0  0  0  0  0
   24.0937  -19.2988  -15.3905 N   0  0  0  0  0  0  0  0  0  0  0  0
   22.0214  -20.3139  -16.1109 C   0  0  0  0  0  0  0  0  0  0  0  0
   20.7786  -20.1423  -15.8588 O   0  0  0  0  0  0  0  0  0  0  0  0
   22.4011  -21.6222  -16.2820 O   0  0  0  0  0  0  0  0  0  0  0  0
  2  1  1  6
  3  2  1  0
  3  4  1  0
  4  5  2  0
  5  6  1  0
  7  6  1  0
  8  7  2  0
  9  8  1  0
 10 11  1  0
 10  9  2  0
 11 12  2  0
 12  4  1  0
 12  7  1  0
 13  2  1  0
 13 19  1  0
 14 13  2  0
 16 15  1  1
 16 18  1  0
 17 16  1  0
 18 19  1  1
 20 18  1  0
 21 20  2  0
 23 22  1  0
 24 23  2  0
 25 23  1  0
 27 26  1  6
 26 25  1  0
 27 28  1  0
 28 20  1  0
 29 31  1  0
 29 27  1  0
 30 29  2  0
M  END
$$$$
