WTQ.pdb
     RDKit          3D

 31 32  0  0  1  0  0  0  0  0999 V2000
   28.0452  -22.0508  -10.7238 N   0  0  0  0  0  0  0  0  0  0  0  0
   27.1977  -21.0586  -10.0974 C   0  0  1  0  0  0  0  0  0  0  0  0
   28.0773  -20.2408   -9.1785 C   0  0  0  0  0  0  0  0  0  0  0  0
   27.6071  -20.3338   -7.7646 C   0  0  0  0  0  0  0  0  0  0  0  0
   26.4267  -20.9431   -7.3201 C   0  0  0  0  0  0  0  0  0  0  0  0
   26.3397  -20.8285   -5.9828 N   0  0  0  0  0  0  0  0  0  0  0  0
   27.4152  -20.1655   -5.5060 C   0  0  0  0  0  0  0  0  0  0  0  0
   27.7793  -19.8050   -4.2247 C   0  0  0  0  0  0  0  0  0  0  0  0
   28.9564  -19.1179   -4.0086 C   0  0  0  0  0  0  0  0  0  0  0  0
   29.7318  -18.8162   -5.1088 C   0  0  0  0  0  0  0  0  0  0  0  0
   29.3718  -19.1757   -6.4015 C   0  0  0  0  0  0  0  0  0  0  0  0
   28.2001  -19.8594   -6.6119 C   0  0  0  0  0  0  0  0  0  0  0  0
   26.4529  -20.2454  -11.0608 C   0  0  0  0  0  0  0  0  0  0  0  0
   26.6806  -18.9924  -11.1542 O   0  0  0  0  0  0  0  0  0  0  0  0
   27.0395  -18.5541  -13.1589 C   0  0  0  0  0  0  0  0  0  0  0  0
   26.0480  -19.3627  -13.9292 C   0  0  1  0  0  0  0  0  0  0  0  0
   26.7889  -20.3939  -14.5655 O   0  0  0  0  0  0  0  0  0  0  0  0
   25.0134  -20.0413  -13.1198 C   0  0  2  0  0  0  0  0  0  0  0  0
   25.4606  -20.7146  -11.9429 N   0  0  0  0  0  0  0  0  0  0  0  0
   24.0975  -20.9006  -13.9461 C   0  0  0  0  0  0  0  0  0  0  0  0
   24.2224  -22.1491  -13.9566 O   0  0  0  0  0  0  0  0  0  0  0  0
   19.2395  -22.1864  -11.8087 N   0  0  0  0  0  0  0  0  0  0  0  0
   19.1411  -20.8807  -12.3413 C   0  0  0  0  0  0  0  0  0  0  0  0
   18.2635  -20.1122  -11.9032 O   0  0  0  0  0  0  0  0  0  0  0  0
   20.0578  -20.4215  -13.4034 C   0  0  0  0  0  0  0  0  0  0  0  0
   21.1037  -21.4170  -13.8054 C   0  0  0  0  0  0  0  0  0  0  0  0
   21.8186  -21.0348  -15.0478 C   0  0  2  0  0  0  0  0  0  0  0  0
   23.0694  -20.3225  -14.7346 N   0  0  0  0  0  0  0  0  0  0  0  0
   20.9641  -20.2187  -15.9178 C   0  0  0  0  0  0  0  0  0  0  0  0
   21.1756  -18.9567  -15.9368 O   0  0  0  0  0  0  0  0  0  0  0  0
   19.9459  -20.6462  -16.7338 O   0  0  0  0  0  0  0  0  0  0  0  0
  2  1  1  6
  3  2  1  0
  3  4  1  0
  4  5  2  0
  5  6  1  0
  7  6  1  0
  8  7  2  0
  9  8  1  0
 10 11  1  0
 10  9  2  0
 11 12  2  0
 12  4  1  0
 12  7  1  0
 13  2  1  0
 13 19  1  0
 14 13  2  0
 16 15  1  1
 16 18  1  0
 17 16  1  0
 18 19  1  1
 20 18  1  0
 21 20  2  0
 23 22  1  0
 24 23  2  0
 25 23  1  0
 27 26  1  1
 26 25  1  0
 27 28  1  0
 28 20  1  0
 29 31  1  0
 29 27  1  0
 30 29  2  0
M  END
$$$$
