WTQ.pdb
     RDKit          3D

 31 32  0  0  1  0  0  0  0  0999 V2000
   21.6570  -15.3911  -16.9696 N   0  0  0  0  0  0  0  0  0  0  0  0
   21.4583  -14.0868  -17.5650 C   0  0  1  0  0  0  0  0  0  0  0  0
   20.2632  -14.1971  -18.4850 C   0  0  0  0  0  0  0  0  0  0  0  0
   20.4849  -15.2422  -19.5277 C   0  0  0  0  0  0  0  0  0  0  0  0
   19.8020  -16.4599  -19.6416 C   0  0  0  0  0  0  0  0  0  0  0  0
   20.2740  -17.1406  -20.7014 N   0  0  0  0  0  0  0  0  0  0  0  0
   21.2493  -16.4304  -21.3083 C   0  0  0  0  0  0  0  0  0  0  0  0
   22.0268  -16.6972  -22.4166 C   0  0  0  0  0  0  0  0  0  0  0  0
   22.9707  -15.7814  -22.8347 C   0  0  0  0  0  0  0  0  0  0  0  0
   23.0960  -14.6155  -22.1084 C   0  0  0  0  0  0  0  0  0  0  0  0
   22.3168  -14.3400  -20.9917 C   0  0  0  0  0  0  0  0  0  0  0  0
   21.3789  -15.2537  -20.5795 C   0  0  0  0  0  0  0  0  0  0  0  0
   21.3304  -13.0149  -16.5756 C   0  0  0  0  0  0  0  0  0  0  0  0
   20.5509  -13.1559  -15.5742 O   0  0  0  0  0  0  0  0  0  0  0  0
   23.3808  -11.8525  -13.9613 C   0  0  0  0  0  0  0  0  0  0  0  0
   22.9762  -10.5975  -14.6622 C   0  0  1  0  0  0  0  0  0  0  0  0
   24.1100  -10.1788  -15.4081 O   0  0  0  0  0  0  0  0  0  0  0  0
   21.8739  -10.7396  -15.6372 C   0  0  2  0  0  0  0  0  0  0  0  0
   22.0061  -11.7798  -16.6061 N   0  0  0  0  0  0  0  0  0  0  0  0
   21.4792   -9.4321  -16.2656 C   0  0  0  0  0  0  0  0  0  0  0  0
   21.8707   -9.1283  -17.4183 O   0  0  0  0  0  0  0  0  0  0  0  0
   15.4611   -7.2274  -16.8820 N   0  0  0  0  0  0  0  0  0  0  0  0
   16.4652   -7.7898  -16.0613 C   0  0  0  0  0  0  0  0  0  0  0  0
   16.1570   -8.2118  -14.9301 O   0  0  0  0  0  0  0  0  0  0  0  0
   17.8638   -7.8804  -16.5248 C   0  0  0  0  0  0  0  0  0  0  0  0
   18.8137   -6.9405  -15.8460 C   0  0  0  0  0  0  0  0  0  0  0  0
   20.2347   -7.2263  -16.1619 C   0  0  2  0  0  0  0  0  0  0  0  0
   20.6550   -8.5089  -15.5719 N   0  0  0  0  0  0  0  0  0  0  0  0
   21.1056   -6.1377  -15.7042 C   0  0  0  0  0  0  0  0  0  0  0  0
   21.8969   -6.3854  -14.7294 O   0  0  0  0  0  0  0  0  0  0  0  0
   21.1831   -4.8600  -16.2009 O   0  0  0  0  0  0  0  0  0  0  0  0
  2  1  1  1
  3  2  1  0
  3  4  1  0
  4  5  2  0
  5  6  1  0
  7  6  1  0
  8  7  2  0
  9  8  1  0
 10 11  1  0
 10  9  2  0
 11 12  2  0
 12  4  1  0
 12  7  1  0
 13  2  1  0
 13 19  1  0
 14 13  2  0
 16 15  1  6
 16 18  1  0
 17 16  1  0
 18 19  1  6
 20 18  1  0
 21 20  2  0
 23 22  1  0
 24 23  2  0
 25 23  1  0
 27 26  1  1
 26 25  1  0
 27 28  1  0
 28 20  1  0
 29 31  1  0
 29 27  1  0
 30 29  2  0
M  END
$$$$
