WTQ.pdb
     RDKit          3D

 31 32  0  0  1  0  0  0  0  0999 V2000
   26.6695  -18.7810   -9.7433 N   0  0  0  0  0  0  0  0  0  0  0  0
   26.6324  -20.1753  -10.1303 C   0  0  1  0  0  0  0  0  0  0  0  0
   26.1308  -20.9539   -8.9349 C   0  0  0  0  0  0  0  0  0  0  0  0
   26.6306  -20.3588   -7.6604 C   0  0  0  0  0  0  0  0  0  0  0  0
   25.9056  -19.5395   -6.7855 C   0  0  0  0  0  0  0  0  0  0  0  0
   26.6852  -19.1948   -5.7451 N   0  0  0  0  0  0  0  0  0  0  0  0
   27.9090  -19.7491   -5.8824 C   0  0  0  0  0  0  0  0  0  0  0  0
   29.0377  -19.6932   -5.0906 C   0  0  0  0  0  0  0  0  0  0  0  0
   30.1810  -20.3670   -5.4691 C   0  0  0  0  0  0  0  0  0  0  0  0
   30.1413  -21.0811   -6.6485 C   0  0  0  0  0  0  0  0  0  0  0  0
   29.0088  -21.1421   -7.4508 C   0  0  0  0  0  0  0  0  0  0  0  0
   27.8736  -20.4705   -7.0703 C   0  0  0  0  0  0  0  0  0  0  0  0
   25.8529  -20.4156  -11.3464 C   0  0  0  0  0  0  0  0  0  0  0  0
   24.7347  -19.8237  -11.5189 O   0  0  0  0  0  0  0  0  0  0  0  0
   27.1364  -19.9322  -14.8663 C   0  0  0  0  0  0  0  0  0  0  0  0
   26.2887  -21.1617  -14.8732 C   0  0  1  0  0  0  0  0  0  0  0  0
   27.1834  -22.2572  -15.0012 O   0  0  0  0  0  0  0  0  0  0  0  0
   25.5136  -21.4078  -13.6385 C   0  0  2  0  0  0  0  0  0  0  0  0
   26.2167  -21.2720  -12.4033 N   0  0  0  0  0  0  0  0  0  0  0  0
   24.7158  -22.6807  -13.6949 C   0  0  0  0  0  0  0  0  0  0  0  0
   24.9874  -23.6443  -12.9385 O   0  0  0  0  0  0  0  0  0  0  0  0
   19.7156  -20.8547  -12.2748 N   0  0  0  0  0  0  0  0  0  0  0  0
   19.4946  -22.2398  -12.0998 C   0  0  0  0  0  0  0  0  0  0  0  0
   18.4294  -22.6222  -11.5784 O   0  0  0  0  0  0  0  0  0  0  0  0
   20.5041  -23.2304  -12.5227 C   0  0  0  0  0  0  0  0  0  0  0  0
   21.7851  -22.6441  -13.0340 C   0  0  0  0  0  0  0  0  0  0  0  0
   22.3321  -23.3786  -14.2011 C   0  0  2  0  0  0  0  0  0  0  0  0
   23.6364  -22.8252  -14.6043 N   0  0  0  0  0  0  0  0  0  0  0  0
   21.3913  -23.3549  -15.3269 C   0  0  0  0  0  0  0  0  0  0  0  0
   21.4346  -22.3443  -16.1107 O   0  0  0  0  0  0  0  0  0  0  0  0
   20.4516  -24.3007  -15.6550 O   0  0  0  0  0  0  0  0  0  0  0  0
  2  1  1  1
  3  2  1  0
  3  4  1  0
  4  5  2  0
  5  6  1  0
  7  6  1  0
  8  7  2  0
  9  8  1  0
 10 11  1  0
 10  9  2  0
 11 12  2  0
 12  4  1  0
 12  7  1  0
 13  2  1  0
 13 19  1  0
 14 13  2  0
 16 15  1  1
 16 18  1  0
 17 16  1  0
 18 19  1  1
 20 18  1  0
 21 20  2  0
 23 22  1  0
 24 23  2  0
 25 23  1  0
 27 26  1  1
 26 25  1  0
 27 28  1  0
 28 20  1  0
 29 31  1  0
 29 27  1  0
 30 29  2  0
M  END
$$$$
