WWC.pdb
     RDKit          3D

 35 38  0  0  1  0  0  0  0  0999 V2000
   22.1902  -16.3347  -17.8281 N   0  0  0  0  0  0  0  0  0  0  0  0
   22.3225  -17.7297  -18.0847 C   0  0  1  0  0  0  0  0  0  0  0  0
   22.7537  -18.0970  -19.4721 C   0  0  0  0  0  0  0  0  0  0  0  0
   21.6585  -18.5339  -20.3569 C   0  0  0  0  0  0  0  0  0  0  0  0
   20.7756  -17.6880  -21.0178 C   0  0  0  0  0  0  0  0  0  0  0  0
   19.9465  -18.4392  -21.7254 N   0  0  0  0  0  0  0  0  0  0  0  0
   20.2253  -19.7469  -21.5756 C   0  0  0  0  0  0  0  0  0  0  0  0
   19.6311  -20.8738  -22.1111 C   0  0  0  0  0  0  0  0  0  0  0  0
   20.1516  -22.0973  -21.7563 C   0  0  0  0  0  0  0  0  0  0  0  0
   21.2366  -22.2004  -20.8900 C   0  0  0  0  0  0  0  0  0  0  0  0
   21.7979  -21.0599  -20.3804 C   0  0  0  0  0  0  0  0  0  0  0  0
   21.3097  -19.8225  -20.7093 C   0  0  0  0  0  0  0  0  0  0  0  0
   23.3343  -18.3438  -17.1575 C   0  0  0  0  0  0  0  0  0  0  0  0
   24.5234  -17.9472  -17.1706 O   0  0  0  0  0  0  0  0  0  0  0  0
   22.9468  -19.3593  -16.2797 N   0  0  0  0  0  0  0  0  0  0  0  0
   23.9486  -19.9382  -15.3698 C   0  0  1  0  0  0  0  0  0  0  0  0
   23.5910  -19.4074  -14.0191 C   0  0  0  0  0  0  0  0  0  0  0  0
   24.4858  -19.8988  -12.9657 C   0  0  0  0  0  0  0  0  0  0  0  0
   25.8645  -20.0422  -13.0525 C   0  0  0  0  0  0  0  0  0  0  0  0
   26.3151  -20.5520  -11.8973 N   0  0  0  0  0  0  0  0  0  0  0  0
   25.2746  -20.7466  -11.0547 C   0  0  0  0  0  0  0  0  0  0  0  0
   25.2033  -21.2248   -9.7633 C   0  0  0  0  0  0  0  0  0  0  0  0
   24.0033  -21.3136   -9.0912 C   0  0  0  0  0  0  0  0  0  0  0  0
   22.8372  -20.9183   -9.7123 C   0  0  0  0  0  0  0  0  0  0  0  0
   22.9305  -20.4462  -10.9977 C   0  0  0  0  0  0  0  0  0  0  0  0
   24.1142  -20.3417  -11.7076 C   0  0  0  0  0  0  0  0  0  0  0  0
   23.9716  -21.3920  -15.5076 C   0  0  0  0  0  0  0  0  0  0  0  0
   22.8863  -22.0223  -15.6275 O   0  0  0  0  0  0  0  0  0  0  0  0
   25.1744  -22.1145  -15.5110 N   0  0  0  0  0  0  0  0  0  0  0  0
   25.2011  -23.5483  -15.6704 C   0  0  1  0  0  0  0  0  0  0  0  0
   26.5781  -24.0452  -16.0653 C   0  0  0  0  0  0  0  0  0  0  0  0
   27.0425  -23.1570  -17.6022 S   0  0  0  0  0  0  0  0  0  0  0  0
   24.8028  -24.2544  -14.4321 C   0  0  0  0  0  0  0  0  0  0  0  0
   24.7006  -25.6293  -14.3434 O   0  0  0  0  0  0  0  0  0  0  0  0
   24.5455  -23.5664  -13.4126 O   0  0  0  0  0  0  0  0  0  0  0  0
  2  1  1  6
  3  2  1  0
  4  5  2  0
  4  3  1  0
  6  5  1  0
  7 12  2  0
  7  6  1  0
  8  7  1  0
  9 10  1  0
  9  8  2  0
 10 11  2  0
 11 12  1  0
 12  4  1  0
 13  2  1  0
 14 13  2  0
 15 13  1  0
 16 27  1  0
 16 15  1  0
 16 17  1  1
 18 17  1  0
 19 18  2  0
 20 19  1  0
 21 20  1  0
 21 26  2  0
 22 21  1  0
 23 22  2  0
 23 24  1  0
 24 25  2  0
 25 26  1  0
 26 18  1  0
 27 29  1  0
 28 27  2  0
 29 30  1  0
 30 33  1  0
 30 31  1  1
 31 32  1  0
 33 35  2  0
 33 34  1  0
M  END
$$$$
