WWC.pdb
     RDKit          3D

 35 38  0  0  1  0  0  0  0  0999 V2000
   26.1404  -21.0150  -13.7750 N   0  0  0  0  0  0  0  0  0  0  0  0
   25.1451  -20.5828  -12.8520 C   0  0  1  0  0  0  0  0  0  0  0  0
   23.7599  -21.0966  -13.1024 C   0  0  0  0  0  0  0  0  0  0  0  0
   23.1619  -20.6476  -14.3729 C   0  0  0  0  0  0  0  0  0  0  0  0
   23.4308  -21.1930  -15.6227 C   0  0  0  0  0  0  0  0  0  0  0  0
   22.7001  -20.5431  -16.5149 N   0  0  0  0  0  0  0  0  0  0  0  0
   21.9529  -19.5886  -15.9310 C   0  0  0  0  0  0  0  0  0  0  0  0
   21.0585  -18.6783  -16.4610 C   0  0  0  0  0  0  0  0  0  0  0  0
   20.4433  -17.8092  -15.5892 C   0  0  0  0  0  0  0  0  0  0  0  0
   20.7096  -17.8424  -14.2231 C   0  0  0  0  0  0  0  0  0  0  0  0
   21.6025  -18.7596  -13.7366 C   0  0  0  0  0  0  0  0  0  0  0  0
   22.2358  -19.6429  -14.5712 C   0  0  0  0  0  0  0  0  0  0  0  0
   25.5008  -21.0075  -11.4542 C   0  0  0  0  0  0  0  0  0  0  0  0
   25.9684  -22.1512  -11.2429 O   0  0  0  0  0  0  0  0  0  0  0  0
   25.3087  -20.1241  -10.3890 N   0  0  0  0  0  0  0  0  0  0  0  0
   25.7113  -20.5388   -9.0352 C   0  0  1  0  0  0  0  0  0  0  0  0
   26.5501  -19.4126   -8.5234 C   0  0  0  0  0  0  0  0  0  0  0  0
   27.7739  -19.8772   -7.8615 C   0  0  0  0  0  0  0  0  0  0  0  0
   28.6852  -20.7987   -8.3610 C   0  0  0  0  0  0  0  0  0  0  0  0
   29.6489  -20.9853   -7.4478 N   0  0  0  0  0  0  0  0  0  0  0  0
   29.3986  -20.2140   -6.3648 C   0  0  0  0  0  0  0  0  0  0  0  0
   30.0795  -20.0290   -5.1801 C   0  0  0  0  0  0  0  0  0  0  0  0
   29.6264  -19.1549   -4.2155 C   0  0  0  0  0  0  0  0  0  0  0  0
   28.4655  -18.4411   -4.4263 C   0  0  0  0  0  0  0  0  0  0  0  0
   27.8031  -18.6407   -5.6116 C   0  0  0  0  0  0  0  0  0  0  0  0
   28.2233  -19.5085   -6.6048 C   0  0  0  0  0  0  0  0  0  0  0  0
   24.5326  -20.8789   -8.2428 C   0  0  0  0  0  0  0  0  0  0  0  0
   23.5939  -20.0443   -8.1353 O   0  0  0  0  0  0  0  0  0  0  0  0
   24.4119  -22.1163   -7.5923 N   0  0  0  0  0  0  0  0  0  0  0  0
   23.2480  -22.4549   -6.8097 C   0  0  1  0  0  0  0  0  0  0  0  0
   23.3937  -23.8077   -6.1406 C   0  0  0  0  0  0  0  0  0  0  0  0
   24.7958  -23.6702   -4.9650 S   0  0  0  0  0  0  0  0  0  0  0  0
   22.9761  -21.4543   -5.7535 C   0  0  0  0  0  0  0  0  0  0  0  0
   21.8094  -21.4315   -5.0138 O   0  0  0  0  0  0  0  0  0  0  0  0
   23.8516  -20.5836   -5.5206 O   0  0  0  0  0  0  0  0  0  0  0  0
  2  1  1  6
  3  2  1  0
  4  5  2  0
  4  3  1  0
  6  5  1  0
  7 12  2  0
  7  6  1  0
  8  7  1  0
  9 10  1  0
  9  8  2  0
 10 11  2  0
 11 12  1  0
 12  4  1  0
 13  2  1  0
 14 13  2  0
 15 13  1  0
 16 27  1  0
 16 15  1  0
 16 17  1  1
 18 17  1  0
 19 18  2  0
 20 19  1  0
 21 20  1  0
 21 26  2  0
 22 21  1  0
 23 22  2  0
 23 24  1  0
 24 25  2  0
 25 26  1  0
 26 18  1  0
 27 29  1  0
 28 27  2  0
 29 30  1  0
 30 33  1  0
 30 31  1  1
 31 32  1  0
 33 35  2  0
 33 34  1  0
M  END
$$$$
