WWC.pdb
     RDKit          3D

 35 38  0  0  1  0  0  0  0  0999 V2000
   21.0036  -33.0447  -10.0100 N   0  0  0  0  0  0  0  0  0  0  0  0
   22.1054  -32.1748   -9.7681 C   0  0  1  0  0  0  0  0  0  0  0  0
   21.8310  -31.0165   -8.8579 C   0  0  0  0  0  0  0  0  0  0  0  0
   20.7249  -30.1451   -9.2941 C   0  0  0  0  0  0  0  0  0  0  0  0
   19.4609  -30.1042   -8.7174 C   0  0  0  0  0  0  0  0  0  0  0  0
   18.7483  -29.1959   -9.3651 N   0  0  0  0  0  0  0  0  0  0  0  0
   19.4666  -28.6229  -10.3480 C   0  0  0  0  0  0  0  0  0  0  0  0
   19.1378  -27.6447  -11.2671 C   0  0  0  0  0  0  0  0  0  0  0  0
   20.1072  -27.2660  -12.1675 C   0  0  0  0  0  0  0  0  0  0  0  0
   21.3734  -27.8445  -12.1563 C   0  0  0  0  0  0  0  0  0  0  0  0
   21.6606  -28.8108  -11.2294 C   0  0  0  0  0  0  0  0  0  0  0  0
   20.7235  -29.2156  -10.3152 C   0  0  0  0  0  0  0  0  0  0  0  0
   23.2485  -32.9300   -9.1486 C   0  0  0  0  0  0  0  0  0  0  0  0
   23.0457  -34.0342   -8.5910 O   0  0  0  0  0  0  0  0  0  0  0  0
   24.5396  -32.3981   -9.1950 N   0  0  0  0  0  0  0  0  0  0  0  0
   25.6636  -33.2057   -8.6938 C   0  0  1  0  0  0  0  0  0  0  0  0
   26.7089  -33.1089   -9.7578 C   0  0  0  0  0  0  0  0  0  0  0  0
   26.5557  -34.1366  -10.7932 C   0  0  0  0  0  0  0  0  0  0  0  0
   26.9283  -35.4710  -10.6952 C   0  0  0  0  0  0  0  0  0  0  0  0
   26.6577  -36.0773  -11.8598 N   0  0  0  0  0  0  0  0  0  0  0  0
   26.1181  -35.1822  -12.7189 C   0  0  0  0  0  0  0  0  0  0  0  0
   25.6587  -35.2994  -14.0138 C   0  0  0  0  0  0  0  0  0  0  0  0
   25.1216  -34.2250  -14.6896 C   0  0  0  0  0  0  0  0  0  0  0  0
   25.0349  -32.9966  -14.0687 C   0  0  0  0  0  0  0  0  0  0  0  0
   25.4984  -32.9017  -12.7804 C   0  0  0  0  0  0  0  0  0  0  0  0
   26.0449  -33.9547  -12.0672 C   0  0  0  0  0  0  0  0  0  0  0  0
   26.0534  -32.7519   -7.3615 C   0  0  0  0  0  0  0  0  0  0  0  0
   25.9020  -31.5400   -7.0487 O   0  0  0  0  0  0  0  0  0  0  0  0
   26.5953  -33.6305   -6.4112 N   0  0  0  0  0  0  0  0  0  0  0  0
   26.8865  -33.2084   -5.0626 C   0  0  1  0  0  0  0  0  0  0  0  0
   25.6357  -32.7659   -4.3287 C   0  0  0  0  0  0  0  0  0  0  0  0
   25.0301  -34.2199   -3.3874 S   0  0  0  0  0  0  0  0  0  0  0  0
   27.5219  -34.2828   -4.2672 C   0  0  0  0  0  0  0  0  0  0  0  0
   28.1099  -34.0672   -3.0357 O   0  0  0  0  0  0  0  0  0  0  0  0
   27.5253  -35.4478   -4.7382 O   0  0  0  0  0  0  0  0  0  0  0  0
  2  1  1  1
  3  2  1  0
  4  5  2  0
  4  3  1  0
  6  5  1  0
  7 12  2  0
  7  6  1  0
  8  7  1  0
  9 10  1  0
  9  8  2  0
 10 11  2  0
 11 12  1  0
 12  4  1  0
 13  2  1  0
 14 13  2  0
 15 13  1  0
 16 27  1  0
 16 15  1  0
 16 17  1  6
 18 17  1  0
 19 18  2  0
 20 19  1  0
 21 20  1  0
 21 26  2  0
 22 21  1  0
 23 22  2  0
 23 24  1  0
 24 25  2  0
 25 26  1  0
 26 18  1  0
 27 29  1  0
 28 27  2  0
 29 30  1  0
 30 33  1  0
 30 31  1  1
 31 32  1  0
 33 35  2  0
 33 34  1  0
M  END
$$$$
