WWC.pdb
     RDKit          3D

 35 38  0  0  1  0  0  0  0  0999 V2000
   23.9870  -20.2928   -9.1604 N   0  0  0  0  0  0  0  0  0  0  0  0
   25.3634  -20.1416   -9.4953 C   0  0  1  0  0  0  0  0  0  0  0  0
   26.3093  -21.0624   -8.7863 C   0  0  0  0  0  0  0  0  0  0  0  0
   26.4406  -20.8088   -7.3401 C   0  0  0  0  0  0  0  0  0  0  0  0
   25.4424  -21.0171   -6.3956 C   0  0  0  0  0  0  0  0  0  0  0  0
   25.9322  -20.6933   -5.2091 N   0  0  0  0  0  0  0  0  0  0  0  0
   27.2083  -20.2778   -5.3054 C   0  0  0  0  0  0  0  0  0  0  0  0
   28.1018  -19.8447   -4.3445 C   0  0  0  0  0  0  0  0  0  0  0  0
   29.3586  -19.4740   -4.7652 C   0  0  0  0  0  0  0  0  0  0  0  0
   29.7204  -19.5317   -6.1082 C   0  0  0  0  0  0  0  0  0  0  0  0
   28.8062  -19.9668   -7.0304 C   0  0  0  0  0  0  0  0  0  0  0  0
   27.5447  -20.3454   -6.6525 C   0  0  0  0  0  0  0  0  0  0  0  0
   25.5780  -20.3743  -10.9651 C   0  0  0  0  0  0  0  0  0  0  0  0
   24.8231  -21.1502  -11.5971 O   0  0  0  0  0  0  0  0  0  0  0  0
   26.6225  -19.7237  -11.6268 N   0  0  0  0  0  0  0  0  0  0  0  0
   26.5146  -19.4902  -13.0762 C   0  0  1  0  0  0  0  0  0  0  0  0
   27.0323  -18.1029  -13.2800 C   0  0  0  0  0  0  0  0  0  0  0  0
   26.8656  -17.6366  -14.6607 C   0  0  0  0  0  0  0  0  0  0  0  0
   25.7452  -17.0116  -15.1926 C   0  0  0  0  0  0  0  0  0  0  0  0
   25.9661  -16.7717  -16.4930 N   0  0  0  0  0  0  0  0  0  0  0  0
   27.1974  -17.2192  -16.8307 C   0  0  0  0  0  0  0  0  0  0  0  0
   27.8986  -17.1994  -18.0178 C   0  0  0  0  0  0  0  0  0  0  0  0
   29.1752  -17.7104  -18.1113 C   0  0  0  0  0  0  0  0  0  0  0  0
   29.7790  -18.2581  -16.9990 C   0  0  0  0  0  0  0  0  0  0  0  0
   29.0634  -18.2685  -15.8279 C   0  0  0  0  0  0  0  0  0  0  0  0
   27.7804  -17.7670  -15.6919 C   0  0  0  0  0  0  0  0  0  0  0  0
   27.2019  -20.5507  -13.8082 C   0  0  0  0  0  0  0  0  0  0  0  0
   28.2745  -21.0284  -13.3492 O   0  0  0  0  0  0  0  0  0  0  0  0
   26.7008  -21.0584  -15.0165 N   0  0  0  0  0  0  0  0  0  0  0  0
   27.4467  -22.0015  -15.8140 C   0  0  1  0  0  0  0  0  0  0  0  0
   26.8367  -23.3887  -15.7627 C   0  0  0  0  0  0  0  0  0  0  0  0
   27.9573  -24.4965  -16.7029 S   0  0  0  0  0  0  0  0  0  0  0  0
   27.5230  -21.5927  -17.2345 C   0  0  0  0  0  0  0  0  0  0  0  0
   26.4083  -21.3604  -18.0169 O   0  0  0  0  0  0  0  0  0  0  0  0
   28.6594  -21.4508  -17.7515 O   0  0  0  0  0  0  0  0  0  0  0  0
  2  1  1  1
  3  2  1  0
  4  5  2  0
  4  3  1  0
  6  5  1  0
  7 12  2  0
  7  6  1  0
  8  7  1  0
  9 10  1  0
  9  8  2  0
 10 11  2  0
 11 12  1  0
 12  4  1  0
 13  2  1  0
 14 13  2  0
 15 13  1  0
 16 27  1  0
 16 15  1  0
 16 17  1  1
 18 17  1  0
 19 18  2  0
 20 19  1  0
 21 20  1  0
 21 26  2  0
 22 21  1  0
 23 22  2  0
 23 24  1  0
 24 25  2  0
 25 26  1  0
 26 18  1  0
 27 29  1  0
 28 27  2  0
 29 30  1  0
 30 33  1  0
 30 31  1  6
 31 32  1  0
 33 35  2  0
 33 34  1  0
M  END
$$$$
