WWC.pdb
     RDKit          3D

 35 38  0  0  1  0  0  0  0  0999 V2000
   16.2429  -28.1518   -6.1689 N   0  0  0  0  0  0  0  0  0  0  0  0
   16.7278  -27.1428   -5.2878 C   0  0  1  0  0  0  0  0  0  0  0  0
   15.8083  -25.9815   -5.0613 C   0  0  0  0  0  0  0  0  0  0  0  0
   15.5622  -25.1546   -6.2567 C   0  0  0  0  0  0  0  0  0  0  0  0
   16.5477  -24.5949   -7.0613 C   0  0  0  0  0  0  0  0  0  0  0  0
   15.9470  -23.9371   -8.0406 N   0  0  0  0  0  0  0  0  0  0  0  0
   14.6083  -24.0247   -7.9373 C   0  0  0  0  0  0  0  0  0  0  0  0
   13.5966  -23.5015   -8.7197 C   0  0  0  0  0  0  0  0  0  0  0  0
   12.2996  -23.7676   -8.3444 C   0  0  0  0  0  0  0  0  0  0  0  0
   12.0131  -24.5351   -7.2189 C   0  0  0  0  0  0  0  0  0  0  0  0
   13.0439  -25.0361   -6.4692 C   0  0  0  0  0  0  0  0  0  0  0  0
   14.3491  -24.7945   -6.8093 C   0  0  0  0  0  0  0  0  0  0  0  0
   17.0124  -27.7203   -3.9291 C   0  0  0  0  0  0  0  0  0  0  0  0
   16.2242  -28.5515   -3.4199 O   0  0  0  0  0  0  0  0  0  0  0  0
   18.1587  -27.3282   -3.2332 N   0  0  0  0  0  0  0  0  0  0  0  0
   18.4450  -27.9401   -1.9253 C   0  0  1  0  0  0  0  0  0  0  0  0
   19.9326  -27.8817   -1.7929 C   0  0  0  0  0  0  0  0  0  0  0  0
   20.6068  -28.9506   -2.5377 C   0  0  0  0  0  0  0  0  0  0  0  0
   20.0337  -30.1328   -2.9882 C   0  0  0  0  0  0  0  0  0  0  0  0
   20.9807  -30.8636   -3.5937 N   0  0  0  0  0  0  0  0  0  0  0  0
   22.1573  -30.1970   -3.5553 C   0  0  0  0  0  0  0  0  0  0  0  0
   23.4116  -30.4998   -4.0416 C   0  0  0  0  0  0  0  0  0  0  0  0
   24.4726  -29.6326   -3.8931 C   0  0  0  0  0  0  0  0  0  0  0  0
   24.2906  -28.4292   -3.2447 C   0  0  0  0  0  0  0  0  0  0  0  0
   23.0347  -28.1479   -2.7678 C   0  0  0  0  0  0  0  0  0  0  0  0
   21.9439  -28.9905   -2.8952 C   0  0  0  0  0  0  0  0  0  0  0  0
   17.6761  -27.2715   -0.8790 C   0  0  0  0  0  0  0  0  0  0  0  0
   17.8278  -26.0342   -0.6905 O   0  0  0  0  0  0  0  0  0  0  0  0
   16.7662  -27.9698   -0.0707 N   0  0  0  0  0  0  0  0  0  0  0  0
   16.0481  -27.3237    1.0011 C   0  0  1  0  0  0  0  0  0  0  0  0
   14.8189  -28.1115    1.4102 C   0  0  0  0  0  0  0  0  0  0  0  0
   15.3095  -29.8791    1.4483 S   0  0  0  0  0  0  0  0  0  0  0  0
   16.8897  -27.1404    2.2048 C   0  0  0  0  0  0  0  0  0  0  0  0
   16.4867  -26.4117    3.3072 O   0  0  0  0  0  0  0  0  0  0  0  0
   18.0267  -27.6751    2.2217 O   0  0  0  0  0  0  0  0  0  0  0  0
  2  1  1  6
  3  2  1  0
  4  5  2  0
  4  3  1  0
  6  5  1  0
  7 12  2  0
  7  6  1  0
  8  7  1  0
  9 10  1  0
  9  8  2  0
 10 11  2  0
 11 12  1  0
 12  4  1  0
 13  2  1  0
 14 13  2  0
 15 13  1  0
 16 27  1  0
 16 15  1  0
 16 17  1  1
 18 17  1  0
 19 18  2  0
 20 19  1  0
 21 20  1  0
 21 26  2  0
 22 21  1  0
 23 22  2  0
 23 24  1  0
 24 25  2  0
 25 26  1  0
 26 18  1  0
 27 29  1  0
 28 27  2  0
 29 30  1  0
 30 33  1  0
 30 31  1  1
 31 32  1  0
 33 35  2  0
 33 34  1  0
M  END
$$$$
