WWC.pdb
     RDKit          3D

 35 38  0  0  1  0  0  0  0  0999 V2000
   22.3624  -21.1072  -11.4119 N   0  0  0  0  0  0  0  0  0  0  0  0
   23.4704  -20.9607  -12.2953 C   0  0  1  0  0  0  0  0  0  0  0  0
   23.2415  -20.0765  -13.4833 C   0  0  0  0  0  0  0  0  0  0  0  0
   21.9641  -20.3095  -14.1814 C   0  0  0  0  0  0  0  0  0  0  0  0
   20.8861  -19.4323  -14.1950 C   0  0  0  0  0  0  0  0  0  0  0  0
   19.9305  -19.9749  -14.9332 N   0  0  0  0  0  0  0  0  0  0  0  0
   20.3089  -21.1718  -15.4174 C   0  0  0  0  0  0  0  0  0  0  0  0
   19.6469  -22.0828  -16.2184 C   0  0  0  0  0  0  0  0  0  0  0  0
   20.3108  -23.2431  -16.5452 C   0  0  0  0  0  0  0  0  0  0  0  0
   21.6015  -23.4938  -16.0878 C   0  0  0  0  0  0  0  0  0  0  0  0
   22.2239  -22.5659  -15.2959 C   0  0  0  0  0  0  0  0  0  0  0  0
   21.5977  -21.3977  -14.9483 C   0  0  0  0  0  0  0  0  0  0  0  0
   24.6531  -20.3836  -11.5680 C   0  0  0  0  0  0  0  0  0  0  0  0
   25.4449  -19.6151  -12.1627 O   0  0  0  0  0  0  0  0  0  0  0  0
   24.8690  -20.7061  -10.2258 N   0  0  0  0  0  0  0  0  0  0  0  0
   26.1260  -20.2884   -9.5838 C   0  0  1  0  0  0  0  0  0  0  0  0
   25.8461  -20.3514   -8.1170 C   0  0  0  0  0  0  0  0  0  0  0  0
   26.8068  -19.5745   -7.3263 C   0  0  0  0  0  0  0  0  0  0  0  0
   27.2528  -18.2877   -7.5987 C   0  0  0  0  0  0  0  0  0  0  0  0
   28.1499  -17.9393   -6.6654 N   0  0  0  0  0  0  0  0  0  0  0  0
   28.3058  -18.9575   -5.7883 C   0  0  0  0  0  0  0  0  0  0  0  0
   29.0832  -19.0979   -4.6581 C   0  0  0  0  0  0  0  0  0  0  0  0
   29.0555  -20.2491   -3.9007 C   0  0  0  0  0  0  0  0  0  0  0  0
   28.2352  -21.2944   -4.2696 C   0  0  0  0  0  0  0  0  0  0  0  0
   27.4704  -21.1343   -5.3980 C   0  0  0  0  0  0  0  0  0  0  0  0
   27.4693  -19.9963   -6.1860 C   0  0  0  0  0  0  0  0  0  0  0  0
   27.2334  -21.1094  -10.0665 C   0  0  0  0  0  0  0  0  0  0  0  0
   27.1144  -22.3643  -10.0857 O   0  0  0  0  0  0  0  0  0  0  0  0
   28.4352  -20.5395  -10.5131 N   0  0  0  0  0  0  0  0  0  0  0  0
   29.5433  -21.3496  -10.9575 C   0  0  1  0  0  0  0  0  0  0  0  0
   30.4495  -20.5915  -11.9079 C   0  0  0  0  0  0  0  0  0  0  0  0
   29.3882  -19.9659  -13.2677 S   0  0  0  0  0  0  0  0  0  0  0  0
   30.3713  -21.8292   -9.8283 C   0  0  0  0  0  0  0  0  0  0  0  0
   31.4352  -22.6968   -9.9838 O   0  0  0  0  0  0  0  0  0  0  0  0
   30.0900  -21.4256   -8.6721 O   0  0  0  0  0  0  0  0  0  0  0  0
  2  1  1  1
  3  2  1  0
  4  5  2  0
  4  3  1  0
  6  5  1  0
  7 12  2  0
  7  6  1  0
  8  7  1  0
  9 10  1  0
  9  8  2  0
 10 11  2  0
 11 12  1  0
 12  4  1  0
 13  2  1  0
 14 13  2  0
 15 13  1  0
 16 27  1  0
 16 15  1  0
 16 17  1  1
 18 17  1  0
 19 18  2  0
 20 19  1  0
 21 20  1  0
 21 26  2  0
 22 21  1  0
 23 22  2  0
 23 24  1  0
 24 25  2  0
 25 26  1  0
 26 18  1  0
 27 29  1  0
 28 27  2  0
 29 30  1  0
 30 33  1  0
 30 31  1  6
 31 32  1  0
 33 35  2  0
 33 34  1  0
M  END
$$$$
