AIR.pdb
     RDKit          3D

 25 24  0  0  1  0  0  0  0  0999 V2000
   28.4169  -18.8782  -14.5418 C   0  0  0  0  0  0  0  0  0  0  0  0
   28.6964  -18.7950  -13.0465 C   0  0  2  0  0  0  0  0  0  0  0  0
   30.0504  -19.1690  -12.7722 N   0  0  0  0  0  0  0  0  0  0  0  0
   27.7403  -19.7079  -12.3674 C   0  0  0  0  0  0  0  0  0  0  0  0
   27.5907  -20.8910  -12.7570 O   0  0  0  0  0  0  0  0  0  0  0  0
   27.4192  -20.5179   -7.4451 C   0  0  0  0  0  0  0  0  0  0  0  0
   26.8216  -19.3835   -8.2447 C   0  0  0  0  0  0  0  0  0  0  0  0
   25.7159  -19.7668   -9.1526 C   0  0  2  0  0  0  0  0  0  0  0  0
   24.8790  -20.8565   -8.5037 C   0  0  0  0  0  0  0  0  0  0  0  0
   26.0570  -20.1902  -10.5328 C   0  0  2  0  0  0  0  0  0  0  0  0
   26.9442  -19.2959  -11.2427 N   0  0  0  0  0  0  0  0  0  0  0  0
   24.9020  -20.4725  -11.3935 C   0  0  0  0  0  0  0  0  0  0  0  0
   24.1535  -19.5678  -11.8125 O   0  0  0  0  0  0  0  0  0  0  0  0
   19.8194  -26.2697  -14.4184 N   0  0  0  0  0  0  0  0  0  0  0  0
   20.5824  -26.0683  -15.6167 C   0  0  0  0  0  0  0  0  0  0  0  0
   20.0359  -26.2615  -16.7702 N   0  0  0  0  0  0  0  0  0  0  0  0
   21.9344  -25.6577  -15.5290 N   0  0  0  0  0  0  0  0  0  0  0  0
   22.5448  -25.4298  -14.2411 C   0  0  0  0  0  0  0  0  0  0  0  0
   22.3620  -23.9539  -13.8663 C   0  0  0  0  0  0  0  0  0  0  0  0
   23.5593  -23.4422  -13.1183 C   0  0  0  0  0  0  0  0  0  0  0  0
   23.4526  -22.0168  -12.6556 C   0  0  2  0  0  0  0  0  0  0  0  0
   24.6094  -21.7957  -11.7719 N   0  0  0  0  0  0  0  0  0  0  0  0
   22.2545  -21.8810  -11.8038 C   0  0  0  0  0  0  0  0  0  0  0  0
   21.1864  -21.4498  -12.2837 O   0  0  0  0  0  0  0  0  0  0  0  0
   22.2695  -22.2200  -10.4641 O   0  0  0  0  0  0  0  0  0  0  0  0
  2  1  1  6
  2  3  1  0
  4  2  1  0
  4 11  1  0
  5  4  2  0
  7  6  1  0
  8  9  1  1
  8  7  1  0
 10 11  1  6
 10  8  1  0
 12 10  1  0
 13 12  2  0
 15 14  1  0
 16 15  2  0
 17 15  1  0
 18 17  1  0
 19 20  1  0
 19 18  1  0
 21 20  1  1
 21 22  1  0
 21 23  1  0
 22 12  1  0
 23 25  1  0
 24 23  2  0
M  END
$$$$
