AIR.pdb
     RDKit          3D

 25 24  0  0  1  0  0  0  0  0999 V2000
   26.0259  -20.5127  -14.7612 C   0  0  0  0  0  0  0  0  0  0  0  0
   26.8800  -21.3199  -13.7915 C   0  0  2  0  0  0  0  0  0  0  0  0
   27.3415  -22.5216  -14.4172 N   0  0  0  0  0  0  0  0  0  0  0  0
   26.0354  -21.6229  -12.6067 C   0  0  0  0  0  0  0  0  0  0  0  0
   25.5329  -22.7612  -12.4470 O   0  0  0  0  0  0  0  0  0  0  0  0
   27.2666  -19.4468   -7.6581 C   0  0  0  0  0  0  0  0  0  0  0  0
   26.7974  -20.4264   -8.7087 C   0  0  0  0  0  0  0  0  0  0  0  0
   25.4081  -20.2258   -9.1813 C   0  0  2  0  0  0  0  0  0  0  0  0
   24.4367  -20.5522   -8.0594 C   0  0  0  0  0  0  0  0  0  0  0  0
   24.9744  -20.9409  -10.4066 C   0  0  2  0  0  0  0  0  0  0  0  0
   25.7497  -20.6457  -11.5909 N   0  0  0  0  0  0  0  0  0  0  0  0
   23.5523  -20.7893  -10.7372 C   0  0  0  0  0  0  0  0  0  0  0  0
   23.1388  -19.8698  -11.4705 O   0  0  0  0  0  0  0  0  0  0  0  0
   16.2379  -25.0923  -11.2142 N   0  0  0  0  0  0  0  0  0  0  0  0
   17.5519  -25.6682  -11.2309 C   0  0  0  0  0  0  0  0  0  0  0  0
   17.7800  -26.7363  -11.9192 N   0  0  0  0  0  0  0  0  0  0  0  0
   18.5951  -25.0615  -10.4909 N   0  0  0  0  0  0  0  0  0  0  0  0
   18.3232  -23.9228   -9.6467 C   0  0  0  0  0  0  0  0  0  0  0  0
   18.9795  -22.6839  -10.2682 C   0  0  0  0  0  0  0  0  0  0  0  0
   20.4610  -22.6866  -10.0231 C   0  0  0  0  0  0  0  0  0  0  0  0
   21.2079  -21.5481  -10.6581 C   0  0  2  0  0  0  0  0  0  0  0  0
   22.6071  -21.6964  -10.2241 N   0  0  0  0  0  0  0  0  0  0  0  0
   20.7298  -20.2797  -10.0734 C   0  0  0  0  0  0  0  0  0  0  0  0
   21.0607  -19.9564   -8.9145 O   0  0  0  0  0  0  0  0  0  0  0  0
   19.9103  -19.4159  -10.7751 O   0  0  0  0  0  0  0  0  0  0  0  0
  2  1  1  6
  2  3  1  0
  4  2  1  0
  4 11  1  0
  5  4  2  0
  7  6  1  0
  8  9  1  1
  8  7  1  0
 10 11  1  6
 10  8  1  0
 12 10  1  0
 13 12  2  0
 15 14  1  0
 16 15  2  0
 17 15  1  0
 18 17  1  0
 19 20  1  0
 19 18  1  0
 21 20  1  1
 21 22  1  0
 21 23  1  0
 22 12  1  0
 23 25  1  0
 24 23  2  0
M  END
$$$$
