AIR.pdb
     RDKit          3D

 25 24  0  0  1  0  0  0  0  0999 V2000
   30.3848  -31.0582  -19.9067 C   0  0  0  0  0  0  0  0  0  0  0  0
   30.6004  -30.6804  -18.4466 C   0  0  2  0  0  0  0  0  0  0  0  0
   30.8890  -31.8466  -17.6687 N   0  0  0  0  0  0  0  0  0  0  0  0
   29.3578  -30.0156  -17.9747 C   0  0  0  0  0  0  0  0  0  0  0  0
   28.4818  -30.6572  -17.3463 O   0  0  0  0  0  0  0  0  0  0  0  0
   30.0632  -24.8101  -17.1886 C   0  0  0  0  0  0  0  0  0  0  0  0
   29.4048  -26.0661  -16.6664 C   0  0  0  0  0  0  0  0  0  0  0  0
   28.1774  -26.4793  -17.3851 C   0  0  2  0  0  0  0  0  0  0  0  0
   26.9574  -25.9209  -16.6718 C   0  0  0  0  0  0  0  0  0  0  0  0
   27.9620  -27.9265  -17.6297 C   0  0  2  0  0  0  0  0  0  0  0  0
   29.0911  -28.6215  -18.2067 N   0  0  0  0  0  0  0  0  0  0  0  0
   26.7695  -28.2460  -18.4237 C   0  0  0  0  0  0  0  0  0  0  0  0
   26.6923  -27.9752  -19.6382 O   0  0  0  0  0  0  0  0  0  0  0  0
   20.8604  -32.4621  -14.2927 N   0  0  0  0  0  0  0  0  0  0  0  0
   22.2211  -32.0585  -14.0825 C   0  0  0  0  0  0  0  0  0  0  0  0
   22.9070  -32.5772  -13.1196 N   0  0  0  0  0  0  0  0  0  0  0  0
   22.8072  -31.0909  -14.9336 N   0  0  0  0  0  0  0  0  0  0  0  0
   22.0299  -30.4773  -15.9837 C   0  0  0  0  0  0  0  0  0  0  0  0
   22.9129  -29.4598  -16.7165 C   0  0  0  0  0  0  0  0  0  0  0  0
   23.6407  -30.1106  -17.8573 C   0  0  0  0  0  0  0  0  0  0  0  0
   24.5024  -29.1836  -18.6672 C   0  0  2  0  0  0  0  0  0  0  0  0
   25.6669  -28.8776  -17.8196 N   0  0  0  0  0  0  0  0  0  0  0  0
   23.7845  -27.9072  -18.8535 C   0  0  0  0  0  0  0  0  0  0  0  0
   24.0681  -26.9168  -18.1494 O   0  0  0  0  0  0  0  0  0  0  0  0
   22.7869  -27.7624  -19.7989 O   0  0  0  0  0  0  0  0  0  0  0  0
  2  1  1  6
  2  3  1  0
  4  2  1  0
  4 11  1  0
  5  4  2  0
  7  6  1  0
  8  9  1  1
  8  7  1  0
 10 11  1  6
 10  8  1  0
 12 10  1  0
 13 12  2  0
 15 14  1  0
 16 15  2  0
 17 15  1  0
 18 17  1  0
 19 20  1  0
 19 18  1  0
 21 20  1  1
 21 22  1  0
 21 23  1  0
 22 12  1  0
 23 25  1  0
 24 23  2  0
M  END
$$$$
