AIR.pdb
     RDKit          3D

 25 24  0  0  1  0  0  0  0  0999 V2000
   27.9276  -19.0877  -15.5009 C   0  0  0  0  0  0  0  0  0  0  0  0
   28.2822  -20.3364  -14.7032 C   0  0  2  0  0  0  0  0  0  0  0  0
   28.8185  -21.3430  -15.5679 N   0  0  0  0  0  0  0  0  0  0  0  0
   27.0368  -20.8061  -14.0421 C   0  0  0  0  0  0  0  0  0  0  0  0
   26.2758  -21.6269  -14.6088 O   0  0  0  0  0  0  0  0  0  0  0  0
   26.5881  -20.4359   -8.3368 C   0  0  0  0  0  0  0  0  0  0  0  0
   26.5806  -21.0006   -9.7384 C   0  0  0  0  0  0  0  0  0  0  0  0
   25.4439  -20.5701  -10.5848 C   0  0  2  0  0  0  0  0  0  0  0  0
   24.1468  -21.1152  -10.0109 C   0  0  0  0  0  0  0  0  0  0  0  0
   25.4902  -20.8851  -12.0337 C   0  0  2  0  0  0  0  0  0  0  0  0
   26.6376  -20.3550  -12.7360 N   0  0  0  0  0  0  0  0  0  0  0  0
   24.2820  -20.5187  -12.7824 C   0  0  0  0  0  0  0  0  0  0  0  0
   23.9325  -19.3315  -12.9328 O   0  0  0  0  0  0  0  0  0  0  0  0
   24.2667  -25.6989  -17.7210 N   0  0  0  0  0  0  0  0  0  0  0  0
   23.4835  -25.7675  -16.5208 C   0  0  0  0  0  0  0  0  0  0  0  0
   23.6315  -26.7605  -15.7092 N   0  0  0  0  0  0  0  0  0  0  0  0
   22.5498  -24.7438  -16.2308 N   0  0  0  0  0  0  0  0  0  0  0  0
   22.4720  -23.5699  -17.0670 C   0  0  0  0  0  0  0  0  0  0  0  0
   22.8447  -22.3431  -16.2255 C   0  0  0  0  0  0  0  0  0  0  0  0
   21.9474  -22.2269  -15.0271 C   0  0  0  0  0  0  0  0  0  0  0  0
   22.2779  -21.0928  -14.0987 C   0  0  2  0  0  0  0  0  0  0  0  0
   23.4771  -21.5189  -13.3580 N   0  0  0  0  0  0  0  0  0  0  0  0
   21.2007  -20.9678  -13.0971 C   0  0  0  0  0  0  0  0  0  0  0  0
   20.3612  -20.0489  -13.1866 O   0  0  0  0  0  0  0  0  0  0  0  0
   21.0824  -21.8488  -12.0389 O   0  0  0  0  0  0  0  0  0  0  0  0
  2  1  1  6
  2  3  1  0
  4  2  1  0
  4 11  1  0
  5  4  2  0
  7  6  1  0
  8  9  1  1
  8  7  1  0
 10 11  1  6
 10  8  1  0
 12 10  1  0
 13 12  2  0
 15 14  1  0
 16 15  2  0
 17 15  1  0
 18 17  1  0
 19 20  1  0
 19 18  1  0
 21 20  1  6
 21 22  1  0
 21 23  1  0
 22 12  1  0
 23 25  1  0
 24 23  2  0
M  END
$$$$
