AIR.pdb
     RDKit          3D

 25 24  0  0  1  0  0  0  0  0999 V2000
   23.2010  -23.3711   -6.8689 C   0  0  0  0  0  0  0  0  0  0  0  0
   23.2058  -22.1122   -6.0109 C   0  0  2  0  0  0  0  0  0  0  0  0
   21.8832  -21.5745   -5.9097 N   0  0  0  0  0  0  0  0  0  0  0  0
   24.1303  -21.1429   -6.6547 C   0  0  0  0  0  0  0  0  0  0  0  0
   23.6916  -20.2120   -7.3721 O   0  0  0  0  0  0  0  0  0  0  0  0
   28.8805  -19.6098   -4.1377 C   0  0  0  0  0  0  0  0  0  0  0  0
   27.5766  -19.6948   -4.8967 C   0  0  0  0  0  0  0  0  0  0  0  0
   27.7064  -20.0062   -6.3388 C   0  0  2  0  0  0  0  0  0  0  0  0
   28.4795  -18.8965   -7.0316 C   0  0  0  0  0  0  0  0  0  0  0  0
   26.4692  -20.2755   -7.1119 C   0  0  2  0  0  0  0  0  0  0  0  0
   25.5580  -21.2141   -6.4957 N   0  0  0  0  0  0  0  0  0  0  0  0
   26.6901  -20.6926   -8.5018 C   0  0  0  0  0  0  0  0  0  0  0  0
   27.4137  -21.6653   -8.7927 O   0  0  0  0  0  0  0  0  0  0  0  0
   25.0660  -24.6900  -14.2427 N   0  0  0  0  0  0  0  0  0  0  0  0
   25.1637  -23.4808  -15.0087 C   0  0  0  0  0  0  0  0  0  0  0  0
   24.7322  -23.4504  -16.2251 N   0  0  0  0  0  0  0  0  0  0  0  0
   25.7340  -22.3234  -14.4263 N   0  0  0  0  0  0  0  0  0  0  0  0
   26.1923  -22.3464  -13.0578 C   0  0  0  0  0  0  0  0  0  0  0  0
   24.9753  -22.4894  -12.1357 C   0  0  0  0  0  0  0  0  0  0  0  0
   25.2184  -21.8024  -10.8228 C   0  0  0  0  0  0  0  0  0  0  0  0
   26.1131  -20.5977  -10.8968 C   0  0  2  0  0  0  0  0  0  0  0  0
   26.0777  -19.9903   -9.5560 N   0  0  0  0  0  0  0  0  0  0  0  0
   25.5066  -19.6094  -11.8104 C   0  0  0  0  0  0  0  0  0  0  0  0
   25.9860  -19.4261  -12.9478 O   0  0  0  0  0  0  0  0  0  0  0  0
   24.4029  -18.8611  -11.4472 O   0  0  0  0  0  0  0  0  0  0  0  0
  2  1  1  6
  2  3  1  0
  4  2  1  0
  4 11  1  0
  5  4  2  0
  7  6  1  0
  8  9  1  6
  8  7  1  0
 10 11  1  1
 10  8  1  0
 12 10  1  0
 13 12  2  0
 15 14  1  0
 16 15  2  0
 17 15  1  0
 18 17  1  0
 19 20  1  0
 19 18  1  0
 21 20  1  1
 21 22  1  0
 21 23  1  0
 22 12  1  0
 23 25  1  0
 24 23  2  0
M  END
$$$$
