AIR.pdb
     RDKit          3D

 25 24  0  0  1  0  0  0  0  0999 V2000
   19.3703  -14.8098  -14.2334 C   0  0  0  0  0  0  0  0  0  0  0  0
   20.4598  -14.4055  -15.2186 C   0  0  2  0  0  0  0  0  0  0  0  0
   19.8822  -13.7825  -16.3705 N   0  0  0  0  0  0  0  0  0  0  0  0
   21.1982  -15.6403  -15.5911 C   0  0  0  0  0  0  0  0  0  0  0  0
   20.7031  -16.4719  -16.3892 O   0  0  0  0  0  0  0  0  0  0  0  0
   26.9138  -15.8105  -15.2763 C   0  0  0  0  0  0  0  0  0  0  0  0
   25.4887  -15.9274  -15.7650 C   0  0  0  0  0  0  0  0  0  0  0  0
   24.7120  -17.0449  -15.1804 C   0  0  2  0  0  0  0  0  0  0  0  0
   25.3482  -18.3676  -15.5739 C   0  0  0  0  0  0  0  0  0  0  0  0
   23.2584  -17.1142  -15.4682 C   0  0  2  0  0  0  0  0  0  0  0  0
   22.5018  -15.9490  -15.0675 N   0  0  0  0  0  0  0  0  0  0  0  0
   22.5825  -18.3060  -14.9414 C   0  0  0  0  0  0  0  0  0  0  0  0
   22.3001  -18.4255  -13.7330 O   0  0  0  0  0  0  0  0  0  0  0  0
   16.4740  -21.9637  -12.1578 N   0  0  0  0  0  0  0  0  0  0  0  0
   16.9311  -20.6038  -12.1375 C   0  0  0  0  0  0  0  0  0  0  0  0
   16.6776  -19.8526  -11.1186 N   0  0  0  0  0  0  0  0  0  0  0  0
   17.6599  -20.0903  -13.2371 N   0  0  0  0  0  0  0  0  0  0  0  0
   17.8312  -20.8821  -14.4317 C   0  0  0  0  0  0  0  0  0  0  0  0
   19.2972  -21.3236  -14.5210 C   0  0  0  0  0  0  0  0  0  0  0  0
   20.1670  -20.1913  -14.9857 C   0  0  0  0  0  0  0  0  0  0  0  0
   21.6072  -20.5539  -15.2133 C   0  0  2  0  0  0  0  0  0  0  0  0
   22.2314  -19.3592  -15.8057 N   0  0  0  0  0  0  0  0  0  0  0  0
   21.6757  -21.6067  -16.2459 C   0  0  0  0  0  0  0  0  0  0  0  0
   21.9652  -21.3151  -17.4241 O   0  0  0  0  0  0  0  0  0  0  0  0
   21.4256  -22.9338  -15.9526 O   0  0  0  0  0  0  0  0  0  0  0  0
  2  1  1  1
  2  3  1  0
  4  2  1  0
  4 11  1  0
  5  4  2  0
  7  6  1  0
  8  9  1  6
  8  7  1  0
 10 11  1  1
 10  8  1  0
 12 10  1  0
 13 12  2  0
 15 14  1  0
 16 15  2  0
 17 15  1  0
 18 17  1  0
 19 20  1  0
 19 18  1  0
 21 20  1  6
 21 22  1  0
 21 23  1  0
 22 12  1  0
 23 25  1  0
 24 23  2  0
M  END
$$$$
