AIR.pdb
     RDKit          3D

 25 24  0  0  1  0  0  0  0  0999 V2000
   21.6189  -22.5337   -8.6902 C   0  0  0  0  0  0  0  0  0  0  0  0
   21.5334  -21.0390   -8.4078 C   0  0  2  0  0  0  0  0  0  0  0  0
   20.4305  -20.4618   -9.1142 N   0  0  0  0  0  0  0  0  0  0  0  0
   22.8209  -20.4343   -8.8383 C   0  0  0  0  0  0  0  0  0  0  0  0
   22.8868  -19.7245   -9.8706 O   0  0  0  0  0  0  0  0  0  0  0  0
   28.3601  -18.7236   -6.4791 C   0  0  0  0  0  0  0  0  0  0  0  0
   27.4709  -18.9844   -7.6727 C   0  0  0  0  0  0  0  0  0  0  0  0
   26.2480  -19.7698   -7.3875 C   0  0  2  0  0  0  0  0  0  0  0  0
   26.6323  -21.1034   -6.7686 C   0  0  0  0  0  0  0  0  0  0  0  0
   25.3000  -20.0199   -8.5008 C   0  0  2  0  0  0  0  0  0  0  0  0
   24.0460  -20.6239   -8.1091 N   0  0  0  0  0  0  0  0  0  0  0  0
   25.8539  -20.7923   -9.6194 C   0  0  0  0  0  0  0  0  0  0  0  0
   25.9414  -22.0355   -9.5847 O   0  0  0  0  0  0  0  0  0  0  0  0
   24.4971  -24.1481  -16.7580 N   0  0  0  0  0  0  0  0  0  0  0  0
   24.5240  -25.0254  -15.6229 C   0  0  0  0  0  0  0  0  0  0  0  0
   24.5538  -26.3043  -15.7959 N   0  0  0  0  0  0  0  0  0  0  0  0
   24.5178  -24.4836  -14.3151 N   0  0  0  0  0  0  0  0  0  0  0  0
   24.3340  -23.0661  -14.1142 C   0  0  0  0  0  0  0  0  0  0  0  0
   25.6674  -22.4581  -13.6622 C   0  0  0  0  0  0  0  0  0  0  0  0
   25.4824  -21.6304  -12.4231 C   0  0  0  0  0  0  0  0  0  0  0  0
   26.7302  -20.9635  -11.9174 C   0  0  2  0  0  0  0  0  0  0  0  0
   26.3061  -20.1336  -10.7775 N   0  0  0  0  0  0  0  0  0  0  0  0
   27.2197  -20.0257  -12.9471 C   0  0  0  0  0  0  0  0  0  0  0  0
   28.0986  -20.3832  -13.7576 O   0  0  0  0  0  0  0  0  0  0  0  0
   26.7320  -18.7368  -13.0512 O   0  0  0  0  0  0  0  0  0  0  0  0
  2  1  1  6
  2  3  1  0
  4  2  1  0
  4 11  1  0
  5  4  2  0
  7  6  1  0
  8  9  1  6
  8  7  1  0
 10 11  1  1
 10  8  1  0
 12 10  1  0
 13 12  2  0
 15 14  1  0
 16 15  2  0
 17 15  1  0
 18 17  1  0
 19 20  1  0
 19 18  1  0
 21 20  1  6
 21 22  1  0
 21 23  1  0
 22 12  1  0
 23 25  1  0
 24 23  2  0
M  END
$$$$
