AIR.pdb
     RDKit          3D

 25 24  0  0  1  0  0  0  0  0999 V2000
   20.3991  -20.0150  -15.0467 C   0  0  0  0  0  0  0  0  0  0  0  0
   21.4816  -20.7789  -14.2946 C   0  0  2  0  0  0  0  0  0  0  0  0
   20.9634  -21.2924  -13.0632 N   0  0  0  0  0  0  0  0  0  0  0  0
   22.6015  -19.8326  -14.0514 C   0  0  0  0  0  0  0  0  0  0  0  0
   22.4404  -18.8119  -13.3401 O   0  0  0  0  0  0  0  0  0  0  0  0
   26.9305  -21.2870  -11.5801 C   0  0  0  0  0  0  0  0  0  0  0  0
   25.8128  -20.4910  -12.2130 C   0  0  0  0  0  0  0  0  0  0  0  0
   26.1318  -19.8952  -13.5309 C   0  0  2  0  0  0  0  0  0  0  0  0
   27.3091  -18.9451  -13.3885 C   0  0  0  0  0  0  0  0  0  0  0  0
   25.0477  -19.1991  -14.2664 C   0  0  2  0  0  0  0  0  0  0  0  0
   23.9133  -20.0282  -14.6077 N   0  0  0  0  0  0  0  0  0  0  0  0
   25.4811  -18.4905  -15.4767 C   0  0  0  0  0  0  0  0  0  0  0  0
   25.7993  -19.0963  -16.5188 O   0  0  0  0  0  0  0  0  0  0  0  0
   21.5431  -11.2541  -16.7934 N   0  0  0  0  0  0  0  0  0  0  0  0
   20.9215  -12.4954  -17.1557 C   0  0  0  0  0  0  0  0  0  0  0  0
   19.6759  -12.5192  -17.4939 N   0  0  0  0  0  0  0  0  0  0  0  0
   21.6784  -13.6917  -17.1407 N   0  0  0  0  0  0  0  0  0  0  0  0
   23.0681  -13.6701  -16.7514 C   0  0  0  0  0  0  0  0  0  0  0  0
   23.6686  -15.0590  -17.0010 C   0  0  0  0  0  0  0  0  0  0  0  0
   25.1337  -15.0726  -16.6722 C   0  0  0  0  0  0  0  0  0  0  0  0
   25.7918  -16.4192  -16.7772 C   0  0  2  0  0  0  0  0  0  0  0  0
   25.5476  -17.0852  -15.4869 N   0  0  0  0  0  0  0  0  0  0  0  0
   27.2528  -16.2294  -16.8703 C   0  0  0  0  0  0  0  0  0  0  0  0
   27.9510  -16.2001  -15.8365 O   0  0  0  0  0  0  0  0  0  0  0  0
   27.8931  -16.0788  -18.0857 O   0  0  0  0  0  0  0  0  0  0  0  0
  2  1  1  1
  2  3  1  0
  4  2  1  0
  4 11  1  0
  5  4  2  0
  7  6  1  0
  8  9  1  1
  8  7  1  0
 10 11  1  6
 10  8  1  0
 12 10  1  0
 13 12  2  0
 15 14  1  0
 16 15  2  0
 17 15  1  0
 18 17  1  0
 19 20  1  0
 19 18  1  0
 21 20  1  1
 21 22  1  0
 21 23  1  0
 22 12  1  0
 23 25  1  0
 24 23  2  0
M  END
$$$$
