PRP.pdb
     RDKit          3D

 26 27  0  0  1  0  0  0  0  0999 V2000
    8.5838  -15.2747   19.8864 N   0  0  0  0  0  0  0  0  0  0  0  0
    8.5371  -15.1349   18.4581 C   0  0  0  0  0  0  0  0  0  0  0  0
    8.0420  -13.7428   18.1476 C   0  0  0  0  0  0  0  0  0  0  0  0
    7.3989  -13.3416   19.4817 C   0  0  0  0  0  0  0  0  0  0  0  0
    8.3173  -13.9736   20.4635 C   0  0  1  0  0  0  0  0  0  0  0  0
    7.8151  -14.0764   21.8378 C   0  0  0  0  0  0  0  0  0  0  0  0
    7.4566  -13.0205   22.4619 O   0  0  0  0  0  0  0  0  0  0  0  0
    5.7383  -19.4236   20.8936 N   0  0  0  0  0  0  0  0  0  0  0  0
    6.6977  -20.1395   21.6560 C   0  0  0  0  0  0  0  0  0  0  0  0
    7.4784  -20.9975   21.0625 N   0  0  0  0  0  0  0  0  0  0  0  0
    6.8653  -19.9779   23.0534 N   0  0  0  0  0  0  0  0  0  0  0  0
    6.0948  -19.0377   23.8337 C   0  0  0  0  0  0  0  0  0  0  0  0
    6.2360  -17.6165   23.3500 C   0  0  0  0  0  0  0  0  0  0  0  0
    7.0296  -16.8254   24.3548 C   0  0  0  0  0  0  0  0  0  0  0  0
    7.2361  -15.3882   23.9048 C   0  0  2  0  0  0  0  0  0  0  0  0
    7.6858  -15.2877   22.5630 N   0  0  0  0  0  0  0  0  0  0  0  0
    8.0434  -14.7145   24.9392 C   0  0  0  0  0  0  0  0  0  0  0  0
    9.3171  -14.8687   24.7552 O   0  0  0  0  0  0  0  0  0  0  0  0
    8.1963  -21.5404   21.5523 N   0  0  0  0  0  0  0  0  0  0  0  0
    7.6518  -13.9720   26.0363 C   0  0  0  0  0  0  0  0  0  0  0  0
    6.3463  -13.7047   26.5622 C   0  0  0  0  0  0  0  0  0  0  0  0
    6.4968  -12.2089   26.9068 C   0  0  0  0  0  0  0  0  0  0  0  0
    7.8003  -12.2140   27.6400 C   0  0  2  0  0  0  0  0  0  0  0  0
    8.5877  -13.2679   26.9353 C   0  0  0  0  0  0  0  0  0  0  0  0
    9.2129  -14.2395   27.8678 O   0  0  0  0  0  0  0  0  0  0  0  0
   10.2501  -13.8197   28.6580 O   0  0  0  0  0  0  0  0  0  0  0  0
  1  2  1  0
  3  2  1  0
  4  5  1  0
  4  3  1  0
  5  1  1  0
  5  6  1  1
  6  7  2  0
  8  9  1  0
  9 11  1  0
 10  9  2  0
 11 12  1  0
 12 13  1  0
 15 14  1  1
 14 13  1  0
 15 16  1  0
 16  6  1  0
 17 15  1  0
 18 17  2  0
 19 20  1  0
 19 17  1  0
 21 20  1  0
 22 23  1  0
 22 21  1  0
 23 19  1  0
 24 25  1  0
 23 24  1  1
 26 24  2  0
M  END
$$$$
