PRP.pdb
     RDKit          3D

 26 27  0  0  1  0  0  0  0  0999 V2000
    8.8923  -14.8958   19.4973 N   0  0  0  0  0  0  0  0  0  0  0  0
    8.9062  -14.6280   18.0868 C   0  0  0  0  0  0  0  0  0  0  0  0
    8.3799  -13.2282   17.8786 C   0  0  0  0  0  0  0  0  0  0  0  0
    7.6637  -12.9689   19.2106 C   0  0  0  0  0  0  0  0  0  0  0  0
    8.5568  -13.6609   20.1751 C   0  0  1  0  0  0  0  0  0  0  0  0
    7.9962  -13.9030   21.5088 C   0  0  0  0  0  0  0  0  0  0  0  0
    7.7065  -12.9132   22.2633 O   0  0  0  0  0  0  0  0  0  0  0  0
    8.9515  -18.9529   26.2699 N   0  0  0  0  0  0  0  0  0  0  0  0
    7.7929  -19.1683   27.0606 C   0  0  0  0  0  0  0  0  0  0  0  0
    7.9237  -19.5332   28.3047 N   0  0  0  0  0  0  0  0  0  0  0  0
    6.4723  -19.0084   26.5734 N   0  0  0  0  0  0  0  0  0  0  0  0
    6.1783  -18.5954   25.2209 C   0  0  0  0  0  0  0  0  0  0  0  0
    6.3841  -17.1182   24.9988 C   0  0  0  0  0  0  0  0  0  0  0  0
    7.0168  -16.9011   23.6506 C   0  0  0  0  0  0  0  0  0  0  0  0
    7.2380  -15.4250   23.3627 C   0  0  2  0  0  0  0  0  0  0  0  0
    7.7359  -15.1845   22.0562 N   0  0  0  0  0  0  0  0  0  0  0  0
    8.0064  -14.8664   24.4910 C   0  0  0  0  0  0  0  0  0  0  0  0
    9.2385  -15.2688   24.5017 O   0  0  0  0  0  0  0  0  0  0  0  0
    7.1299  -19.6919   28.9329 N   0  0  0  0  0  0  0  0  0  0  0  0
    7.6160  -14.0095   25.5017 C   0  0  0  0  0  0  0  0  0  0  0  0
    6.3468  -13.4009   25.7685 C   0  0  0  0  0  0  0  0  0  0  0  0
    6.8064  -11.9807   26.1565 C   0  0  0  0  0  0  0  0  0  0  0  0
    7.9005  -12.2895   27.1281 C   0  0  2  0  0  0  0  0  0  0  0  0
    8.5116  -13.5336   26.5747 C   0  0  0  0  0  0  0  0  0  0  0  0
    8.6776  -14.5974   27.5971 O   0  0  0  0  0  0  0  0  0  0  0  0
    9.6324  -14.4361   28.5658 O   0  0  0  0  0  0  0  0  0  0  0  0
  1  2  1  0
  3  2  1  0
  4  5  1  0
  4  3  1  0
  5  1  1  0
  5  6  1  1
  6  7  2  0
  8  9  1  0
  9 11  1  0
 10  9  2  0
 11 12  1  0
 12 13  1  0
 15 14  1  1
 14 13  1  0
 15 16  1  0
 16  6  1  0
 17 15  1  0
 18 17  2  0
 19 20  1  0
 19 17  1  0
 21 20  1  0
 22 23  1  0
 22 21  1  0
 23 19  1  0
 24 25  1  0
 23 24  1  1
 26 24  2  0
M  END
$$$$
