PRP.pdb
     RDKit          3D

 26 27  0  0  1  0  0  0  0  0999 V2000
    7.9676  -14.8511   18.8556 N   0  0  0  0  0  0  0  0  0  0  0  0
    8.0520  -14.1115   17.6278 C   0  0  0  0  0  0  0  0  0  0  0  0
    8.1094  -12.6438   17.9773 C   0  0  0  0  0  0  0  0  0  0  0  0
    7.5828  -12.6511   19.4184 C   0  0  0  0  0  0  0  0  0  0  0  0
    8.1570  -13.9160   19.9450 C   0  0  1  0  0  0  0  0  0  0  0  0
    7.5778  -14.4108   21.1984 C   0  0  0  0  0  0  0  0  0  0  0  0
    6.3311  -14.2491   21.4273 O   0  0  0  0  0  0  0  0  0  0  0  0
    9.0277  -19.1999   27.8155 N   0  0  0  0  0  0  0  0  0  0  0  0
    7.6192  -19.1176   27.6621 C   0  0  0  0  0  0  0  0  0  0  0  0
    6.8805  -18.7882   28.6838 N   0  0  0  0  0  0  0  0  0  0  0  0
    6.9486  -19.3765   26.4414 N   0  0  0  0  0  0  0  0  0  0  0  0
    7.4272  -18.8984   25.1651 C   0  0  0  0  0  0  0  0  0  0  0  0
    7.3375  -17.3996   25.0270 C   0  0  0  0  0  0  0  0  0  0  0  0
    7.7817  -16.9997   23.6456 C   0  0  0  0  0  0  0  0  0  0  0  0
    7.7652  -15.4908   23.4627 C   0  0  2  0  0  0  0  0  0  0  0  0
    8.3038  -15.0784   22.2168 N   0  0  0  0  0  0  0  0  0  0  0  0
    8.3459  -14.8932   24.6798 C   0  0  0  0  0  0  0  0  0  0  0  0
    9.6271  -15.0723   24.7595 O   0  0  0  0  0  0  0  0  0  0  0  0
    5.8575  -18.7413   28.6491 N   0  0  0  0  0  0  0  0  0  0  0  0
    7.7428  -14.1975   25.7097 C   0  0  0  0  0  0  0  0  0  0  0  0
    6.3617  -13.9047   25.9525 C   0  0  0  0  0  0  0  0  0  0  0  0
    6.4758  -12.4385   26.4171 C   0  0  0  0  0  0  0  0  0  0  0  0
    7.5837  -12.5405   27.4165 C   0  0  2  0  0  0  0  0  0  0  0  0
    8.4765  -13.5857   26.8354 C   0  0  0  0  0  0  0  0  0  0  0  0
    8.8509  -14.6340   27.8179 O   0  0  0  0  0  0  0  0  0  0  0  0
    9.7720  -14.3308   28.7854 O   0  0  0  0  0  0  0  0  0  0  0  0
  1  2  1  0
  3  2  1  0
  4  5  1  0
  4  3  1  0
  5  1  1  0
  5  6  1  1
  6  7  2  0
  8  9  1  0
  9 11  1  0
 10  9  2  0
 11 12  1  0
 12 13  1  0
 15 14  1  1
 14 13  1  0
 15 16  1  0
 16  6  1  0
 17 15  1  0
 18 17  2  0
 19 20  1  0
 19 17  1  0
 21 20  1  0
 22 23  1  0
 22 21  1  0
 23 19  1  0
 24 25  1  0
 23 24  1  1
 26 24  2  0
M  END
$$$$
