PRP.pdb
     RDKit          3D

 26 27  0  0  1  0  0  0  0  0999 V2000
    8.9346  -15.0846   19.9984 N   0  0  0  0  0  0  0  0  0  0  0  0
    8.9822  -14.9794   18.5672 C   0  0  0  0  0  0  0  0  0  0  0  0
    8.3089  -13.6853   18.1779 C   0  0  0  0  0  0  0  0  0  0  0  0
    7.5076  -13.3631   19.4461 C   0  0  0  0  0  0  0  0  0  0  0  0
    8.4291  -13.8293   20.5140 C   0  0  1  0  0  0  0  0  0  0  0  0
    7.8396  -13.9829   21.8483 C   0  0  0  0  0  0  0  0  0  0  0  0
    7.2793  -12.9824   22.4122 O   0  0  0  0  0  0  0  0  0  0  0  0
    6.4266  -22.0211   23.7494 N   0  0  0  0  0  0  0  0  0  0  0  0
    5.6665  -21.2776   22.8095 C   0  0  0  0  0  0  0  0  0  0  0  0
    4.8979  -21.9056   21.9652 N   0  0  0  0  0  0  0  0  0  0  0  0
    5.6900  -19.8634   22.7277 N   0  0  0  0  0  0  0  0  0  0  0  0
    6.4619  -19.0371   23.6265 C   0  0  0  0  0  0  0  0  0  0  0  0
    6.3138  -17.5633   23.3444 C   0  0  0  0  0  0  0  0  0  0  0  0
    7.1472  -16.7827   24.3249 C   0  0  0  0  0  0  0  0  0  0  0  0
    7.3013  -15.3304   23.9033 C   0  0  2  0  0  0  0  0  0  0  0  0
    7.8343  -15.1871   22.5964 N   0  0  0  0  0  0  0  0  0  0  0  0
    7.9967  -14.6258   24.9966 C   0  0  0  0  0  0  0  0  0  0  0  0
    9.2851  -14.7499   24.9284 O   0  0  0  0  0  0  0  0  0  0  0  0
    4.3601  -21.4331   21.2320 N   0  0  0  0  0  0  0  0  0  0  0  0
    7.4912  -13.8818   26.0450 C   0  0  0  0  0  0  0  0  0  0  0  0
    6.1390  -13.5615   26.3929 C   0  0  0  0  0  0  0  0  0  0  0  0
    6.3068  -12.0795   26.7860 C   0  0  0  0  0  0  0  0  0  0  0  0
    7.4955  -12.1563   27.6903 C   0  0  2  0  0  0  0  0  0  0  0  0
    8.3249  -13.2355   27.0781 C   0  0  0  0  0  0  0  0  0  0  0  0
    8.7722  -14.2487   28.0669 O   0  0  0  0  0  0  0  0  0  0  0  0
    9.7486  -13.9064   28.9645 O   0  0  0  0  0  0  0  0  0  0  0  0
  1  2  1  0
  3  2  1  0
  4  5  1  0
  4  3  1  0
  5  1  1  0
  5  6  1  1
  6  7  2  0
  8  9  1  0
  9 11  1  0
 10  9  2  0
 11 12  1  0
 12 13  1  0
 15 14  1  1
 14 13  1  0
 15 16  1  0
 16  6  1  0
 17 15  1  0
 18 17  2  0
 19 20  1  0
 19 17  1  0
 21 20  1  0
 22 23  1  0
 22 21  1  0
 23 19  1  0
 24 25  1  0
 23 24  1  1
 26 24  2  0
M  END
$$$$
