PRP.pdb
     RDKit          3D

 26 27  0  0  1  0  0  0  0  0999 V2000
    8.6390  -15.0165   19.4959 N   0  0  0  0  0  0  0  0  0  0  0  0
    8.5963  -14.7843   18.0796 C   0  0  0  0  0  0  0  0  0  0  0  0
    8.0602  -13.3905   17.8573 C   0  0  0  0  0  0  0  0  0  0  0  0
    7.3973  -13.0978   19.2098 C   0  0  0  0  0  0  0  0  0  0  0  0
    8.3291  -13.7649   20.1551 C   0  0  1  0  0  0  0  0  0  0  0  0
    7.8225  -13.9733   21.5157 C   0  0  0  0  0  0  0  0  0  0  0  0
    7.5128  -12.9654   22.2377 O   0  0  0  0  0  0  0  0  0  0  0  0
    7.7903  -20.2551   28.7937 N   0  0  0  0  0  0  0  0  0  0  0  0
    7.3271  -20.0442   27.4689 C   0  0  0  0  0  0  0  0  0  0  0  0
    7.0161  -21.0693   26.7269 N   0  0  0  0  0  0  0  0  0  0  0  0
    7.1776  -18.7612   26.8872 N   0  0  0  0  0  0  0  0  0  0  0  0
    6.5814  -18.5518   25.5884 C   0  0  0  0  0  0  0  0  0  0  0  0
    6.5037  -17.0957   25.2043 C   0  0  0  0  0  0  0  0  0  0  0  0
    7.0733  -16.9143   23.8230 C   0  0  0  0  0  0  0  0  0  0  0  0
    7.2451  -15.4453   23.4724 C   0  0  2  0  0  0  0  0  0  0  0  0
    7.6372  -15.2402   22.1246 N   0  0  0  0  0  0  0  0  0  0  0  0
    8.0873  -14.8380   24.5200 C   0  0  0  0  0  0  0  0  0  0  0  0
    9.3373  -15.1600   24.4023 O   0  0  0  0  0  0  0  0  0  0  0  0
    6.7271  -20.9900   25.7471 N   0  0  0  0  0  0  0  0  0  0  0  0
    7.7480  -14.0078   25.5707 C   0  0  0  0  0  0  0  0  0  0  0  0
    6.4701  -13.5214   25.9983 C   0  0  0  0  0  0  0  0  0  0  0  0
    6.8341  -12.0576   26.3200 C   0  0  0  0  0  0  0  0  0  0  0  0
    8.0692  -12.2440   27.1424 C   0  0  2  0  0  0  0  0  0  0  0  0
    8.7232  -13.4311   26.5174 C   0  0  0  0  0  0  0  0  0  0  0  0
    9.1232  -14.4582   27.5122 O   0  0  0  0  0  0  0  0  0  0  0  0
   10.1458  -14.1732   28.3779 O   0  0  0  0  0  0  0  0  0  0  0  0
  1  2  1  0
  3  2  1  0
  4  5  1  0
  4  3  1  0
  5  1  1  0
  5  6  1  1
  6  7  2  0
  8  9  1  0
  9 11  1  0
 10  9  2  0
 11 12  1  0
 12 13  1  0
 15 14  1  1
 14 13  1  0
 15 16  1  0
 16  6  1  0
 17 15  1  0
 18 17  2  0
 19 20  1  0
 19 17  1  0
 21 20  1  0
 22 23  1  0
 22 21  1  0
 23 19  1  0
 24 25  1  0
 23 24  1  1
 26 24  2  0
M  END
$$$$
