PRP.pdb
     RDKit          3D

 26 27  0  0  1  0  0  0  0  0999 V2000
    8.5462  -16.0931   20.0257 N   0  0  0  0  0  0  0  0  0  0  0  0
    7.9157  -15.9497   18.7437 C   0  0  0  0  0  0  0  0  0  0  0  0
    8.1792  -14.5455   18.2553 C   0  0  0  0  0  0  0  0  0  0  0  0
    8.5788  -13.8383   19.5571 C   0  0  0  0  0  0  0  0  0  0  0  0
    9.3382  -14.9038   20.2606 C   0  0  1  0  0  0  0  0  0  0  0  0
    9.5816  -14.6813   21.6898 C   0  0  0  0  0  0  0  0  0  0  0  0
   10.2606  -13.6663   22.0662 O   0  0  0  0  0  0  0  0  0  0  0  0
    6.7659  -12.2525   27.7699 N   0  0  0  0  0  0  0  0  0  0  0  0
    5.6036  -12.1657   26.9601 C   0  0  0  0  0  0  0  0  0  0  0  0
    4.8934  -11.0733   26.9717 N   0  0  0  0  0  0  0  0  0  0  0  0
    5.1551  -13.2147   26.1202 N   0  0  0  0  0  0  0  0  0  0  0  0
    5.7294  -14.5399   26.1432 C   0  0  0  0  0  0  0  0  0  0  0  0
    7.2058  -14.5468   25.8369 C   0  0  0  0  0  0  0  0  0  0  0  0
    7.4143  -14.9463   24.4009 C   0  0  0  0  0  0  0  0  0  0  0  0
    8.8887  -15.1107   24.0697 C   0  0  2  0  0  0  0  0  0  0  0  0
    9.1126  -15.5219   22.7306 N   0  0  0  0  0  0  0  0  0  0  0  0
    9.4910  -15.9313   25.1372 C   0  0  0  0  0  0  0  0  0  0  0  0
    9.6859  -17.1593   24.7708 O   0  0  0  0  0  0  0  0  0  0  0  0
    4.0433  -10.9467   26.4138 N   0  0  0  0  0  0  0  0  0  0  0  0
    9.8619  -15.5925   26.4240 C   0  0  0  0  0  0  0  0  0  0  0  0
    9.5569  -14.4317   27.2062 C   0  0  0  0  0  0  0  0  0  0  0  0
   10.9333  -14.1746   27.8529 C   0  0  0  0  0  0  0  0  0  0  0  0
   11.2816  -15.5454   28.3389 C   0  0  2  0  0  0  0  0  0  0  0  0
   10.7048  -16.4389   27.2918 C   0  0  0  0  0  0  0  0  0  0  0  0
    9.8892  -17.5412   27.8611 O   0  0  0  0  0  0  0  0  0  0  0  0
   10.5263  -18.5588   28.5206 O   0  0  0  0  0  0  0  0  0  0  0  0
  1  2  1  0
  3  2  1  0
  4  5  1  0
  4  3  1  0
  5  1  1  0
  5  6  1  1
  6  7  2  0
  8  9  1  0
  9 11  1  0
 10  9  2  0
 11 12  1  0
 12 13  1  0
 15 14  1  1
 14 13  1  0
 15 16  1  0
 16  6  1  0
 17 15  1  0
 18 17  2  0
 19 20  1  0
 19 17  1  0
 21 20  1  0
 22 23  1  0
 22 21  1  0
 23 19  1  0
 24 25  1  0
 23 24  1  1
 26 24  2  0
M  END
$$$$
