PRP.pdb
     RDKit          3D

 26 27  0  0  1  0  0  0  0  0999 V2000
   11.4700  -20.0828   19.8067 N   0  0  0  0  0  0  0  0  0  0  0  0
   11.9575  -20.7654   18.6413 C   0  0  0  0  0  0  0  0  0  0  0  0
   12.8881  -19.8258   17.9128 C   0  0  0  0  0  0  0  0  0  0  0  0
   12.4884  -18.4717   18.5136 C   0  0  0  0  0  0  0  0  0  0  0  0
   12.2013  -18.8384   19.9242 C   0  0  1  0  0  0  0  0  0  0  0  0
   11.4643  -17.8422   20.7090 C   0  0  0  0  0  0  0  0  0  0  0  0
   12.0023  -16.7111   20.9622 O   0  0  0  0  0  0  0  0  0  0  0  0
    8.1254  -12.8273   17.5930 N   0  0  0  0  0  0  0  0  0  0  0  0
    7.7000  -13.2912   18.8650 C   0  0  0  0  0  0  0  0  0  0  0  0
    7.9648  -12.5846   19.9273 N   0  0  0  0  0  0  0  0  0  0  0  0
    6.9893  -14.5013   19.0589 N   0  0  0  0  0  0  0  0  0  0  0  0
    6.4728  -14.9119   20.3438 C   0  0  0  0  0  0  0  0  0  0  0  0
    7.5570  -15.3018   21.3166 C   0  0  0  0  0  0  0  0  0  0  0  0
    8.2901  -16.5054   20.7884 C   0  0  0  0  0  0  0  0  0  0  0  0
    9.3437  -16.9981   21.7670 C   0  0  2  0  0  0  0  0  0  0  0  0
   10.1591  -18.0276   21.2305 N   0  0  0  0  0  0  0  0  0  0  0  0
    8.6623  -17.2745   23.0456 C   0  0  0  0  0  0  0  0  0  0  0  0
    8.1180  -18.4504   23.0754 O   0  0  0  0  0  0  0  0  0  0  0  0
    7.7084  -12.8741   20.8762 N   0  0  0  0  0  0  0  0  0  0  0  0
    8.5242  -16.4888   24.1734 C   0  0  0  0  0  0  0  0  0  0  0  0
    8.5607  -15.0649   24.3268 C   0  0  0  0  0  0  0  0  0  0  0  0
    9.3935  -14.9555   25.6204 C   0  0  0  0  0  0  0  0  0  0  0  0
    8.7030  -15.9568   26.4906 C   0  0  2  0  0  0  0  0  0  0  0  0
    8.2926  -17.0229   25.5302 C   0  0  0  0  0  0  0  0  0  0  0  0
    6.8678  -17.4135   25.6782 O   0  0  0  0  0  0  0  0  0  0  0  0
    6.5156  -18.2393   26.7128 O   0  0  0  0  0  0  0  0  0  0  0  0
  1  2  1  0
  3  2  1  0
  4  5  1  0
  4  3  1  0
  5  1  1  0
  5  6  1  6
  6  7  2  0
  8  9  1  0
  9 11  1  0
 10  9  2  0
 11 12  1  0
 12 13  1  0
 15 14  1  6
 14 13  1  0
 15 16  1  0
 16  6  1  0
 17 15  1  0
 18 17  2  0
 19 20  1  0
 19 17  1  0
 21 20  1  0
 22 23  1  0
 22 21  1  0
 23 19  1  0
 24 25  1  0
 23 24  1  1
 26 24  2  0
M  END
$$$$
