QGM.pdb
     RDKit          3D

 22 21  0  0  1  0  0  0  0  0999 V2000
    9.7015  -12.8720   18.5613 N   0  0  0  0  0  0  0  0  0  0  0  0
    8.6628  -13.3280   17.6932 C   0  0  0  0  0  0  0  0  0  0  0  0
    8.9453  -13.5214   16.4852 O   0  0  0  0  0  0  0  0  0  0  0  0
    7.3038  -13.5730   18.1713 C   0  0  0  0  0  0  0  0  0  0  0  0
    7.2660  -13.5754   19.6715 C   0  0  0  0  0  0  0  0  0  0  0  0
    8.1573  -14.6750   20.1839 C   0  0  2  0  0  0  0  0  0  0  0  0
    7.7872  -15.8837   19.4596 N   0  0  0  0  0  0  0  0  0  0  0  0
    7.8662  -14.8366   21.6474 C   0  0  0  0  0  0  0  0  0  0  0  0
    8.0197  -13.8678   22.4299 O   0  0  0  0  0  0  0  0  0  0  0  0
    7.4193  -16.0650   22.1685 N   0  0  0  0  0  0  0  0  0  0  0  0
    7.1137  -16.1809   23.5809 C   0  0  0  0  0  0  0  0  0  0  0  0
    8.3842  -16.1389   24.3354 C   0  0  0  0  0  0  0  0  0  0  0  0
    9.5088  -16.4286   23.8333 O   0  0  0  0  0  0  0  0  0  0  0  0
    6.3286  -11.0421   26.7778 C   0  0  0  0  0  0  0  0  0  0  0  0
    7.2433  -12.3193   27.6621 S   0  0  0  0  0  0  0  0  0  0  0  0
    8.4859  -13.1212   26.6079 C   0  0  0  0  0  0  0  0  0  0  0  0
    9.1296  -14.2526   27.3812 C   0  0  0  0  0  0  0  0  0  0  0  0
    9.4914  -15.4030   26.4822 C   0  0  2  0  0  0  0  0  0  0  0  0
    8.3344  -15.7512   25.6997 N   0  0  0  0  0  0  0  0  0  0  0  0
    9.9136  -16.5995   27.2221 C   0  0  0  0  0  0  0  0  0  0  0  0
   10.9792  -16.5649   27.8845 O   0  0  0  0  0  0  0  0  0  0  0  0
    9.1905  -17.7809   27.2293 O   0  0  0  0  0  0  0  0  0  0  0  0
  1  2  1  0
  2  3  2  0
  4  2  1  0
  4  5  1  0
  6  5  1  0
  6  8  1  0
  6  7  1  6
  8  9  2  0
 10  8  1  0
 10 11  1  0
 11 12  1  0
 12 19  1  0
 13 12  2  0
 15 14  1  0
 15 16  1  0
 17 16  1  0
 18 20  1  0
 18 17  1  1
 19 18  1  0
 20 22  1  0
 21 20  2  0
M  END
$$$$
