QGM.pdb
     RDKit          3D

 22 21  0  0  1  0  0  0  0  0999 V2000
    8.1902  -12.9676   18.2754 N   0  0  0  0  0  0  0  0  0  0  0  0
    7.9620  -12.8395   19.6796 C   0  0  0  0  0  0  0  0  0  0  0  0
    8.2740  -11.7560   20.2322 O   0  0  0  0  0  0  0  0  0  0  0  0
    7.3811  -13.9205   20.4731 C   0  0  0  0  0  0  0  0  0  0  0  0
    7.0747  -15.1051   19.6043 C   0  0  0  0  0  0  0  0  0  0  0  0
    7.0689  -16.3486   20.4527 C   0  0  2  0  0  0  0  0  0  0  0  0
    6.3363  -16.0206   21.6685 N   0  0  0  0  0  0  0  0  0  0  0  0
    8.4983  -16.6705   20.7782 C   0  0  0  0  0  0  0  0  0  0  0  0
    9.2987  -16.9754   19.8612 O   0  0  0  0  0  0  0  0  0  0  0  0
    8.9670  -16.6377   22.1045 N   0  0  0  0  0  0  0  0  0  0  0  0
   10.3402  -16.2596   22.3751 C   0  0  0  0  0  0  0  0  0  0  0  0
   10.4553  -15.9270   23.8109 C   0  0  0  0  0  0  0  0  0  0  0  0
   11.5196  -15.5075   24.3512 O   0  0  0  0  0  0  0  0  0  0  0  0
    6.9034  -11.0629   25.9740 C   0  0  0  0  0  0  0  0  0  0  0  0
    6.8962  -12.7431   26.6272 S   0  0  0  0  0  0  0  0  0  0  0  0
    8.1709  -13.7803   25.8539 C   0  0  0  0  0  0  0  0  0  0  0  0
    8.1363  -15.1550   26.4875 C   0  0  0  0  0  0  0  0  0  0  0  0
    9.3114  -15.9916   26.0612 C   0  0  2  0  0  0  0  0  0  0  0  0
    9.3041  -16.0892   24.6250 N   0  0  0  0  0  0  0  0  0  0  0  0
    9.2745  -17.3546   26.6072 C   0  0  0  0  0  0  0  0  0  0  0  0
    9.3811  -17.5201   27.8468 O   0  0  0  0  0  0  0  0  0  0  0  0
    9.1266  -18.4835   25.8183 O   0  0  0  0  0  0  0  0  0  0  0  0
  1  2  1  0
  2  3  2  0
  4  2  1  0
  4  5  1  0
  6  5  1  0
  6  8  1  0
  6  7  1  1
  8  9  2  0
 10  8  1  0
 10 11  1  0
 11 12  1  0
 12 19  1  0
 13 12  2  0
 15 14  1  0
 15 16  1  0
 17 16  1  0
 18 20  1  0
 18 17  1  1
 19 18  1  0
 20 22  1  0
 21 20  2  0
M  END
$$$$
