QGM.pdb
     RDKit          3D

 22 21  0  0  1  0  0  0  0  0999 V2000
    9.8143  -14.5568   15.6672 N   0  0  0  0  0  0  0  0  0  0  0  0
    8.5159  -14.0039   15.8882 C   0  0  0  0  0  0  0  0  0  0  0  0
    7.5993  -14.3102   15.0866 O   0  0  0  0  0  0  0  0  0  0  0  0
    8.2343  -13.1081   17.0080 C   0  0  0  0  0  0  0  0  0  0  0  0
    8.6365  -13.7454   18.3058 C   0  0  0  0  0  0  0  0  0  0  0  0
    7.5781  -14.7337   18.7169 C   0  0  2  0  0  0  0  0  0  0  0  0
    6.5228  -13.9685   19.3676 N   0  0  0  0  0  0  0  0  0  0  0  0
    8.2110  -15.6811   19.6939 C   0  0  0  0  0  0  0  0  0  0  0  0
    9.1579  -16.4198   19.3303 O   0  0  0  0  0  0  0  0  0  0  0  0
    7.7611  -15.7609   21.0248 N   0  0  0  0  0  0  0  0  0  0  0  0
    8.3913  -16.6872   21.9449 C   0  0  0  0  0  0  0  0  0  0  0  0
    9.1189  -15.9039   22.9659 C   0  0  0  0  0  0  0  0  0  0  0  0
   10.0925  -15.1402   22.7026 O   0  0  0  0  0  0  0  0  0  0  0  0
    6.4537  -10.7745   27.7834 C   0  0  0  0  0  0  0  0  0  0  0  0
    6.3484  -12.0898   26.5552 S   0  0  0  0  0  0  0  0  0  0  0  0
    7.8776  -13.0658   26.4689 C   0  0  0  0  0  0  0  0  0  0  0  0
    7.7275  -14.1199   25.3924 C   0  0  0  0  0  0  0  0  0  0  0  0
    8.9330  -15.0167   25.3227 C   0  0  2  0  0  0  0  0  0  0  0  0
    8.6978  -16.0188   24.3163 N   0  0  0  0  0  0  0  0  0  0  0  0
    9.2108  -15.7052   26.5900 C   0  0  0  0  0  0  0  0  0  0  0  0
    9.5935  -15.0345   27.5795 O   0  0  0  0  0  0  0  0  0  0  0  0
    9.0719  -17.0734   26.7558 O   0  0  0  0  0  0  0  0  0  0  0  0
  1  2  1  0
  2  3  2  0
  4  2  1  0
  4  5  1  0
  6  5  1  0
  6  8  1  0
  6  7  1  1
  8  9  2  0
 10  8  1  0
 10 11  1  0
 11 12  1  0
 12 19  1  0
 13 12  2  0
 15 14  1  0
 15 16  1  0
 17 16  1  0
 18 20  1  0
 18 17  1  1
 19 18  1  0
 20 22  1  0
 21 20  2  0
M  END
$$$$
