QGM.pdb
     RDKit          3D

 22 21  0  0  1  0  0  0  0  0999 V2000
    8.0844  -13.9191   18.0017 N   0  0  0  0  0  0  0  0  0  0  0  0
    8.3904  -13.0222   19.0705 C   0  0  0  0  0  0  0  0  0  0  0  0
    8.8112  -11.8761   18.7774 O   0  0  0  0  0  0  0  0  0  0  0  0
    8.2250  -13.4004   20.4723 C   0  0  0  0  0  0  0  0  0  0  0  0
    7.9825  -14.8764   20.5941 C   0  0  0  0  0  0  0  0  0  0  0  0
    7.2222  -15.1464   21.8650 C   0  0  2  0  0  0  0  0  0  0  0  0
    7.6288  -14.1239   22.8197 N   0  0  0  0  0  0  0  0  0  0  0  0
    7.6370  -16.5048   22.3503 C   0  0  0  0  0  0  0  0  0  0  0  0
    7.4404  -17.5158   21.6334 O   0  0  0  0  0  0  0  0  0  0  0  0
    8.2489  -16.6725   23.6062 N   0  0  0  0  0  0  0  0  0  0  0  0
    9.6478  -17.0455   23.6830 C   0  0  0  0  0  0  0  0  0  0  0  0
   10.2218  -16.4435   24.9050 C   0  0  0  0  0  0  0  0  0  0  0  0
   11.4534  -16.4773   25.1924 O   0  0  0  0  0  0  0  0  0  0  0  0
    6.8044  -10.7440   25.6480 C   0  0  0  0  0  0  0  0  0  0  0  0
    7.1583  -12.0038   26.8879 S   0  0  0  0  0  0  0  0  0  0  0  0
    8.4584  -13.1494   26.3438 C   0  0  0  0  0  0  0  0  0  0  0  0
    8.7042  -14.1680   27.4366 C   0  0  0  0  0  0  0  0  0  0  0  0
    9.7507  -15.1708   27.0346 C   0  0  2  0  0  0  0  0  0  0  0  0
    9.3372  -15.7923   25.8037 N   0  0  0  0  0  0  0  0  0  0  0  0
    9.9448  -16.2303   28.0331 C   0  0  0  0  0  0  0  0  0  0  0  0
    9.5330  -17.3893   27.7831 O   0  0  0  0  0  0  0  0  0  0  0  0
   10.5659  -16.0179   29.2528 O   0  0  0  0  0  0  0  0  0  0  0  0
  1  2  1  0
  2  3  2  0
  4  2  1  0
  4  5  1  0
  6  5  1  0
  6  8  1  0
  6  7  1  1
  8  9  2  0
 10  8  1  0
 10 11  1  0
 11 12  1  0
 12 19  1  0
 13 12  2  0
 15 14  1  0
 15 16  1  0
 17 16  1  0
 18 20  1  0
 18 17  1  1
 19 18  1  0
 20 22  1  0
 21 20  2  0
M  END
$$$$
