QGM.pdb
     RDKit          3D

 22 21  0  0  1  0  0  0  0  0999 V2000
    7.5283  -13.9569   16.3954 N   0  0  0  0  0  0  0  0  0  0  0  0
    8.1943  -13.3323   17.4940 C   0  0  0  0  0  0  0  0  0  0  0  0
    9.4416  -13.2020   17.4315 O   0  0  0  0  0  0  0  0  0  0  0  0
    7.4696  -12.8475   18.6667 C   0  0  0  0  0  0  0  0  0  0  0  0
    8.0695  -13.4055   19.9240 C   0  0  0  0  0  0  0  0  0  0  0  0
    7.7214  -14.8663   20.0285 C   0  0  2  0  0  0  0  0  0  0  0  0
    6.5998  -14.9628   20.9532 N   0  0  0  0  0  0  0  0  0  0  0  0
    8.9216  -15.5693   20.5923 C   0  0  0  0  0  0  0  0  0  0  0  0
    9.9919  -15.6090   19.9385 O   0  0  0  0  0  0  0  0  0  0  0  0
    8.8735  -16.1926   21.8529 N   0  0  0  0  0  0  0  0  0  0  0  0
   10.0660  -16.8117   22.3975 C   0  0  0  0  0  0  0  0  0  0  0  0
   10.2672  -16.3024   23.7705 C   0  0  0  0  0  0  0  0  0  0  0  0
   11.2741  -16.5836   24.4831 O   0  0  0  0  0  0  0  0  0  0  0  0
    5.4693  -12.4606   26.2976 C   0  0  0  0  0  0  0  0  0  0  0  0
    6.9527  -11.9160   27.1651 S   0  0  0  0  0  0  0  0  0  0  0  0
    8.2720  -13.1628   27.1081 C   0  0  0  0  0  0  0  0  0  0  0  0
    8.2687  -13.8194   25.7438 C   0  0  0  0  0  0  0  0  0  0  0  0
    9.3387  -14.8705   25.6318 C   0  0  2  0  0  0  0  0  0  0  0  0
    9.2718  -15.4504   24.3159 N   0  0  0  0  0  0  0  0  0  0  0  0
    9.1847  -15.9538   26.6116 C   0  0  0  0  0  0  0  0  0  0  0  0
    9.6187  -15.7900   27.7779 O   0  0  0  0  0  0  0  0  0  0  0  0
    8.5784  -17.1635   26.3153 O   0  0  0  0  0  0  0  0  0  0  0  0
  1  2  1  0
  2  3  2  0
  4  2  1  0
  4  5  1  0
  6  5  1  0
  6  8  1  0
  6  7  1  1
  8  9  2  0
 10  8  1  0
 10 11  1  0
 11 12  1  0
 12 19  1  0
 13 12  2  0
 15 14  1  0
 15 16  1  0
 17 16  1  0
 18 20  1  0
 18 17  1  6
 19 18  1  0
 20 22  1  0
 21 20  2  0
M  END
$$$$
