QGM.pdb
     RDKit          3D

 22 21  0  0  1  0  0  0  0  0999 V2000
    8.7670  -15.9419   15.3286 N   0  0  0  0  0  0  0  0  0  0  0  0
    9.7708  -15.1240   15.9319 C   0  0  0  0  0  0  0  0  0  0  0  0
   10.9086  -15.0979   15.4016 O   0  0  0  0  0  0  0  0  0  0  0  0
    9.5073  -14.3287   17.1292 C   0  0  0  0  0  0  0  0  0  0  0  0
    8.1163  -14.5808   17.6329 C   0  0  0  0  0  0  0  0  0  0  0  0
    7.8529  -13.6887   18.8165 C   0  0  2  0  0  0  0  0  0  0  0  0
    9.1011  -12.9930   19.1005 N   0  0  0  0  0  0  0  0  0  0  0  0
    7.4796  -14.5768   19.9673 C   0  0  0  0  0  0  0  0  0  0  0  0
    6.5236  -15.3820   19.8560 O   0  0  0  0  0  0  0  0  0  0  0  0
    8.1858  -14.5266   21.1833 N   0  0  0  0  0  0  0  0  0  0  0  0
    7.9080  -15.5017   22.2196 C   0  0  0  0  0  0  0  0  0  0  0  0
    8.8346  -15.2587   23.3455 C   0  0  0  0  0  0  0  0  0  0  0  0
   10.0114  -14.8163   23.2033 O   0  0  0  0  0  0  0  0  0  0  0  0
    5.5395  -11.8080   26.7226 C   0  0  0  0  0  0  0  0  0  0  0  0
    7.1787  -12.1545   27.3879 S   0  0  0  0  0  0  0  0  0  0  0  0
    8.1956  -13.1146   26.2292 C   0  0  0  0  0  0  0  0  0  0  0  0
    8.4262  -14.4954   26.8058 C   0  0  0  0  0  0  0  0  0  0  0  0
    9.1724  -15.3800   25.8450 C   0  0  2  0  0  0  0  0  0  0  0  0
    8.3736  -15.5393   24.6581 N   0  0  0  0  0  0  0  0  0  0  0  0
    9.4459  -16.7167   26.3887 C   0  0  0  0  0  0  0  0  0  0  0  0
    8.7973  -17.6989   25.9529 O   0  0  0  0  0  0  0  0  0  0  0  0
   10.3936  -16.9566   27.3701 O   0  0  0  0  0  0  0  0  0  0  0  0
  1  2  1  0
  2  3  2  0
  4  2  1  0
  4  5  1  0
  6  5  1  0
  6  8  1  0
  6  7  1  1
  8  9  2  0
 10  8  1  0
 10 11  1  0
 11 12  1  0
 12 19  1  0
 13 12  2  0
 15 14  1  0
 15 16  1  0
 17 16  1  0
 18 20  1  0
 18 17  1  1
 19 18  1  0
 20 22  1  0
 21 20  2  0
M  END
$$$$
