QGM.pdb
     RDKit          3D

 22 21  0  0  1  0  0  0  0  0999 V2000
    7.0785  -12.8060   18.6548 N   0  0  0  0  0  0  0  0  0  0  0  0
    8.2103  -13.3605   17.9825 C   0  0  0  0  0  0  0  0  0  0  0  0
    8.0250  -14.3499   17.2319 O   0  0  0  0  0  0  0  0  0  0  0  0
    9.5546  -12.8105   18.1434 C   0  0  0  0  0  0  0  0  0  0  0  0
   10.2038  -13.3603   19.3797 C   0  0  0  0  0  0  0  0  0  0  0  0
   10.4829  -14.8257   19.1781 C   0  0  2  0  0  0  0  0  0  0  0  0
    9.2832  -15.4012   18.5848 N   0  0  0  0  0  0  0  0  0  0  0  0
   10.7291  -15.4212   20.5337 C   0  0  0  0  0  0  0  0  0  0  0  0
   11.7836  -15.1502   21.1575 O   0  0  0  0  0  0  0  0  0  0  0  0
    9.7929  -16.2871   21.1283 N   0  0  0  0  0  0  0  0  0  0  0  0
   10.0486  -16.8293   22.4484 C   0  0  0  0  0  0  0  0  0  0  0  0
    9.8211  -15.7583   23.4416 C   0  0  0  0  0  0  0  0  0  0  0  0
    9.8673  -14.5243   23.1666 O   0  0  0  0  0  0  0  0  0  0  0  0
    6.3880  -11.6292   27.5395 C   0  0  0  0  0  0  0  0  0  0  0  0
    7.3399  -12.6110   26.3649 S   0  0  0  0  0  0  0  0  0  0  0  0
    6.5792  -14.2310   26.0564 C   0  0  0  0  0  0  0  0  0  0  0  0
    7.4557  -15.0110   25.0994 C   0  0  0  0  0  0  0  0  0  0  0  0
    8.7934  -15.3310   25.7083 C   0  0  2  0  0  0  0  0  0  0  0  0
    9.5353  -16.1412   24.7780 N   0  0  0  0  0  0  0  0  0  0  0  0
    8.6870  -16.0743   26.9705 C   0  0  0  0  0  0  0  0  0  0  0  0
    9.0645  -15.5283   28.0358 O   0  0  0  0  0  0  0  0  0  0  0  0
    8.1861  -17.3632   27.0514 O   0  0  0  0  0  0  0  0  0  0  0  0
  1  2  1  0
  2  3  2  0
  4  2  1  0
  4  5  1  0
  6  5  1  0
  6  8  1  0
  6  7  1  1
  8  9  2  0
 10  8  1  0
 10 11  1  0
 11 12  1  0
 12 19  1  0
 13 12  2  0
 15 14  1  0
 15 16  1  0
 17 16  1  0
 18 20  1  0
 18 17  1  6
 19 18  1  0
 20 22  1  0
 21 20  2  0
M  END
$$$$
