KPD.pdb
     RDKit          3D

 25 25  0  0  1  0  0  0  0  0999 V2000
    7.7377  -13.5642   21.0734 N   0  0  0  0  0  0  0  0  0  0  0  0
    7.1806  -13.9618   22.3261 C   0  0  1  0  0  0  0  0  0  0  0  0
    6.5216  -15.3133   22.3426 C   0  0  0  0  0  0  0  0  0  0  0  0
    7.1557  -16.3602   21.5156 C   0  0  0  0  0  0  0  0  0  0  0  0
    6.5742  -17.7132   21.5065 C   0  0  0  0  0  0  0  0  0  0  0  0
    7.2355  -18.7370   20.6504 C   0  0  0  0  0  0  0  0  0  0  0  0
    6.5712  -20.0348   20.8255 N   0  0  0  0  0  0  0  0  0  0  0  0
    8.1262  -13.8455   23.4627 C   0  0  0  0  0  0  0  0  0  0  0  0
    9.3724  -13.8944   23.1494 O   0  0  0  0  0  0  0  0  0  0  0  0
    7.8064  -13.6904   24.8172 N   0  0  0  0  0  0  0  0  0  0  0  0
    6.4985  -13.6533   25.4039 C   0  0  0  0  0  0  0  0  0  0  0  0
    6.6652  -12.8131   26.6618 C   0  0  0  0  0  0  0  0  0  0  0  0
    8.1348  -12.4807   26.7535 C   0  0  0  0  0  0  0  0  0  0  0  0
    8.7608  -13.5299   25.8885 C   0  0  1  0  0  0  0  0  0  0  0  0
    8.9971  -14.7441   26.6602 C   0  0  0  0  0  0  0  0  0  0  0  0
    8.0645  -15.5268   26.9246 O   0  0  0  0  0  0  0  0  0  0  0  0
   10.2990  -15.0485   27.1223 N   0  0  0  0  0  0  0  0  0  0  0  0
   10.7039  -16.3629   27.5800 C   0  0  1  0  0  0  0  0  0  0  0  0
   12.1062  -16.7313   27.1522 C   0  0  0  0  0  0  0  0  0  0  0  0
   12.2724  -16.8328   25.7039 C   0  0  0  0  0  0  0  0  0  0  0  0
   11.2735  -16.7722   24.9571 O   0  0  0  0  0  0  0  0  0  0  0  0
   10.6173  -16.4748   29.0559 C   0  0  0  0  0  0  0  0  0  0  0  0
   10.4111  -15.4371   29.7322 O   0  0  0  0  0  0  0  0  0  0  0  0
   13.5268  -16.9966   25.1526 O   0  0  0  0  0  0  0  0  0  0  0  0
   10.7534  -17.6692   29.7338 O   0  0  0  0  0  0  0  0  0  0  0  0
  2  1  1  6
  2  3  1  0
  3  4  1  0
  4  5  1  0
  6  5  1  0
  6  7  1  0
  8  2  1  0
  9  8  2  0
 10  8  1  0
 10 14  1  0
 11 12  1  0
 11 10  1  0
 12 13  1  0
 13 14  1  0
 14 15  1  1
 15 16  2  0
 17 15  1  0
 18 17  1  0
 18 22  1  0
 18 19  1  1
 20 19  1  0
 21 20  2  0
 22 23  2  0
 22 25  1  0
 24 20  1  0
M  END
$$$$
