KPD.pdb
     RDKit          3D

 25 25  0  0  1  0  0  0  0  0999 V2000
    8.3288  -16.5564   17.3549 N   0  0  0  0  0  0  0  0  0  0  0  0
    7.6398  -16.3140   18.5814 C   0  0  1  0  0  0  0  0  0  0  0  0
    6.7535  -17.4312   19.0587 C   0  0  0  0  0  0  0  0  0  0  0  0
    7.3996  -18.7474   19.2378 C   0  0  0  0  0  0  0  0  0  0  0  0
    6.5870  -19.8850   19.7006 C   0  0  0  0  0  0  0  0  0  0  0  0
    7.2878  -21.1793   19.9291 C   0  0  0  0  0  0  0  0  0  0  0  0
    6.3423  -22.1688   20.4610 N   0  0  0  0  0  0  0  0  0  0  0  0
    8.5246  -15.8635   19.6831 C   0  0  0  0  0  0  0  0  0  0  0  0
    9.7854  -15.9871   19.4623 O   0  0  0  0  0  0  0  0  0  0  0  0
    8.1344  -15.3269   20.9163 N   0  0  0  0  0  0  0  0  0  0  0  0
    6.8015  -15.2097   21.4318 C   0  0  0  0  0  0  0  0  0  0  0  0
    6.8575  -14.0160   22.3742 C   0  0  0  0  0  0  0  0  0  0  0  0
    8.2975  -13.5635   22.3943 C   0  0  0  0  0  0  0  0  0  0  0  0
    9.0271  -14.7771   21.9088 C   0  0  1  0  0  0  0  0  0  0  0  0
    9.3044  -15.6771   23.0219 C   0  0  0  0  0  0  0  0  0  0  0  0
    8.4792  -16.5454   23.3646 O   0  0  0  0  0  0  0  0  0  0  0  0
   10.5235  -15.5724   23.7317 N   0  0  0  0  0  0  0  0  0  0  0  0
   11.1969  -16.6996   24.3458 C   0  0  1  0  0  0  0  0  0  0  0  0
   12.6959  -16.5208   24.4246 C   0  0  0  0  0  0  0  0  0  0  0  0
   13.4329  -17.2767   23.4142 C   0  0  0  0  0  0  0  0  0  0  0  0
   12.8162  -18.0059   22.6098 O   0  0  0  0  0  0  0  0  0  0  0  0
   10.6818  -16.9623   25.7111 C   0  0  0  0  0  0  0  0  0  0  0  0
    9.9420  -16.1062   26.2557 O   0  0  0  0  0  0  0  0  0  0  0  0
   14.8084  -17.1923   23.3414 O   0  0  0  0  0  0  0  0  0  0  0  0
   10.9747  -18.1075   26.4233 O   0  0  0  0  0  0  0  0  0  0  0  0
  2  1  1  6
  2  3  1  0
  3  4  1  0
  4  5  1  0
  6  5  1  0
  6  7  1  0
  8  2  1  0
  9  8  2  0
 10  8  1  0
 10 14  1  0
 11 12  1  0
 11 10  1  0
 12 13  1  0
 13 14  1  0
 14 15  1  1
 15 16  2  0
 17 15  1  0
 18 17  1  0
 18 22  1  0
 18 19  1  1
 20 19  1  0
 21 20  2  0
 22 23  2  0
 22 25  1  0
 24 20  1  0
M  END
$$$$
