KPD.pdb
     RDKit          3D

 25 25  0  0  1  0  0  0  0  0999 V2000
    6.9283  -16.1455   22.3438 N   0  0  0  0  0  0  0  0  0  0  0  0
    6.6509  -15.8619   23.7151 C   0  0  1  0  0  0  0  0  0  0  0  0
    6.2051  -17.0359   24.5424 C   0  0  0  0  0  0  0  0  0  0  0  0
    6.5080  -18.3741   23.9952 C   0  0  0  0  0  0  0  0  0  0  0  0
    6.9887  -19.4263   24.9066 C   0  0  0  0  0  0  0  0  0  0  0  0
    7.2368  -20.7750   24.3251 C   0  0  0  0  0  0  0  0  0  0  0  0
    7.6350  -21.7078   25.3869 N   0  0  0  0  0  0  0  0  0  0  0  0
    7.7460  -15.1407   24.4079 C   0  0  0  0  0  0  0  0  0  0  0  0
    8.8757  -15.1334   23.7935 O   0  0  0  0  0  0  0  0  0  0  0  0
    7.6767  -14.4789   25.6401 N   0  0  0  0  0  0  0  0  0  0  0  0
    6.5403  -14.3721   26.5079 C   0  0  0  0  0  0  0  0  0  0  0  0
    6.7567  -13.0705   27.2662 C   0  0  0  0  0  0  0  0  0  0  0  0
    8.0976  -12.5412   26.8185 C   0  0  0  0  0  0  0  0  0  0  0  0
    8.7628  -13.7636   26.2670 C   0  0  1  0  0  0  0  0  0  0  0  0
    9.4226  -14.5037   27.3360 C   0  0  0  0  0  0  0  0  0  0  0  0
    8.7874  -14.8858   28.3374 O   0  0  0  0  0  0  0  0  0  0  0  0
   10.8035  -14.7974   27.2473 N   0  0  0  0  0  0  0  0  0  0  0  0
   11.3576  -16.1244   27.4295 C   0  0  1  0  0  0  0  0  0  0  0  0
   10.3682  -17.2251   27.1215 C   0  0  0  0  0  0  0  0  0  0  0  0
    9.8472  -17.8980   28.3095 C   0  0  0  0  0  0  0  0  0  0  0  0
   10.4577  -17.8058   29.3949 O   0  0  0  0  0  0  0  0  0  0  0  0
   12.5647  -16.3289   26.5931 C   0  0  0  0  0  0  0  0  0  0  0  0
   12.7634  -15.5639   25.6174 O   0  0  0  0  0  0  0  0  0  0  0  0
    8.6840  -18.6373   28.2422 O   0  0  0  0  0  0  0  0  0  0  0  0
   13.4903  -17.3246   26.8304 O   0  0  0  0  0  0  0  0  0  0  0  0
  2  1  1  6
  2  3  1  0
  3  4  1  0
  4  5  1  0
  6  5  1  0
  6  7  1  0
  8  2  1  0
  9  8  2  0
 10  8  1  0
 10 14  1  0
 11 12  1  0
 11 10  1  0
 12 13  1  0
 13 14  1  0
 14 15  1  1
 15 16  2  0
 17 15  1  0
 18 17  1  0
 18 22  1  0
 18 19  1  6
 20 19  1  0
 21 20  2  0
 22 23  2  0
 22 25  1  0
 24 20  1  0
M  END
$$$$
