KPD.pdb
     RDKit          3D

 25 25  0  0  1  0  0  0  0  0999 V2000
    8.5787  -14.8640   13.9582 N   0  0  0  0  0  0  0  0  0  0  0  0
    8.2007  -15.2020   15.2925 C   0  0  1  0  0  0  0  0  0  0  0  0
    8.0356  -16.6712   15.5670 C   0  0  0  0  0  0  0  0  0  0  0  0
    7.2509  -17.4371   14.5773 C   0  0  0  0  0  0  0  0  0  0  0  0
    7.0347  -18.8772   14.7971 C   0  0  0  0  0  0  0  0  0  0  0  0
    6.2656  -19.6203   13.7603 C   0  0  0  0  0  0  0  0  0  0  0  0
    6.1941  -21.0424   14.1193 N   0  0  0  0  0  0  0  0  0  0  0  0
    9.0632  -14.5866   16.3303 C   0  0  0  0  0  0  0  0  0  0  0  0
   10.2824  -14.3766   15.9795 O   0  0  0  0  0  0  0  0  0  0  0  0
    8.6922  -14.2174   17.6292 N   0  0  0  0  0  0  0  0  0  0  0  0
    7.4213  -14.4190   18.2618 C   0  0  0  0  0  0  0  0  0  0  0  0
    7.3187  -13.2968   19.2845 C   0  0  0  0  0  0  0  0  0  0  0  0
    8.6273  -12.5472   19.2188 C   0  0  0  0  0  0  0  0  0  0  0  0
    9.5432  -13.5459   18.5827 C   0  0  1  0  0  0  0  0  0  0  0  0
   10.1100  -14.4272   19.5967 C   0  0  0  0  0  0  0  0  0  0  0  0
    9.5620  -15.5085   19.8845 O   0  0  0  0  0  0  0  0  0  0  0  0
   11.2978  -14.0600   20.2714 N   0  0  0  0  0  0  0  0  0  0  0  0
   12.3783  -14.9824   20.5588 C   0  0  1  0  0  0  0  0  0  0  0  0
   13.7458  -14.3563   20.4066 C   0  0  0  0  0  0  0  0  0  0  0  0
   14.8480  -15.2726   20.6914 C   0  0  0  0  0  0  0  0  0  0  0  0
   14.6736  -16.5051   20.5937 O   0  0  0  0  0  0  0  0  0  0  0  0
   12.2663  -15.5413   21.9275 C   0  0  0  0  0  0  0  0  0  0  0  0
   13.0557  -16.4531   22.2771 O   0  0  0  0  0  0  0  0  0  0  0  0
   16.0829  -14.7866   21.0696 O   0  0  0  0  0  0  0  0  0  0  0  0
   11.3319  -15.1102   22.8470 O   0  0  0  0  0  0  0  0  0  0  0  0
  2  1  1  6
  2  3  1  0
  3  4  1  0
  4  5  1  0
  6  5  1  0
  6  7  1  0
  8  2  1  0
  9  8  2  0
 10  8  1  0
 10 14  1  0
 11 12  1  0
 11 10  1  0
 12 13  1  0
 13 14  1  0
 14 15  1  1
 15 16  2  0
 17 15  1  0
 18 17  1  0
 18 22  1  0
 18 19  1  1
 20 19  1  0
 21 20  2  0
 22 23  2  0
 22 25  1  0
 24 20  1  0
M  END
$$$$
