KPD.pdb
     RDKit          3D

 25 25  0  0  1  0  0  0  0  0999 V2000
    9.2890  -15.1442   15.9341 N   0  0  0  0  0  0  0  0  0  0  0  0
    8.4062  -15.2392   17.0518 C   0  0  1  0  0  0  0  0  0  0  0  0
    7.6203  -16.5175   17.1503 C   0  0  0  0  0  0  0  0  0  0  0  0
    8.4077  -17.7649   17.2274 C   0  0  0  0  0  0  0  0  0  0  0  0
    7.7020  -19.0453   17.4046 C   0  0  0  0  0  0  0  0  0  0  0  0
    8.5232  -20.2878   17.3890 C   0  0  0  0  0  0  0  0  0  0  0  0
    7.6567  -21.4581   17.5781 N   0  0  0  0  0  0  0  0  0  0  0  0
    9.0563  -14.9430   18.3515 C   0  0  0  0  0  0  0  0  0  0  0  0
   10.3380  -15.0469   18.3625 O   0  0  0  0  0  0  0  0  0  0  0  0
    8.4284  -14.5684   19.5459 N   0  0  0  0  0  0  0  0  0  0  0  0
    7.0215  -14.5543   19.8222 C   0  0  0  0  0  0  0  0  0  0  0  0
    6.8494  -13.4793   20.8856 C   0  0  0  0  0  0  0  0  0  0  0  0
    8.2382  -12.9880   21.2153 C   0  0  0  0  0  0  0  0  0  0  0  0
    9.1034  -14.1124   20.7379 C   0  0  1  0  0  0  0  0  0  0  0  0
    9.2270  -15.1288   21.7759 C   0  0  0  0  0  0  0  0  0  0  0  0
    8.4167  -16.0725   21.8483 O   0  0  0  0  0  0  0  0  0  0  0  0
   10.2766  -15.0529   22.7212 N   0  0  0  0  0  0  0  0  0  0  0  0
   10.9382  -16.2132   23.2843 C   0  0  1  0  0  0  0  0  0  0  0  0
   12.4292  -16.0230   23.4450 C   0  0  0  0  0  0  0  0  0  0  0  0
   13.2284  -16.8344   22.5294 C   0  0  0  0  0  0  0  0  0  0  0  0
   12.6650  -17.6324   21.7516 O   0  0  0  0  0  0  0  0  0  0  0  0
   10.3657  -16.5790   24.6022 C   0  0  0  0  0  0  0  0  0  0  0  0
    9.7206  -15.7141   25.2446 O   0  0  0  0  0  0  0  0  0  0  0  0
   14.6041  -16.7273   22.5173 O   0  0  0  0  0  0  0  0  0  0  0  0
   10.5051  -17.8303   25.1671 O   0  0  0  0  0  0  0  0  0  0  0  0
  2  1  1  6
  2  3  1  0
  3  4  1  0
  4  5  1  0
  6  5  1  0
  6  7  1  0
  8  2  1  0
  9  8  2  0
 10  8  1  0
 10 14  1  0
 11 12  1  0
 11 10  1  0
 12 13  1  0
 13 14  1  0
 14 15  1  1
 15 16  2  0
 17 15  1  0
 18 17  1  0
 18 22  1  0
 18 19  1  1
 20 19  1  0
 21 20  2  0
 22 23  2  0
 22 25  1  0
 24 20  1  0
M  END
$$$$
