MCY.pdb
     RDKit          3D

 27 27  0  0  1  0  0  0  0  0999 V2000
    8.2662  -11.7250   18.3879 C   0  0  0  0  0  0  0  0  0  0  0  0
    7.9870  -12.5897   19.9653 S   0  0  0  0  0  0  0  0  0  0  0  0
    6.9079  -14.0172   19.7125 C   0  0  0  0  0  0  0  0  0  0  0  0
    6.5563  -14.6785   21.0370 C   0  0  0  0  0  0  0  0  0  0  0  0
    7.7907  -15.2878   21.6779 C   0  0  2  0  0  0  0  0  0  0  0  0
    8.3685  -16.2965   20.8246 N   0  0  0  0  0  0  0  0  0  0  0  0
    7.3860  -15.8575   22.9979 C   0  0  0  0  0  0  0  0  0  0  0  0
    6.7397  -15.1069   23.7845 O   0  0  0  0  0  0  0  0  0  0  0  0
    7.7393  -17.1797   23.2938 N   0  0  0  0  0  0  0  0  0  0  0  0
    7.5861  -17.6973   24.6231 C   0  0  1  0  0  0  0  0  0  0  0  0
    7.7146  -19.2268   24.6394 C   0  0  0  0  0  0  0  0  0  0  0  0
    7.4366  -19.8903   26.2810 S   0  0  0  0  0  0  0  0  0  0  0  0
    8.6835  -17.2092   25.5267 C   0  0  0  0  0  0  0  0  0  0  0  0
    9.8738  -17.2983   25.1387 O   0  0  0  0  0  0  0  0  0  0  0  0
    6.4170  -11.2263   25.1219 O   0  0  0  0  0  0  0  0  0  0  0  0
    7.0839  -12.1257   25.9207 C   0  0  0  0  0  0  0  0  0  0  0  0
    6.3181  -13.0040   26.6639 C   0  0  0  0  0  0  0  0  0  0  0  0
    6.9491  -13.9213   27.4773 C   0  0  0  0  0  0  0  0  0  0  0  0
    8.3374  -13.9859   27.5694 C   0  0  0  0  0  0  0  0  0  0  0  0
    8.9573  -14.9648   28.4627 C   0  0  0  0  0  0  0  0  0  0  0  0
    9.4491  -16.1677   27.6957 C   0  0  2  0  0  0  0  0  0  0  0  0
    8.4115  -16.6558   26.7943 N   0  0  0  0  0  0  0  0  0  0  0  0
    9.8799  -17.2704   28.5677 C   0  0  0  0  0  0  0  0  0  0  0  0
   10.9489  -17.1727   29.4359 O   0  0  0  0  0  0  0  0  0  0  0  0
    9.1072  -13.1158   26.8334 C   0  0  0  0  0  0  0  0  0  0  0  0
    8.4523  -12.2061   26.0261 C   0  0  0  0  0  0  0  0  0  0  0  0
    9.2595  -18.3602   28.5338 O   0  0  0  0  0  0  0  0  0  0  0  0
  2  1  1  0
  3  2  1  0
  4  5  1  0
  4  3  1  0
  5  6  1  6
  7  8  2  0
  7  5  1  0
  9  7  1  0
 10  9  1  0
 10 11  1  6
 12 11  1  0
 13 14  2  0
 13 10  1  0
 16 15  1  0
 17 16  2  0
 18 17  1  0
 19 25  1  0
 19 18  2  0
 20 19  1  0
 21 22  1  0
 21 20  1  1
 22 13  1  0
 23 21  1  0
 24 23  1  0
 25 26  2  0
 26 16  1  0
 27 23  2  0
M  END
$$$$
