MCY.pdb
     RDKit          3D

 27 27  0  0  1  0  0  0  0  0999 V2000
    2.4162  -20.5389   20.8508 C   0  0  0  0  0  0  0  0  0  0  0  0
    3.0708  -18.9706   21.5035 S   0  0  0  0  0  0  0  0  0  0  0  0
    4.2548  -18.2558   20.3402 C   0  0  0  0  0  0  0  0  0  0  0  0
    4.8579  -16.9727   20.8927 C   0  0  0  0  0  0  0  0  0  0  0  0
    5.8350  -17.2775   22.0143 C   0  0  2  0  0  0  0  0  0  0  0  0
    5.1356  -17.6607   23.2158 N   0  0  0  0  0  0  0  0  0  0  0  0
    6.6709  -16.0597   22.2355 C   0  0  0  0  0  0  0  0  0  0  0  0
    7.4121  -15.6793   21.2837 O   0  0  0  0  0  0  0  0  0  0  0  0
    6.5919  -15.4082   23.4724 N   0  0  0  0  0  0  0  0  0  0  0  0
    7.4832  -14.3293   23.7886 C   0  0  1  0  0  0  0  0  0  0  0  0
    6.8198  -13.3249   24.7410 C   0  0  0  0  0  0  0  0  0  0  0  0
    6.1269  -14.1432   26.1773 S   0  0  0  0  0  0  0  0  0  0  0  0
    8.6928  -14.8229   24.5314 C   0  0  0  0  0  0  0  0  0  0  0  0
    8.6647  -14.8521   25.7859 O   0  0  0  0  0  0  0  0  0  0  0  0
   10.5349  -19.1648   29.9657 O   0  0  0  0  0  0  0  0  0  0  0  0
   10.3340  -18.7683   28.6641 C   0  0  0  0  0  0  0  0  0  0  0  0
   11.4145  -18.8388   27.8052 C   0  0  0  0  0  0  0  0  0  0  0  0
   11.2538  -18.4503   26.4920 C   0  0  0  0  0  0  0  0  0  0  0  0
   10.0316  -17.9890   26.0087 C   0  0  0  0  0  0  0  0  0  0  0  0
    9.9191  -17.5700   24.6115 C   0  0  0  0  0  0  0  0  0  0  0  0
   10.7200  -16.3176   24.3521 C   0  0  2  0  0  0  0  0  0  0  0  0
    9.8543  -15.2528   23.8582 N   0  0  0  0  0  0  0  0  0  0  0  0
   11.8165  -16.5230   23.3943 C   0  0  0  0  0  0  0  0  0  0  0  0
   13.1391  -16.6366   23.7739 O   0  0  0  0  0  0  0  0  0  0  0  0
    8.9512  -17.9156   26.8564 C   0  0  0  0  0  0  0  0  0  0  0  0
    9.1369  -18.3102   28.1671 C   0  0  0  0  0  0  0  0  0  0  0  0
   11.5574  -16.5994   22.1693 O   0  0  0  0  0  0  0  0  0  0  0  0
  2  1  1  0
  3  2  1  0
  4  5  1  0
  4  3  1  0
  5  6  1  1
  7  8  2  0
  7  5  1  0
  9  7  1  0
 10  9  1  0
 10 11  1  1
 12 11  1  0
 13 14  2  0
 13 10  1  0
 16 15  1  0
 17 16  2  0
 18 17  1  0
 19 25  1  0
 19 18  2  0
 20 19  1  0
 21 22  1  0
 21 20  1  6
 22 13  1  0
 23 21  1  0
 24 23  1  0
 25 26  2  0
 26 16  1  0
 27 23  2  0
M  END
$$$$
