MCY.pdb
     RDKit          3D

 27 27  0  0  1  0  0  0  0  0999 V2000
    8.3054  -11.9267   20.1314 C   0  0  0  0  0  0  0  0  0  0  0  0
    8.2982  -12.8926   18.5883 S   0  0  0  0  0  0  0  0  0  0  0  0
    7.3174  -14.3960   18.7971 C   0  0  0  0  0  0  0  0  0  0  0  0
    8.0078  -15.5925   18.1592 C   0  0  0  0  0  0  0  0  0  0  0  0
    9.3857  -15.8022   18.7619 C   0  0  2  0  0  0  0  0  0  0  0  0
   10.1142  -16.8159   18.0398 N   0  0  0  0  0  0  0  0  0  0  0  0
    9.2046  -16.1788   20.1958 C   0  0  0  0  0  0  0  0  0  0  0  0
    8.7098  -15.3095   20.9700 O   0  0  0  0  0  0  0  0  0  0  0  0
    9.5879  -17.4618   20.6053 N   0  0  0  0  0  0  0  0  0  0  0  0
    9.5063  -17.8434   21.9859 C   0  0  1  0  0  0  0  0  0  0  0  0
   10.1943  -19.1940   22.2281 C   0  0  0  0  0  0  0  0  0  0  0  0
   11.8720  -19.1970   21.5974 S   0  0  0  0  0  0  0  0  0  0  0  0
   10.2451  -16.8722   22.8633 C   0  0  0  0  0  0  0  0  0  0  0  0
   10.9321  -15.9699   22.3256 O   0  0  0  0  0  0  0  0  0  0  0  0
    6.0756  -11.2784   27.6108 O   0  0  0  0  0  0  0  0  0  0  0  0
    6.6765  -12.2474   26.8415 C   0  0  0  0  0  0  0  0  0  0  0  0
    5.9026  -13.3283   26.4639 C   0  0  0  0  0  0  0  0  0  0  0  0
    6.4682  -14.3212   25.6922 C   0  0  0  0  0  0  0  0  0  0  0  0
    7.7986  -14.2631   25.2835 C   0  0  0  0  0  0  0  0  0  0  0  0
    8.3562  -15.3527   24.4821 C   0  0  0  0  0  0  0  0  0  0  0  0
    9.6171  -15.8982   25.1066 C   0  0  2  0  0  0  0  0  0  0  0  0
   10.1867  -16.9481   24.2696 N   0  0  0  0  0  0  0  0  0  0  0  0
    9.4056  -16.4307   26.4607 C   0  0  0  0  0  0  0  0  0  0  0  0
    9.0901  -17.7511   26.7120 O   0  0  0  0  0  0  0  0  0  0  0  0
    8.5760  -13.1912   25.6548 C   0  0  0  0  0  0  0  0  0  0  0  0
    7.9870  -12.2094   26.4277 C   0  0  0  0  0  0  0  0  0  0  0  0
    9.5108  -15.6630   27.4472 O   0  0  0  0  0  0  0  0  0  0  0  0
  2  1  1  0
  3  2  1  0
  4  5  1  0
  4  3  1  0
  5  6  1  6
  7  8  2  0
  7  5  1  0
  9  7  1  0
 10  9  1  0
 10 11  1  6
 12 11  1  0
 13 14  2  0
 13 10  1  0
 16 15  1  0
 17 16  2  0
 18 17  1  0
 19 25  1  0
 19 18  2  0
 20 19  1  0
 21 22  1  0
 21 20  1  6
 22 13  1  0
 23 21  1  0
 24 23  1  0
 25 26  2  0
 26 16  1  0
 27 23  2  0
M  END
$$$$
