MCY.pdb
     RDKit          3D

 27 27  0  0  1  0  0  0  0  0999 V2000
    1.6746  -20.2924   21.8687 C   0  0  0  0  0  0  0  0  0  0  0  0
    2.4568  -18.6607   22.0691 S   0  0  0  0  0  0  0  0  0  0  0  0
    4.0288  -18.6083   21.1790 C   0  0  0  0  0  0  0  0  0  0  0  0
    4.7182  -17.2647   21.3654 C   0  0  0  0  0  0  0  0  0  0  0  0
    5.9641  -17.4139   22.2204 C   0  0  2  0  0  0  0  0  0  0  0  0
    5.6287  -17.8905   23.5395 N   0  0  0  0  0  0  0  0  0  0  0  0
    6.6409  -16.0837   22.2775 C   0  0  0  0  0  0  0  0  0  0  0  0
    6.9910  -15.5590   21.1812 O   0  0  0  0  0  0  0  0  0  0  0  0
    6.8511  -15.4920   23.5291 N   0  0  0  0  0  0  0  0  0  0  0  0
    7.6009  -14.2743   23.6453 C   0  0  1  0  0  0  0  0  0  0  0  0
    6.8857  -13.2694   24.5589 C   0  0  0  0  0  0  0  0  0  0  0  0
    6.4597  -14.0060   26.1364 S   0  0  0  0  0  0  0  0  0  0  0  0
    8.9302  -14.5149   24.3039 C   0  0  0  0  0  0  0  0  0  0  0  0
    9.2023  -13.9006   25.3640 O   0  0  0  0  0  0  0  0  0  0  0  0
   10.2266  -14.4105   30.6397 O   0  0  0  0  0  0  0  0  0  0  0  0
   10.1836  -14.9929   29.3944 C   0  0  0  0  0  0  0  0  0  0  0  0
   10.6717  -16.2807   29.2788 C   0  0  0  0  0  0  0  0  0  0  0  0
   10.6462  -16.8995   28.0468 C   0  0  0  0  0  0  0  0  0  0  0  0
   10.1415  -16.2610   26.9165 C   0  0  0  0  0  0  0  0  0  0  0  0
   10.1556  -16.9545   25.6283 C   0  0  0  0  0  0  0  0  0  0  0  0
   10.8521  -16.1302   24.5735 C   0  0  2  0  0  0  0  0  0  0  0  0
    9.8762  -15.4096   23.7638 N   0  0  0  0  0  0  0  0  0  0  0  0
   11.7071  -16.9329   23.6866 C   0  0  0  0  0  0  0  0  0  0  0  0
   11.4177  -17.1523   22.3546 O   0  0  0  0  0  0  0  0  0  0  0  0
    9.6538  -14.9795   27.0224 C   0  0  0  0  0  0  0  0  0  0  0  0
    9.6901  -14.3807   28.2667 C   0  0  0  0  0  0  0  0  0  0  0  0
   12.7528  -17.4527   24.1449 O   0  0  0  0  0  0  0  0  0  0  0  0
  2  1  1  0
  3  2  1  0
  4  5  1  0
  4  3  1  0
  5  6  1  1
  7  8  2  0
  7  5  1  0
  9  7  1  0
 10  9  1  0
 10 11  1  1
 12 11  1  0
 13 14  2  0
 13 10  1  0
 16 15  1  0
 17 16  2  0
 18 17  1  0
 19 25  1  0
 19 18  2  0
 20 19  1  0
 21 22  1  0
 21 20  1  1
 22 13  1  0
 23 21  1  0
 24 23  1  0
 25 26  2  0
 26 16  1  0
 27 23  2  0
M  END
$$$$
