MCY.pdb
     RDKit          3D

 27 27  0  0  1  0  0  0  0  0999 V2000
    6.4001  -12.7554   19.6956 C   0  0  0  0  0  0  0  0  0  0  0  0
    7.6897  -12.2321   18.5221 S   0  0  0  0  0  0  0  0  0  0  0  0
    8.3084  -13.6567   17.5980 C   0  0  0  0  0  0  0  0  0  0  0  0
    8.1638  -14.9377   18.4064 C   0  0  0  0  0  0  0  0  0  0  0  0
    9.5009  -15.3592   18.9896 C   0  0  2  0  0  0  0  0  0  0  0  0
   10.2287  -16.1884   18.0610 N   0  0  0  0  0  0  0  0  0  0  0  0
    9.2339  -16.0801   20.2701 C   0  0  0  0  0  0  0  0  0  0  0  0
    8.6695  -15.4323   21.1983 O   0  0  0  0  0  0  0  0  0  0  0  0
    9.6183  -17.4224   20.3762 N   0  0  0  0  0  0  0  0  0  0  0  0
    9.4071  -18.1491   21.5951 C   0  0  1  0  0  0  0  0  0  0  0  0
   10.0666  -19.5339   21.5347 C   0  0  0  0  0  0  0  0  0  0  0  0
   11.8360  -19.4064   21.2796 S   0  0  0  0  0  0  0  0  0  0  0  0
   10.0629  -17.4610   22.7592 C   0  0  0  0  0  0  0  0  0  0  0  0
   11.0918  -16.7716   22.5557 O   0  0  0  0  0  0  0  0  0  0  0  0
   11.2498  -14.2521   30.8735 O   0  0  0  0  0  0  0  0  0  0  0  0
   10.7262  -14.8047   29.7280 C   0  0  0  0  0  0  0  0  0  0  0  0
   10.5055  -13.9579   28.6583 C   0  0  0  0  0  0  0  0  0  0  0  0
    9.9816  -14.4735   27.4917 C   0  0  0  0  0  0  0  0  0  0  0  0
    9.6692  -15.8249   27.3633 C   0  0  0  0  0  0  0  0  0  0  0  0
    9.0966  -16.3180   26.1105 C   0  0  0  0  0  0  0  0  0  0  0  0
   10.1611  -16.9138   25.2222 C   0  0  2  0  0  0  0  0  0  0  0  0
    9.5540  -17.5691   24.0693 N   0  0  0  0  0  0  0  0  0  0  0  0
   11.0207  -17.8802   25.9217 C   0  0  0  0  0  0  0  0  0  0  0  0
   12.2112  -17.5313   26.5276 O   0  0  0  0  0  0  0  0  0  0  0  0
    9.8856  -16.6747   28.4227 C   0  0  0  0  0  0  0  0  0  0  0  0
   10.4111  -16.1347   29.5805 C   0  0  0  0  0  0  0  0  0  0  0  0
   10.6729  -19.0840   25.9794 O   0  0  0  0  0  0  0  0  0  0  0  0
  2  1  1  0
  3  2  1  0
  4  5  1  0
  4  3  1  0
  5  6  1  6
  7  8  2  0
  7  5  1  0
  9  7  1  0
 10  9  1  0
 10 11  1  6
 12 11  1  0
 13 14  2  0
 13 10  1  0
 16 15  1  0
 17 16  2  0
 18 17  1  0
 19 25  1  0
 19 18  2  0
 20 19  1  0
 21 22  1  0
 21 20  1  1
 22 13  1  0
 23 21  1  0
 24 23  1  0
 25 26  2  0
 26 16  1  0
 27 23  2  0
M  END
$$$$
