MCY.pdb
     RDKit          3D

 27 27  0  0  1  0  0  0  0  0999 V2000
    7.7255  -11.5570   19.9416 C   0  0  0  0  0  0  0  0  0  0  0  0
    7.4792  -12.8044   18.6387 S   0  0  0  0  0  0  0  0  0  0  0  0
    8.2160  -14.3785   19.1340 C   0  0  0  0  0  0  0  0  0  0  0  0
    8.2910  -14.4946   20.6493 C   0  0  0  0  0  0  0  0  0  0  0  0
    9.0396  -15.7517   21.0557 C   0  0  2  0  0  0  0  0  0  0  0  0
    8.8043  -16.8178   20.1135 N   0  0  0  0  0  0  0  0  0  0  0  0
    8.5880  -16.1285   22.4286 C   0  0  0  0  0  0  0  0  0  0  0  0
    8.1893  -15.1989   23.1880 O   0  0  0  0  0  0  0  0  0  0  0  0
    8.6289  -17.4778   22.8007 N   0  0  0  0  0  0  0  0  0  0  0  0
    8.1870  -17.8910   24.1016 C   0  0  1  0  0  0  0  0  0  0  0  0
    8.1465  -19.4215   24.2118 C   0  0  0  0  0  0  0  0  0  0  0  0
    6.9355  -20.1270   23.0945 S   0  0  0  0  0  0  0  0  0  0  0  0
    9.1516  -17.4538   25.1680 C   0  0  0  0  0  0  0  0  0  0  0  0
   10.3834  -17.5236   24.9379 O   0  0  0  0  0  0  0  0  0  0  0  0
    6.3461  -11.5197   25.3726 O   0  0  0  0  0  0  0  0  0  0  0  0
    7.0233  -12.4710   26.0993 C   0  0  0  0  0  0  0  0  0  0  0  0
    6.3304  -13.6145   26.4492 C   0  0  0  0  0  0  0  0  0  0  0  0
    6.9741  -14.5923   27.1778 C   0  0  0  0  0  0  0  0  0  0  0  0
    8.3038  -14.4576   27.5703 C   0  0  0  0  0  0  0  0  0  0  0  0
    8.9346  -15.5155   28.3598 C   0  0  0  0  0  0  0  0  0  0  0  0
    9.6156  -16.5266   27.4703 C   0  0  2  0  0  0  0  0  0  0  0  0
    8.7102  -16.9687   26.4159 N   0  0  0  0  0  0  0  0  0  0  0  0
   10.1031  -17.7037   28.2042 C   0  0  0  0  0  0  0  0  0  0  0  0
   11.1849  -17.6643   29.0613 O   0  0  0  0  0  0  0  0  0  0  0  0
    9.0008  -13.3230   27.2265 C   0  0  0  0  0  0  0  0  0  0  0  0
    8.3345  -12.3579   26.4966 C   0  0  0  0  0  0  0  0  0  0  0  0
    9.5222  -18.8055   28.0559 O   0  0  0  0  0  0  0  0  0  0  0  0
  2  1  1  0
  3  2  1  0
  4  5  1  0
  4  3  1  0
  5  6  1  6
  7  8  2  0
  7  5  1  0
  9  7  1  0
 10  9  1  0
 10 11  1  6
 12 11  1  0
 13 14  2  0
 13 10  1  0
 16 15  1  0
 17 16  2  0
 18 17  1  0
 19 25  1  0
 19 18  2  0
 20 19  1  0
 21 22  1  0
 21 20  1  1
 22 13  1  0
 23 21  1  0
 24 23  1  0
 25 26  2  0
 26 16  1  0
 27 23  2  0
M  END
$$$$
