AVA.pdb
     RDKit          3D

 18 17  0  0  1  0  0  0  0  0999 V2000
    7.6239  -18.5077   17.5708 C   0  0  0  0  0  0  0  0  0  0  0  0
    8.1780  -17.1617   17.2423 C   0  0  2  0  0  0  0  0  0  0  0  0
    9.1439  -17.3248   16.1725 N   0  0  0  0  0  0  0  0  0  0  0  0
    8.7819  -16.4348   18.3391 C   0  0  0  0  0  0  0  0  0  0  0  0
   10.0323  -16.4948   18.5224 O   0  0  0  0  0  0  0  0  0  0  0  0
    7.4806  -12.7617   19.8746 C   0  0  0  0  0  0  0  0  0  0  0  0
    7.5710  -13.8763   20.8771 C   0  0  2  0  0  0  0  0  0  0  0  0
    8.1654  -13.3073   22.1490 C   0  0  0  0  0  0  0  0  0  0  0  0
    8.5133  -14.9517   20.3754 C   0  0  2  0  0  0  0  0  0  0  0  0
    7.9917  -15.6448   19.2264 N   0  0  0  0  0  0  0  0  0  0  0  0
    8.7581  -15.9095   21.5128 C   0  0  0  0  0  0  0  0  0  0  0  0
    7.8098  -16.5575   22.0190 O   0  0  0  0  0  0  0  0  0  0  0  0
   11.4898  -17.9361   22.7092 C   0  0  0  0  0  0  0  0  0  0  0  0
   10.2985  -17.0920   23.0611 C   0  0  2  0  0  0  0  0  0  0  0  0
   10.0713  -16.0934   22.0304 N   0  0  0  0  0  0  0  0  0  0  0  0
   10.5332  -16.3916   24.3578 C   0  0  0  0  0  0  0  0  0  0  0  0
   10.5763  -15.0057   24.4130 O   0  0  0  0  0  0  0  0  0  0  0  0
   10.6957  -17.0302   25.4185 O   0  0  0  0  0  0  0  0  0  0  0  0
  2  1  1  1
  3  2  1  0
  4 10  1  0
  4  2  1  0
  5  4  2  0
  7  6  1  6
  7  9  1  0
  8  7  1  0
  9 11  1  0
  9 10  1  6
 11 15  1  0
 12 11  2  0
 14 16  1  0
 14 13  1  6
 15 14  1  0
 16 17  1  0
 18 16  2  0
M  END
$$$$
