AVA.pdb
     RDKit          3D

 18 17  0  0  1  0  0  0  0  0999 V2000
    7.1180  -18.5416   17.1404 C   0  0  0  0  0  0  0  0  0  0  0  0
    7.7821  -17.2397   16.8389 C   0  0  2  0  0  0  0  0  0  0  0  0
    8.7185  -17.4564   15.7526 N   0  0  0  0  0  0  0  0  0  0  0  0
    8.4583  -16.5965   17.9457 C   0  0  0  0  0  0  0  0  0  0  0  0
    9.6641  -16.8828   18.1999 O   0  0  0  0  0  0  0  0  0  0  0  0
    7.3400  -12.7555   19.2340 C   0  0  0  0  0  0  0  0  0  0  0  0
    7.5577  -13.7599   20.3291 C   0  0  2  0  0  0  0  0  0  0  0  0
    8.3172  -13.0711   21.4442 C   0  0  0  0  0  0  0  0  0  0  0  0
    8.4214  -14.8988   19.8259 C   0  0  2  0  0  0  0  0  0  0  0  0
    7.7896  -15.6380   18.7642 N   0  0  0  0  0  0  0  0  0  0  0  0
    8.7203  -15.7964   20.9990 C   0  0  0  0  0  0  0  0  0  0  0  0
    7.7951  -16.4002   21.5947 O   0  0  0  0  0  0  0  0  0  0  0  0
   10.7912  -18.1664   22.1704 C   0  0  0  0  0  0  0  0  0  0  0  0
   10.3178  -16.8099   22.6080 C   0  0  2  0  0  0  0  0  0  0  0  0
   10.0592  -15.9727   21.4490 N   0  0  0  0  0  0  0  0  0  0  0  0
   11.3608  -16.1505   23.4473 C   0  0  0  0  0  0  0  0  0  0  0  0
   11.5732  -16.5571   24.7569 O   0  0  0  0  0  0  0  0  0  0  0  0
   12.0640  -15.2227   22.9956 O   0  0  0  0  0  0  0  0  0  0  0  0
  2  1  1  1
  3  2  1  0
  4 10  1  0
  4  2  1  0
  5  4  2  0
  7  6  1  6
  7  9  1  0
  8  7  1  0
  9 11  1  0
  9 10  1  6
 11 15  1  0
 12 11  2  0
 14 16  1  0
 14 13  1  6
 15 14  1  0
 16 17  1  0
 18 16  2  0
M  END
$$$$
