AVA.pdb
     RDKit          3D

 18 17  0  0  1  0  0  0  0  0999 V2000
    6.2960  -16.0847   21.3440 C   0  0  0  0  0  0  0  0  0  0  0  0
    6.7989  -14.6900   21.5130 C   0  0  2  0  0  0  0  0  0  0  0  0
    7.5846  -14.3528   20.3413 N   0  0  0  0  0  0  0  0  0  0  0  0
    7.5709  -14.4303   22.7100 C   0  0  0  0  0  0  0  0  0  0  0  0
    8.8302  -14.5494   22.6861 O   0  0  0  0  0  0  0  0  0  0  0  0
    6.3200  -11.7078   25.5250 C   0  0  0  0  0  0  0  0  0  0  0  0
    6.7935  -12.9917   26.1437 C   0  0  2  0  0  0  0  0  0  0  0  0
    7.6779  -12.6389   27.3219 C   0  0  0  0  0  0  0  0  0  0  0  0
    7.6411  -13.7645   25.1534 C   0  0  2  0  0  0  0  0  0  0  0  0
    6.9380  -14.0394   23.9275 N   0  0  0  0  0  0  0  0  0  0  0  0
    8.0705  -15.0446   25.8229 C   0  0  0  0  0  0  0  0  0  0  0  0
    7.2191  -15.8866   26.1993 O   0  0  0  0  0  0  0  0  0  0  0  0
   11.1400  -17.0529   25.9771 C   0  0  0  0  0  0  0  0  0  0  0  0
    9.8461  -16.6015   26.5917 C   0  0  2  0  0  0  0  0  0  0  0  0
    9.4508  -15.3176   26.0384 N   0  0  0  0  0  0  0  0  0  0  0  0
   10.0055  -16.4538   28.0682 C   0  0  0  0  0  0  0  0  0  0  0  0
   10.1210  -17.5729   28.8805 O   0  0  0  0  0  0  0  0  0  0  0  0
   10.0389  -15.3275   28.6063 O   0  0  0  0  0  0  0  0  0  0  0  0
  2  1  1  6
  3  2  1  0
  4 10  1  0
  4  2  1  0
  5  4  2  0
  7  6  1  6
  7  9  1  0
  8  7  1  0
  9 11  1  0
  9 10  1  6
 11 15  1  0
 12 11  2  0
 14 16  1  0
 14 13  1  6
 15 14  1  0
 16 17  1  0
 18 16  2  0
M  END
$$$$
