AVA.pdb
     RDKit          3D

 18 17  0  0  1  0  0  0  0  0999 V2000
    6.9641  -18.8800   18.5189 C   0  0  0  0  0  0  0  0  0  0  0  0
    7.4422  -17.6037   17.9112 C   0  0  2  0  0  0  0  0  0  0  0  0
    8.2637  -17.9354   16.7628 N   0  0  0  0  0  0  0  0  0  0  0  0
    8.1684  -16.7110   18.7897 C   0  0  0  0  0  0  0  0  0  0  0  0
    9.4217  -16.8304   18.9139 O   0  0  0  0  0  0  0  0  0  0  0  0
    7.2053  -12.7326   19.5886 C   0  0  0  0  0  0  0  0  0  0  0  0
    7.3121  -13.6035   20.8075 C   0  0  2  0  0  0  0  0  0  0  0  0
    8.0529  -12.8206   21.8719 C   0  0  0  0  0  0  0  0  0  0  0  0
    8.1344  -14.8372   20.4946 C   0  0  2  0  0  0  0  0  0  0  0  0
    7.4964  -15.6898   19.5257 N   0  0  0  0  0  0  0  0  0  0  0  0
    8.3608  -15.5741   21.7895 C   0  0  0  0  0  0  0  0  0  0  0  0
    7.4036  -16.1190   22.3914 O   0  0  0  0  0  0  0  0  0  0  0  0
    9.6985  -17.9414   23.1717 C   0  0  0  0  0  0  0  0  0  0  0  0
    9.8847  -16.4929   23.5221 C   0  0  2  0  0  0  0  0  0  0  0  0
    9.6664  -15.6629   22.3497 N   0  0  0  0  0  0  0  0  0  0  0  0
   11.2735  -16.2609   24.0165 C   0  0  0  0  0  0  0  0  0  0  0  0
   12.1415  -15.4331   23.3187 O   0  0  0  0  0  0  0  0  0  0  0  0
   11.6869  -16.8019   25.0633 O   0  0  0  0  0  0  0  0  0  0  0  0
  2  1  1  1
  3  2  1  0
  4 10  1  0
  4  2  1  0
  5  4  2  0
  7  6  1  6
  7  9  1  0
  8  7  1  0
  9 11  1  0
  9 10  1  6
 11 15  1  0
 12 11  2  0
 14 16  1  0
 14 13  1  6
 15 14  1  0
 16 17  1  0
 18 16  2  0
M  END
$$$$
