AVA.pdb
     RDKit          3D

 18 17  0  0  1  0  0  0  0  0999 V2000
    6.3415  -15.3575   20.9322 C   0  0  0  0  0  0  0  0  0  0  0  0
    6.9454  -14.0471   21.3127 C   0  0  2  0  0  0  0  0  0  0  0  0
    7.8269  -13.6321   20.2380 N   0  0  0  0  0  0  0  0  0  0  0  0
    7.6607  -14.0151   22.5710 C   0  0  0  0  0  0  0  0  0  0  0  0
    8.9084  -14.2230   22.5923 O   0  0  0  0  0  0  0  0  0  0  0  0
    6.3736  -11.6664   25.7752 C   0  0  0  0  0  0  0  0  0  0  0  0
    6.7411  -13.0743   26.1471 C   0  0  2  0  0  0  0  0  0  0  0  0
    7.5398  -13.0196   27.4331 C   0  0  0  0  0  0  0  0  0  0  0  0
    7.6343  -13.6772   25.0817 C   0  0  2  0  0  0  0  0  0  0  0  0
    6.9842  -13.7518   23.7994 N   0  0  0  0  0  0  0  0  0  0  0  0
    8.0454  -15.0480   25.5542 C   0  0  0  0  0  0  0  0  0  0  0  0
    7.1872  -15.9452   25.7384 O   0  0  0  0  0  0  0  0  0  0  0  0
   11.0700  -17.0941   25.5276 C   0  0  0  0  0  0  0  0  0  0  0  0
    9.7928  -16.6882   26.2055 C   0  0  2  0  0  0  0  0  0  0  0  0
    9.4158  -15.3452   25.7988 N   0  0  0  0  0  0  0  0  0  0  0  0
    9.9732  -16.7029   27.6869 C   0  0  0  0  0  0  0  0  0  0  0  0
   10.1736  -17.8990   28.3611 O   0  0  0  0  0  0  0  0  0  0  0  0
    9.9486  -15.6467   28.3526 O   0  0  0  0  0  0  0  0  0  0  0  0
  2  1  1  6
  3  2  1  0
  4 10  1  0
  4  2  1  0
  5  4  2  0
  7  6  1  6
  7  9  1  0
  8  7  1  0
  9 11  1  0
  9 10  1  6
 11 15  1  0
 12 11  2  0
 14 16  1  0
 14 13  1  6
 15 14  1  0
 16 17  1  0
 18 16  2  0
M  END
$$$$
