AVA.pdb
     RDKit          3D

 18 17  0  0  1  0  0  0  0  0999 V2000
    6.2416  -15.3380   20.9615 C   0  0  0  0  0  0  0  0  0  0  0  0
    7.0084  -14.0851   21.2242 C   0  0  2  0  0  0  0  0  0  0  0  0
    7.8905  -13.8558   20.0958 N   0  0  0  0  0  0  0  0  0  0  0  0
    7.7702  -14.0490   22.4549 C   0  0  0  0  0  0  0  0  0  0  0  0
    8.9583  -14.4832   22.4738 O   0  0  0  0  0  0  0  0  0  0  0  0
    7.9805  -12.4805   27.1891 C   0  0  0  0  0  0  0  0  0  0  0  0
    7.1843  -12.5713   25.9190 C   0  0  2  0  0  0  0  0  0  0  0  0
    5.8752  -13.2617   26.2421 C   0  0  0  0  0  0  0  0  0  0  0  0
    7.9150  -13.4312   24.9076 C   0  0  2  0  0  0  0  0  0  0  0  0
    7.2062  -13.5298   23.6584 N   0  0  0  0  0  0  0  0  0  0  0  0
    8.1078  -14.7934   25.5227 C   0  0  0  0  0  0  0  0  0  0  0  0
    7.1343  -15.5714   25.6725 O   0  0  0  0  0  0  0  0  0  0  0  0
   10.6613  -17.2722   25.7040 C   0  0  0  0  0  0  0  0  0  0  0  0
    9.5745  -16.5643   26.4613 C   0  0  2  0  0  0  0  0  0  0  0  0
    9.3997  -15.2180   25.9436 N   0  0  0  0  0  0  0  0  0  0  0  0
    9.9339  -16.4743   27.9070 C   0  0  0  0  0  0  0  0  0  0  0  0
   10.0026  -17.6185   28.6891 O   0  0  0  0  0  0  0  0  0  0  0  0
   10.1802  -15.3751   28.4457 O   0  0  0  0  0  0  0  0  0  0  0  0
  2  1  1  6
  3  2  1  0
  4 10  1  0
  4  2  1  0
  5  4  2  0
  7  6  1  1
  7  9  1  0
  8  7  1  0
  9 11  1  0
  9 10  1  6
 11 15  1  0
 12 11  2  0
 14 16  1  0
 14 13  1  6
 15 14  1  0
 16 17  1  0
 18 16  2  0
M  END
$$$$
