AVA.pdb
     RDKit          3D

 18 17  0  0  1  0  0  0  0  0999 V2000
    7.0288  -17.2055   22.3006 C   0  0  0  0  0  0  0  0  0  0  0  0
    7.2613  -15.7417   22.1276 C   0  0  2  0  0  0  0  0  0  0  0  0
    7.9729  -15.5464   20.8788 N   0  0  0  0  0  0  0  0  0  0  0  0
    7.9681  -15.0762   23.2017 C   0  0  0  0  0  0  0  0  0  0  0  0
    9.2255  -14.9493   23.1453 O   0  0  0  0  0  0  0  0  0  0  0  0
    6.4087  -12.0076   25.4775 C   0  0  0  0  0  0  0  0  0  0  0  0
    6.9642  -13.1288   26.3081 C   0  0  2  0  0  0  0  0  0  0  0  0
    7.7649  -12.5147   27.4379 C   0  0  0  0  0  0  0  0  0  0  0  0
    7.9157  -13.9678   25.4793 C   0  0  2  0  0  0  0  0  0  0  0  0
    7.2722  -14.5552   24.3332 N   0  0  0  0  0  0  0  0  0  0  0  0
    8.4843  -15.0345   26.3793 C   0  0  0  0  0  0  0  0  0  0  0  0
    7.7410  -15.9155   26.8761 O   0  0  0  0  0  0  0  0  0  0  0  0
   11.8096  -16.4919   26.9495 C   0  0  0  0  0  0  0  0  0  0  0  0
   10.4239  -16.1728   27.4331 C   0  0  2  0  0  0  0  0  0  0  0  0
    9.8756  -15.0582   26.6793 N   0  0  0  0  0  0  0  0  0  0  0  0
   10.4600  -15.7978   28.8771 C   0  0  0  0  0  0  0  0  0  0  0  0
   10.1628  -14.5027   29.2771 O   0  0  0  0  0  0  0  0  0  0  0  0
   10.7564  -16.6339   29.7559 O   0  0  0  0  0  0  0  0  0  0  0  0
  2  1  1  1
  3  2  1  0
  4 10  1  0
  4  2  1  0
  5  4  2  0
  7  6  1  6
  7  9  1  0
  8  7  1  0
  9 11  1  0
  9 10  1  6
 11 15  1  0
 12 11  2  0
 14 16  1  0
 14 13  1  6
 15 14  1  0
 16 17  1  0
 18 16  2  0
M  END
$$$$
