AVA.pdb
     RDKit          3D

 18 17  0  0  1  0  0  0  0  0999 V2000
    6.9973  -16.9496   21.9160 C   0  0  0  0  0  0  0  0  0  0  0  0
    7.3755  -15.5064   21.8857 C   0  0  2  0  0  0  0  0  0  0  0  0
    8.1898  -15.2823   20.7064 N   0  0  0  0  0  0  0  0  0  0  0  0
    8.0617  -15.0015   23.0563 C   0  0  0  0  0  0  0  0  0  0  0  0
    9.3263  -14.9915   23.0903 O   0  0  0  0  0  0  0  0  0  0  0  0
    6.4578  -12.0087   25.3683 C   0  0  0  0  0  0  0  0  0  0  0  0
    6.9914  -13.1440   26.1941 C   0  0  2  0  0  0  0  0  0  0  0  0
    7.7757  -12.5496   27.3457 C   0  0  0  0  0  0  0  0  0  0  0  0
    7.9522  -13.9785   25.3715 C   0  0  2  0  0  0  0  0  0  0  0  0
    7.3374  -14.5101   24.1832 N   0  0  0  0  0  0  0  0  0  0  0  0
    8.4611  -15.0893   26.2537 C   0  0  0  0  0  0  0  0  0  0  0  0
    7.6752  -15.9552   26.7097 O   0  0  0  0  0  0  0  0  0  0  0  0
   11.7008  -16.6936   26.9063 C   0  0  0  0  0  0  0  0  0  0  0  0
   10.3246  -16.3008   27.3618 C   0  0  2  0  0  0  0  0  0  0  0  0
    9.8434  -15.1723   26.5832 N   0  0  0  0  0  0  0  0  0  0  0  0
   10.3554  -15.9065   28.8008 C   0  0  0  0  0  0  0  0  0  0  0  0
   10.6013  -16.8523   29.7860 O   0  0  0  0  0  0  0  0  0  0  0  0
   10.1622  -14.7240   29.1524 O   0  0  0  0  0  0  0  0  0  0  0  0
  2  1  1  1
  3  2  1  0
  4 10  1  0
  4  2  1  0
  5  4  2  0
  7  6  1  6
  7  9  1  0
  8  7  1  0
  9 11  1  0
  9 10  1  6
 11 15  1  0
 12 11  2  0
 14 16  1  0
 14 13  1  6
 15 14  1  0
 16 17  1  0
 18 16  2  0
M  END
$$$$
