AVA.pdb
     RDKit          3D

 18 17  0  0  1  0  0  0  0  0999 V2000
    6.3141  -16.2808   21.3412 C   0  0  0  0  0  0  0  0  0  0  0  0
    6.8112  -14.8825   21.4970 C   0  0  2  0  0  0  0  0  0  0  0  0
    7.5587  -14.5379   20.3027 N   0  0  0  0  0  0  0  0  0  0  0  0
    7.6168  -14.6183   22.6706 C   0  0  0  0  0  0  0  0  0  0  0  0
    8.8782  -14.6793   22.5960 O   0  0  0  0  0  0  0  0  0  0  0  0
    6.4065  -11.9906   25.5507 C   0  0  0  0  0  0  0  0  0  0  0  0
    6.9295  -13.2637   26.1516 C   0  0  2  0  0  0  0  0  0  0  0  0
    7.8533  -12.8912   27.2930 C   0  0  0  0  0  0  0  0  0  0  0  0
    7.7518  -14.0218   25.1292 C   0  0  2  0  0  0  0  0  0  0  0  0
    7.0149  -14.2874   23.9213 N   0  0  0  0  0  0  0  0  0  0  0  0
    8.2064  -15.3067   25.7724 C   0  0  0  0  0  0  0  0  0  0  0  0
    7.3712  -16.1681   26.1411 O   0  0  0  0  0  0  0  0  0  0  0  0
   11.3700  -17.2078   25.9432 C   0  0  0  0  0  0  0  0  0  0  0  0
   10.0133  -16.8555   26.4825 C   0  0  2  0  0  0  0  0  0  0  0  0
    9.5925  -15.5621   25.9715 N   0  0  0  0  0  0  0  0  0  0  0  0
   10.0577  -16.7860   27.9726 C   0  0  0  0  0  0  0  0  0  0  0  0
   10.2632  -17.9329   28.7263 O   0  0  0  0  0  0  0  0  0  0  0  0
    9.9120  -15.7019   28.5748 O   0  0  0  0  0  0  0  0  0  0  0  0
  2  1  1  6
  3  2  1  0
  4 10  1  0
  4  2  1  0
  5  4  2  0
  7  6  1  6
  7  9  1  0
  8  7  1  0
  9 11  1  0
  9 10  1  6
 11 15  1  0
 12 11  2  0
 14 16  1  0
 14 13  1  6
 15 14  1  0
 16 17  1  0
 18 16  2  0
M  END
$$$$
