AVA.pdb
     RDKit          3D

 18 17  0  0  1  0  0  0  0  0999 V2000
    7.3560  -18.7398   17.7367 C   0  0  0  0  0  0  0  0  0  0  0  0
    7.9222  -17.4406   17.2699 C   0  0  2  0  0  0  0  0  0  0  0  0
    8.8548  -17.7198   16.1946 N   0  0  0  0  0  0  0  0  0  0  0  0
    8.5685  -16.6268   18.2780 C   0  0  0  0  0  0  0  0  0  0  0  0
    9.8069  -16.7619   18.4984 O   0  0  0  0  0  0  0  0  0  0  0  0
    7.3871  -12.7395   19.2881 C   0  0  0  0  0  0  0  0  0  0  0  0
    7.5084  -13.6849   20.4487 C   0  0  2  0  0  0  0  0  0  0  0  0
    8.1805  -12.9401   21.5838 C   0  0  0  0  0  0  0  0  0  0  0  0
    8.4014  -14.8516   20.0778 C   0  0  2  0  0  0  0  0  0  0  0  0
    7.8337  -15.6667   19.0357 N   0  0  0  0  0  0  0  0  0  0  0  0
    8.6325  -15.6633   21.3264 C   0  0  0  0  0  0  0  0  0  0  0  0
    7.7101  -16.3589   21.8171 O   0  0  0  0  0  0  0  0  0  0  0  0
   10.1590  -17.9670   22.6362 C   0  0  0  0  0  0  0  0  0  0  0  0
   10.1397  -16.5374   23.0962 C   0  0  2  0  0  0  0  0  0  0  0  0
    9.9029  -15.6525   21.9684 N   0  0  0  0  0  0  0  0  0  0  0  0
   11.4513  -16.1810   23.7126 C   0  0  0  0  0  0  0  0  0  0  0  0
   11.8226  -16.7145   24.9386 O   0  0  0  0  0  0  0  0  0  0  0  0
   12.2423  -15.3991   23.1449 O   0  0  0  0  0  0  0  0  0  0  0  0
  2  1  1  1
  3  2  1  0
  4 10  1  0
  4  2  1  0
  5  4  2  0
  7  6  1  6
  7  9  1  0
  8  7  1  0
  9 11  1  0
  9 10  1  6
 11 15  1  0
 12 11  2  0
 14 16  1  0
 14 13  1  6
 15 14  1  0
 16 17  1  0
 18 16  2  0
M  END
$$$$
