MPC.pdb
     RDKit          3D

 22 22  0  0  1  0  0  0  0  0999 V2000
    6.8943  -11.1205   26.1590 C   0  0  0  0  0  0  0  0  0  0  0  0
    6.1943  -12.2500   27.3685 S   0  0  0  0  0  0  0  0  0  0  0  0
    5.8513  -13.8274   26.5646 C   0  0  0  0  0  0  0  0  0  0  0  0
    7.0708  -14.3571   25.8246 C   0  0  0  0  0  0  0  0  0  0  0  0
    6.6453  -15.6545   25.1095 C   0  0  2  0  0  0  0  0  0  0  0  0
    6.2814  -16.6372   26.0811 N   0  0  0  0  0  0  0  0  0  0  0  0
    7.6108  -16.0507   24.0977 C   0  0  0  0  0  0  0  0  0  0  0  0
    8.4648  -16.9538   24.4181 O   0  0  0  0  0  0  0  0  0  0  0  0
    7.7259  -15.5453   22.7603 N   0  0  0  0  0  0  0  0  0  0  0  0
    6.7920  -14.7398   22.0259 C   0  0  0  0  0  0  0  0  0  0  0  0
    7.7169  -13.8121   21.2224 C   0  0  0  0  0  0  0  0  0  0  0  0
    8.6340  -14.9064   20.6427 C   0  0  0  0  0  0  0  0  0  0  0  0
    8.8606  -15.7890   21.8655 C   0  0  1  0  0  0  0  0  0  0  0  0
   10.1525  -15.4687   22.4632 C   0  0  0  0  0  0  0  0  0  0  0  0
   10.2683  -14.5852   23.3313 O   0  0  0  0  0  0  0  0  0  0  0  0
   11.2994  -16.1811   22.0440 N   0  0  0  0  0  0  0  0  0  0  0  0
   12.4831  -16.2984   22.8540 C   0  0  1  0  0  0  0  0  0  0  0  0
   12.0919  -16.9638   24.1782 C   0  0  0  0  0  0  0  0  0  0  0  0
   13.6172  -17.2828   25.1036 S   0  0  0  0  0  0  0  0  0  0  0  0
   13.4856  -17.1015   22.1366 C   0  0  0  0  0  0  0  0  0  0  0  0
   14.6855  -16.7468   22.1050 O   0  0  0  0  0  0  0  0  0  0  0  0
   13.0865  -18.2592   21.4937 O   0  0  0  0  0  0  0  0  0  0  0  0
  1  2  1  0
  2  3  1  0
  3  4  1  0
  5  7  1  0
  5  4  1  0
  5  6  1  1
  7  8  2  0
  9 13  1  0
  9  7  1  0
 10  9  1  0
 11 10  1  0
 11 12  1  0
 12 13  1  0
 13 14  1  1
 14 16  1  0
 14 15  2  0
 16 17  1  0
 17 20  1  0
 17 18  1  1
 19 18  1  0
 20 21  2  0
 20 22  1  0
M  END
$$$$
