MPC.pdb
     RDKit          3D

 22 22  0  0  1  0  0  0  0  0999 V2000
    7.0437  -10.8173   26.3148 C   0  0  0  0  0  0  0  0  0  0  0  0
    6.6723  -12.1172   27.4984 S   0  0  0  0  0  0  0  0  0  0  0  0
    6.0951  -13.5733   26.6047 C   0  0  0  0  0  0  0  0  0  0  0  0
    7.2331  -14.2714   25.8745 C   0  0  0  0  0  0  0  0  0  0  0  0
    6.6259  -15.4692   25.1181 C   0  0  2  0  0  0  0  0  0  0  0  0
    6.1338  -16.4268   26.0578 N   0  0  0  0  0  0  0  0  0  0  0  0
    7.5204  -15.9586   24.0821 C   0  0  0  0  0  0  0  0  0  0  0  0
    8.2738  -16.9556   24.3751 O   0  0  0  0  0  0  0  0  0  0  0  0
    7.6648  -15.4527   22.7477 N   0  0  0  0  0  0  0  0  0  0  0  0
    6.8088  -14.5443   22.0388 C   0  0  0  0  0  0  0  0  0  0  0  0
    7.8125  -13.7105   21.2270 C   0  0  0  0  0  0  0  0  0  0  0  0
    8.5980  -14.8890   20.6197 C   0  0  0  0  0  0  0  0  0  0  0  0
    8.7513  -15.8048   21.8294 C   0  0  1  0  0  0  0  0  0  0  0  0
   10.0802  -15.6300   22.4058 C   0  0  0  0  0  0  0  0  0  0  0  0
   10.5236  -14.5036   22.6925 O   0  0  0  0  0  0  0  0  0  0  0  0
   10.8818  -16.7700   22.6433 N   0  0  0  0  0  0  0  0  0  0  0  0
   12.2313  -16.6847   23.1358 C   0  0  1  0  0  0  0  0  0  0  0  0
   12.1938  -16.8346   24.6608 C   0  0  0  0  0  0  0  0  0  0  0  0
   11.1249  -18.2462   25.0473 S   0  0  0  0  0  0  0  0  0  0  0  0
   13.0412  -17.7484   22.5215 C   0  0  0  0  0  0  0  0  0  0  0  0
   12.5108  -18.6143   21.7899 O   0  0  0  0  0  0  0  0  0  0  0  0
   14.4029  -17.7820   22.7622 O   0  0  0  0  0  0  0  0  0  0  0  0
  1  2  1  0
  2  3  1  0
  3  4  1  0
  5  7  1  0
  5  4  1  0
  5  6  1  1
  7  8  2  0
  9 13  1  0
  9  7  1  0
 10  9  1  0
 11 10  1  0
 11 12  1  0
 12 13  1  0
 13 14  1  1
 14 16  1  0
 14 15  2  0
 16 17  1  0
 17 20  1  0
 17 18  1  1
 19 18  1  0
 20 21  2  0
 20 22  1  0
M  END
$$$$
