MPC.pdb
     RDKit          3D

 22 22  0  0  1  0  0  0  0  0999 V2000
    5.2797  -11.1679   27.3047 C   0  0  0  0  0  0  0  0  0  0  0  0
    6.6579  -12.3173   27.3972 S   0  0  0  0  0  0  0  0  0  0  0  0
    6.1943  -13.8525   26.5723 C   0  0  0  0  0  0  0  0  0  0  0  0
    7.3556  -14.4380   25.7823 C   0  0  0  0  0  0  0  0  0  0  0  0
    6.8406  -15.7141   25.0882 C   0  0  2  0  0  0  0  0  0  0  0  0
    6.4831  -16.6831   26.0758 N   0  0  0  0  0  0  0  0  0  0  0  0
    7.7376  -16.1483   24.0300 C   0  0  0  0  0  0  0  0  0  0  0  0
    8.5847  -17.0696   24.3151 O   0  0  0  0  0  0  0  0  0  0  0  0
    7.7907  -15.6630   22.6813 N   0  0  0  0  0  0  0  0  0  0  0  0
    6.8284  -14.8595   21.9821 C   0  0  0  0  0  0  0  0  0  0  0  0
    7.7202  -13.9516   21.1206 C   0  0  0  0  0  0  0  0  0  0  0  0
    8.5985  -15.0622   20.5125 C   0  0  0  0  0  0  0  0  0  0  0  0
    8.8779  -15.9295   21.7354 C   0  0  1  0  0  0  0  0  0  0  0  0
   10.2003  -15.6123   22.2641 C   0  0  0  0  0  0  0  0  0  0  0  0
   10.3618  -14.7406   23.1367 O   0  0  0  0  0  0  0  0  0  0  0  0
   11.3241  -16.3142   21.7710 N   0  0  0  0  0  0  0  0  0  0  0  0
   12.5340  -16.4809   22.5320 C   0  0  1  0  0  0  0  0  0  0  0  0
   12.1956  -17.2720   23.8004 C   0  0  0  0  0  0  0  0  0  0  0  0
   13.7520  -17.6216   24.6607 S   0  0  0  0  0  0  0  0  0  0  0  0
   13.5279  -17.1948   21.7151 C   0  0  0  0  0  0  0  0  0  0  0  0
   14.7032  -16.7741   21.6255 O   0  0  0  0  0  0  0  0  0  0  0  0
   13.1480  -18.3425   21.0430 O   0  0  0  0  0  0  0  0  0  0  0  0
  1  2  1  0
  2  3  1  0
  3  4  1  0
  5  7  1  0
  5  4  1  0
  5  6  1  1
  7  8  2  0
  9 13  1  0
  9  7  1  0
 10  9  1  0
 11 10  1  0
 11 12  1  0
 12 13  1  0
 13 14  1  1
 14 16  1  0
 14 15  2  0
 16 17  1  0
 17 20  1  0
 17 18  1  1
 19 18  1  0
 20 21  2  0
 20 22  1  0
M  END
$$$$
