MPC.pdb
     RDKit          3D

 22 22  0  0  1  0  0  0  0  0999 V2000
    5.7828  -11.8029   26.9205 C   0  0  0  0  0  0  0  0  0  0  0  0
    7.4227  -12.5331   26.9999 S   0  0  0  0  0  0  0  0  0  0  0  0
    7.3073  -14.2776   26.5582 C   0  0  0  0  0  0  0  0  0  0  0  0
    6.3069  -14.5072   25.4347 C   0  0  0  0  0  0  0  0  0  0  0  0
    6.3631  -16.0036   25.0695 C   0  0  2  0  0  0  0  0  0  0  0  0
    6.3197  -16.7878   26.2634 N   0  0  0  0  0  0  0  0  0  0  0  0
    7.4362  -16.2866   24.1310 C   0  0  0  0  0  0  0  0  0  0  0  0
    8.3000  -17.1729   24.4715 O   0  0  0  0  0  0  0  0  0  0  0  0
    7.6498  -15.6844   22.8468 N   0  0  0  0  0  0  0  0  0  0  0  0
    6.7964  -14.7787   22.1314 C   0  0  0  0  0  0  0  0  0  0  0  0
    7.8063  -13.8377   21.4558 C   0  0  0  0  0  0  0  0  0  0  0  0
    8.7047  -14.9273   20.8391 C   0  0  0  0  0  0  0  0  0  0  0  0
    8.8215  -15.9131   21.9968 C   0  0  1  0  0  0  0  0  0  0  0  0
   10.0904  -15.7047   22.6862 C   0  0  0  0  0  0  0  0  0  0  0  0
   10.3253  -14.6592   23.3179 O   0  0  0  0  0  0  0  0  0  0  0  0
   11.0756  -16.7172   22.6334 N   0  0  0  0  0  0  0  0  0  0  0  0
   12.3367  -16.6137   23.3189 C   0  0  1  0  0  0  0  0  0  0  0  0
   12.4590  -17.8039   24.2769 C   0  0  0  0  0  0  0  0  0  0  0  0
   11.1403  -17.6527   25.5109 S   0  0  0  0  0  0  0  0  0  0  0  0
   13.4282  -16.6171   22.3322 C   0  0  0  0  0  0  0  0  0  0  0  0
   13.1959  -16.8378   21.1224 O   0  0  0  0  0  0  0  0  0  0  0  0
   14.7214  -16.3725   22.7577 O   0  0  0  0  0  0  0  0  0  0  0  0
  1  2  1  0
  2  3  1  0
  3  4  1  0
  5  7  1  0
  5  4  1  0
  5  6  1  1
  7  8  2  0
  9 13  1  0
  9  7  1  0
 10  9  1  0
 11 10  1  0
 11 12  1  0
 12 13  1  0
 13 14  1  1
 14 16  1  0
 14 15  2  0
 16 17  1  0
 17 20  1  0
 17 18  1  1
 19 18  1  0
 20 21  2  0
 20 22  1  0
M  END
$$$$
