NAS.pdb
     RDKit          3D

 20 19  0  0  1  0  0  0  0  0999 V2000
    6.6209  -18.0679   15.2193 N   0  0  0  0  0  0  0  0  0  0  0  0
    7.7825  -17.5192   14.6420 C   0  0  0  0  0  0  0  0  0  0  0  0
    8.0414  -17.7014   13.4376 O   0  0  0  0  0  0  0  0  0  0  0  0
    8.6812  -16.7238   15.5056 C   0  0  0  0  0  0  0  0  0  0  0  0
    8.0950  -15.3305   15.7696 C   0  0  2  0  0  0  0  0  0  0  0  0
    8.4790  -14.4137   14.7188 N   0  0  0  0  0  0  0  0  0  0  0  0
    8.7093  -14.8660   17.0344 C   0  0  0  0  0  0  0  0  0  0  0  0
    9.9476  -14.9852   17.1816 O   0  0  0  0  0  0  0  0  0  0  0  0
    7.7392  -13.0168   20.0934 C   0  0  0  0  0  0  0  0  0  0  0  0
    8.6649  -13.8871   19.2785 C   0  0  2  0  0  0  0  0  0  0  0  0
    7.9552  -14.2913   18.0878 N   0  0  0  0  0  0  0  0  0  0  0  0
    9.1904  -15.0284   20.0426 C   0  0  0  0  0  0  0  0  0  0  0  0
    8.6330  -16.1425   19.9221 O   0  0  0  0  0  0  0  0  0  0  0  0
   12.9838  -15.4128   20.9483 O   0  0  0  0  0  0  0  0  0  0  0  0
   12.2428  -15.4853   22.1230 C   0  0  0  0  0  0  0  0  0  0  0  0
   10.8397  -15.9057   21.7307 C   0  0  2  0  0  0  0  0  0  0  0  0
   10.3075  -14.8484   20.8933 N   0  0  0  0  0  0  0  0  0  0  0  0
   10.0032  -16.1172   22.9343 C   0  0  0  0  0  0  0  0  0  0  0  0
    9.1309  -15.2488   23.2136 O   0  0  0  0  0  0  0  0  0  0  0  0
   10.1343  -17.2178   23.7616 O   0  0  0  0  0  0  0  0  0  0  0  0
  2  1  1  0
  3  2  2  0
  4  5  1  0
  4  2  1  0
  5  6  1  6
  7  8  2  0
  7  5  1  0
 10  9  1  1
 10 12  1  0
 10 11  1  0
 11  7  1  0
 12 13  2  0
 15 14  1  0
 16 15  1  1
 17 12  1  0
 17 16  1  0
 18 20  1  0
 18 16  1  0
 19 18  2  0
M  END
$$$$
