NAS.pdb
     RDKit          3D

 20 19  0  0  1  0  0  0  0  0999 V2000
   13.6936  -16.0119   15.5912 N   0  0  0  0  0  0  0  0  0  0  0  0
   13.2383  -16.8884   16.5951 C   0  0  0  0  0  0  0  0  0  0  0  0
   13.4894  -18.1069   16.5378 O   0  0  0  0  0  0  0  0  0  0  0  0
   12.4566  -16.3206   17.7143 C   0  0  0  0  0  0  0  0  0  0  0  0
   12.1023  -14.8520   17.4450 C   0  0  2  0  0  0  0  0  0  0  0  0
   13.3045  -14.0603   17.3034 N   0  0  0  0  0  0  0  0  0  0  0  0
   11.3800  -14.3825   18.6495 C   0  0  0  0  0  0  0  0  0  0  0  0
   12.0205  -14.2335   19.7157 O   0  0  0  0  0  0  0  0  0  0  0  0
    8.0291  -13.1094   19.5805 C   0  0  0  0  0  0  0  0  0  0  0  0
    9.3921  -13.6776   19.8934 C   0  0  2  0  0  0  0  0  0  0  0  0
    9.9924  -14.0940   18.6481 N   0  0  0  0  0  0  0  0  0  0  0  0
    9.3417  -14.7579   20.8900 C   0  0  0  0  0  0  0  0  0  0  0  0
    9.4205  -15.9439   20.4980 O   0  0  0  0  0  0  0  0  0  0  0  0
    7.7919  -14.0503   24.5569 O   0  0  0  0  0  0  0  0  0  0  0  0
    9.0165  -14.7066   24.6200 C   0  0  0  0  0  0  0  0  0  0  0  0
    9.1855  -15.4460   23.3069 C   0  0  2  0  0  0  0  0  0  0  0  0
    9.2064  -14.4401   22.2629 N   0  0  0  0  0  0  0  0  0  0  0  0
    8.0813  -16.4123   23.1070 C   0  0  0  0  0  0  0  0  0  0  0  0
    7.2022  -16.1419   22.2427 O   0  0  0  0  0  0  0  0  0  0  0  0
    7.9709  -17.5917   23.8211 O   0  0  0  0  0  0  0  0  0  0  0  0
  2  1  1  0
  3  2  2  0
  4  5  1  0
  4  2  1  0
  5  6  1  1
  7  8  2  0
  7  5  1  0
 10  9  1  6
 10 12  1  0
 10 11  1  0
 11  7  1  0
 12 13  2  0
 15 14  1  0
 16 15  1  1
 17 12  1  0
 17 16  1  0
 18 20  1  0
 18 16  1  0
 19 18  2  0
M  END
$$$$
