NAS.pdb
     RDKit          3D

 20 19  0  0  1  0  0  0  0  0999 V2000
    9.3764  -14.4695   12.3898 N   0  0  0  0  0  0  0  0  0  0  0  0
    9.5300  -15.4226   13.4152 C   0  0  0  0  0  0  0  0  0  0  0  0
    9.4998  -16.6414   13.1607 O   0  0  0  0  0  0  0  0  0  0  0  0
    9.7274  -14.9346   14.7968 C   0  0  0  0  0  0  0  0  0  0  0  0
    8.8397  -15.7066   15.7821 C   0  0  2  0  0  0  0  0  0  0  0  0
    7.4420  -15.4748   15.4909 N   0  0  0  0  0  0  0  0  0  0  0  0
    9.1323  -15.1410   17.1191 C   0  0  0  0  0  0  0  0  0  0  0  0
   10.2734  -15.3097   17.6076 O   0  0  0  0  0  0  0  0  0  0  0  0
    7.4499  -13.1181   19.7379 C   0  0  0  0  0  0  0  0  0  0  0  0
    8.5239  -14.0451   19.2226 C   0  0  2  0  0  0  0  0  0  0  0  0
    8.1750  -14.4156   17.8714 N   0  0  0  0  0  0  0  0  0  0  0  0
    8.7354  -15.2098   20.0953 C   0  0  0  0  0  0  0  0  0  0  0  0
    8.0048  -16.2151   19.9466 O   0  0  0  0  0  0  0  0  0  0  0  0
   12.2848  -15.9604   21.5208 O   0  0  0  0  0  0  0  0  0  0  0  0
   11.2949  -16.9370   21.4972 C   0  0  0  0  0  0  0  0  0  0  0  0
   10.0176  -16.2778   21.9806 C   0  0  2  0  0  0  0  0  0  0  0  0
    9.7525  -15.1735   21.0793 N   0  0  0  0  0  0  0  0  0  0  0  0
   10.1678  -15.8128   23.3786 C   0  0  0  0  0  0  0  0  0  0  0  0
   10.1138  -14.5720   23.6027 O   0  0  0  0  0  0  0  0  0  0  0  0
   10.3634  -16.6729   24.4440 O   0  0  0  0  0  0  0  0  0  0  0  0
  2  1  1  0
  3  2  2  0
  4  5  1  0
  4  2  1  0
  5  6  1  6
  7  8  2  0
  7  5  1  0
 10  9  1  1
 10 12  1  0
 10 11  1  0
 11  7  1  0
 12 13  2  0
 15 14  1  0
 16 15  1  6
 17 12  1  0
 17 16  1  0
 18 20  1  0
 18 16  1  0
 19 18  2  0
M  END
$$$$
