NAS.pdb
     RDKit          3D

 20 19  0  0  1  0  0  0  0  0999 V2000
    9.7579  -16.9942   14.0369 N   0  0  0  0  0  0  0  0  0  0  0  0
    9.7937  -15.5952   13.8790 C   0  0  0  0  0  0  0  0  0  0  0  0
    9.9335  -15.0855   12.7513 O   0  0  0  0  0  0  0  0  0  0  0  0
    9.6609  -14.7536   15.0874 C   0  0  0  0  0  0  0  0  0  0  0  0
    9.5650  -15.6202   16.3502 C   0  0  2  0  0  0  0  0  0  0  0  0
    8.3570  -16.4152   16.3265 N   0  0  0  0  0  0  0  0  0  0  0  0
    9.4718  -14.6730   17.4847 C   0  0  0  0  0  0  0  0  0  0  0  0
   10.5099  -14.0830   17.8633 O   0  0  0  0  0  0  0  0  0  0  0  0
    7.0267  -12.7627   19.3809 C   0  0  0  0  0  0  0  0  0  0  0  0
    8.3107  -13.5545   19.3278 C   0  0  2  0  0  0  0  0  0  0  0  0
    8.2561  -14.4049   18.1622 N   0  0  0  0  0  0  0  0  0  0  0  0
    8.5676  -14.3035   20.5671 C   0  0  0  0  0  0  0  0  0  0  0  0
    8.6078  -13.6794   21.6512 O   0  0  0  0  0  0  0  0  0  0  0  0
    7.0316  -17.6677   21.1130 O   0  0  0  0  0  0  0  0  0  0  0  0
    8.3758  -17.8777   21.4014 C   0  0  0  0  0  0  0  0  0  0  0  0
    8.9791  -16.5174   21.6933 C   0  0  2  0  0  0  0  0  0  0  0  0
    8.7630  -15.7045   20.5123 N   0  0  0  0  0  0  0  0  0  0  0  0
   10.4205  -16.6432   22.0088 C   0  0  0  0  0  0  0  0  0  0  0  0
   11.2484  -16.0621   21.2539 O   0  0  0  0  0  0  0  0  0  0  0  0
   10.8975  -17.3650   23.0879 O   0  0  0  0  0  0  0  0  0  0  0  0
  2  1  1  0
  3  2  2  0
  4  5  1  0
  4  2  1  0
  5  6  1  6
  7  8  2  0
  7  5  1  0
 10  9  1  1
 10 12  1  0
 10 11  1  0
 11  7  1  0
 12 13  2  0
 15 14  1  0
 16 15  1  6
 17 12  1  0
 17 16  1  0
 18 20  1  0
 18 16  1  0
 19 18  2  0
M  END
$$$$
