NAS.pdb
     RDKit          3D

 20 19  0  0  1  0  0  0  0  0999 V2000
    6.6928  -19.4298   18.3025 N   0  0  0  0  0  0  0  0  0  0  0  0
    6.3183  -18.1690   18.8059 C   0  0  0  0  0  0  0  0  0  0  0  0
    5.4152  -17.5083   18.2592 O   0  0  0  0  0  0  0  0  0  0  0  0
    7.0266  -17.6557   19.9979 C   0  0  0  0  0  0  0  0  0  0  0  0
    7.5482  -16.2332   19.7545 C   0  0  2  0  0  0  0  0  0  0  0  0
    8.5621  -16.2368   18.7230 N   0  0  0  0  0  0  0  0  0  0  0  0
    8.1834  -15.8123   21.0243 C   0  0  0  0  0  0  0  0  0  0  0  0
    9.3361  -16.2264   21.2870 O   0  0  0  0  0  0  0  0  0  0  0  0
    7.4901  -13.5421   23.8758 C   0  0  0  0  0  0  0  0  0  0  0  0
    8.2534  -14.6375   23.1716 C   0  0  2  0  0  0  0  0  0  0  0  0
    7.5421  -14.9595   21.9571 N   0  0  0  0  0  0  0  0  0  0  0  0
    8.4797  -15.8122   24.0270 C   0  0  0  0  0  0  0  0  0  0  0  0
    7.5333  -16.6079   24.2209 O   0  0  0  0  0  0  0  0  0  0  0  0
   12.3073  -16.7644   25.0192 O   0  0  0  0  0  0  0  0  0  0  0  0
   11.3377  -17.7599   24.9636 C   0  0  0  0  0  0  0  0  0  0  0  0
   10.0492  -17.1456   25.4754 C   0  0  2  0  0  0  0  0  0  0  0  0
    9.7525  -16.0204   24.6105 N   0  0  0  0  0  0  0  0  0  0  0  0
   10.1986  -16.7207   26.8861 C   0  0  0  0  0  0  0  0  0  0  0  0
   10.0608  -15.4958   27.1571 O   0  0  0  0  0  0  0  0  0  0  0  0
   10.4807  -17.6015   27.9146 O   0  0  0  0  0  0  0  0  0  0  0  0
  2  1  1  0
  3  2  2  0
  4  5  1  0
  4  2  1  0
  5  6  1  6
  7  8  2  0
  7  5  1  0
 10  9  1  1
 10 12  1  0
 10 11  1  0
 11  7  1  0
 12 13  2  0
 15 14  1  0
 16 15  1  6
 17 12  1  0
 17 16  1  0
 18 20  1  0
 18 16  1  0
 19 18  2  0
M  END
$$$$
