NAS.pdb
     RDKit          3D

 20 19  0  0  1  0  0  0  0  0999 V2000
    7.9248  -12.1289   19.6369 N   0  0  0  0  0  0  0  0  0  0  0  0
    7.3964  -13.4325   19.5673 C   0  0  0  0  0  0  0  0  0  0  0  0
    6.1702  -13.6280   19.6632 O   0  0  0  0  0  0  0  0  0  0  0  0
    8.3374  -14.5571   19.3775 C   0  0  0  0  0  0  0  0  0  0  0  0
    8.0153  -15.7086   20.3393 C   0  0  2  0  0  0  0  0  0  0  0  0
    6.5851  -15.9025   20.4339 N   0  0  0  0  0  0  0  0  0  0  0  0
    8.5112  -15.2781   21.6666 C   0  0  0  0  0  0  0  0  0  0  0  0
    9.7337  -15.0427   21.8052 O   0  0  0  0  0  0  0  0  0  0  0  0
    7.2888  -14.2235   24.9688 C   0  0  0  0  0  0  0  0  0  0  0  0
    8.2801  -14.9347   24.0800 C   0  0  2  0  0  0  0  0  0  0  0  0
    7.6605  -15.1204   22.7892 N   0  0  0  0  0  0  0  0  0  0  0  0
    8.7654  -16.1939   24.6646 C   0  0  0  0  0  0  0  0  0  0  0  0
    8.0551  -17.2193   24.5622 O   0  0  0  0  0  0  0  0  0  0  0  0
   12.1160  -17.5671   24.2303 O   0  0  0  0  0  0  0  0  0  0  0  0
   12.0253  -17.4665   25.6145 C   0  0  0  0  0  0  0  0  0  0  0  0
   10.5483  -17.4176   25.9544 C   0  0  2  0  0  0  0  0  0  0  0  0
   10.0163  -16.2237   25.3268 N   0  0  0  0  0  0  0  0  0  0  0  0
   10.3515  -17.3924   27.4219 C   0  0  0  0  0  0  0  0  0  0  0  0
   10.6585  -18.4235   28.0818 O   0  0  0  0  0  0  0  0  0  0  0  0
    9.8492  -16.2954   28.0981 O   0  0  0  0  0  0  0  0  0  0  0  0
  2  1  1  0
  3  2  2  0
  4  5  1  0
  4  2  1  0
  5  6  1  1
  7  8  2  0
  7  5  1  0
 10  9  1  1
 10 12  1  0
 10 11  1  0
 11  7  1  0
 12 13  2  0
 15 14  1  0
 16 15  1  1
 17 12  1  0
 17 16  1  0
 18 20  1  0
 18 16  1  0
 19 18  2  0
M  END
$$$$
