NAS.pdb
     RDKit          3D

 20 19  0  0  1  0  0  0  0  0999 V2000
   10.7012  -20.5716   17.0873 N   0  0  0  0  0  0  0  0  0  0  0  0
    9.6735  -19.9462   17.8196 C   0  0  0  0  0  0  0  0  0  0  0  0
    8.4831  -20.0638   17.4732 O   0  0  0  0  0  0  0  0  0  0  0  0
   10.0491  -19.1493   19.0071 C   0  0  0  0  0  0  0  0  0  0  0  0
    9.5230  -17.7124   18.8909 C   0  0  2  0  0  0  0  0  0  0  0  0
    9.9947  -17.0993   17.6687 N   0  0  0  0  0  0  0  0  0  0  0  0
   10.1081  -16.9737   20.0332 C   0  0  0  0  0  0  0  0  0  0  0  0
   11.3255  -16.6806   20.0006 O   0  0  0  0  0  0  0  0  0  0  0  0
    8.9586  -15.1808   23.0549 C   0  0  0  0  0  0  0  0  0  0  0  0
   10.0183  -15.8230   22.1928 C   0  0  2  0  0  0  0  0  0  0  0  0
    9.3484  -16.5831   21.1642 N   0  0  0  0  0  0  0  0  0  0  0  0
   10.9691  -16.6321   22.9701 C   0  0  0  0  0  0  0  0  0  0  0  0
   10.7401  -17.8534   23.1195 O   0  0  0  0  0  0  0  0  0  0  0  0
   15.3066  -16.6139   25.0479 O   0  0  0  0  0  0  0  0  0  0  0  0
   14.3255  -15.8691   24.4023 C   0  0  0  0  0  0  0  0  0  0  0  0
   13.0926  -16.7479   24.3179 C   0  0  2  0  0  0  0  0  0  0  0  0
   12.1164  -16.0206   23.5303 N   0  0  0  0  0  0  0  0  0  0  0  0
   12.5773  -17.0544   25.6720 C   0  0  0  0  0  0  0  0  0  0  0  0
   11.5686  -16.4174   26.0838 O   0  0  0  0  0  0  0  0  0  0  0  0
   13.1488  -18.0025   26.5012 O   0  0  0  0  0  0  0  0  0  0  0  0
  2  1  1  0
  3  2  2  0
  4  5  1  0
  4  2  1  0
  5  6  1  6
  7  8  2  0
  7  5  1  0
 10  9  1  1
 10 12  1  0
 10 11  1  0
 11  7  1  0
 12 13  2  0
 15 14  1  0
 16 15  1  1
 17 12  1  0
 17 16  1  0
 18 20  1  0
 18 16  1  0
 19 18  2  0
M  END
$$$$
