NAS.pdb
     RDKit          3D

 20 19  0  0  1  0  0  0  0  0999 V2000
    7.2539  -12.7565   18.6666 N   0  0  0  0  0  0  0  0  0  0  0  0
    8.3230  -13.3845   19.3347 C   0  0  0  0  0  0  0  0  0  0  0  0
    9.3972  -13.6090   18.7460 O   0  0  0  0  0  0  0  0  0  0  0  0
    8.1321  -13.7673   20.7500 C   0  0  0  0  0  0  0  0  0  0  0  0
    8.1386  -15.2935   20.9099 C   0  0  2  0  0  0  0  0  0  0  0  0
    6.9401  -15.8663   20.3376 N   0  0  0  0  0  0  0  0  0  0  0  0
    8.1201  -15.5475   22.3688 C   0  0  0  0  0  0  0  0  0  0  0  0
    7.1132  -15.1997   23.0277 O   0  0  0  0  0  0  0  0  0  0  0  0
    9.4982  -17.9012   24.6649 C   0  0  0  0  0  0  0  0  0  0  0  0
    9.0058  -16.4910   24.4475 C   0  0  2  0  0  0  0  0  0  0  0  0
    9.1949  -16.1684   23.0530 N   0  0  0  0  0  0  0  0  0  0  0  0
    9.6465  -15.5207   25.3480 C   0  0  0  0  0  0  0  0  0  0  0  0
   10.7125  -14.9744   24.9853 O   0  0  0  0  0  0  0  0  0  0  0  0
    8.0595  -12.7696   26.9398 O   0  0  0  0  0  0  0  0  0  0  0  0
    8.5723  -13.4109   28.0623 C   0  0  0  0  0  0  0  0  0  0  0  0
    9.6633  -14.3438   27.5737 C   0  0  2  0  0  0  0  0  0  0  0  0
    9.0514  -15.2244   26.5979 N   0  0  0  0  0  0  0  0  0  0  0  0
   10.2425  -15.1057   28.7038 C   0  0  0  0  0  0  0  0  0  0  0  0
   10.1101  -16.3609   28.7061 O   0  0  0  0  0  0  0  0  0  0  0  0
   10.9184  -14.5066   29.7513 O   0  0  0  0  0  0  0  0  0  0  0  0
  2  1  1  0
  3  2  2  0
  4  5  1  0
  4  2  1  0
  5  6  1  6
  7  8  2  0
  7  5  1  0
 10  9  1  6
 10 12  1  0
 10 11  1  0
 11  7  1  0
 12 13  2  0
 15 14  1  0
 16 15  1  1
 17 12  1  0
 17 16  1  0
 18 20  1  0
 18 16  1  0
 19 18  2  0
M  END
$$$$
