NAS.pdb
     RDKit          3D

 20 19  0  0  1  0  0  0  0  0999 V2000
   13.8179  -15.4497   18.3000 N   0  0  0  0  0  0  0  0  0  0  0  0
   13.8886  -14.3968   19.2327 C   0  0  0  0  0  0  0  0  0  0  0  0
   14.8816  -13.6462   19.2709 O   0  0  0  0  0  0  0  0  0  0  0  0
   12.7530  -14.2103   20.1611 C   0  0  0  0  0  0  0  0  0  0  0  0
   11.6622  -15.2599   19.9094 C   0  0  2  0  0  0  0  0  0  0  0  0
   10.8463  -14.8788   18.7774 N   0  0  0  0  0  0  0  0  0  0  0  0
   10.8066  -15.2521   21.1181 C   0  0  0  0  0  0  0  0  0  0  0  0
    9.9154  -14.3777   21.2192 O   0  0  0  0  0  0  0  0  0  0  0  0
    9.5066  -17.6103   23.4299 C   0  0  0  0  0  0  0  0  0  0  0  0
    9.9622  -16.1869   23.2179 C   0  0  2  0  0  0  0  0  0  0  0  0
   10.9530  -16.1933   22.1676 N   0  0  0  0  0  0  0  0  0  0  0  0
   10.4478  -15.5560   24.4544 C   0  0  0  0  0  0  0  0  0  0  0  0
   11.6696  -15.6119   24.7200 O   0  0  0  0  0  0  0  0  0  0  0  0
    7.6586  -13.8019   26.7940 O   0  0  0  0  0  0  0  0  0  0  0  0
    8.8908  -13.1571   26.7994 C   0  0  0  0  0  0  0  0  0  0  0  0
    9.9408  -14.2162   26.5249 C   0  0  2  0  0  0  0  0  0  0  0  0
    9.5330  -14.9024   25.3145 N   0  0  0  0  0  0  0  0  0  0  0  0
   10.0492  -15.1513   27.6681 C   0  0  0  0  0  0  0  0  0  0  0  0
   10.4474  -14.6949   28.7754 O   0  0  0  0  0  0  0  0  0  0  0  0
    9.7354  -16.4953   27.5773 O   0  0  0  0  0  0  0  0  0  0  0  0
  2  1  1  0
  3  2  2  0
  4  5  1  0
  4  2  1  0
  5  6  1  6
  7  8  2  0
  7  5  1  0
 10  9  1  1
 10 12  1  0
 10 11  1  0
 11  7  1  0
 12 13  2  0
 15 14  1  0
 16 15  1  1
 17 12  1  0
 17 16  1  0
 18 20  1  0
 18 16  1  0
 19 18  2  0
M  END
$$$$
