NAS.pdb
     RDKit          3D

 20 19  0  0  1  0  0  0  0  0999 V2000
    6.9449  -20.1209   16.9481 N   0  0  0  0  0  0  0  0  0  0  0  0
    8.3314  -19.9492   16.7699 C   0  0  0  0  0  0  0  0  0  0  0  0
    8.9646  -20.6686   15.9746 O   0  0  0  0  0  0  0  0  0  0  0  0
    9.0094  -18.8936   17.5523 C   0  0  0  0  0  0  0  0  0  0  0  0
    8.2045  -17.5875   17.5221 C   0  0  2  0  0  0  0  0  0  0  0  0
    8.4831  -16.8506   16.3091 N   0  0  0  0  0  0  0  0  0  0  0  0
    8.6890  -16.7869   18.6698 C   0  0  0  0  0  0  0  0  0  0  0  0
    9.9199  -16.5852   18.7863 O   0  0  0  0  0  0  0  0  0  0  0  0
    7.3196  -14.7776   21.4640 C   0  0  0  0  0  0  0  0  0  0  0  0
    8.4140  -15.5438   20.7615 C   0  0  2  0  0  0  0  0  0  0  0  0
    7.8185  -16.2379   19.6442 N   0  0  0  0  0  0  0  0  0  0  0  0
    9.1472  -16.4434   21.6648 C   0  0  0  0  0  0  0  0  0  0  0  0
    8.8082  -17.6467   21.7230 O   0  0  0  0  0  0  0  0  0  0  0  0
   12.9350  -16.2427   22.4169 O   0  0  0  0  0  0  0  0  0  0  0  0
   12.2706  -16.1050   23.6309 C   0  0  0  0  0  0  0  0  0  0  0  0
   10.8982  -16.7247   23.4520 C   0  0  2  0  0  0  0  0  0  0  0  0
   10.2140  -15.9368   22.4454 N   0  0  0  0  0  0  0  0  0  0  0  0
   10.1569  -16.7286   24.7340 C   0  0  0  0  0  0  0  0  0  0  0  0
    9.2077  -15.9089   24.8757 O   0  0  0  0  0  0  0  0  0  0  0  0
   10.4564  -17.5858   25.7773 O   0  0  0  0  0  0  0  0  0  0  0  0
  2  1  1  0
  3  2  2  0
  4  5  1  0
  4  2  1  0
  5  6  1  6
  7  8  2  0
  7  5  1  0
 10  9  1  1
 10 12  1  0
 10 11  1  0
 11  7  1  0
 12 13  2  0
 15 14  1  0
 16 15  1  1
 17 12  1  0
 17 16  1  0
 18 20  1  0
 18 16  1  0
 19 18  2  0
M  END
$$$$
