NFR.pdb
     RDKit          3D

 31 31  0  0  1  0  0  0  0  0999 V2000
    9.7645  -19.7562   18.5872 N   0  0  0  0  0  0  0  0  0  0  0  0
    8.8284  -18.7553   18.9624 C   0  0  0  0  0  0  0  0  0  0  0  0
    7.8416  -18.5545   18.2237 O   0  0  0  0  0  0  0  0  0  0  0  0
    9.0693  -17.9975   20.2138 C   0  0  0  0  0  0  0  0  0  0  0  0
    9.0229  -16.5144   19.9686 C   0  0  2  0  0  0  0  0  0  0  0  0
   10.0236  -16.1027   19.0309 N   0  0  0  0  0  0  0  0  0  0  0  0
    9.1086  -15.7852   21.2513 C   0  0  0  0  0  0  0  0  0  0  0  0
   10.2473  -15.6432   21.7656 O   0  0  0  0  0  0  0  0  0  0  0  0
    7.9680  -15.2480   21.9125 N   0  0  0  0  0  0  0  0  0  0  0  0
    8.1267  -14.5893   23.1904 C   0  0  1  0  0  0  0  0  0  0  0  0
    6.9565  -13.6831   23.4628 C   0  0  0  0  0  0  0  0  0  0  0  0
    7.0356  -13.0130   24.7732 C   0  0  0  0  0  0  0  0  0  0  0  0
    7.8947  -11.9596   24.9789 C   0  0  0  0  0  0  0  0  0  0  0  0
    7.9829  -11.3145   26.2117 C   0  0  0  0  0  0  0  0  0  0  0  0
    7.2029  -11.7312   27.2430 C   0  0  0  0  0  0  0  0  0  0  0  0
    6.3350  -12.7780   27.0743 C   0  0  0  0  0  0  0  0  0  0  0  0
    6.2543  -13.4200   25.8295 C   0  0  0  0  0  0  0  0  0  0  0  0
    8.3068  -15.6132   24.2537 C   0  0  0  0  0  0  0  0  0  0  0  0
    7.5977  -16.6527   24.3170 O   0  0  0  0  0  0  0  0  0  0  0  0
   14.0788  -19.5376   24.1740 N   0  0  0  0  0  0  0  0  0  0  0  0
   12.9787  -20.3863   23.8878 C   0  0  0  0  0  0  0  0  0  0  0  0
   13.1409  -21.6487   24.1275 N   0  0  0  0  0  0  0  0  0  0  0  0
   11.7700  -19.8536   23.3645 N   0  0  0  0  0  0  0  0  0  0  0  0
   11.4128  -18.5009   23.7176 C   0  0  0  0  0  0  0  0  0  0  0  0
   11.5857  -18.1445   25.1404 C   0  0  0  0  0  0  0  0  0  0  0  0
   11.1868  -16.8494   25.6767 C   0  0  0  0  0  0  0  0  0  0  0  0
    9.7775  -16.6371   26.0632 C   0  0  2  0  0  0  0  0  0  0  0  0
    9.2944  -15.4444   25.2371 N   0  0  0  0  0  0  0  0  0  0  0  0
    9.6376  -16.1042   27.4239 C   0  0  0  0  0  0  0  0  0  0  0  0
    9.2187  -14.8536   27.7347 O   0  0  0  0  0  0  0  0  0  0  0  0
    9.9334  -16.8541   28.4187 O   0  0  0  0  0  0  0  0  0  0  0  0
  2  1  1  0
  2  3  2  0
  4  5  1  0
  4  2  1  0
  5  6  1  6
  7  8  2  0
  7  5  1  0
  9  7  1  0
 10  9  1  0
 10 11  1  1
 11 12  1  0
 12 13  2  0
 12 17  1  0
 13 14  1  0
 14 15  2  0
 16 15  1  0
 17 16  2  0
 18 28  1  0
 18 10  1  0
 19 18  2  0
 20 21  1  0
 21 23  1  0
 22 21  2  0
 23 24  1  0
 25 24  1  0
 25 26  1  0
 27 26  1  6
 27 28  1  0
 27 29  1  0
 29 30  1  0
 31 29  2  0
M  END
$$$$
