NFR.pdb
     RDKit          3D

 31 31  0  0  1  0  0  0  0  0999 V2000
    5.3905  -16.1972   18.4629 N   0  0  0  0  0  0  0  0  0  0  0  0
    6.7309  -15.7339   18.3781 C   0  0  0  0  0  0  0  0  0  0  0  0
    7.1533  -15.3286   17.2748 O   0  0  0  0  0  0  0  0  0  0  0  0
    7.5636  -15.7544   19.6047 C   0  0  0  0  0  0  0  0  0  0  0  0
    7.2470  -14.5854   20.4962 C   0  0  2  0  0  0  0  0  0  0  0  0
    7.4825  -13.3377   19.8345 N   0  0  0  0  0  0  0  0  0  0  0  0
    7.9866  -14.7040   21.7703 C   0  0  0  0  0  0  0  0  0  0  0  0
    9.1812  -14.3118   21.7889 O   0  0  0  0  0  0  0  0  0  0  0  0
    7.4045  -15.2371   22.9551 N   0  0  0  0  0  0  0  0  0  0  0  0
    8.1765  -15.2721   24.1778 C   0  0  1  0  0  0  0  0  0  0  0  0
    7.2819  -15.0628   25.3697 C   0  0  0  0  0  0  0  0  0  0  0  0
    7.2744  -13.6696   25.8507 C   0  0  0  0  0  0  0  0  0  0  0  0
    8.4487  -13.0061   26.1164 C   0  0  0  0  0  0  0  0  0  0  0  0
    8.4604  -11.6886   26.5724 C   0  0  0  0  0  0  0  0  0  0  0  0
    7.2845  -11.0351   26.7620 C   0  0  0  0  0  0  0  0  0  0  0  0
    6.0946  -11.6650   26.5074 C   0  0  0  0  0  0  0  0  0  0  0  0
    6.0945  -12.9909   26.0489 C   0  0  0  0  0  0  0  0  0  0  0  0
    8.9243  -16.5552   24.2519 C   0  0  0  0  0  0  0  0  0  0  0  0
    8.3580  -17.6745   24.1333 O   0  0  0  0  0  0  0  0  0  0  0  0
   17.5258  -17.8213   22.5423 N   0  0  0  0  0  0  0  0  0  0  0  0
   17.1105  -19.1068   22.9755 C   0  0  0  0  0  0  0  0  0  0  0  0
   17.9998  -20.0476   22.9395 N   0  0  0  0  0  0  0  0  0  0  0  0
   15.7794  -19.3255   23.4216 N   0  0  0  0  0  0  0  0  0  0  0  0
   14.8560  -18.2177   23.3784 C   0  0  0  0  0  0  0  0  0  0  0  0
   13.4983  -18.4965   23.8886 C   0  0  0  0  0  0  0  0  0  0  0  0
   12.4372  -17.4976   23.8760 C   0  0  0  0  0  0  0  0  0  0  0  0
   11.1069  -17.8584   24.4057 C   0  0  2  0  0  0  0  0  0  0  0  0
   10.3125  -16.5530   24.4608 N   0  0  0  0  0  0  0  0  0  0  0  0
   11.1427  -18.2192   25.8282 C   0  0  0  0  0  0  0  0  0  0  0  0
   10.7938  -17.4020   26.8513 O   0  0  0  0  0  0  0  0  0  0  0  0
   11.5366  -19.3907   26.1628 O   0  0  0  0  0  0  0  0  0  0  0  0
  2  1  1  0
  2  3  2  0
  4  5  1  0
  4  2  1  0
  5  6  1  6
  7  8  2  0
  7  5  1  0
  9  7  1  0
 10  9  1  0
 10 11  1  1
 11 12  1  0
 12 13  2  0
 12 17  1  0
 13 14  1  0
 14 15  2  0
 16 15  1  0
 17 16  2  0
 18 28  1  0
 18 10  1  0
 19 18  2  0
 20 21  1  0
 21 23  1  0
 22 21  2  0
 23 24  1  0
 25 24  1  0
 25 26  1  0
 27 26  1  1
 27 28  1  0
 27 29  1  0
 29 30  1  0
 31 29  2  0
M  END
$$$$
