NFR.pdb
     RDKit          3D

 31 31  0  0  1  0  0  0  0  0999 V2000
    8.6490  -18.3247   17.9915 N   0  0  0  0  0  0  0  0  0  0  0  0
    8.8415  -19.0375   19.2054 C   0  0  0  0  0  0  0  0  0  0  0  0
    8.6897  -20.2773   19.1997 O   0  0  0  0  0  0  0  0  0  0  0  0
    9.2133  -18.2739   20.4208 C   0  0  0  0  0  0  0  0  0  0  0  0
    9.2739  -16.7981   20.1381 C   0  0  2  0  0  0  0  0  0  0  0  0
   10.3451  -16.4752   19.2445 N   0  0  0  0  0  0  0  0  0  0  0  0
    9.3406  -16.0411   21.4057 C   0  0  0  0  0  0  0  0  0  0  0  0
   10.4529  -15.9783   21.9888 O   0  0  0  0  0  0  0  0  0  0  0  0
    8.2102  -15.3927   21.9789 N   0  0  0  0  0  0  0  0  0  0  0  0
    8.3393  -14.7278   23.2570 C   0  0  1  0  0  0  0  0  0  0  0  0
    7.1372  -13.8621   23.5222 C   0  0  0  0  0  0  0  0  0  0  0  0
    7.1692  -13.2167   24.8469 C   0  0  0  0  0  0  0  0  0  0  0  0
    6.2656  -13.5611   25.8240 C   0  0  0  0  0  0  0  0  0  0  0  0
    6.2808  -12.9607   27.0823 C   0  0  0  0  0  0  0  0  0  0  0  0
    7.2100  -12.0090   27.3591 C   0  0  0  0  0  0  0  0  0  0  0  0
    8.1263  -11.6406   26.4093 C   0  0  0  0  0  0  0  0  0  0  0  0
    8.1019  -12.2511   25.1464 C   0  0  0  0  0  0  0  0  0  0  0  0
    8.5487  -15.7441   24.3222 C   0  0  0  0  0  0  0  0  0  0  0  0
    7.7188  -16.6644   24.5499 O   0  0  0  0  0  0  0  0  0  0  0  0
   12.2932  -21.4360   25.8410 N   0  0  0  0  0  0  0  0  0  0  0  0
   12.6864  -21.3447   24.4811 C   0  0  0  0  0  0  0  0  0  0  0  0
   12.7160  -22.4516   23.8092 N   0  0  0  0  0  0  0  0  0  0  0  0
   13.0262  -20.0898   23.9082 N   0  0  0  0  0  0  0  0  0  0  0  0
   12.9665  -18.9188   24.7490 C   0  0  0  0  0  0  0  0  0  0  0  0
   11.6101  -18.4597   25.1106 C   0  0  0  0  0  0  0  0  0  0  0  0
   11.3745  -17.2451   25.8809 C   0  0  0  0  0  0  0  0  0  0  0  0
    9.9847  -16.8144   26.1327 C   0  0  2  0  0  0  0  0  0  0  0  0
    9.7030  -15.7037   25.1202 N   0  0  0  0  0  0  0  0  0  0  0  0
    9.8396  -16.0794   27.3952 C   0  0  0  0  0  0  0  0  0  0  0  0
    9.7439  -14.7326   27.5094 O   0  0  0  0  0  0  0  0  0  0  0  0
    9.8040  -16.7339   28.4951 O   0  0  0  0  0  0  0  0  0  0  0  0
  2  1  1  0
  2  3  2  0
  4  5  1  0
  4  2  1  0
  5  6  1  6
  7  8  2  0
  7  5  1  0
  9  7  1  0
 10  9  1  0
 10 11  1  1
 11 12  1  0
 12 13  2  0
 12 17  1  0
 13 14  1  0
 14 15  2  0
 16 15  1  0
 17 16  2  0
 18 28  1  0
 18 10  1  0
 19 18  2  0
 20 21  1  0
 21 23  1  0
 22 21  2  0
 23 24  1  0
 25 24  1  0
 25 26  1  0
 27 26  1  6
 27 28  1  0
 27 29  1  0
 29 30  1  0
 31 29  2  0
M  END
$$$$
