NFR.pdb
     RDKit          3D

 31 31  0  0  1  0  0  0  0  0999 V2000
   11.1733  -18.8869   18.7877 N   0  0  0  0  0  0  0  0  0  0  0  0
   11.5562  -17.5191   18.7564 C   0  0  0  0  0  0  0  0  0  0  0  0
   12.2996  -17.1288   17.8317 O   0  0  0  0  0  0  0  0  0  0  0  0
   11.0544  -16.6211   19.8242 C   0  0  0  0  0  0  0  0  0  0  0  0
   10.3341  -17.3966   20.8926 C   0  0  2  0  0  0  0  0  0  0  0  0
    9.2203  -18.1211   20.3591 N   0  0  0  0  0  0  0  0  0  0  0  0
    9.9514  -16.4974   22.0014 C   0  0  0  0  0  0  0  0  0  0  0  0
   10.8687  -15.8544   22.5727 O   0  0  0  0  0  0  0  0  0  0  0  0
    8.6056  -16.3372   22.4371 N   0  0  0  0  0  0  0  0  0  0  0  0
    8.3201  -15.5054   23.5856 C   0  0  1  0  0  0  0  0  0  0  0  0
    7.1770  -14.5732   23.2874 C   0  0  0  0  0  0  0  0  0  0  0  0
    7.3410  -13.8433   22.0176 C   0  0  0  0  0  0  0  0  0  0  0  0
    7.9455  -12.6091   21.9835 C   0  0  0  0  0  0  0  0  0  0  0  0
    8.1086  -11.9043   20.7916 C   0  0  0  0  0  0  0  0  0  0  0  0
    7.6611  -12.4440   19.6278 C   0  0  0  0  0  0  0  0  0  0  0  0
    7.0536  -13.6721   19.6239 C   0  0  0  0  0  0  0  0  0  0  0  0
    6.8947  -14.3727   20.8290 C   0  0  0  0  0  0  0  0  0  0  0  0
    8.0505  -16.3698   24.7652 C   0  0  0  0  0  0  0  0  0  0  0  0
    7.5928  -15.9128   25.8465 O   0  0  0  0  0  0  0  0  0  0  0  0
    8.7034  -21.7235   29.7267 N   0  0  0  0  0  0  0  0  0  0  0  0
    7.9443  -22.6808   29.0056 C   0  0  0  0  0  0  0  0  0  0  0  0
    8.3819  -23.8996   29.0198 N   0  0  0  0  0  0  0  0  0  0  0  0
    6.7667  -22.2962   28.3101 N   0  0  0  0  0  0  0  0  0  0  0  0
    6.8057  -21.0892   27.5204 C   0  0  0  0  0  0  0  0  0  0  0  0
    7.7879  -21.0780   26.4174 C   0  0  0  0  0  0  0  0  0  0  0  0
    7.8757  -19.9837   25.4589 C   0  0  0  0  0  0  0  0  0  0  0  0
    8.1593  -18.6207   25.9513 C   0  0  2  0  0  0  0  0  0  0  0  0
    8.3047  -17.7490   24.7034 N   0  0  0  0  0  0  0  0  0  0  0  0
    9.5017  -18.4963   26.5321 C   0  0  0  0  0  0  0  0  0  0  0  0
   10.6558  -18.4241   25.8256 O   0  0  0  0  0  0  0  0  0  0  0  0
    9.6270  -18.4569   27.8058 O   0  0  0  0  0  0  0  0  0  0  0  0
  2  1  1  0
  2  3  2  0
  4  5  1  0
  4  2  1  0
  5  6  1  6
  7  8  2  0
  7  5  1  0
  9  7  1  0
 10  9  1  0
 10 11  1  6
 11 12  1  0
 12 13  2  0
 12 17  1  0
 13 14  1  0
 14 15  2  0
 16 15  1  0
 17 16  2  0
 18 28  1  0
 18 10  1  0
 19 18  2  0
 20 21  1  0
 21 23  1  0
 22 21  2  0
 23 24  1  0
 25 24  1  0
 25 26  1  0
 27 26  1  6
 27 28  1  0
 27 29  1  0
 29 30  1  0
 31 29  2  0
M  END
$$$$
