NFR.pdb
     RDKit          3D

 31 31  0  0  1  0  0  0  0  0999 V2000
    9.2302  -20.0337   18.6274 N   0  0  0  0  0  0  0  0  0  0  0  0
    8.4183  -18.9153   18.9566 C   0  0  0  0  0  0  0  0  0  0  0  0
    7.4585  -18.6340   18.2085 O   0  0  0  0  0  0  0  0  0  0  0  0
    8.7505  -18.1359   20.1735 C   0  0  0  0  0  0  0  0  0  0  0  0
    8.7631  -16.6596   19.8868 C   0  0  2  0  0  0  0  0  0  0  0  0
    9.7412  -16.3222   18.8971 N   0  0  0  0  0  0  0  0  0  0  0  0
    8.9369  -15.9003   21.1428 C   0  0  0  0  0  0  0  0  0  0  0  0
   10.0996  -15.8118   21.6136 O   0  0  0  0  0  0  0  0  0  0  0  0
    7.8540  -15.2775   21.8256 N   0  0  0  0  0  0  0  0  0  0  0  0
    8.0845  -14.6473   23.1069 C   0  0  1  0  0  0  0  0  0  0  0  0
    6.9097  -13.7872   23.4878 C   0  0  0  0  0  0  0  0  0  0  0  0
    7.0414  -13.1873   24.8276 C   0  0  0  0  0  0  0  0  0  0  0  0
    6.2974  -13.6504   25.8868 C   0  0  0  0  0  0  0  0  0  0  0  0
    6.4087  -13.0946   27.1606 C   0  0  0  0  0  0  0  0  0  0  0  0
    7.2730  -12.0675   27.3700 C   0  0  0  0  0  0  0  0  0  0  0  0
    8.0307  -11.5802   26.3376 C   0  0  0  0  0  0  0  0  0  0  0  0
    7.9108  -12.1469   25.0598 C   0  0  0  0  0  0  0  0  0  0  0  0
    8.3727  -15.6919   24.1252 C   0  0  0  0  0  0  0  0  0  0  0  0
    7.5877  -16.6518   24.3485 O   0  0  0  0  0  0  0  0  0  0  0  0
   14.0511  -20.2913   25.3328 N   0  0  0  0  0  0  0  0  0  0  0  0
   13.5684  -20.7506   24.0804 C   0  0  0  0  0  0  0  0  0  0  0  0
   14.3447  -21.5450   23.4143 N   0  0  0  0  0  0  0  0  0  0  0  0
   12.2936  -20.3445   23.6025 N   0  0  0  0  0  0  0  0  0  0  0  0
   11.9281  -18.9548   23.7338 C   0  0  0  0  0  0  0  0  0  0  0  0
   11.7774  -18.4611   25.1175 C   0  0  0  0  0  0  0  0  0  0  0  0
   11.3795  -17.0923   25.4210 C   0  0  0  0  0  0  0  0  0  0  0  0
    9.9695  -16.8145   25.7609 C   0  0  2  0  0  0  0  0  0  0  0  0
    9.5540  -15.6345   24.8815 N   0  0  0  0  0  0  0  0  0  0  0  0
    9.8142  -16.2294   27.0982 C   0  0  0  0  0  0  0  0  0  0  0  0
    9.5274  -16.9227   28.2266 O   0  0  0  0  0  0  0  0  0  0  0  0
    9.9479  -14.9642   27.2428 O   0  0  0  0  0  0  0  0  0  0  0  0
  2  1  1  0
  2  3  2  0
  4  5  1  0
  4  2  1  0
  5  6  1  6
  7  8  2  0
  7  5  1  0
  9  7  1  0
 10  9  1  0
 10 11  1  1
 11 12  1  0
 12 13  2  0
 12 17  1  0
 13 14  1  0
 14 15  2  0
 16 15  1  0
 17 16  2  0
 18 28  1  0
 18 10  1  0
 19 18  2  0
 20 21  1  0
 21 23  1  0
 22 21  2  0
 23 24  1  0
 25 24  1  0
 25 26  1  0
 27 26  1  6
 27 28  1  0
 27 29  1  0
 29 30  1  0
 31 29  2  0
M  END
$$$$
