NFR.pdb
     RDKit          3D

 31 31  0  0  1  0  0  0  0  0999 V2000
    3.3306  -18.0530   20.9998 N   0  0  0  0  0  0  0  0  0  0  0  0
    4.4603  -18.9059   20.8773 C   0  0  0  0  0  0  0  0  0  0  0  0
    4.2703  -20.1170   20.6383 O   0  0  0  0  0  0  0  0  0  0  0  0
    5.8109  -18.3158   21.0395 C   0  0  0  0  0  0  0  0  0  0  0  0
    5.7280  -16.8502   21.3660 C   0  0  2  0  0  0  0  0  0  0  0  0
    5.4083  -16.0688   20.2096 N   0  0  0  0  0  0  0  0  0  0  0  0
    6.9729  -16.4067   22.0279 C   0  0  0  0  0  0  0  0  0  0  0  0
    8.0089  -17.0944   21.8404 O   0  0  0  0  0  0  0  0  0  0  0  0
    7.0386  -15.2498   22.8548 N   0  0  0  0  0  0  0  0  0  0  0  0
    8.3154  -14.8178   23.3799 C   0  0  1  0  0  0  0  0  0  0  0  0
    8.2757  -13.3515   23.7162 C   0  0  0  0  0  0  0  0  0  0  0  0
    7.6685  -13.0750   25.0304 C   0  0  0  0  0  0  0  0  0  0  0  0
    6.3045  -12.9810   25.1743 C   0  0  0  0  0  0  0  0  0  0  0  0
    5.7130  -12.7196   26.4095 C   0  0  0  0  0  0  0  0  0  0  0  0
    6.4978  -12.5519   27.5057 C   0  0  0  0  0  0  0  0  0  0  0  0
    7.8612  -12.6387   27.3998 C   0  0  0  0  0  0  0  0  0  0  0  0
    8.4458  -12.9021   26.1520 C   0  0  0  0  0  0  0  0  0  0  0  0
    8.6747  -15.6566   24.5540 C   0  0  0  0  0  0  0  0  0  0  0  0
    7.8279  -16.3631   25.1634 O   0  0  0  0  0  0  0  0  0  0  0  0
   14.7477  -18.0258   20.7882 N   0  0  0  0  0  0  0  0  0  0  0  0
   15.3363  -18.8297   21.7980 C   0  0  0  0  0  0  0  0  0  0  0  0
   16.0099  -19.8618   21.4001 N   0  0  0  0  0  0  0  0  0  0  0  0
   15.1798  -18.4980   23.1706 N   0  0  0  0  0  0  0  0  0  0  0  0
   14.3559  -17.3623   23.5070 C   0  0  0  0  0  0  0  0  0  0  0  0
   12.9048  -17.6258   23.5861 C   0  0  0  0  0  0  0  0  0  0  0  0
   11.9423  -16.5984   23.9631 C   0  0  0  0  0  0  0  0  0  0  0  0
   10.8436  -16.9494   24.8852 C   0  0  2  0  0  0  0  0  0  0  0  0
    9.9969  -15.6838   25.0249 N   0  0  0  0  0  0  0  0  0  0  0  0
   11.3009  -17.1288   26.2685 C   0  0  0  0  0  0  0  0  0  0  0  0
   11.4522  -18.3215   26.8937 O   0  0  0  0  0  0  0  0  0  0  0  0
   11.5814  -16.0948   26.9698 O   0  0  0  0  0  0  0  0  0  0  0  0
  2  1  1  0
  2  3  2  0
  4  5  1  0
  4  2  1  0
  5  6  1  6
  7  8  2  0
  7  5  1  0
  9  7  1  0
 10  9  1  0
 10 11  1  1
 11 12  1  0
 12 13  2  0
 12 17  1  0
 13 14  1  0
 14 15  2  0
 16 15  1  0
 17 16  2  0
 18 28  1  0
 18 10  1  0
 19 18  2  0
 20 21  1  0
 21 23  1  0
 22 21  2  0
 23 24  1  0
 25 24  1  0
 25 26  1  0
 27 26  1  6
 27 28  1  0
 27 29  1  0
 29 30  1  0
 31 29  2  0
M  END
$$$$
