WLF.pdb
     RDKit          3D

 34 36  0  0  1  0  0  0  0  0999 V2000
   24.4588  -18.8045  -18.0695 N   0  0  0  0  0  0  0  0  0  0  0  0
   24.1996  -18.7410  -16.6377 C   0  0  1  0  0  0  0  0  0  0  0  0
   22.7845  -18.3178  -16.4008 C   0  0  0  0  0  0  0  0  0  0  0  0
   22.3878  -17.0368  -16.9832 C   0  0  0  0  0  0  0  0  0  0  0  0
   21.5875  -16.8750  -18.1267 C   0  0  0  0  0  0  0  0  0  0  0  0
   21.4226  -15.5673  -18.3306 N   0  0  0  0  0  0  0  0  0  0  0  0
   22.0645  -14.8453  -17.3930 C   0  0  0  0  0  0  0  0  0  0  0  0
   22.1919  -13.4869  -17.1874 C   0  0  0  0  0  0  0  0  0  0  0  0
   22.9417  -13.0431  -16.1145 C   0  0  0  0  0  0  0  0  0  0  0  0
   23.5515  -13.9178  -15.2647 C   0  0  0  0  0  0  0  0  0  0  0  0
   23.4141  -15.2586  -15.4839 C   0  0  0  0  0  0  0  0  0  0  0  0
   22.6676  -15.7665  -16.5520 C   0  0  0  0  0  0  0  0  0  0  0  0
   24.6786  -19.8928  -15.8839 C   0  0  0  0  0  0  0  0  0  0  0  0
   24.3787  -21.0395  -16.3013 O   0  0  0  0  0  0  0  0  0  0  0  0
   28.3684  -19.6557  -15.0215 C   0  0  0  0  0  0  0  0  0  0  0  0
   28.3285  -20.6706  -13.9075 C   0  0  1  0  0  0  0  0  0  0  0  0
   29.4559  -20.3035  -12.9300 C   0  0  0  0  0  0  0  0  0  0  0  0
   27.0597  -20.6234  -13.1206 C   0  0  0  0  0  0  0  0  0  0  0  0
   25.8181  -20.9373  -13.8847 C   0  0  2  0  0  0  0  0  0  0  0  0
   25.4663  -19.8062  -14.7018 N   0  0  0  0  0  0  0  0  0  0  0  0
   24.6873  -21.2466  -12.9606 C   0  0  0  0  0  0  0  0  0  0  0  0
   24.7357  -22.2066  -12.1437 O   0  0  0  0  0  0  0  0  0  0  0  0
   23.4897  -20.4821  -12.9431 N   0  0  0  0  0  0  0  0  0  0  0  0
   22.3346  -20.8267  -12.1096 C   0  0  1  0  0  0  0  0  0  0  0  0
   21.9034  -19.6758  -11.2699 C   0  0  0  0  0  0  0  0  0  0  0  0
   20.6634  -20.0060  -10.5419 C   0  0  0  0  0  0  0  0  0  0  0  0
   20.6114  -20.6481   -9.3247 C   0  0  0  0  0  0  0  0  0  0  0  0
   19.4250  -20.9350   -8.6705 C   0  0  0  0  0  0  0  0  0  0  0  0
   18.2276  -20.5706   -9.2452 C   0  0  0  0  0  0  0  0  0  0  0  0
   18.2327  -19.9241  -10.4668 C   0  0  0  0  0  0  0  0  0  0  0  0
   19.4285  -19.6496  -11.0982 C   0  0  0  0  0  0  0  0  0  0  0  0
   21.2893  -21.3416  -12.9956 C   0  0  0  0  0  0  0  0  0  0  0  0
   20.4753  -22.3770  -12.5834 O   0  0  0  0  0  0  0  0  0  0  0  0
   21.1180  -20.8568  -14.1298 O   0  0  0  0  0  0  0  0  0  0  0  0
  2  1  1  6
  3  2  1  0
  4  3  1  0
  5  4  2  0
  6  5  1  0
  7  6  1  0
  7 12  2  0
  8  7  1  0
  9  8  2  0
  9 10  1  0
 10 11  2  0
 11 12  1  0
 12  4  1  0
 13 14  2  0
 13  2  1  0
 16 15  1  6
 16 17  1  0
 16 18  1  0
 19 18  1  1
 19 21  1  0
 19 20  1  0
 20 13  1  0
 21 23  1  0
 22 21  2  0
 23 24  1  0
 24 25  1  6
 25 26  1  0
 26 27  2  0
 27 28  1  0
 29 28  2  0
 30 29  1  0
 31 26  1  0
 31 30  2  0
 32 33  1  0
 32 24  1  0
 34 32  2  0
M  END
$$$$
