WLF.pdb
     RDKit          3D

 34 36  0  0  1  0  0  0  0  0999 V2000
   26.3886  -20.6755  -14.1695 N   0  0  0  0  0  0  0  0  0  0  0  0
   25.3536  -20.5036  -13.1593 C   0  0  1  0  0  0  0  0  0  0  0  0
   24.0208  -20.8569  -13.7394 C   0  0  0  0  0  0  0  0  0  0  0  0
   23.6993  -20.2547  -15.0323 C   0  0  0  0  0  0  0  0  0  0  0  0
   23.4860  -20.9599  -16.2287 C   0  0  0  0  0  0  0  0  0  0  0  0
   23.1915  -20.0735  -17.1807 N   0  0  0  0  0  0  0  0  0  0  0  0
   23.1955  -18.8186  -16.6933 C   0  0  0  0  0  0  0  0  0  0  0  0
   22.9621  -17.5906  -17.2775 C   0  0  0  0  0  0  0  0  0  0  0  0
   23.0509  -16.4538  -16.4965 C   0  0  0  0  0  0  0  0  0  0  0  0
   23.3625  -16.5260  -15.1710 C   0  0  0  0  0  0  0  0  0  0  0  0
   23.5899  -17.7501  -14.6101 C   0  0  0  0  0  0  0  0  0  0  0  0
   23.5138  -18.9346  -15.3498 C   0  0  0  0  0  0  0  0  0  0  0  0
   25.6779  -21.0723  -11.8571 C   0  0  0  0  0  0  0  0  0  0  0  0
   25.5364  -22.3110  -11.7005 O   0  0  0  0  0  0  0  0  0  0  0  0
   28.7280  -20.9065   -8.2125 C   0  0  0  0  0  0  0  0  0  0  0  0
   27.5401  -20.2814   -7.5264 C   0  0  1  0  0  0  0  0  0  0  0  0
   28.0784  -19.1250   -6.6695 C   0  0  0  0  0  0  0  0  0  0  0  0
   26.5659  -19.6757   -8.4832 C   0  0  0  0  0  0  0  0  0  0  0  0
   25.8571  -20.6392   -9.3739 C   0  0  2  0  0  0  0  0  0  0  0  0
   26.1460  -20.3161  -10.7461 N   0  0  0  0  0  0  0  0  0  0  0  0
   24.3816  -20.5808   -9.1554 C   0  0  0  0  0  0  0  0  0  0  0  0
   23.6682  -19.6675   -9.6538 O   0  0  0  0  0  0  0  0  0  0  0  0
   23.6903  -21.5464   -8.3753 N   0  0  0  0  0  0  0  0  0  0  0  0
   22.2311  -21.6811   -8.3808 C   0  0  1  0  0  0  0  0  0  0  0  0
   21.7320  -22.1703   -9.6951 C   0  0  0  0  0  0  0  0  0  0  0  0
   20.2689  -22.3556   -9.6533 C   0  0  0  0  0  0  0  0  0  0  0  0
   19.6313  -23.4986   -9.2249 C   0  0  0  0  0  0  0  0  0  0  0  0
   18.2530  -23.6306   -9.1957 C   0  0  0  0  0  0  0  0  0  0  0  0
   17.4618  -22.5823   -9.6101 C   0  0  0  0  0  0  0  0  0  0  0  0
   18.0596  -21.4157  -10.0483 C   0  0  0  0  0  0  0  0  0  0  0  0
   19.4351  -21.3094  -10.0676 C   0  0  0  0  0  0  0  0  0  0  0  0
   21.8626  -22.5338   -7.2494 C   0  0  0  0  0  0  0  0  0  0  0  0
   20.7120  -22.2786   -6.5312 O   0  0  0  0  0  0  0  0  0  0  0  0
   22.5770  -23.4984   -6.9179 O   0  0  0  0  0  0  0  0  0  0  0  0
  2  1  1  6
  3  2  1  0
  4  3  1  0
  5  4  2  0
  6  5  1  0
  7  6  1  0
  7 12  2  0
  8  7  1  0
  9  8  2  0
  9 10  1  0
 10 11  2  0
 11 12  1  0
 12  4  1  0
 13 14  2  0
 13  2  1  0
 16 15  1  6
 16 17  1  0
 16 18  1  0
 19 18  1  1
 19 21  1  0
 19 20  1  0
 20 13  1  0
 21 23  1  0
 22 21  2  0
 23 24  1  0
 24 25  1  6
 25 26  1  0
 26 27  2  0
 27 28  1  0
 29 28  2  0
 30 29  1  0
 31 26  1  0
 31 30  2  0
 32 33  1  0
 32 24  1  0
 34 32  2  0
M  END
$$$$
