WLF.pdb
     RDKit          3D

 34 36  0  0  1  0  0  0  0  0999 V2000
   25.8865  -18.5896  -16.4684 N   0  0  0  0  0  0  0  0  0  0  0  0
   24.8928  -19.2353  -15.6217 C   0  0  1  0  0  0  0  0  0  0  0  0
   23.6517  -19.4992  -16.4140 C   0  0  0  0  0  0  0  0  0  0  0  0
   23.1661  -18.3948  -17.2400 C   0  0  0  0  0  0  0  0  0  0  0  0
   23.2594  -18.3227  -18.6401 C   0  0  0  0  0  0  0  0  0  0  0  0
   22.6852  -17.1844  -19.0316 N   0  0  0  0  0  0  0  0  0  0  0  0
   22.2141  -16.4911  -17.9782 C   0  0  0  0  0  0  0  0  0  0  0  0
   21.5612  -15.2800  -17.8755 C   0  0  0  0  0  0  0  0  0  0  0  0
   21.2045  -14.8197  -16.6221 C   0  0  0  0  0  0  0  0  0  0  0  0
   21.4850  -15.5364  -15.4966 C   0  0  0  0  0  0  0  0  0  0  0  0
   22.1317  -16.7331  -15.6178 C   0  0  0  0  0  0  0  0  0  0  0  0
   22.5166  -17.2499  -16.8590 C   0  0  0  0  0  0  0  0  0  0  0  0
   25.4069  -20.3353  -14.8155 C   0  0  0  0  0  0  0  0  0  0  0  0
   25.0984  -21.5072  -15.1478 O   0  0  0  0  0  0  0  0  0  0  0  0
   30.2195  -19.4996  -12.8211 C   0  0  0  0  0  0  0  0  0  0  0  0
   28.8029  -19.7812  -13.2531 C   0  0  1  0  0  0  0  0  0  0  0  0
   28.8601  -20.1770  -14.7368 C   0  0  0  0  0  0  0  0  0  0  0  0
   28.1929  -20.9394  -12.5336 C   0  0  0  0  0  0  0  0  0  0  0  0
   26.7875  -21.2632  -12.9131 C   0  0  2  0  0  0  0  0  0  0  0  0
   26.2384  -20.1710  -13.6722 N   0  0  0  0  0  0  0  0  0  0  0  0
   25.9469  -21.4907  -11.7007 C   0  0  0  0  0  0  0  0  0  0  0  0
   26.1526  -22.4576  -10.9171 O   0  0  0  0  0  0  0  0  0  0  0  0
   24.8661  -20.6358  -11.3543 N   0  0  0  0  0  0  0  0  0  0  0  0
   23.9318  -20.9314  -10.2647 C   0  0  1  0  0  0  0  0  0  0  0  0
   23.9393  -19.8594   -9.2320 C   0  0  0  0  0  0  0  0  0  0  0  0
   25.1733  -19.9296   -8.4265 C   0  0  0  0  0  0  0  0  0  0  0  0
   26.1585  -18.9675   -8.4087 C   0  0  0  0  0  0  0  0  0  0  0  0
   27.3011  -19.0687   -7.6328 C   0  0  0  0  0  0  0  0  0  0  0  0
   27.4828  -20.1750   -6.8330 C   0  0  0  0  0  0  0  0  0  0  0  0
   26.5191  -21.1657   -6.8198 C   0  0  0  0  0  0  0  0  0  0  0  0
   25.3895  -21.0410   -7.6021 C   0  0  0  0  0  0  0  0  0  0  0  0
   22.6178  -21.1719  -10.8634 C   0  0  0  0  0  0  0  0  0  0  0  0
   21.5458  -21.5267  -10.0700 O   0  0  0  0  0  0  0  0  0  0  0  0
   22.4462  -21.0609  -12.0918 O   0  0  0  0  0  0  0  0  0  0  0  0
  2  1  1  6
  3  2  1  0
  4  3  1  0
  5  4  2  0
  6  5  1  0
  7  6  1  0
  7 12  2  0
  8  7  1  0
  9  8  2  0
  9 10  1  0
 10 11  2  0
 11 12  1  0
 12  4  1  0
 13 14  2  0
 13  2  1  0
 16 15  1  1
 16 17  1  0
 16 18  1  0
 19 18  1  1
 19 21  1  0
 19 20  1  0
 20 13  1  0
 21 23  1  0
 22 21  2  0
 23 24  1  0
 24 25  1  1
 25 26  1  0
 26 27  2  0
 27 28  1  0
 29 28  2  0
 30 29  1  0
 31 26  1  0
 31 30  2  0
 32 33  1  0
 32 24  1  0
 34 32  2  0
M  END
$$$$
