WLF.pdb
     RDKit          3D

 34 36  0  0  1  0  0  0  0  0999 V2000
   23.1784  -19.3312  -19.7910 N   0  0  0  0  0  0  0  0  0  0  0  0
   23.3948  -19.3181  -18.3507 C   0  0  1  0  0  0  0  0  0  0  0  0
   22.1867  -19.8611  -17.6555 C   0  0  0  0  0  0  0  0  0  0  0  0
   20.9427  -19.1173  -17.8473 C   0  0  0  0  0  0  0  0  0  0  0  0
   20.0182  -19.3300  -18.8838 C   0  0  0  0  0  0  0  0  0  0  0  0
   19.0038  -18.4819  -18.7094 N   0  0  0  0  0  0  0  0  0  0  0  0
   19.1944  -17.7149  -17.6196 C   0  0  0  0  0  0  0  0  0  0  0  0
   18.4444  -16.7102  -17.0437 C   0  0  0  0  0  0  0  0  0  0  0  0
   18.9229  -16.0916  -15.9042 C   0  0  0  0  0  0  0  0  0  0  0  0
   20.1126  -16.4548  -15.3458 C   0  0  0  0  0  0  0  0  0  0  0  0
   20.8410  -17.4515  -15.9296 C   0  0  0  0  0  0  0  0  0  0  0  0
   20.4077  -18.1139  -17.0826 C   0  0  0  0  0  0  0  0  0  0  0  0
   24.6888  -19.8388  -17.9281 C   0  0  0  0  0  0  0  0  0  0  0  0
   25.1267  -20.8697  -18.4978 O   0  0  0  0  0  0  0  0  0  0  0  0
   28.5241  -16.3063  -16.4573 C   0  0  0  0  0  0  0  0  0  0  0  0
   27.7225  -17.4574  -17.0096 C   0  0  1  0  0  0  0  0  0  0  0  0
   28.4734  -17.9691  -18.2488 C   0  0  0  0  0  0  0  0  0  0  0  0
   27.6342  -18.6124  -16.0665 C   0  0  0  0  0  0  0  0  0  0  0  0
   26.7883  -19.7521  -16.5243 C   0  0  2  0  0  0  0  0  0  0  0  0
   25.4935  -19.2561  -16.9091 N   0  0  0  0  0  0  0  0  0  0  0  0
   26.6244  -20.7638  -15.4390 C   0  0  0  0  0  0  0  0  0  0  0  0
   27.6112  -21.3592  -14.9262 O   0  0  0  0  0  0  0  0  0  0  0  0
   25.3512  -21.1187  -14.9173 N   0  0  0  0  0  0  0  0  0  0  0  0
   25.1225  -21.4106  -13.4995 C   0  0  1  0  0  0  0  0  0  0  0  0
   25.6755  -20.3407  -12.6248 C   0  0  0  0  0  0  0  0  0  0  0  0
   25.3225  -20.5950  -11.2150 C   0  0  0  0  0  0  0  0  0  0  0  0
   26.1950  -21.0583  -10.2554 C   0  0  0  0  0  0  0  0  0  0  0  0
   25.8249  -21.2788   -8.9393 C   0  0  0  0  0  0  0  0  0  0  0  0
   24.5280  -21.0303   -8.5481 C   0  0  0  0  0  0  0  0  0  0  0  0
   23.6183  -20.5645   -9.4785 C   0  0  0  0  0  0  0  0  0  0  0  0
   24.0122  -20.3527  -10.7838 C   0  0  0  0  0  0  0  0  0  0  0  0
   23.6878  -21.6416  -13.3227 C   0  0  0  0  0  0  0  0  0  0  0  0
   22.7721  -20.9569  -14.0955 O   0  0  0  0  0  0  0  0  0  0  0  0
   23.2719  -22.4554  -12.4767 O   0  0  0  0  0  0  0  0  0  0  0  0
  2  1  1  6
  3  2  1  0
  4  3  1  0
  5  4  2  0
  6  5  1  0
  7  6  1  0
  7 12  2  0
  8  7  1  0
  9  8  2  0
  9 10  1  0
 10 11  2  0
 11 12  1  0
 12  4  1  0
 13 14  2  0
 13  2  1  0
 16 15  1  1
 16 17  1  0
 16 18  1  0
 19 18  1  1
 19 21  1  0
 19 20  1  0
 20 13  1  0
 21 23  1  0
 22 21  2  0
 23 24  1  0
 24 25  1  1
 25 26  1  0
 26 27  2  0
 27 28  1  0
 29 28  2  0
 30 29  1  0
 31 26  1  0
 31 30  2  0
 32 33  1  0
 32 24  1  0
 34 32  2  0
M  END
$$$$
