WLF.pdb
     RDKit          3D

 34 36  0  0  1  0  0  0  0  0999 V2000
   28.7812  -28.1742  -15.9358 N   0  0  0  0  0  0  0  0  0  0  0  0
   28.3012  -27.4454  -17.1018 C   0  0  1  0  0  0  0  0  0  0  0  0
   26.8054  -27.4319  -17.1059 C   0  0  0  0  0  0  0  0  0  0  0  0
   26.1485  -28.7289  -17.2604 C   0  0  0  0  0  0  0  0  0  0  0  0
   26.7427  -29.9775  -17.0115 C   0  0  0  0  0  0  0  0  0  0  0  0
   25.8266  -30.9203  -17.2370 N   0  0  0  0  0  0  0  0  0  0  0  0
   24.6564  -30.3775  -17.6220 C   0  0  0  0  0  0  0  0  0  0  0  0
   23.4403  -30.9309  -17.9663 C   0  0  0  0  0  0  0  0  0  0  0  0
   22.4063  -30.0907  -18.3339 C   0  0  0  0  0  0  0  0  0  0  0  0
   22.5675  -28.7370  -18.3615 C   0  0  0  0  0  0  0  0  0  0  0  0
   23.7782  -28.2074  -18.0172 C   0  0  0  0  0  0  0  0  0  0  0  0
   24.8604  -29.0072  -17.6363 C   0  0  0  0  0  0  0  0  0  0  0  0
   28.9730  -26.1741  -17.3401 C   0  0  0  0  0  0  0  0  0  0  0  0
   29.3979  -25.5338  -16.3459 O   0  0  0  0  0  0  0  0  0  0  0  0
   32.1092  -26.2751  -19.3900 C   0  0  0  0  0  0  0  0  0  0  0  0
   32.0264  -24.8649  -19.9165 C   0  0  1  0  0  0  0  0  0  0  0  0
   32.6614  -24.8740  -21.3158 C   0  0  0  0  0  0  0  0  0  0  0  0
   30.6213  -24.3913  -20.0970 C   0  0  0  0  0  0  0  0  0  0  0  0
   29.8005  -24.3272  -18.8535 C   0  0  2  0  0  0  0  0  0  0  0  0
   29.1811  -25.6064  -18.6285 N   0  0  0  0  0  0  0  0  0  0  0  0
   28.7413  -23.2815  -18.9673 C   0  0  0  0  0  0  0  0  0  0  0  0
   29.0213  -22.0595  -19.1072 O   0  0  0  0  0  0  0  0  0  0  0  0
   27.3561  -23.5956  -18.9252 N   0  0  0  0  0  0  0  0  0  0  0  0
   26.3040  -22.5932  -19.1148 C   0  0  1  0  0  0  0  0  0  0  0  0
   24.9518  -23.2152  -19.1268 C   0  0  0  0  0  0  0  0  0  0  0  0
   23.9229  -22.2040  -19.4359 C   0  0  0  0  0  0  0  0  0  0  0  0
   22.6240  -22.2363  -18.9795 C   0  0  0  0  0  0  0  0  0  0  0  0
   21.6889  -21.2627  -19.2884 C   0  0  0  0  0  0  0  0  0  0  0  0
   22.0520  -20.2022  -20.0886 C   0  0  0  0  0  0  0  0  0  0  0  0
   23.3459  -20.1296  -20.5692 C   0  0  0  0  0  0  0  0  0  0  0  0
   24.2588  -21.1126  -20.2468 C   0  0  0  0  0  0  0  0  0  0  0  0
   26.4791  -21.5695  -18.0832 C   0  0  0  0  0  0  0  0  0  0  0  0
   26.4966  -21.9218  -16.7489 O   0  0  0  0  0  0  0  0  0  0  0  0
   26.6145  -20.3703  -18.3904 O   0  0  0  0  0  0  0  0  0  0  0  0
  2  1  1  1
  3  2  1  0
  4  3  1  0
  5  4  2  0
  6  5  1  0
  7  6  1  0
  7 12  2  0
  8  7  1  0
  9  8  2  0
  9 10  1  0
 10 11  2  0
 11 12  1  0
 12  4  1  0
 13 14  2  0
 13  2  1  0
 16 15  1  6
 16 17  1  0
 16 18  1  0
 19 18  1  6
 19 21  1  0
 19 20  1  0
 20 13  1  0
 21 23  1  0
 22 21  2  0
 23 24  1  0
 24 25  1  1
 25 26  1  0
 26 27  2  0
 27 28  1  0
 29 28  2  0
 30 29  1  0
 31 26  1  0
 31 30  2  0
 32 33  1  0
 32 24  1  0
 34 32  2  0
M  END
$$$$
