WLF.pdb
     RDKit          3D

 34 36  0  0  1  0  0  0  0  0999 V2000
   24.4317  -17.5372  -15.3390 N   0  0  0  0  0  0  0  0  0  0  0  0
   25.5716  -17.9777  -14.5467 C   0  0  1  0  0  0  0  0  0  0  0  0
   26.2608  -16.7901  -13.9532 C   0  0  0  0  0  0  0  0  0  0  0  0
   26.8756  -15.8607  -14.8998 C   0  0  0  0  0  0  0  0  0  0  0  0
   26.5790  -14.4914  -15.0058 C   0  0  0  0  0  0  0  0  0  0  0  0
   27.3572  -13.9755  -15.9582 N   0  0  0  0  0  0  0  0  0  0  0  0
   28.1555  -14.9170  -16.4955 C   0  0  0  0  0  0  0  0  0  0  0  0
   29.1073  -14.8738  -17.4934 C   0  0  0  0  0  0  0  0  0  0  0  0
   29.7688  -16.0386  -17.8338 C   0  0  0  0  0  0  0  0  0  0  0  0
   29.4981  -17.2180  -17.2054 C   0  0  0  0  0  0  0  0  0  0  0  0
   28.5530  -17.2414  -16.2200 C   0  0  0  0  0  0  0  0  0  0  0  0
   27.8520  -16.0950  -15.8322 C   0  0  0  0  0  0  0  0  0  0  0  0
   25.2921  -19.0936  -13.6517 C   0  0  0  0  0  0  0  0  0  0  0  0
   24.2598  -19.0351  -12.9375 O   0  0  0  0  0  0  0  0  0  0  0  0
   26.4615  -24.1821  -15.2187 C   0  0  0  0  0  0  0  0  0  0  0  0
   25.7358  -23.0369  -14.5594 C   0  0  1  0  0  0  0  0  0  0  0  0
   24.3298  -23.5456  -14.2050 C   0  0  0  0  0  0  0  0  0  0  0  0
   26.3642  -22.6115  -13.2728 C   0  0  0  0  0  0  0  0  0  0  0  0
   25.8130  -21.3634  -12.6707 C   0  0  2  0  0  0  0  0  0  0  0  0
   26.1129  -20.2499  -13.5315 N   0  0  0  0  0  0  0  0  0  0  0  0
   26.4044  -21.1156  -11.3227 C   0  0  0  0  0  0  0  0  0  0  0  0
   27.6113  -20.7802  -11.1741 O   0  0  0  0  0  0  0  0  0  0  0  0
   25.6479  -21.2416  -10.1264 N   0  0  0  0  0  0  0  0  0  0  0  0
   26.2407  -21.1269   -8.7911 C   0  0  1  0  0  0  0  0  0  0  0  0
   26.9844  -19.8475   -8.6310 C   0  0  0  0  0  0  0  0  0  0  0  0
   27.4856  -19.7131   -7.2499 C   0  0  0  0  0  0  0  0  0  0  0  0
   27.1749  -18.6782   -6.3961 C   0  0  0  0  0  0  0  0  0  0  0  0
   27.6625  -18.5918   -5.1027 C   0  0  0  0  0  0  0  0  0  0  0  0
   28.4997  -19.5758   -4.6257 C   0  0  0  0  0  0  0  0  0  0  0  0
   28.8382  -20.6334   -5.4487 C   0  0  0  0  0  0  0  0  0  0  0  0
   28.3389  -20.6963   -6.7334 C   0  0  0  0  0  0  0  0  0  0  0  0
   25.1673  -21.3176   -7.8142 C   0  0  0  0  0  0  0  0  0  0  0  0
   23.9814  -20.6228   -7.9387 O   0  0  0  0  0  0  0  0  0  0  0  0
   25.3054  -22.1056   -6.8599 O   0  0  0  0  0  0  0  0  0  0  0  0
  2  1  1  1
  3  2  1  0
  4  3  1  0
  5  4  2  0
  6  5  1  0
  7  6  1  0
  7 12  2  0
  8  7  1  0
  9  8  2  0
  9 10  1  0
 10 11  2  0
 11 12  1  0
 12  4  1  0
 13 14  2  0
 13  2  1  0
 16 15  1  1
 16 17  1  0
 16 18  1  0
 19 18  1  6
 19 21  1  0
 19 20  1  0
 20 13  1  0
 21 23  1  0
 22 21  2  0
 23 24  1  0
 24 25  1  6
 25 26  1  0
 26 27  2  0
 27 28  1  0
 29 28  2  0
 30 29  1  0
 31 26  1  0
 31 30  2  0
 32 33  1  0
 32 24  1  0
 34 32  2  0
M  END
$$$$
