WLF.pdb
     RDKit          3D

 34 36  0  0  1  0  0  0  0  0999 V2000
   24.3868  -18.5708  -18.6118 N   0  0  0  0  0  0  0  0  0  0  0  0
   23.9552  -18.8789  -17.2553 C   0  0  1  0  0  0  0  0  0  0  0  0
   22.4631  -18.9751  -17.2118 C   0  0  0  0  0  0  0  0  0  0  0  0
   21.7269  -17.7825  -17.6282 C   0  0  0  0  0  0  0  0  0  0  0  0
   20.9545  -17.6688  -18.7963 C   0  0  0  0  0  0  0  0  0  0  0  0
   20.4188  -16.4476  -18.8170 N   0  0  0  0  0  0  0  0  0  0  0  0
   20.7867  -15.7380  -17.7337 C   0  0  0  0  0  0  0  0  0  0  0  0
   20.5011  -14.4534  -17.3194 C   0  0  0  0  0  0  0  0  0  0  0  0
   21.0492  -13.9980  -16.1352 C   0  0  0  0  0  0  0  0  0  0  0  0
   21.8600  -14.7904  -15.3776 C   0  0  0  0  0  0  0  0  0  0  0  0
   22.1313  -16.0592  -15.8035 C   0  0  0  0  0  0  0  0  0  0  0  0
   21.6050  -16.5748  -16.9922 C   0  0  0  0  0  0  0  0  0  0  0  0
   24.7043  -19.9497  -16.6100 C   0  0  0  0  0  0  0  0  0  0  0  0
   24.7169  -21.0788  -17.1615 O   0  0  0  0  0  0  0  0  0  0  0  0
   28.1670  -19.0944  -15.6936 C   0  0  0  0  0  0  0  0  0  0  0  0
   28.3539  -20.2201  -14.7085 C   0  0  1  0  0  0  0  0  0  0  0  0
   29.4653  -19.7849  -13.7406 C   0  0  0  0  0  0  0  0  0  0  0  0
   27.1426  -20.4693  -13.8708 C   0  0  0  0  0  0  0  0  0  0  0  0
   25.9259  -20.9053  -14.6148 C   0  0  2  0  0  0  0  0  0  0  0  0
   25.4256  -19.8024  -15.3920 N   0  0  0  0  0  0  0  0  0  0  0  0
   24.8623  -21.3659  -13.6741 C   0  0  0  0  0  0  0  0  0  0  0  0
   24.9446  -22.4642  -13.0590 O   0  0  0  0  0  0  0  0  0  0  0  0
   23.6947  -20.5993  -13.4133 N   0  0  0  0  0  0  0  0  0  0  0  0
   22.6824  -20.9955  -12.4305 C   0  0  1  0  0  0  0  0  0  0  0  0
   22.6184  -20.0361  -11.2943 C   0  0  0  0  0  0  0  0  0  0  0  0
   23.7324  -20.2738  -10.3567 C   0  0  0  0  0  0  0  0  0  0  0  0
   24.9860  -19.7137  -10.4641 C   0  0  0  0  0  0  0  0  0  0  0  0
   26.0043  -19.9583   -9.5580 C   0  0  0  0  0  0  0  0  0  0  0  0
   25.7761  -20.7983   -8.4908 C   0  0  0  0  0  0  0  0  0  0  0  0
   24.5322  -21.3827   -8.3439 C   0  0  0  0  0  0  0  0  0  0  0  0
   23.5342  -21.1226   -9.2605 C   0  0  0  0  0  0  0  0  0  0  0  0
   21.4148  -21.1584  -13.1441 C   0  0  0  0  0  0  0  0  0  0  0  0
   21.3270  -20.8495  -14.4864 O   0  0  0  0  0  0  0  0  0  0  0  0
   20.4000  -21.5759  -12.5554 O   0  0  0  0  0  0  0  0  0  0  0  0
  2  1  1  6
  3  2  1  0
  4  3  1  0
  5  4  2  0
  6  5  1  0
  7  6  1  0
  7 12  2  0
  8  7  1  0
  9  8  2  0
  9 10  1  0
 10 11  2  0
 11 12  1  0
 12  4  1  0
 13 14  2  0
 13  2  1  0
 16 15  1  6
 16 17  1  0
 16 18  1  0
 19 18  1  1
 19 21  1  0
 19 20  1  0
 20 13  1  0
 21 23  1  0
 22 21  2  0
 23 24  1  0
 24 25  1  1
 25 26  1  0
 26 27  2  0
 27 28  1  0
 29 28  2  0
 30 29  1  0
 31 26  1  0
 31 30  2  0
 32 33  1  0
 32 24  1  0
 34 32  2  0
M  END
$$$$
