WLF.pdb
     RDKit          3D

 34 36  0  0  1  0  0  0  0  0999 V2000
   27.0423  -21.2838  -14.6164 N   0  0  0  0  0  0  0  0  0  0  0  0
   26.1917  -20.5017  -13.7297 C   0  0  1  0  0  0  0  0  0  0  0  0
   25.0792  -19.8835  -14.5158 C   0  0  0  0  0  0  0  0  0  0  0  0
   25.4745  -19.0773  -15.6697 C   0  0  0  0  0  0  0  0  0  0  0  0
   25.7470  -19.5741  -16.9554 C   0  0  0  0  0  0  0  0  0  0  0  0
   26.0459  -18.5385  -17.7408 N   0  0  0  0  0  0  0  0  0  0  0  0
   25.9902  -17.3796  -17.0579 C   0  0  0  0  0  0  0  0  0  0  0  0
   26.2180  -16.0693  -17.4248 C   0  0  0  0  0  0  0  0  0  0  0  0
   26.0853  -15.0779  -16.4710 C   0  0  0  0  0  0  0  0  0  0  0  0
   25.7365  -15.3715  -15.1860 C   0  0  0  0  0  0  0  0  0  0  0  0
   25.5148  -16.6741  -14.8414 C   0  0  0  0  0  0  0  0  0  0  0  0
   25.6331  -17.7194  -15.7630 C   0  0  0  0  0  0  0  0  0  0  0  0
   25.8280  -21.1754  -12.4896 C   0  0  0  0  0  0  0  0  0  0  0  0
   25.2404  -22.2834  -12.5683 O   0  0  0  0  0  0  0  0  0  0  0  0
   28.5894  -19.9277   -8.0259 C   0  0  0  0  0  0  0  0  0  0  0  0
   27.8040  -20.4466   -9.2034 C   0  0  1  0  0  0  0  0  0  0  0  0
   28.5388  -21.6963   -9.7129 C   0  0  0  0  0  0  0  0  0  0  0  0
   26.4264  -20.8915   -8.8352 C   0  0  0  0  0  0  0  0  0  0  0  0
   25.5206  -21.1912   -9.9813 C   0  0  2  0  0  0  0  0  0  0  0  0
   26.0944  -20.6609  -11.1897 N   0  0  0  0  0  0  0  0  0  0  0  0
   24.1736  -20.5838   -9.7692 C   0  0  0  0  0  0  0  0  0  0  0  0
   23.8468  -19.4838  -10.2933 O   0  0  0  0  0  0  0  0  0  0  0  0
   23.1784  -21.2040   -8.9667 N   0  0  0  0  0  0  0  0  0  0  0  0
   21.8287  -21.4995   -9.4550 C   0  0  1  0  0  0  0  0  0  0  0  0
   21.8639  -22.3161  -10.6991 C   0  0  0  0  0  0  0  0  0  0  0  0
   20.4938  -22.6281  -11.1487 C   0  0  0  0  0  0  0  0  0  0  0  0
   19.7234  -21.8157  -11.9506 C   0  0  0  0  0  0  0  0  0  0  0  0
   18.4416  -22.1484  -12.3558 C   0  0  0  0  0  0  0  0  0  0  0  0
   17.8900  -23.3433  -11.9500 C   0  0  0  0  0  0  0  0  0  0  0  0
   18.6278  -24.1898  -11.1441 C   0  0  0  0  0  0  0  0  0  0  0  0
   19.9030  -23.8350  -10.7542 C   0  0  0  0  0  0  0  0  0  0  0  0
   21.0882  -22.1212   -8.3559 C   0  0  0  0  0  0  0  0  0  0  0  0
   21.6786  -23.1031   -7.5865 O   0  0  0  0  0  0  0  0  0  0  0  0
   19.9197  -21.7764   -8.0981 O   0  0  0  0  0  0  0  0  0  0  0  0
  2  1  1  6
  3  2  1  0
  4  3  1  0
  5  4  2  0
  6  5  1  0
  7  6  1  0
  7 12  2  0
  8  7  1  0
  9  8  2  0
  9 10  1  0
 10 11  2  0
 11 12  1  0
 12  4  1  0
 13 14  2  0
 13  2  1  0
 16 15  1  1
 16 17  1  0
 16 18  1  0
 19 18  1  1
 19 21  1  0
 19 20  1  0
 20 13  1  0
 21 23  1  0
 22 21  2  0
 23 24  1  0
 24 25  1  6
 25 26  1  0
 26 27  2  0
 27 28  1  0
 29 28  2  0
 30 29  1  0
 31 26  1  0
 31 30  2  0
 32 33  1  0
 32 24  1  0
 34 32  2  0
M  END
$$$$
