AHV.pdb
     RDKit          3D

 23 23  0  0  1  0  0  0  0  0999 V2000
    8.2253  -12.0693   19.7199 C   0  0  0  0  0  0  0  0  0  0  0  0
    8.3814  -13.5202   19.3966 C   0  0  2  0  0  0  0  0  0  0  0  0
    7.6638  -13.9439   18.2330 N   0  0  0  0  0  0  0  0  0  0  0  0
    8.0503  -14.3409   20.6061 C   0  0  0  0  0  0  0  0  0  0  0  0
    6.8487  -14.6950   20.7157 O   0  0  0  0  0  0  0  0  0  0  0  0
    9.0301  -14.6912   21.5589 N   0  0  0  0  0  0  0  0  0  0  0  0
    8.7430  -15.6032   22.6856 C   0  0  1  0  0  0  0  0  0  0  0  0
    9.5663  -16.8307   22.5500 C   0  0  0  0  0  0  0  0  0  0  0  0
    9.1426  -17.8242   21.5539 C   0  0  0  0  0  0  0  0  0  0  0  0
    7.8470  -18.2562   21.2460 C   0  0  0  0  0  0  0  0  0  0  0  0
    7.8781  -19.2085   20.2996 N   0  0  0  0  0  0  0  0  0  0  0  0
    9.1706  -19.4053   19.9850 C   0  0  0  0  0  0  0  0  0  0  0  0
    9.9274  -18.5823   20.7303 N   0  0  0  0  0  0  0  0  0  0  0  0
    8.9094  -14.8078   23.9073 C   0  0  0  0  0  0  0  0  0  0  0  0
    9.9875  -14.1422   24.0966 O   0  0  0  0  0  0  0  0  0  0  0  0
    7.0592  -11.8527   25.5565 C   0  0  0  0  0  0  0  0  0  0  0  0
    7.1485  -12.9811   26.5323 C   0  0  1  0  0  0  0  0  0  0  0  0
    5.8065  -13.6036   26.7085 C   0  0  0  0  0  0  0  0  0  0  0  0
    8.2352  -13.9814   26.1847 C   0  0  2  0  0  0  0  0  0  0  0  0
    7.9546  -14.6792   24.9624 N   0  0  0  0  0  0  0  0  0  0  0  0
    8.5012  -14.8379   27.3481 C   0  0  0  0  0  0  0  0  0  0  0  0
    8.3001  -16.2047   27.3750 O   0  0  0  0  0  0  0  0  0  0  0  0
    8.9458  -14.3327   28.4227 O   0  0  0  0  0  0  0  0  0  0  0  0
  2  1  1  1
  2  4  1  0
  3  2  1  0
  4  5  2  0
  4  6  1  0
  6  7  1  0
  7 14  1  0
  7  8  1  1
  9  8  1  0
 10  9  2  0
 11 10  1  0
 12 11  1  0
 12 13  2  0
 13  9  1  0
 14 20  1  0
 14 15  2  0
 17 18  1  6
 17 16  1  0
 19 21  1  0
 19 17  1  0
 19 20  1  6
 21 22  1  0
 23 21  2  0
M  END
$$$$
