AHV.pdb
     RDKit          3D

 23 23  0  0  1  0  0  0  0  0999 V2000
    7.9166  -19.7477   21.1403 C   0  0  0  0  0  0  0  0  0  0  0  0
    7.4039  -18.8161   22.1908 C   0  0  2  0  0  0  0  0  0  0  0  0
    5.9801  -18.6708   22.2038 N   0  0  0  0  0  0  0  0  0  0  0  0
    8.1145  -17.5010   22.0835 C   0  0  0  0  0  0  0  0  0  0  0  0
    9.2830  -17.5458   21.6213 O   0  0  0  0  0  0  0  0  0  0  0  0
    7.5050  -16.2913   22.4781 N   0  0  0  0  0  0  0  0  0  0  0  0
    8.1850  -14.9861   22.3442 C   0  0  1  0  0  0  0  0  0  0  0  0
    7.3630  -14.0851   21.4984 C   0  0  0  0  0  0  0  0  0  0  0  0
    7.6791  -14.0263   20.0647 C   0  0  0  0  0  0  0  0  0  0  0  0
    8.7469  -14.6184   19.3798 C   0  0  0  0  0  0  0  0  0  0  0  0
    8.7094  -14.2968   18.0764 N   0  0  0  0  0  0  0  0  0  0  0  0
    7.6366  -13.5057   17.8992 C   0  0  0  0  0  0  0  0  0  0  0  0
    7.0198  -13.3420   19.0818 N   0  0  0  0  0  0  0  0  0  0  0  0
    8.4894  -14.5423   23.7093 C   0  0  0  0  0  0  0  0  0  0  0  0
    8.9437  -13.3620   23.9129 O   0  0  0  0  0  0  0  0  0  0  0  0
    7.9974  -12.4238   25.5072 C   0  0  0  0  0  0  0  0  0  0  0  0
    7.6950  -13.5341   26.4607 C   0  0  1  0  0  0  0  0  0  0  0  0
    6.2299  -13.8044   26.4726 C   0  0  0  0  0  0  0  0  0  0  0  0
    8.5339  -14.7739   26.2130 C   0  0  2  0  0  0  0  0  0  0  0  0
    8.3228  -15.3141   24.9001 N   0  0  0  0  0  0  0  0  0  0  0  0
    8.3428  -15.7221   27.3186 C   0  0  0  0  0  0  0  0  0  0  0  0
    8.6556  -15.4575   28.6383 O   0  0  0  0  0  0  0  0  0  0  0  0
    7.8614  -16.8734   27.0944 O   0  0  0  0  0  0  0  0  0  0  0  0
  2  1  1  6
  2  4  1  0
  3  2  1  0
  4  5  2  0
  4  6  1  0
  6  7  1  0
  7 14  1  0
  7  8  1  1
  9  8  1  0
 10  9  2  0
 11 10  1  0
 12 11  1  0
 12 13  2  0
 13  9  1  0
 14 20  1  0
 14 15  2  0
 17 18  1  6
 17 16  1  0
 19 21  1  0
 19 17  1  0
 19 20  1  6
 21 22  1  0
 23 21  2  0
M  END
$$$$
