AHV.pdb
     RDKit          3D

 23 23  0  0  1  0  0  0  0  0999 V2000
    8.1493  -12.1544   19.8362 C   0  0  0  0  0  0  0  0  0  0  0  0
    8.4108  -13.6000   19.5601 C   0  0  2  0  0  0  0  0  0  0  0  0
    7.8134  -14.0856   18.3536 N   0  0  0  0  0  0  0  0  0  0  0  0
    8.0297  -14.4153   20.7584 C   0  0  0  0  0  0  0  0  0  0  0  0
    6.8105  -14.7063   20.8578 O   0  0  0  0  0  0  0  0  0  0  0  0
    8.9841  -14.8277   21.7122 N   0  0  0  0  0  0  0  0  0  0  0  0
    8.6142  -15.6116   22.9089 C   0  0  1  0  0  0  0  0  0  0  0  0
    9.3289  -16.9123   22.8881 C   0  0  0  0  0  0  0  0  0  0  0  0
    8.9281  -17.8894   21.8667 C   0  0  0  0  0  0  0  0  0  0  0  0
    7.6634  -18.0964   21.3031 C   0  0  0  0  0  0  0  0  0  0  0  0
    7.6965  -19.1139   20.4273 N   0  0  0  0  0  0  0  0  0  0  0  0
    8.9598  -19.5742   20.4097 C   0  0  0  0  0  0  0  0  0  0  0  0
    9.6970  -18.8471   21.2662 N   0  0  0  0  0  0  0  0  0  0  0  0
    8.8432  -14.7315   24.0604 C   0  0  0  0  0  0  0  0  0  0  0  0
    9.9622  -14.1210   24.1876 O   0  0  0  0  0  0  0  0  0  0  0  0
    7.0835  -11.5997   25.4456 C   0  0  0  0  0  0  0  0  0  0  0  0
    7.2028  -12.6057   26.5443 C   0  0  1  0  0  0  0  0  0  0  0  0
    5.8590  -13.1620   26.8676 C   0  0  0  0  0  0  0  0  0  0  0  0
    8.2439  -13.6726   26.2613 C   0  0  2  0  0  0  0  0  0  0  0  0
    7.9104  -14.4587   25.1077 N   0  0  0  0  0  0  0  0  0  0  0  0
    8.5042  -14.4387   27.4874 C   0  0  0  0  0  0  0  0  0  0  0  0
    9.0320  -13.9031   28.6467 O   0  0  0  0  0  0  0  0  0  0  0  0
    8.2429  -15.6786   27.5313 O   0  0  0  0  0  0  0  0  0  0  0  0
  2  1  1  1
  2  4  1  0
  3  2  1  0
  4  5  2  0
  4  6  1  0
  6  7  1  0
  7 14  1  0
  7  8  1  1
  9  8  1  0
 10  9  2  0
 11 10  1  0
 12 11  1  0
 12 13  2  0
 13  9  1  0
 14 20  1  0
 14 15  2  0
 17 18  1  6
 17 16  1  0
 19 21  1  0
 19 17  1  0
 19 20  1  6
 21 22  1  0
 23 21  2  0
M  END
$$$$
