AHV.pdb
     RDKit          3D

 23 23  0  0  1  0  0  0  0  0999 V2000
    8.1357  -11.9438   19.9651 C   0  0  0  0  0  0  0  0  0  0  0  0
    8.3569  -13.3385   19.4751 C   0  0  2  0  0  0  0  0  0  0  0  0
    7.6144  -13.6729   18.2981 N   0  0  0  0  0  0  0  0  0  0  0  0
    8.1232  -14.3056   20.5959 C   0  0  0  0  0  0  0  0  0  0  0  0
    6.9344  -14.6835   20.7545 O   0  0  0  0  0  0  0  0  0  0  0  0
    9.1755  -14.7602   21.4183 N   0  0  0  0  0  0  0  0  0  0  0  0
    8.9549  -15.7142   22.5250 C   0  0  1  0  0  0  0  0  0  0  0  0
    9.8091  -16.9111   22.3234 C   0  0  0  0  0  0  0  0  0  0  0  0
    9.4477  -17.8255   21.2315 C   0  0  0  0  0  0  0  0  0  0  0  0
    8.1819  -18.0899   20.6953 C   0  0  0  0  0  0  0  0  0  0  0  0
    8.2619  -19.0199   19.7297 N   0  0  0  0  0  0  0  0  0  0  0  0
    9.5571  -19.3666   19.6268 C   0  0  0  0  0  0  0  0  0  0  0  0
   10.2671  -18.6571   20.5202 N   0  0  0  0  0  0  0  0  0  0  0  0
    9.1398  -14.9514   23.7647 C   0  0  0  0  0  0  0  0  0  0  0  0
   10.2716  -14.4086   24.0201 O   0  0  0  0  0  0  0  0  0  0  0  0
    7.3828  -11.9107   25.4489 C   0  0  0  0  0  0  0  0  0  0  0  0
    7.4184  -13.0584   26.4054 C   0  0  1  0  0  0  0  0  0  0  0  0
    6.0456  -13.6088   26.5850 C   0  0  0  0  0  0  0  0  0  0  0  0
    8.4448  -14.1113   26.0308 C   0  0  2  0  0  0  0  0  0  0  0  0
    8.1486  -14.7281   24.7692 N   0  0  0  0  0  0  0  0  0  0  0  0
    8.6251  -15.0396   27.1550 C   0  0  0  0  0  0  0  0  0  0  0  0
    9.1376  -14.6841   28.3880 O   0  0  0  0  0  0  0  0  0  0  0  0
    8.3028  -16.2596   27.0316 O   0  0  0  0  0  0  0  0  0  0  0  0
  2  1  1  1
  2  4  1  0
  3  2  1  0
  4  5  2  0
  4  6  1  0
  6  7  1  0
  7 14  1  0
  7  8  1  6
  9  8  1  0
 10  9  2  0
 11 10  1  0
 12 11  1  0
 12 13  2  0
 13  9  1  0
 14 20  1  0
 14 15  2  0
 17 18  1  6
 17 16  1  0
 19 21  1  0
 19 17  1  0
 19 20  1  6
 21 22  1  0
 23 21  2  0
M  END
$$$$
