AHV.pdb
     RDKit          3D

 23 23  0  0  1  0  0  0  0  0999 V2000
   10.6534  -19.3192   21.8202 C   0  0  0  0  0  0  0  0  0  0  0  0
   10.6606  -18.0805   20.9837 C   0  0  2  0  0  0  0  0  0  0  0  0
   11.8140  -17.9421   20.1478 N   0  0  0  0  0  0  0  0  0  0  0  0
   10.4385  -16.8843   21.8589 C   0  0  0  0  0  0  0  0  0  0  0  0
   11.4762  -16.2915   22.2501 O   0  0  0  0  0  0  0  0  0  0  0  0
    9.1435  -16.4550   22.2182 N   0  0  0  0  0  0  0  0  0  0  0  0
    8.9132  -15.2518   23.0445 C   0  0  1  0  0  0  0  0  0  0  0  0
    7.6658  -14.5799   22.6024 C   0  0  0  0  0  0  0  0  0  0  0  0
    7.6294  -14.0527   21.2314 C   0  0  0  0  0  0  0  0  0  0  0  0
    8.0530  -12.8030   20.7637 C   0  0  0  0  0  0  0  0  0  0  0  0
    7.8161  -12.6856   19.4470 N   0  0  0  0  0  0  0  0  0  0  0  0
    7.2458  -13.8360   19.0478 C   0  0  0  0  0  0  0  0  0  0  0  0
    7.1327  -14.6535   20.1084 N   0  0  0  0  0  0  0  0  0  0  0  0
    8.9846  -15.6959   24.4412 C   0  0  0  0  0  0  0  0  0  0  0  0
    8.5057  -16.8358   24.7763 O   0  0  0  0  0  0  0  0  0  0  0  0
   11.9826  -14.5685   27.1361 C   0  0  0  0  0  0  0  0  0  0  0  0
   10.6128  -14.6910   27.7209 C   0  0  1  0  0  0  0  0  0  0  0  0
   10.0878  -13.3396   28.0643 C   0  0  0  0  0  0  0  0  0  0  0  0
    9.6677  -15.5015   26.8536 C   0  0  2  0  0  0  0  0  0  0  0  0
    9.5625  -14.9670   25.5258 N   0  0  0  0  0  0  0  0  0  0  0  0
    8.3919  -15.6830   27.5587 C   0  0  0  0  0  0  0  0  0  0  0  0
    7.1705  -15.2346   27.0931 O   0  0  0  0  0  0  0  0  0  0  0  0
    8.3604  -16.2857   28.6737 O   0  0  0  0  0  0  0  0  0  0  0  0
  2  1  1  1
  2  4  1  0
  3  2  1  0
  4  5  2  0
  4  6  1  0
  6  7  1  0
  7 14  1  0
  7  8  1  6
  9  8  1  0
 10  9  2  0
 11 10  1  0
 12 11  1  0
 12 13  2  0
 13  9  1  0
 14 20  1  0
 14 15  2  0
 17 18  1  6
 17 16  1  0
 19 21  1  0
 19 17  1  0
 19 20  1  6
 21 22  1  0
 23 21  2  0
M  END
$$$$
