AHV.pdb
     RDKit          3D

 23 23  0  0  1  0  0  0  0  0999 V2000
    6.4623  -19.0237   20.8883 C   0  0  0  0  0  0  0  0  0  0  0  0
    6.6221  -18.3487   22.2123 C   0  0  2  0  0  0  0  0  0  0  0  0
    5.3893  -17.9603   22.8270 N   0  0  0  0  0  0  0  0  0  0  0  0
    7.5826  -17.2060   22.0789 C   0  0  0  0  0  0  0  0  0  0  0  0
    8.7307  -17.5015   21.6599 O   0  0  0  0  0  0  0  0  0  0  0  0
    7.2154  -15.8833   22.4046 N   0  0  0  0  0  0  0  0  0  0  0  0
    8.1729  -14.7598   22.3344 C   0  0  1  0  0  0  0  0  0  0  0  0
    7.6359  -13.7084   21.4349 C   0  0  0  0  0  0  0  0  0  0  0  0
    7.9131  -13.8396   19.9979 C   0  0  0  0  0  0  0  0  0  0  0  0
    8.8752  -14.6332   19.3619 C   0  0  0  0  0  0  0  0  0  0  0  0
    8.8394  -14.4457   18.0325 N   0  0  0  0  0  0  0  0  0  0  0  0
    7.8715  -13.5442   17.7904 C   0  0  0  0  0  0  0  0  0  0  0  0
    7.3170  -13.1804   18.9591 N   0  0  0  0  0  0  0  0  0  0  0  0
    8.4606  -14.3812   23.7225 C   0  0  0  0  0  0  0  0  0  0  0  0
    8.8963  -13.2063   23.9889 O   0  0  0  0  0  0  0  0  0  0  0  0
    7.8378  -12.3748   25.6235 C   0  0  0  0  0  0  0  0  0  0  0  0
    7.5744  -13.5463   26.5132 C   0  0  1  0  0  0  0  0  0  0  0  0
    6.1228  -13.8812   26.4906 C   0  0  0  0  0  0  0  0  0  0  0  0
    8.4708  -14.7331   26.2125 C   0  0  2  0  0  0  0  0  0  0  0  0
    8.2963  -15.2142   24.8716 N   0  0  0  0  0  0  0  0  0  0  0  0
    8.3127  -15.7442   27.2663 C   0  0  0  0  0  0  0  0  0  0  0  0
    8.5884  -15.5298   28.6033 O   0  0  0  0  0  0  0  0  0  0  0  0
    7.8982  -16.9069   26.9765 O   0  0  0  0  0  0  0  0  0  0  0  0
  2  1  1  6
  2  4  1  0
  3  2  1  0
  4  5  2  0
  4  6  1  0
  6  7  1  0
  7 14  1  0
  7  8  1  6
  9  8  1  0
 10  9  2  0
 11 10  1  0
 12 11  1  0
 12 13  2  0
 13  9  1  0
 14 20  1  0
 14 15  2  0
 17 18  1  6
 17 16  1  0
 19 21  1  0
 19 17  1  0
 19 20  1  6
 21 22  1  0
 23 21  2  0
M  END
$$$$
