AHV.pdb
     RDKit          3D

 23 23  0  0  1  0  0  0  0  0999 V2000
    8.6164  -12.3539   19.4106 C   0  0  0  0  0  0  0  0  0  0  0  0
    8.4735  -13.8397   19.3313 C   0  0  2  0  0  0  0  0  0  0  0  0
    7.7380  -14.2997   18.1929 N   0  0  0  0  0  0  0  0  0  0  0  0
    7.9172  -14.3586   20.6226 C   0  0  0  0  0  0  0  0  0  0  0  0
    6.6749  -14.2353   20.7727 O   0  0  0  0  0  0  0  0  0  0  0  0
    8.7413  -14.9476   21.6046 N   0  0  0  0  0  0  0  0  0  0  0  0
    8.1867  -15.6433   22.7845 C   0  0  1  0  0  0  0  0  0  0  0  0
    8.5816  -17.0736   22.7457 C   0  0  0  0  0  0  0  0  0  0  0  0
    7.9415  -17.9261   21.7346 C   0  0  0  0  0  0  0  0  0  0  0  0
    6.9449  -17.5892   20.8108 C   0  0  0  0  0  0  0  0  0  0  0  0
    6.5947  -18.6607   20.0809 N   0  0  0  0  0  0  0  0  0  0  0  0
    7.3449  -19.6901   20.5121 C   0  0  0  0  0  0  0  0  0  0  0  0
    8.1488  -19.2564   21.4977 N   0  0  0  0  0  0  0  0  0  0  0  0
    8.6001  -14.8583   23.9532 C   0  0  0  0  0  0  0  0  0  0  0  0
    9.8165  -14.4733   24.0687 O   0  0  0  0  0  0  0  0  0  0  0  0
    7.1105  -11.5923   25.5992 C   0  0  0  0  0  0  0  0  0  0  0  0
    7.3080  -12.6519   26.6344 C   0  0  1  0  0  0  0  0  0  0  0  0
    5.9854  -13.1587   27.0968 C   0  0  0  0  0  0  0  0  0  0  0  0
    8.2507  -13.7525   26.1846 C   0  0  2  0  0  0  0  0  0  0  0  0
    7.7561  -14.4474   25.0303 N   0  0  0  0  0  0  0  0  0  0  0  0
    8.5890  -14.6052   27.3319 C   0  0  0  0  0  0  0  0  0  0  0  0
    9.2697  -14.1724   28.4538 O   0  0  0  0  0  0  0  0  0  0  0  0
    8.2543  -15.8281   27.3373 O   0  0  0  0  0  0  0  0  0  0  0  0
  2  1  1  1
  2  4  1  0
  3  2  1  0
  4  5  2  0
  4  6  1  0
  6  7  1  0
  7 14  1  0
  7  8  1  1
  9  8  1  0
 10  9  2  0
 11 10  1  0
 12 11  1  0
 12 13  2  0
 13  9  1  0
 14 20  1  0
 14 15  2  0
 17 18  1  6
 17 16  1  0
 19 21  1  0
 19 17  1  0
 19 20  1  6
 21 22  1  0
 23 21  2  0
M  END
$$$$
