FRP.pdb
     RDKit          3D

 30 31  0  0  1  0  0  0  0  0999 V2000
    7.1140  -17.3896   20.1674 N   0  0  0  0  0  0  0  0  0  0  0  0
    7.1062  -16.1472   20.8750 C   0  0  1  0  0  0  0  0  0  0  0  0
    6.1892  -15.1253   20.2937 C   0  0  0  0  0  0  0  0  0  0  0  0
    7.0565  -14.0080   19.7748 C   0  0  0  0  0  0  0  0  0  0  0  0
    7.3926  -12.9612   20.5798 C   0  0  0  0  0  0  0  0  0  0  0  0
    8.1952  -11.9497   20.0643 C   0  0  0  0  0  0  0  0  0  0  0  0
    8.6380  -12.0126   18.7624 C   0  0  0  0  0  0  0  0  0  0  0  0
    8.2781  -13.0904   17.9709 C   0  0  0  0  0  0  0  0  0  0  0  0
    7.4805  -14.1046   18.4687 C   0  0  0  0  0  0  0  0  0  0  0  0
    6.7455  -16.3327   22.3194 C   0  0  0  0  0  0  0  0  0  0  0  0
    5.5441  -16.3631   22.6848 O   0  0  0  0  0  0  0  0  0  0  0  0
    6.7816  -21.1764   29.1413 N   0  0  0  0  0  0  0  0  0  0  0  0
    6.5178  -21.4045   27.7734 C   0  0  0  0  0  0  0  0  0  0  0  0
    5.7684  -22.3613   27.3261 N   0  0  0  0  0  0  0  0  0  0  0  0
    7.0978  -20.5459   26.8110 N   0  0  0  0  0  0  0  0  0  0  0  0
    8.0503  -19.5284   27.0876 C   0  0  0  0  0  0  0  0  0  0  0  0
    7.6189  -18.1337   26.6886 C   0  0  0  0  0  0  0  0  0  0  0  0
    7.7989  -17.9620   25.1972 C   0  0  0  0  0  0  0  0  0  0  0  0
    7.4902  -16.5831   24.6979 C   0  0  2  0  0  0  0  0  0  0  0  0
    7.7885  -16.4724   23.2699 N   0  0  0  0  0  0  0  0  0  0  0  0
    8.4061  -15.6563   25.4550 C   0  0  0  0  0  0  0  0  0  0  0  0
    9.6439  -15.9014   25.3409 O   0  0  0  0  0  0  0  0  0  0  0  0
    5.6956  -22.4159   26.2688 N   0  0  0  0  0  0  0  0  0  0  0  0
    7.9364  -14.5877   26.2372 C   0  0  0  0  0  0  0  0  0  0  0  0
    6.5934  -14.1097   26.4313 C   0  0  0  0  0  0  0  0  0  0  0  0
    6.7893  -12.5889   26.5815 C   0  0  0  0  0  0  0  0  0  0  0  0
    7.9872  -12.5705   27.5024 C   0  0  2  0  0  0  0  0  0  0  0  0
    8.8117  -13.7229   27.0260 C   0  0  0  0  0  0  0  0  0  0  0  0
    9.4461  -14.4895   28.1306 O   0  0  0  0  0  0  0  0  0  0  0  0
   10.5098  -13.9546   28.8149 O   0  0  0  0  0  0  0  0  0  0  0  0
  2 10  1  0
  2  1  1  6
  3  4  1  0
  3  2  1  0
  4  9  2  0
  5  6  2  0
  5  4  1  0
  6  7  1  0
  7  8  2  0
  9  8  1  0
 10 20  1  0
 11 10  2  0
 13 15  1  0
 13 12  1  0
 14 13  2  0
 16 17  1  0
 16 15  1  0
 17 18  1  0
 19 18  1  1
 19 21  1  0
 20 19  1  0
 21 22  2  0
 21 23  1  0
 23 27  1  0
 24 23  1  0
 25 26  1  0
 25 24  1  0
 26 27  1  0
 27 28  1  1
 28 30  2  0
 28 29  1  0
M  END
$$$$
