FRP.pdb
     RDKit          3D

 30 31  0  0  1  0  0  0  0  0999 V2000
    5.7393  -17.8776   25.7458 N   0  0  0  0  0  0  0  0  0  0  0  0
    6.3438  -16.5957   25.5580 C   0  0  1  0  0  0  0  0  0  0  0  0
    7.2037  -16.1594   26.6953 C   0  0  0  0  0  0  0  0  0  0  0  0
    7.1087  -14.6572   26.7608 C   0  0  0  0  0  0  0  0  0  0  0  0
    5.8994  -14.0354   26.6730 C   0  0  0  0  0  0  0  0  0  0  0  0
    5.8528  -12.6473   26.7380 C   0  0  0  0  0  0  0  0  0  0  0  0
    7.0131  -11.9219   26.8885 C   0  0  0  0  0  0  0  0  0  0  0  0
    8.2258  -12.5849   26.9745 C   0  0  0  0  0  0  0  0  0  0  0  0
    8.2889  -13.9650   26.9116 C   0  0  0  0  0  0  0  0  0  0  0  0
    7.1658  -16.5473   24.3039 C   0  0  0  0  0  0  0  0  0  0  0  0
    7.8376  -17.5424   23.9350 O   0  0  0  0  0  0  0  0  0  0  0  0
    7.7709  -15.8304   17.3902 N   0  0  0  0  0  0  0  0  0  0  0  0
    8.2848  -14.5675   17.0245 C   0  0  0  0  0  0  0  0  0  0  0  0
    8.8604  -14.3158   15.8921 N   0  0  0  0  0  0  0  0  0  0  0  0
    8.1755  -13.4927   17.9370 N   0  0  0  0  0  0  0  0  0  0  0  0
    7.5672  -13.5639   19.2192 C   0  0  0  0  0  0  0  0  0  0  0  0
    8.5341  -13.7577   20.3673 C   0  0  0  0  0  0  0  0  0  0  0  0
    7.7563  -13.9264   21.6530 C   0  0  0  0  0  0  0  0  0  0  0  0
    7.8026  -15.3132   22.2191 C   0  0  2  0  0  0  0  0  0  0  0  0
    7.1727  -15.3533   23.5390 N   0  0  0  0  0  0  0  0  0  0  0  0
    9.2642  -15.6470   22.3723 C   0  0  0  0  0  0  0  0  0  0  0  0
    9.8351  -15.1406   23.3836 O   0  0  0  0  0  0  0  0  0  0  0  0
    9.1860  -13.3134   15.7685 N   0  0  0  0  0  0  0  0  0  0  0  0
    9.9612  -16.4635   21.4656 C   0  0  0  0  0  0  0  0  0  0  0  0
    9.4963  -17.1202   20.2730 C   0  0  0  0  0  0  0  0  0  0  0  0
   10.3169  -18.4241   20.2576 C   0  0  0  0  0  0  0  0  0  0  0  0
   11.6792  -17.8784   20.6177 C   0  0  2  0  0  0  0  0  0  0  0  0
   11.3739  -16.8072   21.6148 C   0  0  0  0  0  0  0  0  0  0  0  0
   12.2250  -15.5981   21.4592 O   0  0  0  0  0  0  0  0  0  0  0  0
   13.4991  -15.5848   21.9712 O   0  0  0  0  0  0  0  0  0  0  0  0
  2 10  1  0
  2  1  1  1
  3  4  1  0
  3  2  1  0
  4  9  2  0
  5  6  2  0
  5  4  1  0
  6  7  1  0
  7  8  2  0
  9  8  1  0
 10 20  1  0
 11 10  2  0
 13 15  1  0
 13 12  1  0
 14 13  2  0
 16 17  1  0
 16 15  1  0
 17 18  1  0
 19 18  1  1
 19 21  1  0
 20 19  1  0
 21 22  2  0
 21 23  1  0
 23 27  1  0
 24 23  1  0
 25 26  1  0
 25 24  1  0
 26 27  1  0
 27 28  1  6
 28 30  2  0
 28 29  1  0
M  END
$$$$
