FRP.pdb
     RDKit          3D

 30 31  0  0  1  0  0  0  0  0999 V2000
    5.6678  -17.7817   25.7454 N   0  0  0  0  0  0  0  0  0  0  0  0
    6.3704  -16.5540   25.5373 C   0  0  1  0  0  0  0  0  0  0  0  0
    7.3094  -16.1995   26.6399 C   0  0  0  0  0  0  0  0  0  0  0  0
    7.2999  -14.6972   26.7528 C   0  0  0  0  0  0  0  0  0  0  0  0
    6.1234  -14.0182   26.8596 C   0  0  0  0  0  0  0  0  0  0  0  0
    6.1561  -12.6320   26.9621 C   0  0  0  0  0  0  0  0  0  0  0  0
    7.3604  -11.9653   26.9550 C   0  0  0  0  0  0  0  0  0  0  0  0
    8.5381  -12.6856   26.8450 C   0  0  0  0  0  0  0  0  0  0  0  0
    8.5225  -14.0646   26.7423 C   0  0  0  0  0  0  0  0  0  0  0  0
    7.1421  -16.5666   24.2508 C   0  0  0  0  0  0  0  0  0  0  0  0
    7.7667  -17.5928   23.8841 O   0  0  0  0  0  0  0  0  0  0  0  0
    8.7113  -15.5166   17.6275 N   0  0  0  0  0  0  0  0  0  0  0  0
    8.4926  -14.2236   17.1049 C   0  0  0  0  0  0  0  0  0  0  0  0
    8.2604  -13.9727   15.8558 N   0  0  0  0  0  0  0  0  0  0  0  0
    8.5240  -13.1153   17.9827 N   0  0  0  0  0  0  0  0  0  0  0  0
    8.6544  -13.1914   19.3956 C   0  0  0  0  0  0  0  0  0  0  0  0
    7.5774  -13.9991   20.0870 C   0  0  0  0  0  0  0  0  0  0  0  0
    7.8255  -13.9901   21.5785 C   0  0  0  0  0  0  0  0  0  0  0  0
    7.9018  -15.3541   22.1948 C   0  0  2  0  0  0  0  0  0  0  0  0
    7.1556  -15.3947   23.4526 N   0  0  0  0  0  0  0  0  0  0  0  0
    9.3602  -15.5910   22.4916 C   0  0  0  0  0  0  0  0  0  0  0  0
    9.8352  -14.9207   23.4560 O   0  0  0  0  0  0  0  0  0  0  0  0
    8.2070  -12.9421   15.6087 N   0  0  0  0  0  0  0  0  0  0  0  0
   10.1530  -16.4911   21.7596 C   0  0  0  0  0  0  0  0  0  0  0  0
    9.7886  -17.3751   20.6848 C   0  0  0  0  0  0  0  0  0  0  0  0
   10.7028  -18.5932   20.9179 C   0  0  0  0  0  0  0  0  0  0  0  0
   12.0048  -17.8877   21.2184 C   0  0  2  0  0  0  0  0  0  0  0  0
   11.5796  -16.6909   22.0069 C   0  0  0  0  0  0  0  0  0  0  0  0
   12.3454  -15.4617   21.6705 O   0  0  0  0  0  0  0  0  0  0  0  0
   13.5591  -15.2241   22.2674 O   0  0  0  0  0  0  0  0  0  0  0  0
  2 10  1  0
  2  1  1  1
  3  4  1  0
  3  2  1  0
  4  9  2  0
  5  6  2  0
  5  4  1  0
  6  7  1  0
  7  8  2  0
  9  8  1  0
 10 20  1  0
 11 10  2  0
 13 15  1  0
 13 12  1  0
 14 13  2  0
 16 17  1  0
 16 15  1  0
 17 18  1  0
 19 18  1  1
 19 21  1  0
 20 19  1  0
 21 22  2  0
 21 23  1  0
 23 27  1  0
 24 23  1  0
 25 26  1  0
 25 24  1  0
 26 27  1  0
 27 28  1  6
 28 30  2  0
 28 29  1  0
M  END
$$$$
