FRP.pdb
     RDKit          3D

 30 31  0  0  1  0  0  0  0  0999 V2000
    6.4872  -17.7443   19.8140 N   0  0  0  0  0  0  0  0  0  0  0  0
    6.8150  -16.4677   20.3681 C   0  0  1  0  0  0  0  0  0  0  0  0
    6.0974  -15.3279   19.7286 C   0  0  0  0  0  0  0  0  0  0  0  0
    6.9061  -14.0894   20.0151 C   0  0  0  0  0  0  0  0  0  0  0  0
    6.6499  -13.3355   21.1208 C   0  0  0  0  0  0  0  0  0  0  0  0
    7.4184  -12.1998   21.3508 C   0  0  0  0  0  0  0  0  0  0  0  0
    8.4184  -11.8506   20.4716 C   0  0  0  0  0  0  0  0  0  0  0  0
    8.6528  -12.6387   19.3573 C   0  0  0  0  0  0  0  0  0  0  0  0
    7.8973  -13.7713   19.1144 C   0  0  0  0  0  0  0  0  0  0  0  0
    6.5511  -16.4183   21.8442 C   0  0  0  0  0  0  0  0  0  0  0  0
    5.3799  -16.3152   22.2862 O   0  0  0  0  0  0  0  0  0  0  0  0
    8.8814  -21.0206   28.2204 N   0  0  0  0  0  0  0  0  0  0  0  0
    7.9062  -20.1017   28.6650 C   0  0  0  0  0  0  0  0  0  0  0  0
    7.9200  -19.5310   29.8274 N   0  0  0  0  0  0  0  0  0  0  0  0
    6.8361  -19.7673   27.8031 N   0  0  0  0  0  0  0  0  0  0  0  0
    6.9645  -19.4303   26.4287 C   0  0  0  0  0  0  0  0  0  0  0  0
    7.7233  -18.1486   26.1605 C   0  0  0  0  0  0  0  0  0  0  0  0
    7.8694  -17.9569   24.6678 C   0  0  0  0  0  0  0  0  0  0  0  0
    7.4390  -16.6073   24.1788 C   0  0  2  0  0  0  0  0  0  0  0  0
    7.6512  -16.4891   22.7360 N   0  0  0  0  0  0  0  0  0  0  0  0
    8.3279  -15.6124   24.8798 C   0  0  0  0  0  0  0  0  0  0  0  0
    9.5566  -15.6723   24.5768 O   0  0  0  0  0  0  0  0  0  0  0  0
    7.1809  -18.7824   29.9673 N   0  0  0  0  0  0  0  0  0  0  0  0
    7.8433  -14.6749   25.8076 C   0  0  0  0  0  0  0  0  0  0  0  0
    6.4892  -14.3663   26.1826 C   0  0  0  0  0  0  0  0  0  0  0  0
    6.5477  -12.8523   26.4624 C   0  0  0  0  0  0  0  0  0  0  0  0
    7.8324  -12.7835   27.2549 C   0  0  2  0  0  0  0  0  0  0  0  0
    8.7099  -13.7919   26.5857 C   0  0  0  0  0  0  0  0  0  0  0  0
    9.5363  -14.5783   27.5392 O   0  0  0  0  0  0  0  0  0  0  0  0
   10.6022  -13.9882   28.1727 O   0  0  0  0  0  0  0  0  0  0  0  0
  2 10  1  0
  2  1  1  6
  3  4  1  0
  3  2  1  0
  4  9  2  0
  5  6  2  0
  5  4  1  0
  6  7  1  0
  7  8  2  0
  9  8  1  0
 10 20  1  0
 11 10  2  0
 13 15  1  0
 13 12  1  0
 14 13  2  0
 16 17  1  0
 16 15  1  0
 17 18  1  0
 19 18  1  1
 19 21  1  0
 20 19  1  0
 21 22  2  0
 21 23  1  0
 23 27  1  0
 24 23  1  0
 25 26  1  0
 25 24  1  0
 26 27  1  0
 27 28  1  1
 28 30  2  0
 28 29  1  0
M  END
$$$$
