FRP.pdb
     RDKit          3D

 30 31  0  0  1  0  0  0  0  0999 V2000
    7.2746  -17.7948   20.2095 N   0  0  0  0  0  0  0  0  0  0  0  0
    7.1859  -16.4881   20.7829 C   0  0  1  0  0  0  0  0  0  0  0  0
    6.2670  -15.5680   20.0534 C   0  0  0  0  0  0  0  0  0  0  0  0
    7.0178  -14.2783   19.8459 C   0  0  0  0  0  0  0  0  0  0  0  0
    6.9866  -13.2988   20.7927 C   0  0  0  0  0  0  0  0  0  0  0  0
    7.6928  -12.1231   20.5646 C   0  0  0  0  0  0  0  0  0  0  0  0
    8.4081  -11.9598   19.3998 C   0  0  0  0  0  0  0  0  0  0  0  0
    8.4189  -12.9750   18.4580 C   0  0  0  0  0  0  0  0  0  0  0  0
    7.7218  -14.1504   18.6699 C   0  0  0  0  0  0  0  0  0  0  0  0
    6.7544  -16.5395   22.2189 C   0  0  0  0  0  0  0  0  0  0  0  0
    5.6739  -17.0892   22.5477 O   0  0  0  0  0  0  0  0  0  0  0  0
   11.2784  -18.5329   21.8879 N   0  0  0  0  0  0  0  0  0  0  0  0
   11.7612  -19.1295   23.0727 C   0  0  0  0  0  0  0  0  0  0  0  0
   12.9125  -19.7133   23.1772 N   0  0  0  0  0  0  0  0  0  0  0  0
   10.9536  -19.1001   24.2332 N   0  0  0  0  0  0  0  0  0  0  0  0
    9.5616  -18.8154   24.2569 C   0  0  0  0  0  0  0  0  0  0  0  0
    9.1595  -17.7062   25.2046 C   0  0  0  0  0  0  0  0  0  0  0  0
    7.6685  -17.4769   25.1022 C   0  0  0  0  0  0  0  0  0  0  0  0
    7.2909  -16.1067   24.6270 C   0  0  2  0  0  0  0  0  0  0  0  0
    7.5900  -15.9534   23.2031 N   0  0  0  0  0  0  0  0  0  0  0  0
    8.1536  -15.1481   25.4068 C   0  0  0  0  0  0  0  0  0  0  0  0
    9.3992  -15.2408   25.1947 O   0  0  0  0  0  0  0  0  0  0  0  0
   13.0978  -20.1728   24.1156 N   0  0  0  0  0  0  0  0  0  0  0  0
    7.6287  -14.2084   26.3102 C   0  0  0  0  0  0  0  0  0  0  0  0
    6.2595  -13.9043   26.6301 C   0  0  0  0  0  0  0  0  0  0  0  0
    6.3001  -12.3887   26.9044 C   0  0  0  0  0  0  0  0  0  0  0  0
    7.5523  -12.3102   27.7465 C   0  0  2  0  0  0  0  0  0  0  0  0
    8.4600  -13.3177   27.1174 C   0  0  0  0  0  0  0  0  0  0  0  0
    9.2517  -14.0957   28.1066 O   0  0  0  0  0  0  0  0  0  0  0  0
   10.2560  -13.4840   28.8158 O   0  0  0  0  0  0  0  0  0  0  0  0
  2 10  1  0
  2  1  1  6
  3  4  1  0
  3  2  1  0
  4  9  2  0
  5  6  2  0
  5  4  1  0
  6  7  1  0
  7  8  2  0
  9  8  1  0
 10 20  1  0
 11 10  2  0
 13 15  1  0
 13 12  1  0
 14 13  2  0
 16 17  1  0
 16 15  1  0
 17 18  1  0
 19 18  1  1
 19 21  1  0
 20 19  1  0
 21 22  2  0
 21 23  1  0
 23 27  1  0
 24 23  1  0
 25 26  1  0
 25 24  1  0
 26 27  1  0
 27 28  1  1
 28 30  2  0
 28 29  1  0
M  END
$$$$
