FRP.pdb
     RDKit          3D

 30 31  0  0  1  0  0  0  0  0999 V2000
    5.7298  -17.4760   26.2317 N   0  0  0  0  0  0  0  0  0  0  0  0
    6.4275  -16.3114   25.7835 C   0  0  1  0  0  0  0  0  0  0  0  0
    7.3931  -15.7636   26.7789 C   0  0  0  0  0  0  0  0  0  0  0  0
    7.4066  -14.2684   26.5941 C   0  0  0  0  0  0  0  0  0  0  0  0
    6.2495  -13.5518   26.6620 C   0  0  0  0  0  0  0  0  0  0  0  0
    6.3031  -12.1736   26.4865 C   0  0  0  0  0  0  0  0  0  0  0  0
    7.5083  -11.5522   26.2488 C   0  0  0  0  0  0  0  0  0  0  0  0
    8.6657  -12.3099   26.1859 C   0  0  0  0  0  0  0  0  0  0  0  0
    8.6292  -13.6815   26.3583 C   0  0  0  0  0  0  0  0  0  0  0  0
    7.1677  -16.5653   24.5035 C   0  0  0  0  0  0  0  0  0  0  0  0
    7.8279  -17.6212   24.3395 O   0  0  0  0  0  0  0  0  0  0  0  0
    9.6732  -15.1391   16.7633 N   0  0  0  0  0  0  0  0  0  0  0  0
    8.9800  -13.9114   16.8345 C   0  0  0  0  0  0  0  0  0  0  0  0
    8.4531  -13.3125   15.8143 N   0  0  0  0  0  0  0  0  0  0  0  0
    8.8389  -13.2759   18.0899 N   0  0  0  0  0  0  0  0  0  0  0  0
    7.8557  -13.5951   19.0649 C   0  0  0  0  0  0  0  0  0  0  0  0
    8.1721  -14.8127   19.9062 C   0  0  0  0  0  0  0  0  0  0  0  0
    7.5845  -14.6325   21.2877 C   0  0  0  0  0  0  0  0  0  0  0  0
    7.7639  -15.8165   22.1887 C   0  0  2  0  0  0  0  0  0  0  0  0
    7.1104  -15.5881   23.4776 N   0  0  0  0  0  0  0  0  0  0  0  0
    9.2486  -15.9397   22.4162 C   0  0  0  0  0  0  0  0  0  0  0  0
    9.7393  -15.1301   23.2581 O   0  0  0  0  0  0  0  0  0  0  0  0
    7.8599  -12.4648   16.0502 N   0  0  0  0  0  0  0  0  0  0  0  0
   10.0485  -16.8834   21.7497 C   0  0  0  0  0  0  0  0  0  0  0  0
    9.6718  -17.9252   20.8320 C   0  0  0  0  0  0  0  0  0  0  0  0
   10.6809  -19.0448   21.1516 C   0  0  0  0  0  0  0  0  0  0  0  0
   11.9494  -18.2303   21.2547 C   0  0  2  0  0  0  0  0  0  0  0  0
   11.4991  -16.9641   21.9096 C   0  0  0  0  0  0  0  0  0  0  0  0
   12.1542  -15.7496   21.3561 O   0  0  0  0  0  0  0  0  0  0  0  0
   13.4198  -15.4062   21.7634 O   0  0  0  0  0  0  0  0  0  0  0  0
  2 10  1  0
  2  1  1  1
  3  4  1  0
  3  2  1  0
  4  9  2  0
  5  6  2  0
  5  4  1  0
  6  7  1  0
  7  8  2  0
  9  8  1  0
 10 20  1  0
 11 10  2  0
 13 15  1  0
 13 12  1  0
 14 13  2  0
 16 17  1  0
 16 15  1  0
 17 18  1  0
 19 18  1  6
 19 21  1  0
 20 19  1  0
 21 22  2  0
 21 23  1  0
 23 27  1  0
 24 23  1  0
 25 26  1  0
 25 24  1  0
 26 27  1  0
 27 28  1  6
 28 30  2  0
 28 29  1  0
M  END
$$$$
