FRP.pdb
     RDKit          3D

 30 31  0  0  1  0  0  0  0  0999 V2000
    5.8183  -17.2815   26.0289 N   0  0  0  0  0  0  0  0  0  0  0  0
    6.5049  -16.1369   25.5162 C   0  0  1  0  0  0  0  0  0  0  0  0
    7.4463  -15.5102   26.4879 C   0  0  0  0  0  0  0  0  0  0  0  0
    7.0251  -14.0712   26.6348 C   0  0  0  0  0  0  0  0  0  0  0  0
    7.8346  -13.1734   27.2636 C   0  0  0  0  0  0  0  0  0  0  0  0
    7.4108  -11.8542   27.3789 C   0  0  0  0  0  0  0  0  0  0  0  0
    6.1931  -11.4706   26.8640 C   0  0  0  0  0  0  0  0  0  0  0  0
    5.3944  -12.4081   26.2309 C   0  0  0  0  0  0  0  0  0  0  0  0
    5.8016  -13.7240   26.1080 C   0  0  0  0  0  0  0  0  0  0  0  0
    7.2688  -16.4609   24.2663 C   0  0  0  0  0  0  0  0  0  0  0  0
    7.6943  -17.6235   24.0544 O   0  0  0  0  0  0  0  0  0  0  0  0
    7.9268  -12.6556   16.3273 N   0  0  0  0  0  0  0  0  0  0  0  0
    8.2348  -14.0295   16.4302 C   0  0  0  0  0  0  0  0  0  0  0  0
    8.2061  -14.8586   15.4357 N   0  0  0  0  0  0  0  0  0  0  0  0
    8.6012  -14.5573   17.6899 N   0  0  0  0  0  0  0  0  0  0  0  0
    8.6941  -13.8117   18.8960 C   0  0  0  0  0  0  0  0  0  0  0  0
    9.2709  -14.5756   20.0683 C   0  0  0  0  0  0  0  0  0  0  0  0
    8.3368  -14.4564   21.2512 C   0  0  0  0  0  0  0  0  0  0  0  0
    8.2679  -15.6872   22.1035 C   0  0  2  0  0  0  0  0  0  0  0  0
    7.5046  -15.4275   23.3244 N   0  0  0  0  0  0  0  0  0  0  0  0
    9.6912  -16.0054   22.4833 C   0  0  0  0  0  0  0  0  0  0  0  0
   10.1860  -15.2798   23.3966 O   0  0  0  0  0  0  0  0  0  0  0  0
    8.5325  -15.8422   15.6635 N   0  0  0  0  0  0  0  0  0  0  0  0
   10.4326  -17.0337   21.8773 C   0  0  0  0  0  0  0  0  0  0  0  0
   10.0324  -17.9952   20.8849 C   0  0  0  0  0  0  0  0  0  0  0  0
   10.8409  -19.2473   21.2752 C   0  0  0  0  0  0  0  0  0  0  0  0
   12.1846  -18.6137   21.5514 C   0  0  2  0  0  0  0  0  0  0  0  0
   11.8311  -17.3128   22.1975 C   0  0  0  0  0  0  0  0  0  0  0  0
   12.7005  -16.1862   21.7670 O   0  0  0  0  0  0  0  0  0  0  0  0
   12.3019  -15.3643   20.7417 O   0  0  0  0  0  0  0  0  0  0  0  0
  2 10  1  0
  2  1  1  1
  3  4  1  0
  3  2  1  0
  4  9  2  0
  5  6  2  0
  5  4  1  0
  6  7  1  0
  7  8  2  0
  9  8  1  0
 10 20  1  0
 11 10  2  0
 13 15  1  0
 13 12  1  0
 14 13  2  0
 16 17  1  0
 16 15  1  0
 17 18  1  0
 19 18  1  6
 19 21  1  0
 20 19  1  0
 21 22  2  0
 21 23  1  0
 23 27  1  0
 24 23  1  0
 25 26  1  0
 25 24  1  0
 26 27  1  0
 27 28  1  6
 28 30  2  0
 28 29  1  0
M  END
$$$$
