FRP.pdb
     RDKit          3D

 30 31  0  0  1  0  0  0  0  0999 V2000
    5.5395  -16.7260   24.9541 N   0  0  0  0  0  0  0  0  0  0  0  0
    6.6147  -15.7930   24.8206 C   0  0  1  0  0  0  0  0  0  0  0  0
    7.1623  -15.3104   26.1207 C   0  0  0  0  0  0  0  0  0  0  0  0
    6.8527  -13.8382   26.2031 C   0  0  0  0  0  0  0  0  0  0  0  0
    7.5201  -12.9452   25.4196 C   0  0  0  0  0  0  0  0  0  0  0  0
    7.2056  -11.5950   25.5243 C   0  0  0  0  0  0  0  0  0  0  0  0
    6.2355  -11.1764   26.4068 C   0  0  0  0  0  0  0  0  0  0  0  0
    5.5760  -12.1099   27.1886 C   0  0  0  0  0  0  0  0  0  0  0  0
    5.8773  -13.4565   27.0962 C   0  0  0  0  0  0  0  0  0  0  0  0
    7.7471  -16.3615   24.0174 C   0  0  0  0  0  0  0  0  0  0  0  0
    8.0862  -17.5644   24.1434 O   0  0  0  0  0  0  0  0  0  0  0  0
    8.3801  -15.4326   17.4442 N   0  0  0  0  0  0  0  0  0  0  0  0
    8.2380  -14.0418   17.2484 C   0  0  0  0  0  0  0  0  0  0  0  0
    7.6928  -13.5055   16.2032 N   0  0  0  0  0  0  0  0  0  0  0  0
    8.7137  -13.1573   18.2441 N   0  0  0  0  0  0  0  0  0  0  0  0
    9.5292  -13.5267   19.3475 C   0  0  0  0  0  0  0  0  0  0  0  0
    8.9675  -14.6414   20.2033 C   0  0  0  0  0  0  0  0  0  0  0  0
    9.9615  -14.9880   21.2886 C   0  0  0  0  0  0  0  0  0  0  0  0
    9.4847  -16.0417   22.2417 C   0  0  2  0  0  0  0  0  0  0  0  0
    8.4323  -15.5139   23.1104 N   0  0  0  0  0  0  0  0  0  0  0  0
   10.6772  -16.3985   23.0914 C   0  0  0  0  0  0  0  0  0  0  0  0
   10.9706  -15.5619   23.9964 O   0  0  0  0  0  0  0  0  0  0  0  0
    7.7089  -12.4447   16.1845 N   0  0  0  0  0  0  0  0  0  0  0  0
   11.4228  -17.5752   22.9068 C   0  0  0  0  0  0  0  0  0  0  0  0
   11.2060  -18.6694   21.9985 C   0  0  0  0  0  0  0  0  0  0  0  0
   11.6982  -19.8867   22.8046 C   0  0  0  0  0  0  0  0  0  0  0  0
   12.9747  -19.3188   23.3802 C   0  0  2  0  0  0  0  0  0  0  0  0
   12.6206  -17.8976   23.6799 C   0  0  0  0  0  0  0  0  0  0  0  0
   13.7154  -16.9403   23.3707 O   0  0  0  0  0  0  0  0  0  0  0  0
   13.6726  -16.1979   22.2163 O   0  0  0  0  0  0  0  0  0  0  0  0
  2 10  1  0
  2  1  1  1
  3  4  1  0
  3  2  1  0
  4  9  2  0
  5  6  2  0
  5  4  1  0
  6  7  1  0
  7  8  2  0
  9  8  1  0
 10 20  1  0
 11 10  2  0
 13 15  1  0
 13 12  1  0
 14 13  2  0
 16 17  1  0
 16 15  1  0
 17 18  1  0
 19 18  1  6
 19 21  1  0
 20 19  1  0
 21 22  2  0
 21 23  1  0
 23 27  1  0
 24 23  1  0
 25 26  1  0
 25 24  1  0
 26 27  1  0
 27 28  1  6
 28 30  2  0
 28 29  1  0
M  END
$$$$
