FRP.pdb
     RDKit          3D

 30 31  0  0  1  0  0  0  0  0999 V2000
    6.9062  -17.4018   26.8233 N   0  0  0  0  0  0  0  0  0  0  0  0
    7.0784  -16.2444   26.0017 C   0  0  1  0  0  0  0  0  0  0  0  0
    7.9851  -15.2158   26.5875 C   0  0  0  0  0  0  0  0  0  0  0  0
    7.1622  -13.9679   26.7761 C   0  0  0  0  0  0  0  0  0  0  0  0
    6.0850  -13.7216   25.9789 C   0  0  0  0  0  0  0  0  0  0  0  0
    5.3505  -12.5591   26.1844 C   0  0  0  0  0  0  0  0  0  0  0  0
    5.7124  -11.6780   27.1782 C   0  0  0  0  0  0  0  0  0  0  0  0
    6.8127  -11.9583   27.9709 C   0  0  0  0  0  0  0  0  0  0  0  0
    7.5536  -13.1102   27.7792 C   0  0  0  0  0  0  0  0  0  0  0  0
    7.5942  -16.6020   24.6390 C   0  0  0  0  0  0  0  0  0  0  0  0
    8.0603  -17.7448   24.4060 O   0  0  0  0  0  0  0  0  0  0  0  0
    8.9934  -12.2515   16.9867 N   0  0  0  0  0  0  0  0  0  0  0  0
    8.7541  -13.6006   16.6465 C   0  0  0  0  0  0  0  0  0  0  0  0
    8.9899  -14.1100   15.4794 N   0  0  0  0  0  0  0  0  0  0  0  0
    8.2233  -14.4708   17.6267 N   0  0  0  0  0  0  0  0  0  0  0  0
    8.1520  -14.1928   19.0184 C   0  0  0  0  0  0  0  0  0  0  0  0
    7.4713  -15.2640   19.8427 C   0  0  0  0  0  0  0  0  0  0  0  0
    7.4939  -14.8631   21.3004 C   0  0  0  0  0  0  0  0  0  0  0  0
    7.8869  -15.9682   22.2334 C   0  0  2  0  0  0  0  0  0  0  0  0
    7.5476  -15.6232   23.6141 N   0  0  0  0  0  0  0  0  0  0  0  0
    9.3848  -16.0891   22.1209 C   0  0  0  0  0  0  0  0  0  0  0  0
   10.0493  -15.1769   22.6968 O   0  0  0  0  0  0  0  0  0  0  0  0
    8.8733  -15.1630   15.4189 N   0  0  0  0  0  0  0  0  0  0  0  0
   10.0177  -17.1361   21.4298 C   0  0  0  0  0  0  0  0  0  0  0  0
    9.4458  -18.2590   20.7357 C   0  0  0  0  0  0  0  0  0  0  0  0
   10.4763  -19.3769   20.9847 C   0  0  0  0  0  0  0  0  0  0  0  0
   11.7556  -18.6110   20.7393 C   0  0  2  0  0  0  0  0  0  0  0  0
   11.4692  -17.2602   21.3120 C   0  0  0  0  0  0  0  0  0  0  0  0
   12.0245  -16.1461   20.4989 O   0  0  0  0  0  0  0  0  0  0  0  0
   13.3155  -15.7247   20.7025 O   0  0  0  0  0  0  0  0  0  0  0  0
  2 10  1  0
  2  1  1  1
  3  4  1  0
  3  2  1  0
  4  9  2  0
  5  6  2  0
  5  4  1  0
  6  7  1  0
  7  8  2  0
  9  8  1  0
 10 20  1  0
 11 10  2  0
 13 15  1  0
 13 12  1  0
 14 13  2  0
 16 17  1  0
 16 15  1  0
 17 18  1  0
 19 18  1  6
 19 21  1  0
 20 19  1  0
 21 22  2  0
 21 23  1  0
 23 27  1  0
 24 23  1  0
 25 26  1  0
 25 24  1  0
 26 27  1  0
 27 28  1  6
 28 30  2  0
 28 29  1  0
M  END
$$$$
