FRP.pdb
     RDKit          3D

 30 31  0  0  1  0  0  0  0  0999 V2000
    7.4811  -17.1351   20.6019 N   0  0  0  0  0  0  0  0  0  0  0  0
    7.4306  -15.7942   21.0955 C   0  0  1  0  0  0  0  0  0  0  0  0
    6.5416  -14.8925   20.3082 C   0  0  0  0  0  0  0  0  0  0  0  0
    7.4399  -14.0156   19.4750 C   0  0  0  0  0  0  0  0  0  0  0  0
    8.0257  -12.9111   20.0169 C   0  0  0  0  0  0  0  0  0  0  0  0
    8.8485  -12.1273   19.2158 C   0  0  0  0  0  0  0  0  0  0  0  0
    9.0620  -12.4685   17.8994 C   0  0  0  0  0  0  0  0  0  0  0  0
    8.4514  -13.5976   17.3798 C   0  0  0  0  0  0  0  0  0  0  0  0
    7.6303  -14.3876   18.1635 C   0  0  0  0  0  0  0  0  0  0  0  0
    6.9943  -15.7462   22.5301 C   0  0  0  0  0  0  0  0  0  0  0  0
    6.2537  -14.8217   22.9478 O   0  0  0  0  0  0  0  0  0  0  0  0
    8.6362  -19.9349   30.1935 N   0  0  0  0  0  0  0  0  0  0  0  0
    9.3908  -19.5188   29.0753 C   0  0  0  0  0  0  0  0  0  0  0  0
   10.6107  -19.0888   29.1392 N   0  0  0  0  0  0  0  0  0  0  0  0
    8.7978  -19.5659   27.7923 N   0  0  0  0  0  0  0  0  0  0  0  0
    7.4093  -19.4255   27.5248 C   0  0  0  0  0  0  0  0  0  0  0  0
    7.0078  -18.0812   26.9573 C   0  0  0  0  0  0  0  0  0  0  0  0
    7.3180  -18.0501   25.4778 C   0  0  0  0  0  0  0  0  0  0  0  0
    7.1226  -16.7085   24.8392 C   0  0  2  0  0  0  0  0  0  0  0  0
    7.4351  -16.7661   23.4111 N   0  0  0  0  0  0  0  0  0  0  0  0
    8.1063  -15.7854   25.5111 C   0  0  0  0  0  0  0  0  0  0  0  0
    9.3280  -16.0742   25.3401 O   0  0  0  0  0  0  0  0  0  0  0  0
   11.0639  -18.8871   28.2012 N   0  0  0  0  0  0  0  0  0  0  0  0
    7.7126  -14.6750   26.2770 C   0  0  0  0  0  0  0  0  0  0  0  0
    6.3966  -14.1534   26.5331 C   0  0  0  0  0  0  0  0  0  0  0  0
    6.6392  -12.6338   26.6100 C   0  0  0  0  0  0  0  0  0  0  0  0
    7.8919  -12.6127   27.4547 C   0  0  2  0  0  0  0  0  0  0  0  0
    8.6564  -13.8047   26.9756 C   0  0  0  0  0  0  0  0  0  0  0  0
    9.3387  -14.5452   28.0694 O   0  0  0  0  0  0  0  0  0  0  0  0
   10.4395  -14.0011   28.6843 O   0  0  0  0  0  0  0  0  0  0  0  0
  2 10  1  0
  2  1  1  6
  3  4  1  0
  3  2  1  0
  4  9  2  0
  5  6  2  0
  5  4  1  0
  6  7  1  0
  7  8  2  0
  9  8  1  0
 10 20  1  0
 11 10  2  0
 13 15  1  0
 13 12  1  0
 14 13  2  0
 16 17  1  0
 16 15  1  0
 17 18  1  0
 19 18  1  1
 19 21  1  0
 20 19  1  0
 21 22  2  0
 21 23  1  0
 23 27  1  0
 24 23  1  0
 25 26  1  0
 25 24  1  0
 26 27  1  0
 27 28  1  1
 28 30  2  0
 28 29  1  0
M  END
$$$$
