FPT.pdb
     RDKit          3D

 26 27  0  0  1  0  0  0  0  0999 V2000
    9.1365  -16.7865   25.8843 N   0  0  0  0  0  0  0  0  0  0  0  0
    7.9057  -16.1671   25.4618 C   0  0  1  0  0  0  0  0  0  0  0  0
    7.9346  -14.7072   25.8091 C   0  0  0  0  0  0  0  0  0  0  0  0
    8.7511  -14.5114   27.0269 C   0  0  0  0  0  0  0  0  0  0  0  0
    9.4891  -13.3618   27.1866 C   0  0  0  0  0  0  0  0  0  0  0  0
   10.2768  -13.1321   28.3062 C   0  0  0  0  0  0  0  0  0  0  0  0
   10.2985  -14.1054   29.2693 C   0  0  0  0  0  0  0  0  0  0  0  0
    9.5788  -15.2704   29.1553 C   0  0  0  0  0  0  0  0  0  0  0  0
    8.7945  -15.4685   28.0110 C   0  0  0  0  0  0  0  0  0  0  0  0
    7.5639  -16.4115   24.0457 C   0  0  0  0  0  0  0  0  0  0  0  0
    7.0152  -17.5356   23.7843 O   0  0  0  0  0  0  0  0  0  0  0  0
    7.8112  -15.4925   23.0236 N   0  0  0  0  0  0  0  0  0  0  0  0
    8.1977  -14.1044   23.1663 C   0  0  0  0  0  0  0  0  0  0  0  0
    8.4405  -13.6169   21.7284 C   0  0  0  0  0  0  0  0  0  0  0  0
    7.3853  -14.4566   21.0182 C   0  0  0  0  0  0  0  0  0  0  0  0
    7.7175  -15.8082   21.5891 C   0  0  1  0  0  0  0  0  0  0  0  0
    9.0687  -16.2658   21.1782 C   0  0  0  0  0  0  0  0  0  0  0  0
   10.1352  -15.7398   21.5894 O   0  0  0  0  0  0  0  0  0  0  0  0
    9.4833  -20.3110   20.8575 C   0  0  0  0  0  0  0  0  0  0  0  0
   10.0300  -19.5210   19.6921 C   0  0  1  0  0  0  0  0  0  0  0  0
    9.1225  -19.3660   18.6682 O   0  0  0  0  0  0  0  0  0  0  0  0
   10.4426  -18.1101   20.1301 C   0  0  2  0  0  0  0  0  0  0  0  0
    9.2090  -17.3602   20.2678 N   0  0  0  0  0  0  0  0  0  0  0  0
   11.2508  -17.4796   19.0602 C   0  0  0  0  0  0  0  0  0  0  0  0
   12.5599  -17.8240   18.8428 O   0  0  0  0  0  0  0  0  0  0  0  0
   10.7460  -16.5989   18.3139 O   0  0  0  0  0  0  0  0  0  0  0  0
  2 10  1  0
  2  1  1  6
  3  2  1  0
  4  9  1  0
  4  3  1  0
  5  4  2  0
  6  7  2  0
  6  5  1  0
  7  8  1  0
  8  9  2  0
 10 12  1  0
 11 10  2  0
 12 16  1  0
 12 13  1  0
 14 13  1  0
 15 14  1  0
 15 16  1  0
 16 17  1  6
 17 18  2  0
 20 19  1  1
 20 22  1  0
 21 20  1  0
 22 23  1  6
 23 17  1  0
 24 22  1  0
 25 24  1  0
 26 24  2  0
M  END
$$$$
