FPT.pdb
     RDKit          3D

 26 27  0  0  1  0  0  0  0  0999 V2000
    6.9676  -17.3184   26.9614 N   0  0  0  0  0  0  0  0  0  0  0  0
    6.6597  -16.4275   25.8711 C   0  0  1  0  0  0  0  0  0  0  0  0
    6.7173  -15.0073   26.3531 C   0  0  0  0  0  0  0  0  0  0  0  0
    8.0265  -14.7630   26.9966 C   0  0  0  0  0  0  0  0  0  0  0  0
    8.6940  -15.7926   27.6180 C   0  0  0  0  0  0  0  0  0  0  0  0
    9.9209  -15.6152   28.2424 C   0  0  0  0  0  0  0  0  0  0  0  0
   10.4602  -14.3565   28.2213 C   0  0  0  0  0  0  0  0  0  0  0  0
    9.8319  -13.2962   27.6137 C   0  0  0  0  0  0  0  0  0  0  0  0
    8.5941  -13.5123   26.9932 C   0  0  0  0  0  0  0  0  0  0  0  0
    7.4748  -16.6541   24.6602 C   0  0  0  0  0  0  0  0  0  0  0  0
    7.8322  -17.8608   24.4390 O   0  0  0  0  0  0  0  0  0  0  0  0
    7.8536  -15.6343   23.7843 N   0  0  0  0  0  0  0  0  0  0  0  0
    7.5617  -14.2212   23.9043 C   0  0  0  0  0  0  0  0  0  0  0  0
    8.3128  -13.5666   22.7332 C   0  0  0  0  0  0  0  0  0  0  0  0
    8.1799  -14.6927   21.7148 C   0  0  0  0  0  0  0  0  0  0  0  0
    8.6420  -15.8482   22.5600 C   0  0  1  0  0  0  0  0  0  0  0  0
   10.0658  -15.7092   22.9567 C   0  0  0  0  0  0  0  0  0  0  0  0
   10.4837  -14.8238   23.7471 O   0  0  0  0  0  0  0  0  0  0  0  0
   12.0504  -18.2379   24.8298 C   0  0  0  0  0  0  0  0  0  0  0  0
   12.6311  -18.0741   23.4454 C   0  0  1  0  0  0  0  0  0  0  0  0
   12.0714  -18.9241   22.5179 O   0  0  0  0  0  0  0  0  0  0  0  0
   12.4119  -16.6487   22.9227 C   0  0  2  0  0  0  0  0  0  0  0  0
   11.0467  -16.6101   22.4348 N   0  0  0  0  0  0  0  0  0  0  0  0
   13.3197  -16.3992   21.7787 C   0  0  0  0  0  0  0  0  0  0  0  0
   14.6425  -16.0867   21.9583 O   0  0  0  0  0  0  0  0  0  0  0  0
   12.8906  -16.4694   20.5962 O   0  0  0  0  0  0  0  0  0  0  0  0
  2 10  1  0
  2  1  1  1
  3  2  1  0
  4  9  1  0
  4  3  1  0
  5  4  2  0
  6  7  2  0
  6  5  1  0
  7  8  1  0
  8  9  2  0
 10 12  1  0
 11 10  2  0
 12 16  1  0
 12 13  1  0
 14 13  1  0
 15 14  1  0
 15 16  1  0
 16 17  1  1
 17 18  2  0
 20 19  1  1
 20 22  1  0
 21 20  1  0
 22 23  1  6
 23 17  1  0
 24 22  1  0
 25 24  1  0
 26 24  2  0
M  END
$$$$
