FPT.pdb
     RDKit          3D

 26 27  0  0  1  0  0  0  0  0999 V2000
    5.6531  -17.1483   25.6889 N   0  0  0  0  0  0  0  0  0  0  0  0
    6.5010  -16.1310   25.1202 C   0  0  1  0  0  0  0  0  0  0  0  0
    7.4134  -15.5887   26.1814 C   0  0  0  0  0  0  0  0  0  0  0  0
    7.1239  -14.1528   26.3869 C   0  0  0  0  0  0  0  0  0  0  0  0
    5.8351  -13.7347   26.6235 C   0  0  0  0  0  0  0  0  0  0  0  0
    5.5089  -12.3993   26.8158 C   0  0  0  0  0  0  0  0  0  0  0  0
    6.5308  -11.4891   26.7619 C   0  0  0  0  0  0  0  0  0  0  0  0
    7.8338  -11.8578   26.5284 C   0  0  0  0  0  0  0  0  0  0  0  0
    8.1262  -13.2151   26.3387 C   0  0  0  0  0  0  0  0  0  0  0  0
    7.2261  -16.5606   23.9072 C   0  0  0  0  0  0  0  0  0  0  0  0
    7.4051  -17.8188   23.7735 O   0  0  0  0  0  0  0  0  0  0  0  0
    7.7045  -15.6734   22.9405 N   0  0  0  0  0  0  0  0  0  0  0  0
    7.6838  -14.2265   22.9907 C   0  0  0  0  0  0  0  0  0  0  0  0
    8.4352  -13.7811   21.7254 C   0  0  0  0  0  0  0  0  0  0  0  0
    8.0129  -14.9124   20.7954 C   0  0  0  0  0  0  0  0  0  0  0  0
    8.3313  -16.0900   21.6756 C   0  0  1  0  0  0  0  0  0  0  0  0
    9.7860  -16.1973   21.9519 C   0  0  0  0  0  0  0  0  0  0  0  0
   10.4224  -15.3710   22.6557 O   0  0  0  0  0  0  0  0  0  0  0  0
   11.5950  -19.4272   23.2905 C   0  0  0  0  0  0  0  0  0  0  0  0
   12.0957  -19.0117   21.9276 C   0  0  1  0  0  0  0  0  0  0  0  0
   11.4216  -19.6210   20.8929 O   0  0  0  0  0  0  0  0  0  0  0  0
   11.9398  -17.4996   21.7225 C   0  0  2  0  0  0  0  0  0  0  0  0
   10.5408  -17.2835   21.4073 N   0  0  0  0  0  0  0  0  0  0  0  0
   12.7483  -17.0756   20.5555 C   0  0  0  0  0  0  0  0  0  0  0  0
   14.1085  -16.9224   20.6335 O   0  0  0  0  0  0  0  0  0  0  0  0
   12.1961  -16.8424   19.4472 O   0  0  0  0  0  0  0  0  0  0  0  0
  2 10  1  0
  2  1  1  1
  3  2  1  0
  4  9  1  0
  4  3  1  0
  5  4  2  0
  6  7  2  0
  6  5  1  0
  7  8  1  0
  8  9  2  0
 10 12  1  0
 11 10  2  0
 12 16  1  0
 12 13  1  0
 14 13  1  0
 15 14  1  0
 15 16  1  0
 16 17  1  1
 17 18  2  0
 20 19  1  1
 20 22  1  0
 21 20  1  0
 22 23  1  6
 23 17  1  0
 24 22  1  0
 25 24  1  0
 26 24  2  0
M  END
$$$$
