FPT.pdb
     RDKit          3D

 26 27  0  0  1  0  0  0  0  0999 V2000
    5.6822  -17.5157   25.6254 N   0  0  0  0  0  0  0  0  0  0  0  0
    6.4919  -16.4105   25.1779 C   0  0  1  0  0  0  0  0  0  0  0  0
    7.2915  -15.8764   26.3303 C   0  0  0  0  0  0  0  0  0  0  0  0
    7.1924  -14.4007   26.3507 C   0  0  0  0  0  0  0  0  0  0  0  0
    5.9705  -13.7924   26.5202 C   0  0  0  0  0  0  0  0  0  0  0  0
    5.8221  -12.4125   26.5398 C   0  0  0  0  0  0  0  0  0  0  0  0
    6.9531  -11.6567   26.3818 C   0  0  0  0  0  0  0  0  0  0  0  0
    8.1956  -12.2178   26.2092 C   0  0  0  0  0  0  0  0  0  0  0  0
    8.3078  -13.6146   26.1946 C   0  0  0  0  0  0  0  0  0  0  0  0
    7.3244  -16.7140   23.9960 C   0  0  0  0  0  0  0  0  0  0  0  0
    7.7927  -17.9009   23.9263 O   0  0  0  0  0  0  0  0  0  0  0  0
    7.6064  -15.7843   22.9927 N   0  0  0  0  0  0  0  0  0  0  0  0
    7.1764  -14.4030   22.9306 C   0  0  0  0  0  0  0  0  0  0  0  0
    7.8664  -13.8353   21.6793 C   0  0  0  0  0  0  0  0  0  0  0  0
    7.8509  -15.0915   20.8164 C   0  0  0  0  0  0  0  0  0  0  0  0
    8.4192  -16.0766   21.8011 C   0  0  1  0  0  0  0  0  0  0  0  0
    9.8202  -15.7483   22.1666 C   0  0  0  0  0  0  0  0  0  0  0  0
   10.3160  -14.5973   22.0544 O   0  0  0  0  0  0  0  0  0  0  0  0
   11.5575  -16.6522   25.5588 C   0  0  0  0  0  0  0  0  0  0  0  0
   12.2518  -17.3075   24.3886 C   0  0  1  0  0  0  0  0  0  0  0  0
   11.7943  -18.5802   24.1295 O   0  0  0  0  0  0  0  0  0  0  0  0
   12.0452  -16.4967   23.1029 C   0  0  2  0  0  0  0  0  0  0  0  0
   10.6852  -16.7666   22.6774 N   0  0  0  0  0  0  0  0  0  0  0  0
   12.9659  -16.9945   22.0543 C   0  0  0  0  0  0  0  0  0  0  0  0
   12.5255  -17.7667   21.0105 O   0  0  0  0  0  0  0  0  0  0  0  0
   14.1938  -16.7154   22.0979 O   0  0  0  0  0  0  0  0  0  0  0  0
  2 10  1  0
  2  1  1  1
  3  2  1  0
  4  9  1  0
  4  3  1  0
  5  4  2  0
  6  7  2  0
  6  5  1  0
  7  8  1  0
  8  9  2  0
 10 12  1  0
 11 10  2  0
 12 16  1  0
 12 13  1  0
 14 13  1  0
 15 14  1  0
 15 16  1  0
 16 17  1  1
 17 18  2  0
 20 19  1  1
 20 22  1  0
 21 20  1  0
 22 23  1  6
 23 17  1  0
 24 22  1  0
 25 24  1  0
 26 24  2  0
M  END
$$$$
