FPT.pdb
     RDKit          3D

 26 27  0  0  1  0  0  0  0  0999 V2000
    5.7104  -17.0932   25.7642 N   0  0  0  0  0  0  0  0  0  0  0  0
    6.5594  -16.0688   25.2101 C   0  0  1  0  0  0  0  0  0  0  0  0
    7.4586  -15.5287   26.2836 C   0  0  0  0  0  0  0  0  0  0  0  0
    7.1885  -14.0860   26.4663 C   0  0  0  0  0  0  0  0  0  0  0  0
    5.8972  -13.6393   26.6244 C   0  0  0  0  0  0  0  0  0  0  0  0
    5.5891  -12.2963   26.7921 C   0  0  0  0  0  0  0  0  0  0  0  0
    6.6318  -11.4084   26.7957 C   0  0  0  0  0  0  0  0  0  0  0  0
    7.9381  -11.8059   26.6415 C   0  0  0  0  0  0  0  0  0  0  0  0
    8.2119  -13.1700   26.4744 C   0  0  0  0  0  0  0  0  0  0  0  0
    7.2988  -16.4882   24.0020 C   0  0  0  0  0  0  0  0  0  0  0  0
    7.4492  -17.7470   23.8419 O   0  0  0  0  0  0  0  0  0  0  0  0
    7.8190  -15.5909   23.0667 N   0  0  0  0  0  0  0  0  0  0  0  0
    7.7893  -14.1446   23.1276 C   0  0  0  0  0  0  0  0  0  0  0  0
    8.5986  -13.6855   21.9035 C   0  0  0  0  0  0  0  0  0  0  0  0
    8.2268  -14.8108   20.9451 C   0  0  0  0  0  0  0  0  0  0  0  0
    8.5079  -15.9943   21.8302 C   0  0  1  0  0  0  0  0  0  0  0  0
    9.9481  -16.0978   22.1753 C   0  0  0  0  0  0  0  0  0  0  0  0
   10.5697  -15.2232   22.8325 O   0  0  0  0  0  0  0  0  0  0  0  0
   11.5631  -19.6426   23.3386 C   0  0  0  0  0  0  0  0  0  0  0  0
   12.2622  -18.9927   22.1683 C   0  0  1  0  0  0  0  0  0  0  0  0
   11.7991  -19.4313   20.9479 O   0  0  0  0  0  0  0  0  0  0  0  0
   12.0698  -17.4710   22.1894 C   0  0  2  0  0  0  0  0  0  0  0  0
   10.7054  -17.2370   21.7571 N   0  0  0  0  0  0  0  0  0  0  0  0
   12.9817  -16.8462   21.2029 C   0  0  0  0  0  0  0  0  0  0  0  0
   14.3242  -16.7068   21.4440 O   0  0  0  0  0  0  0  0  0  0  0  0
   12.5380  -16.4221   20.1026 O   0  0  0  0  0  0  0  0  0  0  0  0
  2 10  1  0
  2  1  1  1
  3  2  1  0
  4  9  1  0
  4  3  1  0
  5  4  2  0
  6  7  2  0
  6  5  1  0
  7  8  1  0
  8  9  2  0
 10 12  1  0
 11 10  2  0
 12 16  1  0
 12 13  1  0
 14 13  1  0
 15 14  1  0
 15 16  1  0
 16 17  1  1
 17 18  2  0
 20 19  1  1
 20 22  1  0
 21 20  1  0
 22 23  1  6
 23 17  1  0
 24 22  1  0
 25 24  1  0
 26 24  2  0
M  END
$$$$
