FPT.pdb
     RDKit          3D

 26 27  0  0  1  0  0  0  0  0999 V2000
    5.4851  -17.2583   25.5618 N   0  0  0  0  0  0  0  0  0  0  0  0
    6.3949  -16.2380   25.1054 C   0  0  1  0  0  0  0  0  0  0  0  0
    7.2912  -15.8240   26.2360 C   0  0  0  0  0  0  0  0  0  0  0  0
    7.2221  -14.3557   26.4009 C   0  0  0  0  0  0  0  0  0  0  0  0
    6.0031  -13.7305   26.5229 C   0  0  0  0  0  0  0  0  0  0  0  0
    5.8828  -12.3559   26.6727 C   0  0  0  0  0  0  0  0  0  0  0  0
    7.0395  -11.6230   26.6960 C   0  0  0  0  0  0  0  0  0  0  0  0
    8.2803  -12.2015   26.5778 C   0  0  0  0  0  0  0  0  0  0  0  0
    8.3636  -13.5924   26.4279 C   0  0  0  0  0  0  0  0  0  0  0  0
    7.1440  -16.6014   23.8853 C   0  0  0  0  0  0  0  0  0  0  0  0
    7.2952  -17.8516   23.6682 O   0  0  0  0  0  0  0  0  0  0  0  0
    7.6721  -15.6621   22.9968 N   0  0  0  0  0  0  0  0  0  0  0  0
    7.7038  -14.2235   23.1574 C   0  0  0  0  0  0  0  0  0  0  0  0
    8.4940  -13.7122   21.9415 C   0  0  0  0  0  0  0  0  0  0  0  0
    8.0474  -14.7527   20.9213 C   0  0  0  0  0  0  0  0  0  0  0  0
    8.3062  -16.0050   21.7136 C   0  0  1  0  0  0  0  0  0  0  0  0
    9.7507  -16.1883   22.0031 C   0  0  0  0  0  0  0  0  0  0  0  0
   10.4003  -15.4526   22.7905 O   0  0  0  0  0  0  0  0  0  0  0  0
   11.4215  -19.5751   23.0463 C   0  0  0  0  0  0  0  0  0  0  0  0
   11.9878  -19.0515   21.7478 C   0  0  1  0  0  0  0  0  0  0  0  0
   11.3465  -19.5501   20.6359 O   0  0  0  0  0  0  0  0  0  0  0  0
   11.8709  -17.5239   21.6737 C   0  0  2  0  0  0  0  0  0  0  0  0
   10.4794  -17.2461   21.3738 N   0  0  0  0  0  0  0  0  0  0  0  0
   12.6960  -17.0213   20.5504 C   0  0  0  0  0  0  0  0  0  0  0  0
   14.0490  -16.8358   20.6716 O   0  0  0  0  0  0  0  0  0  0  0  0
   12.1653  -16.7486   19.4407 O   0  0  0  0  0  0  0  0  0  0  0  0
  2 10  1  0
  2  1  1  1
  3  2  1  0
  4  9  1  0
  4  3  1  0
  5  4  2  0
  6  7  2  0
  6  5  1  0
  7  8  1  0
  8  9  2  0
 10 12  1  0
 11 10  2  0
 12 16  1  0
 12 13  1  0
 14 13  1  0
 15 14  1  0
 15 16  1  0
 16 17  1  1
 17 18  2  0
 20 19  1  1
 20 22  1  0
 21 20  1  0
 22 23  1  6
 23 17  1  0
 24 22  1  0
 25 24  1  0
 26 24  2  0
M  END
$$$$
