FPT.pdb
     RDKit          3D

 26 27  0  0  1  0  0  0  0  0999 V2000
    7.1320  -17.3030   26.5061 N   0  0  0  0  0  0  0  0  0  0  0  0
    6.5645  -16.5784   25.3968 C   0  0  1  0  0  0  0  0  0  0  0  0
    6.3931  -15.1363   25.7757 C   0  0  0  0  0  0  0  0  0  0  0  0
    7.5956  -14.6768   26.5041 C   0  0  0  0  0  0  0  0  0  0  0  0
    8.3674  -15.5769   27.2012 C   0  0  0  0  0  0  0  0  0  0  0  0
    9.5008  -15.1968   27.9065 C   0  0  0  0  0  0  0  0  0  0  0  0
    9.8363  -13.8692   27.8880 C   0  0  0  0  0  0  0  0  0  0  0  0
    9.0972  -12.9323   27.2066 C   0  0  0  0  0  0  0  0  0  0  0  0
    7.9588  -13.3522   26.5054 C   0  0  0  0  0  0  0  0  0  0  0  0
    7.2971  -16.7529   24.1261 C   0  0  0  0  0  0  0  0  0  0  0  0
    7.5125  -17.9582   23.7606 O   0  0  0  0  0  0  0  0  0  0  0  0
    7.7450  -15.6872   23.3423 N   0  0  0  0  0  0  0  0  0  0  0  0
    7.6223  -14.2736   23.6307 C   0  0  0  0  0  0  0  0  0  0  0  0
    8.3833  -13.5753   22.4917 C   0  0  0  0  0  0  0  0  0  0  0  0
    8.0722  -14.5580   21.3690 C   0  0  0  0  0  0  0  0  0  0  0  0
    8.4416  -15.8447   22.0553 C   0  0  1  0  0  0  0  0  0  0  0  0
    9.8901  -15.9055   22.3750 C   0  0  0  0  0  0  0  0  0  0  0  0
   10.4094  -15.3199   23.3602 O   0  0  0  0  0  0  0  0  0  0  0  0
   11.3050  -19.3940   22.6236 C   0  0  0  0  0  0  0  0  0  0  0  0
   12.1605  -18.5944   21.6699 C   0  0  1  0  0  0  0  0  0  0  0  0
   11.7830  -18.7358   20.3532 O   0  0  0  0  0  0  0  0  0  0  0  0
   12.0859  -17.0959   21.9893 C   0  0  2  0  0  0  0  0  0  0  0  0
   10.7768  -16.6594   21.5434 N   0  0  0  0  0  0  0  0  0  0  0  0
   13.1092  -16.3729   21.1985 C   0  0  0  0  0  0  0  0  0  0  0  0
   12.7791  -15.6236   20.0988 O   0  0  0  0  0  0  0  0  0  0  0  0
   14.3253  -16.4308   21.5231 O   0  0  0  0  0  0  0  0  0  0  0  0
  2 10  1  0
  2  1  1  1
  3  2  1  0
  4  9  1  0
  4  3  1  0
  5  4  2  0
  6  7  2  0
  6  5  1  0
  7  8  1  0
  8  9  2  0
 10 12  1  0
 11 10  2  0
 12 16  1  0
 12 13  1  0
 14 13  1  0
 15 14  1  0
 15 16  1  0
 16 17  1  1
 17 18  2  0
 20 19  1  1
 20 22  1  0
 21 20  1  0
 22 23  1  6
 23 17  1  0
 24 22  1  0
 25 24  1  0
 26 24  2  0
M  END
$$$$
