FPT.pdb
     RDKit          3D

 26 27  0  0  1  0  0  0  0  0999 V2000
    5.4612  -17.2621   25.7152 N   0  0  0  0  0  0  0  0  0  0  0  0
    6.3845  -16.2568   25.2525 C   0  0  1  0  0  0  0  0  0  0  0  0
    7.2688  -15.8286   26.3871 C   0  0  0  0  0  0  0  0  0  0  0  0
    7.2971  -14.3512   26.4530 C   0  0  0  0  0  0  0  0  0  0  0  0
    8.4835  -13.6748   26.2893 C   0  0  0  0  0  0  0  0  0  0  0  0
    8.5658  -12.2905   26.3489 C   0  0  0  0  0  0  0  0  0  0  0  0
    7.4051  -11.6017   26.5809 C   0  0  0  0  0  0  0  0  0  0  0  0
    6.1961  -12.2322   26.7509 C   0  0  0  0  0  0  0  0  0  0  0  0
    6.1506  -13.6312   26.6844 C   0  0  0  0  0  0  0  0  0  0  0  0
    7.1469  -16.6479   24.0492 C   0  0  0  0  0  0  0  0  0  0  0  0
    7.4460  -17.8862   23.9493 O   0  0  0  0  0  0  0  0  0  0  0  0
    7.5371  -15.7455   23.0572 N   0  0  0  0  0  0  0  0  0  0  0  0
    7.2366  -14.3307   22.9907 C   0  0  0  0  0  0  0  0  0  0  0  0
    8.0061  -13.8256   21.7591 C   0  0  0  0  0  0  0  0  0  0  0  0
    7.8974  -15.0733   20.8906 C   0  0  0  0  0  0  0  0  0  0  0  0
    8.3491  -16.1083   21.8845 C   0  0  1  0  0  0  0  0  0  0  0  0
    9.7647  -15.9099   22.2855 C   0  0  0  0  0  0  0  0  0  0  0  0
   10.1706  -14.9079   22.9293 O   0  0  0  0  0  0  0  0  0  0  0  0
   11.5719  -18.3053   24.4447 C   0  0  0  0  0  0  0  0  0  0  0  0
   12.3241  -18.2162   23.1381 C   0  0  1  0  0  0  0  0  0  0  0  0
   11.9400  -19.1723   22.2245 O   0  0  0  0  0  0  0  0  0  0  0  0
   12.1018  -16.8545   22.4679 C   0  0  2  0  0  0  0  0  0  0  0  0
   10.7511  -16.8869   21.9409 N   0  0  0  0  0  0  0  0  0  0  0  0
   13.0393  -16.7074   21.3301 C   0  0  0  0  0  0  0  0  0  0  0  0
   12.6280  -16.8469   20.0297 O   0  0  0  0  0  0  0  0  0  0  0  0
   14.2550  -16.4467   21.5342 O   0  0  0  0  0  0  0  0  0  0  0  0
  2 10  1  0
  2  1  1  1
  3  2  1  0
  4  9  1  0
  4  3  1  0
  5  4  2  0
  6  7  2  0
  6  5  1  0
  7  8  1  0
  8  9  2  0
 10 12  1  0
 11 10  2  0
 12 16  1  0
 12 13  1  0
 14 13  1  0
 15 14  1  0
 15 16  1  0
 16 17  1  1
 17 18  2  0
 20 19  1  1
 20 22  1  0
 21 20  1  0
 22 23  1  6
 23 17  1  0
 24 22  1  0
 25 24  1  0
 26 24  2  0
M  END
$$$$
