FPT.pdb
     RDKit          3D

 26 27  0  0  1  0  0  0  0  0999 V2000
    5.8494  -17.5663   25.6893 N   0  0  0  0  0  0  0  0  0  0  0  0
    6.5858  -16.3952   25.2849 C   0  0  1  0  0  0  0  0  0  0  0  0
    7.3205  -15.8326   26.4666 C   0  0  0  0  0  0  0  0  0  0  0  0
    6.9680  -14.4049   26.6259 C   0  0  0  0  0  0  0  0  0  0  0  0
    5.6486  -14.0170   26.6468 C   0  0  0  0  0  0  0  0  0  0  0  0
    5.2645  -12.6906   26.7867 C   0  0  0  0  0  0  0  0  0  0  0  0
    6.2600  -11.7577   26.9060 C   0  0  0  0  0  0  0  0  0  0  0  0
    7.5918  -12.0958   26.8907 C   0  0  0  0  0  0  0  0  0  0  0  0
    7.9427  -13.4449   26.7477 C   0  0  0  0  0  0  0  0  0  0  0  0
    7.4622  -16.6094   24.1153 C   0  0  0  0  0  0  0  0  0  0  0  0
    7.9238  -17.7916   23.9659 O   0  0  0  0  0  0  0  0  0  0  0  0
    7.7911  -15.6033   23.2042 N   0  0  0  0  0  0  0  0  0  0  0  0
    7.3586  -14.2216   23.2290 C   0  0  0  0  0  0  0  0  0  0  0  0
    8.1094  -13.5566   22.0635 C   0  0  0  0  0  0  0  0  0  0  0  0
    8.1438  -14.7409   21.1048 C   0  0  0  0  0  0  0  0  0  0  0  0
    8.6654  -15.8003   22.0367 C   0  0  1  0  0  0  0  0  0  0  0  0
   10.0442  -15.5012   22.4987 C   0  0  0  0  0  0  0  0  0  0  0  0
   10.3066  -14.6858   23.4204 O   0  0  0  0  0  0  0  0  0  0  0  0
   11.5777  -18.9256   22.0525 C   0  0  0  0  0  0  0  0  0  0  0  0
   11.9503  -17.9934   23.1808 C   0  0  1  0  0  0  0  0  0  0  0  0
   13.0329  -18.4306   23.9108 O   0  0  0  0  0  0  0  0  0  0  0  0
   12.3142  -16.6023   22.6467 C   0  0  2  0  0  0  0  0  0  0  0  0
   11.1618  -16.1536   21.8892 N   0  0  0  0  0  0  0  0  0  0  0  0
   13.4628  -16.7170   21.7179 C   0  0  0  0  0  0  0  0  0  0  0  0
   14.7580  -16.7436   22.1670 O   0  0  0  0  0  0  0  0  0  0  0  0
   13.2732  -16.7939   20.4746 O   0  0  0  0  0  0  0  0  0  0  0  0
  2 10  1  0
  2  1  1  1
  3  2  1  0
  4  9  1  0
  4  3  1  0
  5  4  2  0
  6  7  2  0
  6  5  1  0
  7  8  1  0
  8  9  2  0
 10 12  1  0
 11 10  2  0
 12 16  1  0
 12 13  1  0
 14 13  1  0
 15 14  1  0
 15 16  1  0
 16 17  1  1
 17 18  2  0
 20 19  1  6
 20 22  1  0
 21 20  1  0
 22 23  1  6
 23 17  1  0
 24 22  1  0
 25 24  1  0
 26 24  2  0
M  END
$$$$
