HYY.pdb
     RDKit          3D

 35 37  0  0  1  0  0  0  0  0999 V2000
    6.4203  -21.5119   22.8699 N   0  0  0  0  0  0  0  0  0  0  0  0
    6.4587  -20.2930   23.6543 C   0  0  1  0  0  0  0  0  0  0  0  0
    6.9895  -20.5660   25.0558 C   0  0  0  0  0  0  0  0  0  0  0  0
    6.4275  -21.8642   25.5147 C   0  0  0  0  0  0  0  0  0  0  0  0
    5.1067  -22.2729   25.4227 C   0  0  0  0  0  0  0  0  0  0  0  0
    5.0280  -23.5226   25.9601 N   0  0  0  0  0  0  0  0  0  0  0  0
    6.2551  -23.8898   26.3766 C   0  0  0  0  0  0  0  0  0  0  0  0
    7.0893  -22.8896   26.1059 N   0  0  0  0  0  0  0  0  0  0  0  0
    7.2436  -19.2353   22.9786 C   0  0  0  0  0  0  0  0  0  0  0  0
    8.3015  -19.4955   22.3592 O   0  0  0  0  0  0  0  0  0  0  0  0
    8.8841  -11.4281   19.2131 O   0  0  0  0  0  0  0  0  0  0  0  0
    8.3162  -12.4717   19.9407 C   0  0  0  0  0  0  0  0  0  0  0  0
    8.1389  -12.3450   21.3043 C   0  0  0  0  0  0  0  0  0  0  0  0
    7.5762  -13.3732   22.0405 C   0  0  0  0  0  0  0  0  0  0  0  0
    7.1707  -14.5608   21.4489 C   0  0  0  0  0  0  0  0  0  0  0  0
    6.5740  -15.6621   22.2009 C   0  0  0  0  0  0  0  0  0  0  0  0
    7.5217  -16.7792   22.5003 C   0  0  2  0  0  0  0  0  0  0  0  0
    6.8027  -17.8995   23.0246 N   0  0  0  0  0  0  0  0  0  0  0  0
    8.5611  -16.2837   23.4601 C   0  0  0  0  0  0  0  0  0  0  0  0
    9.5180  -15.5809   23.0453 O   0  0  0  0  0  0  0  0  0  0  0  0
    7.3480  -14.6848   20.0920 C   0  0  0  0  0  0  0  0  0  0  0  0
    7.9107  -13.6558   19.3583 C   0  0  0  0  0  0  0  0  0  0  0  0
    5.5052  -11.0775   25.3272 O   0  0  0  0  0  0  0  0  0  0  0  0
    6.3058  -12.1539   25.7291 C   0  0  0  0  0  0  0  0  0  0  0  0
    5.7231  -13.3576   26.0614 C   0  0  0  0  0  0  0  0  0  0  0  0
    6.5188  -14.4315   26.4622 C   0  0  0  0  0  0  0  0  0  0  0  0
    7.8858  -14.3131   26.5334 C   0  0  0  0  0  0  0  0  0  0  0  0
    8.7467  -15.4238   26.9559 C   0  0  0  0  0  0  0  0  0  0  0  0
    9.4604  -16.0181   25.7870 C   0  0  2  0  0  0  0  0  0  0  0  0
    8.4855  -16.5959   24.8439 N   0  0  0  0  0  0  0  0  0  0  0  0
   10.4456  -17.0437   26.1565 C   0  0  0  0  0  0  0  0  0  0  0  0
   10.3609  -18.3063   25.5975 O   0  0  0  0  0  0  0  0  0  0  0  0
    8.4523  -13.1055   26.1986 C   0  0  0  0  0  0  0  0  0  0  0  0
    7.6740  -12.0488   25.8046 C   0  0  0  0  0  0  0  0  0  0  0  0
   11.3733  -16.8285   26.9654 O   0  0  0  0  0  0  0  0  0  0  0  0
  2  1  1  6
  3  2  1  0
  4  5  2  0
  4  3  1  0
  6  5  1  0
  7  8  2  0
  7  6  1  0
  8  4  1  0
  9  2  1  0
 10  9  2  0
 12 11  1  0
 12 22  2  0
 13 12  1  0
 14 13  2  0
 14 15  1  0
 15 21  2  0
 16 15  1  0
 17 16  1  1
 17 18  1  0
 18  9  1  0
 19 20  2  0
 19 17  1  0
 21 22  1  0
 24 34  2  0
 24 23  1  0
 25 24  1  0
 26 27  1  0
 26 25  2  0
 27 33  2  0
 29 28  1  1
 28 27  1  0
 29 30  1  0
 30 19  1  0
 31 32  1  0
 31 29  1  0
 33 34  1  0
 35 31  2  0
M  END
$$$$
