HYY.pdb
     RDKit          3D

 35 37  0  0  1  0  0  0  0  0999 V2000
    7.9620  -19.3860   19.8204 N   0  0  0  0  0  0  0  0  0  0  0  0
    7.7214  -18.6515   21.0472 C   0  0  1  0  0  0  0  0  0  0  0  0
    8.0527  -19.5051   22.2647 C   0  0  0  0  0  0  0  0  0  0  0  0
    7.0584  -20.6087   22.3359 C   0  0  0  0  0  0  0  0  0  0  0  0
    5.9092  -20.6387   23.1096 C   0  0  0  0  0  0  0  0  0  0  0  0
    5.2901  -21.8295   22.8744 N   0  0  0  0  0  0  0  0  0  0  0  0
    6.0220  -22.5265   21.9843 C   0  0  0  0  0  0  0  0  0  0  0  0
    7.0814  -21.7876   21.6659 N   0  0  0  0  0  0  0  0  0  0  0  0
    8.4642  -17.3712   21.0698 C   0  0  0  0  0  0  0  0  0  0  0  0
    9.5549  -17.2330   20.4685 O   0  0  0  0  0  0  0  0  0  0  0  0
    5.8569  -12.9402   27.3303 O   0  0  0  0  0  0  0  0  0  0  0  0
    6.2647  -13.1886   26.0214 C   0  0  0  0  0  0  0  0  0  0  0  0
    6.9134  -12.2040   25.3027 C   0  0  0  0  0  0  0  0  0  0  0  0
    7.3244  -12.4360   24.0016 C   0  0  0  0  0  0  0  0  0  0  0  0
    7.1057  -13.6519   23.3702 C   0  0  0  0  0  0  0  0  0  0  0  0
    7.5285  -13.9245   21.9985 C   0  0  0  0  0  0  0  0  0  0  0  0
    8.5703  -14.9908   21.8828 C   0  0  2  0  0  0  0  0  0  0  0  0
    7.9443  -16.2732   21.7805 N   0  0  0  0  0  0  0  0  0  0  0  0
    9.4792  -14.9062   23.0718 C   0  0  0  0  0  0  0  0  0  0  0  0
    9.7890  -13.7848   23.5497 O   0  0  0  0  0  0  0  0  0  0  0  0
    6.4600  -14.6302   24.0871 C   0  0  0  0  0  0  0  0  0  0  0  0
    6.0502  -14.3960   25.3874 C   0  0  0  0  0  0  0  0  0  0  0  0
   11.6635  -15.6839   31.2634 O   0  0  0  0  0  0  0  0  0  0  0  0
   11.1787  -15.5951   29.9526 C   0  0  0  0  0  0  0  0  0  0  0  0
   11.2670  -14.4034   29.2663 C   0  0  0  0  0  0  0  0  0  0  0  0
   10.7845  -14.3125   27.9601 C   0  0  0  0  0  0  0  0  0  0  0  0
   10.2171  -15.3976   27.3369 C   0  0  0  0  0  0  0  0  0  0  0  0
    9.6974  -15.3297   25.9663 C   0  0  0  0  0  0  0  0  0  0  0  0
   10.6214  -16.0119   25.0125 C   0  0  2  0  0  0  0  0  0  0  0  0
   10.0030  -16.0803   23.6760 N   0  0  0  0  0  0  0  0  0  0  0  0
   11.0141  -17.3630   25.4360 C   0  0  0  0  0  0  0  0  0  0  0  0
   12.1979  -17.5457   26.1281 O   0  0  0  0  0  0  0  0  0  0  0  0
   10.1363  -16.5798   28.0349 C   0  0  0  0  0  0  0  0  0  0  0  0
   10.6091  -16.6727   29.3177 C   0  0  0  0  0  0  0  0  0  0  0  0
   10.3194  -18.3739   25.1978 O   0  0  0  0  0  0  0  0  0  0  0  0
  2  1  1  6
  3  2  1  0
  4  5  2  0
  4  3  1  0
  6  5  1  0
  7  8  2  0
  7  6  1  0
  8  4  1  0
  9  2  1  0
 10  9  2  0
 12 11  1  0
 12 22  2  0
 13 12  1  0
 14 13  2  0
 14 15  1  0
 15 21  2  0
 16 15  1  0
 17 16  1  1
 17 18  1  0
 18  9  1  0
 19 20  2  0
 19 17  1  0
 21 22  1  0
 24 34  2  0
 24 23  1  0
 25 24  1  0
 26 27  1  0
 26 25  2  0
 27 33  2  0
 29 28  1  1
 28 27  1  0
 29 30  1  0
 30 19  1  0
 31 32  1  0
 31 29  1  0
 33 34  1  0
 35 31  2  0
M  END
$$$$
