HYY.pdb
     RDKit          3D

 35 37  0  0  1  0  0  0  0  0999 V2000
   10.3432  -17.4725   18.6003 N   0  0  0  0  0  0  0  0  0  0  0  0
    9.7546  -17.8325   19.8757 C   0  0  1  0  0  0  0  0  0  0  0  0
   10.4615  -19.0400   20.4781 C   0  0  0  0  0  0  0  0  0  0  0  0
   10.2691  -20.1914   19.5567 C   0  0  0  0  0  0  0  0  0  0  0  0
    9.0954  -20.5490   18.9129 C   0  0  0  0  0  0  0  0  0  0  0  0
    9.3602  -21.6595   18.1689 N   0  0  0  0  0  0  0  0  0  0  0  0
   10.6546  -21.9912   18.3369 C   0  0  0  0  0  0  0  0  0  0  0  0
   11.1934  -21.1057   19.1709 N   0  0  0  0  0  0  0  0  0  0  0  0
    9.7494  -16.6885   20.8152 C   0  0  0  0  0  0  0  0  0  0  0  0
   10.7718  -15.9893   21.0058 O   0  0  0  0  0  0  0  0  0  0  0  0
    6.1495  -11.3753   26.9967 O   0  0  0  0  0  0  0  0  0  0  0  0
    6.3547  -12.3077   25.9820 C   0  0  0  0  0  0  0  0  0  0  0  0
    6.8060  -11.8922   24.7448 C   0  0  0  0  0  0  0  0  0  0  0  0
    7.0145  -12.8066   23.7270 C   0  0  0  0  0  0  0  0  0  0  0  0
    6.7825  -14.1632   23.9023 C   0  0  0  0  0  0  0  0  0  0  0  0
    6.9939  -15.1504   22.8463 C   0  0  0  0  0  0  0  0  0  0  0  0
    8.3983  -15.2053   22.3361 C   0  0  2  0  0  0  0  0  0  0  0  0
    8.5738  -16.3664   21.5188 N   0  0  0  0  0  0  0  0  0  0  0  0
    9.3355  -15.1989   23.5060 C   0  0  0  0  0  0  0  0  0  0  0  0
    9.6917  -14.1088   24.0222 O   0  0  0  0  0  0  0  0  0  0  0  0
    6.3335  -14.5745   25.1340 C   0  0  0  0  0  0  0  0  0  0  0  0
    6.1258  -13.6587   26.1498 C   0  0  0  0  0  0  0  0  0  0  0  0
   11.7950  -16.0830   31.5791 O   0  0  0  0  0  0  0  0  0  0  0  0
   11.2434  -16.0140   30.2938 C   0  0  0  0  0  0  0  0  0  0  0  0
   11.4232  -14.8823   29.5284 C   0  0  0  0  0  0  0  0  0  0  0  0
   10.8745  -14.8113   28.2474 C   0  0  0  0  0  0  0  0  0  0  0  0
   10.1507  -15.8570   27.7273 C   0  0  0  0  0  0  0  0  0  0  0  0
    9.5585  -15.8081   26.3856 C   0  0  0  0  0  0  0  0  0  0  0  0
   10.4729  -16.4222   25.3778 C   0  0  2  0  0  0  0  0  0  0  0  0
    9.8345  -16.4131   24.0489 N   0  0  0  0  0  0  0  0  0  0  0  0
   10.8821  -17.7935   25.7108 C   0  0  0  0  0  0  0  0  0  0  0  0
   10.3552  -18.8564   24.9991 O   0  0  0  0  0  0  0  0  0  0  0  0
    9.9801  -16.9794   28.5034 C   0  0  0  0  0  0  0  0  0  0  0  0
   10.5176  -17.0526   29.7617 C   0  0  0  0  0  0  0  0  0  0  0  0
   11.6973  -18.0526   26.6216 O   0  0  0  0  0  0  0  0  0  0  0  0
  2  1  1  6
  3  2  1  0
  4  5  2  0
  4  3  1  0
  6  5  1  0
  7  8  2  0
  7  6  1  0
  8  4  1  0
  9  2  1  0
 10  9  2  0
 12 11  1  0
 12 22  2  0
 13 12  1  0
 14 13  2  0
 14 15  1  0
 15 21  2  0
 16 15  1  0
 17 16  1  1
 17 18  1  0
 18  9  1  0
 19 20  2  0
 19 17  1  0
 21 22  1  0
 24 34  2  0
 24 23  1  0
 25 24  1  0
 26 27  1  0
 26 25  2  0
 27 33  2  0
 29 28  1  1
 28 27  1  0
 29 30  1  0
 30 19  1  0
 31 32  1  0
 31 29  1  0
 33 34  1  0
 35 31  2  0
M  END
$$$$
