HYY.pdb
     RDKit          3D

 35 37  0  0  1  0  0  0  0  0999 V2000
    7.2928  -16.4879   18.7260 N   0  0  0  0  0  0  0  0  0  0  0  0
    8.3912  -15.9182   19.4820 C   0  0  1  0  0  0  0  0  0  0  0  0
    8.3779  -14.3974   19.3962 C   0  0  0  0  0  0  0  0  0  0  0  0
    8.4326  -14.0181   17.9593 C   0  0  0  0  0  0  0  0  0  0  0  0
    7.4702  -13.3161   17.2514 C   0  0  0  0  0  0  0  0  0  0  0  0
    7.9190  -13.1866   15.9713 N   0  0  0  0  0  0  0  0  0  0  0  0
    9.1214  -13.7853   15.8744 C   0  0  0  0  0  0  0  0  0  0  0  0
    9.4229  -14.2819   17.0711 N   0  0  0  0  0  0  0  0  0  0  0  0
    8.3794  -16.3776   20.8892 C   0  0  0  0  0  0  0  0  0  0  0  0
    7.4099  -16.1460   21.6486 O   0  0  0  0  0  0  0  0  0  0  0  0
    7.2309  -22.8066   19.8757 O   0  0  0  0  0  0  0  0  0  0  0  0
    7.9577  -21.8560   20.5894 C   0  0  0  0  0  0  0  0  0  0  0  0
    8.9187  -21.0992   19.9486 C   0  0  0  0  0  0  0  0  0  0  0  0
    9.6487  -20.1511   20.6443 C   0  0  0  0  0  0  0  0  0  0  0  0
    9.4499  -19.9222   21.9981 C   0  0  0  0  0  0  0  0  0  0  0  0
   10.2055  -18.9285   22.7573 C   0  0  0  0  0  0  0  0  0  0  0  0
    9.5972  -17.5626   22.7470 C   0  0  2  0  0  0  0  0  0  0  0  0
    9.4780  -17.0935   21.4006 N   0  0  0  0  0  0  0  0  0  0  0  0
   10.4457  -16.6521   23.5826 C   0  0  0  0  0  0  0  0  0  0  0  0
   11.2828  -15.8908   23.0336 O   0  0  0  0  0  0  0  0  0  0  0  0
    8.4933  -20.6763   22.6337 C   0  0  0  0  0  0  0  0  0  0  0  0
    7.7649  -21.6233   21.9364 C   0  0  0  0  0  0  0  0  0  0  0  0
    5.8779  -10.9023   27.8630 O   0  0  0  0  0  0  0  0  0  0  0  0
    6.5198  -11.9315   27.1632 C   0  0  0  0  0  0  0  0  0  0  0  0
    7.8639  -11.8332   26.8760 C   0  0  0  0  0  0  0  0  0  0  0  0
    8.5057  -12.8575   26.1787 C   0  0  0  0  0  0  0  0  0  0  0  0
    7.8185  -13.9740   25.7678 C   0  0  0  0  0  0  0  0  0  0  0  0
    8.4663  -15.0640   25.0292 C   0  0  0  0  0  0  0  0  0  0  0  0
    9.7560  -15.4508   25.6741 C   0  0  2  0  0  0  0  0  0  0  0  0
   10.3216  -16.6323   24.9976 N   0  0  0  0  0  0  0  0  0  0  0  0
    9.6371  -15.7252   27.1127 C   0  0  0  0  0  0  0  0  0  0  0  0
   10.1194  -14.8053   28.0265 O   0  0  0  0  0  0  0  0  0  0  0  0
    6.4777  -14.0573   26.0620 C   0  0  0  0  0  0  0  0  0  0  0  0
    5.8443  -13.0535   26.7466 C   0  0  0  0  0  0  0  0  0  0  0  0
    9.1125  -16.7671   27.5603 O   0  0  0  0  0  0  0  0  0  0  0  0
  2  1  1  6
  3  2  1  0
  4  5  2  0
  4  3  1  0
  6  5  1  0
  7  8  2  0
  7  6  1  0
  8  4  1  0
  9  2  1  0
 10  9  2  0
 12 11  1  0
 12 22  2  0
 13 12  1  0
 14 13  2  0
 14 15  1  0
 15 21  2  0
 16 15  1  0
 17 16  1  6
 17 18  1  0
 18  9  1  0
 19 20  2  0
 19 17  1  0
 21 22  1  0
 24 34  2  0
 24 23  1  0
 25 24  1  0
 26 27  1  0
 26 25  2  0
 27 33  2  0
 29 28  1  6
 28 27  1  0
 29 30  1  0
 30 19  1  0
 31 32  1  0
 31 29  1  0
 33 34  1  0
 35 31  2  0
M  END
$$$$
