HYY.pdb
     RDKit          3D

 35 37  0  0  1  0  0  0  0  0999 V2000
   11.5882  -17.3585   17.8679 N   0  0  0  0  0  0  0  0  0  0  0  0
   10.1706  -17.1647   18.1035 C   0  0  1  0  0  0  0  0  0  0  0  0
    9.3419  -18.0772   17.2084 C   0  0  0  0  0  0  0  0  0  0  0  0
    9.5591  -17.6576   15.7983 C   0  0  0  0  0  0  0  0  0  0  0  0
   10.5595  -16.8219   15.3282 C   0  0  0  0  0  0  0  0  0  0  0  0
   10.3917  -16.7023   13.9813 N   0  0  0  0  0  0  0  0  0  0  0  0
    9.3237  -17.4361   13.6140 C   0  0  0  0  0  0  0  0  0  0  0  0
    8.8295  -18.0063   14.7096 N   0  0  0  0  0  0  0  0  0  0  0  0
    9.8252  -17.3531   19.5306 C   0  0  0  0  0  0  0  0  0  0  0  0
    8.6395  -17.3006   19.9328 O   0  0  0  0  0  0  0  0  0  0  0  0
   12.3698  -24.0107   20.9053 O   0  0  0  0  0  0  0  0  0  0  0  0
   12.2425  -22.6724   21.2711 C   0  0  0  0  0  0  0  0  0  0  0  0
   11.6751  -22.3406   22.4856 C   0  0  0  0  0  0  0  0  0  0  0  0
   11.5419  -21.0156   22.8628 C   0  0  0  0  0  0  0  0  0  0  0  0
   11.9669  -19.9760   22.0484 C   0  0  0  0  0  0  0  0  0  0  0  0
   11.8390  -18.5690   22.4208 C   0  0  0  0  0  0  0  0  0  0  0  0
   10.6303  -17.8961   21.8534 C   0  0  2  0  0  0  0  0  0  0  0  0
   10.8438  -17.5981   20.4705 N   0  0  0  0  0  0  0  0  0  0  0  0
   10.3476  -16.6606   22.6538 C   0  0  0  0  0  0  0  0  0  0  0  0
   11.2433  -15.7913   22.8087 O   0  0  0  0  0  0  0  0  0  0  0  0
   12.5312  -20.3083   20.8405 C   0  0  0  0  0  0  0  0  0  0  0  0
   12.6633  -21.6333   20.4656 C   0  0  0  0  0  0  0  0  0  0  0  0
    6.1618  -10.5992   27.4827 O   0  0  0  0  0  0  0  0  0  0  0  0
    6.4821  -11.6249   26.5847 C   0  0  0  0  0  0  0  0  0  0  0  0
    7.3577  -11.3828   25.5485 C   0  0  0  0  0  0  0  0  0  0  0  0
    7.6784  -12.4033   24.6525 C   0  0  0  0  0  0  0  0  0  0  0  0
    7.1338  -13.6580   24.7827 C   0  0  0  0  0  0  0  0  0  0  0  0
    7.4493  -14.7485   23.8528 C   0  0  0  0  0  0  0  0  0  0  0  0
    8.8342  -15.2576   24.0803 C   0  0  2  0  0  0  0  0  0  0  0  0
    9.0742  -16.4501   23.2472 N   0  0  0  0  0  0  0  0  0  0  0  0
    9.1208  -15.5804   25.4848 C   0  0  0  0  0  0  0  0  0  0  0  0
    8.6885  -16.7843   26.0118 O   0  0  0  0  0  0  0  0  0  0  0  0
    6.2618  -13.8839   25.8219 C   0  0  0  0  0  0  0  0  0  0  0  0
    5.9447  -12.8841   26.7037 C   0  0  0  0  0  0  0  0  0  0  0  0
    9.7470  -14.8077   26.2410 O   0  0  0  0  0  0  0  0  0  0  0  0
  2  1  1  1
  3  2  1  0
  4  5  2  0
  4  3  1  0
  6  5  1  0
  7  8  2  0
  7  6  1  0
  8  4  1  0
  9  2  1  0
 10  9  2  0
 12 11  1  0
 12 22  2  0
 13 12  1  0
 14 13  2  0
 14 15  1  0
 15 21  2  0
 16 15  1  0
 17 16  1  1
 17 18  1  0
 18  9  1  0
 19 20  2  0
 19 17  1  0
 21 22  1  0
 24 34  2  0
 24 23  1  0
 25 24  1  0
 26 27  1  0
 26 25  2  0
 27 33  2  0
 29 28  1  1
 28 27  1  0
 29 30  1  0
 30 19  1  0
 31 32  1  0
 31 29  1  0
 33 34  1  0
 35 31  2  0
M  END
$$$$
