HYY.pdb
     RDKit          3D

 35 37  0  0  1  0  0  0  0  0999 V2000
   18.9837  -18.9244   11.7306 N   0  0  0  0  0  0  0  0  0  0  0  0
   19.2805  -17.7283   12.4948 C   0  0  1  0  0  0  0  0  0  0  0  0
   18.3530  -16.5868   12.0983 C   0  0  0  0  0  0  0  0  0  0  0  0
   18.7282  -16.1451   10.7287 C   0  0  0  0  0  0  0  0  0  0  0  0
   19.9566  -15.6446   10.3281 C   0  0  0  0  0  0  0  0  0  0  0  0
   19.8690  -15.3655    8.9972 N   0  0  0  0  0  0  0  0  0  0  0  0
   18.6298  -15.6786    8.5727 C   0  0  0  0  0  0  0  0  0  0  0  0
   17.9512  -16.1457    9.6172 N   0  0  0  0  0  0  0  0  0  0  0  0
   19.2246  -17.9853   13.9516 C   0  0  0  0  0  0  0  0  0  0  0  0
   19.2594  -17.0511   14.7861 O   0  0  0  0  0  0  0  0  0  0  0  0
   12.5909  -19.3566   15.4231 O   0  0  0  0  0  0  0  0  0  0  0  0
   13.9305  -19.7159   15.5555 C   0  0  0  0  0  0  0  0  0  0  0  0
   14.6832  -19.9970   14.4324 C   0  0  0  0  0  0  0  0  0  0  0  0
   16.0150  -20.3553   14.5480 C   0  0  0  0  0  0  0  0  0  0  0  0
   16.6445  -20.4467   15.7810 C   0  0  0  0  0  0  0  0  0  0  0  0
   18.0482  -20.8223   15.9328 C   0  0  0  0  0  0  0  0  0  0  0  0
   19.0024  -19.6786   15.8015 C   0  0  2  0  0  0  0  0  0  0  0  0
   19.1299  -19.3071   14.4257 N   0  0  0  0  0  0  0  0  0  0  0  0
   20.3187  -20.0799   16.3959 C   0  0  0  0  0  0  0  0  0  0  0  0
   21.1840  -20.6506   15.6837 O   0  0  0  0  0  0  0  0  0  0  0  0
   15.8938  -20.1666   16.8972 C   0  0  0  0  0  0  0  0  0  0  0  0
   14.5627  -19.8087   16.7791 C   0  0  0  0  0  0  0  0  0  0  0  0
   23.3171  -13.9889   18.7371 O   0  0  0  0  0  0  0  0  0  0  0  0
   23.2402  -15.3530   18.4295 C   0  0  0  0  0  0  0  0  0  0  0  0
   22.6223  -15.7617   17.2675 C   0  0  0  0  0  0  0  0  0  0  0  0
   22.5444  -17.1204   16.9589 C   0  0  0  0  0  0  0  0  0  0  0  0
   23.0763  -18.0695   17.7979 C   0  0  0  0  0  0  0  0  0  0  0  0
   23.0049  -19.5048   17.5011 C   0  0  0  0  0  0  0  0  0  0  0  0
   21.9373  -20.1631   18.3108 C   0  0  2  0  0  0  0  0  0  0  0  0
   20.6109  -19.8257   17.7627 N   0  0  0  0  0  0  0  0  0  0  0  0
   21.9774  -19.8116   19.7370 C   0  0  0  0  0  0  0  0  0  0  0  0
   20.9077  -19.1450   20.3073 O   0  0  0  0  0  0  0  0  0  0  0  0
   23.6897  -17.6457   18.9535 C   0  0  0  0  0  0  0  0  0  0  0  0
   23.7681  -16.3124   19.2597 C   0  0  0  0  0  0  0  0  0  0  0  0
   22.9472  -20.0899   20.4740 O   0  0  0  0  0  0  0  0  0  0  0  0
  2  1  1  6
  3  2  1  0
  4  5  2  0
  4  3  1  0
  6  5  1  0
  7  8  2  0
  7  6  1  0
  8  4  1  0
  9  2  1  0
 10  9  2  0
 12 11  1  0
 12 22  2  0
 13 12  1  0
 14 13  2  0
 14 15  1  0
 15 21  2  0
 16 15  1  0
 17 16  1  6
 17 18  1  0
 18  9  1  0
 19 20  2  0
 19 17  1  0
 21 22  1  0
 24 34  2  0
 24 23  1  0
 25 24  1  0
 26 27  1  0
 26 25  2  0
 27 33  2  0
 29 28  1  6
 28 27  1  0
 29 30  1  0
 30 19  1  0
 31 32  1  0
 31 29  1  0
 33 34  1  0
 35 31  2  0
M  END
$$$$
