HYY.pdb
     RDKit          3D

 35 37  0  0  1  0  0  0  0  0999 V2000
    7.4042  -16.7644   18.1104 N   0  0  0  0  0  0  0  0  0  0  0  0
    8.1812  -16.0205   19.0827 C   0  0  1  0  0  0  0  0  0  0  0  0
    8.1675  -14.5310   18.7634 C   0  0  0  0  0  0  0  0  0  0  0  0
    8.6144  -14.3592   17.3554 C   0  0  0  0  0  0  0  0  0  0  0  0
    7.9465  -13.6746   16.3528 C   0  0  0  0  0  0  0  0  0  0  0  0
    8.7037  -13.7642   15.2235 N   0  0  0  0  0  0  0  0  0  0  0  0
    9.8100  -14.4796   15.5029 C   0  0  0  0  0  0  0  0  0  0  0  0
    9.7493  -14.8331   16.7839 N   0  0  0  0  0  0  0  0  0  0  0  0
    7.7159  -16.2787   20.4641 C   0  0  0  0  0  0  0  0  0  0  0  0
    6.6712  -15.7537   20.9150 O   0  0  0  0  0  0  0  0  0  0  0  0
    3.3412  -21.0927   20.4951 O   0  0  0  0  0  0  0  0  0  0  0  0
    4.4810  -20.5501   21.0845 C   0  0  0  0  0  0  0  0  0  0  0  0
    5.6375  -20.4047   20.3440 C   0  0  0  0  0  0  0  0  0  0  0  0
    6.7777  -19.8674   20.9157 C   0  0  0  0  0  0  0  0  0  0  0  0
    6.8088  -19.4565   22.2405 C   0  0  0  0  0  0  0  0  0  0  0  0
    7.9976  -18.8860   22.8697 C   0  0  0  0  0  0  0  0  0  0  0  0
    8.1435  -17.4112   22.6715 C   0  0  2  0  0  0  0  0  0  0  0  0
    8.4554  -17.1330   21.3032 N   0  0  0  0  0  0  0  0  0  0  0  0
    9.2049  -16.9039   23.6006 C   0  0  0  0  0  0  0  0  0  0  0  0
   10.4197  -17.0575   23.3134 O   0  0  0  0  0  0  0  0  0  0  0  0
    5.6571  -19.6020   22.9755 C   0  0  0  0  0  0  0  0  0  0  0  0
    4.5188  -20.1393   22.4019 C   0  0  0  0  0  0  0  0  0  0  0  0
    5.1778  -11.7059   27.1188 O   0  0  0  0  0  0  0  0  0  0  0  0
    6.3670  -12.3204   26.7074 C   0  0  0  0  0  0  0  0  0  0  0  0
    6.4689  -12.8372   25.4341 C   0  0  0  0  0  0  0  0  0  0  0  0
    7.6529  -13.4499   25.0219 C   0  0  0  0  0  0  0  0  0  0  0  0
    8.7309  -13.5502   25.8678 C   0  0  0  0  0  0  0  0  0  0  0  0
    9.9863  -14.1932   25.4630 C   0  0  0  0  0  0  0  0  0  0  0  0
    9.9169  -15.6706   25.6659 C   0  0  2  0  0  0  0  0  0  0  0  0
    8.8618  -16.2460   24.8120 N   0  0  0  0  0  0  0  0  0  0  0  0
    9.6805  -16.0639   27.0618 C   0  0  0  0  0  0  0  0  0  0  0  0
    8.5564  -16.8035   27.3830 O   0  0  0  0  0  0  0  0  0  0  0  0
    8.6136  -13.0296   27.1353 C   0  0  0  0  0  0  0  0  0  0  0  0
    7.4525  -12.4272   27.5434 C   0  0  0  0  0  0  0  0  0  0  0  0
   10.4585  -15.7580   27.9905 O   0  0  0  0  0  0  0  0  0  0  0  0
  2  1  1  6
  3  2  1  0
  4  5  2  0
  4  3  1  0
  6  5  1  0
  7  8  2  0
  7  6  1  0
  8  4  1  0
  9  2  1  0
 10  9  2  0
 12 11  1  0
 12 22  2  0
 13 12  1  0
 14 13  2  0
 14 15  1  0
 15 21  2  0
 16 15  1  0
 17 16  1  6
 17 18  1  0
 18  9  1  0
 19 20  2  0
 19 17  1  0
 21 22  1  0
 24 34  2  0
 24 23  1  0
 25 24  1  0
 26 27  1  0
 26 25  2  0
 27 33  2  0
 29 28  1  1
 28 27  1  0
 29 30  1  0
 30 19  1  0
 31 32  1  0
 31 29  1  0
 33 34  1  0
 35 31  2  0
M  END
$$$$
