HYY.pdb
     RDKit          3D

 35 37  0  0  1  0  0  0  0  0999 V2000
    5.3984  -18.7654   19.3839 N   0  0  0  0  0  0  0  0  0  0  0  0
    5.3920  -18.2404   20.7355 C   0  0  1  0  0  0  0  0  0  0  0  0
    4.7969  -19.2512   21.7075 C   0  0  0  0  0  0  0  0  0  0  0  0
    3.3807  -19.4839   21.3178 C   0  0  0  0  0  0  0  0  0  0  0  0
    2.4895  -18.5395   20.8342 C   0  0  0  0  0  0  0  0  0  0  0  0
    1.3061  -19.1751   20.6050 N   0  0  0  0  0  0  0  0  0  0  0  0
    1.4452  -20.4742   20.9321 C   0  0  0  0  0  0  0  0  0  0  0  0
    2.6925  -20.6518   21.3589 N   0  0  0  0  0  0  0  0  0  0  0  0
    6.7450  -17.8169   21.1614 C   0  0  0  0  0  0  0  0  0  0  0  0
    7.7491  -18.5448   20.9816 O   0  0  0  0  0  0  0  0  0  0  0  0
    7.8991  -12.5762   16.8431 O   0  0  0  0  0  0  0  0  0  0  0  0
    7.9721  -13.0649   18.1458 C   0  0  0  0  0  0  0  0  0  0  0  0
    6.9114  -12.8826   19.0111 C   0  0  0  0  0  0  0  0  0  0  0  0
    6.9692  -13.3624   20.3080 C   0  0  0  0  0  0  0  0  0  0  0  0
    8.0806  -14.0386   20.7899 C   0  0  0  0  0  0  0  0  0  0  0  0
    8.1691  -14.5558   22.1535 C   0  0  0  0  0  0  0  0  0  0  0  0
    8.1764  -16.0485   22.2396 C   0  0  2  0  0  0  0  0  0  0  0  0
    6.9231  -16.5679   21.7854 N   0  0  0  0  0  0  0  0  0  0  0  0
    8.4661  -16.4470   23.6553 C   0  0  0  0  0  0  0  0  0  0  0  0
    7.5565  -16.3981   24.5225 O   0  0  0  0  0  0  0  0  0  0  0  0
    9.1349  -14.2189   19.9274 C   0  0  0  0  0  0  0  0  0  0  0  0
    9.0748  -13.7385   18.6315 C   0  0  0  0  0  0  0  0  0  0  0  0
   10.7689  -14.5538   31.4062 O   0  0  0  0  0  0  0  0  0  0  0  0
   10.5127  -14.7424   30.0425 C   0  0  0  0  0  0  0  0  0  0  0  0
   10.5671  -16.0087   29.5016 C   0  0  0  0  0  0  0  0  0  0  0  0
   10.3121  -16.1991   28.1430 C   0  0  0  0  0  0  0  0  0  0  0  0
   10.0048  -15.1395   27.3241 C   0  0  0  0  0  0  0  0  0  0  0  0
    9.7368  -15.3097   25.8914 C   0  0  0  0  0  0  0  0  0  0  0  0
   10.2548  -16.6229   25.4055 C   0  0  2  0  0  0  0  0  0  0  0  0
    9.7618  -16.8835   24.0408 N   0  0  0  0  0  0  0  0  0  0  0  0
    9.9017  -17.7542   26.2741 C   0  0  0  0  0  0  0  0  0  0  0  0
    8.7212  -18.4416   26.0556 O   0  0  0  0  0  0  0  0  0  0  0  0
    9.9544  -13.8822   27.8788 C   0  0  0  0  0  0  0  0  0  0  0  0
   10.2041  -13.6914   29.2125 C   0  0  0  0  0  0  0  0  0  0  0  0
   10.6277  -18.1334   27.2176 O   0  0  0  0  0  0  0  0  0  0  0  0
  2  1  1  6
  3  2  1  0
  4  5  2  0
  4  3  1  0
  6  5  1  0
  7  8  2  0
  7  6  1  0
  8  4  1  0
  9  2  1  0
 10  9  2  0
 12 11  1  0
 12 22  2  0
 13 12  1  0
 14 13  2  0
 14 15  1  0
 15 21  2  0
 16 15  1  0
 17 16  1  1
 17 18  1  0
 18  9  1  0
 19 20  2  0
 19 17  1  0
 21 22  1  0
 24 34  2  0
 24 23  1  0
 25 24  1  0
 26 27  1  0
 26 25  2  0
 27 33  2  0
 29 28  1  1
 28 27  1  0
 29 30  1  0
 30 19  1  0
 31 32  1  0
 31 29  1  0
 33 34  1  0
 35 31  2  0
M  END
$$$$
