HYY.pdb
     RDKit          3D

 35 37  0  0  1  0  0  0  0  0999 V2000
    9.1268  -17.9597   18.4295 N   0  0  0  0  0  0  0  0  0  0  0  0
   10.0697  -16.8587   18.3938 C   0  0  1  0  0  0  0  0  0  0  0  0
    9.8742  -16.0171   17.1393 C   0  0  0  0  0  0  0  0  0  0  0  0
   10.0096  -16.9128   15.9599 C   0  0  0  0  0  0  0  0  0  0  0  0
   11.1389  -17.6231   15.5854 C   0  0  0  0  0  0  0  0  0  0  0  0
   10.8299  -18.3122   14.4512 N   0  0  0  0  0  0  0  0  0  0  0  0
    9.5514  -18.0466   14.1214 C   0  0  0  0  0  0  0  0  0  0  0  0
    9.0659  -17.2063   15.0312 N   0  0  0  0  0  0  0  0  0  0  0  0
    9.9843  -16.0289   19.6168 C   0  0  0  0  0  0  0  0  0  0  0  0
   10.7395  -15.0457   19.7986 O   0  0  0  0  0  0  0  0  0  0  0  0
    6.9567  -12.4304   27.0436 O   0  0  0  0  0  0  0  0  0  0  0  0
    7.1033  -13.1434   25.8555 C   0  0  0  0  0  0  0  0  0  0  0  0
    7.6017  -12.5150   24.7314 C   0  0  0  0  0  0  0  0  0  0  0  0
    7.7530  -13.2101   23.5441 C   0  0  0  0  0  0  0  0  0  0  0  0
    7.4150  -14.5510   23.4323 C   0  0  0  0  0  0  0  0  0  0  0  0
    7.5641  -15.3093   22.1923 C   0  0  0  0  0  0  0  0  0  0  0  0
    8.9689  -15.7306   21.9012 C   0  0  2  0  0  0  0  0  0  0  0  0
    9.0357  -16.3406   20.6088 N   0  0  0  0  0  0  0  0  0  0  0  0
    9.4253  -16.6626   22.9829 C   0  0  0  0  0  0  0  0  0  0  0  0
    8.6506  -17.5543   23.4148 O   0  0  0  0  0  0  0  0  0  0  0  0
    6.9192  -15.1743   24.5519 C   0  0  0  0  0  0  0  0  0  0  0  0
    6.7689  -14.4775   25.7375 C   0  0  0  0  0  0  0  0  0  0  0  0
   10.3872  -14.8548   31.1376 O   0  0  0  0  0  0  0  0  0  0  0  0
   10.3984  -14.9262   29.7391 C   0  0  0  0  0  0  0  0  0  0  0  0
   10.9303  -16.0316   29.1115 C   0  0  0  0  0  0  0  0  0  0  0  0
   10.9426  -16.1050   27.7181 C   0  0  0  0  0  0  0  0  0  0  0  0
   10.4301  -15.0875   26.9501 C   0  0  0  0  0  0  0  0  0  0  0  0
   10.4340  -15.1356   25.4835 C   0  0  0  0  0  0  0  0  0  0  0  0
   10.9090  -16.4644   24.9961 C   0  0  2  0  0  0  0  0  0  0  0  0
   10.7297  -16.5573   23.5357 N   0  0  0  0  0  0  0  0  0  0  0  0
   10.2405  -17.6028   25.6411 C   0  0  0  0  0  0  0  0  0  0  0  0
   10.9943  -18.5435   26.3199 O   0  0  0  0  0  0  0  0  0  0  0  0
    9.9028  -13.9911   27.5913 C   0  0  0  0  0  0  0  0  0  0  0  0
    9.8890  -13.9157   28.9594 C   0  0  0  0  0  0  0  0  0  0  0  0
    9.0024  -17.7668   25.6066 O   0  0  0  0  0  0  0  0  0  0  0  0
  2  1  1  1
  3  2  1  0
  4  5  2  0
  4  3  1  0
  6  5  1  0
  7  8  2  0
  7  6  1  0
  8  4  1  0
  9  2  1  0
 10  9  2  0
 12 11  1  0
 12 22  2  0
 13 12  1  0
 14 13  2  0
 14 15  1  0
 15 21  2  0
 16 15  1  0
 17 16  1  1
 17 18  1  0
 18  9  1  0
 19 20  2  0
 19 17  1  0
 21 22  1  0
 24 34  2  0
 24 23  1  0
 25 24  1  0
 26 27  1  0
 26 25  2  0
 27 33  2  0
 29 28  1  1
 28 27  1  0
 29 30  1  0
 30 19  1  0
 31 32  1  0
 31 29  1  0
 33 34  1  0
 35 31  2  0
M  END
$$$$
