LKC.pdb
     RDKit          3D

 24 23  0  0  1  0  0  0  0  0999 V2000
    9.2354  -13.3424   19.2651 C   0  0  0  0  0  0  0  0  0  0  0  0
    7.7641  -13.2796   19.5547 C   0  0  2  0  0  0  0  0  0  0  0  0
    7.2849  -11.8781   19.3609 C   0  0  0  0  0  0  0  0  0  0  0  0
    7.4069  -13.8595   20.8981 C   0  0  0  0  0  0  0  0  0  0  0  0
    8.1050  -15.1509   21.1904 C   0  0  2  0  0  0  0  0  0  0  0  0
    7.6722  -16.2504   20.3961 N   0  0  0  0  0  0  0  0  0  0  0  0
    7.8703  -15.4843   22.6200 C   0  0  0  0  0  0  0  0  0  0  0  0
    7.3082  -14.6696   23.3894 O   0  0  0  0  0  0  0  0  0  0  0  0
    8.2727  -16.7337   23.1652 N   0  0  0  0  0  0  0  0  0  0  0  0
    8.0966  -17.0382   24.6068 C   0  0  1  0  0  0  0  0  0  0  0  0
    8.0212  -18.5441   24.7035 C   0  0  0  0  0  0  0  0  0  0  0  0
    6.7070  -19.1313   24.2872 C   0  0  0  0  0  0  0  0  0  0  0  0
    6.8902  -20.6583   24.3645 C   0  0  0  0  0  0  0  0  0  0  0  0
    5.5424  -21.2604   24.0303 C   0  0  0  0  0  0  0  0  0  0  0  0
    5.6618  -22.6997   24.0689 N   0  0  0  0  0  0  0  0  0  0  0  0
    9.2279  -16.4389   25.3326 C   0  0  0  0  0  0  0  0  0  0  0  0
   10.3326  -16.2951   24.7061 O   0  0  0  0  0  0  0  0  0  0  0  0
    9.2335  -15.9929   26.6651 N   0  0  0  0  0  0  0  0  0  0  0  0
   10.4090  -15.4985   27.3572 C   0  0  1  0  0  0  0  0  0  0  0  0
   10.3232  -13.9792   27.3240 C   0  0  0  0  0  0  0  0  0  0  0  0
    8.6351  -13.5108   27.8286 S   0  0  0  0  0  0  0  0  0  0  0  0
   10.4042  -15.8972   28.7885 C   0  0  0  0  0  0  0  0  0  0  0  0
    9.4886  -16.5756   29.3049 O   0  0  0  0  0  0  0  0  0  0  0  0
   11.4682  -15.4917   29.5723 O   0  0  0  0  0  0  0  0  0  0  0  0
  2  1  1  1
  3  2  1  0
  4  2  1  0
  5  6  1  6
  5  4  1  0
  7  5  1  0
  8  7  2  0
  9  7  1  0
 10 11  1  6
 10  9  1  0
 11 12  1  0
 12 13  1  0
 13 14  1  0
 14 15  1  0
 16 10  1  0
 17 16  2  0
 18 16  1  0
 19 22  1  0
 19 18  1  0
 20 21  1  0
 19 20  1  1
 22 24  1  0
 23 22  2  0
M  END
$$$$
