LKC.pdb
     RDKit          3D

 24 23  0  0  1  0  0  0  0  0999 V2000
    9.4305  -12.5072   19.8583 C   0  0  0  0  0  0  0  0  0  0  0  0
    8.1874  -13.3204   19.6444 C   0  0  2  0  0  0  0  0  0  0  0  0
    7.2034  -12.5160   18.8596 C   0  0  0  0  0  0  0  0  0  0  0  0
    7.6259  -13.8787   20.9256 C   0  0  0  0  0  0  0  0  0  0  0  0
    8.6448  -14.5929   21.7576 C   0  0  2  0  0  0  0  0  0  0  0  0
    9.2189  -15.7379   21.1360 N   0  0  0  0  0  0  0  0  0  0  0  0
    7.9851  -15.0248   23.0177 C   0  0  0  0  0  0  0  0  0  0  0  0
    7.2550  -14.2392   23.6668 O   0  0  0  0  0  0  0  0  0  0  0  0
    8.1569  -16.3390   23.5312 N   0  0  0  0  0  0  0  0  0  0  0  0
    7.4606  -16.7818   24.7646 C   0  0  1  0  0  0  0  0  0  0  0  0
    6.8578  -18.1279   24.4367 C   0  0  0  0  0  0  0  0  0  0  0  0
    6.0453  -18.1580   23.1780 C   0  0  0  0  0  0  0  0  0  0  0  0
    5.5978  -19.6215   23.0066 C   0  0  0  0  0  0  0  0  0  0  0  0
    4.7203  -19.6505   21.7737 C   0  0  0  0  0  0  0  0  0  0  0  0
    4.2696  -21.0071   21.5644 N   0  0  0  0  0  0  0  0  0  0  0  0
    8.4510  -16.8086   25.8528 C   0  0  0  0  0  0  0  0  0  0  0  0
    8.1896  -17.5184   26.8830 O   0  0  0  0  0  0  0  0  0  0  0  0
    9.6813  -16.1307   25.8900 N   0  0  0  0  0  0  0  0  0  0  0  0
   10.1734  -15.3913   27.0374 C   0  0  1  0  0  0  0  0  0  0  0  0
    9.0370  -14.4841   27.4869 C   0  0  0  0  0  0  0  0  0  0  0  0
    9.5988  -13.5916   28.9741 S   0  0  0  0  0  0  0  0  0  0  0  0
   10.4766  -16.2956   28.1766 C   0  0  0  0  0  0  0  0  0  0  0  0
   11.3186  -16.0212   29.0603 O   0  0  0  0  0  0  0  0  0  0  0  0
    9.7877  -17.4918   28.2488 O   0  0  0  0  0  0  0  0  0  0  0  0
  2  1  1  1
  3  2  1  0
  4  2  1  0
  5  6  1  6
  5  4  1  0
  7  5  1  0
  8  7  2  0
  9  7  1  0
 10 11  1  6
 10  9  1  0
 11 12  1  0
 12 13  1  0
 13 14  1  0
 14 15  1  0
 16 10  1  0
 17 16  2  0
 18 16  1  0
 19 22  1  0
 19 18  1  0
 20 21  1  0
 19 20  1  1
 22 24  1  0
 23 22  2  0
M  END
$$$$
