LKC.pdb
     RDKit          3D

 24 23  0  0  1  0  0  0  0  0999 V2000
    9.5799  -13.4330   19.3311 C   0  0  0  0  0  0  0  0  0  0  0  0
    8.0951  -13.4049   19.5483 C   0  0  2  0  0  0  0  0  0  0  0  0
    7.6174  -11.9907   19.4926 C   0  0  0  0  0  0  0  0  0  0  0  0
    7.6723  -14.1365   20.7951 C   0  0  0  0  0  0  0  0  0  0  0  0
    8.2053  -15.5331   20.8722 C   0  0  2  0  0  0  0  0  0  0  0  0
    7.5086  -16.4776   20.0663 N   0  0  0  0  0  0  0  0  0  0  0  0
    8.1247  -15.9758   22.2890 C   0  0  0  0  0  0  0  0  0  0  0  0
    7.0182  -16.2016   22.8332 O   0  0  0  0  0  0  0  0  0  0  0  0
    9.2942  -16.1588   23.0757 N   0  0  0  0  0  0  0  0  0  0  0  0
    9.2105  -16.6002   24.4900 C   0  0  1  0  0  0  0  0  0  0  0  0
   10.1602  -17.7687   24.6138 C   0  0  0  0  0  0  0  0  0  0  0  0
    9.7132  -19.0136   23.9097 C   0  0  0  0  0  0  0  0  0  0  0  0
   10.8390  -20.0416   24.1271 C   0  0  0  0  0  0  0  0  0  0  0  0
   10.4232  -21.2856   23.3718 C   0  0  0  0  0  0  0  0  0  0  0  0
   11.4614  -22.2793   23.5196 N   0  0  0  0  0  0  0  0  0  0  0  0
    9.5513  -15.4478   25.3396 C   0  0  0  0  0  0  0  0  0  0  0  0
   10.6290  -14.8113   25.0813 O   0  0  0  0  0  0  0  0  0  0  0  0
    8.8099  -14.9527   26.4258 N   0  0  0  0  0  0  0  0  0  0  0  0
    9.2741  -13.9154   27.3280 C   0  0  1  0  0  0  0  0  0  0  0  0
    8.0304  -13.2240   27.8682 C   0  0  0  0  0  0  0  0  0  0  0  0
    7.0502  -12.6564   26.4397 S   0  0  0  0  0  0  0  0  0  0  0  0
    9.9866  -14.4919   28.4974 C   0  0  0  0  0  0  0  0  0  0  0  0
   10.1061  -15.7231   28.6847 O   0  0  0  0  0  0  0  0  0  0  0  0
   10.5372  -13.6134   29.4116 O   0  0  0  0  0  0  0  0  0  0  0  0
  2  1  1  1
  3  2  1  0
  4  2  1  0
  5  6  1  6
  5  4  1  0
  7  5  1  0
  8  7  2  0
  9  7  1  0
 10 11  1  6
 10  9  1  0
 11 12  1  0
 12 13  1  0
 13 14  1  0
 14 15  1  0
 16 10  1  0
 17 16  2  0
 18 16  1  0
 19 22  1  0
 19 18  1  0
 20 21  1  0
 19 20  1  1
 22 24  1  0
 23 22  2  0
M  END
$$$$
