LKC.pdb
     RDKit          3D

 24 23  0  0  1  0  0  0  0  0999 V2000
    6.4161  -12.5860   25.6357 C   0  0  0  0  0  0  0  0  0  0  0  0
    6.1543  -13.2912   26.9344 C   0  0  2  0  0  0  0  0  0  0  0  0
    6.7528  -12.5008   28.0517 C   0  0  0  0  0  0  0  0  0  0  0  0
    6.5882  -14.7334   26.9148 C   0  0  0  0  0  0  0  0  0  0  0  0
    5.9245  -15.5374   25.8408 C   0  0  2  0  0  0  0  0  0  0  0  0
    5.3411  -16.7562   26.2892 N   0  0  0  0  0  0  0  0  0  0  0  0
    6.9476  -15.8583   24.8113 C   0  0  0  0  0  0  0  0  0  0  0  0
    7.6061  -16.9238   24.8651 O   0  0  0  0  0  0  0  0  0  0  0  0
    7.2162  -14.9728   23.7324 N   0  0  0  0  0  0  0  0  0  0  0  0
    8.2436  -15.2924   22.7105 C   0  0  1  0  0  0  0  0  0  0  0  0
    8.0993  -14.2383   21.6376 C   0  0  0  0  0  0  0  0  0  0  0  0
    9.0371  -14.3943   20.4794 C   0  0  0  0  0  0  0  0  0  0  0  0
    8.4175  -13.5785   19.3296 C   0  0  0  0  0  0  0  0  0  0  0  0
    9.2639  -13.8650   18.1079 C   0  0  0  0  0  0  0  0  0  0  0  0
    8.8012  -13.0290   17.0243 N   0  0  0  0  0  0  0  0  0  0  0  0
    9.5540  -15.3016   23.3804 C   0  0  0  0  0  0  0  0  0  0  0  0
   10.5873  -15.5522   22.6714 O   0  0  0  0  0  0  0  0  0  0  0  0
    9.8068  -15.0580   24.7411 N   0  0  0  0  0  0  0  0  0  0  0  0
   11.1191  -15.1341   25.3555 C   0  0  1  0  0  0  0  0  0  0  0  0
   10.9256  -14.8094   26.8299 C   0  0  0  0  0  0  0  0  0  0  0  0
   12.5348  -15.0274   27.6586 S   0  0  0  0  0  0  0  0  0  0  0  0
   11.6709  -16.5119   25.2885 C   0  0  0  0  0  0  0  0  0  0  0  0
   10.9543  -17.5281   25.1499 O   0  0  0  0  0  0  0  0  0  0  0  0
   13.0417  -16.6608   25.3853 O   0  0  0  0  0  0  0  0  0  0  0  0
  2  1  1  6
  3  2  1  0
  4  2  1  0
  5  6  1  1
  5  4  1  0
  7  5  1  0
  8  7  2  0
  9  7  1  0
 10 11  1  6
 10  9  1  0
 11 12  1  0
 12 13  1  0
 13 14  1  0
 14 15  1  0
 16 10  1  0
 17 16  2  0
 18 16  1  0
 19 22  1  0
 19 18  1  0
 20 21  1  0
 19 20  1  1
 22 24  1  0
 23 22  2  0
M  END
$$$$
