LKC.pdb
     RDKit          3D

 24 23  0  0  1  0  0  0  0  0999 V2000
    9.4941  -13.5600   19.3847 C   0  0  0  0  0  0  0  0  0  0  0  0
    8.0016  -13.6509   19.2557 C   0  0  2  0  0  0  0  0  0  0  0  0
    7.4702  -12.3419   18.7705 C   0  0  0  0  0  0  0  0  0  0  0  0
    7.3348  -14.1448   20.5126 C   0  0  0  0  0  0  0  0  0  0  0  0
    7.9167  -15.4236   21.0289 C   0  0  2  0  0  0  0  0  0  0  0  0
    7.4477  -16.5954   20.3702 N   0  0  0  0  0  0  0  0  0  0  0  0
    7.5784  -15.5301   22.4725 C   0  0  0  0  0  0  0  0  0  0  0  0
    6.7029  -14.7948   22.9868 O   0  0  0  0  0  0  0  0  0  0  0  0
    8.2323  -16.4654   23.3197 N   0  0  0  0  0  0  0  0  0  0  0  0
    7.8109  -16.6540   24.7300 C   0  0  1  0  0  0  0  0  0  0  0  0
    7.8326  -18.1454   24.9706 C   0  0  0  0  0  0  0  0  0  0  0  0
    6.7289  -18.9024   24.2967 C   0  0  0  0  0  0  0  0  0  0  0  0
    6.9497  -20.3801   24.6695 C   0  0  0  0  0  0  0  0  0  0  0  0
    5.8456  -21.1557   23.9839 C   0  0  0  0  0  0  0  0  0  0  0  0
    6.0596  -22.5644   24.2223 N   0  0  0  0  0  0  0  0  0  0  0  0
    8.7366  -15.8881   25.5801 C   0  0  0  0  0  0  0  0  0  0  0  0
    9.9887  -15.9905   25.3456 O   0  0  0  0  0  0  0  0  0  0  0  0
    8.3948  -15.0347   26.6428 N   0  0  0  0  0  0  0  0  0  0  0  0
    9.3576  -14.3887   27.5152 C   0  0  1  0  0  0  0  0  0  0  0  0
    8.6544  -13.1796   28.1152 C   0  0  0  0  0  0  0  0  0  0  0  0
    7.8720  -12.2617   26.7481 S   0  0  0  0  0  0  0  0  0  0  0  0
    9.7393  -15.2695   28.6492 C   0  0  0  0  0  0  0  0  0  0  0  0
    9.2411  -16.4026   28.8309 O   0  0  0  0  0  0  0  0  0  0  0  0
   10.6905  -14.8002   29.5357 O   0  0  0  0  0  0  0  0  0  0  0  0
  2  1  1  1
  3  2  1  0
  4  2  1  0
  5  6  1  6
  5  4  1  0
  7  5  1  0
  8  7  2  0
  9  7  1  0
 10 11  1  1
 10  9  1  0
 11 12  1  0
 12 13  1  0
 13 14  1  0
 14 15  1  0
 16 10  1  0
 17 16  2  0
 18 16  1  0
 19 22  1  0
 19 18  1  0
 20 21  1  0
 19 20  1  1
 22 24  1  0
 23 22  2  0
M  END
$$$$
