LKC.pdb
     RDKit          3D

 24 23  0  0  1  0  0  0  0  0999 V2000
    9.5431  -14.3002   19.8245 C   0  0  0  0  0  0  0  0  0  0  0  0
    8.1089  -13.9456   19.5602 C   0  0  2  0  0  0  0  0  0  0  0  0
    7.9996  -12.4720   19.3417 C   0  0  0  0  0  0  0  0  0  0  0  0
    7.1724  -14.4705   20.6167 C   0  0  0  0  0  0  0  0  0  0  0  0
    7.4390  -15.8953   20.9899 C   0  0  2  0  0  0  0  0  0  0  0  0
    6.6038  -16.8446   20.3355 N   0  0  0  0  0  0  0  0  0  0  0  0
    7.2400  -16.0286   22.4571 C   0  0  0  0  0  0  0  0  0  0  0  0
    6.1453  -15.7304   22.9902 O   0  0  0  0  0  0  0  0  0  0  0  0
    8.2791  -16.4972   23.3061 N   0  0  0  0  0  0  0  0  0  0  0  0
    8.0493  -16.7192   24.7552 C   0  0  1  0  0  0  0  0  0  0  0  0
    8.4699  -18.1450   25.0254 C   0  0  0  0  0  0  0  0  0  0  0  0
    8.4038  -18.5529   26.4657 C   0  0  0  0  0  0  0  0  0  0  0  0
    8.8928  -20.0125   26.5077 C   0  0  0  0  0  0  0  0  0  0  0  0
    8.7885  -20.4490   27.9532 C   0  0  0  0  0  0  0  0  0  0  0  0
    9.2617  -21.8101   28.0557 N   0  0  0  0  0  0  0  0  0  0  0  0
    8.8240  -15.7075   25.4917 C   0  0  0  0  0  0  0  0  0  0  0  0
   10.0486  -15.5382   25.1675 O   0  0  0  0  0  0  0  0  0  0  0  0
    8.3614  -14.8846   26.5325 N   0  0  0  0  0  0  0  0  0  0  0  0
    9.1987  -13.9692   27.2851 C   0  0  1  0  0  0  0  0  0  0  0  0
    8.2590  -12.9868   27.9693 C   0  0  0  0  0  0  0  0  0  0  0  0
    7.2513  -12.1935   26.6735 S   0  0  0  0  0  0  0  0  0  0  0  0
    9.9413  -14.6735   28.3622 C   0  0  0  0  0  0  0  0  0  0  0  0
    9.7631  -15.8809   28.6370 O   0  0  0  0  0  0  0  0  0  0  0  0
   10.8688  -13.9465   29.0848 O   0  0  0  0  0  0  0  0  0  0  0  0
  2  1  1  1
  3  2  1  0
  4  2  1  0
  5  6  1  6
  5  4  1  0
  7  5  1  0
  8  7  2  0
  9  7  1  0
 10 11  1  1
 10  9  1  0
 11 12  1  0
 12 13  1  0
 13 14  1  0
 14 15  1  0
 16 10  1  0
 17 16  2  0
 18 16  1  0
 19 22  1  0
 19 18  1  0
 20 21  1  0
 19 20  1  1
 22 24  1  0
 23 22  2  0
M  END
$$$$
