LKC.pdb
     RDKit          3D

 24 23  0  0  1  0  0  0  0  0999 V2000
    6.4794  -12.3639   23.9621 C   0  0  0  0  0  0  0  0  0  0  0  0
    5.8182  -12.9357   25.1820 C   0  0  2  0  0  0  0  0  0  0  0  0
    5.6467  -11.8555   26.1994 C   0  0  0  0  0  0  0  0  0  0  0  0
    6.5228  -14.1572   25.7111 C   0  0  0  0  0  0  0  0  0  0  0  0
    6.3897  -15.3513   24.8183 C   0  0  2  0  0  0  0  0  0  0  0  0
    5.3757  -16.2715   25.2083 N   0  0  0  0  0  0  0  0  0  0  0  0
    7.6935  -16.0653   24.8121 C   0  0  0  0  0  0  0  0  0  0  0  0
    8.0472  -16.7729   25.7847 O   0  0  0  0  0  0  0  0  0  0  0  0
    8.5837  -15.9726   23.7080 N   0  0  0  0  0  0  0  0  0  0  0  0
    9.8916  -16.6738   23.7114 C   0  0  1  0  0  0  0  0  0  0  0  0
   10.4765  -16.4614   22.3346 C   0  0  0  0  0  0  0  0  0  0  0  0
   11.8390  -17.0528   22.1373 C   0  0  0  0  0  0  0  0  0  0  0  0
   11.6015  -18.5214   21.7394 C   0  0  0  0  0  0  0  0  0  0  0  0
   12.9693  -19.1085   21.4650 C   0  0  0  0  0  0  0  0  0  0  0  0
   12.8077  -20.5003   21.1127 N   0  0  0  0  0  0  0  0  0  0  0  0
   10.6979  -16.1123   24.8071 C   0  0  0  0  0  0  0  0  0  0  0  0
   10.9250  -14.8547   24.7998 O   0  0  0  0  0  0  0  0  0  0  0  0
   11.2576  -16.8150   25.8876 N   0  0  0  0  0  0  0  0  0  0  0  0
   11.7898  -16.1883   27.0832 C   0  0  1  0  0  0  0  0  0  0  0  0
   10.6187  -15.4973   27.7670 C   0  0  0  0  0  0  0  0  0  0  0  0
   11.2276  -14.8078   29.3410 S   0  0  0  0  0  0  0  0  0  0  0  0
   12.3100  -17.1987   28.0402 C   0  0  0  0  0  0  0  0  0  0  0  0
   11.9666  -18.4015   28.0164 O   0  0  0  0  0  0  0  0  0  0  0  0
   13.2146  -16.7737   28.9951 O   0  0  0  0  0  0  0  0  0  0  0  0
  2  1  1  6
  3  2  1  0
  4  2  1  0
  5  6  1  1
  5  4  1  0
  7  5  1  0
  8  7  2  0
  9  7  1  0
 10 11  1  6
 10  9  1  0
 11 12  1  0
 12 13  1  0
 13 14  1  0
 14 15  1  0
 16 10  1  0
 17 16  2  0
 18 16  1  0
 19 22  1  0
 19 18  1  0
 20 21  1  0
 19 20  1  1
 22 24  1  0
 23 22  2  0
M  END
$$$$
