LKC.pdb
     RDKit          3D

 24 23  0  0  1  0  0  0  0  0999 V2000
    5.6644  -12.6260   26.1377 C   0  0  0  0  0  0  0  0  0  0  0  0
    6.6011  -13.2487   27.1314 C   0  0  2  0  0  0  0  0  0  0  0  0
    7.5162  -12.1976   27.6691 C   0  0  0  0  0  0  0  0  0  0  0  0
    7.3208  -14.4524   26.5823 C   0  0  0  0  0  0  0  0  0  0  0  0
    6.4769  -15.2788   25.6628 C   0  0  2  0  0  0  0  0  0  0  0  0
    5.9291  -16.4514   26.2561 N   0  0  0  0  0  0  0  0  0  0  0  0
    7.3220  -15.6877   24.5102 C   0  0  0  0  0  0  0  0  0  0  0  0
    8.0386  -16.7148   24.5668 O   0  0  0  0  0  0  0  0  0  0  0  0
    7.3489  -14.9325   23.3064 N   0  0  0  0  0  0  0  0  0  0  0  0
    8.2112  -15.3302   22.1661 C   0  0  1  0  0  0  0  0  0  0  0  0
    7.8823  -14.3704   21.0465 C   0  0  0  0  0  0  0  0  0  0  0  0
    8.6196  -14.6272   19.7675 C   0  0  0  0  0  0  0  0  0  0  0  0
    8.0006  -13.6710   18.7312 C   0  0  0  0  0  0  0  0  0  0  0  0
    8.6571  -14.0033   17.4085 C   0  0  0  0  0  0  0  0  0  0  0  0
    8.1459  -13.0996   16.4040 N   0  0  0  0  0  0  0  0  0  0  0  0
    9.6096  -15.2754   22.6217 C   0  0  0  0  0  0  0  0  0  0  0  0
    9.9986  -14.2242   23.2357 O   0  0  0  0  0  0  0  0  0  0  0  0
   10.5888  -16.2700   22.4589 N   0  0  0  0  0  0  0  0  0  0  0  0
   11.9817  -16.1157   22.8349 C   0  0  1  0  0  0  0  0  0  0  0  0
   12.3395  -17.3319   23.6771 C   0  0  0  0  0  0  0  0  0  0  0  0
   11.3906  -17.2259   25.2303 S   0  0  0  0  0  0  0  0  0  0  0  0
   12.8713  -16.1411   21.6451 C   0  0  0  0  0  0  0  0  0  0  0  0
   12.4579  -16.3813   20.4890 O   0  0  0  0  0  0  0  0  0  0  0  0
   14.2154  -15.8856   21.8419 O   0  0  0  0  0  0  0  0  0  0  0  0
  2  1  1  6
  3  2  1  0
  4  2  1  0
  5  6  1  1
  5  4  1  0
  7  5  1  0
  8  7  2  0
  9  7  1  0
 10 11  1  6
 10  9  1  0
 11 12  1  0
 12 13  1  0
 13 14  1  0
 14 15  1  0
 16 10  1  0
 17 16  2  0
 18 16  1  0
 19 22  1  0
 19 18  1  0
 20 21  1  0
 19 20  1  1
 22 24  1  0
 23 22  2  0
M  END
$$$$
