PRQ.pdb
     RDKit          3D

 28 28  0  0  1  0  0  0  0  0999 V2000
   26.6393  -21.8700  -15.0445 N   0  0  0  0  0  0  0  0  0  0  0  0
   27.8432  -21.7514  -15.8097 C   0  0  0  0  0  0  0  0  0  0  0  0
   28.6800  -20.6519  -15.1738 C   0  0  0  0  0  0  0  0  0  0  0  0
   27.5766  -19.8532  -14.4641 C   0  0  0  0  0  0  0  0  0  0  0  0
   26.7262  -20.9639  -13.9296 C   0  0  1  0  0  0  0  0  0  0  0  0
   25.3949  -20.5170  -13.4555 C   0  0  0  0  0  0  0  0  0  0  0  0
   25.3606  -19.7202  -12.4846 O   0  0  0  0  0  0  0  0  0  0  0  0
   19.6796  -20.7210  -17.8631 N   0  0  0  0  0  0  0  0  0  0  0  0
   18.8459  -19.7873  -17.1839 C   0  0  0  0  0  0  0  0  0  0  0  0
   17.5600  -19.9037  -17.1699 N   0  0  0  0  0  0  0  0  0  0  0  0
   19.5002  -18.7171  -16.5193 N   0  0  0  0  0  0  0  0  0  0  0  0
   20.9408  -18.6220  -16.5569 C   0  0  0  0  0  0  0  0  0  0  0  0
   21.4527  -18.6693  -15.1212 C   0  0  0  0  0  0  0  0  0  0  0  0
   22.7635  -19.3497  -15.0276 C   0  0  0  0  0  0  0  0  0  0  0  0
   22.9006  -20.2026  -13.8032 C   0  0  2  0  0  0  0  0  0  0  0  0
   24.1811  -20.9337  -14.0293 N   0  0  0  0  0  0  0  0  0  0  0  0
   21.8282  -21.2125  -13.6382 C   0  0  0  0  0  0  0  0  0  0  0  0
   21.7394  -22.2058  -14.4372 O   0  0  0  0  0  0  0  0  0  0  0  0
   16.9471  -19.1782  -16.7797 N   0  0  0  0  0  0  0  0  0  0  0  0
   19.5290  -23.1759   -8.2420 C   0  0  0  0  0  0  0  0  0  0  0  0
   19.6612  -24.2458   -9.1569 O   0  0  0  0  0  0  0  0  0  0  0  0
   19.6813  -25.4597   -8.7772 C   0  0  0  0  0  0  0  0  0  0  0  0
   19.7741  -23.9751  -10.5916 C   0  0  0  0  0  0  0  0  0  0  0  0
   19.8355  -22.5426  -10.9939 C   0  0  2  0  0  0  0  0  0  0  0  0
   19.8357  -22.2144  -12.4377 N   0  0  0  0  0  0  0  0  0  0  0  0
   20.8580  -21.1645  -12.6235 C   0  0  0  0  0  0  0  0  0  0  0  0
   18.6023  -21.9037  -13.1159 O   0  0  0  0  0  0  0  0  0  0  0  0
   18.1779  -20.7115  -13.1651 O   0  0  0  0  0  0  0  0  0  0  0  0
  1  5  1  0
  1  2  1  0
  2  3  1  0
  4  3  1  0
  5  4  1  0
  5  6  1  6
  7  6  2  0
  9 10  2  0
  9  8  1  0
 11  9  1  0
 12 11  1  0
 13 12  1  0
 15 14  1  6
 14 13  1  0
 15 16  1  0
 16  6  1  0
 17 15  1  0
 18 17  2  0
 19 20  1  0
 20 22  1  0
 21 20  2  0
 22 23  1  0
 24 23  1  6
 24 25  1  0
 25 17  1  0
 26 24  1  0
 26 28  1  0
 27 26  2  0
M  END
$$$$
