PRQ.pdb
     RDKit          3D

 28 28  0  0  1  0  0  0  0  0999 V2000
   18.4748  -16.2193    2.7189 N   0  0  0  0  0  0  0  0  0  0  0  0
   18.4095  -15.2558    1.6622 C   0  0  0  0  0  0  0  0  0  0  0  0
   17.8711  -13.9638    2.2574 C   0  0  0  0  0  0  0  0  0  0  0  0
   17.1207  -14.5231    3.4753 C   0  0  0  0  0  0  0  0  0  0  0  0
   18.0850  -15.5694    3.9424 C   0  0  1  0  0  0  0  0  0  0  0  0
   17.5058  -16.5132    4.9277 C   0  0  0  0  0  0  0  0  0  0  0  0
   17.1773  -16.0534    6.0499 O   0  0  0  0  0  0  0  0  0  0  0  0
   15.6756  -19.8551    1.0523 N   0  0  0  0  0  0  0  0  0  0  0  0
   15.4938  -21.2626    1.1698 C   0  0  0  0  0  0  0  0  0  0  0  0
   15.9320  -22.0850    0.2760 N   0  0  0  0  0  0  0  0  0  0  0  0
   14.8045  -21.7204    2.3232 N   0  0  0  0  0  0  0  0  0  0  0  0
   14.4709  -20.7905    3.3767 C   0  0  0  0  0  0  0  0  0  0  0  0
   15.7736  -20.2512    3.9578 C   0  0  0  0  0  0  0  0  0  0  0  0
   15.5313  -19.3556    5.1107 C   0  0  0  0  0  0  0  0  0  0  0  0
   16.7920  -18.8175    5.7162 C   0  0  2  0  0  0  0  0  0  0  0  0
   17.3070  -17.8816    4.6748 N   0  0  0  0  0  0  0  0  0  0  0  0
   17.8377  -19.8392    5.9605 C   0  0  0  0  0  0  0  0  0  0  0  0
   18.5179  -20.3207    4.9919 O   0  0  0  0  0  0  0  0  0  0  0  0
   15.7863  -23.0991    0.3441 N   0  0  0  0  0  0  0  0  0  0  0  0
   22.0679  -19.2201    9.9527 C   0  0  0  0  0  0  0  0  0  0  0  0
   22.0179  -18.8854    8.5798 O   0  0  0  0  0  0  0  0  0  0  0  0
   22.7725  -17.9947    8.0746 C   0  0  0  0  0  0  0  0  0  0  0  0
   21.0816  -19.5750    7.6898 C   0  0  0  0  0  0  0  0  0  0  0  0
   20.2461  -20.6435    8.3046 C   0  0  2  0  0  0  0  0  0  0  0  0
   19.2375  -21.3240    7.4608 N   0  0  0  0  0  0  0  0  0  0  0  0
   18.1581  -20.3419    7.2325 C   0  0  0  0  0  0  0  0  0  0  0  0
   18.7285  -22.6201    7.8335 O   0  0  0  0  0  0  0  0  0  0  0  0
   17.5090  -22.7682    8.1411 O   0  0  0  0  0  0  0  0  0  0  0  0
  1  5  1  0
  1  2  1  0
  2  3  1  0
  4  3  1  0
  5  4  1  0
  5  6  1  1
  7  6  2  0
  9 10  2  0
  9  8  1  0
 11  9  1  0
 12 11  1  0
 13 12  1  0
 15 14  1  6
 14 13  1  0
 15 16  1  0
 16  6  1  0
 17 15  1  0
 18 17  2  0
 19 20  1  0
 20 22  1  0
 21 20  2  0
 22 23  1  0
 24 23  1  6
 24 25  1  0
 25 17  1  0
 26 24  1  0
 26 28  1  0
 27 26  2  0
M  END
$$$$
