PRQ.pdb
     RDKit          3D

 28 28  0  0  1  0  0  0  0  0999 V2000
   26.6659  -19.7296  -16.6497 N   0  0  0  0  0  0  0  0  0  0  0  0
   28.0266  -19.4960  -17.0278 C   0  0  0  0  0  0  0  0  0  0  0  0
   28.8660  -19.5463  -15.7604 C   0  0  0  0  0  0  0  0  0  0  0  0
   27.7925  -19.2075  -14.7155 C   0  0  0  0  0  0  0  0  0  0  0  0
   26.6340  -20.0007  -15.2365 C   0  0  1  0  0  0  0  0  0  0  0  0
   25.3378  -19.6355  -14.6171 C   0  0  0  0  0  0  0  0  0  0  0  0
   25.2028  -19.8438  -13.3853 O   0  0  0  0  0  0  0  0  0  0  0  0
   23.9503  -16.3815  -19.3607 N   0  0  0  0  0  0  0  0  0  0  0  0
   22.5574  -16.1497  -19.5460 C   0  0  0  0  0  0  0  0  0  0  0  0
   22.0038  -16.2102  -20.7110 N   0  0  0  0  0  0  0  0  0  0  0  0
   21.8029  -15.8478  -18.3822 N   0  0  0  0  0  0  0  0  0  0  0  0
   22.4595  -15.7834  -17.0974 C   0  0  0  0  0  0  0  0  0  0  0  0
   22.7297  -17.2114  -16.6354 C   0  0  0  0  0  0  0  0  0  0  0  0
   22.7046  -17.3253  -15.1602 C   0  0  0  0  0  0  0  0  0  0  0  0
   22.9730  -18.7158  -14.6702 C   0  0  2  0  0  0  0  0  0  0  0  0
   24.2629  -19.0743  -15.3282 N   0  0  0  0  0  0  0  0  0  0  0  0
   21.9617  -19.7166  -15.0858 C   0  0  0  0  0  0  0  0  0  0  0  0
   22.0379  -20.2852  -16.2275 O   0  0  0  0  0  0  0  0  0  0  0  0
   21.0078  -16.0081  -20.8570 N   0  0  0  0  0  0  0  0  0  0  0  0
   23.7214  -24.1540  -14.0298 C   0  0  0  0  0  0  0  0  0  0  0  0
   22.4333  -24.7029  -13.8334 O   0  0  0  0  0  0  0  0  0  0  0  0
   22.2566  -25.9385  -13.5883 C   0  0  0  0  0  0  0  0  0  0  0  0
   21.2503  -23.8427  -13.9034 C   0  0  0  0  0  0  0  0  0  0  0  0
   21.4997  -22.3820  -14.0522 C   0  0  1  0  0  0  0  0  0  0  0  0
   20.3414  -21.4877  -14.2777 N   0  0  0  0  0  0  0  0  0  0  0  0
   20.8767  -20.1110  -14.2855 C   0  0  0  0  0  0  0  0  0  0  0  0
   19.1562  -21.6096  -13.4666 O   0  0  0  0  0  0  0  0  0  0  0  0
   18.4839  -22.6829  -13.4671 O   0  0  0  0  0  0  0  0  0  0  0  0
  1  5  1  0
  1  2  1  0
  2  3  1  0
  4  3  1  0
  5  4  1  0
  5  6  1  1
  7  6  2  0
  9 10  2  0
  9  8  1  0
 11  9  1  0
 12 11  1  0
 13 12  1  0
 15 14  1  6
 14 13  1  0
 15 16  1  0
 16  6  1  0
 17 15  1  0
 18 17  2  0
 19 20  1  0
 20 22  1  0
 21 20  2  0
 22 23  1  0
 24 23  1  6
 24 25  1  0
 25 17  1  0
 26 24  1  0
 26 28  1  0
 27 26  2  0
M  END
$$$$
