PRQ.pdb
     RDKit          3D

 28 28  0  0  1  0  0  0  0  0999 V2000
   27.0546  -15.9462  -17.3374 N   0  0  0  0  0  0  0  0  0  0  0  0
   28.2121  -15.1044  -17.3174 C   0  0  0  0  0  0  0  0  0  0  0  0
   29.2578  -15.7475  -18.2155 C   0  0  0  0  0  0  0  0  0  0  0  0
   28.7844  -17.2080  -18.1732 C   0  0  0  0  0  0  0  0  0  0  0  0
   27.3006  -17.0242  -18.2587 C   0  0  1  0  0  0  0  0  0  0  0  0
   26.5308  -18.2455  -17.9228 C   0  0  0  0  0  0  0  0  0  0  0  0
   26.7306  -19.2697  -18.6228 O   0  0  0  0  0  0  0  0  0  0  0  0
   26.1265  -20.8132  -10.8926 N   0  0  0  0  0  0  0  0  0  0  0  0
   25.0011  -20.9031  -11.7607 C   0  0  0  0  0  0  0  0  0  0  0  0
   23.7910  -20.7927  -11.3241 N   0  0  0  0  0  0  0  0  0  0  0  0
   25.2753  -21.1207  -13.1364 N   0  0  0  0  0  0  0  0  0  0  0  0
   26.6226  -20.9663  -13.6332 C   0  0  0  0  0  0  0  0  0  0  0  0
   26.5967  -19.9243  -14.7464 C   0  0  0  0  0  0  0  0  0  0  0  0
   25.9804  -20.4561  -15.9822 C   0  0  0  0  0  0  0  0  0  0  0  0
   24.8896  -19.5819  -16.5221 C   0  0  2  0  0  0  0  0  0  0  0  0
   25.5984  -18.3171  -16.8733 N   0  0  0  0  0  0  0  0  0  0  0  0
   23.8312  -19.2475  -15.5399 C   0  0  0  0  0  0  0  0  0  0  0  0
   24.0804  -18.4812  -14.5482 O   0  0  0  0  0  0  0  0  0  0  0  0
   22.9785  -20.7920  -11.9518 N   0  0  0  0  0  0  0  0  0  0  0  0
   18.6091  -16.7967  -16.6297 C   0  0  0  0  0  0  0  0  0  0  0  0
   19.9324  -16.3214  -16.4803 O   0  0  0  0  0  0  0  0  0  0  0  0
   20.2844  -15.1675  -16.8836 C   0  0  0  0  0  0  0  0  0  0  0  0
   20.9462  -17.1617  -15.8396 C   0  0  0  0  0  0  0  0  0  0  0  0
   20.4995  -18.5051  -15.3776 C   0  0  2  0  0  0  0  0  0  0  0  0
   21.4643  -19.3562  -14.6448 N   0  0  0  0  0  0  0  0  0  0  0  0
   22.5126  -19.7257  -15.6176 C   0  0  0  0  0  0  0  0  0  0  0  0
   21.0048  -20.4876  -13.8790 O   0  0  0  0  0  0  0  0  0  0  0  0
   21.0942  -21.6607  -14.3476 O   0  0  0  0  0  0  0  0  0  0  0  0
  1  5  1  0
  1  2  1  0
  2  3  1  0
  4  3  1  0
  5  4  1  0
  5  6  1  1
  7  6  2  0
  9 10  2  0
  9  8  1  0
 11  9  1  0
 12 11  1  0
 13 12  1  0
 15 14  1  1
 14 13  1  0
 15 16  1  0
 16  6  1  0
 17 15  1  0
 18 17  2  0
 19 20  1  0
 20 22  1  0
 21 20  2  0
 22 23  1  0
 24 23  1  1
 24 25  1  0
 25 17  1  0
 26 24  1  0
 26 28  1  0
 27 26  2  0
M  END
$$$$
