PRQ.pdb
     RDKit          3D

 28 28  0  0  1  0  0  0  0  0999 V2000
   24.7304  -17.5458  -17.4684 N   0  0  0  0  0  0  0  0  0  0  0  0
   25.9785  -17.1387  -18.0389 C   0  0  0  0  0  0  0  0  0  0  0  0
   26.4463  -18.2584  -18.9559 C   0  0  0  0  0  0  0  0  0  0  0  0
   25.6936  -19.4445  -18.3346 C   0  0  0  0  0  0  0  0  0  0  0  0
   24.3667  -18.8135  -18.0448 C   0  0  1  0  0  0  0  0  0  0  0  0
   23.5088  -19.6214  -17.1457 C   0  0  0  0  0  0  0  0  0  0  0  0
   23.1506  -20.7563  -17.5486 O   0  0  0  0  0  0  0  0  0  0  0  0
   24.2167  -20.5104   -8.9443 N   0  0  0  0  0  0  0  0  0  0  0  0
   24.8315  -20.8545  -10.1819 C   0  0  0  0  0  0  0  0  0  0  0  0
   26.0733  -21.2009  -10.2548 N   0  0  0  0  0  0  0  0  0  0  0  0
   24.0090  -20.7984  -11.3375 N   0  0  0  0  0  0  0  0  0  0  0  0
   22.6324  -20.3781  -11.2193 C   0  0  0  0  0  0  0  0  0  0  0  0
   21.9785  -20.5189  -12.5898 C   0  0  0  0  0  0  0  0  0  0  0  0
   22.7591  -19.8334  -13.6437 C   0  0  0  0  0  0  0  0  0  0  0  0
   22.1853  -20.0140  -15.0161 C   0  0  2  0  0  0  0  0  0  0  0  0
   23.0794  -19.1886  -15.8791 N   0  0  0  0  0  0  0  0  0  0  0  0
   20.8047  -19.4986  -15.1745 C   0  0  0  0  0  0  0  0  0  0  0  0
   20.5591  -18.2490  -15.0696 O   0  0  0  0  0  0  0  0  0  0  0  0
   26.5278  -21.4315  -11.1462 N   0  0  0  0  0  0  0  0  0  0  0  0
   16.6504  -21.8260  -19.0434 C   0  0  0  0  0  0  0  0  0  0  0  0
   15.9333  -20.7283  -18.5143 O   0  0  0  0  0  0  0  0  0  0  0  0
   14.8191  -20.3529  -19.0000 C   0  0  0  0  0  0  0  0  0  0  0  0
   16.4650  -19.9877  -17.3683 C   0  0  0  0  0  0  0  0  0  0  0  0
   17.8055  -20.4057  -16.8720 C   0  0  2  0  0  0  0  0  0  0  0  0
   18.3303  -19.7742  -15.6399 N   0  0  0  0  0  0  0  0  0  0  0  0
   19.6924  -20.3121  -15.4469 C   0  0  0  0  0  0  0  0  0  0  0  0
   17.5569  -19.7928  -14.4237 O   0  0  0  0  0  0  0  0  0  0  0  0
   17.8570  -20.5853  -13.4825 O   0  0  0  0  0  0  0  0  0  0  0  0
  1  5  1  0
  1  2  1  0
  2  3  1  0
  4  3  1  0
  5  4  1  0
  5  6  1  1
  7  6  2  0
  9 10  2  0
  9  8  1  0
 11  9  1  0
 12 11  1  0
 13 12  1  0
 15 14  1  1
 14 13  1  0
 15 16  1  0
 16  6  1  0
 17 15  1  0
 18 17  2  0
 19 20  1  0
 20 22  1  0
 21 20  2  0
 22 23  1  0
 24 23  1  6
 24 25  1  0
 25 17  1  0
 26 24  1  0
 26 28  1  0
 27 26  2  0
M  END
$$$$
