PRQ.pdb
     RDKit          3D

 28 28  0  0  1  0  0  0  0  0999 V2000
   14.2788  -20.0648    2.9100 N   0  0  0  0  0  0  0  0  0  0  0  0
   13.2856  -20.0525    1.8794 C   0  0  0  0  0  0  0  0  0  0  0  0
   13.7602  -20.9892    0.7790 C   0  0  0  0  0  0  0  0  0  0  0  0
   15.2727  -20.9695    1.0454 C   0  0  0  0  0  0  0  0  0  0  0  0
   15.2943  -21.0162    2.5421 C   0  0  1  0  0  0  0  0  0  0  0  0
   16.6166  -20.6907    3.1273 C   0  0  0  0  0  0  0  0  0  0  0  0
   17.5646  -21.4832    2.8990 O   0  0  0  0  0  0  0  0  0  0  0  0
   18.2227  -12.5357    3.6523 N   0  0  0  0  0  0  0  0  0  0  0  0
   16.9365  -13.1462    3.6852 C   0  0  0  0  0  0  0  0  0  0  0  0
   15.8679  -12.5070    3.3436 N   0  0  0  0  0  0  0  0  0  0  0  0
   16.8857  -14.4987    4.1134 N   0  0  0  0  0  0  0  0  0  0  0  0
   17.8402  -15.4517    3.5972 C   0  0  0  0  0  0  0  0  0  0  0  0
   17.5427  -16.8060    4.2320 C   0  0  0  0  0  0  0  0  0  0  0  0
   18.4741  -17.8525    3.7552 C   0  0  0  0  0  0  0  0  0  0  0  0
   18.2321  -19.1905    4.3848 C   0  0  2  0  0  0  0  0  0  0  0  0
   16.8631  -19.5536    3.9162 N   0  0  0  0  0  0  0  0  0  0  0  0
   18.2116  -19.1745    5.8668 C   0  0  0  0  0  0  0  0  0  0  0  0
   17.1117  -19.0361    6.5022 O   0  0  0  0  0  0  0  0  0  0  0  0
   14.9346  -12.9324    3.3909 N   0  0  0  0  0  0  0  0  0  0  0  0
   22.5617  -21.8441    9.3373 C   0  0  0  0  0  0  0  0  0  0  0  0
   21.3217  -21.9879   10.0013 O   0  0  0  0  0  0  0  0  0  0  0  0
   21.1453  -22.8469   10.9227 C   0  0  0  0  0  0  0  0  0  0  0  0
   20.1916  -21.1296    9.6397 C   0  0  0  0  0  0  0  0  0  0  0  0
   20.4557  -20.0807    8.6160 C   0  0  2  0  0  0  0  0  0  0  0  0
   19.3213  -19.2557    8.1421 N   0  0  0  0  0  0  0  0  0  0  0  0
   19.3587  -19.3088    6.6664 C   0  0  0  0  0  0  0  0  0  0  0  0
   19.1372  -17.9145    8.6370 O   0  0  0  0  0  0  0  0  0  0  0  0
   19.4121  -16.9162    7.9078 O   0  0  0  0  0  0  0  0  0  0  0  0
  1  5  1  0
  1  2  1  0
  2  3  1  0
  4  3  1  0
  5  4  1  0
  5  6  1  1
  7  6  2  0
  9 10  2  0
  9  8  1  0
 11  9  1  0
 12 11  1  0
 13 12  1  0
 15 14  1  6
 14 13  1  0
 15 16  1  0
 16  6  1  0
 17 15  1  0
 18 17  2  0
 19 20  1  0
 20 22  1  0
 21 20  2  0
 22 23  1  0
 24 23  1  1
 24 25  1  0
 25 17  1  0
 26 24  1  0
 26 28  1  0
 27 26  2  0
M  END
$$$$
