PRQ.pdb
     RDKit          3D

 28 28  0  0  1  0  0  0  0  0999 V2000
   27.1760  -17.1750  -17.4013 N   0  0  0  0  0  0  0  0  0  0  0  0
   28.2343  -16.2710  -17.7356 C   0  0  0  0  0  0  0  0  0  0  0  0
   29.3546  -17.0917  -18.3560 C   0  0  0  0  0  0  0  0  0  0  0  0
   29.0432  -18.4689  -17.7514 C   0  0  0  0  0  0  0  0  0  0  0  0
   27.5493  -18.4889  -17.8548 C   0  0  1  0  0  0  0  0  0  0  0  0
   26.9136  -19.5664  -17.0598 C   0  0  0  0  0  0  0  0  0  0  0  0
   27.1571  -20.7539  -17.3902 O   0  0  0  0  0  0  0  0  0  0  0  0
   25.8372  -20.6273   -8.9861 N   0  0  0  0  0  0  0  0  0  0  0  0
   24.6777  -20.6385   -9.8129 C   0  0  0  0  0  0  0  0  0  0  0  0
   23.5160  -20.2962   -9.3651 N   0  0  0  0  0  0  0  0  0  0  0  0
   24.8617  -21.0459  -11.1602 N   0  0  0  0  0  0  0  0  0  0  0  0
   26.1761  -21.4261  -11.6223 C   0  0  0  0  0  0  0  0  0  0  0  0
   26.0895  -21.6887  -13.1220 C   0  0  0  0  0  0  0  0  0  0  0  0
   26.2484  -20.4445  -13.9074 C   0  0  0  0  0  0  0  0  0  0  0  0
   25.4534  -20.4419  -15.1776 C   0  0  2  0  0  0  0  0  0  0  0  0
   26.0612  -19.3315  -15.9669 N   0  0  0  0  0  0  0  0  0  0  0  0
   24.0150  -20.1323  -14.9982 C   0  0  0  0  0  0  0  0  0  0  0  0
   23.6468  -19.0361  -14.4545 O   0  0  0  0  0  0  0  0  0  0  0  0
   22.6650  -20.3666   -9.9352 N   0  0  0  0  0  0  0  0  0  0  0  0
   21.9332  -23.6969  -17.4946 C   0  0  0  0  0  0  0  0  0  0  0  0
   21.7138  -22.5163  -18.2410 O   0  0  0  0  0  0  0  0  0  0  0  0
   21.9939  -22.4391  -19.4794 C   0  0  0  0  0  0  0  0  0  0  0  0
   21.1420  -21.3339  -17.5933 C   0  0  0  0  0  0  0  0  0  0  0  0
   20.7851  -21.4729  -16.1541 C   0  0  2  0  0  0  0  0  0  0  0  0
   21.5489  -20.6869  -15.1585 N   0  0  0  0  0  0  0  0  0  0  0  0
   22.9749  -20.9867  -15.4002 C   0  0  0  0  0  0  0  0  0  0  0  0
   21.2056  -20.7498  -13.7600 O   0  0  0  0  0  0  0  0  0  0  0  0
   20.1407  -20.2126  -13.3342 O   0  0  0  0  0  0  0  0  0  0  0  0
  1  5  1  0
  1  2  1  0
  2  3  1  0
  4  3  1  0
  5  4  1  0
  5  6  1  1
  7  6  2  0
  9 10  2  0
  9  8  1  0
 11  9  1  0
 12 11  1  0
 13 12  1  0
 15 14  1  1
 14 13  1  0
 15 16  1  0
 16  6  1  0
 17 15  1  0
 18 17  2  0
 19 20  1  0
 20 22  1  0
 21 20  2  0
 22 23  1  0
 24 23  1  6
 24 25  1  0
 25 17  1  0
 26 24  1  0
 26 28  1  0
 27 26  2  0
M  END
$$$$
