YRS.pdb
     RDKit          3D

 30 30  0  0  1  0  0  0  0  0999 V2000
   14.1165  -19.0428  -12.2705 O   0  0  0  0  0  0  0  0  0  0  0  0
   15.4703  -19.3567  -12.2411 C   0  0  0  0  0  0  0  0  0  0  0  0
   16.3288  -18.7647  -13.1560 C   0  0  0  0  0  0  0  0  0  0  0  0
   17.6949  -19.0661  -13.1449 C   0  0  0  0  0  0  0  0  0  0  0  0
   18.1921  -19.9509  -12.2260 C   0  0  0  0  0  0  0  0  0  0  0  0
   19.6253  -20.2789  -12.2058 C   0  0  0  0  0  0  0  0  0  0  0  0
   19.9403  -21.0642  -13.4868 C   0  0  2  0  0  0  0  0  0  0  0  0
   19.2782  -22.3491  -13.4646 N   0  0  0  0  0  0  0  0  0  0  0  0
   21.3914  -21.1749  -13.6950 C   0  0  0  0  0  0  0  0  0  0  0  0
   21.9562  -22.1647  -13.1136 O   0  0  0  0  0  0  0  0  0  0  0  0
   17.3386  -20.5347  -11.3217 C   0  0  0  0  0  0  0  0  0  0  0  0
   15.9824  -20.2457  -11.3210 C   0  0  0  0  0  0  0  0  0  0  0  0
   24.2419  -19.9724  -19.9881 N   0  0  0  0  0  0  0  0  0  0  0  0
   22.8884  -20.3741  -20.1180 C   0  0  0  0  0  0  0  0  0  0  0  0
   22.4156  -20.9888  -21.1516 N   0  0  0  0  0  0  0  0  0  0  0  0
   21.9840  -20.0921  -19.0540 N   0  0  0  0  0  0  0  0  0  0  0  0
   22.4162  -19.4083  -17.8428 C   0  0  0  0  0  0  0  0  0  0  0  0
   23.4600  -20.2440  -17.1820 C   0  0  0  0  0  0  0  0  0  0  0  0
   23.9578  -19.7551  -15.8873 C   0  0  0  0  0  0  0  0  0  0  0  0
   23.5846  -20.5440  -14.6578 C   0  0  2  0  0  0  0  0  0  0  0  0
   22.1565  -20.2793  -14.4731 N   0  0  0  0  0  0  0  0  0  0  0  0
   24.2462  -20.0377  -13.4278 C   0  0  0  0  0  0  0  0  0  0  0  0
   24.0592  -18.8480  -12.9906 O   0  0  0  0  0  0  0  0  0  0  0  0
   21.4279  -21.2752  -21.2477 O   0  0  0  0  0  0  0  0  0  0  0  0
   26.5484  -22.3276  -10.8882 C   0  0  0  0  0  0  0  0  0  0  0  0
   26.5443  -20.9736  -10.6594 C   0  0  1  0  0  0  0  0  0  0  0  0
   26.2604  -20.1952  -11.9210 N   0  0  0  0  0  0  0  0  0  0  0  0
   25.1349  -20.8070  -12.6241 C   0  0  0  0  0  0  0  0  0  0  0  0
   27.4396  -20.2685  -12.8317 O   0  0  0  0  0  0  0  0  0  0  0  0
   27.4307  -20.9063  -13.9008 O   0  0  0  0  0  0  0  0  0  0  0  0
  2  1  1  0
  3  2  2  0
  4  3  1  0
  5 11  1  0
  5  4  2  0
  6  5  1  0
  7  9  1  0
  7  6  1  0
  7  8  1  1
  9 10  2  0
 11 12  2  0
 12  2  1  0
 13 14  1  0
 14 15  2  0
 16 14  1  0
 16 17  1  0
 18 17  1  0
 19 18  1  0
 20 19  1  6
 21 20  1  0
 21  9  1  0
 22 20  1  0
 23 22  2  0
 24 25  1  0
 26 25  1  1
 26 28  1  0
 26 27  1  0
 27 22  1  0
 28 30  1  0
 29 28  2  0
M  END
$$$$
