YRS.pdb
     RDKit          3D

 30 30  0  0  1  0  0  0  0  0999 V2000
   19.3567  -22.7141   -6.7793 O   0  0  0  0  0  0  0  0  0  0  0  0
   20.3141  -22.1321   -7.6021 C   0  0  0  0  0  0  0  0  0  0  0  0
   21.4392  -22.8597   -7.9615 C   0  0  0  0  0  0  0  0  0  0  0  0
   22.4157  -22.2939   -8.7884 C   0  0  0  0  0  0  0  0  0  0  0  0
   22.2633  -21.0134   -9.2486 C   0  0  0  0  0  0  0  0  0  0  0  0
   23.2836  -20.4059  -10.1155 C   0  0  0  0  0  0  0  0  0  0  0  0
   24.6596  -20.7881   -9.5519 C   0  0  2  0  0  0  0  0  0  0  0  0
   24.7916  -20.3235   -8.1893 N   0  0  0  0  0  0  0  0  0  0  0  0
   25.7401  -20.3067  -10.4249 C   0  0  0  0  0  0  0  0  0  0  0  0
   26.1374  -19.1116  -10.1998 O   0  0  0  0  0  0  0  0  0  0  0  0
   21.1475  -20.2966   -8.8904 C   0  0  0  0  0  0  0  0  0  0  0  0
   20.1717  -20.8443   -8.0714 C   0  0  0  0  0  0  0  0  0  0  0  0
   33.4334  -23.2873  -11.3884 N   0  0  0  0  0  0  0  0  0  0  0  0
   32.6852  -23.4345  -12.5835 C   0  0  0  0  0  0  0  0  0  0  0  0
   32.9981  -24.2532  -13.5330 N   0  0  0  0  0  0  0  0  0  0  0  0
   31.5155  -22.6410  -12.7628 N   0  0  0  0  0  0  0  0  0  0  0  0
   31.1429  -21.6013  -11.8133 C   0  0  0  0  0  0  0  0  0  0  0  0
   29.9504  -20.8842  -12.3503 C   0  0  0  0  0  0  0  0  0  0  0  0
   28.6494  -21.2804  -11.7902 C   0  0  0  0  0  0  0  0  0  0  0  0
   27.4400  -20.4878  -12.2172 C   0  0  2  0  0  0  0  0  0  0  0  0
   26.3339  -21.0689  -11.4540 N   0  0  0  0  0  0  0  0  0  0  0  0
   27.0915  -20.6970  -13.6462 C   0  0  0  0  0  0  0  0  0  0  0  0
   26.6425  -21.8140  -14.0845 O   0  0  0  0  0  0  0  0  0  0  0  0
   32.4377  -24.3788  -14.3915 O   0  0  0  0  0  0  0  0  0  0  0  0
   25.8594  -17.7437  -15.9166 C   0  0  0  0  0  0  0  0  0  0  0  0
   25.6384  -19.0226  -16.3653 C   0  0  1  0  0  0  0  0  0  0  0  0
   26.7907  -19.9383  -16.0307 N   0  0  0  0  0  0  0  0  0  0  0  0
   27.2155  -19.6980  -14.6533 C   0  0  0  0  0  0  0  0  0  0  0  0
   27.9536  -19.6233  -16.9104 O   0  0  0  0  0  0  0  0  0  0  0  0
   28.9839  -19.0612  -16.4952 O   0  0  0  0  0  0  0  0  0  0  0  0
  2  1  1  0
  3  2  2  0
  4  3  1  0
  5 11  1  0
  5  4  2  0
  6  5  1  0
  7  9  1  0
  7  6  1  0
  7  8  1  1
  9 10  2  0
 11 12  2  0
 12  2  1  0
 13 14  1  0
 14 15  2  0
 16 14  1  0
 16 17  1  0
 18 17  1  0
 19 18  1  0
 20 19  1  1
 21 20  1  0
 21  9  1  0
 22 20  1  0
 23 22  2  0
 24 25  1  0
 26 25  1  1
 26 28  1  0
 26 27  1  0
 27 22  1  0
 28 30  1  0
 29 28  2  0
M  END
$$$$
