YRS.pdb
     RDKit          3D

 30 30  0  0  1  0  0  0  0  0999 V2000
   34.4957  -30.6756  -17.6835 O   0  0  0  0  0  0  0  0  0  0  0  0
   33.2734  -30.9731  -17.0923 C   0  0  0  0  0  0  0  0  0  0  0  0
   32.1736  -30.1696  -17.3557 C   0  0  0  0  0  0  0  0  0  0  0  0
   30.9337  -30.4501  -16.7715 C   0  0  0  0  0  0  0  0  0  0  0  0
   30.8006  -31.5246  -15.9334 C   0  0  0  0  0  0  0  0  0  0  0  0
   29.5040  -31.8284  -15.3103 C   0  0  0  0  0  0  0  0  0  0  0  0
   28.5401  -32.2538  -16.4270 C   0  0  2  0  0  0  0  0  0  0  0  0
   27.3711  -31.4034  -16.4333 N   0  0  0  0  0  0  0  0  0  0  0  0
   28.2052  -33.6814  -16.3201 C   0  0  0  0  0  0  0  0  0  0  0  0
   29.1322  -34.4911  -16.6691 O   0  0  0  0  0  0  0  0  0  0  0  0
   31.8921  -32.3178  -15.6754 C   0  0  0  0  0  0  0  0  0  0  0  0
   33.1271  -32.0517  -16.2472 C   0  0  0  0  0  0  0  0  0  0  0  0
   30.3181  -39.4672  -11.5553 N   0  0  0  0  0  0  0  0  0  0  0  0
   29.1750  -40.0985  -12.1074 C   0  0  0  0  0  0  0  0  0  0  0  0
   28.8454  -41.3255  -11.8718 N   0  0  0  0  0  0  0  0  0  0  0  0
   28.3286  -39.3486  -12.9742 N   0  0  0  0  0  0  0  0  0  0  0  0
   28.6003  -37.9530  -13.2903 C   0  0  0  0  0  0  0  0  0  0  0  0
   27.5721  -37.4864  -14.2649 C   0  0  0  0  0  0  0  0  0  0  0  0
   27.6701  -36.0810  -14.6871 C   0  0  0  0  0  0  0  0  0  0  0  0
   26.7622  -35.6266  -15.8019 C   0  0  2  0  0  0  0  0  0  0  0  0
   26.9630  -34.1779  -15.8694 N   0  0  0  0  0  0  0  0  0  0  0  0
   25.3234  -35.8152  -15.4836 C   0  0  0  0  0  0  0  0  0  0  0  0
   24.7766  -35.2899  -14.4508 O   0  0  0  0  0  0  0  0  0  0  0  0
   29.0526  -41.8163  -10.9869 O   0  0  0  0  0  0  0  0  0  0  0  0
   21.8375  -35.0606  -17.1806 C   0  0  0  0  0  0  0  0  0  0  0  0
   22.3580  -35.3561  -15.9447 C   0  0  1  0  0  0  0  0  0  0  0  0
   23.0115  -36.7164  -15.9251 N   0  0  0  0  0  0  0  0  0  0  0  0
   24.4229  -36.5803  -16.2781 C   0  0  0  0  0  0  0  0  0  0  0  0
   22.3826  -37.5901  -16.9578 O   0  0  0  0  0  0  0  0  0  0  0  0
   22.9792  -37.9604  -17.9858 O   0  0  0  0  0  0  0  0  0  0  0  0
  2  1  1  0
  3  2  2  0
  4  3  1  0
  5 11  1  0
  5  4  2  0
  6  5  1  0
  7  9  1  0
  7  6  1  0
  7  8  1  1
  9 10  2  0
 11 12  2  0
 12  2  1  0
 13 14  1  0
 14 15  2  0
 16 14  1  0
 16 17  1  0
 18 17  1  0
 19 18  1  0
 20 19  1  1
 21 20  1  0
 21  9  1  0
 22 20  1  0
 23 22  2  0
 24 25  1  0
 26 25  1  1
 26 28  1  0
 26 27  1  0
 27 22  1  0
 28 30  1  0
 29 28  2  0
M  END
$$$$
