YRS.pdb
     RDKit          3D

 30 30  0  0  1  0  0  0  0  0999 V2000
   28.2871  -23.6077  -16.2748 O   0  0  0  0  0  0  0  0  0  0  0  0
   26.9169  -23.7816  -16.1182 C   0  0  0  0  0  0  0  0  0  0  0  0
   26.2823  -24.8291  -16.7697 C   0  0  0  0  0  0  0  0  0  0  0  0
   24.9042  -25.0228  -16.6266 C   0  0  0  0  0  0  0  0  0  0  0  0
   24.1730  -24.1749  -15.8385 C   0  0  0  0  0  0  0  0  0  0  0  0
   22.7235  -24.3655  -15.6823 C   0  0  0  0  0  0  0  0  0  0  0  0
   22.5071  -25.3693  -14.5411 C   0  0  2  0  0  0  0  0  0  0  0  0
   23.0106  -26.6719  -14.9149 N   0  0  0  0  0  0  0  0  0  0  0  0
   21.0970  -25.4014  -14.1263 C   0  0  0  0  0  0  0  0  0  0  0  0
   20.3330  -26.1454  -14.8330 O   0  0  0  0  0  0  0  0  0  0  0  0
   24.8054  -23.1390  -15.1949 C   0  0  0  0  0  0  0  0  0  0  0  0
   26.1705  -22.9347  -15.3277 C   0  0  0  0  0  0  0  0  0  0  0  0
   17.9194  -25.1104   -6.4016 N   0  0  0  0  0  0  0  0  0  0  0  0
   18.4551  -26.0154   -7.3525 C   0  0  0  0  0  0  0  0  0  0  0  0
   19.0070  -27.1421   -7.0431 N   0  0  0  0  0  0  0  0  0  0  0  0
   18.3873  -25.6778   -8.7349 N   0  0  0  0  0  0  0  0  0  0  0  0
   17.5742  -24.5679   -9.2129 C   0  0  0  0  0  0  0  0  0  0  0  0
   17.6662  -24.5287  -10.7011 C   0  0  0  0  0  0  0  0  0  0  0  0
   19.0166  -24.6530  -11.2703 C   0  0  0  0  0  0  0  0  0  0  0  0
   19.1312  -24.7428  -12.7711 C   0  0  2  0  0  0  0  0  0  0  0  0
   20.5706  -24.6816  -13.0320 N   0  0  0  0  0  0  0  0  0  0  0  0
   18.5501  -23.5636  -13.4630 C   0  0  0  0  0  0  0  0  0  0  0  0
   19.0052  -22.3780  -13.2935 O   0  0  0  0  0  0  0  0  0  0  0  0
   19.3155  -27.8409   -7.7384 O   0  0  0  0  0  0  0  0  0  0  0  0
   15.6993  -23.9935  -16.3817 C   0  0  0  0  0  0  0  0  0  0  0  0
   16.4760  -22.8631  -16.4499 C   0  0  1  0  0  0  0  0  0  0  0  0
   16.9795  -22.4489  -15.0887 N   0  0  0  0  0  0  0  0  0  0  0  0
   17.4530  -23.6289  -14.3684 C   0  0  0  0  0  0  0  0  0  0  0  0
   15.8580  -21.8696  -14.2938 O   0  0  0  0  0  0  0  0  0  0  0  0
   15.4513  -22.3729  -13.2302 O   0  0  0  0  0  0  0  0  0  0  0  0
  2  1  1  0
  3  2  2  0
  4  3  1  0
  5 11  1  0
  5  4  2  0
  6  5  1  0
  7  9  1  0
  7  6  1  0
  7  8  1  6
  9 10  2  0
 11 12  2  0
 12  2  1  0
 13 14  1  0
 14 15  2  0
 16 14  1  0
 16 17  1  0
 18 17  1  0
 19 18  1  0
 20 19  1  1
 21 20  1  0
 21  9  1  0
 22 20  1  0
 23 22  2  0
 24 25  1  0
 26 25  1  6
 26 28  1  0
 26 27  1  0
 27 22  1  0
 28 30  1  0
 29 28  2  0
M  END
$$$$
