YRS.pdb
     RDKit          3D

 30 30  0  0  1  0  0  0  0  0999 V2000
   30.6589  -17.1540  -19.2301 O   0  0  0  0  0  0  0  0  0  0  0  0
   29.8040  -17.2903  -18.1426 C   0  0  0  0  0  0  0  0  0  0  0  0
   29.6598  -18.5307  -17.5384 C   0  0  0  0  0  0  0  0  0  0  0  0
   28.8046  -18.6910  -16.4428 C   0  0  0  0  0  0  0  0  0  0  0  0
   28.1035  -17.6186  -15.9603 C   0  0  0  0  0  0  0  0  0  0  0  0
   27.1989  -17.7743  -14.8117 C   0  0  0  0  0  0  0  0  0  0  0  0
   26.0164  -18.6416  -15.2658 C   0  0  2  0  0  0  0  0  0  0  0  0
   25.2078  -17.9260  -16.2271 N   0  0  0  0  0  0  0  0  0  0  0  0
   25.2398  -19.1210  -14.1132 C   0  0  0  0  0  0  0  0  0  0  0  0
   24.6276  -18.2158  -13.4480 O   0  0  0  0  0  0  0  0  0  0  0  0
   28.2494  -16.3920  -16.5615 C   0  0  0  0  0  0  0  0  0  0  0  0
   29.0931  -16.2183  -17.6482 C   0  0  0  0  0  0  0  0  0  0  0  0
   19.0540  -21.8559  -12.9909 N   0  0  0  0  0  0  0  0  0  0  0  0
   19.3137  -21.8016  -14.3836 C   0  0  0  0  0  0  0  0  0  0  0  0
   18.5638  -21.1796  -15.2324 N   0  0  0  0  0  0  0  0  0  0  0  0
   20.4665  -22.4659  -14.8930 N   0  0  0  0  0  0  0  0  0  0  0  0
   21.5451  -22.9062  -14.0187 C   0  0  0  0  0  0  0  0  0  0  0  0
   22.4136  -21.7310  -13.7204 C   0  0  0  0  0  0  0  0  0  0  0  0
   23.5702  -21.9847  -12.8481 C   0  0  0  0  0  0  0  0  0  0  0  0
   24.4370  -20.8057  -12.4847 C   0  0  2  0  0  0  0  0  0  0  0  0
   25.1422  -20.4745  -13.7242 N   0  0  0  0  0  0  0  0  0  0  0  0
   25.4970  -21.1530  -11.5035 C   0  0  0  0  0  0  0  0  0  0  0  0
   26.2336  -22.1935  -11.6317 O   0  0  0  0  0  0  0  0  0  0  0  0
   18.7197  -21.1912  -16.2534 O   0  0  0  0  0  0  0  0  0  0  0  0
   28.3169  -19.9387   -9.7078 C   0  0  0  0  0  0  0  0  0  0  0  0
   27.5268  -20.3112   -8.6482 C   0  0  2  0  0  0  0  0  0  0  0  0
   26.2652  -21.0004   -9.1080 N   0  0  0  0  0  0  0  0  0  0  0  0
   25.7988  -20.3803  -10.3462 C   0  0  0  0  0  0  0  0  0  0  0  0
   25.1911  -20.8116   -8.0902 O   0  0  0  0  0  0  0  0  0  0  0  0
   25.3389  -21.1005   -6.8883 O   0  0  0  0  0  0  0  0  0  0  0  0
  2  1  1  0
  3  2  2  0
  4  3  1  0
  5 11  1  0
  5  4  2  0
  6  5  1  0
  7  9  1  0
  7  6  1  0
  7  8  1  6
  9 10  2  0
 11 12  2  0
 12  2  1  0
 13 14  1  0
 14 15  2  0
 16 14  1  0
 16 17  1  0
 18 17  1  0
 19 18  1  0
 20 19  1  6
 21 20  1  0
 21  9  1  0
 22 20  1  0
 23 22  2  0
 24 25  1  0
 26 25  1  6
 26 28  1  0
 26 27  1  0
 27 22  1  0
 28 30  1  0
 29 28  2  0
M  END
$$$$
