MMY.pdb
     RDKit          3D

 29 29  0  0  1  0  0  0  0  0999 V2000
   25.7206  -15.7661  -15.7915 C   0  0  0  0  0  0  0  0  0  0  0  0
   27.3632  -15.8583  -15.0661 S   0  0  0  0  0  0  0  0  0  0  0  0
   28.0081  -17.5634  -15.0729 C   0  0  0  0  0  0  0  0  0  0  0  0
   26.9340  -18.4635  -14.5198 C   0  0  0  0  0  0  0  0  0  0  0  0
   27.4546  -19.8844  -14.4752 C   0  0  2  0  0  0  0  0  0  0  0  0
   27.5617  -20.3767  -15.8240 N   0  0  0  0  0  0  0  0  0  0  0  0
   26.4686  -20.7744  -13.7535 C   0  0  0  0  0  0  0  0  0  0  0  0
   25.5584  -21.3307  -14.3962 O   0  0  0  0  0  0  0  0  0  0  0  0
   26.7402  -19.2460   -6.8470 C   0  0  0  0  0  0  0  0  0  0  0  0
   26.3358  -20.8278   -7.6276 S   0  0  0  0  0  0  0  0  0  0  0  0
   26.6190  -20.6713   -9.4284 C   0  0  0  0  0  0  0  0  0  0  0  0
   26.1311  -21.9214  -10.1401 C   0  0  0  0  0  0  0  0  0  0  0  0
   25.6430  -21.6259  -11.5099 C   0  0  2  0  0  0  0  0  0  0  0  0
   26.5785  -20.9740  -12.3547 N   0  0  0  0  0  0  0  0  0  0  0  0
   24.2911  -20.9729  -11.4653 C   0  0  0  0  0  0  0  0  0  0  0  0
   24.1151  -19.9326  -10.7904 O   0  0  0  0  0  0  0  0  0  0  0  0
   18.4355  -15.7478  -14.5828 O   0  0  0  0  0  0  0  0  0  0  0  0
   19.4479  -16.6420  -14.2311 C   0  0  0  0  0  0  0  0  0  0  0  0
   19.9574  -17.5050  -15.1950 C   0  0  0  0  0  0  0  0  0  0  0  0
   20.9622  -18.3815  -14.8162 C   0  0  0  0  0  0  0  0  0  0  0  0
   21.4604  -18.4204  -13.5350 C   0  0  0  0  0  0  0  0  0  0  0  0
   22.5004  -19.3592  -13.1723 C   0  0  0  0  0  0  0  0  0  0  0  0
   22.0498  -20.6142  -12.5152 C   0  0  2  0  0  0  0  0  0  0  0  0
   23.1663  -21.4805  -12.1655 N   0  0  0  0  0  0  0  0  0  0  0  0
   21.0221  -21.3305  -13.2892 C   0  0  0  0  0  0  0  0  0  0  0  0
   21.3721  -22.3209  -14.1720 O   0  0  0  0  0  0  0  0  0  0  0  0
   20.9337  -17.5533  -12.6071 C   0  0  0  0  0  0  0  0  0  0  0  0
   19.9233  -16.6542  -12.9391 C   0  0  0  0  0  0  0  0  0  0  0  0
   19.8085  -21.0397  -13.1494 O   0  0  0  0  0  0  0  0  0  0  0  0
  2  1  1  0
  3  2  1  0
  4  5  1  0
  4  3  1  0
  5  6  1  6
  7  8  2  0
  7  5  1  0
  9 10  1  0
 10 11  1  0
 11 12  1  0
 13 12  1  1
 13 14  1  0
 14  7  1  0
 15 16  2  0
 15 13  1  0
 18 17  1  0
 19 18  2  0
 20 19  1  0
 21 20  2  0
 21 27  1  0
 22 21  1  0
 23 22  1  6
 23 24  1  0
 24 15  1  0
 25 23  1  0
 26 25  1  0
 27 28  2  0
 28 18  1  0
 29 25  2  0
M  END
$$$$
