MMY.pdb
     RDKit          3D

 29 29  0  0  1  0  0  0  0  0999 V2000
   15.4434  -13.5801  -16.0995 C   0  0  0  0  0  0  0  0  0  0  0  0
   17.1030  -13.3022  -15.4657 S   0  0  0  0  0  0  0  0  0  0  0  0
   17.7083  -11.6313  -15.8718 C   0  0  0  0  0  0  0  0  0  0  0  0
   19.1522  -11.5500  -15.4494 C   0  0  0  0  0  0  0  0  0  0  0  0
   19.6768  -10.1616  -15.7477 C   0  0  2  0  0  0  0  0  0  0  0  0
   20.8484  -10.2816  -16.5761 N   0  0  0  0  0  0  0  0  0  0  0  0
   20.1053   -9.4839  -14.4662 C   0  0  0  0  0  0  0  0  0  0  0  0
   21.3110   -9.4649  -14.1546 O   0  0  0  0  0  0  0  0  0  0  0  0
   20.7851   -2.4061  -13.0830 C   0  0  0  0  0  0  0  0  0  0  0  0
   20.8259   -3.9726  -13.9883 S   0  0  0  0  0  0  0  0  0  0  0  0
   19.9756   -5.2425  -12.9822 C   0  0  0  0  0  0  0  0  0  0  0  0
   19.8855   -6.5443  -13.7594 C   0  0  0  0  0  0  0  0  0  0  0  0
   19.2562   -7.6254  -12.9611 C   0  0  2  0  0  0  0  0  0  0  0  0
   19.1416   -8.8748  -13.6243 N   0  0  0  0  0  0  0  0  0  0  0  0
   17.9840   -7.1458  -12.3228 C   0  0  0  0  0  0  0  0  0  0  0  0
   17.0801   -6.6355  -13.0237 O   0  0  0  0  0  0  0  0  0  0  0  0
   10.9813   -6.7773   -7.0132 O   0  0  0  0  0  0  0  0  0  0  0  0
   12.2544   -6.9834   -7.5467 C   0  0  0  0  0  0  0  0  0  0  0  0
   12.4481   -8.0082   -8.4663 C   0  0  0  0  0  0  0  0  0  0  0  0
   13.7233   -8.1886   -8.9790 C   0  0  0  0  0  0  0  0  0  0  0  0
   14.7840   -7.3952   -8.6091 C   0  0  0  0  0  0  0  0  0  0  0  0
   16.1050   -7.6223   -9.1550 C   0  0  0  0  0  0  0  0  0  0  0  0
   16.4571   -6.8361  -10.3666 C   0  0  2  0  0  0  0  0  0  0  0  0
   17.7376   -7.2405  -10.9287 N   0  0  0  0  0  0  0  0  0  0  0  0
   16.3902   -5.3816  -10.1464 C   0  0  0  0  0  0  0  0  0  0  0  0
   15.2661   -4.6717  -10.4855 O   0  0  0  0  0  0  0  0  0  0  0  0
   14.5571   -6.3914   -7.6976 C   0  0  0  0  0  0  0  0  0  0  0  0
   13.2940   -6.1705   -7.1543 C   0  0  0  0  0  0  0  0  0  0  0  0
   17.3672   -4.7728   -9.6445 O   0  0  0  0  0  0  0  0  0  0  0  0
  2  1  1  0
  3  2  1  0
  4  5  1  0
  4  3  1  0
  5  6  1  6
  7  8  2  0
  7  5  1  0
  9 10  1  0
 10 11  1  0
 11 12  1  0
 13 12  1  6
 13 14  1  0
 14  7  1  0
 15 16  2  0
 15 13  1  0
 18 17  1  0
 19 18  2  0
 20 19  1  0
 21 20  2  0
 21 27  1  0
 22 21  1  0
 23 22  1  1
 23 24  1  0
 24 15  1  0
 25 23  1  0
 26 25  1  0
 27 28  2  0
 28 18  1  0
 29 25  2  0
M  END
$$$$
