MMY.pdb
     RDKit          3D

 29 29  0  0  1  0  0  0  0  0999 V2000
   25.9416  -17.3296  -16.7579 C   0  0  0  0  0  0  0  0  0  0  0  0
   27.6936  -17.3527  -16.3544 S   0  0  0  0  0  0  0  0  0  0  0  0
   28.2482  -19.0160  -15.8551 C   0  0  0  0  0  0  0  0  0  0  0  0
   27.2516  -19.5541  -14.8614 C   0  0  0  0  0  0  0  0  0  0  0  0
   27.7609  -20.8705  -14.3142 C   0  0  2  0  0  0  0  0  0  0  0  0
   27.6072  -21.8799  -15.3294 N   0  0  0  0  0  0  0  0  0  0  0  0
   26.9229  -21.2979  -13.1309 C   0  0  0  0  0  0  0  0  0  0  0  0
   25.9419  -22.0439  -13.3103 O   0  0  0  0  0  0  0  0  0  0  0  0
   25.8759  -20.2162   -5.3056 C   0  0  0  0  0  0  0  0  0  0  0  0
   26.9327  -19.8703   -6.7333 S   0  0  0  0  0  0  0  0  0  0  0  0
   26.1353  -20.5698   -8.2241 C   0  0  0  0  0  0  0  0  0  0  0  0
   27.0622  -20.4333   -9.4196 C   0  0  0  0  0  0  0  0  0  0  0  0
   26.4256  -20.9086  -10.6731 C   0  0  2  0  0  0  0  0  0  0  0  0
   27.2509  -20.8525  -11.8262 N   0  0  0  0  0  0  0  0  0  0  0  0
   25.0704  -20.2861  -10.8524 C   0  0  0  0  0  0  0  0  0  0  0  0
   24.9406  -19.0406  -10.8308 O   0  0  0  0  0  0  0  0  0  0  0  0
   18.1135  -17.1247  -14.5588 O   0  0  0  0  0  0  0  0  0  0  0  0
   19.2647  -17.7808  -14.1205 C   0  0  0  0  0  0  0  0  0  0  0  0
   19.1415  -18.9826  -13.4319 C   0  0  0  0  0  0  0  0  0  0  0  0
   20.3024  -19.6111  -13.0092 C   0  0  0  0  0  0  0  0  0  0  0  0
   21.5514  -19.0875  -13.2480 C   0  0  0  0  0  0  0  0  0  0  0  0
   22.7411  -19.7650  -12.7789 C   0  0  0  0  0  0  0  0  0  0  0  0
   22.6436  -20.4107  -11.4434 C   0  0  2  0  0  0  0  0  0  0  0  0
   23.8916  -21.0500  -11.0520 N   0  0  0  0  0  0  0  0  0  0  0  0
   21.4988  -21.3301  -11.3326 C   0  0  0  0  0  0  0  0  0  0  0  0
   21.5013  -22.5358  -11.9874 O   0  0  0  0  0  0  0  0  0  0  0  0
   21.6367  -17.8976  -13.9314 C   0  0  0  0  0  0  0  0  0  0  0  0
   20.4994  -17.2283  -14.3766 C   0  0  0  0  0  0  0  0  0  0  0  0
   20.5025  -21.0177  -10.6347 O   0  0  0  0  0  0  0  0  0  0  0  0
  2  1  1  0
  3  2  1  0
  4  5  1  0
  4  3  1  0
  5  6  1  6
  7  8  2  0
  7  5  1  0
  9 10  1  0
 10 11  1  0
 11 12  1  0
 13 12  1  1
 13 14  1  0
 14  7  1  0
 15 16  2  0
 15 13  1  0
 18 17  1  0
 19 18  2  0
 20 19  1  0
 21 20  2  0
 21 27  1  0
 22 21  1  0
 23 22  1  6
 23 24  1  0
 24 15  1  0
 25 23  1  0
 26 25  1  0
 27 28  2  0
 28 18  1  0
 29 25  2  0
M  END
$$$$
