MMY.pdb
     RDKit          3D

 29 29  0  0  1  0  0  0  0  0999 V2000
   25.6633   -7.0377  -17.6592 C   0  0  0  0  0  0  0  0  0  0  0  0
   25.4207   -8.4749  -18.7120 S   0  0  0  0  0  0  0  0  0  0  0  0
   24.4208   -9.7552  -17.8846 C   0  0  0  0  0  0  0  0  0  0  0  0
   23.1065   -9.1308  -17.4937 C   0  0  0  0  0  0  0  0  0  0  0  0
   22.2585  -10.1665  -16.7864 C   0  0  2  0  0  0  0  0  0  0  0  0
   21.8715  -11.1727  -17.7409 N   0  0  0  0  0  0  0  0  0  0  0  0
   20.9880   -9.5303  -16.2704 C   0  0  0  0  0  0  0  0  0  0  0  0
   20.1193   -9.1505  -17.0779 O   0  0  0  0  0  0  0  0  0  0  0  0
   17.1950  -11.3518  -11.4241 C   0  0  0  0  0  0  0  0  0  0  0  0
   17.3191   -9.5905  -11.0270 S   0  0  0  0  0  0  0  0  0  0  0  0
   17.9217   -8.7058  -12.5109 C   0  0  0  0  0  0  0  0  0  0  0  0
   19.2194   -9.3296  -12.9946 C   0  0  0  0  0  0  0  0  0  0  0  0
   19.7084   -8.6957  -14.2440 C   0  0  2  0  0  0  0  0  0  0  0  0
   20.7869   -9.3665  -14.8772 N   0  0  0  0  0  0  0  0  0  0  0  0
   19.9284   -7.2233  -14.0446 C   0  0  0  0  0  0  0  0  0  0  0  0
   20.9572   -6.8127  -13.4602 O   0  0  0  0  0  0  0  0  0  0  0  0
   22.0906    0.8817  -15.5087 O   0  0  0  0  0  0  0  0  0  0  0  0
   21.7291   -0.4623  -15.4043 C   0  0  0  0  0  0  0  0  0  0  0  0
   22.0188   -1.1551  -14.2340 C   0  0  0  0  0  0  0  0  0  0  0  0
   21.6476   -2.4885  -14.1595 C   0  0  0  0  0  0  0  0  0  0  0  0
   21.0116   -3.1341  -15.1940 C   0  0  0  0  0  0  0  0  0  0  0  0
   20.6515   -4.5317  -15.0857 C   0  0  0  0  0  0  0  0  0  0  0  0
   19.3457   -4.8233  -14.4379 C   0  0  2  0  0  0  0  0  0  0  0  0
   19.0107   -6.2389  -14.4940 N   0  0  0  0  0  0  0  0  0  0  0  0
   18.2511   -3.9807  -14.9481 C   0  0  0  0  0  0  0  0  0  0  0  0
   17.9575   -2.7779  -14.3568 O   0  0  0  0  0  0  0  0  0  0  0  0
   20.7406   -2.4192  -16.3366 C   0  0  0  0  0  0  0  0  0  0  0  0
   21.0936   -1.0776  -16.4593 C   0  0  0  0  0  0  0  0  0  0  0  0
   17.5706   -4.3572  -15.9342 O   0  0  0  0  0  0  0  0  0  0  0  0
  2  1  1  0
  3  2  1  0
  4  5  1  0
  4  3  1  0
  5  6  1  6
  7  8  2  0
  7  5  1  0
  9 10  1  0
 10 11  1  0
 11 12  1  0
 13 12  1  1
 13 14  1  0
 14  7  1  0
 15 16  2  0
 15 13  1  0
 18 17  1  0
 19 18  2  0
 20 19  1  0
 21 20  2  0
 21 27  1  0
 22 21  1  0
 23 22  1  6
 23 24  1  0
 24 15  1  0
 25 23  1  0
 26 25  1  0
 27 28  2  0
 28 18  1  0
 29 25  2  0
M  END
$$$$
