TAH.pdb
     RDKit          3D

 23 23  0  0  1  0  0  0  0  0999 V2000
    7.7701  -17.9905   16.0636 C   0  0  0  0  0  0  0  0  0  0  0  0
    8.4399  -16.9911   16.9967 C   0  0  1  0  0  0  0  0  0  0  0  0
    9.5749  -17.5135   17.5814 O   0  0  0  0  0  0  0  0  0  0  0  0
    8.7495  -15.7211   16.2088 C   0  0  2  0  0  0  0  0  0  0  0  0
    9.6152  -16.0167   15.0803 N   0  0  0  0  0  0  0  0  0  0  0  0
    9.3645  -14.7508   17.1378 C   0  0  0  0  0  0  0  0  0  0  0  0
   10.5959  -14.5170   17.1736 O   0  0  0  0  0  0  0  0  0  0  0  0
    7.9868  -12.3203   19.6793 C   0  0  0  0  0  0  0  0  0  0  0  0
    9.0649  -13.1744   19.0375 C   0  0  2  0  0  0  0  0  0  0  0  0
    8.5009  -14.0542   18.0311 N   0  0  0  0  0  0  0  0  0  0  0  0
    9.7011  -14.0687   20.0714 C   0  0  0  0  0  0  0  0  0  0  0  0
    9.0938  -14.3752   21.1457 O   0  0  0  0  0  0  0  0  0  0  0  0
   10.9931  -14.6022   19.8925 N   0  0  0  0  0  0  0  0  0  0  0  0
   11.5819  -15.4274   20.9601 C   0  0  1  0  0  0  0  0  0  0  0  0
   11.6006  -16.8767   20.5419 C   0  0  0  0  0  0  0  0  0  0  0  0
   10.2674  -17.5036   20.6772 C   0  0  0  0  0  0  0  0  0  0  0  0
    9.1037  -16.9770   21.1928 C   0  0  0  0  0  0  0  0  0  0  0  0
    8.1353  -17.9035   21.1348 N   0  0  0  0  0  0  0  0  0  0  0  0
    8.6864  -18.9937   20.5909 C   0  0  0  0  0  0  0  0  0  0  0  0
    9.9772  -18.7785   20.3043 N   0  0  0  0  0  0  0  0  0  0  0  0
   12.9324  -14.9056   21.2136 C   0  0  0  0  0  0  0  0  0  0  0  0
   13.4274  -13.8556   20.4923 O   0  0  0  0  0  0  0  0  0  0  0  0
   13.6384  -15.4320   22.1035 O   0  0  0  0  0  0  0  0  0  0  0  0
  2  4  1  0
  2  1  1  6
  3  2  1  0
  4  5  1  6
  6  4  1  0
  7  6  2  0
  9  8  1  1
  9 11  1  0
  9 10  1  0
 10  6  1  0
 11 13  1  0
 12 11  2  0
 13 14  1  0
 14 21  1  0
 14 15  1  6
 16 15  1  0
 17 16  2  0
 18 17  1  0
 19 18  1  0
 19 20  2  0
 20 16  1  0
 21 22  1  0
 23 21  2  0
M  END
$$$$
