TAH.pdb
     RDKit          3D

 23 23  0  0  1  0  0  0  0  0999 V2000
    6.7292  -17.9413   18.1353 C   0  0  0  0  0  0  0  0  0  0  0  0
    7.5168  -17.6764   16.8595 C   0  0  1  0  0  0  0  0  0  0  0  0
    6.9956  -18.3611   15.7813 O   0  0  0  0  0  0  0  0  0  0  0  0
    7.5436  -16.1714   16.6074 C   0  0  2  0  0  0  0  0  0  0  0  0
    8.1263  -15.8797   15.3090 N   0  0  0  0  0  0  0  0  0  0  0  0
    8.3024  -15.5417   17.7076 C   0  0  0  0  0  0  0  0  0  0  0  0
    9.5278  -15.7302   17.8951 O   0  0  0  0  0  0  0  0  0  0  0  0
    7.4083  -13.0152   20.3749 C   0  0  0  0  0  0  0  0  0  0  0  0
    8.2864  -14.0524   19.6989 C   0  0  2  0  0  0  0  0  0  0  0  0
    7.5910  -14.6798   18.5908 N   0  0  0  0  0  0  0  0  0  0  0  0
    8.6213  -15.1582   20.6676 C   0  0  0  0  0  0  0  0  0  0  0  0
    7.7552  -16.0242   21.0093 O   0  0  0  0  0  0  0  0  0  0  0  0
    9.9055  -15.2798   21.2350 N   0  0  0  0  0  0  0  0  0  0  0  0
   10.1628  -16.3600   22.2015 C   0  0  1  0  0  0  0  0  0  0  0  0
   11.4581  -17.0564   21.8653 C   0  0  0  0  0  0  0  0  0  0  0  0
   11.3235  -17.9172   20.6696 C   0  0  0  0  0  0  0  0  0  0  0  0
   10.3573  -18.8528   20.3721 C   0  0  0  0  0  0  0  0  0  0  0  0
   10.6347  -19.4128   19.1851 N   0  0  0  0  0  0  0  0  0  0  0  0
   11.7585  -18.8354   18.7473 C   0  0  0  0  0  0  0  0  0  0  0  0
   12.1969  -17.9256   19.6277 N   0  0  0  0  0  0  0  0  0  0  0  0
   10.1932  -15.7463   23.5367 C   0  0  0  0  0  0  0  0  0  0  0  0
   10.2716  -16.5164   24.6631 O   0  0  0  0  0  0  0  0  0  0  0  0
   10.1464  -14.4996   23.6420 O   0  0  0  0  0  0  0  0  0  0  0  0
  2  4  1  0
  2  1  1  1
  3  2  1  0
  4  5  1  6
  6  4  1  0
  7  6  2  0
  9  8  1  1
  9 11  1  0
  9 10  1  0
 10  6  1  0
 11 13  1  0
 12 11  2  0
 13 14  1  0
 14 21  1  0
 14 15  1  6
 16 15  1  0
 17 16  2  0
 18 17  1  0
 19 18  1  0
 19 20  2  0
 20 16  1  0
 21 22  1  0
 23 21  2  0
M  END
$$$$
