TAH.pdb
     RDKit          3D

 23 23  0  0  1  0  0  0  0  0999 V2000
   12.2372  -18.1629   17.0758 C   0  0  0  0  0  0  0  0  0  0  0  0
   11.1712  -17.5209   16.1984 C   0  0  1  0  0  0  0  0  0  0  0  0
   11.5475  -17.4887   14.8717 O   0  0  0  0  0  0  0  0  0  0  0  0
    9.8608  -18.2794   16.3908 C   0  0  2  0  0  0  0  0  0  0  0  0
    8.8923  -17.8933   15.3793 N   0  0  0  0  0  0  0  0  0  0  0  0
    9.3733  -18.0011   17.7574 C   0  0  0  0  0  0  0  0  0  0  0  0
    8.8344  -16.9187   18.0892 O   0  0  0  0  0  0  0  0  0  0  0  0
    8.9664  -20.1804   20.8168 C   0  0  0  0  0  0  0  0  0  0  0  0
    8.9027  -18.8810   20.0350 C   0  0  2  0  0  0  0  0  0  0  0  0
    9.5310  -19.0248   18.7352 N   0  0  0  0  0  0  0  0  0  0  0  0
    9.6704  -17.8034   20.7581 C   0  0  0  0  0  0  0  0  0  0  0  0
   10.9125  -17.6242   20.5532 O   0  0  0  0  0  0  0  0  0  0  0  0
    9.0463  -16.9502   21.6901 N   0  0  0  0  0  0  0  0  0  0  0  0
    9.8384  -15.8883   22.3322 C   0  0  1  0  0  0  0  0  0  0  0  0
    9.0195  -14.6259   22.4388 C   0  0  0  0  0  0  0  0  0  0  0  0
    8.7751  -14.0173   21.1127 C   0  0  0  0  0  0  0  0  0  0  0  0
    9.2746  -14.3789   19.8811 C   0  0  0  0  0  0  0  0  0  0  0  0
    8.8013  -13.5393   18.9480 N   0  0  0  0  0  0  0  0  0  0  0  0
    8.0173  -12.6652   19.5878 C   0  0  0  0  0  0  0  0  0  0  0  0
    7.9840  -12.9321   20.9003 N   0  0  0  0  0  0  0  0  0  0  0  0
   10.2517  -16.3945   23.6487 C   0  0  0  0  0  0  0  0  0  0  0  0
   11.1636  -15.7166   24.4081 O   0  0  0  0  0  0  0  0  0  0  0  0
    9.7601  -17.4624   24.0794 O   0  0  0  0  0  0  0  0  0  0  0  0
  2  4  1  0
  2  1  1  1
  3  2  1  0
  4  5  1  6
  6  4  1  0
  7  6  2  0
  9  8  1  1
  9 11  1  0
  9 10  1  0
 10  6  1  0
 11 13  1  0
 12 11  2  0
 13 14  1  0
 14 21  1  0
 14 15  1  1
 16 15  1  0
 17 16  2  0
 18 17  1  0
 19 18  1  0
 19 20  2  0
 20 16  1  0
 21 22  1  0
 23 21  2  0
M  END
$$$$
