TAH.pdb
     RDKit          3D

 23 23  0  0  1  0  0  0  0  0999 V2000
    6.9412  -17.3514   17.3214 C   0  0  0  0  0  0  0  0  0  0  0  0
    7.9508  -17.0729   16.2163 C   0  0  1  0  0  0  0  0  0  0  0  0
    7.5768  -17.6495   15.0202 O   0  0  0  0  0  0  0  0  0  0  0  0
    8.1204  -15.5622   16.0811 C   0  0  2  0  0  0  0  0  0  0  0  0
    8.8814  -15.2369   14.8872 N   0  0  0  0  0  0  0  0  0  0  0  0
    8.7796  -15.0692   17.3079 C   0  0  0  0  0  0  0  0  0  0  0  0
    9.9741  -15.3190   17.5958 O   0  0  0  0  0  0  0  0  0  0  0  0
    7.6919  -12.7476   20.0868 C   0  0  0  0  0  0  0  0  0  0  0  0
    8.6127  -13.7429   19.4047 C   0  0  2  0  0  0  0  0  0  0  0  0
    8.0049  -14.2711   18.1979 N   0  0  0  0  0  0  0  0  0  0  0  0
    8.8563  -14.9259   20.3074 C   0  0  0  0  0  0  0  0  0  0  0  0
    8.0019  -15.8611   20.4185 O   0  0  0  0  0  0  0  0  0  0  0  0
   10.0384  -15.0462   21.0651 N   0  0  0  0  0  0  0  0  0  0  0  0
   10.2366  -16.2431   21.8990 C   0  0  1  0  0  0  0  0  0  0  0  0
   11.6454  -16.7578   21.7374 C   0  0  0  0  0  0  0  0  0  0  0  0
   11.8426  -17.4134   20.4260 C   0  0  0  0  0  0  0  0  0  0  0  0
   11.0859  -18.3891   19.8155 C   0  0  0  0  0  0  0  0  0  0  0  0
   11.6401  -18.7049   18.6354 N   0  0  0  0  0  0  0  0  0  0  0  0
   12.7280  -17.9374   18.5105 C   0  0  0  0  0  0  0  0  0  0  0  0
   12.8739  -17.1458   19.5814 N   0  0  0  0  0  0  0  0  0  0  0  0
    9.9429  -15.8561   23.2861 C   0  0  0  0  0  0  0  0  0  0  0  0
   10.0180  -16.7678   24.3015 O   0  0  0  0  0  0  0  0  0  0  0  0
    9.6193  -14.6735   23.5395 O   0  0  0  0  0  0  0  0  0  0  0  0
  2  4  1  0
  2  1  1  1
  3  2  1  0
  4  5  1  6
  6  4  1  0
  7  6  2  0
  9  8  1  1
  9 11  1  0
  9 10  1  0
 10  6  1  0
 11 13  1  0
 12 11  2  0
 13 14  1  0
 14 21  1  0
 14 15  1  1
 16 15  1  0
 17 16  2  0
 18 17  1  0
 19 18  1  0
 19 20  2  0
 20 16  1  0
 21 22  1  0
 23 21  2  0
M  END
$$$$
