TAH.pdb
     RDKit          3D

 23 23  0  0  1  0  0  0  0  0999 V2000
    7.3930  -17.5940   14.9799 C   0  0  0  0  0  0  0  0  0  0  0  0
    8.6096  -16.9619   15.6420 C   0  0  1  0  0  0  0  0  0  0  0  0
    9.7744  -17.6276   15.3209 O   0  0  0  0  0  0  0  0  0  0  0  0
    8.6751  -15.4917   15.2377 C   0  0  2  0  0  0  0  0  0  0  0  0
    9.5928  -15.3061   14.1269 N   0  0  0  0  0  0  0  0  0  0  0  0
    9.0811  -14.7132   16.4259 C   0  0  0  0  0  0  0  0  0  0  0  0
   10.2634  -14.3574   16.6450 O   0  0  0  0  0  0  0  0  0  0  0  0
    7.1768  -13.0610   19.2349 C   0  0  0  0  0  0  0  0  0  0  0  0
    8.4167  -13.6105   18.5533 C   0  0  2  0  0  0  0  0  0  0  0  0
    8.0662  -14.3570   17.3597 N   0  0  0  0  0  0  0  0  0  0  0  0
    9.1224  -14.5811   19.4662 C   0  0  0  0  0  0  0  0  0  0  0  0
    9.4831  -14.2451   20.6384 O   0  0  0  0  0  0  0  0  0  0  0  0
    9.4121  -15.8994   19.0612 N   0  0  0  0  0  0  0  0  0  0  0  0
   10.0248  -16.8274   20.0260 C   0  0  1  0  0  0  0  0  0  0  0  0
    9.6841  -18.2510   19.6612 C   0  0  0  0  0  0  0  0  0  0  0  0
    8.2394  -18.5271   19.8206 C   0  0  0  0  0  0  0  0  0  0  0  0
    7.3491  -18.0148   20.7382 C   0  0  0  0  0  0  0  0  0  0  0  0
    6.1387  -18.5540   20.5287 N   0  0  0  0  0  0  0  0  0  0  0  0
    6.2712  -19.3916   19.4948 C   0  0  0  0  0  0  0  0  0  0  0  0
    7.5338  -19.3944   19.0471 N   0  0  0  0  0  0  0  0  0  0  0  0
   11.4734  -16.5801   20.0024 C   0  0  0  0  0  0  0  0  0  0  0  0
   12.0016  -15.5659   19.2538 O   0  0  0  0  0  0  0  0  0  0  0  0
   12.2333  -17.3100   20.6786 O   0  0  0  0  0  0  0  0  0  0  0  0
  2  4  1  0
  2  1  1  6
  3  2  1  0
  4  5  1  6
  6  4  1  0
  7  6  2  0
  9  8  1  1
  9 11  1  0
  9 10  1  0
 10  6  1  0
 11 13  1  0
 12 11  2  0
 13 14  1  0
 14 21  1  0
 14 15  1  6
 16 15  1  0
 17 16  2  0
 18 17  1  0
 19 18  1  0
 19 20  2  0
 20 16  1  0
 21 22  1  0
 23 21  2  0
M  END
$$$$
