TAH.pdb
     RDKit          3D

 23 23  0  0  1  0  0  0  0  0999 V2000
    9.2065  -12.9347   19.5515 C   0  0  0  0  0  0  0  0  0  0  0  0
    7.7134  -13.2182   19.6434 C   0  0  1  0  0  0  0  0  0  0  0  0
    7.1140  -13.2281   18.4010 O   0  0  0  0  0  0  0  0  0  0  0  0
    7.5135  -14.5441   20.3723 C   0  0  2  0  0  0  0  0  0  0  0  0
    6.0992  -14.8497   20.5012 N   0  0  0  0  0  0  0  0  0  0  0  0
    8.1790  -14.4424   21.6874 C   0  0  0  0  0  0  0  0  0  0  0  0
    9.4164  -14.2924   21.8233 O   0  0  0  0  0  0  0  0  0  0  0  0
    6.9114  -13.8319   25.1544 C   0  0  0  0  0  0  0  0  0  0  0  0
    7.9482  -14.3226   24.1604 C   0  0  2  0  0  0  0  0  0  0  0  0
    7.3589  -14.5205   22.8495 N   0  0  0  0  0  0  0  0  0  0  0  0
    8.4827  -15.6654   24.5901 C   0  0  0  0  0  0  0  0  0  0  0  0
    7.7518  -16.7057   24.5722 O   0  0  0  0  0  0  0  0  0  0  0  0
    9.8123  -15.8253   25.0291 N   0  0  0  0  0  0  0  0  0  0  0  0
   10.2690  -17.1563   25.4618 C   0  0  1  0  0  0  0  0  0  0  0  0
   11.6782  -17.4002   24.9816 C   0  0  0  0  0  0  0  0  0  0  0  0
   11.7456  -17.4998   23.5071 C   0  0  0  0  0  0  0  0  0  0  0  0
   10.7208  -17.5812   22.5902 C   0  0  0  0  0  0  0  0  0  0  0  0
   11.2382  -17.6728   21.3559 N   0  0  0  0  0  0  0  0  0  0  0  0
   12.5674  -17.6492   21.4997 C   0  0  0  0  0  0  0  0  0  0  0  0
   12.9015  -17.5450   22.7929 N   0  0  0  0  0  0  0  0  0  0  0  0
   10.1684  -17.1916   26.9277 C   0  0  0  0  0  0  0  0  0  0  0  0
   10.2152  -16.0409   27.6637 O   0  0  0  0  0  0  0  0  0  0  0  0
   10.0380  -18.2927   27.5091 O   0  0  0  0  0  0  0  0  0  0  0  0
  2  4  1  0
  2  1  1  6
  3  2  1  0
  4  5  1  1
  6  4  1  0
  7  6  2  0
  9  8  1  1
  9 11  1  0
  9 10  1  0
 10  6  1  0
 11 13  1  0
 12 11  2  0
 13 14  1  0
 14 21  1  0
 14 15  1  1
 16 15  1  0
 17 16  2  0
 18 17  1  0
 19 18  1  0
 19 20  2  0
 20 16  1  0
 21 22  1  0
 23 21  2  0
M  END
$$$$
