TAH.pdb
     RDKit          3D

 23 23  0  0  1  0  0  0  0  0999 V2000
    9.9979  -16.7870   14.0729 C   0  0  0  0  0  0  0  0  0  0  0  0
    9.7812  -16.8603   15.5781 C   0  0  1  0  0  0  0  0  0  0  0  0
    9.0185  -15.8079   16.0403 O   0  0  0  0  0  0  0  0  0  0  0  0
    9.1417  -18.2051   15.9130 C   0  0  2  0  0  0  0  0  0  0  0  0
    7.8636  -18.3469   15.2373 N   0  0  0  0  0  0  0  0  0  0  0  0
    9.0025  -18.2868   17.3815 C   0  0  0  0  0  0  0  0  0  0  0  0
    8.0057  -17.8497   18.0042 O   0  0  0  0  0  0  0  0  0  0  0  0
   10.8606  -20.1708   20.0420 C   0  0  0  0  0  0  0  0  0  0  0  0
    9.9413  -19.0691   19.5472 C   0  0  2  0  0  0  0  0  0  0  0  0
   10.0630  -18.8959   18.1119 N   0  0  0  0  0  0  0  0  0  0  0  0
   10.3326  -17.7511   20.1662 C   0  0  0  0  0  0  0  0  0  0  0  0
   11.1759  -16.9811   19.6068 O   0  0  0  0  0  0  0  0  0  0  0  0
    9.7821  -17.3163   21.3885 N   0  0  0  0  0  0  0  0  0  0  0  0
   10.1741  -16.0022   21.9240 C   0  0  1  0  0  0  0  0  0  0  0  0
    8.9483  -15.1577   22.1689 C   0  0  0  0  0  0  0  0  0  0  0  0
    8.4331  -14.5628   20.9162 C   0  0  0  0  0  0  0  0  0  0  0  0
    8.9698  -14.5982   19.6480 C   0  0  0  0  0  0  0  0  0  0  0  0
    8.1764  -13.9108   18.8128 N   0  0  0  0  0  0  0  0  0  0  0  0
    7.1586  -13.4521   19.5488 C   0  0  0  0  0  0  0  0  0  0  0  0
    7.2897  -13.8327   20.8267 N   0  0  0  0  0  0  0  0  0  0  0  0
   10.9339  -16.2484   23.1579 C   0  0  0  0  0  0  0  0  0  0  0  0
   11.0622  -17.5112   23.6646 O   0  0  0  0  0  0  0  0  0  0  0  0
   11.4707  -15.2860   23.7522 O   0  0  0  0  0  0  0  0  0  0  0  0
  2  4  1  0
  2  1  1  6
  3  2  1  0
  4  5  1  6
  6  4  1  0
  7  6  2  0
  9  8  1  1
  9 11  1  0
  9 10  1  0
 10  6  1  0
 11 13  1  0
 12 11  2  0
 13 14  1  0
 14 21  1  0
 14 15  1  1
 16 15  1  0
 17 16  2  0
 18 17  1  0
 19 18  1  0
 19 20  2  0
 20 16  1  0
 21 22  1  0
 23 21  2  0
M  END
$$$$
