TAH.pdb
     RDKit          3D

 23 23  0  0  1  0  0  0  0  0999 V2000
    9.5815  -12.8261   19.4937 C   0  0  0  0  0  0  0  0  0  0  0  0
    8.6465  -13.3144   18.3957 C   0  0  1  0  0  0  0  0  0  0  0  0
    8.7401  -12.5400   17.2580 O   0  0  0  0  0  0  0  0  0  0  0  0
    8.9612  -14.7790   18.1039 C   0  0  2  0  0  0  0  0  0  0  0  0
    8.1523  -15.2667   17.0002 N   0  0  0  0  0  0  0  0  0  0  0  0
    8.7262  -15.5481   19.3432 C   0  0  0  0  0  0  0  0  0  0  0  0
    7.5857  -15.7449   19.8258 O   0  0  0  0  0  0  0  0  0  0  0  0
   10.8706  -17.7940   21.4452 C   0  0  0  0  0  0  0  0  0  0  0  0
    9.6835  -16.8769   21.2144 C   0  0  2  0  0  0  0  0  0  0  0  0
    9.8633  -16.0863   20.0113 N   0  0  0  0  0  0  0  0  0  0  0  0
    9.5598  -15.8939   22.3510 C   0  0  0  0  0  0  0  0  0  0  0  0
   10.2754  -14.8439   22.3992 O   0  0  0  0  0  0  0  0  0  0  0  0
    8.6482  -16.0955   23.4065 N   0  0  0  0  0  0  0  0  0  0  0  0
    8.4865  -15.0445   24.4247 C   0  0  1  0  0  0  0  0  0  0  0  0
    7.0227  -14.7396   24.6244 C   0  0  0  0  0  0  0  0  0  0  0  0
    6.8115  -13.7440   25.6981 C   0  0  0  0  0  0  0  0  0  0  0  0
    7.7395  -13.1044   26.4900 C   0  0  0  0  0  0  0  0  0  0  0  0
    7.1041  -12.2912   27.3470 N   0  0  0  0  0  0  0  0  0  0  0  0
    5.7975  -12.4212   27.0944 C   0  0  0  0  0  0  0  0  0  0  0  0
    5.5927  -13.2953   26.1000 N   0  0  0  0  0  0  0  0  0  0  0  0
    9.1243  -15.5340   25.6551 C   0  0  0  0  0  0  0  0  0  0  0  0
    9.5779  -14.6636   26.6062 O   0  0  0  0  0  0  0  0  0  0  0  0
    9.2531  -16.7666   25.8329 O   0  0  0  0  0  0  0  0  0  0  0  0
  2  4  1  0
  2  1  1  1
  3  2  1  0
  4  5  1  6
  6  4  1  0
  7  6  2  0
  9  8  1  1
  9 11  1  0
  9 10  1  0
 10  6  1  0
 11 13  1  0
 12 11  2  0
 13 14  1  0
 14 21  1  0
 14 15  1  1
 16 15  1  0
 17 16  2  0
 18 17  1  0
 19 18  1  0
 19 20  2  0
 20 16  1  0
 21 22  1  0
 23 21  2  0
M  END
$$$$
