TAH.pdb
     RDKit          3D

 23 23  0  0  1  0  0  0  0  0999 V2000
    6.8652  -18.1940   18.3533 C   0  0  0  0  0  0  0  0  0  0  0  0
    7.7207  -17.8468   17.1426 C   0  0  1  0  0  0  0  0  0  0  0  0
    7.3241  -18.5382   16.0168 O   0  0  0  0  0  0  0  0  0  0  0  0
    7.6632  -16.3376   16.9224 C   0  0  2  0  0  0  0  0  0  0  0  0
    8.2842  -15.9803   15.6587 N   0  0  0  0  0  0  0  0  0  0  0  0
    8.3300  -15.6872   18.0692 C   0  0  0  0  0  0  0  0  0  0  0  0
    9.5568  -15.7961   18.3048 O   0  0  0  0  0  0  0  0  0  0  0  0
    7.1543  -13.2260   20.6867 C   0  0  0  0  0  0  0  0  0  0  0  0
    8.1446  -14.1713   20.0316 C   0  0  2  0  0  0  0  0  0  0  0  0
    7.5243  -14.9004   18.9413 N   0  0  0  0  0  0  0  0  0  0  0  0
    8.6054  -15.2082   21.0245 C   0  0  0  0  0  0  0  0  0  0  0  0
    7.8994  -16.2323   21.2884 O   0  0  0  0  0  0  0  0  0  0  0  0
    9.8355  -15.0877   21.7016 N   0  0  0  0  0  0  0  0  0  0  0  0
   10.1874  -16.0798   22.7308 C   0  0  1  0  0  0  0  0  0  0  0  0
   11.6673  -16.3688   22.6851 C   0  0  0  0  0  0  0  0  0  0  0  0
   12.0176  -17.2587   21.5563 C   0  0  0  0  0  0  0  0  0  0  0  0
   11.1892  -17.9156   20.6734 C   0  0  0  0  0  0  0  0  0  0  0  0
   11.9340  -18.6296   19.8160 N   0  0  0  0  0  0  0  0  0  0  0  0
   13.2097  -18.4219   20.1587 C   0  0  0  0  0  0  0  0  0  0  0  0
   13.2885  -17.5952   21.2100 N   0  0  0  0  0  0  0  0  0  0  0  0
    9.7703  -15.5243   24.0260 C   0  0  0  0  0  0  0  0  0  0  0  0
    9.7995  -16.2863   25.1602 O   0  0  0  0  0  0  0  0  0  0  0  0
    9.3828  -14.3355   24.0896 O   0  0  0  0  0  0  0  0  0  0  0  0
  2  4  1  0
  2  1  1  1
  3  2  1  0
  4  5  1  6
  6  4  1  0
  7  6  2  0
  9  8  1  1
  9 11  1  0
  9 10  1  0
 10  6  1  0
 11 13  1  0
 12 11  2  0
 13 14  1  0
 14 21  1  0
 14 15  1  1
 16 15  1  0
 17 16  2  0
 18 17  1  0
 19 18  1  0
 19 20  2  0
 20 16  1  0
 21 22  1  0
 23 21  2  0
M  END
$$$$
