TAH.pdb
     RDKit          3D

 23 23  0  0  1  0  0  0  0  0999 V2000
    3.9858  -17.8508   20.9744 C   0  0  0  0  0  0  0  0  0  0  0  0
    4.2461  -19.2465   21.5241 C   0  0  1  0  0  0  0  0  0  0  0  0
    4.3743  -19.2431   22.8976 O   0  0  0  0  0  0  0  0  0  0  0  0
    3.1172  -20.1674   21.0692 C   0  0  2  0  0  0  0  0  0  0  0  0
    1.8322  -19.6666   21.5255 N   0  0  0  0  0  0  0  0  0  0  0  0
    3.3994  -21.5208   21.5901 C   0  0  0  0  0  0  0  0  0  0  0  0
    2.7492  -22.0490   22.5231 O   0  0  0  0  0  0  0  0  0  0  0  0
    5.2390  -24.4568   20.2727 C   0  0  0  0  0  0  0  0  0  0  0  0
    4.7483  -23.6035   21.4280 C   0  0  2  0  0  0  0  0  0  0  0  0
    4.4673  -22.2488   20.9912 N   0  0  0  0  0  0  0  0  0  0  0  0
    5.8205  -23.4932   22.4823 C   0  0  0  0  0  0  0  0  0  0  0  0
    6.3085  -24.5259   23.0412 O   0  0  0  0  0  0  0  0  0  0  0  0
    6.3273  -22.2440   22.8931 N   0  0  0  0  0  0  0  0  0  0  0  0
    7.2733  -22.1897   24.0198 C   0  0  1  0  0  0  0  0  0  0  0  0
    8.5508  -21.5127   23.5894 C   0  0  0  0  0  0  0  0  0  0  0  0
    8.9162  -21.8639   22.1995 C   0  0  0  0  0  0  0  0  0  0  0  0
    8.2746  -22.7011   21.3136 C   0  0  0  0  0  0  0  0  0  0  0  0
    8.9648  -22.7409   20.1640 N   0  0  0  0  0  0  0  0  0  0  0  0
   10.0228  -21.9401   20.3295 C   0  0  0  0  0  0  0  0  0  0  0  0
   10.0175  -21.3963   21.5538 N   0  0  0  0  0  0  0  0  0  0  0  0
    6.6035  -21.4682   25.1112 C   0  0  0  0  0  0  0  0  0  0  0  0
    5.4122  -20.8306   24.9056 O   0  0  0  0  0  0  0  0  0  0  0  0
    7.1333  -21.4382   26.2451 O   0  0  0  0  0  0  0  0  0  0  0  0
  2  4  1  0
  2  1  1  1
  3  2  1  0
  4  5  1  1
  6  4  1  0
  7  6  2  0
  9  8  1  6
  9 11  1  0
  9 10  1  0
 10  6  1  0
 11 13  1  0
 12 11  2  0
 13 14  1  0
 14 21  1  0
 14 15  1  6
 16 15  1  0
 17 16  2  0
 18 17  1  0
 19 18  1  0
 19 20  2  0
 20 16  1  0
 21 22  1  0
 23 21  2  0
M  END
$$$$
