TWV.pdb
     RDKit          3D

 29 30  0  0  1  0  0  0  0  0999 V2000
   12.8867  -18.4390   22.2581 C   0  0  0  0  0  0  0  0  0  0  0  0
   12.7336  -17.3191   21.2581 C   0  0  1  0  0  0  0  0  0  0  0  0
   13.1733  -17.8307   20.0151 O   0  0  0  0  0  0  0  0  0  0  0  0
   11.2790  -16.9085   21.0624 C   0  0  2  0  0  0  0  0  0  0  0  0
   11.3385  -15.9199   19.9595 N   0  0  0  0  0  0  0  0  0  0  0  0
   10.7602  -16.2499   22.2822 C   0  0  0  0  0  0  0  0  0  0  0  0
   11.1715  -15.0966   22.6290 O   0  0  0  0  0  0  0  0  0  0  0  0
    9.8026  -16.8307   23.1222 N   0  0  0  0  0  0  0  0  0  0  0  0
    9.3570  -16.2163   24.3661 C   0  0  1  0  0  0  0  0  0  0  0  0
    7.8637  -16.4553   24.4610 C   0  0  0  0  0  0  0  0  0  0  0  0
    7.2033  -15.1947   24.0191 C   0  0  0  0  0  0  0  0  0  0  0  0
    6.7296  -14.8694   22.7676 C   0  0  0  0  0  0  0  0  0  0  0  0
    6.2109  -13.6407   22.8044 N   0  0  0  0  0  0  0  0  0  0  0  0
    6.3134  -13.1142   24.0381 C   0  0  0  0  0  0  0  0  0  0  0  0
    5.9640  -11.9252   24.6455 C   0  0  0  0  0  0  0  0  0  0  0  0
    6.2105  -11.6714   25.9792 C   0  0  0  0  0  0  0  0  0  0  0  0
    6.8260  -12.6381   26.7283 C   0  0  0  0  0  0  0  0  0  0  0  0
    7.1877  -13.8380   26.1494 C   0  0  0  0  0  0  0  0  0  0  0  0
    6.9329  -14.0760   24.8098 C   0  0  0  0  0  0  0  0  0  0  0  0
   10.0938  -16.7033   25.5314 C   0  0  0  0  0  0  0  0  0  0  0  0
   10.6550  -17.8264   25.4786 O   0  0  0  0  0  0  0  0  0  0  0  0
   11.1414  -13.8054   28.1491 C   0  0  0  0  0  0  0  0  0  0  0  0
   10.8045  -15.1269   28.8450 C   0  0  1  0  0  0  0  0  0  0  0  0
    9.4147  -15.1420   29.3892 C   0  0  0  0  0  0  0  0  0  0  0  0
   11.0404  -16.2437   27.8236 C   0  0  2  0  0  0  0  0  0  0  0  0
   10.1817  -15.9378   26.6994 N   0  0  0  0  0  0  0  0  0  0  0  0
   10.5951  -17.5003   28.4759 C   0  0  0  0  0  0  0  0  0  0  0  0
    9.4582  -17.9562   28.2161 O   0  0  0  0  0  0  0  0  0  0  0  0
   11.3947  -18.1942   29.3684 O   0  0  0  0  0  0  0  0  0  0  0  0
  2  1  1  1
  2  3  1  0
  4  2  1  0
  4  5  1  6
  6  4  1  0
  6  7  2  0
  8  6  1  0
  9  8  1  0
  9 10  1  1
 11 10  1  0
 11 19  1  0
 12 13  1  0
 12 11  2  0
 13 14  1  0
 14 19  2  0
 14 15  1  0
 15 16  2  0
 16 17  1  0
 18 17  2  0
 19 18  1  0
 20  9  1  0
 21 20  2  0
 23 22  1  6
 23 24  1  0
 23 25  1  0
 25 27  1  0
 25 26  1  6
 26 20  1  0
 27 29  1  0
 28 27  2  0
M  END
$$$$
