TWV.pdb
     RDKit          3D

 29 30  0  0  1  0  0  0  0  0999 V2000
    9.3109  -18.5463   19.8857 C   0  0  0  0  0  0  0  0  0  0  0  0
    9.3198  -17.1504   19.3120 C   0  0  1  0  0  0  0  0  0  0  0  0
    8.7594  -17.2472   18.0171 O   0  0  0  0  0  0  0  0  0  0  0  0
    8.4280  -16.1938   20.0946 C   0  0  2  0  0  0  0  0  0  0  0  0
    8.5295  -14.9221   19.3399 N   0  0  0  0  0  0  0  0  0  0  0  0
    8.9593  -15.9951   21.4617 C   0  0  0  0  0  0  0  0  0  0  0  0
    9.9930  -15.2810   21.6651 O   0  0  0  0  0  0  0  0  0  0  0  0
    8.3787  -16.5614   22.6028 N   0  0  0  0  0  0  0  0  0  0  0  0
    8.9455  -16.4208   23.9379 C   0  0  1  0  0  0  0  0  0  0  0  0
    7.8066  -16.6141   24.9185 C   0  0  0  0  0  0  0  0  0  0  0  0
    7.1518  -15.2849   25.0758 C   0  0  0  0  0  0  0  0  0  0  0  0
    5.9768  -14.8374   24.5142 C   0  0  0  0  0  0  0  0  0  0  0  0
    5.7523  -13.5847   24.9148 N   0  0  0  0  0  0  0  0  0  0  0  0
    6.7334  -13.1597   25.7312 C   0  0  0  0  0  0  0  0  0  0  0  0
    7.0220  -12.0000   26.4215 C   0  0  0  0  0  0  0  0  0  0  0  0
    8.1486  -11.8631   27.2063 C   0  0  0  0  0  0  0  0  0  0  0  0
    9.0134  -12.9201   27.3031 C   0  0  0  0  0  0  0  0  0  0  0  0
    8.7523  -14.0935   26.6245 C   0  0  0  0  0  0  0  0  0  0  0  0
    7.6172  -14.2138   25.8414 C   0  0  0  0  0  0  0  0  0  0  0  0
   10.0683  -17.3276   24.1725 C   0  0  0  0  0  0  0  0  0  0  0  0
    9.9149  -18.5595   23.9774 O   0  0  0  0  0  0  0  0  0  0  0  0
   14.9328  -17.5317   25.0112 C   0  0  0  0  0  0  0  0  0  0  0  0
   13.6777  -16.7125   24.6985 C   0  0  1  0  0  0  0  0  0  0  0  0
   13.7441  -16.0657   23.3549 C   0  0  0  0  0  0  0  0  0  0  0  0
   12.4809  -17.6596   24.8286 C   0  0  2  0  0  0  0  0  0  0  0  0
   11.3062  -16.8431   24.6094 N   0  0  0  0  0  0  0  0  0  0  0  0
   12.4994  -18.1582   26.2264 C   0  0  0  0  0  0  0  0  0  0  0  0
   13.0094  -19.2750   26.4722 O   0  0  0  0  0  0  0  0  0  0  0  0
   11.9702  -17.4300   27.2786 O   0  0  0  0  0  0  0  0  0  0  0  0
  2  1  1  1
  2  3  1  0
  4  2  1  0
  4  5  1  6
  6  4  1  0
  6  7  2  0
  8  6  1  0
  9  8  1  0
  9 10  1  1
 11 10  1  0
 11 19  1  0
 12 13  1  0
 12 11  2  0
 13 14  1  0
 14 19  2  0
 14 15  1  0
 15 16  2  0
 16 17  1  0
 18 17  2  0
 19 18  1  0
 20  9  1  0
 21 20  2  0
 23 22  1  6
 23 24  1  0
 23 25  1  0
 25 27  1  0
 25 26  1  1
 26 20  1  0
 27 29  1  0
 28 27  2  0
M  END
$$$$
