TWV.pdb
     RDKit          3D

 29 30  0  0  1  0  0  0  0  0999 V2000
   12.0149  -16.7703   18.7091 C   0  0  0  0  0  0  0  0  0  0  0  0
   11.3866  -16.1338   19.9246 C   0  0  1  0  0  0  0  0  0  0  0  0
    9.9904  -16.1338   19.6988 O   0  0  0  0  0  0  0  0  0  0  0  0
   11.6158  -16.9484   21.1922 C   0  0  2  0  0  0  0  0  0  0  0  0
   10.8707  -18.2051   20.9416 N   0  0  0  0  0  0  0  0  0  0  0  0
   11.0296  -16.2574   22.3626 C   0  0  0  0  0  0  0  0  0  0  0  0
   11.5034  -15.1503   22.7743 O   0  0  0  0  0  0  0  0  0  0  0  0
    9.9383  -16.7562   23.0837 N   0  0  0  0  0  0  0  0  0  0  0  0
    9.4139  -16.1125   24.2813 C   0  0  1  0  0  0  0  0  0  0  0  0
    7.9682  -16.5465   24.4131 C   0  0  0  0  0  0  0  0  0  0  0  0
    7.1365  -15.3418   24.1349 C   0  0  0  0  0  0  0  0  0  0  0  0
    6.2703  -15.1227   23.0871 C   0  0  0  0  0  0  0  0  0  0  0  0
    5.7277  -13.9106   23.2171 N   0  0  0  0  0  0  0  0  0  0  0  0
    6.1931  -13.2930   24.3178 C   0  0  0  0  0  0  0  0  0  0  0  0
    5.9958  -12.0741   24.9342 C   0  0  0  0  0  0  0  0  0  0  0  0
    6.6435  -11.7168   26.0990 C   0  0  0  0  0  0  0  0  0  0  0  0
    7.5160  -12.6076   26.6645 C   0  0  0  0  0  0  0  0  0  0  0  0
    7.7346  -13.8349   26.0716 C   0  0  0  0  0  0  0  0  0  0  0  0
    7.0763  -14.1772   24.9030 C   0  0  0  0  0  0  0  0  0  0  0  0
   10.2128  -16.3998   25.4718 C   0  0  0  0  0  0  0  0  0  0  0  0
   10.9990  -17.3801   25.4628 O   0  0  0  0  0  0  0  0  0  0  0  0
    8.9391  -14.9451   28.9722 C   0  0  0  0  0  0  0  0  0  0  0  0
   10.4372  -14.6889   28.7870 C   0  0  1  0  0  0  0  0  0  0  0  0
   11.1822  -14.7276   30.0798 C   0  0  0  0  0  0  0  0  0  0  0  0
   10.9499  -15.7324   27.7897 C   0  0  2  0  0  0  0  0  0  0  0  0
   10.1134  -15.6005   26.6160 N   0  0  0  0  0  0  0  0  0  0  0  0
   10.7280  -17.0549   28.4257 C   0  0  0  0  0  0  0  0  0  0  0  0
   11.6479  -17.5736   29.0985 O   0  0  0  0  0  0  0  0  0  0  0  0
    9.5330  -17.7436   28.3029 O   0  0  0  0  0  0  0  0  0  0  0  0
  2  1  1  6
  2  3  1  0
  4  2  1  0
  4  5  1  6
  6  4  1  0
  6  7  2  0
  8  6  1  0
  9  8  1  0
  9 10  1  1
 11 10  1  0
 11 19  1  0
 12 13  1  0
 12 11  2  0
 13 14  1  0
 14 19  2  0
 14 15  1  0
 15 16  2  0
 16 17  1  0
 18 17  2  0
 19 18  1  0
 20  9  1  0
 21 20  2  0
 23 22  1  1
 23 24  1  0
 23 25  1  0
 25 27  1  0
 25 26  1  6
 26 20  1  0
 27 29  1  0
 28 27  2  0
M  END
$$$$
