TWV.pdb
     RDKit          3D

 29 30  0  0  1  0  0  0  0  0999 V2000
   12.6999  -18.7847   22.0602 C   0  0  0  0  0  0  0  0  0  0  0  0
   12.6831  -17.5615   21.1765 C   0  0  1  0  0  0  0  0  0  0  0  0
   13.0697  -17.9950   19.8870 O   0  0  0  0  0  0  0  0  0  0  0  0
   11.2865  -16.9693   21.0287 C   0  0  2  0  0  0  0  0  0  0  0  0
   11.4590  -15.9148   20.0015 N   0  0  0  0  0  0  0  0  0  0  0  0
   10.8527  -16.3475   22.3000 C   0  0  0  0  0  0  0  0  0  0  0  0
   11.3647  -15.2540   22.7022 O   0  0  0  0  0  0  0  0  0  0  0  0
    9.8718  -16.9006   23.1317 N   0  0  0  0  0  0  0  0  0  0  0  0
    9.3630  -16.2272   24.3196 C   0  0  1  0  0  0  0  0  0  0  0  0
    7.8725  -16.4955   24.3692 C   0  0  0  0  0  0  0  0  0  0  0  0
    7.2003  -15.2379   23.9366 C   0  0  0  0  0  0  0  0  0  0  0  0
    6.7633  -14.8900   22.6779 C   0  0  0  0  0  0  0  0  0  0  0  0
    6.2168  -13.6738   22.7277 N   0  0  0  0  0  0  0  0  0  0  0  0
    6.2650  -13.1778   23.9772 C   0  0  0  0  0  0  0  0  0  0  0  0
    5.8689  -12.0127   24.6020 C   0  0  0  0  0  0  0  0  0  0  0  0
    6.0635  -11.7888   25.9496 C   0  0  0  0  0  0  0  0  0  0  0  0
    6.6736  -12.7617   26.6950 C   0  0  0  0  0  0  0  0  0  0  0  0
    7.0813  -13.9381   26.0988 C   0  0  0  0  0  0  0  0  0  0  0  0
    6.8783  -14.1462   24.7455 C   0  0  0  0  0  0  0  0  0  0  0  0
   10.0619  -16.6299   25.5392 C   0  0  0  0  0  0  0  0  0  0  0  0
   10.6733  -17.7275   25.5636 O   0  0  0  0  0  0  0  0  0  0  0  0
   11.2277  -15.1994   30.1464 C   0  0  0  0  0  0  0  0  0  0  0  0
   10.4774  -14.9261   28.8400 C   0  0  1  0  0  0  0  0  0  0  0  0
   10.8368  -13.6045   28.2466 C   0  0  0  0  0  0  0  0  0  0  0  0
   10.7864  -16.0907   27.8942 C   0  0  2  0  0  0  0  0  0  0  0  0
   10.0588  -15.8120   26.6745 N   0  0  0  0  0  0  0  0  0  0  0  0
   10.2395  -17.3072   28.5453 C   0  0  0  0  0  0  0  0  0  0  0  0
    9.0284  -17.5892   28.3984 O   0  0  0  0  0  0  0  0  0  0  0  0
   11.0230  -18.1498   29.3156 O   0  0  0  0  0  0  0  0  0  0  0  0
  2  1  1  1
  2  3  1  0
  4  2  1  0
  4  5  1  6
  6  4  1  0
  6  7  2  0
  8  6  1  0
  9  8  1  0
  9 10  1  1
 11 10  1  0
 11 19  1  0
 12 13  1  0
 12 11  2  0
 13 14  1  0
 14 19  2  0
 14 15  1  0
 15 16  2  0
 16 17  1  0
 18 17  2  0
 19 18  1  0
 20  9  1  0
 21 20  2  0
 23 22  1  1
 23 24  1  0
 23 25  1  0
 25 27  1  0
 25 26  1  6
 26 20  1  0
 27 29  1  0
 28 27  2  0
M  END
$$$$
