TWV.pdb
     RDKit          3D

 29 30  0  0  1  0  0  0  0  0999 V2000
   12.6463  -19.1641   20.1595 C   0  0  0  0  0  0  0  0  0  0  0  0
   12.2278  -18.2828   21.3109 C   0  0  1  0  0  0  0  0  0  0  0  0
   13.3568  -17.4993   21.6451 O   0  0  0  0  0  0  0  0  0  0  0  0
   11.1259  -17.3037   20.9238 C   0  0  2  0  0  0  0  0  0  0  0  0
   11.7902  -16.3879   19.9661 N   0  0  0  0  0  0  0  0  0  0  0  0
   10.6801  -16.5345   22.1072 C   0  0  0  0  0  0  0  0  0  0  0  0
   11.1495  -15.3768   22.3505 O   0  0  0  0  0  0  0  0  0  0  0  0
    9.7329  -17.0099   23.0219 N   0  0  0  0  0  0  0  0  0  0  0  0
    9.3201  -16.2615   24.2021 C   0  0  1  0  0  0  0  0  0  0  0  0
    7.8153  -16.4052   24.3063 C   0  0  0  0  0  0  0  0  0  0  0  0
    7.2362  -15.0825   23.9381 C   0  0  0  0  0  0  0  0  0  0  0  0
    6.8346  -14.6389   22.6978 C   0  0  0  0  0  0  0  0  0  0  0  0
    6.3741  -13.3917   22.8098 N   0  0  0  0  0  0  0  0  0  0  0  0
    6.4470  -12.9666   24.0840 C   0  0  0  0  0  0  0  0  0  0  0  0
    6.1285  -11.8111   24.7681 C   0  0  0  0  0  0  0  0  0  0  0  0
    6.3275  -11.6726   26.1264 C   0  0  0  0  0  0  0  0  0  0  0  0
    6.8622  -12.7238   26.8218 C   0  0  0  0  0  0  0  0  0  0  0  0
    7.1913  -13.8930   26.1658 C   0  0  0  0  0  0  0  0  0  0  0  0
    6.9850  -14.0149   24.8024 C   0  0  0  0  0  0  0  0  0  0  0  0
   10.0245  -16.6829   25.4122 C   0  0  0  0  0  0  0  0  0  0  0  0
   10.4876  -17.8493   25.4794 O   0  0  0  0  0  0  0  0  0  0  0  0
   11.3902  -15.2686   29.9638 C   0  0  0  0  0  0  0  0  0  0  0  0
   10.5727  -15.0065   28.6961 C   0  0  1  0  0  0  0  0  0  0  0  0
   10.8204  -13.6461   28.1339 C   0  0  0  0  0  0  0  0  0  0  0  0
   10.9204  -16.1182   27.7013 C   0  0  2  0  0  0  0  0  0  0  0  0
   10.1889  -15.8079   26.4916 N   0  0  0  0  0  0  0  0  0  0  0  0
   10.4086  -17.3783   28.2953 C   0  0  0  0  0  0  0  0  0  0  0  0
    9.1926  -17.6569   28.1880 O   0  0  0  0  0  0  0  0  0  0  0  0
   11.2306  -18.2657   28.9694 O   0  0  0  0  0  0  0  0  0  0  0  0
  2  1  1  6
  2  3  1  0
  4  2  1  0
  4  5  1  6
  6  4  1  0
  6  7  2  0
  8  6  1  0
  9  8  1  0
  9 10  1  1
 11 10  1  0
 11 19  1  0
 12 13  1  0
 12 11  2  0
 13 14  1  0
 14 19  2  0
 14 15  1  0
 15 16  2  0
 16 17  1  0
 18 17  2  0
 19 18  1  0
 20  9  1  0
 21 20  2  0
 23 22  1  1
 23 24  1  0
 23 25  1  0
 25 27  1  0
 25 26  1  6
 26 20  1  0
 27 29  1  0
 28 27  2  0
M  END
$$$$
