TWV.pdb
     RDKit          3D

 29 30  0  0  1  0  0  0  0  0999 V2000
    6.4934  -15.8513   18.6455 C   0  0  0  0  0  0  0  0  0  0  0  0
    7.4148  -15.8605   19.8407 C   0  0  1  0  0  0  0  0  0  0  0  0
    8.7090  -15.5705   19.3494 O   0  0  0  0  0  0  0  0  0  0  0  0
    7.0802  -14.7614   20.8421 C   0  0  2  0  0  0  0  0  0  0  0  0
    7.3315  -13.5105   20.0877 N   0  0  0  0  0  0  0  0  0  0  0  0
    7.9961  -14.8249   22.0030 C   0  0  0  0  0  0  0  0  0  0  0  0
    9.0560  -14.1213   22.0400 O   0  0  0  0  0  0  0  0  0  0  0  0
    7.7700  -15.6408   23.1179 N   0  0  0  0  0  0  0  0  0  0  0  0
    8.7227  -15.7757   24.2123 C   0  0  1  0  0  0  0  0  0  0  0  0
    7.9162  -16.0791   25.4587 C   0  0  0  0  0  0  0  0  0  0  0  0
    7.0143  -14.9128   25.6748 C   0  0  0  0  0  0  0  0  0  0  0  0
    5.6539  -14.8340   25.4758 C   0  0  0  0  0  0  0  0  0  0  0  0
    5.2384  -13.6059   25.7910 N   0  0  0  0  0  0  0  0  0  0  0  0
    6.2678  -12.8418   26.1986 C   0  0  0  0  0  0  0  0  0  0  0  0
    6.4327  -11.5417   26.6315 C   0  0  0  0  0  0  0  0  0  0  0  0
    7.6615  -11.0291   26.9935 C   0  0  0  0  0  0  0  0  0  0  0  0
    8.7597  -11.8434   26.9199 C   0  0  0  0  0  0  0  0  0  0  0  0
    8.6271  -13.1487   26.4906 C   0  0  0  0  0  0  0  0  0  0  0  0
    7.3866  -13.6468   26.1312 C   0  0  0  0  0  0  0  0  0  0  0  0
    9.7582  -16.7713   23.9392 C   0  0  0  0  0  0  0  0  0  0  0  0
    9.4371  -17.8607   23.4011 O   0  0  0  0  0  0  0  0  0  0  0  0
   14.5780  -17.5620   23.4919 C   0  0  0  0  0  0  0  0  0  0  0  0
   13.4050  -16.6021   23.7081 C   0  0  1  0  0  0  0  0  0  0  0  0
   13.1674  -15.7231   22.5254 C   0  0  0  0  0  0  0  0  0  0  0  0
   12.1822  -17.4592   24.0498 C   0  0  2  0  0  0  0  0  0  0  0  0
   11.0962  -16.5277   24.2679 N   0  0  0  0  0  0  0  0  0  0  0  0
   12.5112  -18.1613   25.3153 C   0  0  0  0  0  0  0  0  0  0  0  0
   12.2510  -17.6088   26.4084 O   0  0  0  0  0  0  0  0  0  0  0  0
   13.0997  -19.4146   25.3345 O   0  0  0  0  0  0  0  0  0  0  0  0
  2  1  1  6
  2  3  1  0
  4  2  1  0
  4  5  1  6
  6  4  1  0
  6  7  2  0
  8  6  1  0
  9  8  1  0
  9 10  1  1
 11 10  1  0
 11 19  1  0
 12 13  1  0
 12 11  2  0
 13 14  1  0
 14 19  2  0
 14 15  1  0
 15 16  2  0
 16 17  1  0
 18 17  2  0
 19 18  1  0
 20  9  1  0
 21 20  2  0
 23 22  1  6
 23 24  1  0
 23 25  1  0
 25 27  1  0
 25 26  1  1
 26 20  1  0
 27 29  1  0
 28 27  2  0
M  END
$$$$
