TWV.pdb
     RDKit          3D

 29 30  0  0  1  0  0  0  0  0999 V2000
   10.8173  -14.9577   17.6204 C   0  0  0  0  0  0  0  0  0  0  0  0
   10.5769  -14.8124   19.1031 C   0  0  1  0  0  0  0  0  0  0  0  0
   11.4011  -13.7490   19.5390 O   0  0  0  0  0  0  0  0  0  0  0  0
    9.1441  -14.4032   19.4231 C   0  0  2  0  0  0  0  0  0  0  0  0
    8.9981  -13.0864   18.7583 N   0  0  0  0  0  0  0  0  0  0  0  0
    8.9692  -14.2359   20.8833 C   0  0  0  0  0  0  0  0  0  0  0  0
    9.1957  -13.1171   21.4461 O   0  0  0  0  0  0  0  0  0  0  0  0
    8.5511  -15.2683   21.7315 N   0  0  0  0  0  0  0  0  0  0  0  0
    8.3443  -15.0884   23.1627 C   0  0  1  0  0  0  0  0  0  0  0  0
    6.9456  -15.5851   23.4678 C   0  0  0  0  0  0  0  0  0  0  0  0
    6.6159  -15.1079   24.8404 C   0  0  0  0  0  0  0  0  0  0  0  0
    6.2775  -15.8533   25.9477 C   0  0  0  0  0  0  0  0  0  0  0  0
    6.0599  -15.0311   26.9758 N   0  0  0  0  0  0  0  0  0  0  0  0
    6.2378  -13.7489   26.6098 C   0  0  0  0  0  0  0  0  0  0  0  0
    6.1544  -12.5168   27.2259 C   0  0  0  0  0  0  0  0  0  0  0  0
    6.4047  -11.3345   26.5601 C   0  0  0  0  0  0  0  0  0  0  0  0
    6.7492  -11.3872   25.2361 C   0  0  0  0  0  0  0  0  0  0  0  0
    6.8408  -12.6046   24.5918 C   0  0  0  0  0  0  0  0  0  0  0  0
    6.5863  -13.7813   25.2750 C   0  0  0  0  0  0  0  0  0  0  0  0
    9.3759  -15.7405   23.9681 C   0  0  0  0  0  0  0  0  0  0  0  0
    9.9199  -16.7888   23.5388 O   0  0  0  0  0  0  0  0  0  0  0  0
   10.8500  -13.4361   26.8919 C   0  0  0  0  0  0  0  0  0  0  0  0
   10.8181  -14.9078   27.3131 C   0  0  1  0  0  0  0  0  0  0  0  0
    9.6452  -15.2230   28.1808 C   0  0  0  0  0  0  0  0  0  0  0  0
   10.8308  -15.7416   26.0283 C   0  0  2  0  0  0  0  0  0  0  0  0
    9.7636  -15.2142   25.2053 N   0  0  0  0  0  0  0  0  0  0  0  0
   10.5170  -17.1335   26.4367 C   0  0  0  0  0  0  0  0  0  0  0  0
    9.3551  -17.5722   26.2764 O   0  0  0  0  0  0  0  0  0  0  0  0
   11.4670  -17.9734   26.9930 O   0  0  0  0  0  0  0  0  0  0  0  0
  2  1  1  6
  2  3  1  0
  4  2  1  0
  4  5  1  6
  6  4  1  0
  6  7  2  0
  8  6  1  0
  9  8  1  0
  9 10  1  1
 11 10  1  0
 11 19  1  0
 12 13  1  0
 12 11  2  0
 13 14  1  0
 14 19  2  0
 14 15  1  0
 15 16  2  0
 16 17  1  0
 18 17  2  0
 19 18  1  0
 20  9  1  0
 21 20  2  0
 23 22  1  6
 23 24  1  0
 23 25  1  0
 25 27  1  0
 25 26  1  6
 26 20  1  0
 27 29  1  0
 28 27  2  0
M  END
$$$$
