GPW.pdb
     RDKit          3D

 26 28  0  0  1  0  0  0  0  0999 V2000
   23.3319  -18.9583  -15.2968 N   0  0  0  0  0  0  0  0  0  0  0  0
   24.4809  -18.5350  -14.5724 C   0  0  0  0  0  0  0  0  0  0  0  0
   25.3841  -19.6002  -14.1103 C   0  0  0  0  0  0  0  0  0  0  0  0
   24.7793  -20.5406  -13.4636 O   0  0  0  0  0  0  0  0  0  0  0  0
   26.7555  -19.7312  -14.2683 N   0  0  0  0  0  0  0  0  0  0  0  0
   27.5894  -19.2444  -15.3460 C   0  0  0  0  0  0  0  0  0  0  0  0
   28.7525  -18.6001  -14.5479 C   0  0  0  0  0  0  0  0  0  0  0  0
   28.6116  -19.1745  -13.1191 C   0  0  0  0  0  0  0  0  0  0  0  0
   27.7676  -20.3704  -13.4103 C   0  0  1  0  0  0  0  0  0  0  0  0
   27.2683  -21.1441  -12.3015 C   0  0  0  0  0  0  0  0  0  0  0  0
   27.3964  -22.4004  -12.2683 O   0  0  0  0  0  0  0  0  0  0  0  0
   26.5984  -20.6052  -11.1689 N   0  0  0  0  0  0  0  0  0  0  0  0
   26.1824  -21.3729  -10.0140 C   0  0  1  0  0  0  0  0  0  0  0  0
   27.2246  -21.5531   -9.0100 C   0  0  0  0  0  0  0  0  0  0  0  0
   27.3275  -20.4352   -8.0723 C   0  0  0  0  0  0  0  0  0  0  0  0
   26.7622  -19.1696   -8.2977 C   0  0  0  0  0  0  0  0  0  0  0  0
   27.0608  -18.3444   -7.2862 N   0  0  0  0  0  0  0  0  0  0  0  0
   27.8057  -19.0210   -6.3944 C   0  0  0  0  0  0  0  0  0  0  0  0
   28.3442  -18.6568   -5.1942 C   0  0  0  0  0  0  0  0  0  0  0  0
   29.0598  -19.5433   -4.4294 C   0  0  0  0  0  0  0  0  0  0  0  0
   29.2191  -20.8257   -4.9158 C   0  0  0  0  0  0  0  0  0  0  0  0
   28.6801  -21.2117   -6.1316 C   0  0  0  0  0  0  0  0  0  0  0  0
   27.9776  -20.3065   -6.8639 C   0  0  0  0  0  0  0  0  0  0  0  0
   24.9314  -20.8336   -9.4958 C   0  0  0  0  0  0  0  0  0  0  0  0
   24.3807  -19.6704  -10.0753 O   0  0  0  0  0  0  0  0  0  0  0  0
   24.2775  -21.3352   -8.5399 O   0  0  0  0  0  0  0  0  0  0  0  0
  2  1  1  0
  3  2  1  0
  4  3  2  0
  5  3  1  0
  6  5  1  0
  7  8  1  0
  7  6  1  0
  8  9  1  0
  9  5  1  0
  9 10  1  1
 10 11  2  0
 12 10  1  0
 12 13  1  0
 13 14  1  1
 15 14  1  0
 15 16  2  0
 17 16  1  0
 18 17  1  0
 19 18  2  0
 20 19  1  0
 21 20  2  0
 21 22  1  0
 22 23  2  0
 23 18  1  0
 23 15  1  0
 24 25  1  0
 24 13  1  0
 26 24  2  0
M  END
$$$$
