GPW.pdb
     RDKit          3D

 26 28  0  0  1  0  0  0  0  0999 V2000
   29.1410  -21.7042  -18.2453 N   0  0  0  0  0  0  0  0  0  0  0  0
   28.2010  -20.7257  -17.8177 C   0  0  0  0  0  0  0  0  0  0  0  0
   28.1256  -20.4899  -16.3676 C   0  0  0  0  0  0  0  0  0  0  0  0
   28.1437  -21.5767  -15.6698 O   0  0  0  0  0  0  0  0  0  0  0  0
   28.0403  -19.2970  -15.6659 N   0  0  0  0  0  0  0  0  0  0  0  0
   28.7671  -18.0658  -15.8891 C   0  0  0  0  0  0  0  0  0  0  0  0
   27.6158  -17.0294  -15.8180 C   0  0  0  0  0  0  0  0  0  0  0  0
   26.4443  -17.7909  -15.1554 C   0  0  0  0  0  0  0  0  0  0  0  0
   27.1991  -18.9109  -14.5203 C   0  0  1  0  0  0  0  0  0  0  0  0
   26.4527  -19.9707  -13.8903 C   0  0  0  0  0  0  0  0  0  0  0  0
   25.5324  -20.5798  -14.5052 O   0  0  0  0  0  0  0  0  0  0  0  0
   26.6547  -20.4291  -12.5595 N   0  0  0  0  0  0  0  0  0  0  0  0
   25.9314  -21.5223  -11.9448 C   0  0  1  0  0  0  0  0  0  0  0  0
   26.5856  -22.0846  -10.7689 C   0  0  0  0  0  0  0  0  0  0  0  0
   26.5657  -21.1920   -9.6104 C   0  0  0  0  0  0  0  0  0  0  0  0
   25.4506  -20.4278   -9.2298 C   0  0  0  0  0  0  0  0  0  0  0  0
   25.7483  -19.6784   -8.1608 N   0  0  0  0  0  0  0  0  0  0  0  0
   27.0256  -19.9204   -7.8171 C   0  0  0  0  0  0  0  0  0  0  0  0
   27.8026  -19.4413   -6.8024 C   0  0  0  0  0  0  0  0  0  0  0  0
   29.0974  -19.8613   -6.6293 C   0  0  0  0  0  0  0  0  0  0  0  0
   29.5935  -20.7915   -7.5209 C   0  0  0  0  0  0  0  0  0  0  0  0
   28.8192  -21.2876   -8.5563 C   0  0  0  0  0  0  0  0  0  0  0  0
   27.5403  -20.8481   -8.6986 C   0  0  0  0  0  0  0  0  0  0  0  0
   24.5434  -21.1303  -11.7341 C   0  0  0  0  0  0  0  0  0  0  0  0
   23.5361  -22.1187  -11.7096 O   0  0  0  0  0  0  0  0  0  0  0  0
   24.1530  -19.9418  -11.5670 O   0  0  0  0  0  0  0  0  0  0  0  0
  2  1  1  0
  3  2  1  0
  4  3  2  0
  5  3  1  0
  6  5  1  0
  7  8  1  0
  7  6  1  0
  8  9  1  0
  9  5  1  0
  9 10  1  6
 10 11  2  0
 12 10  1  0
 12 13  1  0
 13 14  1  1
 15 14  1  0
 15 16  2  0
 17 16  1  0
 18 17  1  0
 19 18  2  0
 20 19  1  0
 21 20  2  0
 21 22  1  0
 22 23  2  0
 23 18  1  0
 23 15  1  0
 24 25  1  0
 24 13  1  0
 26 24  2  0
M  END
$$$$
