GPW.pdb
     RDKit          3D

 26 28  0  0  1  0  0  0  0  0999 V2000
   27.2171  -17.0704  -16.9054 N   0  0  0  0  0  0  0  0  0  0  0  0
   27.0514  -17.7949  -15.6924 C   0  0  0  0  0  0  0  0  0  0  0  0
   26.3756  -19.0969  -15.8025 C   0  0  0  0  0  0  0  0  0  0  0  0
   25.0875  -19.0052  -15.8305 O   0  0  0  0  0  0  0  0  0  0  0  0
   26.9141  -20.3725  -15.8784 N   0  0  0  0  0  0  0  0  0  0  0  0
   27.9877  -20.8490  -16.7235 C   0  0  0  0  0  0  0  0  0  0  0  0
   28.8425  -21.6347  -15.6955 C   0  0  0  0  0  0  0  0  0  0  0  0
   27.9079  -21.8322  -14.4794 C   0  0  0  0  0  0  0  0  0  0  0  0
   26.5877  -21.6019  -15.1361 C   0  0  1  0  0  0  0  0  0  0  0  0
   25.4088  -21.5541  -14.3083 C   0  0  0  0  0  0  0  0  0  0  0  0
   25.4453  -21.9030  -13.0947 O   0  0  0  0  0  0  0  0  0  0  0  0
   24.1235  -21.1316  -14.7456 N   0  0  0  0  0  0  0  0  0  0  0  0
   22.9607  -21.0090  -13.8918 C   0  0  1  0  0  0  0  0  0  0  0  0
   22.9663  -19.8238  -13.0421 C   0  0  0  0  0  0  0  0  0  0  0  0
   23.9918  -19.8610  -11.9998 C   0  0  0  0  0  0  0  0  0  0  0  0
   25.3121  -19.4196  -12.1844 C   0  0  0  0  0  0  0  0  0  0  0  0
   26.0255  -19.6199  -11.0690 N   0  0  0  0  0  0  0  0  0  0  0  0
   25.2216  -20.1793  -10.1477 C   0  0  0  0  0  0  0  0  0  0  0  0
   25.4426  -20.5582   -8.8551 C   0  0  0  0  0  0  0  0  0  0  0  0
   24.4429  -21.0936   -8.0826 C   0  0  0  0  0  0  0  0  0  0  0  0
   23.1962  -21.2379   -8.6583 C   0  0  0  0  0  0  0  0  0  0  0  0
   22.9548  -20.8593   -9.9684 C   0  0  0  0  0  0  0  0  0  0  0  0
   23.9694  -20.3334  -10.7053 C   0  0  0  0  0  0  0  0  0  0  0  0
   21.7517  -21.1748  -14.6890 C   0  0  0  0  0  0  0  0  0  0  0  0
   20.5108  -21.3613  -14.0427 O   0  0  0  0  0  0  0  0  0  0  0  0
   21.7197  -21.1663  -15.9507 O   0  0  0  0  0  0  0  0  0  0  0  0
  2  1  1  0
  3  2  1  0
  4  3  2  0
  5  3  1  0
  6  5  1  0
  7  8  1  0
  7  6  1  0
  8  9  1  0
  9  5  1  0
  9 10  1  1
 10 11  2  0
 12 10  1  0
 12 13  1  0
 13 14  1  6
 15 14  1  0
 15 16  2  0
 17 16  1  0
 18 17  1  0
 19 18  2  0
 20 19  1  0
 21 20  2  0
 21 22  1  0
 22 23  2  0
 23 18  1  0
 23 15  1  0
 24 25  1  0
 24 13  1  0
 26 24  2  0
M  END
$$$$
