GPW.pdb
     RDKit          3D

 26 28  0  0  1  0  0  0  0  0999 V2000
   22.8848  -16.4225  -17.4157 N   0  0  0  0  0  0  0  0  0  0  0  0
   24.1353  -16.1532  -16.7931 C   0  0  0  0  0  0  0  0  0  0  0  0
   24.9312  -17.3274  -16.4035 C   0  0  0  0  0  0  0  0  0  0  0  0
   24.3333  -18.0924  -15.5517 O   0  0  0  0  0  0  0  0  0  0  0  0
   26.1981  -17.7158  -16.8120 N   0  0  0  0  0  0  0  0  0  0  0  0
   26.7839  -17.6344  -18.1326 C   0  0  0  0  0  0  0  0  0  0  0  0
   28.1707  -17.0251  -17.8005 C   0  0  0  0  0  0  0  0  0  0  0  0
   28.3303  -17.2242  -16.2753 C   0  0  0  0  0  0  0  0  0  0  0  0
   27.3184  -18.2987  -16.0542 C   0  0  1  0  0  0  0  0  0  0  0  0
   27.0320  -18.7034  -14.7009 C   0  0  0  0  0  0  0  0  0  0  0  0
   27.3066  -17.9551  -13.7209 O   0  0  0  0  0  0  0  0  0  0  0  0
   26.4376  -19.9406  -14.3296 N   0  0  0  0  0  0  0  0  0  0  0  0
   26.1641  -20.3485  -12.9677 C   0  0  1  0  0  0  0  0  0  0  0  0
   25.0049  -19.6957  -12.3703 C   0  0  0  0  0  0  0  0  0  0  0  0
   24.6833  -20.1927  -11.0328 C   0  0  0  0  0  0  0  0  0  0  0  0
   25.5780  -20.1640   -9.9507 C   0  0  0  0  0  0  0  0  0  0  0  0
   25.0168  -20.7270   -8.8732 N   0  0  0  0  0  0  0  0  0  0  0  0
   23.7766  -21.1284   -9.2034 C   0  0  0  0  0  0  0  0  0  0  0  0
   22.7900  -21.7301   -8.4770 C   0  0  0  0  0  0  0  0  0  0  0  0
   21.5701  -22.0275   -9.0305 C   0  0  0  0  0  0  0  0  0  0  0  0
   21.3702  -21.6959  -10.3559 C   0  0  0  0  0  0  0  0  0  0  0  0
   22.3605  -21.0858  -11.1075 C   0  0  0  0  0  0  0  0  0  0  0  0
   23.5580  -20.8068  -10.5268 C   0  0  0  0  0  0  0  0  0  0  0  0
   26.1442  -21.8039  -12.8900 C   0  0  0  0  0  0  0  0  0  0  0  0
   26.7495  -22.4516  -11.7917 O   0  0  0  0  0  0  0  0  0  0  0  0
   25.6144  -22.5593  -13.7513 O   0  0  0  0  0  0  0  0  0  0  0  0
  2  1  1  0
  3  2  1  0
  4  3  2  0
  5  3  1  0
  6  5  1  0
  7  8  1  0
  7  6  1  0
  8  9  1  0
  9  5  1  0
  9 10  1  1
 10 11  2  0
 12 10  1  0
 12 13  1  0
 13 14  1  6
 15 14  1  0
 15 16  2  0
 17 16  1  0
 18 17  1  0
 19 18  2  0
 20 19  1  0
 21 20  2  0
 21 22  1  0
 22 23  2  0
 23 18  1  0
 23 15  1  0
 24 25  1  0
 24 13  1  0
 26 24  2  0
M  END
$$$$
