GPW.pdb
     RDKit          3D

 26 28  0  0  1  0  0  0  0  0999 V2000
   27.5928  -22.8894  -17.1417 N   0  0  0  0  0  0  0  0  0  0  0  0
   26.9177  -21.7885  -16.5449 C   0  0  0  0  0  0  0  0  0  0  0  0
   27.3088  -21.4593  -15.1655 C   0  0  0  0  0  0  0  0  0  0  0  0
   27.1600  -22.4430  -14.3417 O   0  0  0  0  0  0  0  0  0  0  0  0
   27.8011  -20.2734  -14.6419 N   0  0  0  0  0  0  0  0  0  0  0  0
   28.7827  -19.3755  -15.2109 C   0  0  0  0  0  0  0  0  0  0  0  0
   28.0817  -18.0076  -15.0058 C   0  0  0  0  0  0  0  0  0  0  0  0
   26.9665  -18.2906  -13.9727 C   0  0  0  0  0  0  0  0  0  0  0  0
   27.4796  -19.5657  -13.3909 C   0  0  1  0  0  0  0  0  0  0  0  0
   26.6478  -20.2748  -12.4516 C   0  0  0  0  0  0  0  0  0  0  0  0
   25.4763  -20.6364  -12.7561 O   0  0  0  0  0  0  0  0  0  0  0  0
   27.0323  -20.6289  -11.1292 N   0  0  0  0  0  0  0  0  0  0  0  0
   26.1972  -21.3511  -10.1927 C   0  0  1  0  0  0  0  0  0  0  0  0
   26.8854  -21.7655   -8.9756 C   0  0  0  0  0  0  0  0  0  0  0  0
   27.1529  -20.6611   -8.0546 C   0  0  0  0  0  0  0  0  0  0  0  0
   26.6337  -19.3660   -8.2134 C   0  0  0  0  0  0  0  0  0  0  0  0
   27.0882  -18.5646   -7.2416 N   0  0  0  0  0  0  0  0  0  0  0  0
   27.8923  -19.2855   -6.4406 C   0  0  0  0  0  0  0  0  0  0  0  0
   28.5817  -18.9585   -5.3089 C   0  0  0  0  0  0  0  0  0  0  0  0
   29.3313  -19.8866   -4.6309 C   0  0  0  0  0  0  0  0  0  0  0  0
   29.3662  -21.1722   -5.1333 C   0  0  0  0  0  0  0  0  0  0  0  0
   28.6733  -21.5210   -6.2805 C   0  0  0  0  0  0  0  0  0  0  0  0
   27.9415  -20.5751   -6.9276 C   0  0  0  0  0  0  0  0  0  0  0  0
   24.9644  -20.6073   -9.9659 C   0  0  0  0  0  0  0  0  0  0  0  0
   23.8032  -21.2930   -9.5493 O   0  0  0  0  0  0  0  0  0  0  0  0
   24.8431  -19.3600  -10.1165 O   0  0  0  0  0  0  0  0  0  0  0  0
  2  1  1  0
  3  2  1  0
  4  3  2  0
  5  3  1  0
  6  5  1  0
  7  8  1  0
  7  6  1  0
  8  9  1  0
  9  5  1  0
  9 10  1  6
 10 11  2  0
 12 10  1  0
 12 13  1  0
 13 14  1  1
 15 14  1  0
 15 16  2  0
 17 16  1  0
 18 17  1  0
 19 18  2  0
 20 19  1  0
 21 20  2  0
 21 22  1  0
 22 23  2  0
 23 18  1  0
 23 15  1  0
 24 25  1  0
 24 13  1  0
 26 24  2  0
M  END
$$$$
