GPW.pdb
     RDKit          3D

 26 28  0  0  1  0  0  0  0  0999 V2000
   28.5916  -22.8127  -17.3363 N   0  0  0  0  0  0  0  0  0  0  0  0
   27.7552  -21.7425  -16.9133 C   0  0  0  0  0  0  0  0  0  0  0  0
   27.8708  -21.3494  -15.5004 C   0  0  0  0  0  0  0  0  0  0  0  0
   27.7060  -22.3328  -14.6795 O   0  0  0  0  0  0  0  0  0  0  0  0
   28.1251  -20.1051  -14.9437 N   0  0  0  0  0  0  0  0  0  0  0  0
   28.9851  -19.0533  -15.4415 C   0  0  0  0  0  0  0  0  0  0  0  0
   28.0579  -17.8198  -15.2880 C   0  0  0  0  0  0  0  0  0  0  0  0
   26.9334  -18.2918  -14.3371 C   0  0  0  0  0  0  0  0  0  0  0  0
   27.6049  -19.4728  -13.7194 C   0  0  1  0  0  0  0  0  0  0  0  0
   26.8354  -20.3181  -12.8415 C   0  0  0  0  0  0  0  0  0  0  0  0
   25.7717  -20.8753  -13.2341 O   0  0  0  0  0  0  0  0  0  0  0  0
   27.1684  -20.6052  -11.4893 N   0  0  0  0  0  0  0  0  0  0  0  0
   26.3587  -21.4017  -10.5915 C   0  0  1  0  0  0  0  0  0  0  0  0
   27.0544  -21.8343   -9.3850 C   0  0  0  0  0  0  0  0  0  0  0  0
   27.1326  -20.7977   -8.3561 C   0  0  0  0  0  0  0  0  0  0  0  0
   26.3101  -19.6598   -8.3270 C   0  0  0  0  0  0  0  0  0  0  0  0
   26.6453  -18.8748   -7.2953 N   0  0  0  0  0  0  0  0  0  0  0  0
   27.6638  -19.4546   -6.6362 C   0  0  0  0  0  0  0  0  0  0  0  0
   28.3524  -19.0858   -5.5169 C   0  0  0  0  0  0  0  0  0  0  0  0
   29.3564  -19.8663   -5.0013 C   0  0  0  0  0  0  0  0  0  0  0  0
   29.6502  -21.0463   -5.6554 C   0  0  0  0  0  0  0  0  0  0  0  0
   28.9620  -21.4354   -6.7924 C   0  0  0  0  0  0  0  0  0  0  0  0
   27.9737  -20.6365   -7.2764 C   0  0  0  0  0  0  0  0  0  0  0  0
   25.0916  -20.7237  -10.3477 C   0  0  0  0  0  0  0  0  0  0  0  0
   23.9565  -21.4784   -9.9815 O   0  0  0  0  0  0  0  0  0  0  0  0
   24.9177  -19.4771  -10.4405 O   0  0  0  0  0  0  0  0  0  0  0  0
  2  1  1  0
  3  2  1  0
  4  3  2  0
  5  3  1  0
  6  5  1  0
  7  8  1  0
  7  6  1  0
  8  9  1  0
  9  5  1  0
  9 10  1  6
 10 11  2  0
 12 10  1  0
 12 13  1  0
 13 14  1  1
 15 14  1  0
 15 16  2  0
 17 16  1  0
 18 17  1  0
 19 18  2  0
 20 19  1  0
 21 20  2  0
 21 22  1  0
 22 23  2  0
 23 18  1  0
 23 15  1  0
 24 25  1  0
 24 13  1  0
 26 24  2  0
M  END
$$$$
