GPW.pdb
     RDKit          3D

 26 28  0  0  1  0  0  0  0  0999 V2000
   29.3376  -19.7609  -18.5501 N   0  0  0  0  0  0  0  0  0  0  0  0
   28.2215  -18.9659  -18.1678 C   0  0  0  0  0  0  0  0  0  0  0  0
   27.8076  -19.0650  -16.7596 C   0  0  0  0  0  0  0  0  0  0  0  0
   28.0075  -20.2338  -16.2474 O   0  0  0  0  0  0  0  0  0  0  0  0
   27.2486  -18.1051  -15.9295 N   0  0  0  0  0  0  0  0  0  0  0  0
   27.5711  -16.6978  -15.8337 C   0  0  0  0  0  0  0  0  0  0  0  0
   26.1527  -16.0711  -15.8455 C   0  0  0  0  0  0  0  0  0  0  0  0
   25.2014  -17.2504  -15.5363 C   0  0  0  0  0  0  0  0  0  0  0  0
   26.1736  -18.2055  -14.9278 C   0  0  1  0  0  0  0  0  0  0  0  0
   25.7201  -19.5358  -14.6088 C   0  0  0  0  0  0  0  0  0  0  0  0
   25.6101  -20.4227  -15.5016 O   0  0  0  0  0  0  0  0  0  0  0  0
   25.3553  -19.9817  -13.3087 N   0  0  0  0  0  0  0  0  0  0  0  0
   24.9202  -21.3251  -12.9893 C   0  0  1  0  0  0  0  0  0  0  0  0
   25.7913  -22.0284  -12.0546 C   0  0  0  0  0  0  0  0  0  0  0  0
   25.6952  -21.5293  -10.6831 C   0  0  0  0  0  0  0  0  0  0  0  0
   24.8232  -22.0570   -9.7171 C   0  0  0  0  0  0  0  0  0  0  0  0
   24.9295  -21.3677   -8.5741 N   0  0  0  0  0  0  0  0  0  0  0  0
   25.8453  -20.3987   -8.7483 C   0  0  0  0  0  0  0  0  0  0  0  0
   26.3377  -19.4475   -7.9022 C   0  0  0  0  0  0  0  0  0  0  0  0
   27.3088  -18.5641   -8.3016 C   0  0  0  0  0  0  0  0  0  0  0  0
   27.7764  -18.6688   -9.5965 C   0  0  0  0  0  0  0  0  0  0  0  0
   27.2876  -19.6275  -10.4682 C   0  0  0  0  0  0  0  0  0  0  0  0
   26.3242  -20.4858  -10.0389 C   0  0  0  0  0  0  0  0  0  0  0  0
   23.5144  -21.3032  -12.6049 C   0  0  0  0  0  0  0  0  0  0  0  0
   22.7146  -22.4457  -12.8220 O   0  0  0  0  0  0  0  0  0  0  0  0
   22.9321  -20.3154  -12.0775 O   0  0  0  0  0  0  0  0  0  0  0  0
  2  1  1  0
  3  2  1  0
  4  3  2  0
  5  3  1  0
  6  5  1  0
  7  8  1  0
  7  6  1  0
  8  9  1  0
  9  5  1  0
  9 10  1  6
 10 11  2  0
 12 10  1  0
 12 13  1  0
 13 14  1  1
 15 14  1  0
 15 16  2  0
 17 16  1  0
 18 17  1  0
 19 18  2  0
 20 19  1  0
 21 20  2  0
 21 22  1  0
 22 23  2  0
 23 18  1  0
 23 15  1  0
 24 25  1  0
 24 13  1  0
 26 24  2  0
M  END
$$$$
