TVN.pdb
     RDKit          3D

 23 22  0  0  1  0  0  0  0  0999 V2000
    6.2553  -14.3417   18.9250 C   0  0  0  0  0  0  0  0  0  0  0  0
    6.9700  -14.5017   20.2469 C   0  0  1  0  0  0  0  0  0  0  0  0
    8.1356  -15.2457   19.9981 O   0  0  0  0  0  0  0  0  0  0  0  0
    7.3684  -13.1871   20.8525 C   0  0  2  0  0  0  0  0  0  0  0  0
    8.0610  -12.3990   19.8668 N   0  0  0  0  0  0  0  0  0  0  0  0
    8.1069  -13.3130   22.1118 C   0  0  0  0  0  0  0  0  0  0  0  0
    9.3611  -13.3002   22.1574 O   0  0  0  0  0  0  0  0  0  0  0  0
    6.8922  -11.7198   25.7406 C   0  0  0  0  0  0  0  0  0  0  0  0
    7.1641  -13.1890   25.7637 C   0  0  1  0  0  0  0  0  0  0  0  0
    5.8421  -13.9210   25.7568 C   0  0  0  0  0  0  0  0  0  0  0  0
    8.0471  -13.6313   24.6167 C   0  0  2  0  0  0  0  0  0  0  0  0
    7.4045  -13.4562   23.3405 N   0  0  0  0  0  0  0  0  0  0  0  0
    8.4307  -15.0463   24.8618 C   0  0  0  0  0  0  0  0  0  0  0  0
    7.7096  -15.9276   24.3268 O   0  0  0  0  0  0  0  0  0  0  0  0
   10.8364  -19.4540   25.7593 N   0  0  0  0  0  0  0  0  0  0  0  0
   11.6960  -18.4793   25.1978 C   0  0  0  0  0  0  0  0  0  0  0  0
   12.7919  -18.8475   24.7265 O   0  0  0  0  0  0  0  0  0  0  0  0
   11.3251  -17.0515   25.1594 C   0  0  0  0  0  0  0  0  0  0  0  0
    9.9199  -16.8431   25.6815 C   0  0  2  0  0  0  0  0  0  0  0  0
    9.5282  -15.4553   25.6394 N   0  0  0  0  0  0  0  0  0  0  0  0
    9.8682  -17.3032   27.0864 C   0  0  0  0  0  0  0  0  0  0  0  0
    9.6657  -16.4679   28.0100 O   0  0  0  0  0  0  0  0  0  0  0  0
   10.0430  -18.6458   27.3716 O   0  0  0  0  0  0  0  0  0  0  0  0
  2  3  1  0
  2  1  1  6
  4  2  1  0
  4  5  1  6
  6 12  1  0
  6  4  1  0
  7  6  2  0
  9  8  1  6
  9 11  1  0
 10  9  1  0
 11 12  1  6
 11 13  1  0
 13 20  1  0
 14 13  2  0
 16 15  1  0
 17 16  2  0
 18 16  1  0
 19 21  1  0
 19 18  1  1
 20 19  1  0
 21 23  1  0
 22 21  2  0
M  END
$$$$
