TVN.pdb
     RDKit          3D

 23 22  0  0  1  0  0  0  0  0999 V2000
    6.0806  -17.3175   21.0147 C   0  0  0  0  0  0  0  0  0  0  0  0
    6.8085  -16.5858   22.1186 C   0  0  1  0  0  0  0  0  0  0  0  0
    8.0123  -17.2738   22.3455 O   0  0  0  0  0  0  0  0  0  0  0  0
    7.1362  -15.1668   21.7543 C   0  0  2  0  0  0  0  0  0  0  0  0
    7.7789  -15.1419   20.4665 N   0  0  0  0  0  0  0  0  0  0  0  0
    7.8869  -14.4471   22.7866 C   0  0  0  0  0  0  0  0  0  0  0  0
    9.1341  -14.3152   22.7390 O   0  0  0  0  0  0  0  0  0  0  0  0
    5.9740  -13.6077   26.5779 C   0  0  0  0  0  0  0  0  0  0  0  0
    6.8844  -12.5958   25.9615 C   0  0  1  0  0  0  0  0  0  0  0  0
    7.5953  -11.8533   27.0690 C   0  0  0  0  0  0  0  0  0  0  0  0
    7.8674  -13.2172   24.9926 C   0  0  2  0  0  0  0  0  0  0  0  0
    7.2050  -13.8677   23.8925 N   0  0  0  0  0  0  0  0  0  0  0  0
    8.7285  -14.1535   25.7614 C   0  0  0  0  0  0  0  0  0  0  0  0
    9.2205  -13.7168   26.8339 O   0  0  0  0  0  0  0  0  0  0  0  0
   11.1001  -18.1346   27.8796 N   0  0  0  0  0  0  0  0  0  0  0  0
    9.8777  -17.5891   28.3409 C   0  0  0  0  0  0  0  0  0  0  0  0
    9.4325  -17.9661   29.4447 O   0  0  0  0  0  0  0  0  0  0  0  0
    9.1280  -16.5940   27.5503 C   0  0  0  0  0  0  0  0  0  0  0  0
    9.8115  -16.3282   26.2264 C   0  0  2  0  0  0  0  0  0  0  0  0
    9.0231  -15.4724   25.3736 N   0  0  0  0  0  0  0  0  0  0  0  0
   10.0152  -17.6203   25.5357 C   0  0  0  0  0  0  0  0  0  0  0  0
    9.3548  -17.8819   24.4931 O   0  0  0  0  0  0  0  0  0  0  0  0
   10.9286  -18.5280   26.0419 O   0  0  0  0  0  0  0  0  0  0  0  0
  2  3  1  0
  2  1  1  6
  4  2  1  0
  4  5  1  6
  6 12  1  0
  6  4  1  0
  7  6  2  0
  9  8  1  1
  9 11  1  0
 10  9  1  0
 11 12  1  6
 11 13  1  0
 13 20  1  0
 14 13  2  0
 16 15  1  0
 17 16  2  0
 18 16  1  0
 19 21  1  0
 19 18  1  1
 20 19  1  0
 21 23  1  0
 22 21  2  0
M  END
$$$$
