TVN.pdb
     RDKit          3D

 23 22  0  0  1  0  0  0  0  0999 V2000
    8.3962  -18.2632   14.1412 C   0  0  0  0  0  0  0  0  0  0  0  0
    8.9979  -17.3913   15.2189 C   0  0  1  0  0  0  0  0  0  0  0  0
   10.3812  -17.6373   15.2239 O   0  0  0  0  0  0  0  0  0  0  0  0
    8.7788  -15.9274   14.9686 C   0  0  2  0  0  0  0  0  0  0  0  0
    9.1916  -15.6064   13.6274 N   0  0  0  0  0  0  0  0  0  0  0  0
    9.3809  -15.0554   15.9807 C   0  0  0  0  0  0  0  0  0  0  0  0
   10.4848  -14.4853   15.8031 O   0  0  0  0  0  0  0  0  0  0  0  0
    8.8134  -13.0030   20.5181 C   0  0  0  0  0  0  0  0  0  0  0  0
    8.2233  -13.6766   19.3219 C   0  0  1  0  0  0  0  0  0  0  0  0
    7.1812  -12.7613   18.7221 C   0  0  0  0  0  0  0  0  0  0  0  0
    9.2717  -14.0648   18.3015 C   0  0  2  0  0  0  0  0  0  0  0  0
    8.7139  -14.8292   17.2167 N   0  0  0  0  0  0  0  0  0  0  0  0
   10.3446  -14.8051   19.0156 C   0  0  0  0  0  0  0  0  0  0  0  0
   10.2187  -16.0551   19.0842 O   0  0  0  0  0  0  0  0  0  0  0  0
   15.0512  -16.2797   20.3814 N   0  0  0  0  0  0  0  0  0  0  0  0
   15.1316  -14.9432   19.9211 C   0  0  0  0  0  0  0  0  0  0  0  0
   16.2594  -14.4382   19.7427 O   0  0  0  0  0  0  0  0  0  0  0  0
   13.9207  -14.1445   19.6507 C   0  0  0  0  0  0  0  0  0  0  0  0
   12.6703  -14.9760   19.8401 C   0  0  2  0  0  0  0  0  0  0  0  0
   11.4709  -14.2085   19.6089 N   0  0  0  0  0  0  0  0  0  0  0  0
   12.6462  -15.4769   21.2317 C   0  0  0  0  0  0  0  0  0  0  0  0
   13.4847  -16.3458   21.5973 O   0  0  0  0  0  0  0  0  0  0  0  0
   11.7029  -14.9863   22.1172 O   0  0  0  0  0  0  0  0  0  0  0  0
  2  3  1  0
  2  1  1  6
  4  2  1  0
  4  5  1  6
  6 12  1  0
  6  4  1  0
  7  6  2  0
  9  8  1  1
  9 11  1  0
 10  9  1  0
 11 12  1  6
 11 13  1  0
 13 20  1  0
 14 13  2  0
 16 15  1  0
 17 16  2  0
 18 16  1  0
 19 21  1  0
 19 18  1  1
 20 19  1  0
 21 23  1  0
 22 21  2  0
M  END
$$$$
