TVN.pdb
     RDKit          3D

 23 22  0  0  1  0  0  0  0  0999 V2000
    7.6488  -19.0279   19.0634 C   0  0  0  0  0  0  0  0  0  0  0  0
    8.3666  -18.7605   17.7607 C   0  0  1  0  0  0  0  0  0  0  0  0
    7.7197  -19.5184   16.7702 O   0  0  0  0  0  0  0  0  0  0  0  0
    8.3165  -17.3151   17.3582 C   0  0  2  0  0  0  0  0  0  0  0  0
    8.8363  -17.1740   16.0232 N   0  0  0  0  0  0  0  0  0  0  0  0
    8.9478  -16.4085   18.3209 C   0  0  0  0  0  0  0  0  0  0  0  0
   10.1918  -16.3607   18.4801 O   0  0  0  0  0  0  0  0  0  0  0  0
    6.3665  -14.3338   21.1201 C   0  0  0  0  0  0  0  0  0  0  0  0
    7.6605  -13.7253   20.6861 C   0  0  1  0  0  0  0  0  0  0  0  0
    8.2137  -12.9088   21.8310 C   0  0  0  0  0  0  0  0  0  0  0  0
    8.6571  -14.7623   20.2142 C   0  0  2  0  0  0  0  0  0  0  0  0
    8.1481  -15.5415   19.1161 N   0  0  0  0  0  0  0  0  0  0  0  0
    9.0164  -15.6078   21.3826 C   0  0  0  0  0  0  0  0  0  0  0  0
    8.2602  -16.5830   21.6278 O   0  0  0  0  0  0  0  0  0  0  0  0
   12.5179  -18.5990   22.6133 N   0  0  0  0  0  0  0  0  0  0  0  0
   12.5045  -17.1834   22.5922 C   0  0  0  0  0  0  0  0  0  0  0  0
   13.0725  -16.5932   21.6500 O   0  0  0  0  0  0  0  0  0  0  0  0
   11.8389  -16.4007   23.6514 C   0  0  0  0  0  0  0  0  0  0  0  0
   10.3626  -16.2401   23.3590 C   0  0  2  0  0  0  0  0  0  0  0  0
   10.1274  -15.3912   22.2165 N   0  0  0  0  0  0  0  0  0  0  0  0
    9.7142  -15.6286   24.5397 C   0  0  0  0  0  0  0  0  0  0  0  0
    8.7880  -16.2463   25.1332 O   0  0  0  0  0  0  0  0  0  0  0  0
   10.1315  -14.3849   24.9796 O   0  0  0  0  0  0  0  0  0  0  0  0
  2  3  1  0
  2  1  1  1
  4  2  1  0
  4  5  1  6
  6 12  1  0
  6  4  1  0
  7  6  2  0
  9  8  1  1
  9 11  1  0
 10  9  1  0
 11 12  1  6
 11 13  1  0
 13 20  1  0
 14 13  2  0
 16 15  1  0
 17 16  2  0
 18 16  1  0
 19 21  1  0
 19 18  1  1
 20 19  1  0
 21 23  1  0
 22 21  2  0
M  END
$$$$
