TVN.pdb
     RDKit          3D

 23 22  0  0  1  0  0  0  0  0999 V2000
   11.3139  -17.8117   17.1732 C   0  0  0  0  0  0  0  0  0  0  0  0
    9.8293  -17.5978   17.3584 C   0  0  1  0  0  0  0  0  0  0  0  0
    9.1738  -18.6141   16.6432 O   0  0  0  0  0  0  0  0  0  0  0  0
    9.4071  -17.6837   18.7964 C   0  0  2  0  0  0  0  0  0  0  0  0
    8.0048  -18.0023   18.8630 N   0  0  0  0  0  0  0  0  0  0  0  0
    9.7689  -16.5080   19.5926 C   0  0  0  0  0  0  0  0  0  0  0  0
   10.9620  -16.1663   19.7792 O   0  0  0  0  0  0  0  0  0  0  0  0
    7.5813  -13.0668   19.6915 C   0  0  0  0  0  0  0  0  0  0  0  0
    7.8826  -13.5906   21.0583 C   0  0  1  0  0  0  0  0  0  0  0  0
    6.6192  -14.1903   21.6306 C   0  0  0  0  0  0  0  0  0  0  0  0
    9.0182  -14.5913   21.0562 C   0  0  2  0  0  0  0  0  0  0  0  0
    8.7539  -15.7078   20.1868 N   0  0  0  0  0  0  0  0  0  0  0  0
    9.2473  -15.0171   22.4617 C   0  0  0  0  0  0  0  0  0  0  0  0
    9.4726  -14.1049   23.2985 O   0  0  0  0  0  0  0  0  0  0  0  0
    5.9593  -17.5495   23.8379 N   0  0  0  0  0  0  0  0  0  0  0  0
    6.9541  -17.0367   24.7050 C   0  0  0  0  0  0  0  0  0  0  0  0
    6.6746  -16.0535   25.4219 O   0  0  0  0  0  0  0  0  0  0  0  0
    8.3007  -17.6360   24.7768 C   0  0  0  0  0  0  0  0  0  0  0  0
    9.3553  -16.6548   24.3123 C   0  0  2  0  0  0  0  0  0  0  0  0
    9.2287  -16.3502   22.9078 N   0  0  0  0  0  0  0  0  0  0  0  0
   10.6879  -17.2533   24.5446 C   0  0  0  0  0  0  0  0  0  0  0  0
   11.0156  -17.6156   25.7078 O   0  0  0  0  0  0  0  0  0  0  0  0
   11.5607  -17.4087   23.4822 O   0  0  0  0  0  0  0  0  0  0  0  0
  2  3  1  0
  2  1  1  1
  4  2  1  0
  4  5  1  6
  6 12  1  0
  6  4  1  0
  7  6  2  0
  9  8  1  6
  9 11  1  0
 10  9  1  0
 11 12  1  6
 11 13  1  0
 13 20  1  0
 14 13  2  0
 16 15  1  0
 17 16  2  0
 18 16  1  0
 19 21  1  0
 19 18  1  6
 20 19  1  0
 21 23  1  0
 22 21  2  0
M  END
$$$$
