TVN.pdb
     RDKit          3D

 23 22  0  0  1  0  0  0  0  0999 V2000
    8.3404  -14.3413   20.3181 C   0  0  0  0  0  0  0  0  0  0  0  0
    7.2231  -14.9657   21.1217 C   0  0  1  0  0  0  0  0  0  0  0  0
    6.6927  -16.0112   20.3473 O   0  0  0  0  0  0  0  0  0  0  0  0
    7.6979  -15.5372   22.4261 C   0  0  2  0  0  0  0  0  0  0  0  0
    6.6162  -16.2475   23.0569 N   0  0  0  0  0  0  0  0  0  0  0  0
    8.3337  -14.5550   23.3083 C   0  0  0  0  0  0  0  0  0  0  0  0
    9.4245  -14.0042   23.0220 O   0  0  0  0  0  0  0  0  0  0  0  0
    5.9650  -12.4155   25.7075 C   0  0  0  0  0  0  0  0  0  0  0  0
    7.2575  -12.6809   26.4090 C   0  0  1  0  0  0  0  0  0  0  0  0
    6.9829  -13.5714   27.5986 C   0  0  0  0  0  0  0  0  0  0  0  0
    8.2984  -13.2875   25.4927 C   0  0  2  0  0  0  0  0  0  0  0  0
    7.7162  -14.1941   24.5379 N   0  0  0  0  0  0  0  0  0  0  0  0
    9.3192  -13.9507   26.3455 C   0  0  0  0  0  0  0  0  0  0  0  0
    9.6718  -13.3364   27.3853 O   0  0  0  0  0  0  0  0  0  0  0  0
   11.9715  -17.2921   29.0776 N   0  0  0  0  0  0  0  0  0  0  0  0
   10.6219  -16.9336   29.3110 C   0  0  0  0  0  0  0  0  0  0  0  0
   10.0860  -17.2841   30.3827 O   0  0  0  0  0  0  0  0  0  0  0  0
    9.8450  -16.1617   28.3221 C   0  0  0  0  0  0  0  0  0  0  0  0
   10.6669  -15.8902   27.0805 C   0  0  2  0  0  0  0  0  0  0  0  0
    9.9055  -15.1983   26.0692 N   0  0  0  0  0  0  0  0  0  0  0  0
   11.1188  -17.1844   26.5246 C   0  0  0  0  0  0  0  0  0  0  0  0
   10.6861  -17.5675   25.4032 O   0  0  0  0  0  0  0  0  0  0  0  0
   12.0116  -17.9607   27.2422 O   0  0  0  0  0  0  0  0  0  0  0  0
  2  3  1  0
  2  1  1  6
  4  2  1  0
  4  5  1  1
  6 12  1  0
  6  4  1  0
  7  6  2  0
  9  8  1  6
  9 11  1  0
 10  9  1  0
 11 12  1  6
 11 13  1  0
 13 20  1  0
 14 13  2  0
 16 15  1  0
 17 16  2  0
 18 16  1  0
 19 21  1  0
 19 18  1  1
 20 19  1  0
 21 23  1  0
 22 21  2  0
M  END
$$$$
