TVN.pdb
     RDKit          3D

 23 22  0  0  1  0  0  0  0  0999 V2000
    7.8706  -16.0860   19.2736 C   0  0  0  0  0  0  0  0  0  0  0  0
    8.3967  -15.3973   20.5117 C   0  0  1  0  0  0  0  0  0  0  0  0
    7.7677  -14.1431   20.5846 O   0  0  0  0  0  0  0  0  0  0  0  0
    8.0885  -16.1548   21.7706 C   0  0  2  0  0  0  0  0  0  0  0  0
    6.6788  -16.4416   21.8210 N   0  0  0  0  0  0  0  0  0  0  0  0
    8.5892  -15.5114   22.9882 C   0  0  0  0  0  0  0  0  0  0  0  0
    9.8147  -15.4229   23.2440 O   0  0  0  0  0  0  0  0  0  0  0  0
    7.3648  -12.7587   26.9841 C   0  0  0  0  0  0  0  0  0  0  0  0
    6.9549  -13.4662   25.7333 C   0  0  1  0  0  0  0  0  0  0  0  0
    6.4332  -12.4418   24.7525 C   0  0  0  0  0  0  0  0  0  0  0  0
    8.0813  -14.2813   25.1349 C   0  0  2  0  0  0  0  0  0  0  0  0
    7.6779  -14.9593   23.9308 N   0  0  0  0  0  0  0  0  0  0  0  0
    8.5580  -15.2268   26.1780 C   0  0  0  0  0  0  0  0  0  0  0  0
    7.7481  -16.1163   26.5465 O   0  0  0  0  0  0  0  0  0  0  0  0
   13.1421  -17.7073   28.8815 N   0  0  0  0  0  0  0  0  0  0  0  0
   12.1085  -17.9274   27.9393 C   0  0  0  0  0  0  0  0  0  0  0  0
   11.6075  -19.0679   27.8555 O   0  0  0  0  0  0  0  0  0  0  0  0
   11.6171  -16.8458   27.0640 C   0  0  0  0  0  0  0  0  0  0  0  0
   10.3009  -16.2959   27.5699 C   0  0  2  0  0  0  0  0  0  0  0  0
    9.8333  -15.1911   26.7686 N   0  0  0  0  0  0  0  0  0  0  0  0
   10.4930  -15.8211   28.9577 C   0  0  0  0  0  0  0  0  0  0  0  0
   10.4018  -16.6375   29.9152 O   0  0  0  0  0  0  0  0  0  0  0  0
   10.7706  -14.4856   29.1896 O   0  0  0  0  0  0  0  0  0  0  0  0
  2  3  1  0
  2  1  1  6
  4  2  1  0
  4  5  1  1
  6 12  1  0
  6  4  1  0
  7  6  2  0
  9  8  1  1
  9 11  1  0
 10  9  1  0
 11 12  1  6
 11 13  1  0
 13 20  1  0
 14 13  2  0
 16 15  1  0
 17 16  2  0
 18 16  1  0
 19 21  1  0
 19 18  1  6
 20 19  1  0
 21 23  1  0
 22 21  2  0
M  END
$$$$
