TVN.pdb
     RDKit          3D

 23 22  0  0  1  0  0  0  0  0999 V2000
    9.7311  -16.3066   20.4926 C   0  0  0  0  0  0  0  0  0  0  0  0
    8.4802  -15.4591   20.5224 C   0  0  1  0  0  0  0  0  0  0  0  0
    7.7020  -15.8334   19.4141 O   0  0  0  0  0  0  0  0  0  0  0  0
    7.6661  -15.6723   21.7656 C   0  0  2  0  0  0  0  0  0  0  0  0
    6.3348  -15.1665   21.5558 N   0  0  0  0  0  0  0  0  0  0  0  0
    8.2944  -15.1525   22.9831 C   0  0  0  0  0  0  0  0  0  0  0  0
    9.4700  -15.4473   23.3089 O   0  0  0  0  0  0  0  0  0  0  0  0
    5.8880  -13.1481   26.0063 C   0  0  0  0  0  0  0  0  0  0  0  0
    7.2214  -12.6095   25.6002 C   0  0  1  0  0  0  0  0  0  0  0  0
    7.8510  -11.9363   26.7976 C   0  0  0  0  0  0  0  0  0  0  0  0
    8.1266  -13.6792   25.0277 C   0  0  2  0  0  0  0  0  0  0  0  0
    7.5708  -14.2818   23.8444 N   0  0  0  0  0  0  0  0  0  0  0  0
    8.3796  -14.6775   26.0994 C   0  0  0  0  0  0  0  0  0  0  0  0
    7.4392  -15.4694   26.3670 O   0  0  0  0  0  0  0  0  0  0  0  0
   10.7271  -18.3953   28.6644 N   0  0  0  0  0  0  0  0  0  0  0  0
   11.3613  -18.0268   27.4534 C   0  0  0  0  0  0  0  0  0  0  0  0
   12.2481  -18.7737   26.9904 O   0  0  0  0  0  0  0  0  0  0  0  0
   10.9977  -16.7898   26.7357 C   0  0  0  0  0  0  0  0  0  0  0  0
    9.9247  -16.0265   27.4818 C   0  0  2  0  0  0  0  0  0  0  0  0
    9.5812  -14.7914   26.8203 N   0  0  0  0  0  0  0  0  0  0  0  0
   10.4296  -15.7095   28.8356 C   0  0  0  0  0  0  0  0  0  0  0  0
   10.7554  -16.6459   29.6157 O   0  0  0  0  0  0  0  0  0  0  0  0
   10.5384  -14.3880   29.2311 O   0  0  0  0  0  0  0  0  0  0  0  0
  2  3  1  0
  2  1  1  1
  4  2  1  0
  4  5  1  6
  6 12  1  0
  6  4  1  0
  7  6  2  0
  9  8  1  1
  9 11  1  0
 10  9  1  0
 11 12  1  6
 11 13  1  0
 13 20  1  0
 14 13  2  0
 16 15  1  0
 17 16  2  0
 18 16  1  0
 19 21  1  0
 19 18  1  6
 20 19  1  0
 21 23  1  0
 22 21  2  0
M  END
$$$$
