GQN.pdb
     RDKit          3D

 22 21  0  0  1  0  0  0  0  0999 V2000
    7.1444  -19.5567   17.1373 N   0  0  0  0  0  0  0  0  0  0  0  0
    6.9727  -19.2347   18.5488 C   0  0  0  0  0  0  0  0  0  0  0  0
    7.7278  -17.9981   18.8783 C   0  0  0  0  0  0  0  0  0  0  0  0
    8.7958  -17.6632   18.3342 O   0  0  0  0  0  0  0  0  0  0  0  0
    8.8383  -11.8497   20.5195 N   0  0  0  0  0  0  0  0  0  0  0  0
    8.1045  -13.0467   20.3035 C   0  0  0  0  0  0  0  0  0  0  0  0
    7.7867  -13.4457   19.1720 O   0  0  0  0  0  0  0  0  0  0  0  0
    7.7078  -13.8442   21.4906 C   0  0  0  0  0  0  0  0  0  0  0  0
    6.9179  -15.0884   21.0618 C   0  0  0  0  0  0  0  0  0  0  0  0
    7.9219  -16.0354   20.4461 C   0  0  2  0  0  0  0  0  0  0  0  0
    7.2007  -17.1408   19.8775 N   0  0  0  0  0  0  0  0  0  0  0  0
    8.9637  -16.4551   21.4063 C   0  0  0  0  0  0  0  0  0  0  0  0
    8.7358  -17.3126   22.2892 O   0  0  0  0  0  0  0  0  0  0  0  0
   13.8782  -17.5334   23.1593 N   0  0  0  0  0  0  0  0  0  0  0  0
   13.7588  -16.1674   22.7669 C   0  0  0  0  0  0  0  0  0  0  0  0
   14.6374  -15.3767   23.1722 O   0  0  0  0  0  0  0  0  0  0  0  0
   12.6233  -15.7699   21.9179 C   0  0  0  0  0  0  0  0  0  0  0  0
   11.3056  -16.3549   22.2597 C   0  0  2  0  0  0  0  0  0  0  0  0
   10.2523  -15.8842   21.3394 N   0  0  0  0  0  0  0  0  0  0  0  0
   10.8635  -16.1096   23.6659 C   0  0  0  0  0  0  0  0  0  0  0  0
   11.2266  -17.0579   24.6289 O   0  0  0  0  0  0  0  0  0  0  0  0
   10.2067  -15.1474   24.0694 O   0  0  0  0  0  0  0  0  0  0  0  0
  2  1  1  0
  2  3  1  0
  3  4  2  0
  3 11  1  0
  6  5  1  0
  6  7  2  0
  8  6  1  0
  9  8  1  0
 10 12  1  0
 10  9  1  1
 11 10  1  0
 12 13  2  0
 15 14  1  0
 16 15  2  0
 17 15  1  0
 18 17  1  6
 19 12  1  0
 19 18  1  0
 20 21  1  0
 20 18  1  0
 22 20  2  0
M  END
$$$$
