GQN.pdb
     RDKit          3D

 22 21  0  0  1  0  0  0  0  0999 V2000
    8.7768  -16.6654   19.3375 N   0  0  0  0  0  0  0  0  0  0  0  0
    7.8135  -16.3957   20.3981 C   0  0  0  0  0  0  0  0  0  0  0  0
    8.5108  -15.8188   21.5766 C   0  0  0  0  0  0  0  0  0  0  0  0
    9.7473  -15.7909   21.7148 O   0  0  0  0  0  0  0  0  0  0  0  0
    5.5415  -12.5284   26.1318 N   0  0  0  0  0  0  0  0  0  0  0  0
    6.9106  -12.4788   26.5070 C   0  0  0  0  0  0  0  0  0  0  0  0
    7.3356  -11.7329   27.4034 O   0  0  0  0  0  0  0  0  0  0  0  0
    7.8623  -13.3622   25.7882 C   0  0  0  0  0  0  0  0  0  0  0  0
    7.1859  -13.9978   24.5657 C   0  0  0  0  0  0  0  0  0  0  0  0
    8.2481  -14.8220   23.8755 C   0  0  2  0  0  0  0  0  0  0  0  0
    7.7195  -15.2629   22.6140 N   0  0  0  0  0  0  0  0  0  0  0  0
    8.7372  -15.9321   24.7193 C   0  0  0  0  0  0  0  0  0  0  0  0
    8.0721  -16.9810   24.8747 O   0  0  0  0  0  0  0  0  0  0  0  0
   12.8434  -16.7993   23.4091 N   0  0  0  0  0  0  0  0  0  0  0  0
   12.0971  -17.6665   24.2607 C   0  0  0  0  0  0  0  0  0  0  0  0
   11.6362  -18.7107   23.7519 O   0  0  0  0  0  0  0  0  0  0  0  0
   11.9136  -17.2892   25.6721 C   0  0  0  0  0  0  0  0  0  0  0  0
   10.5282  -16.9846   26.1003 C   0  0  2  0  0  0  0  0  0  0  0  0
    9.9830  -15.8221   25.3727 N   0  0  0  0  0  0  0  0  0  0  0  0
   10.3689  -16.7539   27.5682 C   0  0  0  0  0  0  0  0  0  0  0  0
   10.8137  -17.7630   28.4297 O   0  0  0  0  0  0  0  0  0  0  0  0
    9.8824  -15.7556   28.1037 O   0  0  0  0  0  0  0  0  0  0  0  0
  2  1  1  0
  2  3  1  0
  3  4  2  0
  3 11  1  0
  6  5  1  0
  6  7  2  0
  8  6  1  0
  9  8  1  0
 10 12  1  0
 10  9  1  1
 11 10  1  0
 12 13  2  0
 15 14  1  0
 16 15  2  0
 17 15  1  0
 18 17  1  1
 19 12  1  0
 19 18  1  0
 20 21  1  0
 20 18  1  0
 22 20  2  0
M  END
$$$$
