GQN.pdb
     RDKit          3D

 22 21  0  0  1  0  0  0  0  0999 V2000
   14.2900  -14.9977   15.6345 N   0  0  0  0  0  0  0  0  0  0  0  0
   13.0194  -15.3755   16.2415 C   0  0  0  0  0  0  0  0  0  0  0  0
   12.9511  -14.8543   17.6313 C   0  0  0  0  0  0  0  0  0  0  0  0
   13.9216  -14.3827   18.2514 O   0  0  0  0  0  0  0  0  0  0  0  0
    7.3277  -14.2268   19.9229 N   0  0  0  0  0  0  0  0  0  0  0  0
    7.9639  -13.3678   18.9874 C   0  0  0  0  0  0  0  0  0  0  0  0
    7.3348  -12.5894   18.2533 O   0  0  0  0  0  0  0  0  0  0  0  0
    9.4444  -13.4134   18.8948 C   0  0  0  0  0  0  0  0  0  0  0  0
   10.0158  -14.4061   19.9165 C   0  0  0  0  0  0  0  0  0  0  0  0
   11.5032  -14.4708   19.6573 C   0  0  2  0  0  0  0  0  0  0  0  0
   11.7002  -14.8952   18.2985 N   0  0  0  0  0  0  0  0  0  0  0  0
   12.2101  -15.3201   20.6383 C   0  0  0  0  0  0  0  0  0  0  0  0
   12.2133  -16.5682   20.5445 O   0  0  0  0  0  0  0  0  0  0  0  0
   15.6393  -15.5124   20.6810 N   0  0  0  0  0  0  0  0  0  0  0  0
   15.9523  -14.9298   21.9446 C   0  0  0  0  0  0  0  0  0  0  0  0
   17.0749  -14.3944   22.0656 O   0  0  0  0  0  0  0  0  0  0  0  0
   14.9497  -14.9900   23.0213 C   0  0  0  0  0  0  0  0  0  0  0  0
   13.6358  -15.5774   22.6691 C   0  0  2  0  0  0  0  0  0  0  0  0
   12.9033  -14.7243   21.7132 N   0  0  0  0  0  0  0  0  0  0  0  0
   12.7502  -15.8633   23.8385 C   0  0  0  0  0  0  0  0  0  0  0  0
   13.2135  -16.7828   24.7863 O   0  0  0  0  0  0  0  0  0  0  0  0
   11.6433  -15.3664   24.0571 O   0  0  0  0  0  0  0  0  0  0  0  0
  2  1  1  0
  2  3  1  0
  3  4  2  0
  3 11  1  0
  6  5  1  0
  6  7  2  0
  8  6  1  0
  9  8  1  0
 10 12  1  0
 10  9  1  1
 11 10  1  0
 12 13  2  0
 15 14  1  0
 16 15  2  0
 17 15  1  0
 18 17  1  1
 19 12  1  0
 19 18  1  0
 20 21  1  0
 20 18  1  0
 22 20  2  0
M  END
$$$$
