GQN.pdb
     RDKit          3D

 22 21  0  0  1  0  0  0  0  0999 V2000
    4.7674  -20.5612   15.1293 N   0  0  0  0  0  0  0  0  0  0  0  0
    3.4991  -21.0189   15.6839 C   0  0  0  0  0  0  0  0  0  0  0  0
    3.3814  -20.5811   17.0989 C   0  0  0  0  0  0  0  0  0  0  0  0
    3.4021  -19.3930   17.4689 O   0  0  0  0  0  0  0  0  0  0  0  0
    0.8443  -19.1698   20.5173 N   0  0  0  0  0  0  0  0  0  0  0  0
    0.3080  -20.4764   20.6686 C   0  0  0  0  0  0  0  0  0  0  0  0
   -0.4539  -20.7871   21.5978 O   0  0  0  0  0  0  0  0  0  0  0  0
    0.6832  -21.5038   19.6654 C   0  0  0  0  0  0  0  0  0  0  0  0
    2.0080  -22.1745   20.0537 C   0  0  0  0  0  0  0  0  0  0  0  0
    3.1055  -21.2959   19.4990 C   0  0  2  0  0  0  0  0  0  0  0  0
    3.2361  -21.5790   18.0962 N   0  0  0  0  0  0  0  0  0  0  0  0
    4.3748  -21.4431   20.2410 C   0  0  0  0  0  0  0  0  0  0  0  0
    4.4306  -21.2944   21.4826 O   0  0  0  0  0  0  0  0  0  0  0  0
    9.2915  -21.5697   21.6544 N   0  0  0  0  0  0  0  0  0  0  0  0
    8.3031  -20.5679   21.8861 C   0  0  0  0  0  0  0  0  0  0  0  0
    8.5883  -19.6587   22.6944 O   0  0  0  0  0  0  0  0  0  0  0  0
    7.0197  -20.6588   21.1701 C   0  0  0  0  0  0  0  0  0  0  0  0
    6.8384  -21.8327   20.2844 C   0  0  2  0  0  0  0  0  0  0  0  0
    5.5620  -21.7591   19.5471 N   0  0  0  0  0  0  0  0  0  0  0  0
    6.9193  -23.1531   20.9795 C   0  0  0  0  0  0  0  0  0  0  0  0
    8.1882  -23.6001   21.3650 O   0  0  0  0  0  0  0  0  0  0  0  0
    5.9739  -23.8957   21.2525 O   0  0  0  0  0  0  0  0  0  0  0  0
  2  1  1  0
  2  3  1  0
  3  4  2  0
  3 11  1  0
  6  5  1  0
  6  7  2  0
  8  6  1  0
  9  8  1  0
 10 12  1  0
 10  9  1  1
 11 10  1  0
 12 13  2  0
 15 14  1  0
 16 15  2  0
 17 15  1  0
 18 17  1  1
 19 12  1  0
 19 18  1  0
 20 21  1  0
 20 18  1  0
 22 20  2  0
M  END
$$$$
