GQN.pdb
     RDKit          3D

 22 21  0  0  1  0  0  0  0  0999 V2000
   11.5069  -16.3257   13.0908 N   0  0  0  0  0  0  0  0  0  0  0  0
   10.7493  -16.7205   14.2722 C   0  0  0  0  0  0  0  0  0  0  0  0
   11.0398  -15.7873   15.3914 C   0  0  0  0  0  0  0  0  0  0  0  0
   12.1069  -15.1604   15.5221 O   0  0  0  0  0  0  0  0  0  0  0  0
    7.7760  -12.1136   20.8423 N   0  0  0  0  0  0  0  0  0  0  0  0
    7.8380  -13.2840   20.0397 C   0  0  0  0  0  0  0  0  0  0  0  0
    6.8748  -14.0539   19.8979 O   0  0  0  0  0  0  0  0  0  0  0  0
    9.1151  -13.5865   19.3469 C   0  0  0  0  0  0  0  0  0  0  0  0
    8.8820  -14.5817   18.2019 C   0  0  0  0  0  0  0  0  0  0  0  0
   10.2366  -14.8398   17.5834 C   0  0  2  0  0  0  0  0  0  0  0  0
   10.0385  -15.5957   16.3774 N   0  0  0  0  0  0  0  0  0  0  0  0
   11.1729  -15.4864   18.5260 C   0  0  0  0  0  0  0  0  0  0  0  0
   11.2423  -16.7317   18.6321 O   0  0  0  0  0  0  0  0  0  0  0  0
   15.4683  -13.5651   18.3979 N   0  0  0  0  0  0  0  0  0  0  0  0
   15.0498  -14.7717   19.0330 C   0  0  0  0  0  0  0  0  0  0  0  0
   15.3750  -15.8480   18.4876 O   0  0  0  0  0  0  0  0  0  0  0  0
   14.2693  -14.6839   20.2785 C   0  0  0  0  0  0  0  0  0  0  0  0
   12.9446  -15.3476   20.2767 C   0  0  2  0  0  0  0  0  0  0  0  0
   12.0162  -14.6943   19.3336 N   0  0  0  0  0  0  0  0  0  0  0  0
   12.2908  -15.4320   21.6178 C   0  0  0  0  0  0  0  0  0  0  0  0
   11.0107  -14.8811   21.7450 O   0  0  0  0  0  0  0  0  0  0  0  0
   12.7672  -15.9434   22.6334 O   0  0  0  0  0  0  0  0  0  0  0  0
  2  1  1  0
  2  3  1  0
  3  4  2  0
  3 11  1  0
  6  5  1  0
  6  7  2  0
  8  6  1  0
  9  8  1  0
 10 12  1  0
 10  9  1  1
 11 10  1  0
 12 13  2  0
 15 14  1  0
 16 15  2  0
 17 15  1  0
 18 17  1  1
 19 12  1  0
 19 18  1  0
 20 21  1  0
 20 18  1  0
 22 20  2  0
M  END
$$$$
