GQN.pdb
     RDKit          3D

 22 21  0  0  1  0  0  0  0  0999 V2000
    6.3517  -17.1882   20.7508 N   0  0  0  0  0  0  0  0  0  0  0  0
    6.2269  -16.6617   22.1046 C   0  0  0  0  0  0  0  0  0  0  0  0
    7.4120  -15.8269   22.4311 C   0  0  0  0  0  0  0  0  0  0  0  0
    8.3800  -15.6554   21.6680 O   0  0  0  0  0  0  0  0  0  0  0  0
    6.7952  -11.6258   26.7411 N   0  0  0  0  0  0  0  0  0  0  0  0
    5.9662  -12.6730   26.2574 C   0  0  0  0  0  0  0  0  0  0  0  0
    4.7656  -12.7724   26.5558 O   0  0  0  0  0  0  0  0  0  0  0  0
    6.5750  -13.6841   25.3577 C   0  0  0  0  0  0  0  0  0  0  0  0
    8.0555  -13.3620   25.1121 C   0  0  0  0  0  0  0  0  0  0  0  0
    8.5726  -14.4335   24.1802 C   0  0  2  0  0  0  0  0  0  0  0  0
    7.4462  -15.1817   23.6936 N   0  0  0  0  0  0  0  0  0  0  0  0
    9.6029  -15.2824   24.8135 C   0  0  0  0  0  0  0  0  0  0  0  0
   10.6349  -14.7917   25.3243 O   0  0  0  0  0  0  0  0  0  0  0  0
   12.0893  -19.2412   27.5724 N   0  0  0  0  0  0  0  0  0  0  0  0
   10.8290  -18.5773   27.6447 C   0  0  0  0  0  0  0  0  0  0  0  0
   10.4828  -18.1262   28.7574 O   0  0  0  0  0  0  0  0  0  0  0  0
   10.0171  -18.4614   26.4217 C   0  0  0  0  0  0  0  0  0  0  0  0
   10.5177  -17.5327   25.3814 C   0  0  2  0  0  0  0  0  0  0  0  0
    9.4338  -16.6828   24.8515 N   0  0  0  0  0  0  0  0  0  0  0  0
   11.2128  -18.1980   24.2380 C   0  0  0  0  0  0  0  0  0  0  0  0
   12.3676  -18.9335   24.5276 O   0  0  0  0  0  0  0  0  0  0  0  0
   10.8694  -18.1666   23.0543 O   0  0  0  0  0  0  0  0  0  0  0  0
  2  1  1  0
  2  3  1  0
  3  4  2  0
  3 11  1  0
  6  5  1  0
  6  7  2  0
  8  6  1  0
  9  8  1  0
 10 12  1  0
 10  9  1  1
 11 10  1  0
 12 13  2  0
 15 14  1  0
 16 15  2  0
 17 15  1  0
 18 17  1  1
 19 12  1  0
 19 18  1  0
 20 21  1  0
 20 18  1  0
 22 20  2  0
M  END
$$$$
