GQN.pdb
     RDKit          3D

 22 21  0  0  1  0  0  0  0  0999 V2000
    7.4759  -15.8267   12.6125 N   0  0  0  0  0  0  0  0  0  0  0  0
    8.6300  -16.0701   13.4695 C   0  0  0  0  0  0  0  0  0  0  0  0
    8.1801  -16.2923   14.8681 C   0  0  0  0  0  0  0  0  0  0  0  0
    7.3670  -15.5647   15.4667 O   0  0  0  0  0  0  0  0  0  0  0  0
    7.2208  -21.1301   20.0565 N   0  0  0  0  0  0  0  0  0  0  0  0
    7.7914  -20.7559   18.8106 C   0  0  0  0  0  0  0  0  0  0  0  0
    7.8448  -21.5244   17.8375 O   0  0  0  0  0  0  0  0  0  0  0  0
    8.3432  -19.3842   18.6813 C   0  0  0  0  0  0  0  0  0  0  0  0
    8.7772  -19.1145   17.2340 C   0  0  0  0  0  0  0  0  0  0  0  0
    8.4701  -17.6595   16.9644 C   0  0  2  0  0  0  0  0  0  0  0  0
    8.7095  -17.4049   15.5705 N   0  0  0  0  0  0  0  0  0  0  0  0
    9.2186  -16.7505   17.8570 C   0  0  0  0  0  0  0  0  0  0  0  0
   10.4321  -16.5037   17.6749 O   0  0  0  0  0  0  0  0  0  0  0  0
    6.7411  -12.4953   19.1417 N   0  0  0  0  0  0  0  0  0  0  0  0
    7.9997  -13.1577   19.0348 C   0  0  0  0  0  0  0  0  0  0  0  0
    8.6578  -12.9707   17.9892 O   0  0  0  0  0  0  0  0  0  0  0  0
    8.4478  -14.0130   20.1466 C   0  0  0  0  0  0  0  0  0  0  0  0
    9.2972  -15.1728   19.7876 C   0  0  2  0  0  0  0  0  0  0  0  0
    8.5633  -16.1378   18.9461 N   0  0  0  0  0  0  0  0  0  0  0  0
    9.8832  -15.8979   20.9555 C   0  0  0  0  0  0  0  0  0  0  0  0
   10.7600  -15.1850   21.7810 O   0  0  0  0  0  0  0  0  0  0  0  0
    9.6706  -17.0707   21.2707 O   0  0  0  0  0  0  0  0  0  0  0  0
  2  1  1  0
  2  3  1  0
  3  4  2  0
  3 11  1  0
  6  5  1  0
  6  7  2  0
  8  6  1  0
  9  8  1  0
 10 12  1  0
 10  9  1  1
 11 10  1  0
 12 13  2  0
 15 14  1  0
 16 15  2  0
 17 15  1  0
 18 17  1  1
 19 12  1  0
 19 18  1  0
 20 21  1  0
 20 18  1  0
 22 20  2  0
M  END
$$$$
