PGI.pdb
     RDKit          3D

 20 20  0  0  1  0  0  0  0  0999 V2000
   26.2213  -21.8001  -13.8755 N   0  0  0  0  0  0  0  0  0  0  0  0
   25.3618  -21.1868  -14.8386 C   0  0  0  0  0  0  0  0  0  0  0  0
   26.3117  -20.3627  -15.7085 C   0  0  0  0  0  0  0  0  0  0  0  0
   27.3607  -19.9186  -14.7396 C   0  0  0  0  0  0  0  0  0  0  0  0
   27.2653  -20.8899  -13.5854 C   0  0  1  0  0  0  0  0  0  0  0  0
   27.0333  -20.1467  -12.3225 C   0  0  0  0  0  0  0  0  0  0  0  0
   27.8215  -19.1671  -12.0340 O   0  0  0  0  0  0  0  0  0  0  0  0
   25.9782  -20.4907  -11.4470 N   0  0  0  0  0  0  0  0  0  0  0  0
   25.8477  -19.7480  -10.2296 C   0  0  0  0  0  0  0  0  0  0  0  0
   26.2901  -20.5262   -9.0394 C   0  0  0  0  0  0  0  0  0  0  0  0
   26.4935  -21.7596   -9.0639 O   0  0  0  0  0  0  0  0  0  0  0  0
   29.8871  -19.5661   -6.1423 C   0  0  0  0  0  0  0  0  0  0  0  0
   28.5925  -18.7903   -6.2207 C   0  0  0  0  0  0  0  0  0  0  0  0
   27.4340  -19.5077   -5.6390 C   0  0  2  0  0  0  0  0  0  0  0  0
   27.7094  -20.0715   -4.2593 C   0  0  0  0  0  0  0  0  0  0  0  0
   26.8150  -20.5014   -6.5566 C   0  0  2  0  0  0  0  0  0  0  0  0
   26.4864  -19.8337   -7.8339 N   0  0  0  0  0  0  0  0  0  0  0  0
   25.6688  -21.2540   -6.0535 C   0  0  0  0  0  0  0  0  0  0  0  0
   25.8024  -22.4159   -5.2659 O   0  0  0  0  0  0  0  0  0  0  0  0
   24.4781  -20.9339   -6.2770 O   0  0  0  0  0  0  0  0  0  0  0  0
  1  2  1  0
  3  2  1  0
  4  5  1  0
  4  3  1  0
  5  1  1  0
  5  6  1  1
  6  7  2  0
  8  6  1  0
  9 10  1  0
  9  8  1  0
 10 17  1  0
 11 10  2  0
 12 13  1  0
 14 16  1  0
 14 15  1  1
 14 13  1  0
 16 17  1  6
 18 19  1  0
 18 16  1  0
 20 18  2  0
M  END
$$$$
