PGI.pdb
     RDKit          3D

 20 20  0  0  1  0  0  0  0  0999 V2000
   24.6962  -20.4706  -15.5568 N   0  0  0  0  0  0  0  0  0  0  0  0
   23.5079  -20.7802  -14.8256 C   0  0  0  0  0  0  0  0  0  0  0  0
   22.8804  -19.4140  -14.5464 C   0  0  0  0  0  0  0  0  0  0  0  0
   24.0690  -18.5229  -14.3745 C   0  0  0  0  0  0  0  0  0  0  0  0
   25.2056  -19.2484  -15.0574 C   0  0  1  0  0  0  0  0  0  0  0  0
   26.3200  -19.4496  -14.0990 C   0  0  0  0  0  0  0  0  0  0  0  0
   26.7722  -18.4239  -13.4606 O   0  0  0  0  0  0  0  0  0  0  0  0
   26.8826  -20.7275  -13.8790 N   0  0  0  0  0  0  0  0  0  0  0  0
   27.8845  -20.8535  -12.8635 C   0  0  0  0  0  0  0  0  0  0  0  0
   27.3212  -21.3144  -11.5642 C   0  0  0  0  0  0  0  0  0  0  0  0
   27.5604  -22.4394  -11.0741 O   0  0  0  0  0  0  0  0  0  0  0  0
   27.9812  -19.3699   -7.1015 C   0  0  0  0  0  0  0  0  0  0  0  0
   27.4992  -20.2883   -8.2008 C   0  0  0  0  0  0  0  0  0  0  0  0
   26.0558  -20.1459   -8.5035 C   0  0  2  0  0  0  0  0  0  0  0  0
   25.1628  -20.4298   -7.3123 C   0  0  0  0  0  0  0  0  0  0  0  0
   25.6226  -20.8600   -9.7343 C   0  0  2  0  0  0  0  0  0  0  0  0
   26.4810  -20.4365  -10.8607 N   0  0  0  0  0  0  0  0  0  0  0  0
   24.2101  -20.7738  -10.0960 C   0  0  0  0  0  0  0  0  0  0  0  0
   23.2107  -21.5439   -9.4666 O   0  0  0  0  0  0  0  0  0  0  0  0
   23.7692  -20.0141  -10.9897 O   0  0  0  0  0  0  0  0  0  0  0  0
  1  2  1  0
  3  2  1  0
  4  5  1  0
  4  3  1  0
  5  1  1  0
  5  6  1  1
  6  7  2  0
  8  6  1  0
  9 10  1  0
  9  8  1  0
 10 17  1  0
 11 10  2  0
 12 13  1  0
 14 16  1  0
 14 15  1  1
 14 13  1  0
 16 17  1  6
 18 19  1  0
 18 16  1  0
 20 18  2  0
M  END
$$$$
