PGI.pdb
     RDKit          3D

 20 20  0  0  1  0  0  0  0  0999 V2000
   26.4808  -21.5108  -12.9441 N   0  0  0  0  0  0  0  0  0  0  0  0
   25.4643  -22.3175  -13.5427 C   0  0  0  0  0  0  0  0  0  0  0  0
   24.5910  -21.3124  -14.2945 C   0  0  0  0  0  0  0  0  0  0  0  0
   24.6517  -20.0948  -13.4284 C   0  0  0  0  0  0  0  0  0  0  0  0
   25.8970  -20.2712  -12.5900 C   0  0  1  0  0  0  0  0  0  0  0  0
   25.5461  -20.2020  -11.1502 C   0  0  0  0  0  0  0  0  0  0  0  0
   24.9041  -19.1671  -10.7247 O   0  0  0  0  0  0  0  0  0  0  0  0
   25.8986  -21.2368  -10.2541 N   0  0  0  0  0  0  0  0  0  0  0  0
   25.6524  -21.0286   -8.8588 C   0  0  0  0  0  0  0  0  0  0  0  0
   26.7687  -20.3076   -8.1866 C   0  0  0  0  0  0  0  0  0  0  0  0
   27.4752  -19.4505   -8.7607 O   0  0  0  0  0  0  0  0  0  0  0  0
   29.2213  -17.2399   -5.0834 C   0  0  0  0  0  0  0  0  0  0  0  0
   28.7224  -18.4260   -4.2908 C   0  0  0  0  0  0  0  0  0  0  0  0
   27.6718  -19.2056   -4.9864 C   0  0  2  0  0  0  0  0  0  0  0  0
   26.7585  -19.9586   -4.0399 C   0  0  0  0  0  0  0  0  0  0  0  0
   28.1834  -20.0555   -6.0948 C   0  0  2  0  0  0  0  0  0  0  0  0
   27.0349  -20.6106   -6.8417 N   0  0  0  0  0  0  0  0  0  0  0  0
   29.1350  -21.1075   -5.7472 C   0  0  0  0  0  0  0  0  0  0  0  0
   30.5195  -20.8746   -5.6176 O   0  0  0  0  0  0  0  0  0  0  0  0
   28.8048  -22.2978   -5.5361 O   0  0  0  0  0  0  0  0  0  0  0  0
  1  2  1  0
  3  2  1  0
  4  5  1  0
  4  3  1  0
  5  1  1  0
  5  6  1  1
  6  7  2  0
  8  6  1  0
  9 10  1  0
  9  8  1  0
 10 17  1  0
 11 10  2  0
 12 13  1  0
 14 16  1  0
 14 15  1  1
 14 13  1  0
 16 17  1  1
 18 19  1  0
 18 16  1  0
 20 18  2  0
M  END
$$$$
