PGI.pdb
     RDKit          3D

 20 20  0  0  1  0  0  0  0  0999 V2000
   22.8580  -20.6725  -13.0843 N   0  0  0  0  0  0  0  0  0  0  0  0
   22.3587  -19.4375  -13.6018 C   0  0  0  0  0  0  0  0  0  0  0  0
   22.7136  -19.4901  -15.0882 C   0  0  0  0  0  0  0  0  0  0  0  0
   24.0090  -20.2372  -15.1019 C   0  0  0  0  0  0  0  0  0  0  0  0
   24.0408  -20.9918  -13.7926 C   0  0  1  0  0  0  0  0  0  0  0  0
   25.2665  -20.6340  -13.0373 C   0  0  0  0  0  0  0  0  0  0  0  0
   26.4123  -20.9076  -13.5630 O   0  0  0  0  0  0  0  0  0  0  0  0
   25.1972  -20.0076  -11.7721 N   0  0  0  0  0  0  0  0  0  0  0  0
   26.4179  -19.8266  -11.0454 C   0  0  0  0  0  0  0  0  0  0  0  0
   26.4628  -20.6405   -9.7991 C   0  0  0  0  0  0  0  0  0  0  0  0
   26.3711  -21.8874   -9.7911 O   0  0  0  0  0  0  0  0  0  0  0  0
   29.1045  -18.2206   -5.6653 C   0  0  0  0  0  0  0  0  0  0  0  0
   28.5367  -19.2204   -6.6462 C   0  0  0  0  0  0  0  0  0  0  0  0
   27.2143  -19.7574   -6.2484 C   0  0  2  0  0  0  0  0  0  0  0  0
   27.2044  -20.3553   -4.8558 C   0  0  0  0  0  0  0  0  0  0  0  0
   26.5927  -20.6482   -7.2646 C   0  0  2  0  0  0  0  0  0  0  0  0
   26.6160  -19.9673   -8.5764 N   0  0  0  0  0  0  0  0  0  0  0  0
   25.2596  -21.1687   -6.9726 C   0  0  0  0  0  0  0  0  0  0  0  0
   25.0440  -22.4215   -6.3628 O   0  0  0  0  0  0  0  0  0  0  0  0
   24.2018  -20.5511   -7.2370 O   0  0  0  0  0  0  0  0  0  0  0  0
  1  2  1  0
  3  2  1  0
  4  5  1  0
  4  3  1  0
  5  1  1  0
  5  6  1  1
  6  7  2  0
  8  6  1  0
  9 10  1  0
  9  8  1  0
 10 17  1  0
 11 10  2  0
 12 13  1  0
 14 16  1  0
 14 15  1  1
 14 13  1  0
 16 17  1  6
 18 19  1  0
 18 16  1  0
 20 18  2  0
M  END
$$$$
