PGI.pdb
     RDKit          3D

 20 20  0  0  1  0  0  0  0  0999 V2000
   26.1762  -18.4601  -14.7883 N   0  0  0  0  0  0  0  0  0  0  0  0
   26.9722  -17.3794  -15.2789 C   0  0  0  0  0  0  0  0  0  0  0  0
   27.3370  -17.8062  -16.7012 C   0  0  0  0  0  0  0  0  0  0  0  0
   27.4611  -19.2922  -16.5887 C   0  0  0  0  0  0  0  0  0  0  0  0
   26.6820  -19.6582  -15.3463 C   0  0  1  0  0  0  0  0  0  0  0  0
   27.5588  -20.3953  -14.4035 C   0  0  0  0  0  0  0  0  0  0  0  0
   28.0580  -21.5222  -14.7841 O   0  0  0  0  0  0  0  0  0  0  0  0
   27.8504  -19.8878  -13.1169 N   0  0  0  0  0  0  0  0  0  0  0  0
   28.5451  -20.7417  -12.2007 C   0  0  0  0  0  0  0  0  0  0  0  0
   27.6628  -21.2419  -11.1103 C   0  0  0  0  0  0  0  0  0  0  0  0
   27.1503  -22.3823  -11.1120 O   0  0  0  0  0  0  0  0  0  0  0  0
   28.8184  -18.8627   -6.4284 C   0  0  0  0  0  0  0  0  0  0  0  0
   28.4082  -19.9000   -7.4481 C   0  0  0  0  0  0  0  0  0  0  0  0
   26.9489  -19.9388   -7.7018 C   0  0  2  0  0  0  0  0  0  0  0  0
   26.1333  -20.2509   -6.4631 C   0  0  0  0  0  0  0  0  0  0  0  0
   26.5606  -20.7681   -8.8739 C   0  0  2  0  0  0  0  0  0  0  0  0
   27.3981  -20.3848  -10.0301 N   0  0  0  0  0  0  0  0  0  0  0  0
   25.1468  -20.7889   -9.2402 C   0  0  0  0  0  0  0  0  0  0  0  0
   24.6248  -20.0461  -10.3190 O   0  0  0  0  0  0  0  0  0  0  0  0
   24.2837  -21.4634   -8.6316 O   0  0  0  0  0  0  0  0  0  0  0  0
  1  2  1  0
  3  2  1  0
  4  5  1  0
  4  3  1  0
  5  1  1  0
  5  6  1  1
  6  7  2  0
  8  6  1  0
  9 10  1  0
  9  8  1  0
 10 17  1  0
 11 10  2  0
 12 13  1  0
 14 16  1  0
 14 15  1  1
 14 13  1  0
 16 17  1  6
 18 19  1  0
 18 16  1  0
 20 18  2  0
M  END
$$$$
