PGI.pdb
     RDKit          3D

 20 20  0  0  1  0  0  0  0  0999 V2000
   26.1598  -18.1447  -17.1239 N   0  0  0  0  0  0  0  0  0  0  0  0
   25.4632  -17.4063  -16.1179 C   0  0  0  0  0  0  0  0  0  0  0  0
   26.5787  -16.8262  -15.2476 C   0  0  0  0  0  0  0  0  0  0  0  0
   27.6316  -17.8872  -15.2930 C   0  0  0  0  0  0  0  0  0  0  0  0
   27.3193  -18.6975  -16.5301 C   0  0  1  0  0  0  0  0  0  0  0  0
   27.1419  -20.1241  -16.1637 C   0  0  0  0  0  0  0  0  0  0  0  0
   28.1261  -20.7395  -15.6009 O   0  0  0  0  0  0  0  0  0  0  0  0
   25.9300  -20.8060  -16.4174 N   0  0  0  0  0  0  0  0  0  0  0  0
   25.8498  -22.1890  -16.0544 C   0  0  0  0  0  0  0  0  0  0  0  0
   25.3297  -22.3842  -14.6727 C   0  0  0  0  0  0  0  0  0  0  0  0
   24.9991  -23.5002  -14.2161 O   0  0  0  0  0  0  0  0  0  0  0  0
   27.8300  -21.2160  -10.4665 C   0  0  0  0  0  0  0  0  0  0  0  0
   26.8208  -21.6600  -11.5001 C   0  0  0  0  0  0  0  0  0  0  0  0
   25.5749  -20.8582  -11.4964 C   0  0  2  0  0  0  0  0  0  0  0  0
   24.9751  -20.6889  -10.1148 C   0  0  0  0  0  0  0  0  0  0  0  0
   24.5762  -21.2877  -12.5116 C   0  0  2  0  0  0  0  0  0  0  0  0
   25.2073  -21.2546  -13.8479 N   0  0  0  0  0  0  0  0  0  0  0  0
   23.2931  -20.5901  -12.5252 C   0  0  0  0  0  0  0  0  0  0  0  0
   22.1440  -21.0888  -11.8779 O   0  0  0  0  0  0  0  0  0  0  0  0
   23.1051  -19.4972  -13.1088 O   0  0  0  0  0  0  0  0  0  0  0  0
  1  2  1  0
  3  2  1  0
  4  5  1  0
  4  3  1  0
  5  1  1  0
  5  6  1  1
  6  7  2  0
  8  6  1  0
  9 10  1  0
  9  8  1  0
 10 17  1  0
 11 10  2  0
 12 13  1  0
 14 16  1  0
 14 15  1  1
 14 13  1  0
 16 17  1  6
 18 19  1  0
 18 16  1  0
 20 18  2  0
M  END
$$$$
