PGI.pdb
     RDKit          3D

 20 20  0  0  1  0  0  0  0  0999 V2000
   25.0454  -18.2519  -15.3735 N   0  0  0  0  0  0  0  0  0  0  0  0
   25.4291  -16.8895  -15.5710 C   0  0  0  0  0  0  0  0  0  0  0  0
   25.7788  -16.8167  -17.0578 C   0  0  0  0  0  0  0  0  0  0  0  0
   26.3577  -18.1671  -17.3371 C   0  0  0  0  0  0  0  0  0  0  0  0
   25.8396  -19.0533  -16.2277 C   0  0  1  0  0  0  0  0  0  0  0  0
   26.9786  -19.6827  -15.5153 C   0  0  0  0  0  0  0  0  0  0  0  0
   27.7412  -20.4902  -16.1714 O   0  0  0  0  0  0  0  0  0  0  0  0
   27.2357  -19.4135  -14.1517 N   0  0  0  0  0  0  0  0  0  0  0  0
   28.1435  -20.2763  -13.4573 C   0  0  0  0  0  0  0  0  0  0  0  0
   27.5025  -20.9632  -12.3018 C   0  0  0  0  0  0  0  0  0  0  0  0
   27.9475  -22.0176  -11.7983 O   0  0  0  0  0  0  0  0  0  0  0  0
   27.2568  -19.1666   -7.8675 C   0  0  0  0  0  0  0  0  0  0  0  0
   27.0847  -20.1446   -9.0068 C   0  0  0  0  0  0  0  0  0  0  0  0
   25.6771  -20.3124   -9.4379 C   0  0  2  0  0  0  0  0  0  0  0  0
   24.7726  -20.8364   -8.3406 C   0  0  0  0  0  0  0  0  0  0  0  0
   25.5210  -21.0525  -10.7187 C   0  0  2  0  0  0  0  0  0  0  0  0
   26.3415  -20.3925  -11.7561 N   0  0  0  0  0  0  0  0  0  0  0  0
   24.1604  -21.2801  -11.1987 C   0  0  0  0  0  0  0  0  0  0  0  0
   23.7010  -20.8117  -12.4467 O   0  0  0  0  0  0  0  0  0  0  0  0
   23.2919  -21.9060  -10.5474 O   0  0  0  0  0  0  0  0  0  0  0  0
  1  2  1  0
  3  2  1  0
  4  5  1  0
  4  3  1  0
  5  1  1  0
  5  6  1  1
  6  7  2  0
  8  6  1  0
  9 10  1  0
  9  8  1  0
 10 17  1  0
 11 10  2  0
 12 13  1  0
 14 16  1  0
 14 15  1  1
 14 13  1  0
 16 17  1  6
 18 19  1  0
 18 16  1  0
 20 18  2  0
M  END
$$$$
