PGI.pdb
     RDKit          3D

 20 20  0  0  1  0  0  0  0  0999 V2000
   24.3452  -17.9350  -15.0226 N   0  0  0  0  0  0  0  0  0  0  0  0
   24.6210  -16.5842  -15.3990 C   0  0  0  0  0  0  0  0  0  0  0  0
   24.5667  -16.6088  -16.9269 C   0  0  0  0  0  0  0  0  0  0  0  0
   25.0941  -17.9671  -17.2638 C   0  0  0  0  0  0  0  0  0  0  0  0
   24.9126  -18.7822  -16.0039 C   0  0  1  0  0  0  0  0  0  0  0  0
   26.2175  -19.3455  -15.5787 C   0  0  0  0  0  0  0  0  0  0  0  0
   26.7847  -20.2198  -16.3390 O   0  0  0  0  0  0  0  0  0  0  0  0
   26.8374  -18.9436  -14.3736 N   0  0  0  0  0  0  0  0  0  0  0  0
   27.9788  -19.6842  -13.9271 C   0  0  0  0  0  0  0  0  0  0  0  0
   27.6908  -20.4920  -12.7096 C   0  0  0  0  0  0  0  0  0  0  0  0
   28.4102  -21.4421  -12.3314 O   0  0  0  0  0  0  0  0  0  0  0  0
   27.8333  -19.6628   -7.7766 C   0  0  0  0  0  0  0  0  0  0  0  0
   27.5373  -19.7157   -9.2577 C   0  0  0  0  0  0  0  0  0  0  0  0
   26.1646  -20.1757   -9.5728 C   0  0  2  0  0  0  0  0  0  0  0  0
   25.4660  -20.8275   -8.3964 C   0  0  0  0  0  0  0  0  0  0  0  0
   26.0676  -20.9795  -10.8207 C   0  0  2  0  0  0  0  0  0  0  0  0
   26.5535  -20.1644  -11.9541 N   0  0  0  0  0  0  0  0  0  0  0  0
   24.7732  -21.5812  -11.1303 C   0  0  0  0  0  0  0  0  0  0  0  0
   24.3896  -22.8544  -10.6615 O   0  0  0  0  0  0  0  0  0  0  0  0
   23.8999  -21.0218  -11.8336 O   0  0  0  0  0  0  0  0  0  0  0  0
  1  2  1  0
  3  2  1  0
  4  5  1  0
  4  3  1  0
  5  1  1  0
  5  6  1  1
  6  7  2  0
  8  6  1  0
  9 10  1  0
  9  8  1  0
 10 17  1  0
 11 10  2  0
 12 13  1  0
 14 16  1  0
 14 15  1  1
 14 13  1  0
 16 17  1  6
 18 19  1  0
 18 16  1  0
 20 18  2  0
M  END
$$$$
