PGI.pdb
     RDKit          3D

 20 20  0  0  1  0  0  0  0  0999 V2000
   24.0449  -21.9968  -12.7458 N   0  0  0  0  0  0  0  0  0  0  0  0
   23.2704  -21.0802  -13.5220 C   0  0  0  0  0  0  0  0  0  0  0  0
   24.1130  -20.8574  -14.7784 C   0  0  0  0  0  0  0  0  0  0  0  0
   25.5155  -20.9436  -14.2667 C   0  0  0  0  0  0  0  0  0  0  0  0
   25.4116  -21.7001  -12.9622 C   0  0  1  0  0  0  0  0  0  0  0  0
   25.9951  -20.8900  -11.8648 C   0  0  0  0  0  0  0  0  0  0  0  0
   27.2127  -20.4814  -11.9852 O   0  0  0  0  0  0  0  0  0  0  0  0
   25.2479  -20.5646  -10.7100 N   0  0  0  0  0  0  0  0  0  0  0  0
   25.8700  -19.7388   -9.7192 C   0  0  0  0  0  0  0  0  0  0  0  0
   26.3583  -20.5232   -8.5512 C   0  0  0  0  0  0  0  0  0  0  0  0
   26.1734  -21.7534   -8.4262 O   0  0  0  0  0  0  0  0  0  0  0  0
   30.5723  -19.4801   -4.1293 C   0  0  0  0  0  0  0  0  0  0  0  0
   29.4391  -20.3198   -4.6724 C   0  0  0  0  0  0  0  0  0  0  0  0
   28.7036  -19.6759   -5.7859 C   0  0  2  0  0  0  0  0  0  0  0  0
   28.2847  -18.2512   -5.4829 C   0  0  0  0  0  0  0  0  0  0  0  0
   27.5940  -20.5006   -6.3347 C   0  0  2  0  0  0  0  0  0  0  0  0
   27.0602  -19.8406   -7.5448 N   0  0  0  0  0  0  0  0  0  0  0  0
   26.5139  -20.8628   -5.4206 C   0  0  0  0  0  0  0  0  0  0  0  0
   26.6321  -21.8948   -4.4672 O   0  0  0  0  0  0  0  0  0  0  0  0
   25.3985  -20.2919   -5.4058 O   0  0  0  0  0  0  0  0  0  0  0  0
  1  2  1  0
  3  2  1  0
  4  5  1  0
  4  3  1  0
  5  1  1  0
  5  6  1  1
  6  7  2  0
  8  6  1  0
  9 10  1  0
  9  8  1  0
 10 17  1  0
 11 10  2  0
 12 13  1  0
 14 16  1  0
 14 15  1  1
 14 13  1  0
 16 17  1  6
 18 19  1  0
 18 16  1  0
 20 18  2  0
M  END
$$$$
