CPH.pdb
     RDKit          3D

 24 25  0  0  1  0  0  0  0  0999 V2000
   27.7777  -20.1661  -16.4775 N   0  0  0  0  0  0  0  0  0  0  0  0
   27.3870  -19.5222  -15.2450 C   0  0  1  0  0  0  0  0  0  0  0  0
   26.9811  -18.0984  -15.6593 C   0  0  0  0  0  0  0  0  0  0  0  0
   26.5635  -17.1349  -14.1841 S   0  0  0  0  0  0  0  0  0  0  0  0
   26.1627  -20.2287  -14.6963 C   0  0  0  0  0  0  0  0  0  0  0  0
   25.1741  -20.1707  -15.4796 O   0  0  0  0  0  0  0  0  0  0  0  0
   26.1883  -20.8600  -13.4468 N   0  0  0  0  0  0  0  0  0  0  0  0
   27.3864  -21.5651  -12.9419 C   0  0  0  0  0  0  0  0  0  0  0  0
   27.4464  -21.0358  -11.5358 C   0  0  0  0  0  0  0  0  0  0  0  0
   26.0674  -20.5513  -11.1914 C   0  0  0  0  0  0  0  0  0  0  0  0
   25.2489  -21.0665  -12.4155 C   0  0  1  0  0  0  0  0  0  0  0  0
   23.9596  -20.4128  -12.4530 C   0  0  0  0  0  0  0  0  0  0  0  0
   23.7115  -19.3341  -11.9059 O   0  0  0  0  0  0  0  0  0  0  0  0
   22.8958  -21.0353  -13.1600 N   0  0  0  0  0  0  0  0  0  0  0  0
   21.5940  -20.3785  -13.3150 C   0  0  1  0  0  0  0  0  0  0  0  0
   21.8636  -19.1522  -14.1556 C   0  0  0  0  0  0  0  0  0  0  0  0
   20.6494  -18.3766  -14.4829 C   0  0  0  0  0  0  0  0  0  0  0  0
   19.7496  -17.7722  -13.6355 C   0  0  0  0  0  0  0  0  0  0  0  0
   18.7788  -17.1737  -14.3369 N   0  0  0  0  0  0  0  0  0  0  0  0
   19.0448  -17.3876  -15.6454 C   0  0  0  0  0  0  0  0  0  0  0  0
   20.1766  -18.1154  -15.7288 N   0  0  0  0  0  0  0  0  0  0  0  0
   20.6536  -21.2494  -14.0603 C   0  0  0  0  0  0  0  0  0  0  0  0
   19.4363  -21.3076  -13.8417 O   0  0  0  0  0  0  0  0  0  0  0  0
   21.1465  -22.0740  -15.0877 O   0  0  0  0  0  0  0  0  0  0  0  0
  2  1  1  6
  2  5  1  0
  3  2  1  0
  4  3  1  0
  5  6  2  0
  7 11  1  0
  7  5  1  0
  8  7  1  0
  9 10  1  0
  9  8  1  0
 10 11  1  0
 11 12  1  6
 12 13  2  0
 12 14  1  0
 14 15  1  0
 15 16  1  6
 15 22  1  0
 16 17  1  0
 17 18  2  0
 17 21  1  0
 18 19  1  0
 19 20  1  0
 21 20  2  0
 22 24  1  0
 23 22  2  0
M  END
$$$$
