CPH.pdb
     RDKit          3D

 24 25  0  0  1  0  0  0  0  0999 V2000
   26.3071  -17.4088  -13.9789 N   0  0  0  0  0  0  0  0  0  0  0  0
   26.0258  -17.0523  -15.3500 C   0  0  1  0  0  0  0  0  0  0  0  0
   25.3196  -18.2850  -15.9376 C   0  0  0  0  0  0  0  0  0  0  0  0
   24.6831  -17.8892  -17.5859 S   0  0  0  0  0  0  0  0  0  0  0  0
   25.0498  -15.8919  -15.3584 C   0  0  0  0  0  0  0  0  0  0  0  0
   23.9605  -16.1666  -14.7822 O   0  0  0  0  0  0  0  0  0  0  0  0
   25.3800  -14.6703  -15.9578 N   0  0  0  0  0  0  0  0  0  0  0  0
   26.7593  -14.1365  -15.9565 C   0  0  0  0  0  0  0  0  0  0  0  0
   26.8923  -13.7111  -17.3925 C   0  0  0  0  0  0  0  0  0  0  0  0
   25.5004  -13.5226  -17.9237 C   0  0  0  0  0  0  0  0  0  0  0  0
   24.6556  -13.6572  -16.6191 C   0  0  1  0  0  0  0  0  0  0  0  0
   23.2623  -13.8488  -16.9553 C   0  0  0  0  0  0  0  0  0  0  0  0
   22.8401  -14.7590  -17.6749 O   0  0  0  0  0  0  0  0  0  0  0  0
   22.3004  -12.9420  -16.4340 N   0  0  0  0  0  0  0  0  0  0  0  0
   20.8704  -13.0986  -16.7178 C   0  0  1  0  0  0  0  0  0  0  0  0
   20.3758  -14.1217  -15.7220 C   0  0  0  0  0  0  0  0  0  0  0  0
   18.9497  -14.4711  -15.8865 C   0  0  0  0  0  0  0  0  0  0  0  0
   17.8423  -13.6573  -15.8193 C   0  0  0  0  0  0  0  0  0  0  0  0
   16.7271  -14.3708  -16.0188 N   0  0  0  0  0  0  0  0  0  0  0  0
   17.1067  -15.6536  -16.2166 C   0  0  0  0  0  0  0  0  0  0  0  0
   18.4512  -15.7094  -16.1357 N   0  0  0  0  0  0  0  0  0  0  0  0
   20.1456  -11.8289  -16.4711 C   0  0  0  0  0  0  0  0  0  0  0  0
   20.5535  -10.9274  -15.7267 O   0  0  0  0  0  0  0  0  0  0  0  0
   18.9125  -11.6050  -17.1097 O   0  0  0  0  0  0  0  0  0  0  0  0
  2  1  1  1
  2  5  1  0
  3  2  1  0
  4  3  1  0
  5  6  2  0
  7 11  1  0
  7  5  1  0
  8  7  1  0
  9 10  1  0
  9  8  1  0
 10 11  1  0
 11 12  1  6
 12 13  2  0
 12 14  1  0
 14 15  1  0
 15 16  1  1
 15 22  1  0
 16 17  1  0
 17 18  2  0
 17 21  1  0
 18 19  1  0
 19 20  1  0
 21 20  2  0
 22 24  1  0
 23 22  2  0
M  END
$$$$
