CPH.pdb
     RDKit          3D

 24 25  0  0  1  0  0  0  0  0999 V2000
   24.9583   -9.1051  -19.6299 N   0  0  0  0  0  0  0  0  0  0  0  0
   24.3813   -8.3728  -18.5266 C   0  0  1  0  0  0  0  0  0  0  0  0
   23.8241   -7.0873  -19.1593 C   0  0  0  0  0  0  0  0  0  0  0  0
   25.1497   -5.8629  -19.3091 S   0  0  0  0  0  0  0  0  0  0  0  0
   23.2212   -9.1733  -17.9676 C   0  0  0  0  0  0  0  0  0  0  0  0
   22.3210   -9.3917  -18.8257 O   0  0  0  0  0  0  0  0  0  0  0  0
   23.2078   -9.5966  -16.6331 N   0  0  0  0  0  0  0  0  0  0  0  0
   24.4366  -10.0151  -15.9242 C   0  0  0  0  0  0  0  0  0  0  0  0
   24.2708   -9.2772  -14.6247 C   0  0  0  0  0  0  0  0  0  0  0  0
   22.8072   -8.9750  -14.4768 C   0  0  0  0  0  0  0  0  0  0  0  0
   22.2059   -9.7940  -15.6606 C   0  0  1  0  0  0  0  0  0  0  0  0
   20.8459   -9.3699  -15.9088 C   0  0  0  0  0  0  0  0  0  0  0  0
   20.5237   -8.2215  -16.2281 O   0  0  0  0  0  0  0  0  0  0  0  0
   19.7976  -10.3207  -15.7826 N   0  0  0  0  0  0  0  0  0  0  0  0
   18.3934   -9.9379  -15.9608 C   0  0  1  0  0  0  0  0  0  0  0  0
   17.6096  -11.2228  -15.8273 C   0  0  0  0  0  0  0  0  0  0  0  0
   16.1513  -11.0496  -15.9888 C   0  0  0  0  0  0  0  0  0  0  0  0
   15.4395   -9.9115  -16.2910 C   0  0  0  0  0  0  0  0  0  0  0  0
   14.1287  -10.1806  -16.3378 N   0  0  0  0  0  0  0  0  0  0  0  0
   13.9838  -11.4972  -16.0655 C   0  0  0  0  0  0  0  0  0  0  0  0
   15.2092  -12.0185  -15.8552 N   0  0  0  0  0  0  0  0  0  0  0  0
   17.9597   -9.0202  -14.8801 C   0  0  0  0  0  0  0  0  0  0  0  0
   17.2158   -8.0452  -15.0510 O   0  0  0  0  0  0  0  0  0  0  0  0
   18.4055   -9.2460  -13.5653 O   0  0  0  0  0  0  0  0  0  0  0  0
  2  1  1  6
  2  5  1  0
  3  2  1  0
  4  3  1  0
  5  6  2  0
  7 11  1  0
  7  5  1  0
  8  7  1  0
  9 10  1  0
  9  8  1  0
 10 11  1  0
 11 12  1  6
 12 13  2  0
 12 14  1  0
 14 15  1  0
 15 16  1  1
 15 22  1  0
 16 17  1  0
 17 18  2  0
 17 21  1  0
 18 19  1  0
 19 20  1  0
 21 20  2  0
 22 24  1  0
 23 22  2  0
M  END
$$$$
