CPH.pdb
     RDKit          3D

 24 25  0  0  1  0  0  0  0  0999 V2000
   20.3213  -15.5169  -16.3702 N   0  0  0  0  0  0  0  0  0  0  0  0
   21.4596  -14.6760  -16.6590 C   0  0  1  0  0  0  0  0  0  0  0  0
   21.3746  -14.4083  -18.1705 C   0  0  0  0  0  0  0  0  0  0  0  0
   21.9351  -15.8723  -19.0767 S   0  0  0  0  0  0  0  0  0  0  0  0
   21.2863  -13.3584  -15.9288 C   0  0  0  0  0  0  0  0  0  0  0  0
   20.1105  -12.9059  -16.0116 O   0  0  0  0  0  0  0  0  0  0  0  0
   22.3550  -12.7575  -15.2526 N   0  0  0  0  0  0  0  0  0  0  0  0
   23.3856  -13.5465  -14.5434 C   0  0  0  0  0  0  0  0  0  0  0  0
   24.6357  -12.8615  -15.0218 C   0  0  0  0  0  0  0  0  0  0  0  0
   24.2350  -11.4879  -15.4775 C   0  0  0  0  0  0  0  0  0  0  0  0
   22.7516  -11.4284  -14.9979 C   0  0  1  0  0  0  0  0  0  0  0  0
   22.0738  -10.3229  -15.6376 C   0  0  0  0  0  0  0  0  0  0  0  0
   21.8641  -10.2456  -16.8520 O   0  0  0  0  0  0  0  0  0  0  0  0
   21.6111   -9.2455  -14.8350 N   0  0  0  0  0  0  0  0  0  0  0  0
   20.9410   -8.0839  -15.4280 C   0  0  1  0  0  0  0  0  0  0  0  0
   19.4748   -8.4465  -15.4678 C   0  0  0  0  0  0  0  0  0  0  0  0
   18.6121   -7.3777  -16.0123 C   0  0  0  0  0  0  0  0  0  0  0  0
   18.9651   -6.1420  -16.5039 C   0  0  0  0  0  0  0  0  0  0  0  0
   17.8763   -5.4676  -16.8942 N   0  0  0  0  0  0  0  0  0  0  0  0
   16.8097   -6.2644  -16.6570 C   0  0  0  0  0  0  0  0  0  0  0  0
   17.2594   -7.4181  -16.1238 N   0  0  0  0  0  0  0  0  0  0  0  0
   21.0964   -6.8910  -14.5613 C   0  0  0  0  0  0  0  0  0  0  0  0
   21.0330   -6.9154  -13.3250 O   0  0  0  0  0  0  0  0  0  0  0  0
   21.3320   -5.6367  -15.1526 O   0  0  0  0  0  0  0  0  0  0  0  0
  2  1  1  1
  2  5  1  0
  3  2  1  0
  4  3  1  0
  5  6  2  0
  7 11  1  0
  7  5  1  0
  8  7  1  0
  9 10  1  0
  9  8  1  0
 10 11  1  0
 11 12  1  6
 12 13  2  0
 12 14  1  0
 14 15  1  0
 15 16  1  1
 15 22  1  0
 16 17  1  0
 17 18  2  0
 17 21  1  0
 18 19  1  0
 19 20  1  0
 21 20  2  0
 22 24  1  0
 23 22  2  0
M  END
$$$$
