CPH.pdb
     RDKit          3D

 24 25  0  0  1  0  0  0  0  0999 V2000
   28.5176  -19.1368  -18.8907 N   0  0  0  0  0  0  0  0  0  0  0  0
   27.7736  -17.9317  -18.6070 C   0  0  1  0  0  0  0  0  0  0  0  0
   27.2238  -17.4814  -19.9702 C   0  0  0  0  0  0  0  0  0  0  0  0
   26.2773  -15.9513  -19.7654 S   0  0  0  0  0  0  0  0  0  0  0  0
   26.6023  -18.2851  -17.7112 C   0  0  0  0  0  0  0  0  0  0  0  0
   25.8796  -19.2018  -18.1924 O   0  0  0  0  0  0  0  0  0  0  0  0
   26.3974  -17.6285  -16.4917 N   0  0  0  0  0  0  0  0  0  0  0  0
   27.5177  -17.1340  -15.6623 C   0  0  0  0  0  0  0  0  0  0  0  0
   27.0207  -15.7569  -15.3193 C   0  0  0  0  0  0  0  0  0  0  0  0
   25.5285  -15.7760  -15.4867 C   0  0  0  0  0  0  0  0  0  0  0  0
   25.2671  -17.2967  -15.7165 C   0  0  1  0  0  0  0  0  0  0  0  0
   23.9332  -17.4910  -16.2399 C   0  0  0  0  0  0  0  0  0  0  0  0
   23.4824  -16.9039  -17.2282 O   0  0  0  0  0  0  0  0  0  0  0  0
   23.0692  -18.4128  -15.5896 N   0  0  0  0  0  0  0  0  0  0  0  0
   21.7109  -18.6642  -16.0813 C   0  0  1  0  0  0  0  0  0  0  0  0
   21.2275  -19.8743  -15.3165 C   0  0  0  0  0  0  0  0  0  0  0  0
   19.8765  -20.3256  -15.7092 C   0  0  0  0  0  0  0  0  0  0  0  0
   19.0256  -19.8009  -16.6547 C   0  0  0  0  0  0  0  0  0  0  0  0
   17.8863  -20.5029  -16.6967 N   0  0  0  0  0  0  0  0  0  0  0  0
   17.9929  -21.4882  -15.7766 C   0  0  0  0  0  0  0  0  0  0  0  0
   19.1978  -21.3771  -15.1821 N   0  0  0  0  0  0  0  0  0  0  0  0
   20.8172  -17.5269  -15.7553 C   0  0  0  0  0  0  0  0  0  0  0  0
   20.8387  -16.9097  -14.6821 O   0  0  0  0  0  0  0  0  0  0  0  0
   19.8737  -17.0984  -16.7064 O   0  0  0  0  0  0  0  0  0  0  0  0
  2  1  1  6
  2  5  1  0
  3  2  1  0
  4  3  1  0
  5  6  2  0
  7 11  1  0
  7  5  1  0
  8  7  1  0
  9 10  1  0
  9  8  1  0
 10 11  1  0
 11 12  1  6
 12 13  2  0
 12 14  1  0
 14 15  1  0
 15 16  1  1
 15 22  1  0
 16 17  1  0
 17 18  2  0
 17 21  1  0
 18 19  1  0
 19 20  1  0
 21 20  2  0
 22 24  1  0
 23 22  2  0
M  END
$$$$
