CPH.pdb
     RDKit          3D

 24 25  0  0  1  0  0  0  0  0999 V2000
   26.3593  -17.3432  -18.3863 N   0  0  0  0  0  0  0  0  0  0  0  0
   26.3921  -17.1820  -16.9513 C   0  0  1  0  0  0  0  0  0  0  0  0
   25.5569  -15.9200  -16.6804 C   0  0  0  0  0  0  0  0  0  0  0  0
   25.6387  -15.5070  -14.9192 S   0  0  0  0  0  0  0  0  0  0  0  0
   25.6909  -18.3662  -16.3146 C   0  0  0  0  0  0  0  0  0  0  0  0
   24.4880  -18.4761  -16.6824 O   0  0  0  0  0  0  0  0  0  0  0  0
   26.3602  -19.2113  -15.4212 N   0  0  0  0  0  0  0  0  0  0  0  0
   27.7731  -19.6044  -15.6128 C   0  0  0  0  0  0  0  0  0  0  0  0
   28.3085  -19.3966  -14.2232 C   0  0  0  0  0  0  0  0  0  0  0  0
   27.1333  -19.4458  -13.2896 C   0  0  0  0  0  0  0  0  0  0  0  0
   25.9984  -19.9129  -14.2527 C   0  0  1  0  0  0  0  0  0  0  0  0
   24.7099  -19.6958  -13.6334 C   0  0  0  0  0  0  0  0  0  0  0  0
   24.5229  -18.9629  -12.6574 O   0  0  0  0  0  0  0  0  0  0  0  0
   23.5723  -20.3592  -14.1670 N   0  0  0  0  0  0  0  0  0  0  0  0
   22.2207  -20.0735  -13.6753 C   0  0  1  0  0  0  0  0  0  0  0  0
   21.9243  -18.6607  -14.1217 C   0  0  0  0  0  0  0  0  0  0  0  0
   20.5337  -18.2343  -13.8622 C   0  0  0  0  0  0  0  0  0  0  0  0
   19.8427  -18.2004  -12.6728 C   0  0  0  0  0  0  0  0  0  0  0  0
   18.5959  -17.7544  -12.8710 N   0  0  0  0  0  0  0  0  0  0  0  0
   18.4720  -17.4965  -14.1927 C   0  0  0  0  0  0  0  0  0  0  0  0
   19.6460  -17.7881  -14.7880 N   0  0  0  0  0  0  0  0  0  0  0  0
   21.2305  -20.9745  -14.3125 C   0  0  0  0  0  0  0  0  0  0  0  0
   21.3659  -21.4739  -15.4374 O   0  0  0  0  0  0  0  0  0  0  0  0
   20.0513  -21.3015  -13.6190 O   0  0  0  0  0  0  0  0  0  0  0  0
  2  1  1  6
  2  5  1  0
  3  2  1  0
  4  3  1  0
  5  6  2  0
  7 11  1  0
  7  5  1  0
  8  7  1  0
  9 10  1  0
  9  8  1  0
 10 11  1  0
 11 12  1  1
 12 13  2  0
 12 14  1  0
 14 15  1  0
 15 16  1  6
 15 22  1  0
 16 17  1  0
 17 18  2  0
 17 21  1  0
 18 19  1  0
 19 20  1  0
 21 20  2  0
 22 24  1  0
 23 22  2  0
M  END
$$$$
