CPH.pdb
     RDKit          3D

 24 25  0  0  1  0  0  0  0  0999 V2000
   29.3452  -23.4811  -16.6938 N   0  0  0  0  0  0  0  0  0  0  0  0
   28.7727  -22.2883  -17.2734 C   0  0  1  0  0  0  0  0  0  0  0  0
   28.1374  -22.7603  -18.5914 C   0  0  0  0  0  0  0  0  0  0  0  0
   27.2100  -21.3961  -19.3384 S   0  0  0  0  0  0  0  0  0  0  0  0
   27.6691  -21.7883  -16.3618 C   0  0  0  0  0  0  0  0  0  0  0  0
   26.7843  -22.6620  -16.1425 O   0  0  0  0  0  0  0  0  0  0  0  0
   27.6856  -20.4853  -15.8496 N   0  0  0  0  0  0  0  0  0  0  0  0
   28.9448  -19.7662  -15.5588 C   0  0  0  0  0  0  0  0  0  0  0  0
   28.6469  -18.4272  -16.1748 C   0  0  0  0  0  0  0  0  0  0  0  0
   27.1524  -18.3070  -16.2587 C   0  0  0  0  0  0  0  0  0  0  0  0
   26.6998  -19.5604  -15.4475 C   0  0  1  0  0  0  0  0  0  0  0  0
   25.2995  -19.8240  -15.6937 C   0  0  0  0  0  0  0  0  0  0  0  0
   24.7890  -19.8738  -16.8169 O   0  0  0  0  0  0  0  0  0  0  0  0
   24.4380  -20.0427  -14.5851 N   0  0  0  0  0  0  0  0  0  0  0  0
   23.0153  -20.3453  -14.7712 C   0  0  1  0  0  0  0  0  0  0  0  0
   22.6669  -21.3177  -13.6684 C   0  0  0  0  0  0  0  0  0  0  0  0
   23.3201  -22.6355  -13.8089 C   0  0  0  0  0  0  0  0  0  0  0  0
   24.1349  -23.0986  -14.8164 C   0  0  0  0  0  0  0  0  0  0  0  0
   24.5145  -24.3580  -14.5666 N   0  0  0  0  0  0  0  0  0  0  0  0
   23.9464  -24.7186  -13.3935 C   0  0  0  0  0  0  0  0  0  0  0  0
   23.2253  -23.6741  -12.9392 N   0  0  0  0  0  0  0  0  0  0  0  0
   22.1922  -19.1261  -14.5864 C   0  0  0  0  0  0  0  0  0  0  0  0
   22.5334  -18.1526  -13.9014 O   0  0  0  0  0  0  0  0  0  0  0  0
   20.9380  -19.0402  -15.2174 O   0  0  0  0  0  0  0  0  0  0  0  0
  2  1  1  1
  2  5  1  0
  3  2  1  0
  4  3  1  0
  5  6  2  0
  7 11  1  0
  7  5  1  0
  8  7  1  0
  9 10  1  0
  9  8  1  0
 10 11  1  0
 11 12  1  6
 12 13  2  0
 12 14  1  0
 14 15  1  0
 15 16  1  1
 15 22  1  0
 16 17  1  0
 17 18  2  0
 17 21  1  0
 18 19  1  0
 19 20  1  0
 21 20  2  0
 22 24  1  0
 23 22  2  0
M  END
$$$$
