CPH.pdb
     RDKit          3D

 24 25  0  0  1  0  0  0  0  0999 V2000
   24.5588  -11.0578  -17.6638 N   0  0  0  0  0  0  0  0  0  0  0  0
   23.4884  -11.5327  -16.8183 C   0  0  1  0  0  0  0  0  0  0  0  0
   24.1968  -12.1836  -15.6191 C   0  0  0  0  0  0  0  0  0  0  0  0
   25.0624  -13.6773  -16.1655 S   0  0  0  0  0  0  0  0  0  0  0  0
   22.6998  -10.3381  -16.3181 C   0  0  0  0  0  0  0  0  0  0  0  0
   23.3621   -9.6149  -15.5228 O   0  0  0  0  0  0  0  0  0  0  0  0
   21.3806  -10.1151  -16.7309 N   0  0  0  0  0  0  0  0  0  0  0  0
   20.9275  -10.3892  -18.1118 C   0  0  0  0  0  0  0  0  0  0  0  0
   19.6399  -11.1169  -17.8407 C   0  0  0  0  0  0  0  0  0  0  0  0
   19.2039  -10.7337  -16.4558 C   0  0  0  0  0  0  0  0  0  0  0  0
   20.2195   -9.5981  -16.1199 C   0  0  1  0  0  0  0  0  0  0  0  0
   20.1953   -9.3232  -14.7005 C   0  0  0  0  0  0  0  0  0  0  0  0
   20.4044  -10.1688  -13.8254 O   0  0  0  0  0  0  0  0  0  0  0  0
   19.9146   -8.0007  -14.2631 N   0  0  0  0  0  0  0  0  0  0  0  0
   19.6883   -7.6962  -12.8467 C   0  0  1  0  0  0  0  0  0  0  0  0
   20.1567   -6.2712  -12.6653 C   0  0  0  0  0  0  0  0  0  0  0  0
   19.9180   -5.7345  -11.3096 C   0  0  0  0  0  0  0  0  0  0  0  0
   20.2278   -6.2884  -10.0887 C   0  0  0  0  0  0  0  0  0  0  0  0
   19.8336   -5.4798   -9.0970 N   0  0  0  0  0  0  0  0  0  0  0  0
   19.2650   -4.3955   -9.6711 C   0  0  0  0  0  0  0  0  0  0  0  0
   19.3182   -4.5539  -11.0089 N   0  0  0  0  0  0  0  0  0  0  0  0
   18.2421   -7.7496  -12.5243 C   0  0  0  0  0  0  0  0  0  0  0  0
   17.3400   -7.4545  -13.3195 O   0  0  0  0  0  0  0  0  0  0  0  0
   17.8378   -8.1579  -11.2405 O   0  0  0  0  0  0  0  0  0  0  0  0
  2  1  1  6
  2  5  1  0
  3  2  1  0
  4  3  1  0
  5  6  2  0
  7 11  1  0
  7  5  1  0
  8  7  1  0
  9 10  1  0
  9  8  1  0
 10 11  1  0
 11 12  1  1
 12 13  2  0
 12 14  1  0
 14 15  1  0
 15 16  1  6
 15 22  1  0
 16 17  1  0
 17 18  2  0
 17 21  1  0
 18 19  1  0
 19 20  1  0
 21 20  2  0
 22 24  1  0
 23 22  2  0
M  END
$$$$
