CPH.pdb
     RDKit          3D

 24 25  0  0  1  0  0  0  0  0999 V2000
   22.0512   -9.8112  -15.9987 N   0  0  0  0  0  0  0  0  0  0  0  0
   21.4190   -8.5125  -16.0061 C   0  0  1  0  0  0  0  0  0  0  0  0
   20.3374   -8.6103  -17.0942 C   0  0  0  0  0  0  0  0  0  0  0  0
   21.1032   -8.4357  -18.7258 S   0  0  0  0  0  0  0  0  0  0  0  0
   20.7356   -8.2989  -14.6694 C   0  0  0  0  0  0  0  0  0  0  0  0
   19.9538   -9.2425  -14.3650 O   0  0  0  0  0  0  0  0  0  0  0  0
   20.9863   -7.1557  -13.9008 N   0  0  0  0  0  0  0  0  0  0  0  0
   22.2763   -6.4343  -13.9547 C   0  0  0  0  0  0  0  0  0  0  0  0
   21.7942   -5.0137  -14.0572 C   0  0  0  0  0  0  0  0  0  0  0  0
   20.3914   -4.9880  -13.5220 C   0  0  0  0  0  0  0  0  0  0  0  0
   20.2632   -6.4272  -12.9338 C   0  0  1  0  0  0  0  0  0  0  0  0
   18.8730   -6.7282  -12.6736 C   0  0  0  0  0  0  0  0  0  0  0  0
   17.9925   -6.7467  -13.5390 O   0  0  0  0  0  0  0  0  0  0  0  0
   18.4733   -7.0246  -11.3427 N   0  0  0  0  0  0  0  0  0  0  0  0
   17.0601   -7.1894  -10.9881 C   0  0  1  0  0  0  0  0  0  0  0  0
   17.0584   -7.5873   -9.5305 C   0  0  0  0  0  0  0  0  0  0  0  0
   15.7053   -7.7461   -8.9587 C   0  0  0  0  0  0  0  0  0  0  0  0
   14.5877   -8.3220   -9.5179 C   0  0  0  0  0  0  0  0  0  0  0  0
   13.5551   -8.2559   -8.6682 N   0  0  0  0  0  0  0  0  0  0  0  0
   13.9988   -7.6353   -7.5516 C   0  0  0  0  0  0  0  0  0  0  0  0
   15.2993   -7.3289   -7.7319 N   0  0  0  0  0  0  0  0  0  0  0  0
   16.3351   -5.9023  -11.1144 C   0  0  0  0  0  0  0  0  0  0  0  0
   15.1480   -5.8017  -11.4517 O   0  0  0  0  0  0  0  0  0  0  0  0
   17.0130   -4.7008  -10.8399 O   0  0  0  0  0  0  0  0  0  0  0  0
  2  1  1  1
  2  5  1  0
  3  2  1  0
  4  3  1  0
  5  6  2  0
  7 11  1  0
  7  5  1  0
  8  7  1  0
  9 10  1  0
  9  8  1  0
 10 11  1  0
 11 12  1  6
 12 13  2  0
 12 14  1  0
 14 15  1  0
 15 16  1  1
 15 22  1  0
 16 17  1  0
 17 18  2  0
 17 21  1  0
 18 19  1  0
 19 20  1  0
 21 20  2  0
 22 24  1  0
 23 22  2  0
M  END
$$$$
