EKF.pdb
     RDKit          3D

 30 30  0  0  1  0  0  0  0  0999 V2000
   10.1993  -15.0104   19.6206 N   0  0  0  0  0  0  0  0  0  0  0  0
    8.9702  -14.4051   20.1609 C   0  0  1  0  0  0  0  0  0  0  0  0
    7.9260  -14.3258   19.1057 C   0  0  0  0  0  0  0  0  0  0  0  0
    8.4382  -13.8914   17.7596 C   0  0  0  0  0  0  0  0  0  0  0  0
    7.4214  -13.9541   16.7008 C   0  0  0  0  0  0  0  0  0  0  0  0
    6.2355  -14.2923   16.8121 O   0  0  0  0  0  0  0  0  0  0  0  0
    8.5539  -15.1096   21.3982 C   0  0  0  0  0  0  0  0  0  0  0  0
    7.4842  -14.7804   22.0172 O   0  0  0  0  0  0  0  0  0  0  0  0
    7.8413  -13.5873   15.4058 O   0  0  0  0  0  0  0  0  0  0  0  0
    9.2791  -16.1796   21.9943 N   0  0  0  0  0  0  0  0  0  0  0  0
    8.7546  -16.9089   23.1444 C   0  0  1  0  0  0  0  0  0  0  0  0
    9.0674  -18.3899   23.0320 C   0  0  0  0  0  0  0  0  0  0  0  0
    8.6828  -18.9355   21.6773 C   0  0  0  0  0  0  0  0  0  0  0  0
    9.1912  -20.3597   21.5957 C   0  0  0  0  0  0  0  0  0  0  0  0
    8.8959  -20.9470   20.2127 C   0  0  0  0  0  0  0  0  0  0  0  0
    9.4643  -22.2753   20.0950 N   0  0  0  0  0  0  0  0  0  0  0  0
    9.3178  -16.3278   24.3783 C   0  0  0  0  0  0  0  0  0  0  0  0
   10.5197  -15.9880   24.3975 O   0  0  0  0  0  0  0  0  0  0  0  0
    8.5464  -16.1376   25.5513 N   0  0  0  0  0  0  0  0  0  0  0  0
    9.1384  -15.5846   26.7724 C   0  0  1  0  0  0  0  0  0  0  0  0
    8.1249  -14.7121   27.4383 C   0  0  0  0  0  0  0  0  0  0  0  0
    7.7837  -13.4945   26.6270 C   0  0  0  0  0  0  0  0  0  0  0  0
    6.5427  -13.3669   26.0600 C   0  0  0  0  0  0  0  0  0  0  0  0
    6.2379  -12.2472   25.3284 C   0  0  0  0  0  0  0  0  0  0  0  0
    7.1319  -11.2191   25.1269 C   0  0  0  0  0  0  0  0  0  0  0  0
    8.3823  -11.3693   25.7095 C   0  0  0  0  0  0  0  0  0  0  0  0
    8.7010  -12.4848   26.4446 C   0  0  0  0  0  0  0  0  0  0  0  0
    9.5166  -16.7179   27.6355 C   0  0  0  0  0  0  0  0  0  0  0  0
    9.2153  -18.0464   27.2797 O   0  0  0  0  0  0  0  0  0  0  0  0
   10.1190  -16.5589   28.7184 O   0  0  0  0  0  0  0  0  0  0  0  0
  2  1  1  6
  2  3  1  0
  2  7  1  0
  3  4  1  0
  4  5  1  0
  5  9  1  0
  5  6  2  0
  7  8  2  0
 10  7  1  0
 10 11  1  0
 11 12  1  6
 12 13  1  0
 13 14  1  0
 15 14  1  0
 16 15  1  0
 17 19  1  0
 17 11  1  0
 18 17  2  0
 20 21  1  1
 20 19  1  0
 21 22  1  0
 22 27  2  0
 22 23  1  0
 23 24  2  0
 24 25  1  0
 26 25  2  0
 27 26  1  0
 28 20  1  0
 28 29  1  0
 30 28  2  0
M  END
$$$$
