EKF.pdb
     RDKit          3D

 30 30  0  0  1  0  0  0  0  0999 V2000
   11.3700  -18.2476   17.9369 N   0  0  0  0  0  0  0  0  0  0  0  0
   11.2207  -18.5797   19.3639 C   0  0  1  0  0  0  0  0  0  0  0  0
   12.4911  -19.1340   19.9014 C   0  0  0  0  0  0  0  0  0  0  0  0
   13.7289  -18.4375   19.4056 C   0  0  0  0  0  0  0  0  0  0  0  0
   14.8442  -19.3543   19.1328 C   0  0  0  0  0  0  0  0  0  0  0  0
   15.0823  -19.9613   18.0801 O   0  0  0  0  0  0  0  0  0  0  0  0
   10.6855  -17.4131   20.1076 C   0  0  0  0  0  0  0  0  0  0  0  0
   11.4577  -16.4771   20.5118 O   0  0  0  0  0  0  0  0  0  0  0  0
   15.7509  -19.5707   20.1905 O   0  0  0  0  0  0  0  0  0  0  0  0
    9.3116  -17.2306   20.4320 N   0  0  0  0  0  0  0  0  0  0  0  0
    8.7766  -15.9165   20.7736 C   0  0  1  0  0  0  0  0  0  0  0  0
    7.4137  -15.7077   20.1390 C   0  0  0  0  0  0  0  0  0  0  0  0
    7.3982  -14.4868   19.2502 C   0  0  0  0  0  0  0  0  0  0  0  0
    7.7874  -14.9304   17.8556 C   0  0  0  0  0  0  0  0  0  0  0  0
    7.9503  -13.7132   16.9408 C   0  0  0  0  0  0  0  0  0  0  0  0
    8.4106  -14.1238   15.6290 N   0  0  0  0  0  0  0  0  0  0  0  0
    8.7160  -15.7905   22.2426 C   0  0  0  0  0  0  0  0  0  0  0  0
    8.8506  -16.8131   22.9472 O   0  0  0  0  0  0  0  0  0  0  0  0
    8.5099  -14.5485   22.8924 N   0  0  0  0  0  0  0  0  0  0  0  0
    8.3250  -14.4683   24.3437 C   0  0  1  0  0  0  0  0  0  0  0  0
    7.9860  -13.0581   24.7019 C   0  0  0  0  0  0  0  0  0  0  0  0
    7.6632  -12.8906   26.1597 C   0  0  0  0  0  0  0  0  0  0  0  0
    8.6381  -13.0600   27.1076 C   0  0  0  0  0  0  0  0  0  0  0  0
    8.3354  -12.8961   28.4356 C   0  0  0  0  0  0  0  0  0  0  0  0
    7.0751  -12.5629   28.8799 C   0  0  0  0  0  0  0  0  0  0  0  0
    6.1034  -12.3966   27.9032 C   0  0  0  0  0  0  0  0  0  0  0  0
    6.3926  -12.5574   26.5702 C   0  0  0  0  0  0  0  0  0  0  0  0
    7.2311  -15.3881   24.7040 C   0  0  0  0  0  0  0  0  0  0  0  0
    7.2743  -16.1569   25.8827 O   0  0  0  0  0  0  0  0  0  0  0  0
    6.2178  -15.5316   23.9875 O   0  0  0  0  0  0  0  0  0  0  0  0
  2  1  1  6
  2  3  1  0
  2  7  1  0
  3  4  1  0
  4  5  1  0
  5  9  1  0
  5  6  2  0
  7  8  2  0
 10  7  1  0
 10 11  1  0
 11 12  1  6
 12 13  1  0
 13 14  1  0
 15 14  1  0
 16 15  1  0
 17 19  1  0
 17 11  1  0
 18 17  2  0
 20 21  1  6
 20 19  1  0
 21 22  1  0
 22 27  2  0
 22 23  1  0
 23 24  2  0
 24 25  1  0
 26 25  2  0
 27 26  1  0
 28 20  1  0
 28 29  1  0
 30 28  2  0
M  END
$$$$
