EKF.pdb
     RDKit          3D

 30 30  0  0  1  0  0  0  0  0999 V2000
    6.5035  -15.7633   19.0805 N   0  0  0  0  0  0  0  0  0  0  0  0
    7.5640  -15.1754   19.9165 C   0  0  1  0  0  0  0  0  0  0  0  0
    7.5936  -13.6983   19.7509 C   0  0  0  0  0  0  0  0  0  0  0  0
    7.6933  -13.2375   18.3224 C   0  0  0  0  0  0  0  0  0  0  0  0
    8.8255  -13.8292   17.5966 C   0  0  0  0  0  0  0  0  0  0  0  0
    8.7857  -14.6931   16.7104 O   0  0  0  0  0  0  0  0  0  0  0  0
    7.4294  -15.6431   21.3178 C   0  0  0  0  0  0  0  0  0  0  0  0
    7.1699  -14.8239   22.2652 O   0  0  0  0  0  0  0  0  0  0  0  0
   10.1084  -13.3612   17.9472 O   0  0  0  0  0  0  0  0  0  0  0  0
    7.5721  -16.9987   21.7279 N   0  0  0  0  0  0  0  0  0  0  0  0
    7.4199  -17.3930   23.1247 C   0  0  1  0  0  0  0  0  0  0  0  0
    7.2578  -18.8974   23.2456 C   0  0  0  0  0  0  0  0  0  0  0  0
    7.1741  -19.3308   24.6899 C   0  0  0  0  0  0  0  0  0  0  0  0
    6.9858  -20.8332   24.7072 C   0  0  0  0  0  0  0  0  0  0  0  0
    7.5292  -21.4182   26.0139 C   0  0  0  0  0  0  0  0  0  0  0  0
    6.4471  -21.6675   26.9456 N   0  0  0  0  0  0  0  0  0  0  0  0
    8.5859  -16.9100   23.8892 C   0  0  0  0  0  0  0  0  0  0  0  0
    9.7334  -17.0992   23.4333 O   0  0  0  0  0  0  0  0  0  0  0  0
    8.4575  -16.2355   25.1284 N   0  0  0  0  0  0  0  0  0  0  0  0
    9.6342  -15.8204   25.8966 C   0  0  1  0  0  0  0  0  0  0  0  0
    9.8856  -14.3714   25.6343 C   0  0  0  0  0  0  0  0  0  0  0  0
    8.6931  -13.5102   25.9401 C   0  0  0  0  0  0  0  0  0  0  0  0
    7.7321  -13.2963   24.9869 C   0  0  0  0  0  0  0  0  0  0  0  0
    6.6424  -12.5156   25.2787 C   0  0  0  0  0  0  0  0  0  0  0  0
    6.4563  -11.9201   26.5065 C   0  0  0  0  0  0  0  0  0  0  0  0
    7.4415  -12.1496   27.4564 C   0  0  0  0  0  0  0  0  0  0  0  0
    8.5375  -12.9291   27.1779 C   0  0  0  0  0  0  0  0  0  0  0  0
    9.3429  -16.0622   27.3211 C   0  0  0  0  0  0  0  0  0  0  0  0
    8.0954  -16.5607   27.7427 O   0  0  0  0  0  0  0  0  0  0  0  0
   10.1812  -15.8390   28.2201 O   0  0  0  0  0  0  0  0  0  0  0  0
  2  1  1  6
  2  3  1  0
  2  7  1  0
  3  4  1  0
  4  5  1  0
  5  9  1  0
  5  6  2  0
  7  8  2  0
 10  7  1  0
 10 11  1  0
 11 12  1  6
 12 13  1  0
 13 14  1  0
 15 14  1  0
 16 15  1  0
 17 19  1  0
 17 11  1  0
 18 17  2  0
 20 21  1  1
 20 19  1  0
 21 22  1  0
 22 27  2  0
 22 23  1  0
 23 24  2  0
 24 25  1  0
 26 25  2  0
 27 26  1  0
 28 20  1  0
 28 29  1  0
 30 28  2  0
M  END
$$$$
