AND.pdb
     RDKit          3D

 22 21  0  0  1  0  0  0  0  0999 V2000
    7.5993  -12.6549   19.3941 C   0  0  0  0  0  0  0  0  0  0  0  0
    8.1007  -13.9743   19.9124 C   0  0  2  0  0  0  0  0  0  0  0  0
    7.0147  -14.9408   19.7822 N   0  0  0  0  0  0  0  0  0  0  0  0
    8.5331  -13.9363   21.3172 C   0  0  0  0  0  0  0  0  0  0  0  0
    9.5207  -13.2074   21.6315 O   0  0  0  0  0  0  0  0  0  0  0  0
    6.1049  -12.2895   25.5105 N   0  0  0  0  0  0  0  0  0  0  0  0
    7.0279  -13.3470   25.4526 C   0  0  0  0  0  0  0  0  0  0  0  0
    7.9964  -13.3014   26.2968 O   0  0  0  0  0  0  0  0  0  0  0  0
    7.0238  -14.4944   24.5539 C   0  0  0  0  0  0  0  0  0  0  0  0
    8.2504  -14.6192   23.7168 C   0  0  2  0  0  0  0  0  0  0  0  0
    7.8723  -14.6914   22.3082 N   0  0  0  0  0  0  0  0  0  0  0  0
    8.9680  -15.9109   24.0280 C   0  0  0  0  0  0  0  0  0  0  0  0
    8.4213  -17.0029   23.7955 O   0  0  0  0  0  0  0  0  0  0  0  0
   10.2710  -15.9036   24.5887 N   0  0  0  0  0  0  0  0  0  0  0  0
   10.9550  -17.1491   24.8550 C   0  0  1  0  0  0  0  0  0  0  0  0
   12.4584  -16.9322   24.7039 C   0  0  0  0  0  0  0  0  0  0  0  0
   12.8130  -16.5911   23.3105 C   0  0  0  0  0  0  0  0  0  0  0  0
   12.1122  -16.9908   22.3440 O   0  0  0  0  0  0  0  0  0  0  0  0
   10.6395  -17.6769   26.2050 C   0  0  0  0  0  0  0  0  0  0  0  0
    9.9717  -16.9614   26.9907 O   0  0  0  0  0  0  0  0  0  0  0  0
   13.9282  -15.8190   23.0114 O   0  0  0  0  0  0  0  0  0  0  0  0
   11.0696  -18.9307   26.5951 O   0  0  0  0  0  0  0  0  0  0  0  0
  2  1  1  1
  2  3  1  0
  4  2  1  0
  4 11  1  0
  5  4  2  0
  7  8  2  0
  7  6  1  0
  9  7  1  0
 10 11  1  0
 10  9  1  1
 10 12  1  0
 12 13  2  0
 12 14  1  0
 14 15  1  0
 15 16  1  1
 16 17  1  0
 17 21  1  0
 18 17  2  0
 19 22  1  0
 19 15  1  0
 20 19  2  0
M  END
$$$$
