AND.pdb
     RDKit          3D

 22 21  0  0  1  0  0  0  0  0999 V2000
    1.9320  -21.0235   21.5455 C   0  0  0  0  0  0  0  0  0  0  0  0
    2.6623  -19.8488   22.1352 C   0  0  2  0  0  0  0  0  0  0  0  0
    2.2774  -18.6635   21.3754 N   0  0  0  0  0  0  0  0  0  0  0  0
    4.1264  -19.9786   22.0980 C   0  0  0  0  0  0  0  0  0  0  0  0
    4.6352  -21.1389   22.0759 O   0  0  0  0  0  0  0  0  0  0  0  0
    6.2953  -16.9806   18.9878 N   0  0  0  0  0  0  0  0  0  0  0  0
    6.8116  -17.9448   19.8694 C   0  0  0  0  0  0  0  0  0  0  0  0
    7.1584  -19.0658   19.3442 O   0  0  0  0  0  0  0  0  0  0  0  0
    7.0061  -17.8323   21.3094 C   0  0  0  0  0  0  0  0  0  0  0  0
    6.4189  -18.9545   22.0948 C   0  0  2  0  0  0  0  0  0  0  0  0
    4.9629  -18.8433   22.0875 N   0  0  0  0  0  0  0  0  0  0  0  0
    6.8423  -18.8597   23.5412 C   0  0  0  0  0  0  0  0  0  0  0  0
    6.3431  -17.9977   24.2848 O   0  0  0  0  0  0  0  0  0  0  0  0
    7.8122  -19.7461   24.0759 N   0  0  0  0  0  0  0  0  0  0  0  0
    8.2421  -19.6107   25.4496 C   0  0  1  0  0  0  0  0  0  0  0  0
    8.1589  -20.9733   26.1326 C   0  0  0  0  0  0  0  0  0  0  0  0
    8.7588  -20.9334   27.4825 C   0  0  0  0  0  0  0  0  0  0  0  0
    8.3884  -20.0838   28.3345 O   0  0  0  0  0  0  0  0  0  0  0  0
    9.6173  -19.0633   25.5484 C   0  0  0  0  0  0  0  0  0  0  0  0
   10.3376  -19.0549   24.5207 O   0  0  0  0  0  0  0  0  0  0  0  0
    9.7505  -21.8275   27.8649 O   0  0  0  0  0  0  0  0  0  0  0  0
   10.1009  -18.5712   26.7455 O   0  0  0  0  0  0  0  0  0  0  0  0
  2  1  1  6
  2  3  1  0
  4  2  1  0
  4 11  1  0
  5  4  2  0
  7  8  2  0
  7  6  1  0
  9  7  1  0
 10 11  1  0
 10  9  1  6
 10 12  1  0
 12 13  2  0
 12 14  1  0
 14 15  1  0
 15 16  1  6
 16 17  1  0
 17 21  1  0
 18 17  2  0
 19 22  1  0
 19 15  1  0
 20 19  2  0
M  END
$$$$
