AND.pdb
     RDKit          3D

 22 21  0  0  1  0  0  0  0  0999 V2000
    8.0423  -12.8205   18.6464 C   0  0  0  0  0  0  0  0  0  0  0  0
    8.7598  -14.0480   19.1356 C   0  0  2  0  0  0  0  0  0  0  0  0
    7.9382  -15.2049   18.7936 N   0  0  0  0  0  0  0  0  0  0  0  0
    9.0056  -14.0555   20.5853 C   0  0  0  0  0  0  0  0  0  0  0  0
    9.8047  -13.2013   21.0725 O   0  0  0  0  0  0  0  0  0  0  0  0
    8.5630  -15.1034   25.8171 N   0  0  0  0  0  0  0  0  0  0  0  0
    7.4246  -15.3350   25.0272 C   0  0  0  0  0  0  0  0  0  0  0  0
    6.3428  -15.6195   25.6609 O   0  0  0  0  0  0  0  0  0  0  0  0
    7.3155  -15.2909   23.5746 C   0  0  0  0  0  0  0  0  0  0  0  0
    8.5993  -15.0053   22.8737 C   0  0  2  0  0  0  0  0  0  0  0  0
    8.3726  -14.9896   21.4313 N   0  0  0  0  0  0  0  0  0  0  0  0
    9.5948  -16.1110   23.1326 C   0  0  0  0  0  0  0  0  0  0  0  0
    9.3086  -17.2888   22.8565 O   0  0  0  0  0  0  0  0  0  0  0  0
   10.8672  -15.8291   23.6927 N   0  0  0  0  0  0  0  0  0  0  0  0
   11.7796  -16.9067   24.0035 C   0  0  1  0  0  0  0  0  0  0  0  0
   13.2073  -16.3665   23.9948 C   0  0  0  0  0  0  0  0  0  0  0  0
   13.6705  -16.0992   22.6172 C   0  0  0  0  0  0  0  0  0  0  0  0
   13.1929  -16.7278   21.6364 O   0  0  0  0  0  0  0  0  0  0  0  0
   11.4701  -17.5350   25.3112 C   0  0  0  0  0  0  0  0  0  0  0  0
   10.5680  -17.0308   26.0233 O   0  0  0  0  0  0  0  0  0  0  0  0
   14.6464  -15.1480   22.3491 O   0  0  0  0  0  0  0  0  0  0  0  0
   12.1580  -18.6532   25.7417 O   0  0  0  0  0  0  0  0  0  0  0  0
  2  1  1  1
  2  3  1  0
  4  2  1  0
  4 11  1  0
  5  4  2  0
  7  8  2  0
  7  6  1  0
  9  7  1  0
 10 11  1  0
 10  9  1  1
 10 12  1  0
 12 13  2  0
 12 14  1  0
 14 15  1  0
 15 16  1  1
 16 17  1  0
 17 21  1  0
 18 17  2  0
 19 22  1  0
 19 15  1  0
 20 19  2  0
M  END
$$$$
