AND.pdb
     RDKit          3D

 22 21  0  0  1  0  0  0  0  0999 V2000
    9.0288  -17.8957   15.7719 C   0  0  0  0  0  0  0  0  0  0  0  0
    9.2440  -16.4227   15.5600 C   0  0  2  0  0  0  0  0  0  0  0  0
   10.3746  -16.2685   14.6498 N   0  0  0  0  0  0  0  0  0  0  0  0
    9.5281  -15.6790   16.7961 C   0  0  0  0  0  0  0  0  0  0  0  0
   10.7313  -15.3949   17.0738 O   0  0  0  0  0  0  0  0  0  0  0  0
    7.9616  -11.7593   20.7525 N   0  0  0  0  0  0  0  0  0  0  0  0
    7.6124  -13.1080   20.5721 C   0  0  0  0  0  0  0  0  0  0  0  0
    7.3666  -13.7781   21.6414 O   0  0  0  0  0  0  0  0  0  0  0  0
    7.4913  -13.8446   19.3204 C   0  0  0  0  0  0  0  0  0  0  0  0
    8.7522  -14.5014   18.8735 C   0  0  2  0  0  0  0  0  0  0  0  0
    8.4924  -15.2824   17.6674 N   0  0  0  0  0  0  0  0  0  0  0  0
    9.2303  -15.4827   19.9171 C   0  0  0  0  0  0  0  0  0  0  0  0
    8.9178  -16.6832   19.8376 O   0  0  0  0  0  0  0  0  0  0  0  0
   10.0393  -15.0564   21.0014 N   0  0  0  0  0  0  0  0  0  0  0  0
   10.5853  -16.0246   21.9258 C   0  0  1  0  0  0  0  0  0  0  0  0
   12.1081  -16.0076   21.8208 C   0  0  0  0  0  0  0  0  0  0  0  0
   12.6526  -17.3768   21.7080 C   0  0  0  0  0  0  0  0  0  0  0  0
   12.0982  -18.2396   20.9777 O   0  0  0  0  0  0  0  0  0  0  0  0
   10.1581  -15.7603   23.3217 C   0  0  0  0  0  0  0  0  0  0  0  0
   10.4691  -16.5867   24.2136 O   0  0  0  0  0  0  0  0  0  0  0  0
   13.7929  -17.7658   22.3990 O   0  0  0  0  0  0  0  0  0  0  0  0
    9.4323  -14.6284   23.6393 O   0  0  0  0  0  0  0  0  0  0  0  0
  2  1  1  1
  2  3  1  0
  4  2  1  0
  4 11  1  0
  5  4  2  0
  7  8  2  0
  7  6  1  0
  9  7  1  0
 10 11  1  0
 10  9  1  1
 10 12  1  0
 12 13  2  0
 12 14  1  0
 14 15  1  0
 15 16  1  1
 16 17  1  0
 17 21  1  0
 18 17  2  0
 19 22  1  0
 19 15  1  0
 20 19  2  0
M  END
$$$$
