AND.pdb
     RDKit          3D

 22 21  0  0  1  0  0  0  0  0999 V2000
    8.9956  -18.0369   16.5353 C   0  0  0  0  0  0  0  0  0  0  0  0
    9.4970  -18.0828   17.9522 C   0  0  2  0  0  0  0  0  0  0  0  0
    8.4338  -18.6464   18.7782 N   0  0  0  0  0  0  0  0  0  0  0  0
    9.8695  -16.7679   18.4945 C   0  0  0  0  0  0  0  0  0  0  0  0
   10.8601  -16.1591   17.9908 O   0  0  0  0  0  0  0  0  0  0  0  0
    7.4340  -12.3673   18.5847 N   0  0  0  0  0  0  0  0  0  0  0  0
    7.5136  -13.6658   19.1148 C   0  0  0  0  0  0  0  0  0  0  0  0
    6.9042  -14.5859   18.4555 O   0  0  0  0  0  0  0  0  0  0  0  0
    8.2045  -14.1023   20.3215 C   0  0  0  0  0  0  0  0  0  0  0  0
    9.4674  -14.8510   20.0656 C   0  0  2  0  0  0  0  0  0  0  0  0
    9.1488  -16.1817   19.5555 N   0  0  0  0  0  0  0  0  0  0  0  0
   10.2217  -15.0632   21.3565 C   0  0  0  0  0  0  0  0  0  0  0  0
   10.5449  -14.0907   22.0602 O   0  0  0  0  0  0  0  0  0  0  0  0
   10.5743  -16.3676   21.7882 N   0  0  0  0  0  0  0  0  0  0  0  0
   11.4720  -16.5452   22.9075 C   0  0  1  0  0  0  0  0  0  0  0  0
   10.9295  -17.6518   23.8083 C   0  0  0  0  0  0  0  0  0  0  0  0
   11.8382  -17.9113   24.9443 C   0  0  0  0  0  0  0  0  0  0  0  0
   12.5497  -16.9940   25.4315 O   0  0  0  0  0  0  0  0  0  0  0  0
   12.8517  -16.8645   22.4660 C   0  0  0  0  0  0  0  0  0  0  0  0
   13.8019  -16.1783   22.9149 O   0  0  0  0  0  0  0  0  0  0  0  0
   11.9436  -19.1715   25.5188 O   0  0  0  0  0  0  0  0  0  0  0  0
   13.0920  -17.8959   21.5786 O   0  0  0  0  0  0  0  0  0  0  0  0
  2  1  1  6
  2  3  1  0
  4  2  1  0
  4 11  1  0
  5  4  2  0
  7  8  2  0
  7  6  1  0
  9  7  1  0
 10 11  1  0
 10  9  1  1
 10 12  1  0
 12 13  2  0
 12 14  1  0
 14 15  1  0
 15 16  1  1
 16 17  1  0
 17 21  1  0
 18 17  2  0
 19 22  1  0
 19 15  1  0
 20 19  2  0
M  END
$$$$
