AND.pdb
     RDKit          3D

 22 21  0  0  1  0  0  0  0  0999 V2000
    9.6408  -17.2432   16.2096 C   0  0  0  0  0  0  0  0  0  0  0  0
    9.2568  -17.7424   17.5750 C   0  0  2  0  0  0  0  0  0  0  0  0
    7.8017  -17.8513   17.6117 N   0  0  0  0  0  0  0  0  0  0  0  0
    9.6925  -16.8669   18.6730 C   0  0  0  0  0  0  0  0  0  0  0  0
   10.9319  -16.6523   18.8264 O   0  0  0  0  0  0  0  0  0  0  0  0
    8.5241  -13.1100   18.8494 N   0  0  0  0  0  0  0  0  0  0  0  0
    7.7953  -13.4084   20.0127 C   0  0  0  0  0  0  0  0  0  0  0  0
    6.7836  -12.6539   20.2573 O   0  0  0  0  0  0  0  0  0  0  0  0
    8.0420  -14.4710   20.9791 C   0  0  0  0  0  0  0  0  0  0  0  0
    9.1749  -15.3709   20.6219 C   0  0  2  0  0  0  0  0  0  0  0  0
    8.7615  -16.2700   19.5482 N   0  0  0  0  0  0  0  0  0  0  0  0
    9.5346  -16.2515   21.7949 C   0  0  0  0  0  0  0  0  0  0  0  0
    8.7766  -17.1738   22.1413 O   0  0  0  0  0  0  0  0  0  0  0  0
   10.7362  -16.0442   22.5198 N   0  0  0  0  0  0  0  0  0  0  0  0
   11.1534  -16.9975   23.5235 C   0  0  1  0  0  0  0  0  0  0  0  0
   12.6422  -17.2846   23.3471 C   0  0  0  0  0  0  0  0  0  0  0  0
   13.1165  -18.2784   24.3326 C   0  0  0  0  0  0  0  0  0  0  0  0
   12.3086  -19.0263   24.9433 O   0  0  0  0  0  0  0  0  0  0  0  0
   10.8774  -16.5118   24.8977 C   0  0  0  0  0  0  0  0  0  0  0  0
   10.5975  -15.2996   25.0634 O   0  0  0  0  0  0  0  0  0  0  0  0
   14.4664  -18.4278   24.6237 O   0  0  0  0  0  0  0  0  0  0  0  0
   10.9259  -17.3722   25.9776 O   0  0  0  0  0  0  0  0  0  0  0  0
  2  1  1  6
  2  3  1  0
  4  2  1  0
  4 11  1  0
  5  4  2  0
  7  8  2  0
  7  6  1  0
  9  7  1  0
 10 11  1  0
 10  9  1  1
 10 12  1  0
 12 13  2  0
 12 14  1  0
 14 15  1  0
 15 16  1  1
 16 17  1  0
 17 21  1  0
 18 17  2  0
 19 22  1  0
 19 15  1  0
 20 19  2  0
M  END
$$$$
