AND.pdb
     RDKit          3D

 22 21  0  0  1  0  0  0  0  0999 V2000
    7.8087  -12.5547   18.5196 C   0  0  0  0  0  0  0  0  0  0  0  0
    8.8386  -13.6439   18.4013 C   0  0  2  0  0  0  0  0  0  0  0  0
    8.1282  -14.9025   18.1979 N   0  0  0  0  0  0  0  0  0  0  0  0
    9.7039  -13.7756   19.5827 C   0  0  0  0  0  0  0  0  0  0  0  0
   10.4416  -12.7987   19.9101 O   0  0  0  0  0  0  0  0  0  0  0  0
   11.6653  -17.5212   23.8566 N   0  0  0  0  0  0  0  0  0  0  0  0
   10.8693  -16.3921   23.6015 C   0  0  0  0  0  0  0  0  0  0  0  0
   10.8714  -15.4803   24.5078 O   0  0  0  0  0  0  0  0  0  0  0  0
   10.0404  -16.1230   22.4334 C   0  0  0  0  0  0  0  0  0  0  0  0
   10.6228  -15.1307   21.4863 C   0  0  2  0  0  0  0  0  0  0  0  0
    9.7247  -14.9602   20.3477 N   0  0  0  0  0  0  0  0  0  0  0  0
   11.9257  -15.6462   20.9229 C   0  0  0  0  0  0  0  0  0  0  0  0
   11.9732  -16.7601   20.3732 O   0  0  0  0  0  0  0  0  0  0  0  0
   13.1129  -14.8748   21.0101 N   0  0  0  0  0  0  0  0  0  0  0  0
   14.3850  -15.4539   20.6404 C   0  0  1  0  0  0  0  0  0  0  0  0
   15.1312  -14.4767   19.7357 C   0  0  0  0  0  0  0  0  0  0  0  0
   14.5411  -14.4430   18.3814 C   0  0  0  0  0  0  0  0  0  0  0  0
   14.5064  -15.4747   17.6606 O   0  0  0  0  0  0  0  0  0  0  0  0
   15.2061  -15.7920   21.8287 C   0  0  0  0  0  0  0  0  0  0  0  0
   16.3278  -16.3272   21.6534 O   0  0  0  0  0  0  0  0  0  0  0  0
   14.0025  -13.2778   17.8508 O   0  0  0  0  0  0  0  0  0  0  0  0
   14.7503  -15.5254   23.1054 O   0  0  0  0  0  0  0  0  0  0  0  0
  2  1  1  1
  2  3  1  0
  4  2  1  0
  4 11  1  0
  5  4  2  0
  7  8  2  0
  7  6  1  0
  9  7  1  0
 10 11  1  0
 10  9  1  1
 10 12  1  0
 12 13  2  0
 12 14  1  0
 14 15  1  0
 15 16  1  6
 16 17  1  0
 17 21  1  0
 18 17  2  0
 19 22  1  0
 19 15  1  0
 20 19  2  0
M  END
$$$$
