AND.pdb
     RDKit          3D

 22 21  0  0  1  0  0  0  0  0999 V2000
    7.5046  -14.8981   19.5147 C   0  0  0  0  0  0  0  0  0  0  0  0
    7.4405  -13.5103   20.0898 C   0  0  2  0  0  0  0  0  0  0  0  0
    8.2508  -12.6430   19.2404 N   0  0  0  0  0  0  0  0  0  0  0  0
    7.9358  -13.4150   21.4709 C   0  0  0  0  0  0  0  0  0  0  0  0
    9.1760  -13.2403   21.6631 O   0  0  0  0  0  0  0  0  0  0  0  0
    6.0565  -12.5701   27.3492 N   0  0  0  0  0  0  0  0  0  0  0  0
    6.8402  -12.9889   26.2611 C   0  0  0  0  0  0  0  0  0  0  0  0
    8.0632  -13.2856   26.5239 O   0  0  0  0  0  0  0  0  0  0  0  0
    6.4386  -13.1317   24.8674 C   0  0  0  0  0  0  0  0  0  0  0  0
    7.5462  -13.5201   23.9491 C   0  0  2  0  0  0  0  0  0  0  0  0
    7.0604  -13.5149   22.5721 N   0  0  0  0  0  0  0  0  0  0  0  0
    7.9918  -14.9345   24.2342 C   0  0  0  0  0  0  0  0  0  0  0  0
    7.2214  -15.8878   24.0265 O   0  0  0  0  0  0  0  0  0  0  0  0
    9.2892  -15.2012   24.7419 N   0  0  0  0  0  0  0  0  0  0  0  0
    9.6927  -16.5596   25.0287 C   0  0  1  0  0  0  0  0  0  0  0  0
   10.8972  -16.9136   24.1603 C   0  0  0  0  0  0  0  0  0  0  0  0
   11.3764  -18.2828   24.4416 C   0  0  0  0  0  0  0  0  0  0  0  0
   10.5729  -19.2055   24.7388 O   0  0  0  0  0  0  0  0  0  0  0  0
   10.0133  -16.7510   26.4644 C   0  0  0  0  0  0  0  0  0  0  0  0
   11.1493  -16.4138   26.8781 O   0  0  0  0  0  0  0  0  0  0  0  0
   12.7260  -18.6068   24.3892 O   0  0  0  0  0  0  0  0  0  0  0  0
    9.0838  -17.2892   27.3334 O   0  0  0  0  0  0  0  0  0  0  0  0
  2  1  1  6
  2  3  1  0
  4  2  1  0
  4 11  1  0
  5  4  2  0
  7  8  2  0
  7  6  1  0
  9  7  1  0
 10 11  1  0
 10  9  1  1
 10 12  1  0
 12 13  2  0
 12 14  1  0
 14 15  1  0
 15 16  1  6
 16 17  1  0
 17 21  1  0
 18 17  2  0
 19 22  1  0
 19 15  1  0
 20 19  2  0
M  END
$$$$
