LQY.pdb
     RDKit          3D

 30 30  0  0  1  0  0  0  0  0999 V2000
   23.7138  -16.2953  -22.7274 C   0  0  0  0  0  0  0  0  0  0  0  0
   24.3662  -15.1328  -22.0427 C   0  0  2  0  0  0  0  0  0  0  0  0
   25.7302  -14.8727  -22.6497 C   0  0  0  0  0  0  0  0  0  0  0  0
   24.5200  -15.3319  -20.5551 C   0  0  0  0  0  0  0  0  0  0  0  0
   23.2021  -15.6915  -19.9224 C   0  0  2  0  0  0  0  0  0  0  0  0
   22.3752  -14.5090  -19.8212 N   0  0  0  0  0  0  0  0  0  0  0  0
   23.3313  -16.3069  -18.6081 C   0  0  0  0  0  0  0  0  0  0  0  0
   23.5688  -15.5700  -17.6134 O   0  0  0  0  0  0  0  0  0  0  0  0
   19.6836  -19.9918  -15.7064 N   0  0  0  0  0  0  0  0  0  0  0  0
   20.7277  -19.8323  -14.7384 C   0  0  0  0  0  0  0  0  0  0  0  0
   20.5875  -20.2772  -13.5744 O   0  0  0  0  0  0  0  0  0  0  0  0
   21.9920  -19.1414  -15.0869 C   0  0  0  0  0  0  0  0  0  0  0  0
   21.9356  -18.6730  -16.4994 C   0  0  0  0  0  0  0  0  0  0  0  0
   23.2826  -18.2013  -17.0165 C   0  0  2  0  0  0  0  0  0  0  0  0
   23.2086  -17.6982  -18.3525 N   0  0  0  0  0  0  0  0  0  0  0  0
   24.3119  -19.2755  -16.8748 C   0  0  0  0  0  0  0  0  0  0  0  0
   24.0512  -20.4908  -17.1043 O   0  0  0  0  0  0  0  0  0  0  0  0
   26.7654  -20.9696   -8.9855 O   0  0  0  0  0  0  0  0  0  0  0  0
   26.4410  -20.4415  -10.2340 C   0  0  0  0  0  0  0  0  0  0  0  0
   27.2318  -19.4682  -10.8260 C   0  0  0  0  0  0  0  0  0  0  0  0
   26.9181  -18.9368  -12.0663 C   0  0  0  0  0  0  0  0  0  0  0  0
   25.8027  -19.3827  -12.7217 C   0  0  0  0  0  0  0  0  0  0  0  0
   25.3839  -18.8870  -14.0384 C   0  0  0  0  0  0  0  0  0  0  0  0
   26.1580  -19.4585  -15.1969 C   0  0  2  0  0  0  0  0  0  0  0  0
   25.6462  -18.9973  -16.4738 N   0  0  0  0  0  0  0  0  0  0  0  0
   26.0385  -20.9372  -15.1777 C   0  0  0  0  0  0  0  0  0  0  0  0
   27.1076  -21.8025  -15.1283 O   0  0  0  0  0  0  0  0  0  0  0  0
   25.0148  -20.3574  -12.1237 C   0  0  0  0  0  0  0  0  0  0  0  0
   25.3212  -20.8896  -10.8911 C   0  0  0  0  0  0  0  0  0  0  0  0
   24.8805  -21.4269  -15.2088 O   0  0  0  0  0  0  0  0  0  0  0  0
  2  1  1  6
  2  3  1  0
  4  2  1  0
  5  6  1  1
  5  4  1  0
  7  8  2  0
  7  5  1  0
  9 10  1  0
 10 12  1  0
 11 10  2  0
 12 13  1  0
 14 15  1  0
 14 13  1  6
 15  7  1  0
 16 14  1  0
 17 16  2  0
 19 29  2  0
 19 18  1  0
 20 19  1  0
 21 22  1  0
 21 20  2  0
 22 28  2  0
 24 23  1  1
 23 22  1  0
 24 25  1  0
 25 16  1  0
 26 27  1  0
 26 24  1  0
 28 29  1  0
 30 26  2  0
M  END
$$$$
