LQY.pdb
     RDKit          3D

 30 30  0  0  1  0  0  0  0  0999 V2000
   28.1102  -18.3584  -13.4219 C   0  0  0  0  0  0  0  0  0  0  0  0
   28.1074  -19.4806  -14.4151 C   0  0  2  0  0  0  0  0  0  0  0  0
   28.5929  -18.9823  -15.7614 C   0  0  0  0  0  0  0  0  0  0  0  0
   26.7499  -20.1162  -14.5866 C   0  0  0  0  0  0  0  0  0  0  0  0
   26.1586  -20.4877  -13.2528 C   0  0  2  0  0  0  0  0  0  0  0  0
   26.9623  -21.5213  -12.6381 N   0  0  0  0  0  0  0  0  0  0  0  0
   24.7731  -20.9317  -13.3290 C   0  0  0  0  0  0  0  0  0  0  0  0
   24.5010  -21.9586  -14.0076 O   0  0  0  0  0  0  0  0  0  0  0  0
   24.0684  -19.9694   -9.0624 N   0  0  0  0  0  0  0  0  0  0  0  0
   22.8144  -20.1911   -9.7190 C   0  0  0  0  0  0  0  0  0  0  0  0
   21.8918  -19.3467   -9.6271 O   0  0  0  0  0  0  0  0  0  0  0  0
   22.5781  -21.4167  -10.5185 C   0  0  0  0  0  0  0  0  0  0  0  0
   21.6333  -21.1171  -11.6299 C   0  0  0  0  0  0  0  0  0  0  0  0
   22.3417  -20.7283  -12.9149 C   0  0  2  0  0  0  0  0  0  0  0  0
   23.6824  -20.2877  -12.6872 N   0  0  0  0  0  0  0  0  0  0  0  0
   21.5410  -19.7252  -13.6804 C   0  0  0  0  0  0  0  0  0  0  0  0
   21.3861  -18.5381  -13.2751 O   0  0  0  0  0  0  0  0  0  0  0  0
   24.1284  -21.7318  -19.9300 O   0  0  0  0  0  0  0  0  0  0  0  0
   23.3806  -20.8920  -19.1063 C   0  0  0  0  0  0  0  0  0  0  0  0
   23.8578  -20.4973  -17.8656 C   0  0  0  0  0  0  0  0  0  0  0  0
   23.1224  -19.6631  -17.0395 C   0  0  0  0  0  0  0  0  0  0  0  0
   21.8977  -19.2187  -17.4577 C   0  0  0  0  0  0  0  0  0  0  0  0
   21.0417  -18.3319  -16.6604 C   0  0  0  0  0  0  0  0  0  0  0  0
   20.1699  -19.0401  -15.6573 C   0  0  2  0  0  0  0  0  0  0  0  0
   20.9047  -20.0436  -14.9102 N   0  0  0  0  0  0  0  0  0  0  0  0
   19.0718  -19.7345  -16.3737 C   0  0  0  0  0  0  0  0  0  0  0  0
   18.1097  -19.0984  -17.1245 O   0  0  0  0  0  0  0  0  0  0  0  0
   21.4252  -19.6175  -18.7012 C   0  0  0  0  0  0  0  0  0  0  0  0
   22.1512  -20.4465  -19.5270 C   0  0  0  0  0  0  0  0  0  0  0  0
   19.0220  -20.9881  -16.2853 O   0  0  0  0  0  0  0  0  0  0  0  0
  2  1  1  1
  2  3  1  0
  4  2  1  0
  5  6  1  6
  5  4  1  0
  7  8  2  0
  7  5  1  0
  9 10  1  0
 10 12  1  0
 11 10  2  0
 12 13  1  0
 14 15  1  0
 14 13  1  1
 15  7  1  0
 16 14  1  0
 17 16  2  0
 19 29  2  0
 19 18  1  0
 20 19  1  0
 21 22  1  0
 21 20  2  0
 22 28  2  0
 24 23  1  6
 23 22  1  0
 24 25  1  0
 25 16  1  0
 26 27  1  0
 26 24  1  0
 28 29  1  0
 30 26  2  0
M  END
$$$$
