LQY.pdb
     RDKit          3D

 30 30  0  0  1  0  0  0  0  0999 V2000
   31.0586  -18.0353  -19.4201 C   0  0  0  0  0  0  0  0  0  0  0  0
   30.6812  -16.7743  -18.7037 C   0  0  2  0  0  0  0  0  0  0  0  0
   31.8083  -16.3417  -17.7876 C   0  0  0  0  0  0  0  0  0  0  0  0
   29.4147  -16.9090  -17.8951 C   0  0  0  0  0  0  0  0  0  0  0  0
   28.2768  -17.3898  -18.7557 C   0  0  2  0  0  0  0  0  0  0  0  0
   27.9374  -16.3698  -19.7235 N   0  0  0  0  0  0  0  0  0  0  0  0
   27.0860  -17.7578  -18.0012 C   0  0  0  0  0  0  0  0  0  0  0  0
   26.3758  -16.8431  -17.5035 O   0  0  0  0  0  0  0  0  0  0  0  0
   22.8905  -22.0328  -19.0696 N   0  0  0  0  0  0  0  0  0  0  0  0
   22.4067  -21.4580  -17.8496 C   0  0  0  0  0  0  0  0  0  0  0  0
   21.3270  -21.8511  -17.3471 O   0  0  0  0  0  0  0  0  0  0  0  0
   23.1660  -20.3910  -17.1553 C   0  0  0  0  0  0  0  0  0  0  0  0
   24.4254  -20.1066  -17.8974 C   0  0  0  0  0  0  0  0  0  0  0  0
   25.4428  -19.3517  -17.0611 C   0  0  2  0  0  0  0  0  0  0  0  0
   26.6523  -19.0912  -17.7770 N   0  0  0  0  0  0  0  0  0  0  0  0
   25.6941  -20.0556  -15.7670 C   0  0  0  0  0  0  0  0  0  0  0  0
   26.8370  -20.4928  -15.4505 O   0  0  0  0  0  0  0  0  0  0  0  0
   26.9343  -20.0920   -7.2966 O   0  0  0  0  0  0  0  0  0  0  0  0
   26.6787  -19.9867   -8.6627 C   0  0  0  0  0  0  0  0  0  0  0  0
   26.5094  -21.1173   -9.4476 C   0  0  0  0  0  0  0  0  0  0  0  0
   26.2551  -21.0235  -10.8062 C   0  0  0  0  0  0  0  0  0  0  0  0
   26.1689  -19.7872  -11.3862 C   0  0  0  0  0  0  0  0  0  0  0  0
   25.9017  -19.5788  -12.8144 C   0  0  0  0  0  0  0  0  0  0  0  0
   24.9764  -20.5939  -13.4320 C   0  0  2  0  0  0  0  0  0  0  0  0
   24.6647  -20.2769  -14.8131 N   0  0  0  0  0  0  0  0  0  0  0  0
   23.6980  -20.6062  -12.6791 C   0  0  0  0  0  0  0  0  0  0  0  0
   22.4627  -20.3794  -13.2419 O   0  0  0  0  0  0  0  0  0  0  0  0
   26.3394  -18.6587  -10.5949 C   0  0  0  0  0  0  0  0  0  0  0  0
   26.5924  -18.7452   -9.2441 C   0  0  0  0  0  0  0  0  0  0  0  0
   23.7531  -20.8401  -11.4446 O   0  0  0  0  0  0  0  0  0  0  0  0
  2  1  1  1
  2  3  1  0
  4  2  1  0
  5  6  1  6
  5  4  1  0
  7  8  2  0
  7  5  1  0
  9 10  1  0
 10 12  1  0
 11 10  2  0
 12 13  1  0
 14 15  1  0
 14 13  1  6
 15  7  1  0
 16 14  1  0
 17 16  2  0
 19 29  2  0
 19 18  1  0
 20 19  1  0
 21 22  1  0
 21 20  2  0
 22 28  2  0
 24 23  1  1
 23 22  1  0
 24 25  1  0
 25 16  1  0
 26 27  1  0
 26 24  1  0
 28 29  1  0
 30 26  2  0
M  END
$$$$
