LQY.pdb
     RDKit          3D

 30 30  0  0  1  0  0  0  0  0999 V2000
   29.4845  -16.9570  -17.7519 C   0  0  0  0  0  0  0  0  0  0  0  0
   28.0082  -17.0368  -17.9964 C   0  0  2  0  0  0  0  0  0  0  0  0
   27.4923  -15.7012  -18.4932 C   0  0  0  0  0  0  0  0  0  0  0  0
   27.2260  -17.4409  -16.7712 C   0  0  0  0  0  0  0  0  0  0  0  0
   27.7680  -18.7173  -16.1851 C   0  0  2  0  0  0  0  0  0  0  0  0
   28.2665  -19.5640  -17.2466 N   0  0  0  0  0  0  0  0  0  0  0  0
   26.7958  -19.4570  -15.3909 C   0  0  0  0  0  0  0  0  0  0  0  0
   26.1303  -18.8393  -14.5166 O   0  0  0  0  0  0  0  0  0  0  0  0
   24.8498  -25.5251  -15.7263 N   0  0  0  0  0  0  0  0  0  0  0  0
   24.1493  -24.9983  -14.5930 C   0  0  0  0  0  0  0  0  0  0  0  0
   23.3309  -25.7113  -13.9649 O   0  0  0  0  0  0  0  0  0  0  0  0
   24.3733  -23.6055  -14.1376 C   0  0  0  0  0  0  0  0  0  0  0  0
   25.3904  -22.9506  -15.0060 C   0  0  0  0  0  0  0  0  0  0  0  0
   25.6751  -21.5163  -14.5988 C   0  0  2  0  0  0  0  0  0  0  0  0
   26.5326  -20.8458  -15.5254 N   0  0  0  0  0  0  0  0  0  0  0  0
   26.1986  -21.4550  -13.2004 C   0  0  0  0  0  0  0  0  0  0  0  0
   27.3765  -21.8076  -12.9075 O   0  0  0  0  0  0  0  0  0  0  0  0
   28.7181  -19.2966   -5.2516 O   0  0  0  0  0  0  0  0  0  0  0  0
   28.3363  -19.5196   -6.5734 C   0  0  0  0  0  0  0  0  0  0  0  0
   28.8366  -20.5961   -7.2903 C   0  0  0  0  0  0  0  0  0  0  0  0
   28.4636  -20.8265   -8.6044 C   0  0  0  0  0  0  0  0  0  0  0  0
   27.5814  -19.9723   -9.2083 C   0  0  0  0  0  0  0  0  0  0  0  0
   27.1214  -20.1283  -10.5935 C   0  0  0  0  0  0  0  0  0  0  0  0
   25.9127  -21.0120  -10.7551 C   0  0  2  0  0  0  0  0  0  0  0  0
   25.4054  -20.9968  -12.1144 N   0  0  0  0  0  0  0  0  0  0  0  0
   24.8289  -20.5181   -9.8704 C   0  0  0  0  0  0  0  0  0  0  0  0
   23.6786  -19.9087  -10.3169 O   0  0  0  0  0  0  0  0  0  0  0  0
   27.0839  -18.8961   -8.4852 C   0  0  0  0  0  0  0  0  0  0  0  0
   27.4508  -18.6616   -7.1788 C   0  0  0  0  0  0  0  0  0  0  0  0
   24.9769  -20.6691   -8.6306 O   0  0  0  0  0  0  0  0  0  0  0  0
  2  1  1  1
  2  3  1  0
  4  2  1  0
  5  6  1  6
  5  4  1  0
  7  8  2  0
  7  5  1  0
  9 10  1  0
 10 12  1  0
 11 10  2  0
 12 13  1  0
 14 15  1  0
 14 13  1  6
 15  7  1  0
 16 14  1  0
 17 16  2  0
 19 29  2  0
 19 18  1  0
 20 19  1  0
 21 22  1  0
 21 20  2  0
 22 28  2  0
 24 23  1  6
 23 22  1  0
 24 25  1  0
 25 16  1  0
 26 27  1  0
 26 24  1  0
 28 29  1  0
 30 26  2  0
M  END
$$$$
