LQY.pdb
     RDKit          3D

 30 30  0  0  1  0  0  0  0  0999 V2000
   28.1564  -16.2813  -15.9404 C   0  0  0  0  0  0  0  0  0  0  0  0
   27.5750  -17.3205  -16.8503 C   0  0  2  0  0  0  0  0  0  0  0  0
   27.8062  -16.9308  -18.2965 C   0  0  0  0  0  0  0  0  0  0  0  0
   26.0989  -17.5411  -16.6305 C   0  0  0  0  0  0  0  0  0  0  0  0
   25.5902  -18.6667  -17.4912 C   0  0  2  0  0  0  0  0  0  0  0  0
   25.6058  -18.2598  -18.8792 N   0  0  0  0  0  0  0  0  0  0  0  0
   24.2523  -19.1196  -17.1337 C   0  0  0  0  0  0  0  0  0  0  0  0
   23.2821  -18.3302  -17.2899 O   0  0  0  0  0  0  0  0  0  0  0  0
   19.7874  -20.3504  -17.4089 N   0  0  0  0  0  0  0  0  0  0  0  0
   20.5587  -20.5258  -18.6035 C   0  0  0  0  0  0  0  0  0  0  0  0
   20.2014  -19.9818  -19.6754 O   0  0  0  0  0  0  0  0  0  0  0  0
   21.7909  -21.3498  -18.6018 C   0  0  0  0  0  0  0  0  0  0  0  0
   22.0617  -21.8456  -17.2239 C   0  0  0  0  0  0  0  0  0  0  0  0
   22.5983  -20.7632  -16.3048 C   0  0  2  0  0  0  0  0  0  0  0  0
   23.9474  -20.4049  -16.6129 N   0  0  0  0  0  0  0  0  0  0  0  0
   22.4318  -21.1527  -14.8716 C   0  0  0  0  0  0  0  0  0  0  0  0
   23.1835  -22.0021  -14.3141 O   0  0  0  0  0  0  0  0  0  0  0  0
   27.1562  -20.9141   -9.9307 O   0  0  0  0  0  0  0  0  0  0  0  0
   25.8626  -20.6405  -10.3718 C   0  0  0  0  0  0  0  0  0  0  0  0
   24.7796  -20.7299   -9.5103 C   0  0  0  0  0  0  0  0  0  0  0  0
   23.4901  -20.4602   -9.9388 C   0  0  0  0  0  0  0  0  0  0  0  0
   23.2808  -20.0974  -11.2415 C   0  0  0  0  0  0  0  0  0  0  0  0
   21.9563  -19.7893  -11.7942 C   0  0  0  0  0  0  0  0  0  0  0  0
   21.3556  -20.8895  -12.6288 C   0  0  2  0  0  0  0  0  0  0  0  0
   21.4188  -20.5926  -14.0476 N   0  0  0  0  0  0  0  0  0  0  0  0
   19.9243  -21.0441  -12.2701 C   0  0  0  0  0  0  0  0  0  0  0  0
   19.4734  -21.6170  -11.1028 O   0  0  0  0  0  0  0  0  0  0  0  0
   24.3693  -20.0097  -12.0993 C   0  0  0  0  0  0  0  0  0  0  0  0
   25.6535  -20.2765  -11.6797 C   0  0  0  0  0  0  0  0  0  0  0  0
   19.0707  -20.6216  -13.0915 O   0  0  0  0  0  0  0  0  0  0  0  0
  2  1  1  1
  2  3  1  0
  4  2  1  0
  5  6  1  6
  5  4  1  0
  7  8  2  0
  7  5  1  0
  9 10  1  0
 10 12  1  0
 11 10  2  0
 12 13  1  0
 14 15  1  0
 14 13  1  6
 15  7  1  0
 16 14  1  0
 17 16  2  0
 19 29  2  0
 19 18  1  0
 20 19  1  0
 21 22  1  0
 21 20  2  0
 22 28  2  0
 24 23  1  1
 23 22  1  0
 24 25  1  0
 25 16  1  0
 26 27  1  0
 26 24  1  0
 28 29  1  0
 30 26  2  0
M  END
$$$$
