LQY.pdb
     RDKit          3D

 30 30  0  0  1  0  0  0  0  0999 V2000
   23.6869  -33.5003  -13.2685 C   0  0  0  0  0  0  0  0  0  0  0  0
   24.6601  -34.5898  -13.6025 C   0  0  2  0  0  0  0  0  0  0  0  0
   23.9290  -35.7685  -14.2129 C   0  0  0  0  0  0  0  0  0  0  0  0
   25.4491  -35.0657  -12.4079 C   0  0  0  0  0  0  0  0  0  0  0  0
   26.1768  -33.9213  -11.7544 C   0  0  2  0  0  0  0  0  0  0  0  0
   27.0733  -33.3088  -12.7100 N   0  0  0  0  0  0  0  0  0  0  0  0
   26.9249  -34.3052  -10.5646 C   0  0  0  0  0  0  0  0  0  0  0  0
   28.0893  -34.7678  -10.7026 O   0  0  0  0  0  0  0  0  0  0  0  0
   26.3502  -32.0236   -5.3828 N   0  0  0  0  0  0  0  0  0  0  0  0
   27.3826  -32.9194   -4.9532 C   0  0  0  0  0  0  0  0  0  0  0  0
   27.6726  -33.0170   -3.7371 O   0  0  0  0  0  0  0  0  0  0  0  0
   28.1289  -33.7479   -5.9299 C   0  0  0  0  0  0  0  0  0  0  0  0
   27.7219  -33.3808   -7.3145 C   0  0  0  0  0  0  0  0  0  0  0  0
   27.2587  -34.5761   -8.1274 C   0  0  2  0  0  0  0  0  0  0  0  0
   26.4380  -34.1980   -9.2350 N   0  0  0  0  0  0  0  0  0  0  0  0
   26.5930  -35.5881   -7.2522 C   0  0  0  0  0  0  0  0  0  0  0  0
   25.4656  -35.3792   -6.7203 O   0  0  0  0  0  0  0  0  0  0  0  0
   24.0733  -43.1207   -3.5060 O   0  0  0  0  0  0  0  0  0  0  0  0
   24.7800  -42.1616   -4.2295 C   0  0  0  0  0  0  0  0  0  0  0  0
   26.1006  -41.8668   -3.9261 C   0  0  0  0  0  0  0  0  0  0  0  0
   26.8118  -40.9153   -4.6391 C   0  0  0  0  0  0  0  0  0  0  0  0
   26.1968  -40.2518   -5.6657 C   0  0  0  0  0  0  0  0  0  0  0  0
   26.8609  -39.2291   -6.4828 C   0  0  0  0  0  0  0  0  0  0  0  0
   26.5214  -37.8108   -6.1069 C   0  0  2  0  0  0  0  0  0  0  0  0
   27.1857  -36.8468   -6.9639 N   0  0  0  0  0  0  0  0  0  0  0  0
   26.9734  -37.5560   -4.7169 C   0  0  0  0  0  0  0  0  0  0  0  0
   26.1723  -37.6786   -3.6046 O   0  0  0  0  0  0  0  0  0  0  0  0
   24.8742  -40.5514   -5.9646 C   0  0  0  0  0  0  0  0  0  0  0  0
   24.1618  -41.4960   -5.2598 C   0  0  0  0  0  0  0  0  0  0  0  0
   28.1695  -37.2047   -4.5502 O   0  0  0  0  0  0  0  0  0  0  0  0
  2  1  1  1
  2  3  1  0
  4  2  1  0
  5  6  1  6
  5  4  1  0
  7  8  2  0
  7  5  1  0
  9 10  1  0
 10 12  1  0
 11 10  2  0
 12 13  1  0
 14 15  1  0
 14 13  1  1
 15  7  1  0
 16 14  1  0
 17 16  2  0
 19 29  2  0
 19 18  1  0
 20 19  1  0
 21 22  1  0
 21 20  2  0
 22 28  2  0
 24 23  1  6
 23 22  1  0
 24 25  1  0
 25 16  1  0
 26 27  1  0
 26 24  1  0
 28 29  1  0
 30 26  2  0
M  END
$$$$
