LQY.pdb
     RDKit          3D

 30 30  0  0  1  0  0  0  0  0999 V2000
   43.0077  -10.4461   -1.5256 C   0  0  0  0  0  0  0  0  0  0  0  0
   44.3586   -9.8592   -1.2494 C   0  0  2  0  0  0  0  0  0  0  0  0
   44.3276   -9.0748    0.0469 C   0  0  0  0  0  0  0  0  0  0  0  0
   44.8512   -8.9602   -2.3563 C   0  0  0  0  0  0  0  0  0  0  0  0
   44.8689   -9.6900   -3.6730 C   0  0  2  0  0  0  0  0  0  0  0  0
   46.1227  -10.3965   -3.8180 N   0  0  0  0  0  0  0  0  0  0  0  0
   44.6643   -8.8235   -4.8263 C   0  0  0  0  0  0  0  0  0  0  0  0
   45.6457   -8.1767   -5.2815 O   0  0  0  0  0  0  0  0  0  0  0  0
   41.7128   -9.4710  -10.0973 N   0  0  0  0  0  0  0  0  0  0  0  0
   41.6108  -10.2202   -8.8802 C   0  0  0  0  0  0  0  0  0  0  0  0
   41.0930  -11.3623   -8.8794 O   0  0  0  0  0  0  0  0  0  0  0  0
   42.1119   -9.6668   -7.5996 C   0  0  0  0  0  0  0  0  0  0  0  0
   42.8098   -8.3752   -7.8494 C   0  0  0  0  0  0  0  0  0  0  0  0
   43.3043   -7.7180   -6.5736 C   0  0  2  0  0  0  0  0  0  0  0  0
   43.4229   -8.6455   -5.4923 N   0  0  0  0  0  0  0  0  0  0  0  0
   42.4532   -6.5425   -6.2171 C   0  0  0  0  0  0  0  0  0  0  0  0
   41.2766   -6.6740   -5.7744 O   0  0  0  0  0  0  0  0  0  0  0  0
   39.7357    1.6655   -4.4728 O   0  0  0  0  0  0  0  0  0  0  0  0
   40.5007    0.5175   -4.6715 C   0  0  0  0  0  0  0  0  0  0  0  0
   40.9154   -0.2596   -3.6003 C   0  0  0  0  0  0  0  0  0  0  0  0
   41.6759   -1.4023   -3.7870 C   0  0  0  0  0  0  0  0  0  0  0  0
   42.0257   -1.7723   -5.0572 C   0  0  0  0  0  0  0  0  0  0  0  0
   42.8261   -2.9642   -5.3628 C   0  0  0  0  0  0  0  0  0  0  0  0
   42.0596   -4.0799   -6.0227 C   0  0  2  0  0  0  0  0  0  0  0  0
   42.9134   -5.2053   -6.3536 N   0  0  0  0  0  0  0  0  0  0  0  0
   41.4709   -3.5806   -7.2898 C   0  0  0  0  0  0  0  0  0  0  0  0
   41.7814   -4.0718   -8.5373 O   0  0  0  0  0  0  0  0  0  0  0  0
   41.6074   -0.9900   -6.1257 C   0  0  0  0  0  0  0  0  0  0  0  0
   40.8513    0.1469   -5.9468 C   0  0  0  0  0  0  0  0  0  0  0  0
   40.6328   -2.6461   -7.2123 O   0  0  0  0  0  0  0  0  0  0  0  0
  2  1  1  6
  2  3  1  0
  4  2  1  0
  5  6  1  6
  5  4  1  0
  7  8  2  0
  7  5  1  0
  9 10  1  0
 10 12  1  0
 11 10  2  0
 12 13  1  0
 14 15  1  0
 14 13  1  6
 15  7  1  0
 16 14  1  0
 17 16  2  0
 19 29  2  0
 19 18  1  0
 20 19  1  0
 21 22  1  0
 21 20  2  0
 22 28  2  0
 24 23  1  6
 23 22  1  0
 24 25  1  0
 25 16  1  0
 26 27  1  0
 26 24  1  0
 28 29  1  0
 30 26  2  0
M  END
$$$$
