CNW.pdb
     RDKit          3D

 29 30  0  0  1  0  0  0  0  0999 V2000
    6.3979  -20.2561   20.5780 N   0  0  0  0  0  0  0  0  0  0  0  0
    6.0425  -18.9818   21.1477 C   0  0  1  0  0  0  0  0  0  0  0  0
    5.6841  -19.0821   22.6142 C   0  0  0  0  0  0  0  0  0  0  0  0
    7.1393  -19.0233   23.6705 S   0  0  0  0  0  0  0  0  0  0  0  0
    7.1016  -17.9767   20.9066 C   0  0  0  0  0  0  0  0  0  0  0  0
    8.2611  -18.3904   20.6612 O   0  0  0  0  0  0  0  0  0  0  0  0
    7.5387  -12.4757   18.6496 N   0  0  0  0  0  0  0  0  0  0  0  0
    8.0265  -13.2255   19.7726 C   0  0  0  0  0  0  0  0  0  0  0  0
    9.1509  -12.9279   20.2041 O   0  0  0  0  0  0  0  0  0  0  0  0
    7.1262  -14.2662   20.2815 C   0  0  0  0  0  0  0  0  0  0  0  0
    7.7596  -15.5750   20.5840 C   0  0  2  0  0  0  0  0  0  0  0  0
    6.7941  -16.5921   20.9574 N   0  0  0  0  0  0  0  0  0  0  0  0
    8.8215  -15.4960   21.6200 C   0  0  0  0  0  0  0  0  0  0  0  0
    9.8339  -14.7938   21.3921 O   0  0  0  0  0  0  0  0  0  0  0  0
    8.7572  -16.1736   22.8638 N   0  0  0  0  0  0  0  0  0  0  0  0
    9.6918  -15.9532   23.9644 C   0  0  1  0  0  0  0  0  0  0  0  0
    9.5017  -14.6051   24.5664 C   0  0  0  0  0  0  0  0  0  0  0  0
    8.2231  -14.3803   25.2412 C   0  0  0  0  0  0  0  0  0  0  0  0
    7.1900  -15.2982   25.4135 C   0  0  0  0  0  0  0  0  0  0  0  0
    6.1754  -14.6948   26.0569 N   0  0  0  0  0  0  0  0  0  0  0  0
    6.4944  -13.4000   26.3230 C   0  0  0  0  0  0  0  0  0  0  0  0
    5.8362  -12.3839   26.9550 C   0  0  0  0  0  0  0  0  0  0  0  0
    6.4826  -11.1758   27.0663 C   0  0  0  0  0  0  0  0  0  0  0  0
    7.7409  -10.9434   26.5797 C   0  0  0  0  0  0  0  0  0  0  0  0
    8.3930  -11.9768   25.9439 C   0  0  0  0  0  0  0  0  0  0  0  0
    7.7804  -13.2113   25.8080 C   0  0  0  0  0  0  0  0  0  0  0  0
    9.8202  -17.0921   24.8724 C   0  0  0  0  0  0  0  0  0  0  0  0
   10.5963  -17.1177   25.8677 O   0  0  0  0  0  0  0  0  0  0  0  0
    9.0564  -18.2258   24.6626 O   0  0  0  0  0  0  0  0  0  0  0  0
  2  5  1  0
  2  1  1  1
  3  2  1  0
  4  3  1  0
  5  6  2  0
  7  8  1  0
  8 10  1  0
  9  8  2  0
 11 10  1  1
 12 11  1  0
 12  5  1  0
 13 11  1  0
 13 14  2  0
 15 13  1  0
 16 15  1  0
 16 27  1  0
 16 17  1  1
 18 17  1  0
 19 18  2  0
 20 21  1  0
 20 19  1  0
 21 26  2  0
 22 21  1  0
 22 23  2  0
 23 24  1  0
 24 25  2  0
 26 18  1  0
 26 25  1  0
 27 28  2  0
 27 29  1  0
M  END
$$$$
