CNW.pdb
     RDKit          3D

 29 30  0  0  1  0  0  0  0  0999 V2000
    7.4021  -20.1597   20.3230 N   0  0  0  0  0  0  0  0  0  0  0  0
    8.5102  -20.2162   21.2414 C   0  0  1  0  0  0  0  0  0  0  0  0
    9.3632  -21.4503   21.0453 C   0  0  0  0  0  0  0  0  0  0  0  0
   10.2003  -21.4465   19.4528 S   0  0  0  0  0  0  0  0  0  0  0  0
    9.3144  -18.9752   21.1827 C   0  0  0  0  0  0  0  0  0  0  0  0
   10.4205  -19.0179   20.5907 O   0  0  0  0  0  0  0  0  0  0  0  0
    8.8658  -16.3176   18.8296 N   0  0  0  0  0  0  0  0  0  0  0  0
    8.0612  -15.7620   19.8808 C   0  0  0  0  0  0  0  0  0  0  0  0
    6.8520  -15.6133   19.6471 O   0  0  0  0  0  0  0  0  0  0  0  0
    8.7738  -15.4327   21.1202 C   0  0  0  0  0  0  0  0  0  0  0  0
    9.5673  -16.5355   21.7201 C   0  0  2  0  0  0  0  0  0  0  0  0
    8.8313  -17.7846   21.7854 N   0  0  0  0  0  0  0  0  0  0  0  0
   10.1140  -16.2120   23.0632 C   0  0  0  0  0  0  0  0  0  0  0  0
   10.9851  -15.3165   23.1588 O   0  0  0  0  0  0  0  0  0  0  0  0
    9.7045  -16.8617   24.2550 N   0  0  0  0  0  0  0  0  0  0  0  0
   10.3241  -16.6435   25.5596 C   0  0  1  0  0  0  0  0  0  0  0  0
    9.9952  -15.2916   26.0891 C   0  0  0  0  0  0  0  0  0  0  0  0
    8.5724  -14.9551   26.1449 C   0  0  0  0  0  0  0  0  0  0  0  0
    7.4957  -15.8317   26.0364 C   0  0  0  0  0  0  0  0  0  0  0  0
    6.3529  -15.1272   26.1075 N   0  0  0  0  0  0  0  0  0  0  0  0
    6.6277  -13.8044   26.2610 C   0  0  0  0  0  0  0  0  0  0  0  0
    5.8438  -12.6944   26.3969 C   0  0  0  0  0  0  0  0  0  0  0  0
    6.4737  -11.4832   26.5572 C   0  0  0  0  0  0  0  0  0  0  0  0
    7.8345  -11.3362   26.5870 C   0  0  0  0  0  0  0  0  0  0  0  0
    8.6131  -12.4639   26.4480 C   0  0  0  0  0  0  0  0  0  0  0  0
    8.0220  -13.7054   26.2836 C   0  0  0  0  0  0  0  0  0  0  0  0
   10.2041  -17.7795   26.4723 C   0  0  0  0  0  0  0  0  0  0  0  0
    9.5663  -18.8356   26.2052 O   0  0  0  0  0  0  0  0  0  0  0  0
   10.8182  -17.7320   27.7106 O   0  0  0  0  0  0  0  0  0  0  0  0
  2  5  1  0
  2  1  1  6
  3  2  1  0
  4  3  1  0
  5  6  2  0
  7  8  1  0
  8 10  1  0
  9  8  2  0
 11 10  1  1
 12 11  1  0
 12  5  1  0
 13 11  1  0
 13 14  2  0
 15 13  1  0
 16 15  1  0
 16 27  1  0
 16 17  1  1
 18 17  1  0
 19 18  2  0
 20 21  1  0
 20 19  1  0
 21 26  2  0
 22 21  1  0
 22 23  2  0
 23 24  1  0
 24 25  2  0
 26 18  1  0
 26 25  1  0
 27 28  2  0
 27 29  1  0
M  END
$$$$
