CNW.pdb
     RDKit          3D

 29 30  0  0  1  0  0  0  0  0999 V2000
    8.2236  -14.8561   16.6633 N   0  0  0  0  0  0  0  0  0  0  0  0
    8.6672  -14.5159   17.9908 C   0  0  1  0  0  0  0  0  0  0  0  0
    8.1063  -13.1945   18.4686 C   0  0  0  0  0  0  0  0  0  0  0  0
    8.5143  -12.8708   20.1906 S   0  0  0  0  0  0  0  0  0  0  0  0
    8.3841  -15.6119   18.9441 C   0  0  0  0  0  0  0  0  0  0  0  0
    7.4691  -16.4215   18.6556 O   0  0  0  0  0  0  0  0  0  0  0  0
   11.1159  -19.1526   19.4830 N   0  0  0  0  0  0  0  0  0  0  0  0
   10.3246  -18.8748   20.6483 C   0  0  0  0  0  0  0  0  0  0  0  0
   10.7696  -19.2648   21.7385 O   0  0  0  0  0  0  0  0  0  0  0  0
    9.0695  -18.1543   20.4072 C   0  0  0  0  0  0  0  0  0  0  0  0
    8.9502  -16.8288   21.0663 C   0  0  2  0  0  0  0  0  0  0  0  0
    9.1354  -15.7247   20.1428 N   0  0  0  0  0  0  0  0  0  0  0  0
    9.8589  -16.6595   22.2294 C   0  0  0  0  0  0  0  0  0  0  0  0
   11.0565  -16.3572   22.0186 O   0  0  0  0  0  0  0  0  0  0  0  0
    9.4482  -16.8201   23.5769 N   0  0  0  0  0  0  0  0  0  0  0  0
   10.0312  -16.0932   24.7017 C   0  0  1  0  0  0  0  0  0  0  0  0
    9.5816  -14.6741   24.7129 C   0  0  0  0  0  0  0  0  0  0  0  0
    8.1956  -14.4453   25.1223 C   0  0  0  0  0  0  0  0  0  0  0  0
    7.1451  -15.3588   25.0828 C   0  0  0  0  0  0  0  0  0  0  0  0
    6.0257  -14.7527   25.5152 N   0  0  0  0  0  0  0  0  0  0  0  0
    6.2910  -13.4604   25.8447 C   0  0  0  0  0  0  0  0  0  0  0  0
    5.5249  -12.4432   26.3384 C   0  0  0  0  0  0  0  0  0  0  0  0
    6.1415  -11.2387   26.5806 C   0  0  0  0  0  0  0  0  0  0  0  0
    7.4722  -11.0108   26.3537 C   0  0  0  0  0  0  0  0  0  0  0  0
    8.2329  -12.0451   25.8551 C   0  0  0  0  0  0  0  0  0  0  0  0
    7.6543  -13.2761   25.5953 C   0  0  0  0  0  0  0  0  0  0  0  0
    9.9979  -16.8276   25.9656 C   0  0  0  0  0  0  0  0  0  0  0  0
   10.5659  -16.4385   27.0237 O   0  0  0  0  0  0  0  0  0  0  0  0
    9.3069  -18.0230   26.0461 O   0  0  0  0  0  0  0  0  0  0  0  0
  2  5  1  0
  2  1  1  6
  3  2  1  0
  4  3  1  0
  5  6  2  0
  7  8  1  0
  8 10  1  0
  9  8  2  0
 11 10  1  6
 12 11  1  0
 12  5  1  0
 13 11  1  0
 13 14  2  0
 15 13  1  0
 16 15  1  0
 16 27  1  0
 16 17  1  1
 18 17  1  0
 19 18  2  0
 20 21  1  0
 20 19  1  0
 21 26  2  0
 22 21  1  0
 22 23  2  0
 23 24  1  0
 24 25  2  0
 26 18  1  0
 26 25  1  0
 27 28  2  0
 27 29  1  0
M  END
$$$$
