CNW.pdb
     RDKit          3D

 29 30  0  0  1  0  0  0  0  0999 V2000
    7.6639  -16.1738   19.4301 N   0  0  0  0  0  0  0  0  0  0  0  0
    8.3278  -15.6116   20.5780 C   0  0  1  0  0  0  0  0  0  0  0  0
    7.3934  -14.7998   21.4481 C   0  0  0  0  0  0  0  0  0  0  0  0
    6.0364  -15.7914   22.0901 S   0  0  0  0  0  0  0  0  0  0  0  0
    9.0314  -16.6585   21.3520 C   0  0  0  0  0  0  0  0  0  0  0  0
    9.1038  -17.8092   20.8556 O   0  0  0  0  0  0  0  0  0  0  0  0
   13.7156  -17.6545   22.4197 N   0  0  0  0  0  0  0  0  0  0  0  0
   13.3505  -16.2877   22.1754 C   0  0  0  0  0  0  0  0  0  0  0  0
   14.2631  -15.4477   22.1961 O   0  0  0  0  0  0  0  0  0  0  0  0
   11.9249  -16.0452   21.9277 C   0  0  0  0  0  0  0  0  0  0  0  0
   10.9894  -16.6270   22.9238 C   0  0  2  0  0  0  0  0  0  0  0  0
    9.5987  -16.3494   22.6157 N   0  0  0  0  0  0  0  0  0  0  0  0
   11.2787  -16.2158   24.3218 C   0  0  0  0  0  0  0  0  0  0  0  0
   12.4472  -16.3407   24.7565 O   0  0  0  0  0  0  0  0  0  0  0  0
   10.3024  -15.6845   25.2020 N   0  0  0  0  0  0  0  0  0  0  0  0
   10.1375  -16.1061   26.5908 C   0  0  1  0  0  0  0  0  0  0  0  0
    8.7086  -16.3878   26.8987 C   0  0  0  0  0  0  0  0  0  0  0  0
    7.7321  -15.4890   26.2829 C   0  0  0  0  0  0  0  0  0  0  0  0
    6.6928  -15.8373   25.4237 C   0  0  0  0  0  0  0  0  0  0  0  0
    6.0418  -14.7206   25.0541 N   0  0  0  0  0  0  0  0  0  0  0  0
    6.6106  -13.6324   25.6384 C   0  0  0  0  0  0  0  0  0  0  0  0
    6.3283  -12.2966   25.6057 C   0  0  0  0  0  0  0  0  0  0  0  0
    7.1196  -11.4580   26.3541 C   0  0  0  0  0  0  0  0  0  0  0  0
    8.1661  -11.8914   27.1229 C   0  0  0  0  0  0  0  0  0  0  0  0
    8.4402  -13.2411   27.1462 C   0  0  0  0  0  0  0  0  0  0  0  0
    7.6699  -14.1235   26.4074 C   0  0  0  0  0  0  0  0  0  0  0  0
   11.1345  -17.0768   27.0398 C   0  0  0  0  0  0  0  0  0  0  0  0
   12.0028  -17.5975   26.2858 O   0  0  0  0  0  0  0  0  0  0  0  0
   11.1619  -17.4680   28.3661 O   0  0  0  0  0  0  0  0  0  0  0  0
  2  5  1  0
  2  1  1  6
  3  2  1  0
  4  3  1  0
  5  6  2  0
  7  8  1  0
  8 10  1  0
  9  8  2  0
 11 10  1  6
 12 11  1  0
 12  5  1  0
 13 11  1  0
 13 14  2  0
 15 13  1  0
 16 15  1  0
 16 27  1  0
 16 17  1  6
 18 17  1  0
 19 18  2  0
 20 21  1  0
 20 19  1  0
 21 26  2  0
 22 21  1  0
 22 23  2  0
 23 24  1  0
 24 25  2  0
 26 18  1  0
 26 25  1  0
 27 28  2  0
 27 29  1  0
M  END
$$$$
