CNW.pdb
     RDKit          3D

 29 30  0  0  1  0  0  0  0  0999 V2000
    6.6621  -16.1720   19.5344 N   0  0  0  0  0  0  0  0  0  0  0  0
    7.6044  -15.4975   20.3899 C   0  0  1  0  0  0  0  0  0  0  0  0
    6.9452  -14.4643   21.2771 C   0  0  0  0  0  0  0  0  0  0  0  0
    8.1443  -13.5658   22.2730 S   0  0  0  0  0  0  0  0  0  0  0  0
    8.4024  -16.4675   21.1724 C   0  0  0  0  0  0  0  0  0  0  0  0
    7.8019  -17.4379   21.6954 O   0  0  0  0  0  0  0  0  0  0  0  0
   11.5351  -19.2743   19.8630 N   0  0  0  0  0  0  0  0  0  0  0  0
   11.8454  -17.8968   20.1227 C   0  0  0  0  0  0  0  0  0  0  0  0
   12.0326  -17.1655   19.1383 O   0  0  0  0  0  0  0  0  0  0  0  0
   11.9048  -17.5146   21.5379 C   0  0  0  0  0  0  0  0  0  0  0  0
   10.6078  -17.1478   22.1616 C   0  0  2  0  0  0  0  0  0  0  0  0
    9.8027  -16.2863   21.3155 N   0  0  0  0  0  0  0  0  0  0  0  0
   10.7480  -16.5309   23.5059 C   0  0  0  0  0  0  0  0  0  0  0  0
   11.2976  -15.4087   23.5989 O   0  0  0  0  0  0  0  0  0  0  0  0
   10.2920  -17.1415   24.7015 N   0  0  0  0  0  0  0  0  0  0  0  0
   10.4113  -16.5365   26.0256 C   0  0  1  0  0  0  0  0  0  0  0  0
    9.9770  -15.1128   26.0048 C   0  0  0  0  0  0  0  0  0  0  0  0
    8.5318  -14.8849   25.9890 C   0  0  0  0  0  0  0  0  0  0  0  0
    7.5319  -15.8374   25.8087 C   0  0  0  0  0  0  0  0  0  0  0  0
    6.3367  -15.2220   25.8290 N   0  0  0  0  0  0  0  0  0  0  0  0
    6.5020  -13.8856   26.0180 C   0  0  0  0  0  0  0  0  0  0  0  0
    5.6301  -12.8403   26.1289 C   0  0  0  0  0  0  0  0  0  0  0  0
    6.1571  -11.5887   26.3421 C   0  0  0  0  0  0  0  0  0  0  0  0
    7.4993  -11.3409   26.4476 C   0  0  0  0  0  0  0  0  0  0  0  0
    8.3675  -12.4042   26.3331 C   0  0  0  0  0  0  0  0  0  0  0  0
    7.8817  -13.6829   26.1174 C   0  0  0  0  0  0  0  0  0  0  0  0
    9.9193  -17.3822   27.1122 C   0  0  0  0  0  0  0  0  0  0  0  0
    9.2838  -18.4587   26.9368 O   0  0  0  0  0  0  0  0  0  0  0  0
   10.1504  -17.0150   28.4254 O   0  0  0  0  0  0  0  0  0  0  0  0
  2  5  1  0
  2  1  1  1
  3  2  1  0
  4  3  1  0
  5  6  2  0
  7  8  1  0
  8 10  1  0
  9  8  2  0
 11 10  1  6
 12 11  1  0
 12  5  1  0
 13 11  1  0
 13 14  2  0
 15 13  1  0
 16 15  1  0
 16 27  1  0
 16 17  1  6
 18 17  1  0
 19 18  2  0
 20 21  1  0
 20 19  1  0
 21 26  2  0
 22 21  1  0
 22 23  2  0
 23 24  1  0
 24 25  2  0
 26 18  1  0
 26 25  1  0
 27 28  2  0
 27 29  1  0
M  END
$$$$
