CNW.pdb
     RDKit          3D

 29 30  0  0  1  0  0  0  0  0999 V2000
    8.1723  -17.3811   20.6860 N   0  0  0  0  0  0  0  0  0  0  0  0
    8.9788  -18.5497   20.9276 C   0  0  1  0  0  0  0  0  0  0  0  0
    9.1140  -19.4244   19.7005 C   0  0  0  0  0  0  0  0  0  0  0  0
    7.5134  -19.8928   19.0255 S   0  0  0  0  0  0  0  0  0  0  0  0
   10.2972  -18.1803   21.4891 C   0  0  0  0  0  0  0  0  0  0  0  0
   11.1239  -19.0999   21.7051 O   0  0  0  0  0  0  0  0  0  0  0  0
   13.6732  -16.3775   19.9396 N   0  0  0  0  0  0  0  0  0  0  0  0
   12.7788  -15.2984   20.2512 C   0  0  0  0  0  0  0  0  0  0  0  0
   12.4130  -14.5791   19.3090 O   0  0  0  0  0  0  0  0  0  0  0  0
   12.4002  -15.1743   21.6632 C   0  0  0  0  0  0  0  0  0  0  0  0
   11.8819  -16.4105   22.3027 C   0  0  2  0  0  0  0  0  0  0  0  0
   10.5965  -16.8214   21.7687 N   0  0  0  0  0  0  0  0  0  0  0  0
   11.7981  -16.3234   23.7835 C   0  0  0  0  0  0  0  0  0  0  0  0
   12.8421  -16.0800   24.4322 O   0  0  0  0  0  0  0  0  0  0  0  0
   10.5957  -16.5001   24.5137 N   0  0  0  0  0  0  0  0  0  0  0  0
   10.5086  -16.4465   25.9707 C   0  0  1  0  0  0  0  0  0  0  0  0
   10.0030  -15.1234   26.4285 C   0  0  0  0  0  0  0  0  0  0  0  0
    8.5677  -14.8941   26.2611 C   0  0  0  0  0  0  0  0  0  0  0  0
    7.5948  -15.8416   25.9525 C   0  0  0  0  0  0  0  0  0  0  0  0
    6.4034  -15.2259   25.8567 N   0  0  0  0  0  0  0  0  0  0  0  0
    6.5450  -13.8941   26.0919 C   0  0  0  0  0  0  0  0  0  0  0  0
    5.6645  -12.8508   26.1305 C   0  0  0  0  0  0  0  0  0  0  0  0
    6.1633  -11.6047   26.4271 C   0  0  0  0  0  0  0  0  0  0  0  0
    7.4857  -11.3603   26.6830 C   0  0  0  0  0  0  0  0  0  0  0  0
    8.3629  -12.4214   26.6399 C   0  0  0  0  0  0  0  0  0  0  0  0
    7.9055  -13.6947   26.3447 C   0  0  0  0  0  0  0  0  0  0  0  0
    9.9269  -17.6437   26.5760 C   0  0  0  0  0  0  0  0  0  0  0  0
    9.3287  -18.5447   25.9250 O   0  0  0  0  0  0  0  0  0  0  0  0
   10.0233  -17.8375   27.9420 O   0  0  0  0  0  0  0  0  0  0  0  0
  2  5  1  0
  2  1  1  6
  3  2  1  0
  4  3  1  0
  5  6  2  0
  7  8  1  0
  8 10  1  0
  9  8  2  0
 11 10  1  6
 12 11  1  0
 12  5  1  0
 13 11  1  0
 13 14  2  0
 15 13  1  0
 16 15  1  0
 16 27  1  0
 16 17  1  6
 18 17  1  0
 19 18  2  0
 20 21  1  0
 20 19  1  0
 21 26  2  0
 22 21  1  0
 22 23  2  0
 23 24  1  0
 24 25  2  0
 26 18  1  0
 26 25  1  0
 27 28  2  0
 27 29  1  0
M  END
$$$$
