CNW.pdb
     RDKit          3D

 29 30  0  0  1  0  0  0  0  0999 V2000
    4.0634  -18.8718   18.8336 N   0  0  0  0  0  0  0  0  0  0  0  0
    4.7484  -17.9140   19.6631 C   0  0  1  0  0  0  0  0  0  0  0  0
    3.7983  -16.9563   20.3482 C   0  0  0  0  0  0  0  0  0  0  0  0
    2.5865  -17.8169   21.3619 S   0  0  0  0  0  0  0  0  0  0  0  0
    5.6422  -18.5896   20.6299 C   0  0  0  0  0  0  0  0  0  0  0  0
    5.4656  -19.8148   20.8383 O   0  0  0  0  0  0  0  0  0  0  0  0
   10.0883  -19.9534   22.4441 N   0  0  0  0  0  0  0  0  0  0  0  0
    9.7784  -19.9731   21.0424 C   0  0  0  0  0  0  0  0  0  0  0  0
   10.5555  -20.5945   20.3015 O   0  0  0  0  0  0  0  0  0  0  0  0
    8.5654  -19.2474   20.6494 C   0  0  0  0  0  0  0  0  0  0  0  0
    7.8972  -18.4766   21.7288 C   0  0  2  0  0  0  0  0  0  0  0  0
    6.6608  -17.8552   21.2912 N   0  0  0  0  0  0  0  0  0  0  0  0
    8.7714  -17.4521   22.3562 C   0  0  0  0  0  0  0  0  0  0  0  0
    9.5171  -16.7648   21.6203 O   0  0  0  0  0  0  0  0  0  0  0  0
    8.8122  -17.2024   23.7512 N   0  0  0  0  0  0  0  0  0  0  0  0
    9.9252  -16.5459   24.4322 C   0  0  1  0  0  0  0  0  0  0  0  0
    9.6141  -15.1173   24.7117 C   0  0  0  0  0  0  0  0  0  0  0  0
    8.3023  -14.8519   25.3030 C   0  0  0  0  0  0  0  0  0  0  0  0
    7.3122  -15.7833   25.6059 C   0  0  0  0  0  0  0  0  0  0  0  0
    6.2456  -15.1362   26.1071 N   0  0  0  0  0  0  0  0  0  0  0  0
    6.4880  -13.7990   26.1511 C   0  0  0  0  0  0  0  0  0  0  0  0
    5.7564  -12.7278   26.5783 C   0  0  0  0  0  0  0  0  0  0  0  0
    6.3356  -11.4840   26.4938 C   0  0  0  0  0  0  0  0  0  0  0  0
    7.5969  -11.2683   26.0074 C   0  0  0  0  0  0  0  0  0  0  0  0
    8.3235  -12.3574   25.5792 C   0  0  0  0  0  0  0  0  0  0  0  0
    7.7802  -13.6295   25.6450 C   0  0  0  0  0  0  0  0  0  0  0  0
   10.5124  -17.3383   25.5117 C   0  0  0  0  0  0  0  0  0  0  0  0
    9.9862  -18.3821   25.9883 O   0  0  0  0  0  0  0  0  0  0  0  0
   11.7201  -16.9542   26.0654 O   0  0  0  0  0  0  0  0  0  0  0  0
  2  5  1  0
  2  1  1  1
  3  2  1  0
  4  3  1  0
  5  6  2  0
  7  8  1  0
  8 10  1  0
  9  8  2  0
 11 10  1  6
 12 11  1  0
 12  5  1  0
 13 11  1  0
 13 14  2  0
 15 13  1  0
 16 15  1  0
 16 27  1  0
 16 17  1  1
 18 17  1  0
 19 18  2  0
 20 21  1  0
 20 19  1  0
 21 26  2  0
 22 21  1  0
 22 23  2  0
 23 24  1  0
 24 25  2  0
 26 18  1  0
 26 25  1  0
 27 28  2  0
 27 29  1  0
M  END
$$$$
