CNW.pdb
     RDKit          3D

 29 30  0  0  1  0  0  0  0  0999 V2000
    6.7522  -16.7222   20.4701 N   0  0  0  0  0  0  0  0  0  0  0  0
    7.8416  -15.8137   20.7204 C   0  0  1  0  0  0  0  0  0  0  0  0
    7.3661  -14.4419   21.1458 C   0  0  0  0  0  0  0  0  0  0  0  0
    6.8673  -14.4061   22.8740 S   0  0  0  0  0  0  0  0  0  0  0  0
    8.8029  -16.3885   21.6876 C   0  0  0  0  0  0  0  0  0  0  0  0
    8.4148  -17.3397   22.4090 O   0  0  0  0  0  0  0  0  0  0  0  0
   13.0187  -14.8165   20.1474 N   0  0  0  0  0  0  0  0  0  0  0  0
   12.6746  -16.1142   20.6561 C   0  0  0  0  0  0  0  0  0  0  0  0
   12.5441  -17.0284   19.8278 O   0  0  0  0  0  0  0  0  0  0  0  0
   12.5166  -16.2048   22.1119 C   0  0  0  0  0  0  0  0  0  0  0  0
   11.1421  -16.4940   22.5943 C   0  0  2  0  0  0  0  0  0  0  0  0
   10.1183  -15.8640   21.7812 N   0  0  0  0  0  0  0  0  0  0  0  0
   10.9269  -16.1423   24.0217 C   0  0  0  0  0  0  0  0  0  0  0  0
   11.5810  -15.1933   24.5130 O   0  0  0  0  0  0  0  0  0  0  0  0
   10.0162  -16.8224   24.8693 N   0  0  0  0  0  0  0  0  0  0  0  0
   10.0721  -16.7835   26.3283 C   0  0  1  0  0  0  0  0  0  0  0  0
    8.7067  -16.8438   26.9183 C   0  0  0  0  0  0  0  0  0  0  0  0
    7.7030  -15.9785   26.2982 C   0  0  0  0  0  0  0  0  0  0  0  0
    6.6593  -16.3662   25.4616 C   0  0  0  0  0  0  0  0  0  0  0  0
    5.9799  -15.2712   25.0783 N   0  0  0  0  0  0  0  0  0  0  0  0
    6.5338  -14.1595   25.6318 C   0  0  0  0  0  0  0  0  0  0  0  0
    6.2232  -12.8308   25.5755 C   0  0  0  0  0  0  0  0  0  0  0  0
    7.0071  -11.9605   26.2950 C   0  0  0  0  0  0  0  0  0  0  0  0
    8.0732  -12.3559   27.0573 C   0  0  0  0  0  0  0  0  0  0  0  0
    8.3758  -13.6988   27.1045 C   0  0  0  0  0  0  0  0  0  0  0  0
    7.6139  -14.6123   26.3953 C   0  0  0  0  0  0  0  0  0  0  0  0
   11.1021  -17.6451   26.9070 C   0  0  0  0  0  0  0  0  0  0  0  0
   11.2857  -18.8485   26.5728 O   0  0  0  0  0  0  0  0  0  0  0  0
   11.9491  -17.1437   27.8786 O   0  0  0  0  0  0  0  0  0  0  0  0
  2  5  1  0
  2  1  1  1
  3  2  1  0
  4  3  1  0
  5  6  2  0
  7  8  1  0
  8 10  1  0
  9  8  2  0
 11 10  1  6
 12 11  1  0
 12  5  1  0
 13 11  1  0
 13 14  2  0
 15 13  1  0
 16 15  1  0
 16 27  1  0
 16 17  1  1
 18 17  1  0
 19 18  2  0
 20 21  1  0
 20 19  1  0
 21 26  2  0
 22 21  1  0
 22 23  2  0
 23 24  1  0
 24 25  2  0
 26 18  1  0
 26 25  1  0
 27 28  2  0
 27 29  1  0
M  END
$$$$
