WPW.pdb
     RDKit          3D

 36 40  0  0  1  0  0  0  0  0999 V2000
   23.5668  -19.5120  -17.6762 N   0  0  0  0  0  0  0  0  0  0  0  0
   24.3137  -18.7630  -16.6828 C   0  0  1  0  0  0  0  0  0  0  0  0
   23.3529  -17.8555  -15.9570 C   0  0  0  0  0  0  0  0  0  0  0  0
   23.3433  -16.5404  -16.6431 C   0  0  0  0  0  0  0  0  0  0  0  0
   22.5853  -16.2169  -17.7776 C   0  0  0  0  0  0  0  0  0  0  0  0
   22.8017  -14.9292  -18.0816 N   0  0  0  0  0  0  0  0  0  0  0  0
   23.6612  -14.3634  -17.2212 C   0  0  0  0  0  0  0  0  0  0  0  0
   24.1917  -13.0847  -17.1276 C   0  0  0  0  0  0  0  0  0  0  0  0
   25.0786  -12.8220  -16.1116 C   0  0  0  0  0  0  0  0  0  0  0  0
   25.4364  -13.7994  -15.2057 C   0  0  0  0  0  0  0  0  0  0  0  0
   24.8904  -15.0607  -15.3265 C   0  0  0  0  0  0  0  0  0  0  0  0
   24.0010  -15.3764  -16.3191 C   0  0  0  0  0  0  0  0  0  0  0  0
   25.0987  -19.6453  -15.8089 C   0  0  0  0  0  0  0  0  0  0  0  0
   24.5244  -20.6600  -15.3397 O   0  0  0  0  0  0  0  0  0  0  0  0
   26.4313  -19.3881  -15.4990 N   0  0  0  0  0  0  0  0  0  0  0  0
   27.3029  -18.4078  -16.1074 C   0  0  0  0  0  0  0  0  0  0  0  0
   28.6912  -19.0900  -16.0535 C   0  0  0  0  0  0  0  0  0  0  0  0
   28.6397  -19.6460  -14.6490 C   0  0  0  0  0  0  0  0  0  0  0  0
   27.2022  -20.0899  -14.4919 C   0  0  1  0  0  0  0  0  0  0  0  0
   26.6997  -19.8774  -13.1211 C   0  0  0  0  0  0  0  0  0  0  0  0
   26.5303  -18.6906  -12.7163 O   0  0  0  0  0  0  0  0  0  0  0  0
   26.3817  -20.9017  -12.1942 N   0  0  0  0  0  0  0  0  0  0  0  0
   25.9879  -20.6586  -10.8089 C   0  0  1  0  0  0  0  0  0  0  0  0
   24.8881  -19.6804  -10.7066 C   0  0  0  0  0  0  0  0  0  0  0  0
   23.6104  -20.2271  -11.1955 C   0  0  0  0  0  0  0  0  0  0  0  0
   22.7568  -21.1163  -10.5243 C   0  0  0  0  0  0  0  0  0  0  0  0
   21.7077  -21.4324  -11.2890 N   0  0  0  0  0  0  0  0  0  0  0  0
   21.8396  -20.7682  -12.4689 C   0  0  0  0  0  0  0  0  0  0  0  0
   21.0154  -20.7416  -13.5804 C   0  0  0  0  0  0  0  0  0  0  0  0
   21.3722  -19.9570  -14.6494 C   0  0  0  0  0  0  0  0  0  0  0  0
   22.5348  -19.1991  -14.6296 C   0  0  0  0  0  0  0  0  0  0  0  0
   23.3426  -19.2368  -13.5190 C   0  0  0  0  0  0  0  0  0  0  0  0
   22.9983  -20.0250  -12.4298 C   0  0  0  0  0  0  0  0  0  0  0  0
   25.7806  -21.8764  -10.0627 C   0  0  0  0  0  0  0  0  0  0  0  0
   25.5298  -21.9875   -8.7062 O   0  0  0  0  0  0  0  0  0  0  0  0
   25.8356  -22.9879  -10.6999 O   0  0  0  0  0  0  0  0  0  0  0  0
  2  1  1  6
  2  3  1  0
  3  4  1  0
  4  5  2  0
  5  6  1  0
  7  8  2  0
  7  6  1  0
  9  8  1  0
 10  9  2  0
 11 10  1  0
 11 12  2  0
 12  4  1  0
 12  7  1  0
 13  2  1  0
 13 14  2  0
 15 13  1  0
 16 15  1  0
 17 18  1  0
 17 16  1  0
 18 19  1  0
 19 15  1  0
 19 20  1  1
 20 22  1  0
 21 20  2  0
 22 23  1  0
 23 34  1  0
 23 24  1  6
 24 25  1  0
 25 26  2  0
 26 27  1  0
 28 29  2  0
 28 27  1  0
 30 29  1  0
 31 30  2  0
 32 31  1  0
 32 33  2  0
 33 25  1  0
 33 28  1  0
 34 36  2  0
 34 35  1  0
M  END
$$$$
