WPW.pdb
     RDKit          3D

 36 40  0  0  1  0  0  0  0  0999 V2000
   24.8708  -19.5298  -10.3752 N   0  0  0  0  0  0  0  0  0  0  0  0
   26.1774  -20.0062  -10.7892 C   0  0  1  0  0  0  0  0  0  0  0  0
   26.4913  -21.2575  -10.0086 C   0  0  0  0  0  0  0  0  0  0  0  0
   26.5993  -20.8983   -8.5735 C   0  0  0  0  0  0  0  0  0  0  0  0
   25.5326  -20.5277   -7.7421 C   0  0  0  0  0  0  0  0  0  0  0  0
   26.0079  -20.3218   -6.5055 N   0  0  0  0  0  0  0  0  0  0  0  0
   27.3319  -20.5301   -6.4516 C   0  0  0  0  0  0  0  0  0  0  0  0
   28.2562  -20.4374   -5.4208 C   0  0  0  0  0  0  0  0  0  0  0  0
   29.5728  -20.7110   -5.7024 C   0  0  0  0  0  0  0  0  0  0  0  0
   29.9717  -21.0684   -6.9741 C   0  0  0  0  0  0  0  0  0  0  0  0
   29.0275  -21.1518   -7.9765 C   0  0  0  0  0  0  0  0  0  0  0  0
   27.7018  -20.8912   -7.7508 C   0  0  0  0  0  0  0  0  0  0  0  0
   26.2674  -20.1577  -12.2478 C   0  0  0  0  0  0  0  0  0  0  0  0
   25.2164  -20.4597  -12.8670 O   0  0  0  0  0  0  0  0  0  0  0  0
   27.4616  -19.9770  -12.9402 N   0  0  0  0  0  0  0  0  0  0  0  0
   28.7709  -19.7182  -12.3838 C   0  0  0  0  0  0  0  0  0  0  0  0
   29.4324  -18.8105  -13.4488 C   0  0  0  0  0  0  0  0  0  0  0  0
   29.0055  -19.5443  -14.6993 C   0  0  0  0  0  0  0  0  0  0  0  0
   27.5996  -20.0041  -14.3828 C   0  0  1  0  0  0  0  0  0  0  0  0
   27.2983  -21.3227  -14.9719 C   0  0  0  0  0  0  0  0  0  0  0  0
   27.4411  -22.3536  -14.2522 O   0  0  0  0  0  0  0  0  0  0  0  0
   26.8537  -21.5478  -16.2990 N   0  0  0  0  0  0  0  0  0  0  0  0
   26.3649  -22.8331  -16.7916 C   0  0  1  0  0  0  0  0  0  0  0  0
   25.2484  -23.3522  -15.9788 C   0  0  0  0  0  0  0  0  0  0  0  0
   24.1694  -22.3619  -15.8192 C   0  0  0  0  0  0  0  0  0  0  0  0
   23.7631  -21.3936  -16.7506 C   0  0  0  0  0  0  0  0  0  0  0  0
   22.7819  -20.6380  -16.2492 N   0  0  0  0  0  0  0  0  0  0  0  0
   22.5180  -21.0826  -14.9908 C   0  0  0  0  0  0  0  0  0  0  0  0
   21.5838  -20.6522  -14.0649 C   0  0  0  0  0  0  0  0  0  0  0  0
   21.5053  -21.2983  -12.8557 C   0  0  0  0  0  0  0  0  0  0  0  0
   22.3406  -22.3649  -12.5540 C   0  0  0  0  0  0  0  0  0  0  0  0
   23.2631  -22.7797  -13.4837 C   0  0  0  0  0  0  0  0  0  0  0  0
   23.3573  -22.1378  -14.7105 C   0  0  0  0  0  0  0  0  0  0  0  0
   26.1238  -22.8335  -18.2145 C   0  0  0  0  0  0  0  0  0  0  0  0
   26.1548  -23.9269  -19.0624 O   0  0  0  0  0  0  0  0  0  0  0  0
   25.8561  -21.7134  -18.7787 O   0  0  0  0  0  0  0  0  0  0  0  0
  2  1  1  6
  2  3  1  0
  3  4  1  0
  4  5  2  0
  5  6  1  0
  7  8  2  0
  7  6  1  0
  9  8  1  0
 10  9  2  0
 11 10  1  0
 11 12  2  0
 12  4  1  0
 12  7  1  0
 13  2  1  0
 13 14  2  0
 15 13  1  0
 16 15  1  0
 17 18  1  0
 17 16  1  0
 18 19  1  0
 19 15  1  0
 19 20  1  1
 20 22  1  0
 21 20  2  0
 22 23  1  0
 23 34  1  0
 23 24  1  1
 24 25  1  0
 25 26  2  0
 26 27  1  0
 28 29  2  0
 28 27  1  0
 30 29  1  0
 31 30  2  0
 32 31  1  0
 32 33  2  0
 33 25  1  0
 33 28  1  0
 34 36  2  0
 34 35  1  0
M  END
$$$$
