WPW.pdb
     RDKit          3D

 36 40  0  0  1  0  0  0  0  0999 V2000
   26.0058  -19.2997  -11.9373 N   0  0  0  0  0  0  0  0  0  0  0  0
   25.8134  -20.7214  -12.1550 C   0  0  1  0  0  0  0  0  0  0  0  0
   25.4367  -21.3525  -10.8384 C   0  0  0  0  0  0  0  0  0  0  0  0
   26.2675  -20.7411   -9.7724 C   0  0  0  0  0  0  0  0  0  0  0  0
   25.8270  -19.7956   -8.8353 C   0  0  0  0  0  0  0  0  0  0  0  0
   26.8422  -19.5122   -8.0066 N   0  0  0  0  0  0  0  0  0  0  0  0
   27.9424  -20.2087   -8.3282 C   0  0  0  0  0  0  0  0  0  0  0  0
   29.2189  -20.2517   -7.7859 C   0  0  0  0  0  0  0  0  0  0  0  0
   30.1452  -21.0817   -8.3698 C   0  0  0  0  0  0  0  0  0  0  0  0
   29.8211  -21.8539   -9.4664 C   0  0  0  0  0  0  0  0  0  0  0  0
   28.5427  -21.7882   -9.9811 C   0  0  0  0  0  0  0  0  0  0  0  0
   27.5803  -20.9793   -9.4375 C   0  0  0  0  0  0  0  0  0  0  0  0
   24.8700  -20.9843  -13.2502 C   0  0  0  0  0  0  0  0  0  0  0  0
   23.9443  -20.1541  -13.4322 O   0  0  0  0  0  0  0  0  0  0  0  0
   24.9784  -22.1042  -14.0701 N   0  0  0  0  0  0  0  0  0  0  0  0
   26.0581  -23.0652  -14.1089 C   0  0  0  0  0  0  0  0  0  0  0  0
   26.1067  -23.4795  -15.5994 C   0  0  0  0  0  0  0  0  0  0  0  0
   24.6261  -23.6293  -15.8633 C   0  0  0  0  0  0  0  0  0  0  0  0
   24.0044  -22.5039  -15.0663 C   0  0  1  0  0  0  0  0  0  0  0  0
   22.7018  -22.8840  -14.4874 C   0  0  0  0  0  0  0  0  0  0  0  0
   22.6597  -23.2384  -13.2734 O   0  0  0  0  0  0  0  0  0  0  0  0
   21.4648  -22.8896  -15.1798 N   0  0  0  0  0  0  0  0  0  0  0  0
   20.1952  -23.2982  -14.5841 C   0  0  1  0  0  0  0  0  0  0  0  0
   19.8525  -22.4918  -13.3970 C   0  0  0  0  0  0  0  0  0  0  0  0
   19.9507  -21.0456  -13.6600 C   0  0  0  0  0  0  0  0  0  0  0  0
   19.9396  -20.4089  -14.9107 C   0  0  0  0  0  0  0  0  0  0  0  0
   20.0924  -19.0890  -14.7705 N   0  0  0  0  0  0  0  0  0  0  0  0
   20.2060  -18.8237  -13.4410 C   0  0  0  0  0  0  0  0  0  0  0  0
   20.3601  -17.6195  -12.7766 C   0  0  0  0  0  0  0  0  0  0  0  0
   20.4262  -17.6250  -11.4049 C   0  0  0  0  0  0  0  0  0  0  0  0
   20.3410  -18.8087  -10.6850 C   0  0  0  0  0  0  0  0  0  0  0  0
   20.1887  -19.9958  -11.3595 C   0  0  0  0  0  0  0  0  0  0  0  0
   20.1212  -20.0093  -12.7457 C   0  0  0  0  0  0  0  0  0  0  0  0
   19.1340  -23.4205  -15.5545 C   0  0  0  0  0  0  0  0  0  0  0  0
   19.1714  -23.0276  -16.8810 O   0  0  0  0  0  0  0  0  0  0  0  0
   18.0261  -23.9398  -15.1707 O   0  0  0  0  0  0  0  0  0  0  0  0
  2  1  1  1
  2  3  1  0
  3  4  1  0
  4  5  2  0
  5  6  1  0
  7  8  2  0
  7  6  1  0
  9  8  1  0
 10  9  2  0
 11 10  1  0
 11 12  2  0
 12  4  1  0
 12  7  1  0
 13  2  1  0
 13 14  2  0
 15 13  1  0
 16 15  1  0
 17 18  1  0
 17 16  1  0
 18 19  1  0
 19 15  1  0
 19 20  1  1
 20 22  1  0
 21 20  2  0
 22 23  1  0
 23 34  1  0
 23 24  1  1
 24 25  1  0
 25 26  2  0
 26 27  1  0
 28 29  2  0
 28 27  1  0
 30 29  1  0
 31 30  2  0
 32 31  1  0
 32 33  2  0
 33 25  1  0
 33 28  1  0
 34 36  2  0
 34 35  1  0
M  END
$$$$
