WPW.pdb
     RDKit          3D

 36 40  0  0  1  0  0  0  0  0999 V2000
   27.1792  -22.4919  -17.6330 N   0  0  0  0  0  0  0  0  0  0  0  0
   26.4443  -21.5809  -16.7752 C   0  0  1  0  0  0  0  0  0  0  0  0
   24.9927  -21.9885  -16.7896 C   0  0  0  0  0  0  0  0  0  0  0  0
   24.1866  -20.8652  -16.2522 C   0  0  0  0  0  0  0  0  0  0  0  0
   24.0655  -19.5954  -16.8345 C   0  0  0  0  0  0  0  0  0  0  0  0
   23.2213  -18.8650  -16.0919 N   0  0  0  0  0  0  0  0  0  0  0  0
   22.7654  -19.5648  -15.0424 C   0  0  0  0  0  0  0  0  0  0  0  0
   21.8979  -19.2473  -14.0069 C   0  0  0  0  0  0  0  0  0  0  0  0
   21.6392  -20.2073  -13.0587 C   0  0  0  0  0  0  0  0  0  0  0  0
   22.2234  -21.4555  -13.1284 C   0  0  0  0  0  0  0  0  0  0  0  0
   23.0811  -21.7393  -14.1712 C   0  0  0  0  0  0  0  0  0  0  0  0
   23.3729  -20.8202  -15.1439 C   0  0  0  0  0  0  0  0  0  0  0  0
   27.0400  -21.4909  -15.4352 C   0  0  0  0  0  0  0  0  0  0  0  0
   27.3742  -22.5646  -14.8740 O   0  0  0  0  0  0  0  0  0  0  0  0
   27.2382  -20.2724  -14.7917 N   0  0  0  0  0  0  0  0  0  0  0  0
   26.9837  -18.9489  -15.3156 C   0  0  0  0  0  0  0  0  0  0  0  0
   28.0882  -18.0903  -14.6533 C   0  0  0  0  0  0  0  0  0  0  0  0
   28.0178  -18.6383  -13.2465 C   0  0  0  0  0  0  0  0  0  0  0  0
   27.7630  -20.1155  -13.4497 C   0  0  1  0  0  0  0  0  0  0  0  0
   26.8800  -20.6772  -12.4098 C   0  0  0  0  0  0  0  0  0  0  0  0
   25.6824  -20.9483  -12.7151 O   0  0  0  0  0  0  0  0  0  0  0  0
   27.2564  -20.9476  -11.0701 N   0  0  0  0  0  0  0  0  0  0  0  0
   26.3689  -21.5439  -10.0751 C   0  0  1  0  0  0  0  0  0  0  0  0
   27.0660  -21.8256   -8.8055 C   0  0  0  0  0  0  0  0  0  0  0  0
   27.2095  -20.6203   -7.9708 C   0  0  0  0  0  0  0  0  0  0  0  0
   26.5495  -19.3924   -8.1344 C   0  0  0  0  0  0  0  0  0  0  0  0
   26.9581  -18.5104   -7.2178 N   0  0  0  0  0  0  0  0  0  0  0  0
   27.8855  -19.1253   -6.4351 C   0  0  0  0  0  0  0  0  0  0  0  0
   28.5915  -18.6539   -5.3421 C   0  0  0  0  0  0  0  0  0  0  0  0
   29.4649  -19.5002   -4.7042 C   0  0  0  0  0  0  0  0  0  0  0  0
   29.6462  -20.8067   -5.1363 C   0  0  0  0  0  0  0  0  0  0  0  0
   28.9383  -21.2592   -6.2232 C   0  0  0  0  0  0  0  0  0  0  0  0
   28.0521  -20.4176   -6.8808 C   0  0  0  0  0  0  0  0  0  0  0  0
   25.1248  -20.8268   -9.9315 C   0  0  0  0  0  0  0  0  0  0  0  0
   23.9219  -21.3334   -9.4712 O   0  0  0  0  0  0  0  0  0  0  0  0
   25.1032  -19.5887  -10.2648 O   0  0  0  0  0  0  0  0  0  0  0  0
  2  1  1  6
  2  3  1  0
  3  4  1  0
  4  5  2  0
  5  6  1  0
  7  8  2  0
  7  6  1  0
  9  8  1  0
 10  9  2  0
 11 10  1  0
 11 12  2  0
 12  4  1  0
 12  7  1  0
 13  2  1  0
 13 14  2  0
 15 13  1  0
 16 15  1  0
 17 18  1  0
 17 16  1  0
 18 19  1  0
 19 15  1  0
 19 20  1  1
 20 22  1  0
 21 20  2  0
 22 23  1  0
 23 34  1  0
 23 24  1  1
 24 25  1  0
 25 26  2  0
 26 27  1  0
 28 29  2  0
 28 27  1  0
 30 29  1  0
 31 30  2  0
 32 31  1  0
 32 33  2  0
 33 25  1  0
 33 28  1  0
 34 36  2  0
 34 35  1  0
M  END
$$$$
