WPW.pdb
     RDKit          3D

 36 40  0  0  1  0  0  0  0  0999 V2000
   24.4485  -22.2117  -16.0332 N   0  0  0  0  0  0  0  0  0  0  0  0
   24.9910  -21.1842  -15.1640 C   0  0  1  0  0  0  0  0  0  0  0  0
   23.8384  -20.4424  -14.5356 C   0  0  0  0  0  0  0  0  0  0  0  0
   23.1169  -19.7085  -15.6038 C   0  0  0  0  0  0  0  0  0  0  0  0
   21.7630  -19.8675  -15.9322 C   0  0  0  0  0  0  0  0  0  0  0  0
   21.4587  -19.0063  -16.9137 N   0  0  0  0  0  0  0  0  0  0  0  0
   22.5260  -18.2756  -17.2688 C   0  0  0  0  0  0  0  0  0  0  0  0
   22.7102  -17.2827  -18.2204 C   0  0  0  0  0  0  0  0  0  0  0  0
   23.9608  -16.7278  -18.3467 C   0  0  0  0  0  0  0  0  0  0  0  0
   25.0096  -17.1428  -17.5519 C   0  0  0  0  0  0  0  0  0  0  0  0
   24.7930  -18.1321  -16.6149 C   0  0  0  0  0  0  0  0  0  0  0  0
   23.5665  -18.7182  -16.4461 C   0  0  0  0  0  0  0  0  0  0  0  0
   25.9588  -21.7340  -14.2051 C   0  0  0  0  0  0  0  0  0  0  0  0
   25.8478  -22.9475  -13.8978 O   0  0  0  0  0  0  0  0  0  0  0  0
   26.9708  -20.9589  -13.6454 N   0  0  0  0  0  0  0  0  0  0  0  0
   27.6027  -19.7906  -14.2168 C   0  0  0  0  0  0  0  0  0  0  0  0
   29.0558  -19.8847  -13.6922 C   0  0  0  0  0  0  0  0  0  0  0  0
   28.7768  -20.2682  -12.2571 C   0  0  0  0  0  0  0  0  0  0  0  0
   27.5941  -21.2057  -12.3602 C   0  0  1  0  0  0  0  0  0  0  0  0
   26.6645  -21.0576  -11.2242 C   0  0  0  0  0  0  0  0  0  0  0  0
   25.5293  -20.5401  -11.4352 O   0  0  0  0  0  0  0  0  0  0  0  0
   26.9304  -21.4495   -9.8881 N   0  0  0  0  0  0  0  0  0  0  0  0
   25.9612  -21.3559   -8.7994 C   0  0  1  0  0  0  0  0  0  0  0  0
   26.5589  -21.6887   -7.4922 C   0  0  0  0  0  0  0  0  0  0  0  0
   27.2899  -20.5504   -6.9090 C   0  0  0  0  0  0  0  0  0  0  0  0
   26.7814  -19.2738   -6.6226 C   0  0  0  0  0  0  0  0  0  0  0  0
   27.7417  -18.4800   -6.1401 N   0  0  0  0  0  0  0  0  0  0  0  0
   28.8935  -19.2027   -6.0954 C   0  0  0  0  0  0  0  0  0  0  0  0
   30.1584  -18.8484   -5.6595 C   0  0  0  0  0  0  0  0  0  0  0  0
   31.1584  -19.7887   -5.6982 C   0  0  0  0  0  0  0  0  0  0  0  0
   30.9196  -21.0746   -6.1631 C   0  0  0  0  0  0  0  0  0  0  0  0
   29.6587  -21.4103   -6.5928 C   0  0  0  0  0  0  0  0  0  0  0  0
   28.6361  -20.4725   -6.5618 C   0  0  0  0  0  0  0  0  0  0  0  0
   25.2107  -20.1234   -8.8209 C   0  0  0  0  0  0  0  0  0  0  0  0
   23.9478  -19.9101   -8.2964 O   0  0  0  0  0  0  0  0  0  0  0  0
   25.7460  -19.1041   -9.3856 O   0  0  0  0  0  0  0  0  0  0  0  0
  2  1  1  1
  2  3  1  0
  3  4  1  0
  4  5  2  0
  5  6  1  0
  7  8  2  0
  7  6  1  0
  9  8  1  0
 10  9  2  0
 11 10  1  0
 11 12  2  0
 12  4  1  0
 12  7  1  0
 13  2  1  0
 13 14  2  0
 15 13  1  0
 16 15  1  0
 17 18  1  0
 17 16  1  0
 18 19  1  0
 19 15  1  0
 19 20  1  1
 20 22  1  0
 21 20  2  0
 22 23  1  0
 23 34  1  0
 23 24  1  1
 24 25  1  0
 25 26  2  0
 26 27  1  0
 28 29  2  0
 28 27  1  0
 30 29  1  0
 31 30  2  0
 32 31  1  0
 32 33  2  0
 33 25  1  0
 33 28  1  0
 34 36  2  0
 34 35  1  0
M  END
$$$$
