WPW.pdb
     RDKit          3D

 36 40  0  0  1  0  0  0  0  0999 V2000
   25.3243  -21.3428  -12.6528 N   0  0  0  0  0  0  0  0  0  0  0  0
   26.5654  -20.6824  -12.2932 C   0  0  1  0  0  0  0  0  0  0  0  0
   26.3309  -19.1932  -12.3191 C   0  0  0  0  0  0  0  0  0  0  0  0
   26.0623  -18.7866  -13.7201 C   0  0  0  0  0  0  0  0  0  0  0  0
   24.8306  -18.3383  -14.2183 C   0  0  0  0  0  0  0  0  0  0  0  0
   24.9844  -18.0209  -15.5118 N   0  0  0  0  0  0  0  0  0  0  0  0
   26.2458  -18.2286  -15.9177 C   0  0  0  0  0  0  0  0  0  0  0  0
   26.8785  -18.0612  -17.1412 C   0  0  0  0  0  0  0  0  0  0  0  0
   28.2107  -18.3845  -17.2333 C   0  0  0  0  0  0  0  0  0  0  0  0
   28.9062  -18.8637  -16.1422 C   0  0  0  0  0  0  0  0  0  0  0  0
   28.2476  -19.0182  -14.9397 C   0  0  0  0  0  0  0  0  0  0  0  0
   26.9212  -18.7101  -14.7920 C   0  0  0  0  0  0  0  0  0  0  0  0
   27.1098  -21.1930  -11.0277 C   0  0  0  0  0  0  0  0  0  0  0  0
   26.2912  -21.5855  -10.1587 O   0  0  0  0  0  0  0  0  0  0  0  0
   28.4782  -21.2506  -10.7783 N   0  0  0  0  0  0  0  0  0  0  0  0
   29.5539  -21.0904  -11.7312 C   0  0  0  0  0  0  0  0  0  0  0  0
   30.6506  -22.0367  -11.1859 C   0  0  0  0  0  0  0  0  0  0  0  0
   30.5602  -21.6993   -9.7154 C   0  0  0  0  0  0  0  0  0  0  0  0
   29.0785  -21.5029   -9.4832 C   0  0  1  0  0  0  0  0  0  0  0  0
   28.8046  -20.4398   -8.4976 C   0  0  0  0  0  0  0  0  0  0  0  0
   28.1763  -19.4095   -8.8780 O   0  0  0  0  0  0  0  0  0  0  0  0
   29.1884  -20.4654   -7.1332 N   0  0  0  0  0  0  0  0  0  0  0  0
   28.8349  -19.4314   -6.1640 C   0  0  1  0  0  0  0  0  0  0  0  0
   27.3946  -19.1127   -6.1908 C   0  0  0  0  0  0  0  0  0  0  0  0
   26.5721  -20.2107   -5.6542 C   0  0  0  0  0  0  0  0  0  0  0  0
   26.8322  -20.9848   -4.5126 C   0  0  0  0  0  0  0  0  0  0  0  0
   25.8924  -21.9209   -4.3521 N   0  0  0  0  0  0  0  0  0  0  0  0
   24.9989  -21.7900   -5.3697 C   0  0  0  0  0  0  0  0  0  0  0  0
   23.8426  -22.4990   -5.6447 C   0  0  0  0  0  0  0  0  0  0  0  0
   23.0946  -22.1443   -6.7404 C   0  0  0  0  0  0  0  0  0  0  0  0
   23.4786  -21.0962   -7.5654 C   0  0  0  0  0  0  0  0  0  0  0  0
   24.6294  -20.4028   -7.2790 C   0  0  0  0  0  0  0  0  0  0  0  0
   25.3984  -20.7480   -6.1765 C   0  0  0  0  0  0  0  0  0  0  0  0
   29.3691  -19.6896   -4.8484 C   0  0  0  0  0  0  0  0  0  0  0  0
   29.5354  -18.7735   -3.8244 O   0  0  0  0  0  0  0  0  0  0  0  0
   29.7424  -20.8858   -4.5758 O   0  0  0  0  0  0  0  0  0  0  0  0
  2  1  1  1
  2  3  1  0
  3  4  1  0
  4  5  2  0
  5  6  1  0
  7  8  2  0
  7  6  1  0
  9  8  1  0
 10  9  2  0
 11 10  1  0
 11 12  2  0
 12  4  1  0
 12  7  1  0
 13  2  1  0
 13 14  2  0
 15 13  1  0
 16 15  1  0
 17 18  1  0
 17 16  1  0
 18 19  1  0
 19 15  1  0
 19 20  1  1
 20 22  1  0
 21 20  2  0
 22 23  1  0
 23 34  1  0
 23 24  1  1
 24 25  1  0
 25 26  2  0
 26 27  1  0
 28 29  2  0
 28 27  1  0
 30 29  1  0
 31 30  2  0
 32 31  1  0
 32 33  2  0
 33 25  1  0
 33 28  1  0
 34 36  2  0
 34 35  1  0
M  END
$$$$
