WPW.pdb
     RDKit          3D

 36 40  0  0  1  0  0  0  0  0999 V2000
   22.2736  -17.3186  -16.4833 N   0  0  0  0  0  0  0  0  0  0  0  0
   23.6573  -17.6644  -16.2157 C   0  0  1  0  0  0  0  0  0  0  0  0
   24.3899  -16.4057  -15.8250 C   0  0  0  0  0  0  0  0  0  0  0  0
   25.6254  -16.3118  -16.6405 C   0  0  0  0  0  0  0  0  0  0  0  0
   25.7835  -15.5340  -17.7964 C   0  0  0  0  0  0  0  0  0  0  0  0
   27.0449  -15.6676  -18.2306 N   0  0  0  0  0  0  0  0  0  0  0  0
   27.7483  -16.4898  -17.4379 C   0  0  0  0  0  0  0  0  0  0  0  0
   29.0610  -16.9377  -17.4779 C   0  0  0  0  0  0  0  0  0  0  0  0
   29.4810  -17.8065  -16.4999 C   0  0  0  0  0  0  0  0  0  0  0  0
   28.6252  -18.2266  -15.5024 C   0  0  0  0  0  0  0  0  0  0  0  0
   27.3261  -17.7621  -15.4912 C   0  0  0  0  0  0  0  0  0  0  0  0
   26.8556  -16.8940  -16.4405 C   0  0  0  0  0  0  0  0  0  0  0  0
   23.7690  -18.7620  -15.2456 C   0  0  0  0  0  0  0  0  0  0  0  0
   22.9729  -18.7620  -14.2731 O   0  0  0  0  0  0  0  0  0  0  0  0
   24.7130  -19.7765  -15.3785 N   0  0  0  0  0  0  0  0  0  0  0  0
   25.5999  -20.0123  -16.4960 C   0  0  0  0  0  0  0  0  0  0  0  0
   25.7306  -21.5544  -16.5218 C   0  0  0  0  0  0  0  0  0  0  0  0
   25.8972  -21.8138  -15.0422 C   0  0  0  0  0  0  0  0  0  0  0  0
   24.9672  -20.8111  -14.3957 C   0  0  1  0  0  0  0  0  0  0  0  0
   25.5067  -20.2882  -13.1260 C   0  0  0  0  0  0  0  0  0  0  0  0
   26.0763  -19.1583  -13.1306 O   0  0  0  0  0  0  0  0  0  0  0  0
   25.4452  -20.9482  -11.8730 N   0  0  0  0  0  0  0  0  0  0  0  0
   26.1049  -20.4678  -10.6616 C   0  0  1  0  0  0  0  0  0  0  0  0
   25.2597  -19.5251   -9.9042 C   0  0  0  0  0  0  0  0  0  0  0  0
   24.2292  -20.2166   -9.1104 C   0  0  0  0  0  0  0  0  0  0  0  0
   24.4340  -21.0691   -8.0143 C   0  0  0  0  0  0  0  0  0  0  0  0
   23.2711  -21.5521   -7.5675 N   0  0  0  0  0  0  0  0  0  0  0  0
   22.2816  -21.0370   -8.3463 C   0  0  0  0  0  0  0  0  0  0  0  0
   20.9099  -21.2099   -8.2848 C   0  0  0  0  0  0  0  0  0  0  0  0
   20.1186  -20.5460   -9.1898 C   0  0  0  0  0  0  0  0  0  0  0  0
   20.6705  -19.7135  -10.1536 C   0  0  0  0  0  0  0  0  0  0  0  0
   22.0340  -19.5529  -10.2018 C   0  0  0  0  0  0  0  0  0  0  0  0
   22.8491  -20.2169   -9.2959 C   0  0  0  0  0  0  0  0  0  0  0  0
   26.6729  -21.5339   -9.8719 C   0  0  0  0  0  0  0  0  0  0  0  0
   27.6619  -21.4199   -8.9105 O   0  0  0  0  0  0  0  0  0  0  0  0
   26.2364  -22.7239  -10.0667 O   0  0  0  0  0  0  0  0  0  0  0  0
  2  1  1  1
  2  3  1  0
  3  4  1  0
  4  5  2  0
  5  6  1  0
  7  8  2  0
  7  6  1  0
  9  8  1  0
 10  9  2  0
 11 10  1  0
 11 12  2  0
 12  4  1  0
 12  7  1  0
 13  2  1  0
 13 14  2  0
 15 13  1  0
 16 15  1  0
 17 18  1  0
 17 16  1  0
 18 19  1  0
 19 15  1  0
 19 20  1  1
 20 22  1  0
 21 20  2  0
 22 23  1  0
 23 34  1  0
 23 24  1  1
 24 25  1  0
 25 26  2  0
 26 27  1  0
 28 29  2  0
 28 27  1  0
 30 29  1  0
 31 30  2  0
 32 31  1  0
 32 33  2  0
 33 25  1  0
 33 28  1  0
 34 36  2  0
 34 35  1  0
M  END
$$$$
