WPW.pdb
     RDKit          3D

 36 40  0  0  1  0  0  0  0  0999 V2000
   27.0190  -23.7588  -18.4498 N   0  0  0  0  0  0  0  0  0  0  0  0
   25.6509  -23.2843  -18.5432 C   0  0  1  0  0  0  0  0  0  0  0  0
   24.7741  -24.4487  -18.9290 C   0  0  0  0  0  0  0  0  0  0  0  0
   24.2518  -24.2077  -20.2962 C   0  0  0  0  0  0  0  0  0  0  0  0
   24.9978  -24.2871  -21.4809 C   0  0  0  0  0  0  0  0  0  0  0  0
   24.1794  -24.0509  -22.5163 N   0  0  0  0  0  0  0  0  0  0  0  0
   22.9254  -23.8157  -22.1022 C   0  0  0  0  0  0  0  0  0  0  0  0
   21.7521  -23.5192  -22.7810 C   0  0  0  0  0  0  0  0  0  0  0  0
   20.6094  -23.3169  -22.0454 C   0  0  0  0  0  0  0  0  0  0  0  0
   20.6218  -23.4045  -20.6684 C   0  0  0  0  0  0  0  0  0  0  0  0
   21.8051  -23.7015  -20.0241 C   0  0  0  0  0  0  0  0  0  0  0  0
   22.9726  -23.9137  -20.7082 C   0  0  0  0  0  0  0  0  0  0  0  0
   25.2312  -22.5818  -17.3230 C   0  0  0  0  0  0  0  0  0  0  0  0
   25.6736  -23.0065  -16.2261 O   0  0  0  0  0  0  0  0  0  0  0  0
   24.3768  -21.4831  -17.3561 N   0  0  0  0  0  0  0  0  0  0  0  0
   23.8159  -20.8394  -18.5231 C   0  0  0  0  0  0  0  0  0  0  0  0
   23.7306  -19.3535  -18.0983 C   0  0  0  0  0  0  0  0  0  0  0  0
   23.1914  -19.5271  -16.6970 C   0  0  0  0  0  0  0  0  0  0  0  0
   23.8992  -20.7646  -16.1914 C   0  0  1  0  0  0  0  0  0  0  0  0
   23.0372  -21.5817  -15.3163 C   0  0  0  0  0  0  0  0  0  0  0  0
   23.3017  -22.8121  -15.1848 O   0  0  0  0  0  0  0  0  0  0  0  0
   21.9147  -21.1064  -14.5926 N   0  0  0  0  0  0  0  0  0  0  0  0
   21.1177  -21.9284  -13.6856 C   0  0  1  0  0  0  0  0  0  0  0  0
   21.9521  -22.6258  -12.6885 C   0  0  0  0  0  0  0  0  0  0  0  0
   22.6227  -21.6883  -11.7711 C   0  0  0  0  0  0  0  0  0  0  0  0
   22.0695  -20.5447  -11.1744 C   0  0  0  0  0  0  0  0  0  0  0  0
   22.9827  -19.9087  -10.4350 N   0  0  0  0  0  0  0  0  0  0  0  0
   24.1469  -20.6072  -10.5227 C   0  0  0  0  0  0  0  0  0  0  0  0
   25.3770  -20.3785   -9.9312 C   0  0  0  0  0  0  0  0  0  0  0  0
   26.3993  -21.2643  -10.1681 C   0  0  0  0  0  0  0  0  0  0  0  0
   26.2168  -22.3728  -10.9833 C   0  0  0  0  0  0  0  0  0  0  0  0
   24.9898  -22.5853  -11.5635 C   0  0  0  0  0  0  0  0  0  0  0  0
   23.9455  -21.7000  -11.3361 C   0  0  0  0  0  0  0  0  0  0  0  0
   19.9874  -21.2206  -13.1341 C   0  0  0  0  0  0  0  0  0  0  0  0
   18.8470  -21.7774  -12.5819 O   0  0  0  0  0  0  0  0  0  0  0  0
   20.0150  -19.9386  -13.1510 O   0  0  0  0  0  0  0  0  0  0  0  0
  2  1  1  1
  2  3  1  0
  3  4  1  0
  4  5  2  0
  5  6  1  0
  7  8  2  0
  7  6  1  0
  9  8  1  0
 10  9  2  0
 11 10  1  0
 11 12  2  0
 12  4  1  0
 12  7  1  0
 13  2  1  0
 13 14  2  0
 15 13  1  0
 16 15  1  0
 17 18  1  0
 17 16  1  0
 18 19  1  0
 19 15  1  0
 19 20  1  6
 20 22  1  0
 21 20  2  0
 22 23  1  0
 23 34  1  0
 23 24  1  1
 24 25  1  0
 25 26  2  0
 26 27  1  0
 28 29  2  0
 28 27  1  0
 30 29  1  0
 31 30  2  0
 32 31  1  0
 32 33  2  0
 33 25  1  0
 33 28  1  0
 34 36  2  0
 34 35  1  0
M  END
$$$$
