WPW.pdb
     RDKit          3D

 36 40  0  0  1  0  0  0  0  0999 V2000
   28.7003  -20.0316  -13.6388 N   0  0  0  0  0  0  0  0  0  0  0  0
   28.1785  -20.4378  -12.3471 C   0  0  1  0  0  0  0  0  0  0  0  0
   29.2435  -20.1881  -11.3094 C   0  0  0  0  0  0  0  0  0  0  0  0
   30.3694  -21.1204  -11.5615 C   0  0  0  0  0  0  0  0  0  0  0  0
   30.8002  -21.5583  -12.8220 C   0  0  0  0  0  0  0  0  0  0  0  0
   31.8669  -22.3533  -12.6552 N   0  0  0  0  0  0  0  0  0  0  0  0
   32.1820  -22.4796  -11.3575 C   0  0  0  0  0  0  0  0  0  0  0  0
   33.1759  -23.1874  -10.6968 C   0  0  0  0  0  0  0  0  0  0  0  0
   33.2220  -23.1161   -9.3255 C   0  0  0  0  0  0  0  0  0  0  0  0
   32.3070  -22.3631   -8.6185 C   0  0  0  0  0  0  0  0  0  0  0  0
   31.3314  -21.6708   -9.3058 C   0  0  0  0  0  0  0  0  0  0  0  0
   31.2405  -21.7056  -10.6721 C   0  0  0  0  0  0  0  0  0  0  0  0
   26.8837  -19.8067  -12.0573 C   0  0  0  0  0  0  0  0  0  0  0  0
   26.8975  -18.6504  -11.5652 O   0  0  0  0  0  0  0  0  0  0  0  0
   25.6734  -20.4460  -12.3113 N   0  0  0  0  0  0  0  0  0  0  0  0
   25.3595  -21.3313  -13.4107 C   0  0  0  0  0  0  0  0  0  0  0  0
   23.8643  -21.0379  -13.6824 C   0  0  0  0  0  0  0  0  0  0  0  0
   23.3577  -20.9942  -12.2591 C   0  0  0  0  0  0  0  0  0  0  0  0
   24.4787  -20.3190  -11.5004 C   0  0  1  0  0  0  0  0  0  0  0  0
   24.6384  -20.8648  -10.1390 C   0  0  0  0  0  0  0  0  0  0  0  0
   25.4076  -21.8553   -9.9709 O   0  0  0  0  0  0  0  0  0  0  0  0
   23.9959  -20.3720   -8.9754 N   0  0  0  0  0  0  0  0  0  0  0  0
   23.7277  -21.1761   -7.7859 C   0  0  1  0  0  0  0  0  0  0  0  0
   24.1412  -20.4909   -6.5464 C   0  0  0  0  0  0  0  0  0  0  0  0
   25.4678  -19.8630   -6.6741 C   0  0  0  0  0  0  0  0  0  0  0  0
   26.0367  -19.3122   -7.8330 C   0  0  0  0  0  0  0  0  0  0  0  0
   27.2735  -18.8700   -7.5881 N   0  0  0  0  0  0  0  0  0  0  0  0
   27.5490  -19.1135   -6.2782 C   0  0  0  0  0  0  0  0  0  0  0  0
   28.6794  -18.8302   -5.5317 C   0  0  0  0  0  0  0  0  0  0  0  0
   28.6929  -19.1645   -4.1998 C   0  0  0  0  0  0  0  0  0  0  0  0
   27.6004  -19.7752   -3.5999 C   0  0  0  0  0  0  0  0  0  0  0  0
   26.4861  -20.0503   -4.3549 C   0  0  0  0  0  0  0  0  0  0  0  0
   26.4552  -19.7205   -5.7026 C   0  0  0  0  0  0  0  0  0  0  0  0
   22.3868  -21.7089   -7.7596 C   0  0  0  0  0  0  0  0  0  0  0  0
   21.8989  -22.6905   -6.9147 O   0  0  0  0  0  0  0  0  0  0  0  0
   21.5394  -21.2447   -8.6027 O   0  0  0  0  0  0  0  0  0  0  0  0
  2  1  1  6
  2  3  1  0
  3  4  1  0
  4  5  2  0
  5  6  1  0
  7  8  2  0
  7  6  1  0
  9  8  1  0
 10  9  2  0
 11 10  1  0
 11 12  2  0
 12  4  1  0
 12  7  1  0
 13  2  1  0
 13 14  2  0
 15 13  1  0
 16 15  1  0
 17 18  1  0
 17 16  1  0
 18 19  1  0
 19 15  1  0
 19 20  1  1
 20 22  1  0
 21 20  2  0
 22 23  1  0
 23 34  1  0
 23 24  1  1
 24 25  1  0
 25 26  2  0
 26 27  1  0
 28 29  2  0
 28 27  1  0
 30 29  1  0
 31 30  2  0
 32 31  1  0
 32 33  2  0
 33 25  1  0
 33 28  1  0
 34 36  2  0
 34 35  1  0
M  END
$$$$
