WPW.pdb
     RDKit          3D

 36 40  0  0  1  0  0  0  0  0999 V2000
   21.1632  -18.8905  -17.2597 N   0  0  0  0  0  0  0  0  0  0  0  0
   22.3953  -18.2466  -16.8436 C   0  0  1  0  0  0  0  0  0  0  0  0
   22.1124  -17.4521  -15.5937 C   0  0  0  0  0  0  0  0  0  0  0  0
   21.6610  -16.0969  -15.9936 C   0  0  0  0  0  0  0  0  0  0  0  0
   20.3438  -15.7357  -16.3110 C   0  0  0  0  0  0  0  0  0  0  0  0
   20.3148  -14.4221  -16.5781 N   0  0  0  0  0  0  0  0  0  0  0  0
   21.5335  -13.8743  -16.4610 C   0  0  0  0  0  0  0  0  0  0  0  0
   22.0033  -12.5810  -16.6405 C   0  0  0  0  0  0  0  0  0  0  0  0
   23.3432  -12.3442  -16.4498 C   0  0  0  0  0  0  0  0  0  0  0  0
   24.2038  -13.3610  -16.0899 C   0  0  0  0  0  0  0  0  0  0  0  0
   23.7045  -14.6358  -15.9190 C   0  0  0  0  0  0  0  0  0  0  0  0
   22.3778  -14.9271  -16.0948 C   0  0  0  0  0  0  0  0  0  0  0  0
   23.4997  -19.2075  -16.7195 C   0  0  0  0  0  0  0  0  0  0  0  0
   23.2520  -20.3103  -16.1699 O   0  0  0  0  0  0  0  0  0  0  0  0
   24.7811  -18.9296  -17.1870 N   0  0  0  0  0  0  0  0  0  0  0  0
   25.1842  -17.8502  -18.0607 C   0  0  0  0  0  0  0  0  0  0  0  0
   26.3406  -18.4735  -18.8793 C   0  0  0  0  0  0  0  0  0  0  0  0
   27.0754  -19.1859  -17.7671 C   0  0  0  0  0  0  0  0  0  0  0  0
   25.9659  -19.7064  -16.8804 C   0  0  1  0  0  0  0  0  0  0  0  0
   26.3313  -19.6715  -15.4515 C   0  0  0  0  0  0  0  0  0  0  0  0
   25.8232  -18.7735  -14.7190 O   0  0  0  0  0  0  0  0  0  0  0  0
   27.2186  -20.5704  -14.8078 N   0  0  0  0  0  0  0  0  0  0  0  0
   27.6025  -20.4754  -13.4017 C   0  0  1  0  0  0  0  0  0  0  0  0
   26.4304  -20.4325  -12.5066 C   0  0  0  0  0  0  0  0  0  0  0  0
   25.5775  -21.6251  -12.6499 C   0  0  0  0  0  0  0  0  0  0  0  0
   25.9827  -22.9679  -12.5995 C   0  0  0  0  0  0  0  0  0  0  0  0
   24.9456  -23.7828  -12.8131 N   0  0  0  0  0  0  0  0  0  0  0  0
   23.8434  -23.0092  -13.0067 C   0  0  0  0  0  0  0  0  0  0  0  0
   22.5275  -23.3660  -13.2442 C   0  0  0  0  0  0  0  0  0  0  0  0
   21.5880  -22.3739  -13.3814 C   0  0  0  0  0  0  0  0  0  0  0  0
   21.9370  -21.0339  -13.2857 C   0  0  0  0  0  0  0  0  0  0  0  0
   23.2477  -20.6963  -13.0501 C   0  0  0  0  0  0  0  0  0  0  0  0
   24.2108  -21.6856  -12.9099 C   0  0  0  0  0  0  0  0  0  0  0  0
   28.6088  -21.4402  -13.0287 C   0  0  0  0  0  0  0  0  0  0  0  0
   29.3363  -21.4695  -11.8517 O   0  0  0  0  0  0  0  0  0  0  0  0
   28.8810  -22.3767  -13.8614 O   0  0  0  0  0  0  0  0  0  0  0  0
  2  1  1  1
  2  3  1  0
  3  4  1  0
  4  5  2  0
  5  6  1  0
  7  8  2  0
  7  6  1  0
  9  8  1  0
 10  9  2  0
 11 10  1  0
 11 12  2  0
 12  4  1  0
 12  7  1  0
 13  2  1  0
 13 14  2  0
 15 13  1  0
 16 15  1  0
 17 18  1  0
 17 16  1  0
 18 19  1  0
 19 15  1  0
 19 20  1  1
 20 22  1  0
 21 20  2  0
 22 23  1  0
 23 34  1  0
 23 24  1  1
 24 25  1  0
 25 26  2  0
 26 27  1  0
 28 29  2  0
 28 27  1  0
 30 29  1  0
 31 30  2  0
 32 31  1  0
 32 33  2  0
 33 25  1  0
 33 28  1  0
 34 36  2  0
 34 35  1  0
M  END
$$$$
