ESG.pdb
     RDKit          3D

 20 19  0  0  1  0  0  0  0  0999 V2000
   14.1343  -16.4976   19.5906 N   0  0  0  0  0  0  0  0  0  0  0  0
   13.2820  -17.4978   20.2768 C   0  0  1  0  0  0  0  0  0  0  0  0
   14.0205  -18.8037   20.3554 C   0  0  0  0  0  0  0  0  0  0  0  0
   14.7397  -19.0861   19.0752 C   0  0  0  0  0  0  0  0  0  0  0  0
   15.4468  -20.3847   19.1865 C   0  0  0  0  0  0  0  0  0  0  0  0
   16.6727  -20.4267   19.3611 O   0  0  0  0  0  0  0  0  0  0  0  0
   12.9990  -16.9866   21.6493 C   0  0  0  0  0  0  0  0  0  0  0  0
   13.8414  -16.4214   22.3646 O   0  0  0  0  0  0  0  0  0  0  0  0
   14.6650  -21.5506   19.0844 O   0  0  0  0  0  0  0  0  0  0  0  0
    9.1142  -16.2106   22.9759 O   0  0  0  0  0  0  0  0  0  0  0  0
   10.2709  -15.6737   23.5235 C   0  0  0  0  0  0  0  0  0  0  0  0
   11.4183  -16.6641   23.5549 C   0  0  2  0  0  0  0  0  0  0  0  0
   11.6839  -17.1332   22.2252 N   0  0  0  0  0  0  0  0  0  0  0  0
   11.1003  -17.7322   24.5145 C   0  0  0  0  0  0  0  0  0  0  0  0
   10.6565  -18.8136   24.0528 O   0  0  0  0  0  0  0  0  0  0  0  0
   11.2643  -17.6137   25.9294 N   0  0  0  0  0  0  0  0  0  0  0  0
   10.8957  -18.7186   26.8077 C   0  0  0  0  0  0  0  0  0  0  0  0
   11.2511  -18.3819   28.1959 C   0  0  0  0  0  0  0  0  0  0  0  0
   11.0031  -19.2671   29.2387 O   0  0  0  0  0  0  0  0  0  0  0  0
   11.7975  -17.2701   28.4935 O   0  0  0  0  0  0  0  0  0  0  0  0
  2  3  1  0
  2  1  1  6
  4  3  1  0
  5  6  2  0
  5  4  1  0
  7  2  1  0
  7  8  2  0
  9  5  1  0
 10 11  1  0
 12 11  1  6
 12 13  1  0
 13  7  1  0
 14 12  1  0
 14 16  1  0
 15 14  2  0
 17 16  1  0
 18 17  1  0
 19 18  1  0
 20 18  2  0
M  END
$$$$
