ESG.pdb
     RDKit          3D

 20 19  0  0  1  0  0  0  0  0999 V2000
    9.5224  -18.0962   17.8986 N   0  0  0  0  0  0  0  0  0  0  0  0
    8.8852  -17.8863   19.2206 C   0  0  1  0  0  0  0  0  0  0  0  0
    8.6971  -19.2161   19.8938 C   0  0  0  0  0  0  0  0  0  0  0  0
    8.9758  -20.3372   18.9443 C   0  0  0  0  0  0  0  0  0  0  0  0
    8.7417  -21.6305   19.6309 C   0  0  0  0  0  0  0  0  0  0  0  0
    8.3660  -21.6634   20.8111 O   0  0  0  0  0  0  0  0  0  0  0  0
    9.7959  -17.0268   20.0311 C   0  0  0  0  0  0  0  0  0  0  0  0
   11.0018  -16.8691   19.7827 O   0  0  0  0  0  0  0  0  0  0  0  0
    8.9658  -22.8021   18.8839 O   0  0  0  0  0  0  0  0  0  0  0  0
    8.5567  -15.3570   23.7966 O   0  0  0  0  0  0  0  0  0  0  0  0
    9.3944  -14.6629   22.9349 C   0  0  0  0  0  0  0  0  0  0  0  0
   10.1906  -15.5798   22.0272 C   0  0  2  0  0  0  0  0  0  0  0  0
    9.2942  -16.3153   21.1821 N   0  0  0  0  0  0  0  0  0  0  0  0
   11.0652  -16.4261   22.8529 C   0  0  0  0  0  0  0  0  0  0  0  0
   10.5441  -17.4192   23.4204 O   0  0  0  0  0  0  0  0  0  0  0  0
   12.4610  -16.1877   23.0469 N   0  0  0  0  0  0  0  0  0  0  0  0
   13.2393  -17.0512   23.9281 C   0  0  0  0  0  0  0  0  0  0  0  0
   14.6502  -16.6316   23.9060 C   0  0  0  0  0  0  0  0  0  0  0  0
   15.5976  -17.2450   24.7175 O   0  0  0  0  0  0  0  0  0  0  0  0
   15.0551  -15.6934   23.1449 O   0  0  0  0  0  0  0  0  0  0  0  0
  2  3  1  0
  2  1  1  6
  4  3  1  0
  5  6  2  0
  5  4  1  0
  7  2  1  0
  7  8  2  0
  9  5  1  0
 10 11  1  0
 12 11  1  1
 12 13  1  0
 13  7  1  0
 14 12  1  0
 14 16  1  0
 15 14  2  0
 17 16  1  0
 18 17  1  0
 19 18  1  0
 20 18  2  0
M  END
$$$$
