ESG.pdb
     RDKit          3D

 20 19  0  0  1  0  0  0  0  0999 V2000
   10.0263  -18.5361   16.4591 N   0  0  0  0  0  0  0  0  0  0  0  0
   10.5685  -19.0271   17.7486 C   0  0  1  0  0  0  0  0  0  0  0  0
   12.0687  -19.0555   17.6737 C   0  0  0  0  0  0  0  0  0  0  0  0
   12.5258  -19.6768   16.3926 C   0  0  0  0  0  0  0  0  0  0  0  0
   14.0039  -19.7926   16.4042 C   0  0  0  0  0  0  0  0  0  0  0  0
   14.6673  -19.5506   15.3862 O   0  0  0  0  0  0  0  0  0  0  0  0
   10.1273  -18.0819   18.8150 C   0  0  0  0  0  0  0  0  0  0  0  0
    9.8414  -16.8916   18.6098 O   0  0  0  0  0  0  0  0  0  0  0  0
   14.6062  -20.1868   17.6138 O   0  0  0  0  0  0  0  0  0  0  0  0
    8.7513  -19.5313   22.4892 O   0  0  0  0  0  0  0  0  0  0  0  0
    8.3900  -18.3030   21.9537 C   0  0  0  0  0  0  0  0  0  0  0  0
    9.5229  -17.6383   21.1965 C   0  0  2  0  0  0  0  0  0  0  0  0
   10.0097  -18.5287   20.1822 N   0  0  0  0  0  0  0  0  0  0  0  0
   10.5493  -17.2060   22.1569 C   0  0  0  0  0  0  0  0  0  0  0  0
   11.6113  -17.8759   22.2118 O   0  0  0  0  0  0  0  0  0  0  0  0
   10.4114  -16.0786   23.0245 N   0  0  0  0  0  0  0  0  0  0  0  0
   11.5108  -15.6840   23.8984 C   0  0  0  0  0  0  0  0  0  0  0  0
   11.6933  -16.7004   24.9475 C   0  0  0  0  0  0  0  0  0  0  0  0
   10.9234  -16.6882   26.1049 O   0  0  0  0  0  0  0  0  0  0  0  0
   12.5608  -17.6267   24.8349 O   0  0  0  0  0  0  0  0  0  0  0  0
  2  3  1  0
  2  1  1  6
  4  3  1  0
  5  6  2  0
  5  4  1  0
  7  2  1  0
  7  8  2  0
  9  5  1  0
 10 11  1  0
 12 11  1  1
 12 13  1  0
 13  7  1  0
 14 12  1  0
 14 16  1  0
 15 14  2  0
 17 16  1  0
 18 17  1  0
 19 18  1  0
 20 18  2  0
M  END
$$$$
