ESG.pdb
     RDKit          3D

 20 19  0  0  1  0  0  0  0  0999 V2000
    8.2203  -17.4426   16.7928 N   0  0  0  0  0  0  0  0  0  0  0  0
    7.5616  -17.4604   18.1209 C   0  0  1  0  0  0  0  0  0  0  0  0
    7.4884  -18.8769   18.6158 C   0  0  0  0  0  0  0  0  0  0  0  0
    7.7125  -19.8436   17.4972 C   0  0  0  0  0  0  0  0  0  0  0  0
    7.5278  -21.2262   18.0000 C   0  0  0  0  0  0  0  0  0  0  0  0
    8.2153  -21.6581   18.9360 O   0  0  0  0  0  0  0  0  0  0  0  0
    8.3898  -16.6364   19.0484 C   0  0  0  0  0  0  0  0  0  0  0  0
    9.6134  -16.4706   18.9216 O   0  0  0  0  0  0  0  0  0  0  0  0
    6.5460  -22.0121   17.3679 O   0  0  0  0  0  0  0  0  0  0  0  0
    6.6940  -14.7698   22.5388 O   0  0  0  0  0  0  0  0  0  0  0  0
    7.7336  -14.2042   21.8138 C   0  0  0  0  0  0  0  0  0  0  0  0
    8.5871  -15.2401   21.1088 C   0  0  2  0  0  0  0  0  0  0  0  0
    7.7802  -15.9722   20.1753 N   0  0  0  0  0  0  0  0  0  0  0  0
    9.2473  -16.0812   22.1184 C   0  0  0  0  0  0  0  0  0  0  0  0
    8.5629  -16.9885   22.6551 O   0  0  0  0  0  0  0  0  0  0  0  0
   10.6098  -15.9287   22.5225 N   0  0  0  0  0  0  0  0  0  0  0  0
   11.1713  -16.7909   23.5566 C   0  0  0  0  0  0  0  0  0  0  0  0
   12.5801  -16.4301   23.7850 C   0  0  0  0  0  0  0  0  0  0  0  0
   13.3305  -17.0479   24.7788 O   0  0  0  0  0  0  0  0  0  0  0  0
   13.1631  -15.5409   23.0831 O   0  0  0  0  0  0  0  0  0  0  0  0
  2  3  1  0
  2  1  1  6
  4  3  1  0
  5  6  2  0
  5  4  1  0
  7  2  1  0
  7  8  2  0
  9  5  1  0
 10 11  1  0
 12 11  1  1
 12 13  1  0
 13  7  1  0
 14 12  1  0
 14 16  1  0
 15 14  2  0
 17 16  1  0
 18 17  1  0
 19 18  1  0
 20 18  2  0
M  END
$$$$
