ESG.pdb
     RDKit          3D

 20 19  0  0  1  0  0  0  0  0999 V2000
    5.3422  -20.7551   20.5286 N   0  0  0  0  0  0  0  0  0  0  0  0
    4.8860  -19.9691   21.6999 C   0  0  1  0  0  0  0  0  0  0  0  0
    3.9761  -20.8194   22.5400 C   0  0  0  0  0  0  0  0  0  0  0  0
    4.7490  -21.8841   23.2508 C   0  0  0  0  0  0  0  0  0  0  0  0
    3.8044  -22.8232   23.9023 C   0  0  0  0  0  0  0  0  0  0  0  0
    2.5800  -22.6573   23.8102 O   0  0  0  0  0  0  0  0  0  0  0  0
    6.0943  -19.5827   22.4846 C   0  0  0  0  0  0  0  0  0  0  0  0
    7.1288  -20.2663   22.5440 O   0  0  0  0  0  0  0  0  0  0  0  0
    4.3622  -23.8971   24.6211 O   0  0  0  0  0  0  0  0  0  0  0  0
    6.1612  -16.0355   24.8801 O   0  0  0  0  0  0  0  0  0  0  0  0
    7.2579  -16.4241   24.1235 C   0  0  0  0  0  0  0  0  0  0  0  0
    7.3117  -17.9221   23.8968 C   0  0  2  0  0  0  0  0  0  0  0  0
    6.1123  -18.3510   23.2364 N   0  0  0  0  0  0  0  0  0  0  0  0
    7.5590  -18.5906   25.1832 C   0  0  0  0  0  0  0  0  0  0  0  0
    6.5577  -18.9575   25.8483 O   0  0  0  0  0  0  0  0  0  0  0  0
    8.8601  -18.8449   25.7175 N   0  0  0  0  0  0  0  0  0  0  0  0
    9.0094  -19.3887   27.0629 C   0  0  0  0  0  0  0  0  0  0  0  0
   10.4389  -19.5721   27.3625 C   0  0  0  0  0  0  0  0  0  0  0  0
   10.8616  -20.0411   28.6009 O   0  0  0  0  0  0  0  0  0  0  0  0
   11.3400  -19.3086   26.5011 O   0  0  0  0  0  0  0  0  0  0  0  0
  2  3  1  0
  2  1  1  6
  4  3  1  0
  5  6  2  0
  5  4  1  0
  7  2  1  0
  7  8  2  0
  9  5  1  0
 10 11  1  0
 12 11  1  1
 12 13  1  0
 13  7  1  0
 14 12  1  0
 14 16  1  0
 15 14  2  0
 17 16  1  0
 18 17  1  0
 19 18  1  0
 20 18  2  0
M  END
$$$$
