ESG.pdb
     RDKit          3D

 20 19  0  0  1  0  0  0  0  0999 V2000
   13.0899  -13.7339   17.5271 N   0  0  0  0  0  0  0  0  0  0  0  0
   13.0787  -15.0811   18.1457 C   0  0  1  0  0  0  0  0  0  0  0  0
   14.4932  -15.5180   18.4010 C   0  0  0  0  0  0  0  0  0  0  0  0
   15.4524  -14.4059   18.1202 C   0  0  0  0  0  0  0  0  0  0  0  0
   16.8169  -14.9641   17.9612 C   0  0  0  0  0  0  0  0  0  0  0  0
   17.4144  -14.8808   16.8790 O   0  0  0  0  0  0  0  0  0  0  0  0
   12.3334  -14.9818   19.4341 C   0  0  0  0  0  0  0  0  0  0  0  0
   12.5968  -14.1578   20.3243 O   0  0  0  0  0  0  0  0  0  0  0  0
   17.3901  -15.5853   19.0866 O   0  0  0  0  0  0  0  0  0  0  0  0
    8.4278  -16.4162   21.9853 O   0  0  0  0  0  0  0  0  0  0  0  0
    9.1902  -16.4977   20.8285 C   0  0  0  0  0  0  0  0  0  0  0  0
   10.5222  -15.7845   20.9536 C   0  0  2  0  0  0  0  0  0  0  0  0
   11.2329  -15.8735   19.7104 N   0  0  0  0  0  0  0  0  0  0  0  0
   11.2537  -16.3387   22.1028 C   0  0  0  0  0  0  0  0  0  0  0  0
   11.9957  -17.3315   21.8942 O   0  0  0  0  0  0  0  0  0  0  0  0
   11.1710  -15.8195   23.4319 N   0  0  0  0  0  0  0  0  0  0  0  0
   12.0068  -16.3735   24.4914 C   0  0  0  0  0  0  0  0  0  0  0  0
   11.1691  -17.1424   25.4263 C   0  0  0  0  0  0  0  0  0  0  0  0
   11.6983  -17.6790   26.5943 O   0  0  0  0  0  0  0  0  0  0  0  0
    9.9315  -17.3446   25.2011 O   0  0  0  0  0  0  0  0  0  0  0  0
  2  3  1  0
  2  1  1  1
  4  3  1  0
  5  6  2  0
  5  4  1  0
  7  2  1  0
  7  8  2  0
  9  5  1  0
 10 11  1  0
 12 11  1  6
 12 13  1  0
 13  7  1  0
 14 12  1  0
 14 16  1  0
 15 14  2  0
 17 16  1  0
 18 17  1  0
 19 18  1  0
 20 18  2  0
M  END
$$$$
