ESG.pdb
     RDKit          3D

 20 19  0  0  1  0  0  0  0  0999 V2000
    8.2499  -16.6780   15.6958 N   0  0  0  0  0  0  0  0  0  0  0  0
    7.9732  -17.3668   16.9791 C   0  0  1  0  0  0  0  0  0  0  0  0
    8.6127  -18.7259   16.9569 C   0  0  0  0  0  0  0  0  0  0  0  0
    9.7593  -18.7901   17.9146 C   0  0  0  0  0  0  0  0  0  0  0  0
   10.4154  -20.1153   17.8055 C   0  0  0  0  0  0  0  0  0  0  0  0
    9.7684  -21.1591   17.9699 O   0  0  0  0  0  0  0  0  0  0  0  0
    8.5631  -16.5414   18.0727 C   0  0  0  0  0  0  0  0  0  0  0  0
    9.6375  -15.9275   17.9739 O   0  0  0  0  0  0  0  0  0  0  0  0
   11.7915  -20.1266   17.5104 O   0  0  0  0  0  0  0  0  0  0  0  0
    6.3452  -15.4608   21.5877 O   0  0  0  0  0  0  0  0  0  0  0  0
    7.3494  -14.7261   20.9730 C   0  0  0  0  0  0  0  0  0  0  0  0
    8.4374  -15.6013   20.3822 C   0  0  2  0  0  0  0  0  0  0  0  0
    7.8838  -16.4172   19.3399 N   0  0  0  0  0  0  0  0  0  0  0  0
    9.0759  -16.3645   21.4651 C   0  0  0  0  0  0  0  0  0  0  0  0
    8.4420  -17.3412   21.9384 O   0  0  0  0  0  0  0  0  0  0  0  0
   10.3638  -16.0633   22.0069 N   0  0  0  0  0  0  0  0  0  0  0  0
   10.7589  -16.5979   23.3054 C   0  0  0  0  0  0  0  0  0  0  0  0
   12.0490  -16.0125   23.7054 C   0  0  0  0  0  0  0  0  0  0  0  0
   12.6604  -16.3651   24.9030 O   0  0  0  0  0  0  0  0  0  0  0  0
   12.6522  -15.1634   22.9716 O   0  0  0  0  0  0  0  0  0  0  0  0
  2  3  1  0
  2  1  1  6
  4  3  1  0
  5  6  2  0
  5  4  1  0
  7  2  1  0
  7  8  2  0
  9  5  1  0
 10 11  1  0
 12 11  1  1
 12 13  1  0
 13  7  1  0
 14 12  1  0
 14 16  1  0
 15 14  2  0
 17 16  1  0
 18 17  1  0
 19 18  1  0
 20 18  2  0
M  END
$$$$
