WVC.pdb
     RDKit          3D

 28 29  0  0  1  0  0  0  0  0999 V2000
   20.4554  -25.4152  -12.7196 N   0  0  0  0  0  0  0  0  0  0  0  0
   19.5999  -24.4764  -12.0225 C   0  0  1  0  0  0  0  0  0  0  0  0
   18.8977  -23.6052  -13.0353 C   0  0  0  0  0  0  0  0  0  0  0  0
   19.8182  -22.5220  -13.5303 C   0  0  0  0  0  0  0  0  0  0  0  0
   20.5849  -22.5798  -14.6647 C   0  0  0  0  0  0  0  0  0  0  0  0
   21.2567  -21.4192  -14.7503 N   0  0  0  0  0  0  0  0  0  0  0  0
   20.9608  -20.6188  -13.7290 C   0  0  0  0  0  0  0  0  0  0  0  0
   21.4018  -19.3463  -13.4028 C   0  0  0  0  0  0  0  0  0  0  0  0
   20.9205  -18.7494  -12.2708 C   0  0  0  0  0  0  0  0  0  0  0  0
   20.0119  -19.4021  -11.4672 C   0  0  0  0  0  0  0  0  0  0  0  0
   19.5806  -20.6812  -11.8121 C   0  0  0  0  0  0  0  0  0  0  0  0
   20.0565  -21.2992  -12.9523 C   0  0  0  0  0  0  0  0  0  0  0  0
   18.6800  -25.1342  -11.0868 C   0  0  0  0  0  0  0  0  0  0  0  0
   18.1256  -26.2055  -11.4914 O   0  0  0  0  0  0  0  0  0  0  0  0
   17.9394  -23.7563   -7.0703 C   0  0  0  0  0  0  0  0  0  0  0  0
   17.7689  -25.1898   -7.4723 C   0  0  2  0  0  0  0  0  0  0  0  0
   19.0821  -25.9082   -7.2470 C   0  0  0  0  0  0  0  0  0  0  0  0
   17.3621  -25.3070   -8.9440 C   0  0  2  0  0  0  0  0  0  0  0  0
   18.3522  -24.7008   -9.7955 N   0  0  0  0  0  0  0  0  0  0  0  0
   16.0133  -24.7661   -9.1164 C   0  0  0  0  0  0  0  0  0  0  0  0
   15.8473  -23.5606   -9.3656 O   0  0  0  0  0  0  0  0  0  0  0  0
   14.8862  -25.6078   -9.0017 N   0  0  0  0  0  0  0  0  0  0  0  0
   13.5159  -25.1911   -9.1809 C   0  0  1  0  0  0  0  0  0  0  0  0
   12.7045  -26.0975  -10.0407 C   0  0  0  0  0  0  0  0  0  0  0  0
   10.9596  -25.6140  -10.0991 S   0  0  0  0  0  0  0  0  0  0  0  0
   12.8608  -24.9570   -7.8544 C   0  0  0  0  0  0  0  0  0  0  0  0
   13.0981  -25.7530   -6.9245 O   0  0  0  0  0  0  0  0  0  0  0  0
   12.0089  -23.8890   -7.6438 O   0  0  0  0  0  0  0  0  0  0  0  0
  2  1  1  6
  2  3  1  0
  2 13  1  0
  3  4  1  0
  4  5  2  0
  5  6  1  0
  7  6  1  0
  8  7  2  0
  9  8  1  0
 10 11  1  0
 10  9  2  0
 11 12  2  0
 12  4  1  0
 12  7  1  0
 13 19  1  0
 13 14  2  0
 16 15  1  6
 16 17  1  0
 18 16  1  0
 18 19  1  6
 20 18  1  0
 20 21  2  0
 22 20  1  0
 23 22  1  0
 23 24  1  1
 24 25  1  0
 26 23  1  0
 27 26  2  0
 28 26  1  0
M  END
$$$$
