WVC.pdb
     RDKit          3D

 28 29  0  0  1  0  0  0  0  0999 V2000
   22.7426  -20.8693  -14.6740 N   0  0  0  0  0  0  0  0  0  0  0  0
   21.4038  -21.2577  -14.2791 C   0  0  1  0  0  0  0  0  0  0  0  0
   20.8290  -22.1779  -15.3282 C   0  0  0  0  0  0  0  0  0  0  0  0
   20.7617  -21.4833  -16.6618 C   0  0  0  0  0  0  0  0  0  0  0  0
   21.5605  -21.7482  -17.7435 C   0  0  0  0  0  0  0  0  0  0  0  0
   21.1824  -20.9178  -18.7299 N   0  0  0  0  0  0  0  0  0  0  0  0
   20.1817  -20.1331  -18.3375 C   0  0  0  0  0  0  0  0  0  0  0  0
   19.4792  -19.1404  -19.0018 C   0  0  0  0  0  0  0  0  0  0  0  0
   18.4790  -18.4828  -18.3412 C   0  0  0  0  0  0  0  0  0  0  0  0
   18.1742  -18.8014  -17.0362 C   0  0  0  0  0  0  0  0  0  0  0  0
   18.8920  -19.8025  -16.3853 C   0  0  0  0  0  0  0  0  0  0  0  0
   19.9058  -20.4772  -17.0377 C   0  0  0  0  0  0  0  0  0  0  0  0
   21.3528  -21.8200  -12.9241 C   0  0  0  0  0  0  0  0  0  0  0  0
   22.2596  -22.6595  -12.6213 O   0  0  0  0  0  0  0  0  0  0  0  0
   19.3832  -20.5337   -8.9046 C   0  0  0  0  0  0  0  0  0  0  0  0
   20.6598  -20.9477   -9.5713 C   0  0  2  0  0  0  0  0  0  0  0  0
   21.2517  -19.7379  -10.2622 C   0  0  0  0  0  0  0  0  0  0  0  0
   20.4137  -22.0586  -10.5962 C   0  0  2  0  0  0  0  0  0  0  0  0
   20.4072  -21.5250  -11.9334 N   0  0  0  0  0  0  0  0  0  0  0  0
   19.1955  -22.7856  -10.2367 C   0  0  0  0  0  0  0  0  0  0  0  0
   18.1144  -22.5078  -10.7816 O   0  0  0  0  0  0  0  0  0  0  0  0
   19.2354  -23.8107   -9.2673 N   0  0  0  0  0  0  0  0  0  0  0  0
   18.0828  -24.5009   -8.7395 C   0  0  1  0  0  0  0  0  0  0  0  0
   18.3915  -25.4728   -7.6535 C   0  0  0  0  0  0  0  0  0  0  0  0
   19.2863  -24.7075   -6.2767 S   0  0  0  0  0  0  0  0  0  0  0  0
   17.0310  -23.5207   -8.3194 C   0  0  0  0  0  0  0  0  0  0  0  0
   15.8445  -23.9017   -8.2784 O   0  0  0  0  0  0  0  0  0  0  0  0
   17.3463  -22.2182   -7.9806 O   0  0  0  0  0  0  0  0  0  0  0  0
  2  1  1  6
  2  3  1  0
  2 13  1  0
  3  4  1  0
  4  5  2  0
  5  6  1  0
  7  6  1  0
  8  7  2  0
  9  8  1  0
 10 11  1  0
 10  9  2  0
 11 12  2  0
 12  4  1  0
 12  7  1  0
 13 19  1  0
 13 14  2  0
 16 15  1  6
 16 17  1  0
 18 16  1  0
 18 19  1  6
 20 18  1  0
 20 21  2  0
 22 20  1  0
 23 22  1  0
 23 24  1  1
 24 25  1  0
 26 23  1  0
 27 26  2  0
 28 26  1  0
M  END
$$$$
