WVC.pdb
     RDKit          3D

 28 29  0  0  1  0  0  0  0  0999 V2000
   26.0687  -23.0428  -12.0865 N   0  0  0  0  0  0  0  0  0  0  0  0
   25.4594  -21.8096  -11.6311 C   0  0  1  0  0  0  0  0  0  0  0  0
   26.4357  -20.6759  -11.8298 C   0  0  0  0  0  0  0  0  0  0  0  0
   27.5701  -20.7758  -10.8455 C   0  0  0  0  0  0  0  0  0  0  0  0
   28.8231  -21.2611  -11.1148 C   0  0  0  0  0  0  0  0  0  0  0  0
   29.5344  -21.1784   -9.9777 N   0  0  0  0  0  0  0  0  0  0  0  0
   28.8026  -20.6649   -8.9919 C   0  0  0  0  0  0  0  0  0  0  0  0
   29.1071  -20.3965   -7.6669 C   0  0  0  0  0  0  0  0  0  0  0  0
   28.1421  -19.8566   -6.8627 C   0  0  0  0  0  0  0  0  0  0  0  0
   26.8872  -19.5839   -7.3611 C   0  0  0  0  0  0  0  0  0  0  0  0
   26.6003  -19.8610   -8.6960 C   0  0  0  0  0  0  0  0  0  0  0  0
   27.5635  -20.4064   -9.5227 C   0  0  0  0  0  0  0  0  0  0  0  0
   24.1505  -21.5621  -12.2476 C   0  0  0  0  0  0  0  0  0  0  0  0
   23.9178  -22.1566  -13.3482 O   0  0  0  0  0  0  0  0  0  0  0  0
   21.0987  -19.1257  -10.4289 C   0  0  0  0  0  0  0  0  0  0  0  0
   20.7826  -20.3830  -11.1806 C   0  0  2  0  0  0  0  0  0  0  0  0
   20.7944  -21.5391  -10.2037 C   0  0  0  0  0  0  0  0  0  0  0  0
   21.8059  -20.6354  -12.2916 C   0  0  2  0  0  0  0  0  0  0  0  0
   23.1343  -20.7384  -11.7461 N   0  0  0  0  0  0  0  0  0  0  0  0
   21.6614  -19.6076  -13.3234 C   0  0  0  0  0  0  0  0  0  0  0  0
   21.8929  -18.4161  -13.0597 O   0  0  0  0  0  0  0  0  0  0  0  0
   21.2576  -19.9587  -14.6295 N   0  0  0  0  0  0  0  0  0  0  0  0
   21.0769  -19.0316  -15.7210 C   0  0  1  0  0  0  0  0  0  0  0  0
   21.5504  -19.5352  -17.0407 C   0  0  0  0  0  0  0  0  0  0  0  0
   23.2107  -18.9380  -17.4516 S   0  0  0  0  0  0  0  0  0  0  0  0
   19.6540  -18.5683  -15.7861 C   0  0  0  0  0  0  0  0  0  0  0  0
   18.7886  -19.2142  -15.1629 O   0  0  0  0  0  0  0  0  0  0  0  0
   19.2864  -17.4525  -16.5145 O   0  0  0  0  0  0  0  0  0  0  0  0
  2  1  1  6
  2  3  1  0
  2 13  1  0
  3  4  1  0
  4  5  2  0
  5  6  1  0
  7  6  1  0
  8  7  2  0
  9  8  1  0
 10 11  1  0
 10  9  2  0
 11 12  2  0
 12  4  1  0
 12  7  1  0
 13 19  1  0
 13 14  2  0
 16 15  1  1
 16 17  1  0
 18 16  1  0
 18 19  1  1
 20 18  1  0
 20 21  2  0
 22 20  1  0
 23 22  1  0
 23 24  1  6
 24 25  1  0
 26 23  1  0
 27 26  2  0
 28 26  1  0
M  END
$$$$
