WVC.pdb
     RDKit          3D

 28 29  0  0  1  0  0  0  0  0999 V2000
   22.0659  -21.5623  -16.7688 N   0  0  0  0  0  0  0  0  0  0  0  0
   22.6181  -20.4751  -15.9862 C   0  0  1  0  0  0  0  0  0  0  0  0
   21.4872  -19.6950  -15.3613 C   0  0  0  0  0  0  0  0  0  0  0  0
   20.5342  -19.2058  -16.4187 C   0  0  0  0  0  0  0  0  0  0  0  0
   20.8520  -18.3718  -17.4587 C   0  0  0  0  0  0  0  0  0  0  0  0
   19.7293  -18.1791  -18.1713 N   0  0  0  0  0  0  0  0  0  0  0  0
   18.7065  -18.8465  -17.6426 C   0  0  0  0  0  0  0  0  0  0  0  0
   17.3790  -18.9469  -18.0272 C   0  0  0  0  0  0  0  0  0  0  0  0
   16.5313  -19.7194  -17.2830 C   0  0  0  0  0  0  0  0  0  0  0  0
   16.9890  -20.3875  -16.1687 C   0  0  0  0  0  0  0  0  0  0  0  0
   18.3272  -20.2741  -15.7981 C   0  0  0  0  0  0  0  0  0  0  0  0
   19.1976  -19.4978  -16.5386 C   0  0  0  0  0  0  0  0  0  0  0  0
   23.6175  -20.9285  -15.0114 C   0  0  0  0  0  0  0  0  0  0  0  0
   23.2976  -21.9264  -14.2899 O   0  0  0  0  0  0  0  0  0  0  0  0
   27.6233  -19.2809  -14.6162 C   0  0  0  0  0  0  0  0  0  0  0  0
   27.2609  -20.7050  -14.3229 C   0  0  2  0  0  0  0  0  0  0  0  0
   27.4008  -21.5059  -15.5997 C   0  0  0  0  0  0  0  0  0  0  0  0
   25.8258  -20.8141  -13.7996 C   0  0  2  0  0  0  0  0  0  0  0  0
   24.8856  -20.3731  -14.7968 N   0  0  0  0  0  0  0  0  0  0  0  0
   25.7219  -20.1039  -12.5243 C   0  0  0  0  0  0  0  0  0  0  0  0
   25.5616  -18.8723  -12.5026 O   0  0  0  0  0  0  0  0  0  0  0  0
   25.8024  -20.8101  -11.3049 N   0  0  0  0  0  0  0  0  0  0  0  0
   25.7291  -20.2136   -9.9925 C   0  0  1  0  0  0  0  0  0  0  0  0
   24.3555  -19.8201   -9.5714 C   0  0  0  0  0  0  0  0  0  0  0  0
   23.1580  -21.1630   -9.7821 S   0  0  0  0  0  0  0  0  0  0  0  0
   26.3851  -21.0977   -8.9768 C   0  0  0  0  0  0  0  0  0  0  0  0
   26.7460  -22.2390   -9.3254 O   0  0  0  0  0  0  0  0  0  0  0  0
   26.5955  -20.6778   -7.6767 O   0  0  0  0  0  0  0  0  0  0  0  0
  2  1  1  1
  2  3  1  0
  2 13  1  0
  3  4  1  0
  4  5  2  0
  5  6  1  0
  7  6  1  0
  8  7  2  0
  9  8  1  0
 10 11  1  0
 10  9  2  0
 11 12  2  0
 12  4  1  0
 12  7  1  0
 13 19  1  0
 13 14  2  0
 16 15  1  6
 16 17  1  0
 18 16  1  0
 18 19  1  6
 20 18  1  0
 20 21  2  0
 22 20  1  0
 23 22  1  0
 23 24  1  1
 24 25  1  0
 26 23  1  0
 27 26  2  0
 28 26  1  0
M  END
$$$$
