WVC.pdb
     RDKit          3D

 28 29  0  0  1  0  0  0  0  0999 V2000
   21.9343  -19.9179  -17.2841 N   0  0  0  0  0  0  0  0  0  0  0  0
   22.5870  -19.0496  -16.3251 C   0  0  1  0  0  0  0  0  0  0  0  0
   21.5408  -18.4297  -15.4312 C   0  0  0  0  0  0  0  0  0  0  0  0
   20.6902  -17.4594  -16.2062 C   0  0  0  0  0  0  0  0  0  0  0  0
   19.3784  -17.6469  -16.5557 C   0  0  0  0  0  0  0  0  0  0  0  0
   18.9878  -16.5550  -17.2345 N   0  0  0  0  0  0  0  0  0  0  0  0
   19.9813  -15.6757  -17.3390 C   0  0  0  0  0  0  0  0  0  0  0  0
   20.0442  -14.4294  -17.9414 C   0  0  0  0  0  0  0  0  0  0  0  0
   21.2182  -13.7303  -17.8943 C   0  0  0  0  0  0  0  0  0  0  0  0
   22.3212  -14.2562  -17.2583 C   0  0  0  0  0  0  0  0  0  0  0  0
   22.2382  -15.5109  -16.6585 C   0  0  0  0  0  0  0  0  0  0  0  0
   21.0597  -16.2309  -16.6966 C   0  0  0  0  0  0  0  0  0  0  0  0
   23.6563  -19.7274  -15.5823 C   0  0  0  0  0  0  0  0  0  0  0  0
   23.3559  -20.8367  -15.0364 O   0  0  0  0  0  0  0  0  0  0  0  0
   28.3083  -19.7899  -13.7446 C   0  0  0  0  0  0  0  0  0  0  0  0
   27.3334  -19.3289  -14.7852 C   0  0  2  0  0  0  0  0  0  0  0  0
   27.3709  -17.8166  -14.8378 C   0  0  0  0  0  0  0  0  0  0  0  0
   25.9129  -19.7991  -14.4594 C   0  0  2  0  0  0  0  0  0  0  0  0
   24.9718  -19.2754  -15.4149 N   0  0  0  0  0  0  0  0  0  0  0  0
   25.6012  -19.4658  -13.0689 C   0  0  0  0  0  0  0  0  0  0  0  0
   25.2987  -18.3028  -12.7545 O   0  0  0  0  0  0  0  0  0  0  0  0
   25.6406  -20.4619  -12.0696 N   0  0  0  0  0  0  0  0  0  0  0  0
   25.3857  -20.2417  -10.6660 C   0  0  1  0  0  0  0  0  0  0  0  0
   23.9493  -20.0413  -10.3256 C   0  0  0  0  0  0  0  0  0  0  0  0
   22.9518  -21.5192  -10.6457 S   0  0  0  0  0  0  0  0  0  0  0  0
   26.0001  -21.3324   -9.8436 C   0  0  0  0  0  0  0  0  0  0  0  0
   26.5037  -22.3096  -10.4317 O   0  0  0  0  0  0  0  0  0  0  0  0
   26.0195  -21.2770   -8.4625 O   0  0  0  0  0  0  0  0  0  0  0  0
  2  1  1  6
  2  3  1  0
  2 13  1  0
  3  4  1  0
  4  5  2  0
  5  6  1  0
  7  6  1  0
  8  7  2  0
  9  8  1  0
 10 11  1  0
 10  9  2  0
 11 12  2  0
 12  4  1  0
 12  7  1  0
 13 19  1  0
 13 14  2  0
 16 15  1  1
 16 17  1  0
 18 16  1  0
 18 19  1  6
 20 18  1  0
 20 21  2  0
 22 20  1  0
 23 22  1  0
 23 24  1  6
 24 25  1  0
 26 23  1  0
 27 26  2  0
 28 26  1  0
M  END
$$$$
