WVC.pdb
     RDKit          3D

 28 29  0  0  1  0  0  0  0  0999 V2000
   27.7242  -22.0080   -9.7630 N   0  0  0  0  0  0  0  0  0  0  0  0
   26.5806  -21.1660  -10.0504 C   0  0  1  0  0  0  0  0  0  0  0  0
   26.7722  -19.8294   -9.3762 C   0  0  0  0  0  0  0  0  0  0  0  0
   26.6362  -19.9654   -7.8834 C   0  0  0  0  0  0  0  0  0  0  0  0
   25.4898  -20.3003   -7.2113 C   0  0  0  0  0  0  0  0  0  0  0  0
   25.7873  -20.3161   -5.9009 N   0  0  0  0  0  0  0  0  0  0  0  0
   27.0659  -20.0087   -5.6968 C   0  0  0  0  0  0  0  0  0  0  0  0
   27.8097  -19.9026   -4.5325 C   0  0  0  0  0  0  0  0  0  0  0  0
   29.1315  -19.5644   -4.6203 C   0  0  0  0  0  0  0  0  0  0  0  0
   29.7150  -19.3328   -5.8465 C   0  0  0  0  0  0  0  0  0  0  0  0
   28.9505  -19.4444   -7.0059 C   0  0  0  0  0  0  0  0  0  0  0  0
   27.6136  -19.7852   -6.9354 C   0  0  0  0  0  0  0  0  0  0  0  0
   26.3044  -21.0559  -11.4878 C   0  0  0  0  0  0  0  0  0  0  0  0
   27.0855  -20.3121  -12.1626 O   0  0  0  0  0  0  0  0  0  0  0  0
   25.0215  -22.8023  -15.7789 C   0  0  0  0  0  0  0  0  0  0  0  0
   25.3141  -22.8978  -14.3123 C   0  0  2  0  0  0  0  0  0  0  0  0
   24.4418  -23.9844  -13.7212 C   0  0  0  0  0  0  0  0  0  0  0  0
   25.0341  -21.5688  -13.6048 C   0  0  2  0  0  0  0  0  0  0  0  0
   25.2686  -21.6868  -12.1891 N   0  0  0  0  0  0  0  0  0  0  0  0
   23.6879  -21.1116  -13.9518 C   0  0  0  0  0  0  0  0  0  0  0  0
   22.7031  -21.5154  -13.3115 O   0  0  0  0  0  0  0  0  0  0  0  0
   23.4936  -20.2066  -15.0173 N   0  0  0  0  0  0  0  0  0  0  0  0
   22.2103  -19.7701  -15.5135 C   0  0  1  0  0  0  0  0  0  0  0  0
   22.2654  -18.5615  -16.3825 C   0  0  0  0  0  0  0  0  0  0  0  0
   20.6532  -17.7502  -16.5391 S   0  0  0  0  0  0  0  0  0  0  0  0
   21.4956  -20.9012  -16.1870 C   0  0  0  0  0  0  0  0  0  0  0  0
   22.1181  -21.5849  -17.0233 O   0  0  0  0  0  0  0  0  0  0  0  0
   20.1757  -21.1979  -15.9026 O   0  0  0  0  0  0  0  0  0  0  0  0
  2  1  1  6
  2  3  1  0
  2 13  1  0
  3  4  1  0
  4  5  2  0
  5  6  1  0
  7  6  1  0
  8  7  2  0
  9  8  1  0
 10 11  1  0
 10  9  2  0
 11 12  2  0
 12  4  1  0
 12  7  1  0
 13 19  1  0
 13 14  2  0
 16 15  1  6
 16 17  1  0
 18 16  1  0
 18 19  1  1
 20 18  1  0
 20 21  2  0
 22 20  1  0
 23 22  1  0
 23 24  1  6
 24 25  1  0
 26 23  1  0
 27 26  2  0
 28 26  1  0
M  END
$$$$
