GWR.pdb
     RDKit          3D

 30 31  0  0  1  0  0  0  0  0999 V2000
    5.0170  -20.6454   24.3882 N   0  0  0  0  0  0  0  0  0  0  0  0
    5.2003  -19.9329   23.1526 C   0  0  0  0  0  0  0  0  0  0  0  0
    5.8611  -18.6125   23.3691 C   0  0  0  0  0  0  0  0  0  0  0  0
    5.3462  -17.5945   22.8393 O   0  0  0  0  0  0  0  0  0  0  0  0
    7.0316  -18.4501   24.1363 N   0  0  0  0  0  0  0  0  0  0  0  0
    7.7026  -17.1706   24.3290 C   0  0  1  0  0  0  0  0  0  0  0  0
    7.7469  -16.7644   25.7500 C   0  0  0  0  0  0  0  0  0  0  0  0
    7.0199  -15.5586   26.1311 C   0  0  0  0  0  0  0  0  0  0  0  0
    5.6414  -15.5292   26.4129 C   0  0  0  0  0  0  0  0  0  0  0  0
    5.3235  -14.2812   26.7430 N   0  0  0  0  0  0  0  0  0  0  0  0
    6.4069  -13.4617   26.7011 C   0  0  0  0  0  0  0  0  0  0  0  0
    6.5705  -12.1215   26.9504 C   0  0  0  0  0  0  0  0  0  0  0  0
    7.8014  -11.5472   26.8211 C   0  0  0  0  0  0  0  0  0  0  0  0
    8.8708  -12.3153   26.4414 C   0  0  0  0  0  0  0  0  0  0  0  0
    8.6849  -13.6508   26.1979 C   0  0  0  0  0  0  0  0  0  0  0  0
    7.4609  -14.2909   26.3128 C   0  0  0  0  0  0  0  0  0  0  0  0
    8.9708  -17.1544   23.6028 C   0  0  0  0  0  0  0  0  0  0  0  0
    9.6437  -18.2429   23.5384 O   0  0  0  0  0  0  0  0  0  0  0  0
    8.2559  -12.5547   17.0614 N   0  0  0  0  0  0  0  0  0  0  0  0
    8.3930  -13.9310   16.6875 C   0  0  0  0  0  0  0  0  0  0  0  0
    8.1005  -14.3050   15.4716 N   0  0  0  0  0  0  0  0  0  0  0  0
    8.8465  -14.8129   17.6834 N   0  0  0  0  0  0  0  0  0  0  0  0
    9.3048  -14.2082   18.9676 C   0  0  0  0  0  0  0  0  0  0  0  0
    9.8401  -15.3500   19.7593 C   0  0  0  0  0  0  0  0  0  0  0  0
   10.4915  -15.0986   21.0383 C   0  0  0  0  0  0  0  0  0  0  0  0
   10.6738  -16.1826   22.0413 C   0  0  2  0  0  0  0  0  0  0  0  0
    9.4884  -16.0095   22.9641 N   0  0  0  0  0  0  0  0  0  0  0  0
   11.8037  -15.9223   22.9419 C   0  0  0  0  0  0  0  0  0  0  0  0
   13.1074  -16.2501   22.4895 O   0  0  0  0  0  0  0  0  0  0  0  0
   11.6852  -15.4410   24.0634 O   0  0  0  0  0  0  0  0  0  0  0  0
  1  2  1  0
  2  3  1  0
  3  4  2  0
  5  6  1  0
  5  3  1  0
  6  7  1  1
  7  8  1  0
  8 16  1  0
  9 10  1  0
  9  8  2  0
 10 11  1  0
 11 16  2  0
 11 12  1  0
 12 13  2  0
 13 14  1  0
 15 14  2  0
 16 15  1  0
 17  6  1  0
 17 18  2  0
 20 19  1  0
 21 20  2  0
 22 20  1  0
 23 22  1  0
 24 23  1  0
 24 25  1  0
 26 27  1  0
 26 25  1  6
 27 17  1  0
 28 26  1  0
 29 28  1  0
 30 28  2  0
M  END
$$$$
