GWR.pdb
     RDKit          3D

 30 31  0  0  1  0  0  0  0  0999 V2000
    8.0186  -13.3701   17.7164 N   0  0  0  0  0  0  0  0  0  0  0  0
    7.9371  -14.6314   18.4021 C   0  0  0  0  0  0  0  0  0  0  0  0
    8.3619  -14.5136   19.8279 C   0  0  0  0  0  0  0  0  0  0  0  0
    9.4916  -14.0185   20.0741 O   0  0  0  0  0  0  0  0  0  0  0  0
    7.5612  -14.9290   20.9102 N   0  0  0  0  0  0  0  0  0  0  0  0
    7.9766  -14.8434   22.3047 C   0  0  1  0  0  0  0  0  0  0  0  0
    6.8306  -14.6960   23.2274 C   0  0  0  0  0  0  0  0  0  0  0  0
    7.1226  -14.5380   24.6477 C   0  0  0  0  0  0  0  0  0  0  0  0
    7.3024  -15.6140   25.5367 C   0  0  0  0  0  0  0  0  0  0  0  0
    7.5723  -15.1065   26.7355 N   0  0  0  0  0  0  0  0  0  0  0  0
    7.5856  -13.7477   26.7113 C   0  0  0  0  0  0  0  0  0  0  0  0
    7.8073  -12.8016   27.6814 C   0  0  0  0  0  0  0  0  0  0  0  0
    7.7514  -11.4748   27.3680 C   0  0  0  0  0  0  0  0  0  0  0  0
    7.4729  -11.0937   26.0816 C   0  0  0  0  0  0  0  0  0  0  0  0
    7.2552  -12.0547   25.1293 C   0  0  0  0  0  0  0  0  0  0  0  0
    7.2993  -13.4160   25.3857 C   0  0  0  0  0  0  0  0  0  0  0  0
    8.9316  -15.9067   22.6102 C   0  0  0  0  0  0  0  0  0  0  0  0
    8.7636  -17.0478   22.0526 O   0  0  0  0  0  0  0  0  0  0  0  0
   15.1321  -14.7812   18.3832 N   0  0  0  0  0  0  0  0  0  0  0  0
   14.1793  -14.2194   19.2941 C   0  0  0  0  0  0  0  0  0  0  0  0
   13.1557  -13.5536   18.8329 N   0  0  0  0  0  0  0  0  0  0  0  0
   14.4167  -14.4287   20.6634 N   0  0  0  0  0  0  0  0  0  0  0  0
   14.0959  -15.7793   21.2090 C   0  0  0  0  0  0  0  0  0  0  0  0
   12.6765  -15.6875   21.6494 C   0  0  0  0  0  0  0  0  0  0  0  0
   12.3355  -15.9416   23.0431 C   0  0  0  0  0  0  0  0  0  0  0  0
   11.1480  -16.7578   23.4140 C   0  0  2  0  0  0  0  0  0  0  0  0
   10.0300  -15.7416   23.4780 N   0  0  0  0  0  0  0  0  0  0  0  0
   11.2108  -17.2320   24.8020 C   0  0  0  0  0  0  0  0  0  0  0  0
   11.9975  -18.3788   25.0809 O   0  0  0  0  0  0  0  0  0  0  0  0
   10.6202  -16.6960   25.7332 O   0  0  0  0  0  0  0  0  0  0  0  0
  1  2  1  0
  2  3  1  0
  3  4  2  0
  5  6  1  0
  5  3  1  0
  6  7  1  1
  7  8  1  0
  8 16  1  0
  9 10  1  0
  9  8  2  0
 10 11  1  0
 11 16  2  0
 11 12  1  0
 12 13  2  0
 13 14  1  0
 15 14  2  0
 16 15  1  0
 17  6  1  0
 17 18  2  0
 20 19  1  0
 21 20  2  0
 22 20  1  0
 23 22  1  0
 24 23  1  0
 24 25  1  0
 26 27  1  0
 26 25  1  1
 27 17  1  0
 28 26  1  0
 29 28  1  0
 30 28  2  0
M  END
$$$$
