GWR.pdb
     RDKit          3D

 30 31  0  0  1  0  0  0  0  0999 V2000
    6.5752  -19.0036   19.4870 N   0  0  0  0  0  0  0  0  0  0  0  0
    6.4064  -18.4242   20.7922 C   0  0  0  0  0  0  0  0  0  0  0  0
    7.4817  -17.4366   21.1015 C   0  0  0  0  0  0  0  0  0  0  0  0
    8.4114  -17.2873   20.2676 O   0  0  0  0  0  0  0  0  0  0  0  0
    7.5069  -16.6646   22.2798 N   0  0  0  0  0  0  0  0  0  0  0  0
    8.5620  -15.7118   22.6013 C   0  0  1  0  0  0  0  0  0  0  0  0
    8.0284  -14.3934   23.0059 C   0  0  0  0  0  0  0  0  0  0  0  0
    7.3477  -14.3061   24.2930 C   0  0  0  0  0  0  0  0  0  0  0  0
    6.6594  -15.3778   24.8914 C   0  0  0  0  0  0  0  0  0  0  0  0
    6.1847  -14.9517   26.0579 N   0  0  0  0  0  0  0  0  0  0  0  0
    6.5109  -13.6521   26.2854 C   0  0  0  0  0  0  0  0  0  0  0  0
    6.2477  -12.7946   27.3249 C   0  0  0  0  0  0  0  0  0  0  0  0
    6.7055  -11.5100   27.2843 C   0  0  0  0  0  0  0  0  0  0  0  0
    7.4279  -11.0822   26.2013 C   0  0  0  0  0  0  0  0  0  0  0  0
    7.6791  -11.9548   25.1752 C   0  0  0  0  0  0  0  0  0  0  0  0
    7.2423  -13.2701   25.1592 C   0  0  0  0  0  0  0  0  0  0  0  0
    9.5381  -16.3272   23.4982 C   0  0  0  0  0  0  0  0  0  0  0  0
    9.1732  -17.3510   24.1766 O   0  0  0  0  0  0  0  0  0  0  0  0
   15.2889  -13.9146   20.0471 N   0  0  0  0  0  0  0  0  0  0  0  0
   14.4971  -14.6581   19.1127 C   0  0  0  0  0  0  0  0  0  0  0  0
   14.6433  -14.4540   17.8318 N   0  0  0  0  0  0  0  0  0  0  0  0
   13.5891  -15.5851   19.6528 N   0  0  0  0  0  0  0  0  0  0  0  0
   12.9867  -15.2525   20.9761 C   0  0  0  0  0  0  0  0  0  0  0  0
   13.4160  -16.3546   21.8805 C   0  0  0  0  0  0  0  0  0  0  0  0
   13.1552  -16.2574   23.3108 C   0  0  0  0  0  0  0  0  0  0  0  0
   11.9471  -16.8748   23.9220 C   0  0  2  0  0  0  0  0  0  0  0  0
   10.8592  -15.8601   23.6505 N   0  0  0  0  0  0  0  0  0  0  0  0
   12.0053  -16.8763   25.3889 C   0  0  0  0  0  0  0  0  0  0  0  0
   12.8333  -17.8375   26.0233 O   0  0  0  0  0  0  0  0  0  0  0  0
   11.3773  -16.0971   26.0972 O   0  0  0  0  0  0  0  0  0  0  0  0
  1  2  1  0
  2  3  1  0
  3  4  2  0
  5  6  1  0
  5  3  1  0
  6  7  1  1
  7  8  1  0
  8 16  1  0
  9 10  1  0
  9  8  2  0
 10 11  1  0
 11 16  2  0
 11 12  1  0
 12 13  2  0
 13 14  1  0
 15 14  2  0
 16 15  1  0
 17  6  1  0
 17 18  2  0
 20 19  1  0
 21 20  2  0
 22 20  1  0
 23 22  1  0
 24 23  1  0
 24 25  1  0
 26 27  1  0
 26 25  1  6
 27 17  1  0
 28 26  1  0
 29 28  1  0
 30 28  2  0
M  END
$$$$
