GWR.pdb
     RDKit          3D

 30 31  0  0  1  0  0  0  0  0999 V2000
    4.2383  -19.6264   22.9759 N   0  0  0  0  0  0  0  0  0  0  0  0
    5.2336  -19.6284   24.0138 C   0  0  0  0  0  0  0  0  0  0  0  0
    6.2087  -18.5111   23.8464 C   0  0  0  0  0  0  0  0  0  0  0  0
    6.1864  -17.8567   22.7724 O   0  0  0  0  0  0  0  0  0  0  0  0
    7.1516  -18.1536   24.8303 N   0  0  0  0  0  0  0  0  0  0  0  0
    8.1391  -17.0953   24.6592 C   0  0  1  0  0  0  0  0  0  0  0  0
    8.2430  -16.2222   25.8480 C   0  0  0  0  0  0  0  0  0  0  0  0
    7.3117  -15.1041   25.9487 C   0  0  0  0  0  0  0  0  0  0  0  0
    5.9755  -15.2311   26.3715 C   0  0  0  0  0  0  0  0  0  0  0  0
    5.4323  -14.0176   26.3632 N   0  0  0  0  0  0  0  0  0  0  0  0
    6.3231  -13.0743   25.9585 C   0  0  0  0  0  0  0  0  0  0  0  0
    6.2271  -11.7151   25.7895 C   0  0  0  0  0  0  0  0  0  0  0  0
    7.3063  -11.0022   25.3551 C   0  0  0  0  0  0  0  0  0  0  0  0
    8.4838  -11.6504   25.0888 C   0  0  0  0  0  0  0  0  0  0  0  0
    8.5574  -13.0073   25.2645 C   0  0  0  0  0  0  0  0  0  0  0  0
    7.4975  -13.7850   25.7036 C   0  0  0  0  0  0  0  0  0  0  0  0
    9.3880  -17.6525   24.1440 C   0  0  0  0  0  0  0  0  0  0  0  0
    9.8280  -18.7354   24.6687 O   0  0  0  0  0  0  0  0  0  0  0  0
   15.9406  -17.5540   19.3312 N   0  0  0  0  0  0  0  0  0  0  0  0
   15.2629  -18.7134   19.8309 C   0  0  0  0  0  0  0  0  0  0  0  0
   15.7644  -19.3733   20.8392 N   0  0  0  0  0  0  0  0  0  0  0  0
   14.0686  -19.0736   19.1836 N   0  0  0  0  0  0  0  0  0  0  0  0
   12.8123  -18.9923   19.9835 C   0  0  0  0  0  0  0  0  0  0  0  0
   12.7458  -17.5800   20.4501 C   0  0  0  0  0  0  0  0  0  0  0  0
   11.6351  -17.1487   21.2890 C   0  0  0  0  0  0  0  0  0  0  0  0
   11.3574  -17.7957   22.6000 C   0  0  2  0  0  0  0  0  0  0  0  0
   10.1289  -17.0675   23.0973 N   0  0  0  0  0  0  0  0  0  0  0  0
   12.3556  -17.4422   23.6168 C   0  0  0  0  0  0  0  0  0  0  0  0
   11.9987  -16.4815   24.5973 O   0  0  0  0  0  0  0  0  0  0  0  0
   13.4807  -17.9271   23.6656 O   0  0  0  0  0  0  0  0  0  0  0  0
  1  2  1  0
  2  3  1  0
  3  4  2  0
  5  6  1  0
  5  3  1  0
  6  7  1  1
  7  8  1  0
  8 16  1  0
  9 10  1  0
  9  8  2  0
 10 11  1  0
 11 16  2  0
 11 12  1  0
 12 13  2  0
 13 14  1  0
 15 14  2  0
 16 15  1  0
 17  6  1  0
 17 18  2  0
 20 19  1  0
 21 20  2  0
 22 20  1  0
 23 22  1  0
 24 23  1  0
 24 25  1  0
 26 27  1  0
 26 25  1  6
 27 17  1  0
 28 26  1  0
 29 28  1  0
 30 28  2  0
M  END
$$$$
