GWR.pdb
     RDKit          3D

 30 31  0  0  1  0  0  0  0  0999 V2000
    5.5616  -17.8217   20.2456 N   0  0  0  0  0  0  0  0  0  0  0  0
    6.0627  -18.1340   21.5568 C   0  0  0  0  0  0  0  0  0  0  0  0
    7.1623  -17.2102   21.9625 C   0  0  0  0  0  0  0  0  0  0  0  0
    7.6444  -16.4396   21.0932 O   0  0  0  0  0  0  0  0  0  0  0  0
    7.6862  -17.1586   23.2694 N   0  0  0  0  0  0  0  0  0  0  0  0
    8.7706  -16.2721   23.6728 C   0  0  1  0  0  0  0  0  0  0  0  0
    8.7134  -15.9273   25.1095 C   0  0  0  0  0  0  0  0  0  0  0  0
    7.6307  -15.0562   25.5528 C   0  0  0  0  0  0  0  0  0  0  0  0
    6.3467  -15.5149   25.9012 C   0  0  0  0  0  0  0  0  0  0  0  0
    5.6288  -14.4601   26.2750 N   0  0  0  0  0  0  0  0  0  0  0  0
    6.3517  -13.3117   26.1998 C   0  0  0  0  0  0  0  0  0  0  0  0
    6.0473  -12.0008   26.4717 C   0  0  0  0  0  0  0  0  0  0  0  0
    6.9895  -11.0296   26.2966 C   0  0  0  0  0  0  0  0  0  0  0  0
    8.2386  -11.3705   25.8483 C   0  0  0  0  0  0  0  0  0  0  0  0
    8.5208  -12.6850   25.5833 C   0  0  0  0  0  0  0  0  0  0  0  0
    7.6075  -13.7153   25.7423 C   0  0  0  0  0  0  0  0  0  0  0  0
   10.0462  -16.7783   23.1704 C   0  0  0  0  0  0  0  0  0  0  0  0
   10.2358  -18.0454   23.1722 O   0  0  0  0  0  0  0  0  0  0  0  0
   17.2195  -15.0942   16.8515 N   0  0  0  0  0  0  0  0  0  0  0  0
   16.1258  -14.5098   17.5693 C   0  0  0  0  0  0  0  0  0  0  0  0
   15.7816  -13.2732   17.3328 N   0  0  0  0  0  0  0  0  0  0  0  0
   15.4771  -15.3307   18.5078 N   0  0  0  0  0  0  0  0  0  0  0  0
   14.2916  -14.7559   19.2071 C   0  0  0  0  0  0  0  0  0  0  0  0
   13.8904  -15.7932   20.1970 C   0  0  0  0  0  0  0  0  0  0  0  0
   12.7029  -15.5879   21.0162 C   0  0  0  0  0  0  0  0  0  0  0  0
   12.2600  -16.6054   22.0076 C   0  0  2  0  0  0  0  0  0  0  0  0
   11.0740  -15.9490   22.6778 N   0  0  0  0  0  0  0  0  0  0  0  0
   13.2047  -16.7430   23.1229 C   0  0  0  0  0  0  0  0  0  0  0  0
   14.3152  -17.6092   22.9544 O   0  0  0  0  0  0  0  0  0  0  0  0
   13.0877  -16.1549   24.1923 O   0  0  0  0  0  0  0  0  0  0  0  0
  1  2  1  0
  2  3  1  0
  3  4  2  0
  5  6  1  0
  5  3  1  0
  6  7  1  1
  7  8  1  0
  8 16  1  0
  9 10  1  0
  9  8  2  0
 10 11  1  0
 11 16  2  0
 11 12  1  0
 12 13  2  0
 13 14  1  0
 15 14  2  0
 16 15  1  0
 17  6  1  0
 17 18  2  0
 20 19  1  0
 21 20  2  0
 22 20  1  0
 23 22  1  0
 24 23  1  0
 24 25  1  0
 26 27  1  0
 26 25  1  6
 27 17  1  0
 28 26  1  0
 29 28  1  0
 30 28  2  0
M  END
$$$$
