AHG.pdb
     RDKit          3D

 20 20  0  0  1  0  0  0  0  0999 V2000
   22.3226  -34.8555   -2.6906 C   0  0  0  0  0  0  0  0  0  0  0  0
   22.5066  -34.2549   -4.0664 C   0  0  2  0  0  0  0  0  0  0  0  0
   21.6587  -34.8809   -5.0516 N   0  0  0  0  0  0  0  0  0  0  0  0
   23.9343  -34.4810   -4.4656 C   0  0  0  0  0  0  0  0  0  0  0  0
   24.3061  -35.6111   -4.9071 O   0  0  0  0  0  0  0  0  0  0  0  0
   24.9152  -33.4586   -4.3686 N   0  0  0  0  0  0  0  0  0  0  0  0
   26.3084  -33.7182   -4.8018 C   0  0  1  0  0  0  0  0  0  0  0  0
   26.6852  -32.5684   -5.6861 C   0  0  0  0  0  0  0  0  0  0  0  0
   26.1275  -32.5799   -7.0401 C   0  0  0  0  0  0  0  0  0  0  0  0
   25.3412  -33.5548   -7.6247 C   0  0  0  0  0  0  0  0  0  0  0  0
   25.0224  -33.2074   -8.8876 N   0  0  0  0  0  0  0  0  0  0  0  0
   25.5982  -32.0175   -9.1172 C   0  0  0  0  0  0  0  0  0  0  0  0
   26.2631  -31.6333   -8.0146 N   0  0  0  0  0  0  0  0  0  0  0  0
   27.1718  -33.9389   -3.6402 C   0  0  0  0  0  0  0  0  0  0  0  0
   26.9724  -33.2362   -2.6029 O   0  0  0  0  0  0  0  0  0  0  0  0
   28.2277  -34.8774   -3.5512 N   0  0  0  0  0  0  0  0  0  0  0  0
   29.0560  -34.9676   -2.3454 C   0  0  0  0  0  0  0  0  0  0  0  0
   30.0698  -36.0305   -2.4711 C   0  0  0  0  0  0  0  0  0  0  0  0
   30.1498  -36.8318   -3.4371 O   0  0  0  0  0  0  0  0  0  0  0  0
   31.0063  -36.1644   -1.4567 O   0  0  0  0  0  0  0  0  0  0  0  0
  2  1  1  1
  2  4  1  0
  2  3  1  0
  4  5  2  0
  6  7  1  0
  6  4  1  0
  7  8  1  1
  9  8  1  0
 10  9  2  0
 11 10  1  0
 12 11  1  0
 12 13  2  0
 13  9  1  0
 14 15  2  0
 14  7  1  0
 16 14  1  0
 17 16  1  0
 18 17  1  0
 19 18  2  0
 20 18  1  0
M  END
$$$$
