AHG.pdb
     RDKit          3D

 20 20  0  0  1  0  0  0  0  0999 V2000
   26.1001  -32.5388   -6.1847 C   0  0  0  0  0  0  0  0  0  0  0  0
   27.1841  -33.0505   -7.1070 C   0  0  2  0  0  0  0  0  0  0  0  0
   26.6487  -33.8279   -8.1980 N   0  0  0  0  0  0  0  0  0  0  0  0
   28.0798  -33.9377   -6.2950 C   0  0  0  0  0  0  0  0  0  0  0  0
   27.8752  -35.1893   -6.2514 O   0  0  0  0  0  0  0  0  0  0  0  0
   29.1766  -33.4252   -5.5526 N   0  0  0  0  0  0  0  0  0  0  0  0
   30.0990  -34.3489   -4.8510 C   0  0  1  0  0  0  0  0  0  0  0  0
   31.4304  -33.6612   -4.8272 C   0  0  0  0  0  0  0  0  0  0  0  0
   32.2161  -33.7234   -6.0614 C   0  0  0  0  0  0  0  0  0  0  0  0
   31.8954  -34.3731   -7.2385 C   0  0  0  0  0  0  0  0  0  0  0  0
   32.8719  -34.2012   -8.1519 N   0  0  0  0  0  0  0  0  0  0  0  0
   33.8160  -33.4464   -7.5695 C   0  0  0  0  0  0  0  0  0  0  0  0
   33.4312  -33.1550   -6.3156 N   0  0  0  0  0  0  0  0  0  0  0  0
   29.5516  -34.7237   -3.5459 C   0  0  0  0  0  0  0  0  0  0  0  0
   28.9449  -33.8357   -2.8728 O   0  0  0  0  0  0  0  0  0  0  0  0
   29.6283  -36.0029   -2.9446 N   0  0  0  0  0  0  0  0  0  0  0  0
   29.0029  -36.2633   -1.6449 C   0  0  0  0  0  0  0  0  0  0  0  0
   29.8253  -35.7368   -0.5405 C   0  0  0  0  0  0  0  0  0  0  0  0
   30.8965  -35.0951   -0.6895 O   0  0  0  0  0  0  0  0  0  0  0  0
   29.3952  -35.9600    0.7592 O   0  0  0  0  0  0  0  0  0  0  0  0
  2  1  1  1
  2  4  1  0
  2  3  1  0
  4  5  2  0
  6  7  1  0
  6  4  1  0
  7  8  1  1
  9  8  1  0
 10  9  2  0
 11 10  1  0
 12 11  1  0
 12 13  2  0
 13  9  1  0
 14 15  2  0
 14  7  1  0
 16 14  1  0
 17 16  1  0
 18 17  1  0
 19 18  2  0
 20 18  1  0
M  END
$$$$
