AHG.pdb
     RDKit          3D

 20 20  0  0  1  0  0  0  0  0999 V2000
   31.9090  -26.8184  -19.3101 C   0  0  0  0  0  0  0  0  0  0  0  0
   31.5430  -28.0807  -18.5616 C   0  0  2  0  0  0  0  0  0  0  0  0
   31.9362  -29.2708  -19.2761 N   0  0  0  0  0  0  0  0  0  0  0  0
   30.0509  -28.0953  -18.4127 C   0  0  0  0  0  0  0  0  0  0  0  0
   29.3137  -28.4772  -19.3724 O   0  0  0  0  0  0  0  0  0  0  0  0
   29.4091  -27.6897  -17.2126 N   0  0  0  0  0  0  0  0  0  0  0  0
   27.9302  -27.6246  -17.1429 C   0  0  1  0  0  0  0  0  0  0  0  0
   27.5318  -28.5229  -16.0114 C   0  0  0  0  0  0  0  0  0  0  0  0
   27.5717  -29.9621  -16.2790 C   0  0  0  0  0  0  0  0  0  0  0  0
   28.5252  -30.8745  -15.8680 C   0  0  0  0  0  0  0  0  0  0  0  0
   28.2169  -32.1094  -16.3120 N   0  0  0  0  0  0  0  0  0  0  0  0
   27.0732  -31.9958  -17.0043 C   0  0  0  0  0  0  0  0  0  0  0  0
   26.6789  -30.7114  -16.9899 N   0  0  0  0  0  0  0  0  0  0  0  0
   27.4844  -26.2339  -17.0403 C   0  0  0  0  0  0  0  0  0  0  0  0
   28.1509  -25.4433  -16.3053 O   0  0  0  0  0  0  0  0  0  0  0  0
   26.3636  -25.6662  -17.6926 N   0  0  0  0  0  0  0  0  0  0  0  0
   26.0807  -24.2316  -17.5932 C   0  0  0  0  0  0  0  0  0  0  0  0
   25.4519  -23.8985  -16.3021 C   0  0  0  0  0  0  0  0  0  0  0  0
   25.3829  -22.7399  -15.8180 O   0  0  0  0  0  0  0  0  0  0  0  0
   24.8937  -24.9298  -15.5611 O   0  0  0  0  0  0  0  0  0  0  0  0
  2  1  1  6
  2  4  1  0
  2  3  1  0
  4  5  2  0
  6  7  1  0
  6  4  1  0
  7  8  1  1
  9  8  1  0
 10  9  2  0
 11 10  1  0
 12 11  1  0
 12 13  2  0
 13  9  1  0
 14 15  2  0
 14  7  1  0
 16 14  1  0
 17 16  1  0
 18 17  1  0
 19 18  2  0
 20 18  1  0
M  END
$$$$
