AHG.pdb
     RDKit          3D

 20 20  0  0  1  0  0  0  0  0999 V2000
   15.2569  -18.6187    5.5081 C   0  0  0  0  0  0  0  0  0  0  0  0
   15.8205  -17.4432    4.7412 C   0  0  2  0  0  0  0  0  0  0  0  0
   16.2362  -17.8107    3.4095 N   0  0  0  0  0  0  0  0  0  0  0  0
   17.0249  -16.9567    5.4904 C   0  0  0  0  0  0  0  0  0  0  0  0
   18.1915  -17.2790    5.1090 O   0  0  0  0  0  0  0  0  0  0  0  0
   16.9146  -16.1289    6.6391 N   0  0  0  0  0  0  0  0  0  0  0  0
   18.1325  -15.5950    7.2933 C   0  0  1  0  0  0  0  0  0  0  0  0
   17.9012  -14.1230    7.4543 C   0  0  0  0  0  0  0  0  0  0  0  0
   18.8186  -13.2383    6.7333 C   0  0  0  0  0  0  0  0  0  0  0  0
   18.5933  -12.5710    5.5440 C   0  0  0  0  0  0  0  0  0  0  0  0
   19.6785  -11.8510    5.1956 N   0  0  0  0  0  0  0  0  0  0  0  0
   20.5976  -12.0515    6.1522 C   0  0  0  0  0  0  0  0  0  0  0  0
   20.0906  -12.8822    7.0786 N   0  0  0  0  0  0  0  0  0  0  0  0
   18.4166  -16.3342    8.5247 C   0  0  0  0  0  0  0  0  0  0  0  0
   17.4680  -16.5159    9.3473 O   0  0  0  0  0  0  0  0  0  0  0  0
   19.6668  -16.8818    8.9000 N   0  0  0  0  0  0  0  0  0  0  0  0
   19.8369  -17.5575   10.1894 C   0  0  0  0  0  0  0  0  0  0  0  0
   21.1863  -18.1376   10.3154 C   0  0  0  0  0  0  0  0  0  0  0  0
   22.0774  -18.0743    9.4302 O   0  0  0  0  0  0  0  0  0  0  0  0
   21.5054  -18.8026   11.4901 O   0  0  0  0  0  0  0  0  0  0  0  0
  2  1  1  1
  2  4  1  0
  2  3  1  0
  4  5  2  0
  6  7  1  0
  6  4  1  0
  7  8  1  1
  9  8  1  0
 10  9  2  0
 11 10  1  0
 12 11  1  0
 12 13  2  0
 13  9  1  0
 14 15  2  0
 14  7  1  0
 16 14  1  0
 17 16  1  0
 18 17  1  0
 19 18  2  0
 20 18  1  0
M  END
$$$$
