AHG.pdb
     RDKit          3D

 20 20  0  0  1  0  0  0  0  0999 V2000
   28.3376  -12.8994  -15.3719 C   0  0  0  0  0  0  0  0  0  0  0  0
   27.5773  -13.4933  -16.5368 C   0  0  2  0  0  0  0  0  0  0  0  0
   28.3260  -14.5308  -17.2034 N   0  0  0  0  0  0  0  0  0  0  0  0
   27.3310  -12.3881  -17.5198 C   0  0  0  0  0  0  0  0  0  0  0  0
   28.1331  -12.1962  -18.4843 O   0  0  0  0  0  0  0  0  0  0  0  0
   26.2094  -11.5232  -17.4164 N   0  0  0  0  0  0  0  0  0  0  0  0
   26.0313  -10.4138  -18.3828 C   0  0  1  0  0  0  0  0  0  0  0  0
   25.3845  -11.0207  -19.5909 C   0  0  0  0  0  0  0  0  0  0  0  0
   25.1128  -10.1131  -20.7076 C   0  0  0  0  0  0  0  0  0  0  0  0
   23.8836   -9.6806  -21.1685 C   0  0  0  0  0  0  0  0  0  0  0  0
   24.0407   -8.8491  -22.2178 N   0  0  0  0  0  0  0  0  0  0  0  0
   25.3609   -8.7452  -22.4332 C   0  0  0  0  0  0  0  0  0  0  0  0
   26.0118   -9.5000  -21.5321 N   0  0  0  0  0  0  0  0  0  0  0  0
   25.3054   -9.3054  -17.7600 C   0  0  0  0  0  0  0  0  0  0  0  0
   24.2672   -9.5743  -17.0822 O   0  0  0  0  0  0  0  0  0  0  0  0
   25.6506   -7.9347  -17.8348 N   0  0  0  0  0  0  0  0  0  0  0  0
   24.8179   -6.9119  -17.1954 C   0  0  0  0  0  0  0  0  0  0  0  0
   25.4133   -5.5710  -17.3388 C   0  0  0  0  0  0  0  0  0  0  0  0
   26.4962   -5.3289  -17.9308 O   0  0  0  0  0  0  0  0  0  0  0  0
   24.7386   -4.4931  -16.7848 O   0  0  0  0  0  0  0  0  0  0  0  0
  2  1  1  1
  2  4  1  0
  2  3  1  0
  4  5  2  0
  6  7  1  0
  6  4  1  0
  7  8  1  6
  9  8  1  0
 10  9  2  0
 11 10  1  0
 12 11  1  0
 12 13  2  0
 13  9  1  0
 14 15  2  0
 14  7  1  0
 16 14  1  0
 17 16  1  0
 18 17  1  0
 19 18  2  0
 20 18  1  0
M  END
$$$$
