AHG.pdb
     RDKit          3D

 20 20  0  0  1  0  0  0  0  0999 V2000
   27.7933  -18.7833  -15.9721 C   0  0  0  0  0  0  0  0  0  0  0  0
   28.1687  -20.2216  -16.2515 C   0  0  2  0  0  0  0  0  0  0  0  0
   28.1687  -20.5200  -17.6630 N   0  0  0  0  0  0  0  0  0  0  0  0
   27.1398  -21.0887  -15.5895 C   0  0  0  0  0  0  0  0  0  0  0  0
   27.0083  -21.0793  -14.3274 O   0  0  0  0  0  0  0  0  0  0  0  0
   26.2828  -21.9430  -16.3328 N   0  0  0  0  0  0  0  0  0  0  0  0
   25.2738  -22.7761  -15.6370 C   0  0  1  0  0  0  0  0  0  0  0  0
   23.9525  -22.4162  -16.2460 C   0  0  0  0  0  0  0  0  0  0  0  0
   23.3300  -21.1811  -15.7648 C   0  0  0  0  0  0  0  0  0  0  0  0
   23.7934  -20.3247  -14.7839 C   0  0  0  0  0  0  0  0  0  0  0  0
   22.9425  -19.2920  -14.6206 N   0  0  0  0  0  0  0  0  0  0  0  0
   21.9372  -19.4797  -15.4892 C   0  0  0  0  0  0  0  0  0  0  0  0
   22.1612  -20.6103  -16.1797 N   0  0  0  0  0  0  0  0  0  0  0  0
   25.6438  -24.1909  -15.7066 C   0  0  0  0  0  0  0  0  0  0  0  0
   24.7776  -25.0544  -15.3692 O   0  0  0  0  0  0  0  0  0  0  0  0
   26.8942  -24.7073  -16.1229 N   0  0  0  0  0  0  0  0  0  0  0  0
   27.1411  -26.1517  -16.1519 C   0  0  0  0  0  0  0  0  0  0  0  0
   28.5496  -26.4473  -16.4712 C   0  0  0  0  0  0  0  0  0  0  0  0
   29.4685  -25.5897  -16.5134 O   0  0  0  0  0  0  0  0  0  0  0  0
   28.8960  -27.7620  -16.7461 O   0  0  0  0  0  0  0  0  0  0  0  0
  2  1  1  6
  2  4  1  0
  2  3  1  0
  4  5  2  0
  6  7  1  0
  6  4  1  0
  7  8  1  6
  9  8  1  0
 10  9  2  0
 11 10  1  0
 12 11  1  0
 12 13  2  0
 13  9  1  0
 14 15  2  0
 14  7  1  0
 16 14  1  0
 17 16  1  0
 18 17  1  0
 19 18  2  0
 20 18  1  0
M  END
$$$$
