AHG.pdb
     RDKit          3D

 20 20  0  0  1  0  0  0  0  0999 V2000
   18.1446   -6.5814  -20.4909 C   0  0  0  0  0  0  0  0  0  0  0  0
   19.2269   -7.6332  -20.5908 C   0  0  2  0  0  0  0  0  0  0  0  0
   18.7153   -8.8980  -21.0596 N   0  0  0  0  0  0  0  0  0  0  0  0
   19.7829   -7.8347  -19.2128 C   0  0  0  0  0  0  0  0  0  0  0  0
   19.0662   -8.3480  -18.3001 O   0  0  0  0  0  0  0  0  0  0  0  0
   21.1123   -7.4665  -18.8750 N   0  0  0  0  0  0  0  0  0  0  0  0
   21.6780   -7.8410  -17.5574 C   0  0  1  0  0  0  0  0  0  0  0  0
   23.0899   -8.2679  -17.8224 C   0  0  0  0  0  0  0  0  0  0  0  0
   23.2633   -9.5489  -18.5103 C   0  0  0  0  0  0  0  0  0  0  0  0
   22.2845  -10.4534  -18.8770 C   0  0  0  0  0  0  0  0  0  0  0  0
   22.8352  -11.5185  -19.4931 N   0  0  0  0  0  0  0  0  0  0  0  0
   24.1593  -11.3040  -19.5241 C   0  0  0  0  0  0  0  0  0  0  0  0
   24.4253  -10.1251  -18.9370 N   0  0  0  0  0  0  0  0  0  0  0  0
   21.5120   -6.7456  -16.6003 C   0  0  0  0  0  0  0  0  0  0  0  0
   21.6453   -5.5562  -17.0213 O   0  0  0  0  0  0  0  0  0  0  0  0
   21.2090   -6.8783  -15.2240 N   0  0  0  0  0  0  0  0  0  0  0  0
   21.0897   -5.6993  -14.3616 C   0  0  0  0  0  0  0  0  0  0  0  0
   22.4098   -5.2520  -13.8814 C   0  0  0  0  0  0  0  0  0  0  0  0
   23.5003   -5.8116  -14.1629 O   0  0  0  0  0  0  0  0  0  0  0  0
   22.4633   -4.1355  -13.0601 O   0  0  0  0  0  0  0  0  0  0  0  0
  2  1  1  1
  2  4  1  0
  2  3  1  0
  4  5  2  0
  6  7  1  0
  6  4  1  0
  7  8  1  6
  9  8  1  0
 10  9  2  0
 11 10  1  0
 12 11  1  0
 12 13  2  0
 13  9  1  0
 14 15  2  0
 14  7  1  0
 16 14  1  0
 17 16  1  0
 18 17  1  0
 19 18  2  0
 20 18  1  0
M  END
$$$$
