AHG.pdb
     RDKit          3D

 20 20  0  0  1  0  0  0  0  0999 V2000
   19.8427   -9.8740  -19.6648 C   0  0  0  0  0  0  0  0  0  0  0  0
   21.1765  -10.4823  -19.2927 C   0  0  2  0  0  0  0  0  0  0  0  0
   21.3038  -11.8418  -19.7583 N   0  0  0  0  0  0  0  0  0  0  0  0
   21.2621  -10.4900  -17.7956 C   0  0  0  0  0  0  0  0  0  0  0  0
   20.3651  -11.0625  -17.1042 O   0  0  0  0  0  0  0  0  0  0  0  0
   22.3318   -9.8682  -17.0984 N   0  0  0  0  0  0  0  0  0  0  0  0
   22.3953   -9.9326  -15.6192 C   0  0  1  0  0  0  0  0  0  0  0  0
   23.7881  -10.3746  -15.2862 C   0  0  0  0  0  0  0  0  0  0  0  0
   24.1068  -11.7779  -15.5573 C   0  0  0  0  0  0  0  0  0  0  0  0
   23.2854  -12.7421  -16.1105 C   0  0  0  0  0  0  0  0  0  0  0  0
   23.9368  -13.9187  -16.2025 N   0  0  0  0  0  0  0  0  0  0  0  0
   25.1694  -13.7164  -15.7126 C   0  0  0  0  0  0  0  0  0  0  0  0
   25.2804  -12.4352  -15.3232 N   0  0  0  0  0  0  0  0  0  0  0  0
   21.9736   -8.6586  -15.0339 C   0  0  0  0  0  0  0  0  0  0  0  0
   22.0313   -8.5298  -13.7731 O   0  0  0  0  0  0  0  0  0  0  0  0
   21.5001   -7.5296  -15.7444 N   0  0  0  0  0  0  0  0  0  0  0  0
   21.1582   -6.2879  -15.0447 C   0  0  0  0  0  0  0  0  0  0  0  0
   19.7400   -5.9363  -15.2411 C   0  0  0  0  0  0  0  0  0  0  0  0
   18.8966   -6.6652  -15.8234 O   0  0  0  0  0  0  0  0  0  0  0  0
   19.2947   -4.7170  -14.7525 O   0  0  0  0  0  0  0  0  0  0  0  0
  2  1  1  1
  2  4  1  0
  2  3  1  0
  4  5  2  0
  6  7  1  0
  6  4  1  0
  7  8  1  6
  9  8  1  0
 10  9  2  0
 11 10  1  0
 12 11  1  0
 12 13  2  0
 13  9  1  0
 14 15  2  0
 14  7  1  0
 16 14  1  0
 17 16  1  0
 18 17  1  0
 19 18  2  0
 20 18  1  0
M  END
$$$$
