AHG.pdb
     RDKit          3D

 20 20  0  0  1  0  0  0  0  0999 V2000
   28.3287  -37.5841   -4.9394 C   0  0  0  0  0  0  0  0  0  0  0  0
   28.7926  -36.3662   -5.7069 C   0  0  2  0  0  0  0  0  0  0  0  0
   28.8291  -36.6008   -7.1299 N   0  0  0  0  0  0  0  0  0  0  0  0
   30.1853  -36.0524   -5.2481 C   0  0  0  0  0  0  0  0  0  0  0  0
   31.1866  -36.5434   -5.8536 O   0  0  0  0  0  0  0  0  0  0  0  0
   30.4401  -35.2072   -4.1356 N   0  0  0  0  0  0  0  0  0  0  0  0
   31.8337  -34.8973   -3.7380 C   0  0  1  0  0  0  0  0  0  0  0  0
   32.1300  -33.5404   -4.3011 C   0  0  0  0  0  0  0  0  0  0  0  0
   32.6523  -33.5042   -5.6687 C   0  0  0  0  0  0  0  0  0  0  0  0
   32.9339  -34.5742   -6.4971 C   0  0  0  0  0  0  0  0  0  0  0  0
   33.4003  -34.1396   -7.6849 N   0  0  0  0  0  0  0  0  0  0  0  0
   33.4199  -32.7994   -7.6244 C   0  0  0  0  0  0  0  0  0  0  0  0
   32.9729  -32.4094   -6.4188 N   0  0  0  0  0  0  0  0  0  0  0  0
   31.9943  -35.0355   -2.2894 C   0  0  0  0  0  0  0  0  0  0  0  0
   31.1499  -34.4630   -1.5353 O   0  0  0  0  0  0  0  0  0  0  0  0
   33.0150  -35.7597   -1.6280 N   0  0  0  0  0  0  0  0  0  0  0  0
   33.1196  -35.7500   -0.1661 C   0  0  0  0  0  0  0  0  0  0  0  0
   32.2390  -36.7651    0.4400 C   0  0  0  0  0  0  0  0  0  0  0  0
   31.4615  -37.5142   -0.2050 O   0  0  0  0  0  0  0  0  0  0  0  0
   32.2626  -36.9122    1.8190 O   0  0  0  0  0  0  0  0  0  0  0  0
  2  1  1  1
  2  4  1  0
  2  3  1  0
  4  5  2  0
  6  7  1  0
  6  4  1  0
  7  8  1  1
  9  8  1  0
 10  9  2  0
 11 10  1  0
 12 11  1  0
 12 13  2  0
 13  9  1  0
 14 15  2  0
 14  7  1  0
 16 14  1  0
 17 16  1  0
 18 17  1  0
 19 18  2  0
 20 18  1  0
M  END
$$$$
