PEK.pdb
     RDKit          3D

 26 26  0  0  1  0  0  0  0  0999 V2000
    7.9786  -14.5099   18.7421 N   0  0  0  0  0  0  0  0  0  0  0  0
    6.6591  -14.5828   19.3084 C   0  0  0  0  0  0  0  0  0  0  0  0
    6.5751  -13.3957   20.2344 C   0  0  0  0  0  0  0  0  0  0  0  0
    7.9648  -12.9176   20.4602 C   0  0  0  0  0  0  0  0  0  0  0  0
    8.8075  -13.9477   19.7524 C   0  0  1  0  0  0  0  0  0  0  0  0
    9.2122  -14.9806   20.7441 C   0  0  0  0  0  0  0  0  0  0  0  0
    8.4200  -15.9409   21.0427 O   0  0  0  0  0  0  0  0  0  0  0  0
   10.4696  -14.9940   21.4242 N   0  0  0  0  0  0  0  0  0  0  0  0
   10.8945  -16.0796   22.2240 C   0  0  1  0  0  0  0  0  0  0  0  0
   12.2583  -16.5958   22.1094 C   0  0  0  0  0  0  0  0  0  0  0  0
   12.6312  -17.8257   22.8445 C   0  0  0  0  0  0  0  0  0  0  0  0
   14.0218  -18.2826   22.6223 C   0  0  0  0  0  0  0  0  0  0  0  0
   14.9387  -17.8937   23.3830 O   0  0  0  0  0  0  0  0  0  0  0  0
   10.2980  -16.1170   23.6124 C   0  0  0  0  0  0  0  0  0  0  0  0
   10.1108  -15.0904   24.2712 O   0  0  0  0  0  0  0  0  0  0  0  0
   14.3288  -19.1423   21.5769 O   0  0  0  0  0  0  0  0  0  0  0  0
    9.9650  -17.3875   24.1377 N   0  0  0  0  0  0  0  0  0  0  0  0
    9.3175  -17.7067   25.3364 C   0  0  1  0  0  0  0  0  0  0  0  0
    8.4743  -18.9109   25.4480 C   0  0  0  0  0  0  0  0  0  0  0  0
    7.8081  -19.1843   26.7358 C   0  0  0  0  0  0  0  0  0  0  0  0
    7.0592  -20.4610   26.8094 C   0  0  0  0  0  0  0  0  0  0  0  0
    6.1983  -20.6244   28.0397 C   0  0  0  0  0  0  0  0  0  0  0  0
    5.3746  -21.7803   27.9989 N   0  0  0  0  0  0  0  0  0  0  0  0
   10.2166  -17.6816   26.5427 C   0  0  0  0  0  0  0  0  0  0  0  0
    9.8195  -17.1966   27.5967 O   0  0  0  0  0  0  0  0  0  0  0  0
   11.4933  -18.2029   26.4703 O   0  0  0  0  0  0  0  0  0  0  0  0
  2  1  1  0
  3  2  1  0
  4  5  1  0
  4  3  1  0
  5  1  1  0
  5  6  1  1
  6  8  1  0
  7  6  2  0
  8  9  1  0
  9 14  1  0
  9 10  1  1
 11 10  1  0
 12 11  1  0
 13 12  2  0
 14 15  2  0
 14 17  1  0
 16 12  1  0
 17 18  1  0
 18 24  1  0
 18 19  1  6
 20 19  1  0
 21 20  1  0
 22 21  1  0
 23 22  1  0
 24 25  2  0
 24 26  1  0
M  END
$$$$
