PEK.pdb
     RDKit          3D

 26 26  0  0  1  0  0  0  0  0999 V2000
    7.9709  -14.5147   18.7414 N   0  0  0  0  0  0  0  0  0  0  0  0
    6.8359  -14.0045   19.4613 C   0  0  0  0  0  0  0  0  0  0  0  0
    7.3430  -12.7561   20.1382 C   0  0  0  0  0  0  0  0  0  0  0  0
    8.8285  -12.8107   20.1011 C   0  0  0  0  0  0  0  0  0  0  0  0
    9.1130  -14.1709   19.5168 C   0  0  1  0  0  0  0  0  0  0  0  0
    9.3026  -15.1300   20.6386 C   0  0  0  0  0  0  0  0  0  0  0  0
    8.2926  -15.6737   21.2069 O   0  0  0  0  0  0  0  0  0  0  0  0
   10.5764  -15.5154   21.1609 N   0  0  0  0  0  0  0  0  0  0  0  0
   10.7234  -16.4855   22.1787 C   0  0  1  0  0  0  0  0  0  0  0  0
   11.5938  -17.6439   21.9788 C   0  0  0  0  0  0  0  0  0  0  0  0
   11.6269  -18.7105   23.0051 C   0  0  0  0  0  0  0  0  0  0  0  0
   12.6303  -19.7720   22.7633 C   0  0  0  0  0  0  0  0  0  0  0  0
   13.8509  -19.4883   22.7442 O   0  0  0  0  0  0  0  0  0  0  0  0
   10.6784  -15.9395   23.5876 C   0  0  0  0  0  0  0  0  0  0  0  0
   11.5122  -15.1292   24.0014 O   0  0  0  0  0  0  0  0  0  0  0  0
   12.2379  -21.0870   22.5562 O   0  0  0  0  0  0  0  0  0  0  0  0
    9.6376  -16.4023   24.4262 N   0  0  0  0  0  0  0  0  0  0  0  0
    9.3696  -16.0823   25.7618 C   0  0  1  0  0  0  0  0  0  0  0  0
    8.0999  -15.4414   26.1502 C   0  0  0  0  0  0  0  0  0  0  0  0
    7.9412  -13.9946   25.9084 C   0  0  0  0  0  0  0  0  0  0  0  0
    6.6187  -13.4286   26.2643 C   0  0  0  0  0  0  0  0  0  0  0  0
    6.4749  -11.9445   26.0224 C   0  0  0  0  0  0  0  0  0  0  0  0
    5.1742  -11.4525   26.3093 N   0  0  0  0  0  0  0  0  0  0  0  0
    9.6057  -17.2166   26.7219 C   0  0  0  0  0  0  0  0  0  0  0  0
    9.7526  -18.3590   26.3012 O   0  0  0  0  0  0  0  0  0  0  0  0
    9.6572  -16.9786   28.0811 O   0  0  0  0  0  0  0  0  0  0  0  0
  2  1  1  0
  3  2  1  0
  4  5  1  0
  4  3  1  0
  5  1  1  0
  5  6  1  1
  6  8  1  0
  7  6  2  0
  8  9  1  0
  9 14  1  0
  9 10  1  6
 11 10  1  0
 12 11  1  0
 13 12  2  0
 14 15  2  0
 14 17  1  0
 16 12  1  0
 17 18  1  0
 18 24  1  0
 18 19  1  6
 20 19  1  0
 21 20  1  0
 22 21  1  0
 23 22  1  0
 24 25  2  0
 24 26  1  0
M  END
$$$$
