PEK.pdb
     RDKit          3D

 26 26  0  0  1  0  0  0  0  0999 V2000
    7.6274  -14.1713   19.6506 N   0  0  0  0  0  0  0  0  0  0  0  0
    8.0491  -12.9532   20.2873 C   0  0  0  0  0  0  0  0  0  0  0  0
    8.3589  -12.0146   19.1485 C   0  0  0  0  0  0  0  0  0  0  0  0
    8.4789  -12.8426   17.9193 C   0  0  0  0  0  0  0  0  0  0  0  0
    8.3648  -14.2538   18.4368 C   0  0  1  0  0  0  0  0  0  0  0  0
    9.7375  -14.7729   18.6825 C   0  0  0  0  0  0  0  0  0  0  0  0
   10.4281  -15.2644   17.7232 O   0  0  0  0  0  0  0  0  0  0  0  0
   10.3826  -14.7693   19.9583 N   0  0  0  0  0  0  0  0  0  0  0  0
   11.7351  -15.1425   20.1320 C   0  0  1  0  0  0  0  0  0  0  0  0
   12.6978  -14.9685   19.0446 C   0  0  0  0  0  0  0  0  0  0  0  0
   14.0796  -15.4729   19.2132 C   0  0  0  0  0  0  0  0  0  0  0  0
   14.9935  -15.1628   18.0905 C   0  0  0  0  0  0  0  0  0  0  0  0
   15.9181  -15.9564   17.7971 O   0  0  0  0  0  0  0  0  0  0  0  0
   12.2796  -14.9259   21.5254 C   0  0  0  0  0  0  0  0  0  0  0  0
   13.2171  -14.1550   21.7483 O   0  0  0  0  0  0  0  0  0  0  0  0
   14.8413  -13.9982   17.3511 O   0  0  0  0  0  0  0  0  0  0  0  0
   11.6726  -15.6533   22.5758 N   0  0  0  0  0  0  0  0  0  0  0  0
   12.2433  -16.1486   23.7535 C   0  0  1  0  0  0  0  0  0  0  0  0
   11.6219  -17.2653   24.4886 C   0  0  0  0  0  0  0  0  0  0  0  0
   12.2215  -17.6813   25.7710 C   0  0  0  0  0  0  0  0  0  0  0  0
   11.5902  -18.8541   26.4208 C   0  0  0  0  0  0  0  0  0  0  0  0
   12.1604  -19.2175   27.7715 C   0  0  0  0  0  0  0  0  0  0  0  0
   11.5344  -20.3485   28.3591 N   0  0  0  0  0  0  0  0  0  0  0  0
   13.7119  -16.4556   23.6394 C   0  0  0  0  0  0  0  0  0  0  0  0
   14.5139  -15.9189   24.3962 O   0  0  0  0  0  0  0  0  0  0  0  0
   14.1655  -17.3416   22.6822 O   0  0  0  0  0  0  0  0  0  0  0  0
  2  1  1  0
  3  2  1  0
  4  5  1  0
  4  3  1  0
  5  1  1  0
  5  6  1  1
  6  8  1  0
  7  6  2  0
  8  9  1  0
  9 14  1  0
  9 10  1  6
 11 10  1  0
 12 11  1  0
 13 12  2  0
 14 15  2  0
 14 17  1  0
 16 12  1  0
 17 18  1  0
 18 24  1  0
 18 19  1  6
 20 19  1  0
 21 20  1  0
 22 21  1  0
 23 22  1  0
 24 25  2  0
 24 26  1  0
M  END
$$$$
