PEK.pdb
     RDKit          3D

 26 26  0  0  1  0  0  0  0  0999 V2000
    9.5263  -14.2583   17.8848 N   0  0  0  0  0  0  0  0  0  0  0  0
    8.3205  -14.8973   17.4325 C   0  0  0  0  0  0  0  0  0  0  0  0
    7.2136  -13.9617   17.8489 C   0  0  0  0  0  0  0  0  0  0  0  0
    7.7849  -13.0283   18.8555 C   0  0  0  0  0  0  0  0  0  0  0  0
    9.1774  -13.5621   19.0753 C   0  0  1  0  0  0  0  0  0  0  0  0
    9.1442  -14.4858   20.2414 C   0  0  0  0  0  0  0  0  0  0  0  0
    8.5216  -14.1599   21.3115 O   0  0  0  0  0  0  0  0  0  0  0  0
    9.7772  -15.7674   20.2710 N   0  0  0  0  0  0  0  0  0  0  0  0
    9.9693  -16.4976   21.4661 C   0  0  1  0  0  0  0  0  0  0  0  0
   10.7109  -17.7583   21.4536 C   0  0  0  0  0  0  0  0  0  0  0  0
   10.6956  -18.6194   22.6580 C   0  0  0  0  0  0  0  0  0  0  0  0
   11.5646  -19.8152   22.5756 C   0  0  0  0  0  0  0  0  0  0  0  0
   12.8083  -19.6823   22.4971 O   0  0  0  0  0  0  0  0  0  0  0  0
   10.1436  -15.6512   22.7063 C   0  0  0  0  0  0  0  0  0  0  0  0
   10.8505  -14.6396   22.7132 O   0  0  0  0  0  0  0  0  0  0  0  0
   11.0197  -21.0916   22.5846 O   0  0  0  0  0  0  0  0  0  0  0  0
    9.4645  -16.0701   23.8743 N   0  0  0  0  0  0  0  0  0  0  0  0
    9.1676  -15.3441   25.0331 C   0  0  1  0  0  0  0  0  0  0  0  0
    8.0418  -14.3928   25.0670 C   0  0  0  0  0  0  0  0  0  0  0  0
    7.8108  -13.6227   26.3041 C   0  0  0  0  0  0  0  0  0  0  0  0
    6.6500  -12.7018   26.2761 C   0  0  0  0  0  0  0  0  0  0  0  0
    6.4462  -11.8952   27.5368 C   0  0  0  0  0  0  0  0  0  0  0  0
    5.2605  -11.1141   27.5179 N   0  0  0  0  0  0  0  0  0  0  0  0
    9.0733  -16.1872   26.2758 C   0  0  0  0  0  0  0  0  0  0  0  0
    8.9297  -17.4018   26.1866 O   0  0  0  0  0  0  0  0  0  0  0  0
    9.1467  -15.5991   27.5231 O   0  0  0  0  0  0  0  0  0  0  0  0
  2  1  1  0
  3  2  1  0
  4  5  1  0
  4  3  1  0
  5  1  1  0
  5  6  1  1
  6  8  1  0
  7  6  2  0
  8  9  1  0
  9 14  1  0
  9 10  1  6
 11 10  1  0
 12 11  1  0
 13 12  2  0
 14 15  2  0
 14 17  1  0
 16 12  1  0
 17 18  1  0
 18 24  1  0
 18 19  1  6
 20 19  1  0
 21 20  1  0
 22 21  1  0
 23 22  1  0
 24 25  2  0
 24 26  1  0
M  END
$$$$
