PEK.pdb
     RDKit          3D

 26 26  0  0  1  0  0  0  0  0999 V2000
    9.2230  -14.6794   17.8046 N   0  0  0  0  0  0  0  0  0  0  0  0
    7.8032  -14.7583   17.5930 C   0  0  0  0  0  0  0  0  0  0  0  0
    7.2590  -13.4778   18.1744 C   0  0  0  0  0  0  0  0  0  0  0  0
    8.3245  -12.9009   19.0364 C   0  0  0  0  0  0  0  0  0  0  0  0
    9.3984  -13.9587   19.0185 C   0  0  1  0  0  0  0  0  0  0  0  0
    9.1995  -14.8452   20.1970 C   0  0  0  0  0  0  0  0  0  0  0  0
    8.2563  -14.6154   21.0315 O   0  0  0  0  0  0  0  0  0  0  0  0
   10.0091  -15.9861   20.4912 N   0  0  0  0  0  0  0  0  0  0  0  0
    9.9582  -16.6597   21.7331 C   0  0  1  0  0  0  0  0  0  0  0  0
   10.5574  -17.9856   21.8826 C   0  0  0  0  0  0  0  0  0  0  0  0
   10.3680  -18.7272   23.1500 C   0  0  0  0  0  0  0  0  0  0  0  0
   11.0123  -20.0596   23.1903 C   0  0  0  0  0  0  0  0  0  0  0  0
   10.3300  -21.0784   23.4495 O   0  0  0  0  0  0  0  0  0  0  0  0
   10.0501  -15.7625   22.9462 C   0  0  0  0  0  0  0  0  0  0  0  0
   11.1007  -15.1982   23.2638 O   0  0  0  0  0  0  0  0  0  0  0  0
   12.3707  -20.1998   22.9432 O   0  0  0  0  0  0  0  0  0  0  0  0
    8.8756  -15.5973   23.7171 N   0  0  0  0  0  0  0  0  0  0  0  0
    8.6926  -14.8868   24.9086 C   0  0  1  0  0  0  0  0  0  0  0  0
    7.4588  -14.1180   25.1539 C   0  0  0  0  0  0  0  0  0  0  0  0
    7.3609  -13.3249   26.3942 C   0  0  0  0  0  0  0  0  0  0  0  0
    6.1464  -12.4853   26.5215 C   0  0  0  0  0  0  0  0  0  0  0  0
    6.1130  -11.5942   27.7407 C   0  0  0  0  0  0  0  0  0  0  0  0
    4.8879  -10.8917   27.8891 N   0  0  0  0  0  0  0  0  0  0  0  0
    8.9671  -15.6925   26.1495 C   0  0  0  0  0  0  0  0  0  0  0  0
    9.1804  -15.1268   27.2164 O   0  0  0  0  0  0  0  0  0  0  0  0
    8.9814  -17.0722   26.0945 O   0  0  0  0  0  0  0  0  0  0  0  0
  2  1  1  0
  3  2  1  0
  4  5  1  0
  4  3  1  0
  5  1  1  0
  5  6  1  1
  6  8  1  0
  7  6  2  0
  8  9  1  0
  9 14  1  0
  9 10  1  6
 11 10  1  0
 12 11  1  0
 13 12  2  0
 14 15  2  0
 14 17  1  0
 16 12  1  0
 17 18  1  0
 18 24  1  0
 18 19  1  1
 20 19  1  0
 21 20  1  0
 22 21  1  0
 23 22  1  0
 24 25  2  0
 24 26  1  0
M  END
$$$$
