PEK.pdb
     RDKit          3D

 26 26  0  0  1  0  0  0  0  0999 V2000
    8.8970  -14.5009   17.9816 N   0  0  0  0  0  0  0  0  0  0  0  0
    7.4614  -14.4729   17.9101 C   0  0  0  0  0  0  0  0  0  0  0  0
    7.0666  -13.2214   18.6529 C   0  0  0  0  0  0  0  0  0  0  0  0
    8.2478  -12.7937   19.4484 C   0  0  0  0  0  0  0  0  0  0  0  0
    9.2383  -13.9087   19.2293 C   0  0  1  0  0  0  0  0  0  0  0  0
    9.0920  -14.8876   20.3404 C   0  0  0  0  0  0  0  0  0  0  0  0
    8.0859  -14.8293   21.1299 O   0  0  0  0  0  0  0  0  0  0  0  0
   10.0223  -15.9378   20.6151 N   0  0  0  0  0  0  0  0  0  0  0  0
   10.1417  -16.5394   21.8889 C   0  0  1  0  0  0  0  0  0  0  0  0
   10.9772  -17.7257   22.0732 C   0  0  0  0  0  0  0  0  0  0  0  0
   10.9892  -18.7728   21.0265 C   0  0  0  0  0  0  0  0  0  0  0  0
   11.8903  -19.9145   21.3027 C   0  0  0  0  0  0  0  0  0  0  0  0
   13.1250  -19.7966   21.1232 O   0  0  0  0  0  0  0  0  0  0  0  0
   10.1145  -15.5742   23.0519 C   0  0  0  0  0  0  0  0  0  0  0  0
   10.4961  -14.4058   22.9408 O   0  0  0  0  0  0  0  0  0  0  0  0
   11.3856  -21.1233   21.7616 O   0  0  0  0  0  0  0  0  0  0  0  0
    9.6368  -16.0672   24.2887 N   0  0  0  0  0  0  0  0  0  0  0  0
    9.2282  -15.3593   25.4244 C   0  0  1  0  0  0  0  0  0  0  0  0
    8.1137  -14.3963   25.3603 C   0  0  0  0  0  0  0  0  0  0  0  0
    7.6928  -13.7260   26.6055 C   0  0  0  0  0  0  0  0  0  0  0  0
    6.5548  -12.7861   26.4719 C   0  0  0  0  0  0  0  0  0  0  0  0
    6.1692  -12.0680   27.7436 C   0  0  0  0  0  0  0  0  0  0  0  0
    5.0260  -11.2389   27.5954 N   0  0  0  0  0  0  0  0  0  0  0  0
    8.9979  -16.2240   26.6342 C   0  0  0  0  0  0  0  0  0  0  0  0
    8.8636  -15.7123   27.7405 O   0  0  0  0  0  0  0  0  0  0  0  0
    8.9375  -17.5977   26.5065 O   0  0  0  0  0  0  0  0  0  0  0  0
  2  1  1  0
  3  2  1  0
  4  5  1  0
  4  3  1  0
  5  1  1  0
  5  6  1  1
  6  8  1  0
  7  6  2  0
  8  9  1  0
  9 14  1  0
  9 10  1  6
 11 10  1  0
 12 11  1  0
 13 12  2  0
 14 15  2  0
 14 17  1  0
 16 12  1  0
 17 18  1  0
 18 24  1  0
 18 19  1  6
 20 19  1  0
 21 20  1  0
 22 21  1  0
 23 22  1  0
 24 25  2  0
 24 26  1  0
M  END
$$$$
