PEK.pdb
     RDKit          3D

 26 26  0  0  1  0  0  0  0  0999 V2000
    9.0870  -13.8623   17.6833 N   0  0  0  0  0  0  0  0  0  0  0  0
    7.8052  -14.4685   17.4457 C   0  0  0  0  0  0  0  0  0  0  0  0
    6.8414  -13.6624   18.2795 C   0  0  0  0  0  0  0  0  0  0  0  0
    7.6508  -12.8845   19.2546 C   0  0  0  0  0  0  0  0  0  0  0  0
    9.0530  -13.3877   19.0240 C   0  0  1  0  0  0  0  0  0  0  0  0
    9.3164  -14.4918   19.9861 C   0  0  0  0  0  0  0  0  0  0  0  0
    8.9655  -14.3831   21.2124 O   0  0  0  0  0  0  0  0  0  0  0  0
    9.9577  -15.7225   19.6425 N   0  0  0  0  0  0  0  0  0  0  0  0
   10.2394  -16.7293   20.5941 C   0  0  1  0  0  0  0  0  0  0  0  0
   10.2331  -18.1394   20.2055 C   0  0  0  0  0  0  0  0  0  0  0  0
   10.3507  -19.1796   21.2526 C   0  0  0  0  0  0  0  0  0  0  0  0
   10.3497  -20.5709   20.7465 C   0  0  0  0  0  0  0  0  0  0  0  0
   11.3174  -21.3283   20.9924 O   0  0  0  0  0  0  0  0  0  0  0  0
   11.2610  -16.3461   21.6403 C   0  0  0  0  0  0  0  0  0  0  0  0
   12.4452  -16.1473   21.3555 O   0  0  0  0  0  0  0  0  0  0  0  0
    9.2852  -21.0542   19.9984 O   0  0  0  0  0  0  0  0  0  0  0  0
   10.8058  -16.2296   22.9745 N   0  0  0  0  0  0  0  0  0  0  0  0
   11.5319  -16.3177   24.1674 C   0  0  1  0  0  0  0  0  0  0  0  0
   10.8806  -16.7251   25.4258 C   0  0  0  0  0  0  0  0  0  0  0  0
   11.6967  -16.7756   26.6540 C   0  0  0  0  0  0  0  0  0  0  0  0
   10.9852  -17.2194   27.8760 C   0  0  0  0  0  0  0  0  0  0  0  0
   11.7752  -17.0869   29.1566 C   0  0  0  0  0  0  0  0  0  0  0  0
   11.0867  -17.5835   30.2948 N   0  0  0  0  0  0  0  0  0  0  0  0
   12.8060  -17.1098   24.0510 C   0  0  0  0  0  0  0  0  0  0  0  0
   12.7645  -18.3097   23.8010 O   0  0  0  0  0  0  0  0  0  0  0  0
   14.0283  -16.4915   24.2257 O   0  0  0  0  0  0  0  0  0  0  0  0
  2  1  1  0
  3  2  1  0
  4  5  1  0
  4  3  1  0
  5  1  1  0
  5  6  1  1
  6  8  1  0
  7  6  2  0
  8  9  1  0
  9 14  1  0
  9 10  1  6
 11 10  1  0
 12 11  1  0
 13 12  2  0
 14 15  2  0
 14 17  1  0
 16 12  1  0
 17 18  1  0
 18 24  1  0
 18 19  1  1
 20 19  1  0
 21 20  1  0
 22 21  1  0
 23 22  1  0
 24 25  2  0
 24 26  1  0
M  END
$$$$
