PEK.pdb
     RDKit          3D

 26 26  0  0  1  0  0  0  0  0999 V2000
    8.8102  -14.8434   18.0159 N   0  0  0  0  0  0  0  0  0  0  0  0
    7.3994  -14.5767   18.0900 C   0  0  0  0  0  0  0  0  0  0  0  0
    7.3014  -13.2180   18.7367 C   0  0  0  0  0  0  0  0  0  0  0  0
    8.6218  -12.9327   19.3580 C   0  0  0  0  0  0  0  0  0  0  0  0
    9.3876  -14.2150   19.1541 C   0  0  1  0  0  0  0  0  0  0  0  0
    9.2193  -15.0571   20.3693 C   0  0  0  0  0  0  0  0  0  0  0  0
    8.2452  -14.8502   21.1738 O   0  0  0  0  0  0  0  0  0  0  0  0
   10.0929  -16.1287   20.7329 N   0  0  0  0  0  0  0  0  0  0  0  0
   10.0839  -16.7200   22.0170 C   0  0  1  0  0  0  0  0  0  0  0  0
   10.7547  -17.9990   22.2491 C   0  0  0  0  0  0  0  0  0  0  0  0
   10.5777  -18.6840   23.5497 C   0  0  0  0  0  0  0  0  0  0  0  0
   11.2824  -19.9807   23.6678 C   0  0  0  0  0  0  0  0  0  0  0  0
   12.5226  -20.0063   23.8468 O   0  0  0  0  0  0  0  0  0  0  0  0
   10.1323  -15.7406   23.1674 C   0  0  0  0  0  0  0  0  0  0  0  0
   11.0384  -14.9105   23.2815 O   0  0  0  0  0  0  0  0  0  0  0  0
   10.5860  -21.1782   23.5834 O   0  0  0  0  0  0  0  0  0  0  0  0
    9.0925  -15.8161   24.1234 N   0  0  0  0  0  0  0  0  0  0  0  0
    8.7859  -14.9367   25.1678 C   0  0  1  0  0  0  0  0  0  0  0  0
    7.5302  -14.1641   25.1676 C   0  0  0  0  0  0  0  0  0  0  0  0
    7.2945  -13.2078   26.2662 C   0  0  0  0  0  0  0  0  0  0  0  0
    6.0283  -12.4419   26.1860 C   0  0  0  0  0  0  0  0  0  0  0  0
    5.8156  -11.4442   27.2999 C   0  0  0  0  0  0  0  0  0  0  0  0
    4.6533  -10.6474   27.1254 N   0  0  0  0  0  0  0  0  0  0  0  0
    8.9356  -15.5391   26.5385 C   0  0  0  0  0  0  0  0  0  0  0  0
    8.8663  -16.7543   26.6881 O   0  0  0  0  0  0  0  0  0  0  0  0
    9.1506  -14.7282   27.6354 O   0  0  0  0  0  0  0  0  0  0  0  0
  2  1  1  0
  3  2  1  0
  4  5  1  0
  4  3  1  0
  5  1  1  0
  5  6  1  1
  6  8  1  0
  7  6  2  0
  8  9  1  0
  9 14  1  0
  9 10  1  6
 11 10  1  0
 12 11  1  0
 13 12  2  0
 14 15  2  0
 14 17  1  0
 16 12  1  0
 17 18  1  0
 18 24  1  0
 18 19  1  6
 20 19  1  0
 21 20  1  0
 22 21  1  0
 23 22  1  0
 24 25  2  0
 24 26  1  0
M  END
$$$$
