PEK.pdb
     RDKit          3D

 26 26  0  0  1  0  0  0  0  0999 V2000
    9.3967  -13.8646   18.5902 N   0  0  0  0  0  0  0  0  0  0  0  0
    8.2397  -14.4551   17.9740 C   0  0  0  0  0  0  0  0  0  0  0  0
    7.0836  -13.6078   18.4425 C   0  0  0  0  0  0  0  0  0  0  0  0
    7.5645  -12.8156   19.6053 C   0  0  0  0  0  0  0  0  0  0  0  0
    8.9544  -13.3498   19.8404 C   0  0  1  0  0  0  0  0  0  0  0  0
    8.8725  -14.4293   20.8613 C   0  0  0  0  0  0  0  0  0  0  0  0
    8.0473  -14.3412   21.8360 O   0  0  0  0  0  0  0  0  0  0  0  0
    9.6739  -15.6131   20.8464 N   0  0  0  0  0  0  0  0  0  0  0  0
    9.6901  -16.5387   21.9150 C   0  0  1  0  0  0  0  0  0  0  0  0
   10.1228  -17.9184   21.6943 C   0  0  0  0  0  0  0  0  0  0  0  0
    9.9405  -18.9158   22.7733 C   0  0  0  0  0  0  0  0  0  0  0  0
   10.3641  -20.2907   22.4239 C   0  0  0  0  0  0  0  0  0  0  0  0
   11.3202  -20.4706   21.6338 O   0  0  0  0  0  0  0  0  0  0  0  0
   10.0505  -15.9497   23.2597 C   0  0  0  0  0  0  0  0  0  0  0  0
   11.1214  -15.3675   23.4524 O   0  0  0  0  0  0  0  0  0  0  0  0
    9.7144  -21.3928   22.9620 O   0  0  0  0  0  0  0  0  0  0  0  0
    9.1072  -16.0985   24.3032 N   0  0  0  0  0  0  0  0  0  0  0  0
    9.1772  -15.6552   25.6285 C   0  0  1  0  0  0  0  0  0  0  0  0
    8.0503  -14.9364   26.2506 C   0  0  0  0  0  0  0  0  0  0  0  0
    7.8290  -13.5249   25.8822 C   0  0  0  0  0  0  0  0  0  0  0  0
    6.6370  -12.8859   26.4878 C   0  0  0  0  0  0  0  0  0  0  0  0
    6.4783  -11.4151   26.1824 C   0  0  0  0  0  0  0  0  0  0  0  0
    5.3695  -10.8214   26.8413 N   0  0  0  0  0  0  0  0  0  0  0  0
    9.6225  -16.7108   26.6039 C   0  0  0  0  0  0  0  0  0  0  0  0
    9.6861  -17.8846   26.2547 O   0  0  0  0  0  0  0  0  0  0  0  0
    9.9609  -16.3650   27.8973 O   0  0  0  0  0  0  0  0  0  0  0  0
  2  1  1  0
  3  2  1  0
  4  5  1  0
  4  3  1  0
  5  1  1  0
  5  6  1  1
  6  8  1  0
  7  6  2  0
  8  9  1  0
  9 14  1  0
  9 10  1  6
 11 10  1  0
 12 11  1  0
 13 12  2  0
 14 15  2  0
 14 17  1  0
 16 12  1  0
 17 18  1  0
 18 24  1  0
 18 19  1  1
 20 19  1  0
 21 20  1  0
 22 21  1  0
 23 22  1  0
 24 25  2  0
 24 26  1  0
M  END
$$$$
