GFP.pdb
     RDKit          3D

 23 24  0  0  1  0  0  0  0  0999 V2000
    3.8187  -20.2020   23.5375 N   0  0  0  0  0  0  0  0  0  0  0  0
    5.2449  -20.0082   23.3532 C   0  0  0  0  0  0  0  0  0  0  0  0
    5.5144  -18.5464   23.5121 C   0  0  0  0  0  0  0  0  0  0  0  0
    5.0769  -17.6897   22.6702 O   0  0  0  0  0  0  0  0  0  0  0  0
    6.2599  -18.0192   24.5874 N   0  0  0  0  0  0  0  0  0  0  0  0
    6.7447  -16.6487   24.6592 C   0  0  1  0  0  0  0  0  0  0  0  0
    6.8874  -16.2336   26.0987 C   0  0  0  0  0  0  0  0  0  0  0  0
    7.0087  -14.7896   26.3097 C   0  0  0  0  0  0  0  0  0  0  0  0
    5.9385  -13.9156   26.3802 C   0  0  0  0  0  0  0  0  0  0  0  0
    6.1542  -12.5857   26.5761 C   0  0  0  0  0  0  0  0  0  0  0  0
    7.4305  -12.0299   26.7149 C   0  0  0  0  0  0  0  0  0  0  0  0
    8.4881  -12.9119   26.6427 C   0  0  0  0  0  0  0  0  0  0  0  0
    8.2732  -14.2551   26.4451 C   0  0  0  0  0  0  0  0  0  0  0  0
    7.9495  -16.4619   23.8347 C   0  0  0  0  0  0  0  0  0  0  0  0
    8.8652  -17.3159   23.9166 O   0  0  0  0  0  0  0  0  0  0  0  0
    8.1545  -15.3652   22.9332 N   0  0  0  0  0  0  0  0  0  0  0  0
    7.2568  -14.2167   22.7959 C   0  0  0  0  0  0  0  0  0  0  0  0
    7.5844  -13.6728   21.4052 C   0  0  0  0  0  0  0  0  0  0  0  0
    9.1060  -13.8280   21.4450 C   0  0  0  0  0  0  0  0  0  0  0  0
    9.2502  -15.2068   22.0065 C   0  0  1  0  0  0  0  0  0  0  0  0
   10.5677  -15.2986   22.7152 C   0  0  0  0  0  0  0  0  0  0  0  0
   11.7538  -15.4275   22.0295 O   0  0  0  0  0  0  0  0  0  0  0  0
   10.5909  -15.2569   23.9643 O   0  0  0  0  0  0  0  0  0  0  0  0
  1  2  1  0
  2  3  1  0
  3  4  2  0
  5  6  1  0
  5  3  1  0
  6 14  1  0
  6  7  1  1
  8  9  2  0
  8  7  1  0
 10  9  1  0
 11 10  2  0
 12 11  1  0
 12 13  2  0
 13  8  1  0
 14 15  2  0
 14 16  1  0
 16 20  1  0
 16 17  1  0
 17 18  1  0
 19 18  1  0
 20 19  1  0
 21 22  1  0
 20 21  1  1
 23 21  2  0
M  END
$$$$
