GFP.pdb
     RDKit          3D

 23 24  0  0  1  0  0  0  0  0999 V2000
    4.5204  -20.5079   23.1144 N   0  0  0  0  0  0  0  0  0  0  0  0
    5.7180  -20.1960   23.8723 C   0  0  0  0  0  0  0  0  0  0  0  0
    5.8292  -18.7063   23.9260 C   0  0  0  0  0  0  0  0  0  0  0  0
    5.3208  -17.9639   23.0179 O   0  0  0  0  0  0  0  0  0  0  0  0
    6.4939  -18.0266   24.9682 N   0  0  0  0  0  0  0  0  0  0  0  0
    6.8442  -16.6143   24.9380 C   0  0  1  0  0  0  0  0  0  0  0  0
    6.8848  -16.0693   26.3402 C   0  0  0  0  0  0  0  0  0  0  0  0
    7.0516  -14.6171   26.4275 C   0  0  0  0  0  0  0  0  0  0  0  0
    8.2736  -13.9712   26.4873 C   0  0  0  0  0  0  0  0  0  0  0  0
    8.3253  -12.6133   26.5707 C   0  0  0  0  0  0  0  0  0  0  0  0
    7.1841  -11.8046   26.6006 C   0  0  0  0  0  0  0  0  0  0  0  0
    5.9729  -12.4610   26.5403 C   0  0  0  0  0  0  0  0  0  0  0  0
    5.9177  -13.8319   26.4561 C   0  0  0  0  0  0  0  0  0  0  0  0
    8.0607  -16.3802   24.1432 C   0  0  0  0  0  0  0  0  0  0  0  0
    9.0496  -17.1285   24.3340 O   0  0  0  0  0  0  0  0  0  0  0  0
    8.1989  -15.3502   23.1544 N   0  0  0  0  0  0  0  0  0  0  0  0
    7.2473  -14.2569   22.9473 C   0  0  0  0  0  0  0  0  0  0  0  0
    7.5243  -13.8107   21.5116 C   0  0  0  0  0  0  0  0  0  0  0  0
    9.0519  -13.8951   21.5303 C   0  0  0  0  0  0  0  0  0  0  0  0
    9.2691  -15.2174   22.1946 C   0  0  1  0  0  0  0  0  0  0  0  0
   10.6021  -15.1947   22.8795 C   0  0  0  0  0  0  0  0  0  0  0  0
   10.7137  -15.1456   24.2502 O   0  0  0  0  0  0  0  0  0  0  0  0
   11.6425  -15.2210   22.1871 O   0  0  0  0  0  0  0  0  0  0  0  0
  1  2  1  0
  2  3  1  0
  3  4  2  0
  5  6  1  0
  5  3  1  0
  6 14  1  0
  6  7  1  1
  8  9  2  0
  8  7  1  0
 10  9  1  0
 11 10  2  0
 12 11  1  0
 12 13  2  0
 13  8  1  0
 14 15  2  0
 14 16  1  0
 16 20  1  0
 16 17  1  0
 17 18  1  0
 19 18  1  0
 20 19  1  0
 21 22  1  0
 20 21  1  1
 23 21  2  0
M  END
$$$$
