GFP.pdb
     RDKit          3D

 23 24  0  0  1  0  0  0  0  0999 V2000
    4.3867  -20.3211   22.8194 N   0  0  0  0  0  0  0  0  0  0  0  0
    5.4079  -20.0862   23.8232 C   0  0  0  0  0  0  0  0  0  0  0  0
    5.6285  -18.6092   23.8891 C   0  0  0  0  0  0  0  0  0  0  0  0
    5.0768  -17.8120   23.0558 O   0  0  0  0  0  0  0  0  0  0  0  0
    6.4494  -18.0018   24.8623 N   0  0  0  0  0  0  0  0  0  0  0  0
    6.8246  -16.5955   24.8614 C   0  0  1  0  0  0  0  0  0  0  0  0
    6.9110  -16.0903   26.2764 C   0  0  0  0  0  0  0  0  0  0  0  0
    7.0573  -14.6385   26.3997 C   0  0  0  0  0  0  0  0  0  0  0  0
    8.2701  -13.9769   26.4737 C   0  0  0  0  0  0  0  0  0  0  0  0
    8.3026  -12.6210   26.5910 C   0  0  0  0  0  0  0  0  0  0  0  0
    7.1502  -11.8296   26.6430 C   0  0  0  0  0  0  0  0  0  0  0  0
    5.9483  -12.5015   26.5682 C   0  0  0  0  0  0  0  0  0  0  0  0
    5.9124  -13.8705   26.4498 C   0  0  0  0  0  0  0  0  0  0  0  0
    8.0244  -16.3609   24.0418 C   0  0  0  0  0  0  0  0  0  0  0  0
    9.0176  -17.1082   24.2129 O   0  0  0  0  0  0  0  0  0  0  0  0
    8.1415  -15.3314   23.0498 N   0  0  0  0  0  0  0  0  0  0  0  0
    7.1670  -14.2593   22.8383 C   0  0  0  0  0  0  0  0  0  0  0  0
    7.4357  -13.8120   21.4014 C   0  0  0  0  0  0  0  0  0  0  0  0
    8.9647  -13.8639   21.4215 C   0  0  0  0  0  0  0  0  0  0  0  0
    9.2094  -15.1791   22.0904 C   0  0  1  0  0  0  0  0  0  0  0  0
   10.5411  -15.1258   22.7762 C   0  0  0  0  0  0  0  0  0  0  0  0
   10.6500  -15.0355   24.1450 O   0  0  0  0  0  0  0  0  0  0  0  0
   11.5828  -15.1643   22.0864 O   0  0  0  0  0  0  0  0  0  0  0  0
  1  2  1  0
  2  3  1  0
  3  4  2  0
  5  6  1  0
  5  3  1  0
  6 14  1  0
  6  7  1  1
  8  9  2  0
  8  7  1  0
 10  9  1  0
 11 10  2  0
 12 11  1  0
 12 13  2  0
 13  8  1  0
 14 15  2  0
 14 16  1  0
 16 20  1  0
 16 17  1  0
 17 18  1  0
 19 18  1  0
 20 19  1  0
 21 22  1  0
 20 21  1  1
 23 21  2  0
M  END
$$$$
