GFP.pdb
     RDKit          3D

 23 24  0  0  1  0  0  0  0  0999 V2000
    4.4493  -20.3744   22.8637 N   0  0  0  0  0  0  0  0  0  0  0  0
    5.4167  -20.1276   23.9168 C   0  0  0  0  0  0  0  0  0  0  0  0
    5.6766  -18.6557   23.9393 C   0  0  0  0  0  0  0  0  0  0  0  0
    5.2601  -17.8879   23.0059 O   0  0  0  0  0  0  0  0  0  0  0  0
    6.3899  -18.0214   24.9781 N   0  0  0  0  0  0  0  0  0  0  0  0
    6.7743  -16.6177   24.9749 C   0  0  1  0  0  0  0  0  0  0  0  0
    6.8437  -16.1052   26.3881 C   0  0  0  0  0  0  0  0  0  0  0  0
    6.9348  -14.6485   26.5068 C   0  0  0  0  0  0  0  0  0  0  0  0
    8.1214  -13.9377   26.5369 C   0  0  0  0  0  0  0  0  0  0  0  0
    8.1027  -12.5815   26.6536 C   0  0  0  0  0  0  0  0  0  0  0  0
    6.9214  -11.8379   26.7480 C   0  0  0  0  0  0  0  0  0  0  0  0
    5.7461  -12.5585   26.7168 C   0  0  0  0  0  0  0  0  0  0  0  0
    5.7621  -13.9279   26.5990 C   0  0  0  0  0  0  0  0  0  0  0  0
    7.9873  -16.3954   24.1714 C   0  0  0  0  0  0  0  0  0  0  0  0
    8.9821  -17.1311   24.3794 O   0  0  0  0  0  0  0  0  0  0  0  0
    8.1157  -15.3907   23.1556 N   0  0  0  0  0  0  0  0  0  0  0  0
    7.1715  -14.2922   22.9421 C   0  0  0  0  0  0  0  0  0  0  0  0
    7.4232  -13.8832   21.4907 C   0  0  0  0  0  0  0  0  0  0  0  0
    8.9499  -13.9839   21.4800 C   0  0  0  0  0  0  0  0  0  0  0  0
    9.1670  -15.2925   22.1711 C   0  0  1  0  0  0  0  0  0  0  0  0
   10.5142  -15.2682   22.8277 C   0  0  0  0  0  0  0  0  0  0  0  0
   11.6765  -15.4181   22.1065 O   0  0  0  0  0  0  0  0  0  0  0  0
   10.5851  -15.1073   24.0653 O   0  0  0  0  0  0  0  0  0  0  0  0
  1  2  1  0
  2  3  1  0
  3  4  2  0
  5  6  1  0
  5  3  1  0
  6 14  1  0
  6  7  1  1
  8  9  2  0
  8  7  1  0
 10  9  1  0
 11 10  2  0
 12 11  1  0
 12 13  2  0
 13  8  1  0
 14 15  2  0
 14 16  1  0
 16 20  1  0
 16 17  1  0
 17 18  1  0
 19 18  1  0
 20 19  1  0
 21 22  1  0
 20 21  1  1
 23 21  2  0
M  END
$$$$
