GFP.pdb
     RDKit          3D

 23 24  0  0  1  0  0  0  0  0999 V2000
    5.1417  -20.7579   24.2309 N   0  0  0  0  0  0  0  0  0  0  0  0
    6.0892  -19.8733   24.8831 C   0  0  0  0  0  0  0  0  0  0  0  0
    5.8266  -18.4933   24.3718 C   0  0  0  0  0  0  0  0  0  0  0  0
    4.6940  -17.9233   24.5349 O   0  0  0  0  0  0  0  0  0  0  0  0
    6.7973  -17.7357   23.6836 N   0  0  0  0  0  0  0  0  0  0  0  0
    7.0883  -16.3346   23.9492 C   0  0  1  0  0  0  0  0  0  0  0  0
    7.2990  -16.1289   25.4250 C   0  0  0  0  0  0  0  0  0  0  0  0
    7.2482  -14.7319   25.8612 C   0  0  0  0  0  0  0  0  0  0  0  0
    8.3535  -13.9088   25.9834 C   0  0  0  0  0  0  0  0  0  0  0  0
    8.2041  -12.6218   26.4015 C   0  0  0  0  0  0  0  0  0  0  0  0
    6.9637  -12.0617   26.7254 C   0  0  0  0  0  0  0  0  0  0  0  0
    5.8705  -12.8928   26.5993 C   0  0  0  0  0  0  0  0  0  0  0  0
    6.0185  -14.1926   26.1774 C   0  0  0  0  0  0  0  0  0  0  0  0
    8.1761  -15.8403   23.0897 C   0  0  0  0  0  0  0  0  0  0  0  0
    9.2876  -16.4201   23.1437 O   0  0  0  0  0  0  0  0  0  0  0  0
    8.0567  -14.7346   22.1837 N   0  0  0  0  0  0  0  0  0  0  0  0
    7.0379  -13.6869   22.2730 C   0  0  0  0  0  0  0  0  0  0  0  0
    6.9829  -13.1217   20.8537 C   0  0  0  0  0  0  0  0  0  0  0  0
    8.4813  -13.1174   20.5446 C   0  0  0  0  0  0  0  0  0  0  0  0
    8.8906  -14.4696   21.0355 C   0  0  1  0  0  0  0  0  0  0  0  0
   10.3371  -14.4187   21.4251 C   0  0  0  0  0  0  0  0  0  0  0  0
   10.7327  -14.3496   22.7413 O   0  0  0  0  0  0  0  0  0  0  0  0
   11.2094  -14.4396   20.5301 O   0  0  0  0  0  0  0  0  0  0  0  0
  1  2  1  0
  2  3  1  0
  3  4  2  0
  5  6  1  0
  5  3  1  0
  6 14  1  0
  6  7  1  1
  8  9  2  0
  8  7  1  0
 10  9  1  0
 11 10  2  0
 12 11  1  0
 12 13  2  0
 13  8  1  0
 14 15  2  0
 14 16  1  0
 16 20  1  0
 16 17  1  0
 17 18  1  0
 19 18  1  0
 20 19  1  0
 21 22  1  0
 20 21  1  1
 23 21  2  0
M  END
$$$$
