GFP.pdb
     RDKit          3D

 23 24  0  0  1  0  0  0  0  0999 V2000
    4.7005  -20.6323   23.2755 N   0  0  0  0  0  0  0  0  0  0  0  0
    5.6808  -20.2753   24.2841 C   0  0  0  0  0  0  0  0  0  0  0  0
    5.8468  -18.7907   24.2303 C   0  0  0  0  0  0  0  0  0  0  0  0
    5.2180  -18.0773   23.3759 O   0  0  0  0  0  0  0  0  0  0  0  0
    6.6971  -18.0845   25.1067 N   0  0  0  0  0  0  0  0  0  0  0  0
    6.9566  -16.6546   25.0278 C   0  0  1  0  0  0  0  0  0  0  0  0
    6.9806  -16.0639   26.4117 C   0  0  0  0  0  0  0  0  0  0  0  0
    7.0584  -14.6022   26.4517 C   0  0  0  0  0  0  0  0  0  0  0  0
    8.2388  -13.8805   26.4586 C   0  0  0  0  0  0  0  0  0  0  0  0
    8.2077  -12.5201   26.5007 C   0  0  0  0  0  0  0  0  0  0  0  0
    7.0193  -11.7828   26.5386 C   0  0  0  0  0  0  0  0  0  0  0  0
    5.8504  -12.5143   26.5312 C   0  0  0  0  0  0  0  0  0  0  0  0
    5.8789  -13.8879   26.4888 C   0  0  0  0  0  0  0  0  0  0  0  0
    8.1453  -16.3695   24.2081 C   0  0  0  0  0  0  0  0  0  0  0  0
    9.1870  -17.0366   24.4180 O   0  0  0  0  0  0  0  0  0  0  0  0
    8.1999  -15.3763   23.1745 N   0  0  0  0  0  0  0  0  0  0  0  0
    7.1644  -14.3716   22.9249 C   0  0  0  0  0  0  0  0  0  0  0  0
    7.4026  -13.9686   21.4696 C   0  0  0  0  0  0  0  0  0  0  0  0
    8.9321  -13.9312   21.4839 C   0  0  0  0  0  0  0  0  0  0  0  0
    9.2545  -15.2018   22.2042 C   0  0  1  0  0  0  0  0  0  0  0  0
   10.5828  -15.0438   22.8804 C   0  0  0  0  0  0  0  0  0  0  0  0
   11.7658  -15.1007   22.1797 O   0  0  0  0  0  0  0  0  0  0  0  0
   10.6182  -14.8550   24.1155 O   0  0  0  0  0  0  0  0  0  0  0  0
  1  2  1  0
  2  3  1  0
  3  4  2  0
  5  6  1  0
  5  3  1  0
  6 14  1  0
  6  7  1  1
  8  9  2  0
  8  7  1  0
 10  9  1  0
 11 10  2  0
 12 11  1  0
 12 13  2  0
 13  8  1  0
 14 15  2  0
 14 16  1  0
 16 20  1  0
 16 17  1  0
 17 18  1  0
 19 18  1  0
 20 19  1  0
 21 22  1  0
 20 21  1  1
 23 21  2  0
M  END
$$$$
