GFP.pdb
     RDKit          3D

 23 24  0  0  1  0  0  0  0  0999 V2000
    4.4474  -20.3501   22.8723 N   0  0  0  0  0  0  0  0  0  0  0  0
    5.5299  -20.1055   23.8072 C   0  0  0  0  0  0  0  0  0  0  0  0
    5.7319  -18.6256   23.8689 C   0  0  0  0  0  0  0  0  0  0  0  0
    5.2074  -17.8418   23.0059 O   0  0  0  0  0  0  0  0  0  0  0  0
    6.5047  -18.0009   24.8702 N   0  0  0  0  0  0  0  0  0  0  0  0
    6.8741  -16.5932   24.8665 C   0  0  1  0  0  0  0  0  0  0  0  0
    6.9513  -16.0830   26.2802 C   0  0  0  0  0  0  0  0  0  0  0  0
    7.0392  -14.6263   26.4009 C   0  0  0  0  0  0  0  0  0  0  0  0
    5.9522  -13.7709   26.3725 C   0  0  0  0  0  0  0  0  0  0  0  0
    6.1370  -12.4271   26.4892 C   0  0  0  0  0  0  0  0  0  0  0  0
    7.3970  -11.8384   26.6409 C   0  0  0  0  0  0  0  0  0  0  0  0
    8.4716  -12.7021   26.6676 C   0  0  0  0  0  0  0  0  0  0  0  0
    8.2880  -14.0593   26.5500 C   0  0  0  0  0  0  0  0  0  0  0  0
    8.0770  -16.3562   24.0521 C   0  0  0  0  0  0  0  0  0  0  0  0
    9.0814  -17.0819   24.2488 O   0  0  0  0  0  0  0  0  0  0  0  0
    8.1852  -15.3476   23.0378 N   0  0  0  0  0  0  0  0  0  0  0  0
    7.1525  -14.3560   22.7312 C   0  0  0  0  0  0  0  0  0  0  0  0
    7.4826  -13.9285   21.3011 C   0  0  0  0  0  0  0  0  0  0  0  0
    9.0067  -13.8673   21.4203 C   0  0  0  0  0  0  0  0  0  0  0  0
    9.3004  -15.1427   22.1442 C   0  0  1  0  0  0  0  0  0  0  0  0
   10.5767  -14.9735   22.9116 C   0  0  0  0  0  0  0  0  0  0  0  0
   11.8063  -15.0205   22.2956 O   0  0  0  0  0  0  0  0  0  0  0  0
   10.5239  -14.7843   24.1461 O   0  0  0  0  0  0  0  0  0  0  0  0
  1  2  1  0
  2  3  1  0
  3  4  2  0
  5  6  1  0
  5  3  1  0
  6 14  1  0
  6  7  1  1
  8  9  2  0
  8  7  1  0
 10  9  1  0
 11 10  2  0
 12 11  1  0
 12 13  2  0
 13  8  1  0
 14 15  2  0
 14 16  1  0
 16 20  1  0
 16 17  1  0
 17 18  1  0
 19 18  1  0
 20 19  1  0
 21 22  1  0
 20 21  1  1
 23 21  2  0
M  END
$$$$
