PCL.pdb
     RDKit          3D

 22 22  0  0  1  0  0  0  0  0999 V2000
    7.9008  -15.0353   17.9821 N   0  0  0  0  0  0  0  0  0  0  0  0
    8.1627  -14.0086   16.9846 C   0  0  0  0  0  0  0  0  0  0  0  0
    7.8660  -12.7466   17.7896 C   0  0  0  0  0  0  0  0  0  0  0  0
    8.3949  -13.0615   19.1888 C   0  0  0  0  0  0  0  0  0  0  0  0
    8.6175  -14.5344   19.1383 C   0  0  1  0  0  0  0  0  0  0  0  0
    8.2462  -15.2775   20.3420 C   0  0  0  0  0  0  0  0  0  0  0  0
    7.0294  -15.1646   20.7248 O   0  0  0  0  0  0  0  0  0  0  0  0
    9.1690  -16.0822   21.0574 N   0  0  0  0  0  0  0  0  0  0  0  0
    8.7584  -16.6868   22.3021 C   0  0  1  0  0  0  0  0  0  0  0  0
    9.5608  -17.9803   22.4732 C   0  0  0  0  0  0  0  0  0  0  0  0
    9.3443  -18.6508   24.1326 S   0  0  0  0  0  0  0  0  0  0  0  0
    8.9867  -15.7783   23.4558 C   0  0  0  0  0  0  0  0  0  0  0  0
   10.0635  -15.1683   23.6166 O   0  0  0  0  0  0  0  0  0  0  0  0
    7.8213  -11.6156   26.6252 C   0  0  0  0  0  0  0  0  0  0  0  0
    6.8899  -12.7690   26.7527 C   0  0  1  0  0  0  0  0  0  0  0  0
    5.4779  -12.1723   26.8696 C   0  0  0  0  0  0  0  0  0  0  0  0
    6.9469  -13.8426   25.7533 C   0  0  0  0  0  0  0  0  0  0  0  0
    8.1476  -14.6723   25.5849 C   0  0  2  0  0  0  0  0  0  0  0  0
    7.9698  -15.5775   24.4200 N   0  0  0  0  0  0  0  0  0  0  0  0
    8.6765  -15.4389   26.6885 C   0  0  0  0  0  0  0  0  0  0  0  0
    9.7585  -14.8817   27.4238 O   0  0  0  0  0  0  0  0  0  0  0  0
    8.2961  -16.5607   27.0931 O   0  0  0  0  0  0  0  0  0  0  0  0
  1  5  1  0
  2  3  1  0
  2  1  1  0
  3  4  1  0
  5  4  1  0
  6  8  1  0
  5  6  1  1
  7  6  2  0
  9 10  1  1
  9  8  1  0
 10 11  1  0
 12  9  1  0
 12 19  1  0
 13 12  2  0
 15 16  1  6
 15 14  1  0
 17 15  1  0
 18 19  1  0
 18 17  1  1
 20 21  1  0
 20 18  1  0
 22 20  2  0
M  END
$$$$
