PCL.pdb
     RDKit          3D

 22 22  0  0  1  0  0  0  0  0999 V2000
    8.8214  -15.0997   18.8933 N   0  0  0  0  0  0  0  0  0  0  0  0
    9.0343  -14.4327   17.6175 C   0  0  0  0  0  0  0  0  0  0  0  0
    7.8540  -13.4655   17.6010 C   0  0  0  0  0  0  0  0  0  0  0  0
    7.7204  -13.0121   19.0546 C   0  0  0  0  0  0  0  0  0  0  0  0
    8.5773  -13.9861   19.7886 C   0  0  1  0  0  0  0  0  0  0  0  0
    8.0550  -14.4554   21.0714 C   0  0  0  0  0  0  0  0  0  0  0  0
    7.6861  -13.5500   21.8985 O   0  0  0  0  0  0  0  0  0  0  0  0
    7.9557  -15.8319   21.3977 N   0  0  0  0  0  0  0  0  0  0  0  0
    7.3509  -16.2164   22.6507 C   0  0  1  0  0  0  0  0  0  0  0  0
    7.2749  -17.7461   22.6757 C   0  0  0  0  0  0  0  0  0  0  0  0
    8.9190  -18.4638   22.8540 S   0  0  0  0  0  0  0  0  0  0  0  0
    8.1302  -15.7166   23.8131 C   0  0  0  0  0  0  0  0  0  0  0  0
    9.3690  -15.5718   23.7682 O   0  0  0  0  0  0  0  0  0  0  0  0
    5.8171  -11.7824   26.6182 C   0  0  0  0  0  0  0  0  0  0  0  0
    6.8481  -12.6657   26.0091 C   0  0  1  0  0  0  0  0  0  0  0  0
    7.9452  -11.7364   25.4649 C   0  0  0  0  0  0  0  0  0  0  0  0
    7.4090  -13.7607   26.8097 C   0  0  0  0  0  0  0  0  0  0  0  0
    8.2039  -14.8326   26.1950 C   0  0  2  0  0  0  0  0  0  0  0  0
    7.4756  -15.3856   25.0239 N   0  0  0  0  0  0  0  0  0  0  0  0
    8.7023  -15.9308   26.9893 C   0  0  0  0  0  0  0  0  0  0  0  0
    9.6898  -15.6436   27.9712 O   0  0  0  0  0  0  0  0  0  0  0  0
    8.3693  -17.1356   26.9239 O   0  0  0  0  0  0  0  0  0  0  0  0
  1  5  1  0
  2  3  1  0
  2  1  1  0
  3  4  1  0
  5  4  1  0
  6  8  1  0
  5  6  1  1
  7  6  2  0
  9 10  1  1
  9  8  1  0
 10 11  1  0
 12  9  1  0
 12 19  1  0
 13 12  2  0
 15 16  1  1
 15 14  1  0
 17 15  1  0
 18 19  1  0
 18 17  1  1
 20 21  1  0
 20 18  1  0
 22 20  2  0
M  END
$$$$
