PCL.pdb
     RDKit          3D

 22 22  0  0  1  0  0  0  0  0999 V2000
    8.6559  -14.9689   18.8764 N   0  0  0  0  0  0  0  0  0  0  0  0
    8.9071  -14.2811   17.6188 C   0  0  0  0  0  0  0  0  0  0  0  0
    7.8054  -13.2256   17.6461 C   0  0  0  0  0  0  0  0  0  0  0  0
    7.7219  -12.8086   19.1144 C   0  0  0  0  0  0  0  0  0  0  0  0
    8.5079  -13.8682   19.8079 C   0  0  1  0  0  0  0  0  0  0  0  0
    7.9636  -14.3354   21.0823 C   0  0  0  0  0  0  0  0  0  0  0  0
    7.7580  -13.4390   21.9735 O   0  0  0  0  0  0  0  0  0  0  0  0
    7.6740  -15.7006   21.3342 N   0  0  0  0  0  0  0  0  0  0  0  0
    7.1194  -16.0783   22.6122 C   0  0  1  0  0  0  0  0  0  0  0  0
    6.8986  -17.5939   22.5892 C   0  0  0  0  0  0  0  0  0  0  0  0
    8.4112  -18.4659   23.0384 S   0  0  0  0  0  0  0  0  0  0  0  0
    8.0184  -15.7020   23.7340 C   0  0  0  0  0  0  0  0  0  0  0  0
    9.2497  -15.5677   23.5808 O   0  0  0  0  0  0  0  0  0  0  0  0
    5.9292  -12.1777   27.2147 C   0  0  0  0  0  0  0  0  0  0  0  0
    6.9256  -12.9251   26.4007 C   0  0  1  0  0  0  0  0  0  0  0  0
    7.9271  -11.8814   25.8801 C   0  0  0  0  0  0  0  0  0  0  0  0
    7.6045  -14.0828   26.9952 C   0  0  0  0  0  0  0  0  0  0  0  0
    8.3414  -15.0488   26.1691 C   0  0  2  0  0  0  0  0  0  0  0  0
    7.4918  -15.4819   25.0295 N   0  0  0  0  0  0  0  0  0  0  0  0
    8.9479  -16.2172   26.7627 C   0  0  0  0  0  0  0  0  0  0  0  0
   10.0424  -16.0179   27.6482 O   0  0  0  0  0  0  0  0  0  0  0  0
    8.6270  -17.4153   26.5944 O   0  0  0  0  0  0  0  0  0  0  0  0
  1  5  1  0
  2  3  1  0
  2  1  1  0
  3  4  1  0
  5  4  1  0
  6  8  1  0
  5  6  1  1
  7  6  2  0
  9 10  1  6
  9  8  1  0
 10 11  1  0
 12  9  1  0
 12 19  1  0
 13 12  2  0
 15 16  1  1
 15 14  1  0
 17 15  1  0
 18 19  1  0
 18 17  1  1
 20 21  1  0
 20 18  1  0
 22 20  2  0
M  END
$$$$
