PCL.pdb
     RDKit          3D

 22 22  0  0  1  0  0  0  0  0999 V2000
    8.7274  -15.2156   19.1609 N   0  0  0  0  0  0  0  0  0  0  0  0
    8.9893  -14.5785   17.8791 C   0  0  0  0  0  0  0  0  0  0  0  0
    7.7406  -13.7140   17.7300 C   0  0  0  0  0  0  0  0  0  0  0  0
    7.4533  -13.2225   19.1486 C   0  0  0  0  0  0  0  0  0  0  0  0
    8.3229  -14.0955   19.9872 C   0  0  1  0  0  0  0  0  0  0  0  0
    7.7371  -14.5613   21.2437 C   0  0  0  0  0  0  0  0  0  0  0  0
    7.2102  -13.6641   21.9903 O   0  0  0  0  0  0  0  0  0  0  0  0
    7.7436  -15.9259   21.6294 N   0  0  0  0  0  0  0  0  0  0  0  0
    7.1803  -16.2996   22.9048 C   0  0  1  0  0  0  0  0  0  0  0  0
    7.0245  -17.8234   22.9113 C   0  0  0  0  0  0  0  0  0  0  0  0
    6.3080  -18.3848   24.4674 S   0  0  0  0  0  0  0  0  0  0  0  0
    8.0403  -15.8612   24.0347 C   0  0  0  0  0  0  0  0  0  0  0  0
    9.2773  -16.0264   24.0297 O   0  0  0  0  0  0  0  0  0  0  0  0
    7.2324  -12.2176   25.1076 C   0  0  0  0  0  0  0  0  0  0  0  0
    7.4203  -12.4135   26.5706 C   0  0  1  0  0  0  0  0  0  0  0  0
    6.2715  -11.6579   27.2580 C   0  0  0  0  0  0  0  0  0  0  0  0
    7.5644  -13.7779   27.0924 C   0  0  0  0  0  0  0  0  0  0  0  0
    8.2804  -14.8167   26.3394 C   0  0  2  0  0  0  0  0  0  0  0  0
    7.4680  -15.2331   25.1670 N   0  0  0  0  0  0  0  0  0  0  0  0
    8.7753  -16.0005   27.0019 C   0  0  0  0  0  0  0  0  0  0  0  0
    9.9350  -15.8693   27.8140 O   0  0  0  0  0  0  0  0  0  0  0  0
    8.3035  -17.1589   26.9528 O   0  0  0  0  0  0  0  0  0  0  0  0
  1  5  1  0
  2  3  1  0
  2  1  1  0
  3  4  1  0
  5  4  1  0
  6  8  1  0
  5  6  1  1
  7  6  2  0
  9 10  1  6
  9  8  1  0
 10 11  1  0
 12  9  1  0
 12 19  1  0
 13 12  2  0
 15 16  1  1
 15 14  1  0
 17 15  1  0
 18 19  1  0
 18 17  1  1
 20 21  1  0
 20 18  1  0
 22 20  2  0
M  END
$$$$
