PCL.pdb
     RDKit          3D

 22 22  0  0  1  0  0  0  0  0999 V2000
    8.9971  -15.0786   18.4969 N   0  0  0  0  0  0  0  0  0  0  0  0
    9.2685  -14.3867   17.2458 C   0  0  0  0  0  0  0  0  0  0  0  0
    7.9873  -13.5731   17.0862 C   0  0  0  0  0  0  0  0  0  0  0  0
    7.6358  -13.1440   18.5106 C   0  0  0  0  0  0  0  0  0  0  0  0
    8.5182  -14.0065   19.3468 C   0  0  1  0  0  0  0  0  0  0  0  0
    7.9165  -14.5407   20.5681 C   0  0  0  0  0  0  0  0  0  0  0  0
    7.5261  -13.6791   21.4313 O   0  0  0  0  0  0  0  0  0  0  0  0
    7.7663  -15.9317   20.7998 N   0  0  0  0  0  0  0  0  0  0  0  0
    7.2097  -16.3802   22.0538 C   0  0  1  0  0  0  0  0  0  0  0  0
    7.2842  -17.9101   22.0704 C   0  0  0  0  0  0  0  0  0  0  0  0
    8.9875  -18.4637   22.2759 S   0  0  0  0  0  0  0  0  0  0  0  0
    7.9433  -15.8125   23.2148 C   0  0  0  0  0  0  0  0  0  0  0  0
    9.1222  -15.4131   23.1235 O   0  0  0  0  0  0  0  0  0  0  0  0
    8.1269  -11.7999   26.7407 C   0  0  0  0  0  0  0  0  0  0  0  0
    7.0697  -12.8247   26.9556 C   0  0  1  0  0  0  0  0  0  0  0  0
    5.7900  -12.0545   27.3195 C   0  0  0  0  0  0  0  0  0  0  0  0
    6.8252  -13.8242   25.9088 C   0  0  0  0  0  0  0  0  0  0  0  0
    7.8358  -14.8309   25.5569 C   0  0  2  0  0  0  0  0  0  0  0  0
    7.3124  -15.7080   24.4778 N   0  0  0  0  0  0  0  0  0  0  0  0
    8.4379  -15.6602   26.5743 C   0  0  0  0  0  0  0  0  0  0  0  0
    9.5641  -15.1418   27.2705 O   0  0  0  0  0  0  0  0  0  0  0  0
    8.0881  -16.8073   26.9327 O   0  0  0  0  0  0  0  0  0  0  0  0
  1  5  1  0
  2  3  1  0
  2  1  1  0
  3  4  1  0
  5  4  1  0
  6  8  1  0
  5  6  1  1
  7  6  2  0
  9 10  1  6
  9  8  1  0
 10 11  1  0
 12  9  1  0
 12 19  1  0
 13 12  2  0
 15 16  1  6
 15 14  1  0
 17 15  1  0
 18 19  1  0
 18 17  1  1
 20 21  1  0
 20 18  1  0
 22 20  2  0
M  END
$$$$
