PCL.pdb
     RDKit          3D

 22 22  0  0  1  0  0  0  0  0999 V2000
    8.2271  -14.8460   19.1290 N   0  0  0  0  0  0  0  0  0  0  0  0
    8.2596  -14.1031   17.8781 C   0  0  0  0  0  0  0  0  0  0  0  0
    7.3242  -12.9441   18.2104 C   0  0  0  0  0  0  0  0  0  0  0  0
    7.6307  -12.6224   19.6730 C   0  0  0  0  0  0  0  0  0  0  0  0
    8.4269  -13.8024   20.1149 C   0  0  1  0  0  0  0  0  0  0  0  0
    8.1407  -14.2973   21.4610 C   0  0  0  0  0  0  0  0  0  0  0  0
    8.2419  -13.4451   22.4116 O   0  0  0  0  0  0  0  0  0  0  0  0
    7.7707  -15.6421   21.7173 N   0  0  0  0  0  0  0  0  0  0  0  0
    7.3957  -16.0258   23.0573 C   0  0  1  0  0  0  0  0  0  0  0  0
    6.6749  -17.3743   22.9662 C   0  0  0  0  0  0  0  0  0  0  0  0
    7.8030  -18.6643   22.4064 S   0  0  0  0  0  0  0  0  0  0  0  0
    8.5789  -16.1294   23.9505 C   0  0  0  0  0  0  0  0  0  0  0  0
    9.7305  -16.3154   23.5069 O   0  0  0  0  0  0  0  0  0  0  0  0
   11.4656  -13.9872   28.1163 C   0  0  0  0  0  0  0  0  0  0  0  0
   10.1567  -14.6147   28.4438 C   0  0  1  0  0  0  0  0  0  0  0  0
    9.5086  -13.7253   29.5172 C   0  0  0  0  0  0  0  0  0  0  0  0
    9.2229  -14.9215   27.3536 C   0  0  0  0  0  0  0  0  0  0  0  0
    9.5872  -15.8392   26.2656 C   0  0  2  0  0  0  0  0  0  0  0  0
    8.4277  -16.0177   25.3536 N   0  0  0  0  0  0  0  0  0  0  0  0
   10.1532  -17.1365   26.5519 C   0  0  0  0  0  0  0  0  0  0  0  0
    9.2678  -18.1683   26.9679 O   0  0  0  0  0  0  0  0  0  0  0  0
   11.3546  -17.4802   26.4798 O   0  0  0  0  0  0  0  0  0  0  0  0
  1  5  1  0
  2  3  1  0
  2  1  1  0
  3  4  1  0
  5  4  1  0
  6  8  1  0
  5  6  1  1
  7  6  2  0
  9 10  1  6
  9  8  1  0
 10 11  1  0
 12  9  1  0
 12 19  1  0
 13 12  2  0
 15 16  1  1
 15 14  1  0
 17 15  1  0
 18 19  1  0
 18 17  1  1
 20 21  1  0
 20 18  1  0
 22 20  2  0
M  END
$$$$
