PCL.pdb
     RDKit          3D

 22 22  0  0  1  0  0  0  0  0999 V2000
    7.5377  -18.6561   22.2599 N   0  0  0  0  0  0  0  0  0  0  0  0
    7.1342  -19.7976   21.4523 C   0  0  0  0  0  0  0  0  0  0  0  0
    7.3035  -19.2268   20.0472 C   0  0  0  0  0  0  0  0  0  0  0  0
    8.5543  -18.3537   20.1454 C   0  0  0  0  0  0  0  0  0  0  0  0
    8.7680  -18.2401   21.6161 C   0  0  1  0  0  0  0  0  0  0  0  0
    9.1891  -16.9258   22.1001 C   0  0  0  0  0  0  0  0  0  0  0  0
   10.3628  -16.5452   21.7576 O   0  0  0  0  0  0  0  0  0  0  0  0
    8.3573  -16.1060   22.9045 N   0  0  0  0  0  0  0  0  0  0  0  0
    8.8508  -14.8248   23.3500 C   0  0  1  0  0  0  0  0  0  0  0  0
    7.6433  -13.8962   23.5109 C   0  0  0  0  0  0  0  0  0  0  0  0
    6.5588  -14.4819   24.8264 S   0  0  0  0  0  0  0  0  0  0  0  0
    9.5930  -14.9377   24.6325 C   0  0  0  0  0  0  0  0  0  0  0  0
   10.4318  -14.0859   24.9907 O   0  0  0  0  0  0  0  0  0  0  0  0
    8.2873  -13.2104   28.5526 C   0  0  0  0  0  0  0  0  0  0  0  0
    9.3778  -13.9433   27.8541 C   0  0  1  0  0  0  0  0  0  0  0  0
   10.6971  -13.4096   28.4353 C   0  0  0  0  0  0  0  0  0  0  0  0
    9.3466  -15.4106   27.8305 C   0  0  0  0  0  0  0  0  0  0  0  0
   10.0614  -16.1777   26.8013 C   0  0  2  0  0  0  0  0  0  0  0  0
    9.3635  -16.0348   25.4973 N   0  0  0  0  0  0  0  0  0  0  0  0
   10.3772  -17.5719   27.0054 C   0  0  0  0  0  0  0  0  0  0  0  0
   11.1984  -17.9094   28.1160 O   0  0  0  0  0  0  0  0  0  0  0  0
   10.0125  -18.5487   26.3128 O   0  0  0  0  0  0  0  0  0  0  0  0
  1  5  1  0
  2  3  1  0
  2  1  1  0
  3  4  1  0
  5  4  1  0
  6  8  1  0
  5  6  1  6
  7  6  2  0
  9 10  1  1
  9  8  1  0
 10 11  1  0
 12  9  1  0
 12 19  1  0
 13 12  2  0
 15 16  1  1
 15 14  1  0
 17 15  1  0
 18 19  1  0
 18 17  1  1
 20 21  1  0
 20 18  1  0
 22 20  2  0
M  END
$$$$
