PCL.pdb
     RDKit          3D

 22 22  0  0  1  0  0  0  0  0999 V2000
    8.7163  -15.2845   19.0937 N   0  0  0  0  0  0  0  0  0  0  0  0
    9.0009  -14.6299   17.8256 C   0  0  0  0  0  0  0  0  0  0  0  0
    7.8557  -13.6235   17.7609 C   0  0  0  0  0  0  0  0  0  0  0  0
    7.6814  -13.1604   19.2072 C   0  0  0  0  0  0  0  0  0  0  0  0
    8.4757  -14.1600   19.9762 C   0  0  1  0  0  0  0  0  0  0  0  0
    7.8884  -14.6066   21.2389 C   0  0  0  0  0  0  0  0  0  0  0  0
    7.4887  -13.6864   22.0348 O   0  0  0  0  0  0  0  0  0  0  0  0
    7.7611  -15.9774   21.5791 N   0  0  0  0  0  0  0  0  0  0  0  0
    7.1389  -16.3371   22.8309 C   0  0  1  0  0  0  0  0  0  0  0  0
    6.9657  -17.8591   22.8390 C   0  0  0  0  0  0  0  0  0  0  0  0
    6.2666  -18.4133   24.4056 S   0  0  0  0  0  0  0  0  0  0  0  0
    7.9541  -15.9015   23.9946 C   0  0  0  0  0  0  0  0  0  0  0  0
    9.1956  -16.0260   24.0185 O   0  0  0  0  0  0  0  0  0  0  0  0
    5.6821  -11.8073   26.9515 C   0  0  0  0  0  0  0  0  0  0  0  0
    6.6458  -12.6807   26.2285 C   0  0  1  0  0  0  0  0  0  0  0  0
    7.6500  -11.7400   25.5431 C   0  0  0  0  0  0  0  0  0  0  0  0
    7.3212  -13.7560   26.9648 C   0  0  0  0  0  0  0  0  0  0  0  0
    8.1104  -14.7834   26.2718 C   0  0  2  0  0  0  0  0  0  0  0  0
    7.3319  -15.3235   25.1272 N   0  0  0  0  0  0  0  0  0  0  0  0
    8.6865  -15.8889   27.0007 C   0  0  0  0  0  0  0  0  0  0  0  0
    9.7863  -15.6149   27.8592 O   0  0  0  0  0  0  0  0  0  0  0  0
    8.3342  -17.0897   26.9743 O   0  0  0  0  0  0  0  0  0  0  0  0
  1  5  1  0
  2  3  1  0
  2  1  1  0
  3  4  1  0
  5  4  1  0
  6  8  1  0
  5  6  1  1
  7  6  2  0
  9 10  1  6
  9  8  1  0
 10 11  1  0
 12  9  1  0
 12 19  1  0
 13 12  2  0
 15 16  1  1
 15 14  1  0
 17 15  1  0
 18 19  1  0
 18 17  1  1
 20 21  1  0
 20 18  1  0
 22 20  2  0
M  END
$$$$
