APK.pdb
     RDKit          3D

 22 22  0  0  1  0  0  0  0  0999 V2000
    7.3123  -16.2652   16.4504 C   0  0  0  0  0  0  0  0  0  0  0  0
    8.1067  -15.0104   16.1372 C   0  0  2  0  0  0  0  0  0  0  0  0
    8.8137  -15.2882   14.8951 N   0  0  0  0  0  0  0  0  0  0  0  0
    9.0814  -14.7004   17.2129 C   0  0  0  0  0  0  0  0  0  0  0  0
   10.2980  -14.9484   16.9868 O   0  0  0  0  0  0  0  0  0  0  0  0
    8.7303  -14.1527   18.4535 N   0  0  0  0  0  0  0  0  0  0  0  0
    7.4171  -13.7806   18.8873 C   0  0  0  0  0  0  0  0  0  0  0  0
    7.7254  -12.4317   19.5532 C   0  0  0  0  0  0  0  0  0  0  0  0
    9.1266  -12.5538   20.0584 C   0  0  0  0  0  0  0  0  0  0  0  0
    9.6327  -13.8679   19.5273 C   0  0  1  0  0  0  0  0  0  0  0  0
    9.6730  -14.9351   20.5638 C   0  0  0  0  0  0  0  0  0  0  0  0
    8.5625  -15.3431   20.9924 O   0  0  0  0  0  0  0  0  0  0  0  0
   10.8398  -15.4929   21.0733 N   0  0  0  0  0  0  0  0  0  0  0  0
   10.8206  -16.6947   22.0114 C   0  0  1  0  0  0  0  0  0  0  0  0
   11.3076  -17.8391   21.2296 C   0  0  0  0  0  0  0  0  0  0  0  0
   10.6347  -18.2836   20.0261 C   0  0  0  0  0  0  0  0  0  0  0  0
   11.1174  -19.3772   19.1695 C   0  0  0  0  0  0  0  0  0  0  0  0
   10.2486  -19.7435   18.0127 C   0  0  0  0  0  0  0  0  0  0  0  0
   10.9008  -20.7867   17.2445 N   0  0  0  0  0  0  0  0  0  0  0  0
   11.6081  -16.2765   23.1789 C   0  0  0  0  0  0  0  0  0  0  0  0
   12.4008  -15.0912   23.1148 O   0  0  0  0  0  0  0  0  0  0  0  0
   11.6589  -16.8669   24.2548 O   0  0  0  0  0  0  0  0  0  0  0  0
  2  3  1  0
  2  1  1  1
  4  2  1  0
  5  4  2  0
  6  7  1  0
  6  4  1  0
  8  7  1  0
  9 10  1  0
  9  8  1  0
 10  6  1  0
 10 11  1  1
 11 13  1  0
 12 11  2  0
 13 14  1  0
 14 20  1  0
 14 15  1  6
 16 15  1  0
 17 16  1  0
 18 17  1  0
 19 18  1  0
 20 21  1  0
 22 20  2  0
M  END
$$$$
