APK.pdb
     RDKit          3D

 22 22  0  0  1  0  0  0  0  0999 V2000
    8.6085  -18.4304   18.8766 C   0  0  0  0  0  0  0  0  0  0  0  0
    9.2258  -17.0922   18.5135 C   0  0  2  0  0  0  0  0  0  0  0  0
   10.5293  -17.3986   17.9420 N   0  0  0  0  0  0  0  0  0  0  0  0
    9.3905  -16.2265   19.7079 C   0  0  0  0  0  0  0  0  0  0  0  0
   10.5500  -16.1182   20.1943 O   0  0  0  0  0  0  0  0  0  0  0  0
    8.3412  -15.5292   20.3202 N   0  0  0  0  0  0  0  0  0  0  0  0
    6.9555  -15.5737   19.9610 C   0  0  0  0  0  0  0  0  0  0  0  0
    6.6077  -14.0802   20.0429 C   0  0  0  0  0  0  0  0  0  0  0  0
    7.5224  -13.5200   21.0836 C   0  0  0  0  0  0  0  0  0  0  0  0
    8.4663  -14.6387   21.4338 C   0  0  1  0  0  0  0  0  0  0  0  0
    8.1486  -15.2778   22.7397 C   0  0  0  0  0  0  0  0  0  0  0  0
    7.5085  -16.3602   22.6936 O   0  0  0  0  0  0  0  0  0  0  0  0
    8.5099  -14.7591   23.9777 N   0  0  0  0  0  0  0  0  0  0  0  0
    8.5039  -15.6076   25.2445 C   0  0  1  0  0  0  0  0  0  0  0  0
    9.2391  -14.8422   26.2601 C   0  0  0  0  0  0  0  0  0  0  0  0
    9.4380  -15.3489   27.6025 C   0  0  0  0  0  0  0  0  0  0  0  0
   10.1041  -14.5961   28.6760 C   0  0  0  0  0  0  0  0  0  0  0  0
   10.1791  -15.2681   30.0064 C   0  0  0  0  0  0  0  0  0  0  0  0
   10.9258  -14.4244   30.9198 N   0  0  0  0  0  0  0  0  0  0  0  0
    7.0867  -15.8997   25.4980 C   0  0  0  0  0  0  0  0  0  0  0  0
    6.7170  -17.1074   26.1629 O   0  0  0  0  0  0  0  0  0  0  0  0
    6.1419  -15.1806   25.1833 O   0  0  0  0  0  0  0  0  0  0  0  0
  2  3  1  0
  2  1  1  1
  4  2  1  0
  5  4  2  0
  6  7  1  0
  6  4  1  0
  8  7  1  0
  9 10  1  0
  9  8  1  0
 10  6  1  0
 10 11  1  1
 11 13  1  0
 12 11  2  0
 13 14  1  0
 14 20  1  0
 14 15  1  1
 16 15  1  0
 17 16  1  0
 18 17  1  0
 19 18  1  0
 20 21  1  0
 22 20  2  0
M  END
$$$$
