APK.pdb
     RDKit          3D

 22 22  0  0  1  0  0  0  0  0999 V2000
    6.5394  -17.7569   18.8122 C   0  0  0  0  0  0  0  0  0  0  0  0
    7.6141  -16.8721   18.2073 C   0  0  2  0  0  0  0  0  0  0  0  0
    8.4189  -17.7451   17.3647 N   0  0  0  0  0  0  0  0  0  0  0  0
    8.4668  -16.2576   19.2553 C   0  0  0  0  0  0  0  0  0  0  0  0
    9.6085  -16.7602   19.4471 O   0  0  0  0  0  0  0  0  0  0  0  0
    8.0797  -15.1610   20.0363 N   0  0  0  0  0  0  0  0  0  0  0  0
    6.7877  -14.5440   20.0698 C   0  0  0  0  0  0  0  0  0  0  0  0
    7.1956  -13.0636   20.0585 C   0  0  0  0  0  0  0  0  0  0  0  0
    8.5252  -13.0170   20.7394 C   0  0  0  0  0  0  0  0  0  0  0  0
    8.9158  -14.4539   20.9580 C   0  0  1  0  0  0  0  0  0  0  0  0
    8.7428  -14.8934   22.3693 C   0  0  0  0  0  0  0  0  0  0  0  0
    7.5893  -15.2707   22.7020 O   0  0  0  0  0  0  0  0  0  0  0  0
    9.7585  -14.9099   23.3180 N   0  0  0  0  0  0  0  0  0  0  0  0
    9.9806  -16.0988   24.2465 C   0  0  1  0  0  0  0  0  0  0  0  0
   10.2644  -17.2526   23.3826 C   0  0  0  0  0  0  0  0  0  0  0  0
   10.5907  -18.5538   23.9292 C   0  0  0  0  0  0  0  0  0  0  0  0
   10.8060  -19.7585   23.1137 C   0  0  0  0  0  0  0  0  0  0  0  0
   11.2205  -20.9892   23.8491 C   0  0  0  0  0  0  0  0  0  0  0  0
   11.2648  -22.1018   22.9196 N   0  0  0  0  0  0  0  0  0  0  0  0
   11.0314  -15.6625   25.1758 C   0  0  0  0  0  0  0  0  0  0  0  0
   10.9343  -15.9868   26.5624 O   0  0  0  0  0  0  0  0  0  0  0  0
   12.0314  -15.0176   24.8713 O   0  0  0  0  0  0  0  0  0  0  0  0
  2  3  1  0
  2  1  1  1
  4  2  1  0
  5  4  2  0
  6  7  1  0
  6  4  1  0
  8  7  1  0
  9 10  1  0
  9  8  1  0
 10  6  1  0
 10 11  1  1
 11 13  1  0
 12 11  2  0
 13 14  1  0
 14 20  1  0
 14 15  1  6
 16 15  1  0
 17 16  1  0
 18 17  1  0
 19 18  1  0
 20 21  1  0
 22 20  2  0
M  END
$$$$
