APK.pdb
     RDKit          3D

 22 22  0  0  1  0  0  0  0  0999 V2000
    5.2576  -17.5842   20.2059 C   0  0  0  0  0  0  0  0  0  0  0  0
    5.9363  -16.9169   19.0236 C   0  0  2  0  0  0  0  0  0  0  0  0
    5.9931  -17.9271   17.9767 N   0  0  0  0  0  0  0  0  0  0  0  0
    7.3093  -16.4688   19.3660 C   0  0  0  0  0  0  0  0  0  0  0  0
    8.2739  -17.1330   18.8956 O   0  0  0  0  0  0  0  0  0  0  0  0
    7.5924  -15.3601   20.1740 N   0  0  0  0  0  0  0  0  0  0  0  0
    6.6442  -14.5162   20.8371 C   0  0  0  0  0  0  0  0  0  0  0  0
    7.2528  -13.1388   20.5366 C   0  0  0  0  0  0  0  0  0  0  0  0
    8.7247  -13.3744   20.4285 C   0  0  0  0  0  0  0  0  0  0  0  0
    8.8986  -14.8680   20.4910 C   0  0  1  0  0  0  0  0  0  0  0  0
    9.4029  -15.3382   21.8099 C   0  0  0  0  0  0  0  0  0  0  0  0
    8.5872  -15.3030   22.7674 O   0  0  0  0  0  0  0  0  0  0  0  0
   10.6930  -15.8023   22.0385 N   0  0  0  0  0  0  0  0  0  0  0  0
   11.0693  -16.5562   23.3093 C   0  0  1  0  0  0  0  0  0  0  0  0
   11.4242  -17.9197   22.8932 C   0  0  0  0  0  0  0  0  0  0  0  0
   10.4181  -18.8825   22.4941 C   0  0  0  0  0  0  0  0  0  0  0  0
   10.7208  -20.1720   21.8550 C   0  0  0  0  0  0  0  0  0  0  0  0
    9.5577  -21.0704   21.5957 C   0  0  0  0  0  0  0  0  0  0  0  0
   10.0067  -22.2121   20.8221 N   0  0  0  0  0  0  0  0  0  0  0  0
   12.1134  -15.7377   23.9401 C   0  0  0  0  0  0  0  0  0  0  0  0
   12.3122  -15.8025   25.3521 O   0  0  0  0  0  0  0  0  0  0  0  0
   12.8687  -14.9670   23.3532 O   0  0  0  0  0  0  0  0  0  0  0  0
  2  3  1  0
  2  1  1  1
  4  2  1  0
  5  4  2  0
  6  7  1  0
  6  4  1  0
  8  7  1  0
  9 10  1  0
  9  8  1  0
 10  6  1  0
 10 11  1  1
 11 13  1  0
 12 11  2  0
 13 14  1  0
 14 20  1  0
 14 15  1  6
 16 15  1  0
 17 16  1  0
 18 17  1  0
 19 18  1  0
 20 21  1  0
 22 20  2  0
M  END
$$$$
