APK.pdb
     RDKit          3D

 22 22  0  0  1  0  0  0  0  0999 V2000
    6.3756  -15.1741   22.1571 C   0  0  0  0  0  0  0  0  0  0  0  0
    6.9725  -13.7813   22.2428 C   0  0  2  0  0  0  0  0  0  0  0  0
    7.6876  -13.5784   20.9909 N   0  0  0  0  0  0  0  0  0  0  0  0
    7.9129  -13.6614   23.3851 C   0  0  0  0  0  0  0  0  0  0  0  0
    9.1483  -13.6817   23.1280 O   0  0  0  0  0  0  0  0  0  0  0  0
    7.5101  -13.5279   24.7200 N   0  0  0  0  0  0  0  0  0  0  0  0
    6.1692  -13.5717   25.2210 C   0  0  0  0  0  0  0  0  0  0  0  0
    6.2114  -12.3954   26.2072 C   0  0  0  0  0  0  0  0  0  0  0  0
    7.6280  -12.3283   26.6788 C   0  0  0  0  0  0  0  0  0  0  0  0
    8.3790  -13.3266   25.8395 C   0  0  1  0  0  0  0  0  0  0  0  0
    8.6950  -14.5812   26.5751 C   0  0  0  0  0  0  0  0  0  0  0  0
    7.7598  -15.4153   26.6892 O   0  0  0  0  0  0  0  0  0  0  0  0
    9.9347  -14.8764   27.1301 N   0  0  0  0  0  0  0  0  0  0  0  0
   10.3106  -16.2875   27.5685 C   0  0  1  0  0  0  0  0  0  0  0  0
   11.5207  -16.6470   26.8172 C   0  0  0  0  0  0  0  0  0  0  0  0
   11.6703  -17.9414   26.1843 C   0  0  0  0  0  0  0  0  0  0  0  0
   12.8510  -18.3454   25.4060 C   0  0  0  0  0  0  0  0  0  0  0  0
   12.8543  -19.7452   24.8886 C   0  0  0  0  0  0  0  0  0  0  0  0
   14.1027  -19.9874   24.1911 N   0  0  0  0  0  0  0  0  0  0  0  0
   10.4080  -16.2160   29.0326 C   0  0  0  0  0  0  0  0  0  0  0  0
   10.5399  -17.4146   29.7963 O   0  0  0  0  0  0  0  0  0  0  0  0
   10.3865  -15.1852   29.7003 O   0  0  0  0  0  0  0  0  0  0  0  0
  2  3  1  0
  2  1  1  6
  4  2  1  0
  5  4  2  0
  6  7  1  0
  6  4  1  0
  8  7  1  0
  9 10  1  0
  9  8  1  0
 10  6  1  0
 10 11  1  1
 11 13  1  0
 12 11  2  0
 13 14  1  0
 14 20  1  0
 14 15  1  6
 16 15  1  0
 17 16  1  0
 18 17  1  0
 19 18  1  0
 20 21  1  0
 22 20  2  0
M  END
$$$$
