APK.pdb
     RDKit          3D

 22 22  0  0  1  0  0  0  0  0999 V2000
    9.3637  -15.3533   16.3338 C   0  0  0  0  0  0  0  0  0  0  0  0
    8.9737  -16.1141   17.5880 C   0  0  2  0  0  0  0  0  0  0  0  0
    7.5179  -16.1333   17.6037 N   0  0  0  0  0  0  0  0  0  0  0  0
    9.4817  -15.4441   18.8112 C   0  0  0  0  0  0  0  0  0  0  0  0
   10.7326  -15.3865   18.9678 O   0  0  0  0  0  0  0  0  0  0  0  0
    8.6585  -14.8769   19.7925 N   0  0  0  0  0  0  0  0  0  0  0  0
    7.2392  -14.6981   19.7244 C   0  0  0  0  0  0  0  0  0  0  0  0
    7.1198  -13.2736   20.2854 C   0  0  0  0  0  0  0  0  0  0  0  0
    8.2670  -13.1264   21.2320 C   0  0  0  0  0  0  0  0  0  0  0  0
    9.0933  -14.3724   21.0594 C   0  0  1  0  0  0  0  0  0  0  0  0
    8.9178  -15.3433   22.1736 C   0  0  0  0  0  0  0  0  0  0  0  0
    7.8302  -15.9756   22.2006 O   0  0  0  0  0  0  0  0  0  0  0  0
    9.8642  -15.5849   23.1625 N   0  0  0  0  0  0  0  0  0  0  0  0
   10.2821  -16.9975   23.5561 C   0  0  1  0  0  0  0  0  0  0  0  0
   10.8274  -17.6220   22.3434 C   0  0  0  0  0  0  0  0  0  0  0  0
   11.3863  -18.9583   22.3579 C   0  0  0  0  0  0  0  0  0  0  0  0
   11.9209  -19.6397   21.1693 C   0  0  0  0  0  0  0  0  0  0  0  0
   12.4311  -21.0268   21.3760 C   0  0  0  0  0  0  0  0  0  0  0  0
   12.9851  -21.5166   20.1283 N   0  0  0  0  0  0  0  0  0  0  0  0
   11.1844  -16.8202   24.7018 C   0  0  0  0  0  0  0  0  0  0  0  0
   12.1488  -15.7679   24.6916 O   0  0  0  0  0  0  0  0  0  0  0  0
   11.1973  -17.5145   25.7149 O   0  0  0  0  0  0  0  0  0  0  0  0
  2  3  1  0
  2  1  1  6
  4  2  1  0
  5  4  2  0
  6  7  1  0
  6  4  1  0
  8  7  1  0
  9 10  1  0
  9  8  1  0
 10  6  1  0
 10 11  1  1
 11 13  1  0
 12 11  2  0
 13 14  1  0
 14 20  1  0
 14 15  1  6
 16 15  1  0
 17 16  1  0
 18 17  1  0
 19 18  1  0
 20 21  1  0
 22 20  2  0
M  END
$$$$
