APK.pdb
     RDKit          3D

 22 22  0  0  1  0  0  0  0  0999 V2000
    5.5590  -17.4748   20.9973 C   0  0  0  0  0  0  0  0  0  0  0  0
    6.4381  -17.1520   19.8028 C   0  0  2  0  0  0  0  0  0  0  0  0
    6.7626  -18.4328   19.1914 N   0  0  0  0  0  0  0  0  0  0  0  0
    7.6851  -16.4607   20.2156 C   0  0  0  0  0  0  0  0  0  0  0  0
    8.7392  -17.1512   20.2847 O   0  0  0  0  0  0  0  0  0  0  0  0
    7.7574  -15.0975   20.5297 N   0  0  0  0  0  0  0  0  0  0  0  0
    6.6674  -14.1702   20.5860 C   0  0  0  0  0  0  0  0  0  0  0  0
    7.2978  -12.9692   19.8660 C   0  0  0  0  0  0  0  0  0  0  0  0
    8.7615  -13.0630   20.1528 C   0  0  0  0  0  0  0  0  0  0  0  0
    8.9493  -14.3777   20.8609 C   0  0  1  0  0  0  0  0  0  0  0  0
    9.1576  -14.2222   22.3263 C   0  0  0  0  0  0  0  0  0  0  0  0
    9.0417  -13.0577   22.7889 O   0  0  0  0  0  0  0  0  0  0  0  0
    9.4661  -15.2652   23.1918 N   0  0  0  0  0  0  0  0  0  0  0  0
    9.4048  -15.1055   24.7069 C   0  0  1  0  0  0  0  0  0  0  0  0
    8.0598  -14.6031   25.0172 C   0  0  0  0  0  0  0  0  0  0  0  0
    7.8522  -13.4634   25.8870 C   0  0  0  0  0  0  0  0  0  0  0  0
    6.5280  -12.9550   26.2754 C   0  0  0  0  0  0  0  0  0  0  0  0
    6.5120  -11.8545   27.2833 C   0  0  0  0  0  0  0  0  0  0  0  0
    5.1356  -11.5309   27.6067 N   0  0  0  0  0  0  0  0  0  0  0  0
    9.7868  -16.4193   25.2419 C   0  0  0  0  0  0  0  0  0  0  0  0
    9.8406  -17.5521   24.3752 O   0  0  0  0  0  0  0  0  0  0  0  0
   10.0782  -16.6571   26.4112 O   0  0  0  0  0  0  0  0  0  0  0  0
  2  3  1  0
  2  1  1  1
  4  2  1  0
  5  4  2  0
  6  7  1  0
  6  4  1  0
  8  7  1  0
  9 10  1  0
  9  8  1  0
 10  6  1  0
 10 11  1  1
 11 13  1  0
 12 11  2  0
 13 14  1  0
 14 20  1  0
 14 15  1  6
 16 15  1  0
 17 16  1  0
 18 17  1  0
 19 18  1  0
 20 21  1  0
 22 20  2  0
M  END
$$$$
