APK.pdb
     RDKit          3D

 22 22  0  0  1  0  0  0  0  0999 V2000
    6.2726  -17.7270   18.8973 C   0  0  0  0  0  0  0  0  0  0  0  0
    7.2131  -16.8406   18.1013 C   0  0  2  0  0  0  0  0  0  0  0  0
    7.8403  -17.7108   17.1168 N   0  0  0  0  0  0  0  0  0  0  0  0
    8.2516  -16.2311   18.9690 C   0  0  0  0  0  0  0  0  0  0  0  0
    9.4176  -16.7103   18.9077 O   0  0  0  0  0  0  0  0  0  0  0  0
    8.0130  -15.1636   19.8441 N   0  0  0  0  0  0  0  0  0  0  0  0
    6.7539  -14.5342   20.1076 C   0  0  0  0  0  0  0  0  0  0  0  0
    7.1808  -13.0592   20.0892 C   0  0  0  0  0  0  0  0  0  0  0  0
    8.6024  -13.0556   20.5503 C   0  0  0  0  0  0  0  0  0  0  0  0
    8.9975  -14.5046   20.6473 C   0  0  1  0  0  0  0  0  0  0  0  0
    9.0436  -15.0002   22.0499 C   0  0  0  0  0  0  0  0  0  0  0  0
    7.9360  -15.1560   22.6265 O   0  0  0  0  0  0  0  0  0  0  0  0
   10.2127  -15.2931   22.7424 N   0  0  0  0  0  0  0  0  0  0  0  0
   10.2381  -16.2714   23.9116 C   0  0  1  0  0  0  0  0  0  0  0  0
   10.6000  -17.5797   23.3502 C   0  0  0  0  0  0  0  0  0  0  0  0
   10.8000  -18.7425   24.1907 C   0  0  0  0  0  0  0  0  0  0  0  0
   11.1777  -20.0700   23.6827 C   0  0  0  0  0  0  0  0  0  0  0  0
   11.1653  -21.1853   24.6743 C   0  0  0  0  0  0  0  0  0  0  0  0
   11.3673  -22.4401   23.9755 N   0  0  0  0  0  0  0  0  0  0  0  0
   11.1524  -15.6681   24.8904 C   0  0  0  0  0  0  0  0  0  0  0  0
   12.2186  -14.8298   24.4455 O   0  0  0  0  0  0  0  0  0  0  0  0
   11.0936  -15.8159   26.1084 O   0  0  0  0  0  0  0  0  0  0  0  0
  2  3  1  0
  2  1  1  1
  4  2  1  0
  5  4  2  0
  6  7  1  0
  6  4  1  0
  8  7  1  0
  9 10  1  0
  9  8  1  0
 10  6  1  0
 10 11  1  1
 11 13  1  0
 12 11  2  0
 13 14  1  0
 14 20  1  0
 14 15  1  6
 16 15  1  0
 17 16  1  0
 18 17  1  0
 19 18  1  0
 20 21  1  0
 22 20  2  0
M  END
$$$$
