APK.pdb
     RDKit          3D

 22 22  0  0  1  0  0  0  0  0999 V2000
    6.7559  -17.4073   17.9980 C   0  0  0  0  0  0  0  0  0  0  0  0
    7.5455  -16.2543   17.4056 C   0  0  2  0  0  0  0  0  0  0  0  0
    8.2554  -16.8064   16.2607 N   0  0  0  0  0  0  0  0  0  0  0  0
    8.5173  -15.7015   18.3820 C   0  0  0  0  0  0  0  0  0  0  0  0
    9.7366  -15.9794   18.2123 O   0  0  0  0  0  0  0  0  0  0  0  0
    8.1607  -14.8959   19.4711 N   0  0  0  0  0  0  0  0  0  0  0  0
    6.8467  -14.4328   19.8029 C   0  0  0  0  0  0  0  0  0  0  0  0
    7.1584  -12.9727   20.1624 C   0  0  0  0  0  0  0  0  0  0  0  0
    8.5552  -12.9882   20.6936 C   0  0  0  0  0  0  0  0  0  0  0  0
    9.0571  -14.3884   20.4649 C   0  0  1  0  0  0  0  0  0  0  0  0
    9.0836  -15.2052   21.7087 C   0  0  0  0  0  0  0  0  0  0  0  0
    7.9687  -15.4786   22.2241 O   0  0  0  0  0  0  0  0  0  0  0  0
   10.2422  -15.6714   22.3189 N   0  0  0  0  0  0  0  0  0  0  0  0
   10.2040  -16.6155   23.5155 C   0  0  1  0  0  0  0  0  0  0  0  0
   10.6152  -17.9346   23.0167 C   0  0  0  0  0  0  0  0  0  0  0  0
   11.4002  -18.0833   21.8083 C   0  0  0  0  0  0  0  0  0  0  0  0
   11.8471  -19.3774   21.2714 C   0  0  0  0  0  0  0  0  0  0  0  0
   12.6823  -19.3275   20.0356 C   0  0  0  0  0  0  0  0  0  0  0  0
   13.1781  -20.6596   19.7470 N   0  0  0  0  0  0  0  0  0  0  0  0
   11.0476  -15.9728   24.5321 C   0  0  0  0  0  0  0  0  0  0  0  0
   11.0319  -16.4524   25.8764 O   0  0  0  0  0  0  0  0  0  0  0  0
   11.8001  -15.0216   24.3383 O   0  0  0  0  0  0  0  0  0  0  0  0
  2  3  1  0
  2  1  1  1
  4  2  1  0
  5  4  2  0
  6  7  1  0
  6  4  1  0
  8  7  1  0
  9 10  1  0
  9  8  1  0
 10  6  1  0
 10 11  1  1
 11 13  1  0
 12 11  2  0
 13 14  1  0
 14 20  1  0
 14 15  1  6
 16 15  1  0
 17 16  1  0
 18 17  1  0
 19 18  1  0
 20 21  1  0
 22 20  2  0
M  END
$$$$
