APK.pdb
     RDKit          3D

 22 22  0  0  1  0  0  0  0  0999 V2000
    5.9014  -17.6029   19.0016 C   0  0  0  0  0  0  0  0  0  0  0  0
    6.8397  -16.7879   18.1304 C   0  0  2  0  0  0  0  0  0  0  0  0
    7.3407  -17.7072   17.1187 N   0  0  0  0  0  0  0  0  0  0  0  0
    7.9724  -16.2380   18.9164 C   0  0  0  0  0  0  0  0  0  0  0  0
    9.0789  -16.8408   18.8448 O   0  0  0  0  0  0  0  0  0  0  0  0
    7.8835  -15.0979   19.7254 N   0  0  0  0  0  0  0  0  0  0  0  0
    6.7185  -14.2979   19.9570 C   0  0  0  0  0  0  0  0  0  0  0  0
    7.3293  -12.8935   19.8455 C   0  0  0  0  0  0  0  0  0  0  0  0
    8.7460  -13.0439   20.2972 C   0  0  0  0  0  0  0  0  0  0  0  0
    8.9547  -14.5230   20.4809 C   0  0  1  0  0  0  0  0  0  0  0  0
    8.9565  -14.9350   21.9110 C   0  0  0  0  0  0  0  0  0  0  0  0
    7.8313  -15.1250   22.4414 O   0  0  0  0  0  0  0  0  0  0  0  0
   10.1029  -15.1168   22.6756 N   0  0  0  0  0  0  0  0  0  0  0  0
   10.3231  -16.3666   23.5208 C   0  0  1  0  0  0  0  0  0  0  0  0
   10.2910  -17.5056   22.5937 C   0  0  0  0  0  0  0  0  0  0  0  0
   10.5679  -18.8573   23.0348 C   0  0  0  0  0  0  0  0  0  0  0  0
   10.6138  -20.0223   22.1385 C   0  0  0  0  0  0  0  0  0  0  0  0
   11.0008  -21.3216   22.7624 C   0  0  0  0  0  0  0  0  0  0  0  0
   11.1969  -22.3074   21.7167 N   0  0  0  0  0  0  0  0  0  0  0  0
   11.5709  -16.1132   24.2536 C   0  0  0  0  0  0  0  0  0  0  0  0
   12.6606  -15.4634   23.5996 O   0  0  0  0  0  0  0  0  0  0  0  0
   11.7857  -16.4159   25.4244 O   0  0  0  0  0  0  0  0  0  0  0  0
  2  3  1  0
  2  1  1  1
  4  2  1  0
  5  4  2  0
  6  7  1  0
  6  4  1  0
  8  7  1  0
  9 10  1  0
  9  8  1  0
 10  6  1  0
 10 11  1  1
 11 13  1  0
 12 11  2  0
 13 14  1  0
 14 20  1  0
 14 15  1  6
 16 15  1  0
 17 16  1  0
 18 17  1  0
 19 18  1  0
 20 21  1  0
 22 20  2  0
M  END
$$$$
