FVK.pdb
     RDKit          3D

 28 28  0  0  1  0  0  0  0  0999 V2000
    6.0201  -17.7016   25.6628 N   0  0  0  0  0  0  0  0  0  0  0  0
    6.5290  -16.4319   25.2445 C   0  0  1  0  0  0  0  0  0  0  0  0
    7.6542  -16.0495   26.1872 C   0  0  0  0  0  0  0  0  0  0  0  0
    7.4375  -14.6231   26.5523 C   0  0  0  0  0  0  0  0  0  0  0  0
    8.3421  -13.9752   27.3692 C   0  0  0  0  0  0  0  0  0  0  0  0
    8.1706  -12.6445   27.7297 C   0  0  0  0  0  0  0  0  0  0  0  0
    7.0809  -11.9568   27.2662 C   0  0  0  0  0  0  0  0  0  0  0  0
    6.1808  -12.6069   26.4515 C   0  0  0  0  0  0  0  0  0  0  0  0
    6.3332  -13.9264   26.0826 C   0  0  0  0  0  0  0  0  0  0  0  0
    7.0070  -16.4607   23.8238 C   0  0  0  0  0  0  0  0  0  0  0  0
    7.1713  -17.5694   23.2686 O   0  0  0  0  0  0  0  0  0  0  0  0
    8.1674  -13.9395   19.7322 C   0  0  0  0  0  0  0  0  0  0  0  0
    7.5193  -13.9435   21.1317 C   0  0  2  0  0  0  0  0  0  0  0  0
    8.0611  -12.7538   21.8454 C   0  0  0  0  0  0  0  0  0  0  0  0
    7.8206  -15.2750   21.7764 C   0  0  2  0  0  0  0  0  0  0  0  0
    7.2649  -15.2569   23.1316 N   0  0  0  0  0  0  0  0  0  0  0  0
    9.2367  -15.6219   21.8648 C   0  0  0  0  0  0  0  0  0  0  0  0
    9.9144  -15.7338   20.7911 O   0  0  0  0  0  0  0  0  0  0  0  0
    9.9824  -15.8583   23.0510 N   0  0  0  0  0  0  0  0  0  0  0  0
   11.3799  -16.1073   23.1091 C   0  0  1  0  0  0  0  0  0  0  0  0
   11.9949  -16.1808   24.4566 C   0  0  0  0  0  0  0  0  0  0  0  0
   12.1876  -17.6004   24.9384 C   0  0  0  0  0  0  0  0  0  0  0  0
   12.0893  -17.7035   26.4254 C   0  0  0  0  0  0  0  0  0  0  0  0
   12.4290  -19.0786   26.9533 C   0  0  0  0  0  0  0  0  0  0  0  0
   12.2563  -19.1511   28.3763 N   0  0  0  0  0  0  0  0  0  0  0  0
   11.8409  -17.2621   22.2752 C   0  0  0  0  0  0  0  0  0  0  0  0
   10.8939  -18.0883   21.7215 O   0  0  0  0  0  0  0  0  0  0  0  0
   13.0445  -17.4662   22.0871 O   0  0  0  0  0  0  0  0  0  0  0  0
  2 10  1  0
  2  1  1  1
  3  2  1  0
  4  3  1  0
  4  9  2  0
  5  4  1  0
  6  5  2  0
  6  7  1  0
  7  8  2  0
  8  9  1  0
 10 11  2  0
 13 12  1  6
 14 13  1  0
 15 13  1  0
 15 16  1  1
 16 10  1  0
 17 18  2  0
 17 15  1  0
 19 17  1  0
 20 21  1  1
 20 19  1  0
 21 22  1  0
 23 22  1  0
 23 24  1  0
 24 25  1  0
 26 27  1  0
 26 20  1  0
 28 26  2  0
M  END
$$$$
