FVK.pdb
     RDKit          3D

 28 28  0  0  1  0  0  0  0  0999 V2000
    5.6928  -17.6328   25.6196 N   0  0  0  0  0  0  0  0  0  0  0  0
    6.3243  -16.3878   25.3078 C   0  0  1  0  0  0  0  0  0  0  0  0
    6.9746  -15.8670   26.5754 C   0  0  0  0  0  0  0  0  0  0  0  0
    6.7948  -14.3897   26.5702 C   0  0  0  0  0  0  0  0  0  0  0  0
    5.5257  -13.8496   26.5117 C   0  0  0  0  0  0  0  0  0  0  0  0
    5.3216  -12.4754   26.5052 C   0  0  0  0  0  0  0  0  0  0  0  0
    6.4011  -11.6345   26.5579 C   0  0  0  0  0  0  0  0  0  0  0  0
    7.6654  -12.1774   26.6162 C   0  0  0  0  0  0  0  0  0  0  0  0
    7.8887  -13.5377   26.6236 C   0  0  0  0  0  0  0  0  0  0  0  0
    7.3334  -16.5316   24.2083 C   0  0  0  0  0  0  0  0  0  0  0  0
    7.9708  -17.6038   24.1158 O   0  0  0  0  0  0  0  0  0  0  0  0
    8.5468  -13.2368   21.7548 C   0  0  0  0  0  0  0  0  0  0  0  0
    8.0654  -14.5627   21.1311 C   0  0  2  0  0  0  0  0  0  0  0  0
    6.6200  -14.3779   20.8230 C   0  0  0  0  0  0  0  0  0  0  0  0
    8.3807  -15.6725   22.1048 C   0  0  2  0  0  0  0  0  0  0  0  0
    7.5552  -15.4743   23.2986 N   0  0  0  0  0  0  0  0  0  0  0  0
    9.7778  -15.7618   22.5217 C   0  0  0  0  0  0  0  0  0  0  0  0
   10.1842  -15.0310   23.4836 O   0  0  0  0  0  0  0  0  0  0  0  0
   10.7804  -16.5998   21.9634 N   0  0  0  0  0  0  0  0  0  0  0  0
   12.0111  -16.9389   22.5870 C   0  0  1  0  0  0  0  0  0  0  0  0
   12.1486  -18.3254   23.0949 C   0  0  0  0  0  0  0  0  0  0  0  0
   13.5043  -18.5962   23.7057 C   0  0  0  0  0  0  0  0  0  0  0  0
   13.6337  -20.0088   24.1740 C   0  0  0  0  0  0  0  0  0  0  0  0
   14.9508  -20.2935   24.8589 C   0  0  0  0  0  0  0  0  0  0  0  0
   15.0500  -21.6701   25.2526 N   0  0  0  0  0  0  0  0  0  0  0  0
   13.2298  -16.5599   21.8044 C   0  0  0  0  0  0  0  0  0  0  0  0
   14.4408  -16.5344   22.4514 O   0  0  0  0  0  0  0  0  0  0  0  0
   13.1491  -16.2790   20.6043 O   0  0  0  0  0  0  0  0  0  0  0  0
  2 10  1  0
  2  1  1  1
  3  2  1  0
  4  3  1  0
  4  9  2  0
  5  4  1  0
  6  5  2  0
  6  7  1  0
  7  8  2  0
  8  9  1  0
 10 11  2  0
 13 12  1  1
 14 13  1  0
 15 13  1  0
 15 16  1  1
 16 10  1  0
 17 18  2  0
 17 15  1  0
 19 17  1  0
 20 21  1  6
 20 19  1  0
 21 22  1  0
 23 22  1  0
 23 24  1  0
 24 25  1  0
 26 27  1  0
 26 20  1  0
 28 26  2  0
M  END
$$$$
