FVK.pdb
     RDKit          3D

 28 28  0  0  1  0  0  0  0  0999 V2000
    7.5434  -15.9349   25.8179 N   0  0  0  0  0  0  0  0  0  0  0  0
    6.4525  -16.1329   24.9141 C   0  0  1  0  0  0  0  0  0  0  0  0
    5.5758  -14.8962   24.9669 C   0  0  0  0  0  0  0  0  0  0  0  0
    6.3404  -13.8639   25.7182 C   0  0  0  0  0  0  0  0  0  0  0  0
    5.7440  -13.1896   26.7647 C   0  0  0  0  0  0  0  0  0  0  0  0
    6.4285  -12.2203   27.4873 C   0  0  0  0  0  0  0  0  0  0  0  0
    7.7241  -11.9245   27.1569 C   0  0  0  0  0  0  0  0  0  0  0  0
    8.3154  -12.5995   26.1122 C   0  0  0  0  0  0  0  0  0  0  0  0
    7.6532  -13.5643   25.3834 C   0  0  0  0  0  0  0  0  0  0  0  0
    6.9246  -16.3955   23.5155 C   0  0  0  0  0  0  0  0  0  0  0  0
    6.4714  -17.3894   22.9063 O   0  0  0  0  0  0  0  0  0  0  0  0
    9.0123  -13.4147   21.3692 C   0  0  0  0  0  0  0  0  0  0  0  0
    8.1186  -14.5052   20.7440 C   0  0  2  0  0  0  0  0  0  0  0  0
    6.7313  -13.9633   20.7535 C   0  0  0  0  0  0  0  0  0  0  0  0
    8.3202  -15.7762   21.5336 C   0  0  2  0  0  0  0  0  0  0  0  0
    7.8620  -15.5343   22.9038 N   0  0  0  0  0  0  0  0  0  0  0  0
    9.6944  -16.2681   21.5884 C   0  0  0  0  0  0  0  0  0  0  0  0
   10.5496  -15.6372   22.2921 O   0  0  0  0  0  0  0  0  0  0  0  0
   10.2156  -17.4124   20.9268 N   0  0  0  0  0  0  0  0  0  0  0  0
   11.5236  -17.9391   21.0999 C   0  0  1  0  0  0  0  0  0  0  0  0
   11.6324  -19.2772   21.7301 C   0  0  0  0  0  0  0  0  0  0  0  0
   10.9947  -19.3359   23.0991 C   0  0  0  0  0  0  0  0  0  0  0  0
   11.0455  -20.7111   23.6803 C   0  0  0  0  0  0  0  0  0  0  0  0
   10.5870  -20.7695   25.1194 C   0  0  0  0  0  0  0  0  0  0  0  0
   10.6924  -22.0991   25.6496 N   0  0  0  0  0  0  0  0  0  0  0  0
   12.3842  -17.8810   19.8762 C   0  0  0  0  0  0  0  0  0  0  0  0
   11.8146  -17.4741   18.6947 O   0  0  0  0  0  0  0  0  0  0  0  0
   13.5792  -18.1894   19.9278 O   0  0  0  0  0  0  0  0  0  0  0  0
  2 10  1  0
  2  1  1  1
  3  2  1  0
  4  3  1  0
  4  9  2  0
  5  4  1  0
  6  5  2  0
  6  7  1  0
  7  8  2  0
  8  9  1  0
 10 11  2  0
 13 12  1  1
 14 13  1  0
 15 13  1  0
 15 16  1  1
 16 10  1  0
 17 18  2  0
 17 15  1  0
 19 17  1  0
 20 21  1  6
 20 19  1  0
 21 22  1  0
 23 22  1  0
 23 24  1  0
 24 25  1  0
 26 27  1  0
 26 20  1  0
 28 26  2  0
M  END
$$$$
