FVK.pdb
     RDKit          3D

 28 28  0  0  1  0  0  0  0  0999 V2000
    5.7726  -18.0565   25.1967 N   0  0  0  0  0  0  0  0  0  0  0  0
    6.1990  -16.6956   25.0867 C   0  0  1  0  0  0  0  0  0  0  0  0
    6.5832  -16.2160   26.4735 C   0  0  0  0  0  0  0  0  0  0  0  0
    6.5520  -14.7287   26.4336 C   0  0  0  0  0  0  0  0  0  0  0  0
    7.7309  -14.0124   26.4854 C   0  0  0  0  0  0  0  0  0  0  0  0
    7.7382  -12.6236   26.4502 C   0  0  0  0  0  0  0  0  0  0  0  0
    6.5513  -11.9464   26.3622 C   0  0  0  0  0  0  0  0  0  0  0  0
    5.3774  -12.6647   26.3108 C   0  0  0  0  0  0  0  0  0  0  0  0
    5.3491  -14.0426   26.3444 C   0  0  0  0  0  0  0  0  0  0  0  0
    7.3440  -16.5430   24.1309 C   0  0  0  0  0  0  0  0  0  0  0  0
    8.3028  -17.3422   24.2113 O   0  0  0  0  0  0  0  0  0  0  0  0
    8.2415  -13.0642   21.5291 C   0  0  0  0  0  0  0  0  0  0  0  0
    7.8976  -14.4921   21.0583 C   0  0  2  0  0  0  0  0  0  0  0  0
    6.4323  -14.5015   20.7915 C   0  0  0  0  0  0  0  0  0  0  0  0
    8.3656  -15.4548   22.1230 C   0  0  2  0  0  0  0  0  0  0  0  0
    7.3344  -15.5158   23.1617 N   0  0  0  0  0  0  0  0  0  0  0  0
    9.6374  -15.1174   22.7571 C   0  0  0  0  0  0  0  0  0  0  0  0
    9.6431  -14.3019   23.7366 O   0  0  0  0  0  0  0  0  0  0  0  0
   10.9223  -15.6087   22.4013 N   0  0  0  0  0  0  0  0  0  0  0  0
   11.8796  -16.1413   23.3059 C   0  0  1  0  0  0  0  0  0  0  0  0
   11.4189  -17.2168   24.2173 C   0  0  0  0  0  0  0  0  0  0  0  0
   12.5299  -17.7761   25.0758 C   0  0  0  0  0  0  0  0  0  0  0  0
   12.0390  -18.8429   25.9990 C   0  0  0  0  0  0  0  0  0  0  0  0
   13.1211  -19.4049   26.8925 C   0  0  0  0  0  0  0  0  0  0  0  0
   12.5849  -20.3397   27.8405 N   0  0  0  0  0  0  0  0  0  0  0  0
   13.1810  -16.5301   22.6761 C   0  0  0  0  0  0  0  0  0  0  0  0
   13.2662  -16.5436   21.3055 O   0  0  0  0  0  0  0  0  0  0  0  0
   14.1563  -16.8296   23.3723 O   0  0  0  0  0  0  0  0  0  0  0  0
  2 10  1  0
  2  1  1  1
  3  2  1  0
  4  3  1  0
  4  9  2  0
  5  4  1  0
  6  5  2  0
  6  7  1  0
  7  8  2  0
  8  9  1  0
 10 11  2  0
 13 12  1  1
 14 13  1  0
 15 13  1  0
 15 16  1  1
 16 10  1  0
 17 18  2  0
 17 15  1  0
 19 17  1  0
 20 21  1  6
 20 19  1  0
 21 22  1  0
 23 22  1  0
 23 24  1  0
 24 25  1  0
 26 27  1  0
 26 20  1  0
 28 26  2  0
M  END
$$$$
