FVK.pdb
     RDKit          3D

 28 28  0  0  1  0  0  0  0  0999 V2000
    5.7823  -17.9253   25.0655 N   0  0  0  0  0  0  0  0  0  0  0  0
    6.3694  -16.6294   24.9174 C   0  0  1  0  0  0  0  0  0  0  0  0
    6.8722  -16.1892   26.2791 C   0  0  0  0  0  0  0  0  0  0  0  0
    6.7903  -14.7035   26.3034 C   0  0  0  0  0  0  0  0  0  0  0  0
    5.5608  -14.0818   26.3898 C   0  0  0  0  0  0  0  0  0  0  0  0
    5.4480  -12.6973   26.4149 C   0  0  0  0  0  0  0  0  0  0  0  0
    6.5796  -11.9287   26.3526 C   0  0  0  0  0  0  0  0  0  0  0  0
    7.8042  -12.5529   26.2664 C   0  0  0  0  0  0  0  0  0  0  0  0
    7.9371  -13.9247   26.2403 C   0  0  0  0  0  0  0  0  0  0  0  0
    7.4805  -16.6297   23.9107 C   0  0  0  0  0  0  0  0  0  0  0  0
    8.1494  -17.6753   23.7562 O   0  0  0  0  0  0  0  0  0  0  0  0
    8.3766  -13.0909   21.7757 C   0  0  0  0  0  0  0  0  0  0  0  0
    8.1803  -14.4257   21.0284 C   0  0  2  0  0  0  0  0  0  0  0  0
    6.7545  -14.4574   20.5992 C   0  0  0  0  0  0  0  0  0  0  0  0
    8.5997  -15.5405   21.9561 C   0  0  2  0  0  0  0  0  0  0  0  0
    7.7612  -15.4699   23.1552 N   0  0  0  0  0  0  0  0  0  0  0  0
    9.9996  -15.5158   22.3721 C   0  0  0  0  0  0  0  0  0  0  0  0
   10.9104  -15.5586   21.4814 O   0  0  0  0  0  0  0  0  0  0  0  0
   10.4905  -15.4456   23.7036 N   0  0  0  0  0  0  0  0  0  0  0  0
   11.7788  -15.8668   24.1296 C   0  0  1  0  0  0  0  0  0  0  0  0
   11.8526  -16.6238   25.4027 C   0  0  0  0  0  0  0  0  0  0  0  0
   10.9323  -16.0737   26.4680 C   0  0  0  0  0  0  0  0  0  0  0  0
   11.6364  -15.8874   27.7722 C   0  0  0  0  0  0  0  0  0  0  0  0
   10.7662  -15.2605   28.8374 C   0  0  0  0  0  0  0  0  0  0  0  0
   11.5141  -14.9877   30.0316 N   0  0  0  0  0  0  0  0  0  0  0  0
   12.5855  -16.5611   23.0767 C   0  0  0  0  0  0  0  0  0  0  0  0
   12.0659  -17.6905   22.4932 O   0  0  0  0  0  0  0  0  0  0  0  0
   13.6916  -16.1276   22.7385 O   0  0  0  0  0  0  0  0  0  0  0  0
  2 10  1  0
  2  1  1  1
  3  2  1  0
  4  3  1  0
  4  9  2  0
  5  4  1  0
  6  5  2  0
  6  7  1  0
  7  8  2  0
  8  9  1  0
 10 11  2  0
 13 12  1  1
 14 13  1  0
 15 13  1  0
 15 16  1  1
 16 10  1  0
 17 18  2  0
 17 15  1  0
 19 17  1  0
 20 21  1  1
 20 19  1  0
 21 22  1  0
 23 22  1  0
 23 24  1  0
 24 25  1  0
 26 27  1  0
 26 20  1  0
 28 26  2  0
M  END
$$$$
