FVK.pdb
     RDKit          3D

 28 28  0  0  1  0  0  0  0  0999 V2000
    5.5753  -17.8501   25.5555 N   0  0  0  0  0  0  0  0  0  0  0  0
    6.1043  -16.5343   25.3690 C   0  0  1  0  0  0  0  0  0  0  0  0
    6.7542  -16.1065   26.6712 C   0  0  0  0  0  0  0  0  0  0  0  0
    6.8295  -14.6205   26.6414 C   0  0  0  0  0  0  0  0  0  0  0  0
    5.6703  -13.8708   26.6502 C   0  0  0  0  0  0  0  0  0  0  0  0
    5.7041  -12.4822   26.6231 C   0  0  0  0  0  0  0  0  0  0  0  0
    6.9125  -11.8391   26.5869 C   0  0  0  0  0  0  0  0  0  0  0  0
    8.0665  -12.5906   26.5783 C   0  0  0  0  0  0  0  0  0  0  0  0
    8.0540  -13.9689   26.6047 C   0  0  0  0  0  0  0  0  0  0  0  0
    7.0865  -16.4807   24.2375 C   0  0  0  0  0  0  0  0  0  0  0  0
    7.8586  -17.4499   24.0672 O   0  0  0  0  0  0  0  0  0  0  0  0
    8.4840  -14.1852   20.0814 C   0  0  0  0  0  0  0  0  0  0  0  0
    7.6327  -14.1439   21.3668 C   0  0  2  0  0  0  0  0  0  0  0  0
    7.9010  -12.8238   22.0022 C   0  0  0  0  0  0  0  0  0  0  0  0
    7.9979  -15.3477   22.2015 C   0  0  2  0  0  0  0  0  0  0  0  0
    7.1340  -15.3560   23.3845 N   0  0  0  0  0  0  0  0  0  0  0  0
    9.3878  -15.4027   22.6469 C   0  0  0  0  0  0  0  0  0  0  0  0
    9.7754  -14.6073   23.5643 O   0  0  0  0  0  0  0  0  0  0  0  0
   10.4026  -16.2717   22.1631 N   0  0  0  0  0  0  0  0  0  0  0  0
   11.5894  -16.6211   22.8616 C   0  0  1  0  0  0  0  0  0  0  0  0
   11.6691  -17.9981   23.4063 C   0  0  0  0  0  0  0  0  0  0  0  0
   12.9678  -18.2699   24.1301 C   0  0  0  0  0  0  0  0  0  0  0  0
   13.0234  -19.6599   24.6744 C   0  0  0  0  0  0  0  0  0  0  0  0
   14.2368  -19.9155   25.5389 C   0  0  0  0  0  0  0  0  0  0  0  0
   14.2474  -21.2593   26.0430 N   0  0  0  0  0  0  0  0  0  0  0  0
   12.8573  -16.2845   22.1402 C   0  0  0  0  0  0  0  0  0  0  0  0
   14.0168  -16.1812   22.8689 O   0  0  0  0  0  0  0  0  0  0  0  0
   12.8618  -16.1060   20.9180 O   0  0  0  0  0  0  0  0  0  0  0  0
  2 10  1  0
  2  1  1  1
  3  2  1  0
  4  3  1  0
  4  9  2  0
  5  4  1  0
  6  5  2  0
  6  7  1  0
  7  8  2  0
  8  9  1  0
 10 11  2  0
 13 12  1  6
 14 13  1  0
 15 13  1  0
 15 16  1  1
 16 10  1  0
 17 18  2  0
 17 15  1  0
 19 17  1  0
 20 21  1  6
 20 19  1  0
 21 22  1  0
 23 22  1  0
 23 24  1  0
 24 25  1  0
 26 27  1  0
 26 20  1  0
 28 26  2  0
M  END
$$$$
