MFI.pdb
     RDKit          3D

 28 28  0  0  1  0  0  0  0  0999 V2000
   12.8863  -21.0466   22.5062 C   0  0  0  0  0  0  0  0  0  0  0  0
   12.8725  -21.1535   20.6954 S   0  0  0  0  0  0  0  0  0  0  0  0
   11.7364  -19.9194   19.9830 C   0  0  0  0  0  0  0  0  0  0  0  0
   11.8486  -18.5990   20.7175 C   0  0  0  0  0  0  0  0  0  0  0  0
   10.7296  -17.7123   20.2206 C   0  0  2  0  0  0  0  0  0  0  0  0
   11.2275  -17.0559   19.0277 N   0  0  0  0  0  0  0  0  0  0  0  0
   10.3352  -16.6908   21.1916 C   0  0  0  0  0  0  0  0  0  0  0  0
   10.9129  -15.5964   21.2411 O   0  0  0  0  0  0  0  0  0  0  0  0
    9.2720  -16.8749   22.1398 N   0  0  0  0  0  0  0  0  0  0  0  0
    8.9055  -15.9360   23.1461 C   0  0  1  0  0  0  0  0  0  0  0  0
    7.4927  -15.5128   23.1845 C   0  0  0  0  0  0  0  0  0  0  0  0
    7.0578  -14.5331   24.1388 C   0  0  0  0  0  0  0  0  0  0  0  0
    7.3492  -13.1878   23.8881 C   0  0  0  0  0  0  0  0  0  0  0  0
    6.9862  -12.1664   24.7280 C   0  0  0  0  0  0  0  0  0  0  0  0
    6.2984  -12.4785   25.8793 C   0  0  0  0  0  0  0  0  0  0  0  0
    5.9896  -13.8141   26.1625 C   0  0  0  0  0  0  0  0  0  0  0  0
    6.3707  -14.8068   25.2964 C   0  0  0  0  0  0  0  0  0  0  0  0
    9.4770  -16.2638   24.4849 C   0  0  0  0  0  0  0  0  0  0  0  0
    9.7090  -17.4770   24.7167 O   0  0  0  0  0  0  0  0  0  0  0  0
   10.7960  -13.9324   30.0694 C   0  0  0  0  0  0  0  0  0  0  0  0
   11.1447  -14.9490   28.9849 C   0  0  0  0  0  0  0  0  0  0  0  0
   10.3602  -14.6371   27.7283 C   0  0  2  0  0  0  0  0  0  0  0  0
    8.9195  -14.3876   28.0252 C   0  0  0  0  0  0  0  0  0  0  0  0
   10.5025  -15.6663   26.6546 C   0  0  2  0  0  0  0  0  0  0  0  0
    9.7495  -15.2824   25.4513 N   0  0  0  0  0  0  0  0  0  0  0  0
    9.9168  -16.9431   27.1233 C   0  0  0  0  0  0  0  0  0  0  0  0
    8.7050  -17.4602   26.6713 O   0  0  0  0  0  0  0  0  0  0  0  0
   10.5104  -17.6649   27.9987 O   0  0  0  0  0  0  0  0  0  0  0  0
  2  1  1  0
  3  2  1  0
  4  3  1  0
  5  4  1  0
  5  6  1  6
  7  8  2  0
  7  5  1  0
  9  7  1  0
 10  9  1  0
 11 12  1  0
 10 11  1  1
 12 13  2  0
 13 14  1  0
 15 14  2  0
 16 15  1  0
 17 12  1  0
 17 16  2  0
 18 10  1  0
 18 19  2  0
 20 21  1  0
 21 22  1  0
 22 23  1  1
 24 22  1  0
 24 25  1  6
 25 18  1  0
 26 24  1  0
 27 26  1  0
 28 26  2  0
M  END
$$$$
