MFI.pdb
     RDKit          3D

 28 28  0  0  1  0  0  0  0  0999 V2000
   11.3867  -22.1150   21.9494 C   0  0  0  0  0  0  0  0  0  0  0  0
   12.2302  -21.3541   20.5351 S   0  0  0  0  0  0  0  0  0  0  0  0
   11.3054  -19.9034   19.9341 C   0  0  0  0  0  0  0  0  0  0  0  0
   11.5529  -18.7023   20.8239 C   0  0  0  0  0  0  0  0  0  0  0  0
   10.6483  -17.5916   20.3410 C   0  0  2  0  0  0  0  0  0  0  0  0
   11.3472  -16.9404   19.2506 N   0  0  0  0  0  0  0  0  0  0  0  0
   10.3592  -16.5984   21.3763 C   0  0  0  0  0  0  0  0  0  0  0  0
   11.1633  -15.6939   21.6392 O   0  0  0  0  0  0  0  0  0  0  0  0
    9.1483  -16.5965   22.1492 N   0  0  0  0  0  0  0  0  0  0  0  0
    8.8327  -15.6521   23.1674 C   0  0  1  0  0  0  0  0  0  0  0  0
    7.4575  -15.1181   23.1824 C   0  0  0  0  0  0  0  0  0  0  0  0
    7.0808  -14.1193   24.1417 C   0  0  0  0  0  0  0  0  0  0  0  0
    6.2969  -14.5097   25.2328 C   0  0  0  0  0  0  0  0  0  0  0  0
    5.8760  -13.6441   26.2095 C   0  0  0  0  0  0  0  0  0  0  0  0
    6.2428  -12.3204   26.1137 C   0  0  0  0  0  0  0  0  0  0  0  0
    7.0270  -11.8940   25.0354 C   0  0  0  0  0  0  0  0  0  0  0  0
    7.4276  -12.7915   24.0790 C   0  0  0  0  0  0  0  0  0  0  0  0
    9.3427  -16.0519   24.5115 C   0  0  0  0  0  0  0  0  0  0  0  0
    9.4554  -17.2848   24.7274 O   0  0  0  0  0  0  0  0  0  0  0  0
   11.1609  -13.7575   29.9933 C   0  0  0  0  0  0  0  0  0  0  0  0
   11.2294  -14.8974   28.9798 C   0  0  0  0  0  0  0  0  0  0  0  0
   10.5364  -14.4791   27.7006 C   0  0  2  0  0  0  0  0  0  0  0  0
    9.2212  -13.8294   27.9730 C   0  0  0  0  0  0  0  0  0  0  0  0
   10.3782  -15.5847   26.7082 C   0  0  2  0  0  0  0  0  0  0  0  0
    9.6853  -15.1149   25.4994 N   0  0  0  0  0  0  0  0  0  0  0  0
    9.5250  -16.6448   27.2923 C   0  0  0  0  0  0  0  0  0  0  0  0
    8.1954  -16.8621   26.9387 O   0  0  0  0  0  0  0  0  0  0  0  0
    9.9765  -17.4454   28.1840 O   0  0  0  0  0  0  0  0  0  0  0  0
  2  1  1  0
  3  2  1  0
  4  3  1  0
  5  4  1  0
  5  6  1  6
  7  8  2  0
  7  5  1  0
  9  7  1  0
 10  9  1  0
 11 12  1  0
 10 11  1  1
 12 13  2  0
 13 14  1  0
 15 14  2  0
 16 15  1  0
 17 12  1  0
 17 16  2  0
 18 10  1  0
 18 19  2  0
 20 21  1  0
 21 22  1  0
 22 23  1  1
 24 22  1  0
 24 25  1  6
 25 18  1  0
 26 24  1  0
 27 26  1  0
 28 26  2  0
M  END
$$$$
