MFI.pdb
     RDKit          3D

 28 28  0  0  1  0  0  0  0  0999 V2000
    8.5046  -20.5004   28.7548 C   0  0  0  0  0  0  0  0  0  0  0  0
    8.8965  -21.8337   27.5889 S   0  0  0  0  0  0  0  0  0  0  0  0
    8.1559  -21.5044   25.9566 C   0  0  0  0  0  0  0  0  0  0  0  0
    7.3327  -20.2328   25.9870 C   0  0  0  0  0  0  0  0  0  0  0  0
    6.9499  -19.9115   24.5603 C   0  0  2  0  0  0  0  0  0  0  0  0
    7.5559  -20.9370   23.7339 N   0  0  0  0  0  0  0  0  0  0  0  0
    7.4339  -18.6027   24.1191 C   0  0  0  0  0  0  0  0  0  0  0  0
    8.6046  -18.4441   23.7475 O   0  0  0  0  0  0  0  0  0  0  0  0
    6.6070  -17.4286   24.0839 N   0  0  0  0  0  0  0  0  0  0  0  0
    7.0473  -16.1117   24.4007 C   0  0  1  0  0  0  0  0  0  0  0  0
    6.0996  -15.2454   25.1272 C   0  0  0  0  0  0  0  0  0  0  0  0
    6.4019  -13.8576   25.3334 C   0  0  0  0  0  0  0  0  0  0  0  0
    7.1427  -13.1874   24.3539 C   0  0  0  0  0  0  0  0  0  0  0  0
    7.4920  -11.8644   24.4435 C   0  0  0  0  0  0  0  0  0  0  0  0
    7.0938  -11.1559   25.5550 C   0  0  0  0  0  0  0  0  0  0  0  0
    6.3512  -11.7941   26.5552 C   0  0  0  0  0  0  0  0  0  0  0  0
    6.0220  -13.1193   26.4278 C   0  0  0  0  0  0  0  0  0  0  0  0
    8.4378  -16.0764   24.9409 C   0  0  0  0  0  0  0  0  0  0  0  0
    9.3349  -15.6681   24.1612 O   0  0  0  0  0  0  0  0  0  0  0  0
    9.6357  -13.1830   29.0469 C   0  0  0  0  0  0  0  0  0  0  0  0
    9.8545  -13.9142   27.7246 C   0  0  0  0  0  0  0  0  0  0  0  0
   10.0770  -15.3875   27.9921 C   0  0  2  0  0  0  0  0  0  0  0  0
   11.3000  -15.6201   28.8145 C   0  0  0  0  0  0  0  0  0  0  0  0
   10.1085  -16.2290   26.7580 C   0  0  2  0  0  0  0  0  0  0  0  0
    8.7503  -16.4743   26.2506 N   0  0  0  0  0  0  0  0  0  0  0  0
   10.6761  -17.5563   27.0882 C   0  0  0  0  0  0  0  0  0  0  0  0
    9.9436  -18.7411   27.0927 O   0  0  0  0  0  0  0  0  0  0  0  0
   11.9109  -17.6926   27.3987 O   0  0  0  0  0  0  0  0  0  0  0  0
  2  1  1  0
  3  2  1  0
  4  3  1  0
  5  4  1  0
  5  6  1  6
  7  8  2  0
  7  5  1  0
  9  7  1  0
 10  9  1  0
 11 12  1  0
 10 11  1  1
 12 13  2  0
 13 14  1  0
 15 14  2  0
 16 15  1  0
 17 12  1  0
 17 16  2  0
 18 10  1  0
 18 19  2  0
 20 21  1  0
 21 22  1  0
 22 23  1  6
 24 22  1  0
 24 25  1  1
 25 18  1  0
 26 24  1  0
 27 26  1  0
 28 26  2  0
M  END
$$$$
