MFI.pdb
     RDKit          3D

 28 28  0  0  1  0  0  0  0  0999 V2000
    8.2476  -12.2357   17.6479 C   0  0  0  0  0  0  0  0  0  0  0  0
    8.8033  -13.6689   16.6848 S   0  0  0  0  0  0  0  0  0  0  0  0
    9.2017  -15.0697   17.7803 C   0  0  0  0  0  0  0  0  0  0  0  0
    9.5785  -14.5795   19.1635 C   0  0  0  0  0  0  0  0  0  0  0  0
    9.9203  -15.7959   19.9934 C   0  0  2  0  0  0  0  0  0  0  0  0
    8.9238  -16.8000   19.6762 N   0  0  0  0  0  0  0  0  0  0  0  0
    9.8852  -15.5345   21.4329 C   0  0  0  0  0  0  0  0  0  0  0  0
   10.8035  -14.9235   21.9961 O   0  0  0  0  0  0  0  0  0  0  0  0
    8.8074  -15.9569   22.2836 N   0  0  0  0  0  0  0  0  0  0  0  0
    8.5163  -15.4064   23.5645 C   0  0  1  0  0  0  0  0  0  0  0  0
    7.1049  -15.0864   23.8508 C   0  0  0  0  0  0  0  0  0  0  0  0
    6.7689  -14.2084   24.9352 C   0  0  0  0  0  0  0  0  0  0  0  0
    7.1433  -12.8637   24.8403 C   0  0  0  0  0  0  0  0  0  0  0  0
    6.8781  -11.9346   25.8134 C   0  0  0  0  0  0  0  0  0  0  0  0
    6.2081  -12.3441   26.9445 C   0  0  0  0  0  0  0  0  0  0  0  0
    5.8180  -13.6822   27.0735 C   0  0  0  0  0  0  0  0  0  0  0  0
    6.1023  -14.5807   26.0772 C   0  0  0  0  0  0  0  0  0  0  0  0
    9.2148  -16.1158   24.6761 C   0  0  0  0  0  0  0  0  0  0  0  0
    9.6687  -17.2589   24.4176 O   0  0  0  0  0  0  0  0  0  0  0  0
   10.4558  -13.0826   29.0936 C   0  0  0  0  0  0  0  0  0  0  0  0
   10.8253  -13.9347   27.8817 C   0  0  0  0  0  0  0  0  0  0  0  0
   10.4429  -15.3762   28.1415 C   0  0  2  0  0  0  0  0  0  0  0  0
   11.3873  -16.0349   29.0904 C   0  0  0  0  0  0  0  0  0  0  0  0
   10.2912  -16.1954   26.9012 C   0  0  2  0  0  0  0  0  0  0  0  0
    9.3685  -15.5533   25.9532 N   0  0  0  0  0  0  0  0  0  0  0  0
    9.6871  -17.5013   27.2512 C   0  0  0  0  0  0  0  0  0  0  0  0
    8.3158  -17.7415   27.2974 O   0  0  0  0  0  0  0  0  0  0  0  0
   10.4151  -18.5142   27.5410 O   0  0  0  0  0  0  0  0  0  0  0  0
  2  1  1  0
  3  2  1  0
  4  3  1  0
  5  4  1  0
  5  6  1  1
  7  8  2  0
  7  5  1  0
  9  7  1  0
 10  9  1  0
 11 12  1  0
 10 11  1  1
 12 13  2  0
 13 14  1  0
 15 14  2  0
 16 15  1  0
 17 12  1  0
 17 16  2  0
 18 10  1  0
 18 19  2  0
 20 21  1  0
 21 22  1  0
 22 23  1  1
 24 22  1  0
 24 25  1  6
 25 18  1  0
 26 24  1  0
 27 26  1  0
 28 26  2  0
M  END
$$$$
