MFI.pdb
     RDKit          3D

 28 28  0  0  1  0  0  0  0  0999 V2000
   10.8950  -21.9658   21.5575 C   0  0  0  0  0  0  0  0  0  0  0  0
   11.9702  -21.2776   20.2687 S   0  0  0  0  0  0  0  0  0  0  0  0
   11.4289  -19.6015   19.8012 C   0  0  0  0  0  0  0  0  0  0  0  0
   11.1306  -18.7705   21.0325 C   0  0  0  0  0  0  0  0  0  0  0  0
   10.6168  -17.4309   20.5565 C   0  0  2  0  0  0  0  0  0  0  0  0
   11.6732  -16.8511   19.7505 N   0  0  0  0  0  0  0  0  0  0  0  0
   10.3043  -16.5151   21.6545 C   0  0  0  0  0  0  0  0  0  0  0  0
   11.1632  -15.7520   22.1169 O   0  0  0  0  0  0  0  0  0  0  0  0
    9.0071  -16.4330   22.2660 N   0  0  0  0  0  0  0  0  0  0  0  0
    8.6900  -15.6328   23.4007 C   0  0  1  0  0  0  0  0  0  0  0  0
    7.3380  -15.0444   23.4485 C   0  0  0  0  0  0  0  0  0  0  0  0
    6.9641  -14.1803   24.5316 C   0  0  0  0  0  0  0  0  0  0  0  0
    7.4090  -12.8540   24.5061 C   0  0  0  0  0  0  0  0  0  0  0  0
    7.1165  -11.9395   25.4851 C   0  0  0  0  0  0  0  0  0  0  0  0
    6.3444  -12.3453   26.5505 C   0  0  0  0  0  0  0  0  0  0  0  0
    5.8816  -13.6650   26.6092 C   0  0  0  0  0  0  0  0  0  0  0  0
    6.1964  -14.5494   25.6094 C   0  0  0  0  0  0  0  0  0  0  0  0
    9.1302  -16.2463   24.6878 C   0  0  0  0  0  0  0  0  0  0  0  0
    9.0430  -17.4970   24.7746 O   0  0  0  0  0  0  0  0  0  0  0  0
   10.6558  -13.0110   29.0353 C   0  0  0  0  0  0  0  0  0  0  0  0
   10.8124  -13.9067   27.8087 C   0  0  0  0  0  0  0  0  0  0  0  0
   10.2549  -15.2811   28.1116 C   0  0  2  0  0  0  0  0  0  0  0  0
   10.9926  -15.9418   29.2276 C   0  0  0  0  0  0  0  0  0  0  0  0
   10.1880  -16.1829   26.9224 C   0  0  2  0  0  0  0  0  0  0  0  0
    9.6202  -15.4838   25.7600 N   0  0  0  0  0  0  0  0  0  0  0  0
    9.2748  -17.3108   27.2174 C   0  0  0  0  0  0  0  0  0  0  0  0
    9.6875  -18.5369   27.7336 O   0  0  0  0  0  0  0  0  0  0  0  0
    8.0151  -17.2187   27.0066 O   0  0  0  0  0  0  0  0  0  0  0  0
  2  1  1  0
  3  2  1  0
  4  3  1  0
  5  4  1  0
  5  6  1  6
  7  8  2  0
  7  5  1  0
  9  7  1  0
 10  9  1  0
 11 12  1  0
 10 11  1  1
 12 13  2  0
 13 14  1  0
 15 14  2  0
 16 15  1  0
 17 12  1  0
 17 16  2  0
 18 10  1  0
 18 19  2  0
 20 21  1  0
 21 22  1  0
 22 23  1  1
 24 22  1  0
 24 25  1  6
 25 18  1  0
 26 24  1  0
 27 26  1  0
 28 26  2  0
M  END
$$$$
