MFI.pdb
     RDKit          3D

 28 28  0  0  1  0  0  0  0  0999 V2000
   13.9619  -20.7105   21.7430 C   0  0  0  0  0  0  0  0  0  0  0  0
   12.3961  -21.1628   20.9465 S   0  0  0  0  0  0  0  0  0  0  0  0
   11.6197  -19.7071   20.1724 C   0  0  0  0  0  0  0  0  0  0  0  0
   11.9272  -18.4509   20.9619 C   0  0  0  0  0  0  0  0  0  0  0  0
   10.9549  -17.3861   20.5081 C   0  0  2  0  0  0  0  0  0  0  0  0
   11.6354  -16.6228   19.4805 N   0  0  0  0  0  0  0  0  0  0  0  0
   10.5573  -16.4782   21.5849 C   0  0  0  0  0  0  0  0  0  0  0  0
   11.3020  -15.5618   21.9585 O   0  0  0  0  0  0  0  0  0  0  0  0
    9.3015  -16.5780   22.2753 N   0  0  0  0  0  0  0  0  0  0  0  0
    8.9023  -15.7520   23.3646 C   0  0  1  0  0  0  0  0  0  0  0  0
    7.4975  -15.3017   23.3839 C   0  0  0  0  0  0  0  0  0  0  0  0
    7.0645  -14.3269   24.3440 C   0  0  0  0  0  0  0  0  0  0  0  0
    6.2883  -14.7594   25.4247 C   0  0  0  0  0  0  0  0  0  0  0  0
    5.8171  -13.9198   26.4011 C   0  0  0  0  0  0  0  0  0  0  0  0
    6.1226  -12.5798   26.3158 C   0  0  0  0  0  0  0  0  0  0  0  0
    6.8971  -12.1114   25.2480 C   0  0  0  0  0  0  0  0  0  0  0  0
    7.3494  -12.9840   24.2916 C   0  0  0  0  0  0  0  0  0  0  0  0
    9.3992  -16.2450   24.6825 C   0  0  0  0  0  0  0  0  0  0  0  0
    9.5940  -17.4825   24.7839 O   0  0  0  0  0  0  0  0  0  0  0  0
    9.8118  -12.7092   28.9919 C   0  0  0  0  0  0  0  0  0  0  0  0
   10.4139  -13.6134   27.9190 C   0  0  0  0  0  0  0  0  0  0  0  0
    9.9831  -15.0439   28.1630 C   0  0  2  0  0  0  0  0  0  0  0  0
   10.6083  -15.6055   29.3958 C   0  0  0  0  0  0  0  0  0  0  0  0
   10.2131  -15.9524   26.9994 C   0  0  2  0  0  0  0  0  0  0  0  0
    9.6434  -15.3876   25.7670 N   0  0  0  0  0  0  0  0  0  0  0  0
    9.5087  -17.2335   27.2352 C   0  0  0  0  0  0  0  0  0  0  0  0
    8.1494  -17.4326   27.0048 O   0  0  0  0  0  0  0  0  0  0  0  0
   10.1297  -18.2616   27.6791 O   0  0  0  0  0  0  0  0  0  0  0  0
  2  1  1  0
  3  2  1  0
  4  3  1  0
  5  4  1  0
  5  6  1  6
  7  8  2  0
  7  5  1  0
  9  7  1  0
 10  9  1  0
 11 12  1  0
 10 11  1  1
 12 13  2  0
 13 14  1  0
 15 14  2  0
 16 15  1  0
 17 12  1  0
 17 16  2  0
 18 10  1  0
 18 19  2  0
 20 21  1  0
 21 22  1  0
 22 23  1  1
 24 22  1  0
 24 25  1  6
 25 18  1  0
 26 24  1  0
 27 26  1  0
 28 26  2  0
M  END
$$$$
