MFI.pdb
     RDKit          3D

 28 28  0  0  1  0  0  0  0  0999 V2000
   11.1192  -21.5646   21.9957 C   0  0  0  0  0  0  0  0  0  0  0  0
    9.8158  -21.5890   20.7343 S   0  0  0  0  0  0  0  0  0  0  0  0
    9.3730  -19.8951   20.2285 C   0  0  0  0  0  0  0  0  0  0  0  0
    9.7036  -18.9034   21.3252 C   0  0  0  0  0  0  0  0  0  0  0  0
    9.2533  -17.5411   20.8494 C   0  0  2  0  0  0  0  0  0  0  0  0
   10.1317  -17.1799   19.7540 N   0  0  0  0  0  0  0  0  0  0  0  0
    9.3459  -16.5133   21.8871 C   0  0  0  0  0  0  0  0  0  0  0  0
   10.4434  -16.0855   22.2695 O   0  0  0  0  0  0  0  0  0  0  0  0
    8.1971  -15.9351   22.5271 N   0  0  0  0  0  0  0  0  0  0  0  0
    8.2325  -15.1656   23.7250 C   0  0  1  0  0  0  0  0  0  0  0  0
    7.0723  -14.2958   23.9967 C   0  0  0  0  0  0  0  0  0  0  0  0
    7.0222  -13.5126   25.1983 C   0  0  0  0  0  0  0  0  0  0  0  0
    7.7171  -12.2986   25.2283 C   0  0  0  0  0  0  0  0  0  0  0  0
    7.7428  -11.4690   26.3198 C   0  0  0  0  0  0  0  0  0  0  0  0
    7.0489  -11.8484   27.4471 C   0  0  0  0  0  0  0  0  0  0  0  0
    6.3423  -13.0567   27.4529 C   0  0  0  0  0  0  0  0  0  0  0  0
    6.3416  -13.8585   26.3404 C   0  0  0  0  0  0  0  0  0  0  0  0
    8.6926  -15.9500   24.9081 C   0  0  0  0  0  0  0  0  0  0  0  0
    8.0493  -16.9961   25.1752 O   0  0  0  0  0  0  0  0  0  0  0  0
   13.3109  -18.7018   26.5125 C   0  0  0  0  0  0  0  0  0  0  0  0
   12.5192  -17.6699   27.3123 C   0  0  0  0  0  0  0  0  0  0  0  0
   11.8366  -16.7091   26.3624 C   0  0  2  0  0  0  0  0  0  0  0  0
   12.5226  -15.3845   26.3304 C   0  0  0  0  0  0  0  0  0  0  0  0
   10.3757  -16.5355   26.6229 C   0  0  2  0  0  0  0  0  0  0  0  0
    9.7861  -15.5576   25.6964 N   0  0  0  0  0  0  0  0  0  0  0  0
   10.1859  -15.9862   27.9850 C   0  0  0  0  0  0  0  0  0  0  0  0
    9.6354  -14.7354   28.2542 O   0  0  0  0  0  0  0  0  0  0  0  0
   10.5293  -16.6516   29.0238 O   0  0  0  0  0  0  0  0  0  0  0  0
  2  1  1  0
  3  2  1  0
  4  3  1  0
  5  4  1  0
  5  6  1  6
  7  8  2  0
  7  5  1  0
  9  7  1  0
 10  9  1  0
 11 12  1  0
 10 11  1  1
 12 13  2  0
 13 14  1  0
 15 14  2  0
 16 15  1  0
 17 12  1  0
 17 16  2  0
 18 10  1  0
 18 19  2  0
 20 21  1  0
 21 22  1  0
 22 23  1  1
 24 22  1  0
 24 25  1  6
 25 18  1  0
 26 24  1  0
 27 26  1  0
 28 26  2  0
M  END
$$$$
