NGT.pdb
     RDKit          3D

 20 19  0  0  1  0  0  0  0  0999 V2000
   22.2752  -14.4450  -20.5144 N   0  0  0  0  0  0  0  0  0  0  0  0
   22.1331  -13.0611  -20.2603 C   0  0  0  0  0  0  0  0  0  0  0  0
   21.8160  -12.3255  -21.2301 O   0  0  0  0  0  0  0  0  0  0  0  0
   22.3557  -12.5042  -18.8788 C   0  0  0  0  0  0  0  0  0  0  0  0
   21.3464  -11.3776  -18.6221 C   0  0  2  0  0  0  0  0  0  0  0  0
   21.5850  -10.3874  -19.6551 N   0  0  0  0  0  0  0  0  0  0  0  0
   21.7077  -10.8165  -17.2708 C   0  0  0  0  0  0  0  0  0  0  0  0
   21.8048  -11.5665  -16.2574 O   0  0  0  0  0  0  0  0  0  0  0  0
   21.9508   -9.4369  -17.0851 N   0  0  0  0  0  0  0  0  0  0  0  0
   22.1237   -8.8997  -15.7543 C   0  0  0  0  0  0  0  0  0  0  0  0
   22.3800   -7.4627  -15.7380 C   0  0  0  0  0  0  0  0  0  0  0  0
   22.6965   -6.8664  -16.7848 O   0  0  0  0  0  0  0  0  0  0  0  0
   21.1219   -5.0874  -16.7428 C   0  0  0  0  0  0  0  0  0  0  0  0
   21.0207   -4.7599  -15.3024 C   0  0  1  0  0  0  0  0  0  0  0  0
   19.8200   -5.2118  -14.7459 O   0  0  0  0  0  0  0  0  0  0  0  0
   22.1428   -5.3038  -14.4571 C   0  0  2  0  0  0  0  0  0  0  0  0
   22.2744   -6.7256  -14.5402 N   0  0  0  0  0  0  0  0  0  0  0  0
   22.0758   -4.8473  -13.0564 C   0  0  0  0  0  0  0  0  0  0  0  0
   22.2218   -3.5267  -12.6798 O   0  0  0  0  0  0  0  0  0  0  0  0
   21.8771   -5.6873  -12.1508 O   0  0  0  0  0  0  0  0  0  0  0  0
  2  1  1  0
  3  2  2  0
  4  2  1  0
  5  6  1  6
  5  4  1  0
  7  5  1  0
  8  7  2  0
  9  7  1  0
 10  9  1  0
 11 10  1  0
 11 17  1  0
 12 11  2  0
 14 13  1  6
 14 16  1  0
 15 14  1  0
 16 17  1  1
 16 18  1  0
 18 20  2  0
 18 19  1  0
M  END
$$$$
