NGT.pdb
     RDKit          3D

 20 19  0  0  1  0  0  0  0  0999 V2000
   24.0280  -12.1353  -16.0697 N   0  0  0  0  0  0  0  0  0  0  0  0
   24.7670  -11.1958  -15.3140 C   0  0  0  0  0  0  0  0  0  0  0  0
   25.9656  -11.4768  -15.0559 O   0  0  0  0  0  0  0  0  0  0  0  0
   24.1314   -9.9140  -14.8435 C   0  0  0  0  0  0  0  0  0  0  0  0
   22.6658   -9.8837  -15.2960 C   0  0  2  0  0  0  0  0  0  0  0  0
   22.6979   -9.7054  -16.7354 N   0  0  0  0  0  0  0  0  0  0  0  0
   22.0676   -8.6686  -14.6349 C   0  0  0  0  0  0  0  0  0  0  0  0
   21.9341   -8.6082  -13.3789 O   0  0  0  0  0  0  0  0  0  0  0  0
   21.6349   -7.5551  -15.3897 N   0  0  0  0  0  0  0  0  0  0  0  0
   20.9449   -6.4609  -14.7448 C   0  0  0  0  0  0  0  0  0  0  0  0
   20.5967   -5.3765  -15.6579 C   0  0  0  0  0  0  0  0  0  0  0  0
   21.1763   -5.2647  -16.7547 O   0  0  0  0  0  0  0  0  0  0  0  0
   17.3486   -4.7169  -17.3477 C   0  0  0  0  0  0  0  0  0  0  0  0
   17.6707   -3.5282  -16.5258 C   0  0  1  0  0  0  0  0  0  0  0  0
   16.9422   -3.5039  -15.3323 O   0  0  0  0  0  0  0  0  0  0  0  0
   19.1278   -3.3916  -16.1681 C   0  0  2  0  0  0  0  0  0  0  0  0
   19.6006   -4.4384  -15.3158 N   0  0  0  0  0  0  0  0  0  0  0  0
   19.4606   -2.0608  -15.6266 C   0  0  0  0  0  0  0  0  0  0  0  0
   19.4379   -0.9054  -16.3826 O   0  0  0  0  0  0  0  0  0  0  0  0
   19.7820   -1.9562  -14.4220 O   0  0  0  0  0  0  0  0  0  0  0  0
  2  1  1  0
  3  2  2  0
  4  2  1  0
  5  6  1  6
  5  4  1  0
  7  5  1  0
  8  7  2  0
  9  7  1  0
 10  9  1  0
 11 10  1  0
 11 17  1  0
 12 11  2  0
 14 13  1  1
 14 16  1  0
 15 14  1  0
 16 17  1  1
 16 18  1  0
 18 20  2  0
 18 19  1  0
M  END
$$$$
