NGT.pdb
     RDKit          3D

 20 19  0  0  1  0  0  0  0  0999 V2000
   17.0341  -21.4234  -13.7063 N   0  0  0  0  0  0  0  0  0  0  0  0
   16.9412  -21.6698  -12.3169 C   0  0  0  0  0  0  0  0  0  0  0  0
   16.5371  -20.7269  -11.5888 O   0  0  0  0  0  0  0  0  0  0  0  0
   17.3143  -23.0123  -11.7454 C   0  0  0  0  0  0  0  0  0  0  0  0
   18.3156  -22.8109  -10.6006 C   0  0  2  0  0  0  0  0  0  0  0  0
   19.6072  -22.6168  -11.2320 N   0  0  0  0  0  0  0  0  0  0  0  0
   18.3044  -24.1040   -9.8267 C   0  0  0  0  0  0  0  0  0  0  0  0
   18.4903  -25.2127  -10.4055 O   0  0  0  0  0  0  0  0  0  0  0  0
   18.0867  -24.1272   -8.4306 N   0  0  0  0  0  0  0  0  0  0  0  0
   18.1565  -25.3738   -7.7024 C   0  0  0  0  0  0  0  0  0  0  0  0
   17.8529  -25.2330   -6.2815 C   0  0  0  0  0  0  0  0  0  0  0  0
   17.8960  -24.1146   -5.7349 O   0  0  0  0  0  0  0  0  0  0  0  0
   14.8145  -27.1830   -4.4390 C   0  0  0  0  0  0  0  0  0  0  0  0
   16.1118  -27.3455   -3.7442 C   0  0  1  0  0  0  0  0  0  0  0  0
   16.6679  -28.6099   -3.9625 O   0  0  0  0  0  0  0  0  0  0  0  0
   17.1537  -26.3235   -4.1182 C   0  0  2  0  0  0  0  0  0  0  0  0
   17.5061  -26.3575   -5.5039 N   0  0  0  0  0  0  0  0  0  0  0  0
   18.3475  -26.3825   -3.2544 C   0  0  0  0  0  0  0  0  0  0  0  0
   18.3162  -26.1320   -1.8967 O   0  0  0  0  0  0  0  0  0  0  0  0
   19.4533  -26.6731   -3.7624 O   0  0  0  0  0  0  0  0  0  0  0  0
  2  1  1  0
  3  2  2  0
  4  2  1  0
  5  6  1  6
  5  4  1  0
  7  5  1  0
  8  7  2  0
  9  7  1  0
 10  9  1  0
 11 10  1  0
 11 17  1  0
 12 11  2  0
 14 13  1  6
 14 16  1  0
 15 14  1  0
 16 17  1  6
 16 18  1  0
 18 20  2  0
 18 19  1  0
M  END
$$$$
