NGT.pdb
     RDKit          3D

 20 19  0  0  1  0  0  0  0  0999 V2000
   27.4830  -17.1726  -21.3784 N   0  0  0  0  0  0  0  0  0  0  0  0
   28.1731  -17.0782  -20.1477 C   0  0  0  0  0  0  0  0  0  0  0  0
   29.3635  -16.6734  -20.1827 O   0  0  0  0  0  0  0  0  0  0  0  0
   27.4973  -17.4507  -18.8544 C   0  0  0  0  0  0  0  0  0  0  0  0
   28.3222  -18.5359  -18.1503 C   0  0  2  0  0  0  0  0  0  0  0  0
   27.8138  -19.8027  -18.6412 N   0  0  0  0  0  0  0  0  0  0  0  0
   28.0129  -18.3851  -16.6830 C   0  0  0  0  0  0  0  0  0  0  0  0
   28.8405  -17.8458  -15.8936 O   0  0  0  0  0  0  0  0  0  0  0  0
   26.7917  -18.8385  -16.1354 N   0  0  0  0  0  0  0  0  0  0  0  0
   26.5219  -18.6798  -14.7242 C   0  0  0  0  0  0  0  0  0  0  0  0
   25.9113  -19.8574  -14.1147 C   0  0  0  0  0  0  0  0  0  0  0  0
   25.8334  -20.9270  -14.7483 O   0  0  0  0  0  0  0  0  0  0  0  0
   26.9888  -21.2726  -10.7564 C   0  0  0  0  0  0  0  0  0  0  0  0
   25.5181  -21.1040  -10.7234 C   0  0  1  0  0  0  0  0  0  0  0  0
   25.1332  -20.0191   -9.9294 O   0  0  0  0  0  0  0  0  0  0  0  0
   24.8792  -20.9227  -12.0757 C   0  0  2  0  0  0  0  0  0  0  0  0
   25.4001  -19.8056  -12.8012 N   0  0  0  0  0  0  0  0  0  0  0  0
   23.4062  -20.8871  -12.0112 C   0  0  0  0  0  0  0  0  0  0  0  0
   22.6371  -21.9610  -11.6087 O   0  0  0  0  0  0  0  0  0  0  0  0
   22.8075  -19.8372  -12.3346 O   0  0  0  0  0  0  0  0  0  0  0  0
  2  1  1  0
  3  2  2  0
  4  2  1  0
  5  6  1  6
  5  4  1  0
  7  5  1  0
  8  7  2  0
  9  7  1  0
 10  9  1  0
 11 10  1  0
 11 17  1  0
 12 11  2  0
 14 13  1  6
 14 16  1  0
 15 14  1  0
 16 17  1  1
 16 18  1  0
 18 20  2  0
 18 19  1  0
M  END
$$$$
