NGT.pdb
     RDKit          3D

 20 19  0  0  1  0  0  0  0  0999 V2000
   22.8576  -19.9932  -10.5223 N   0  0  0  0  0  0  0  0  0  0  0  0
   23.4663  -21.2315  -10.2130 C   0  0  0  0  0  0  0  0  0  0  0  0
   22.8860  -21.9666   -9.3732 O   0  0  0  0  0  0  0  0  0  0  0  0
   24.7579  -21.6411  -10.8705 C   0  0  0  0  0  0  0  0  0  0  0  0
   25.2497  -20.4983  -11.7682 C   0  0  2  0  0  0  0  0  0  0  0  0
   24.1237  -20.1421  -12.6106 N   0  0  0  0  0  0  0  0  0  0  0  0
   26.3556  -21.0921  -12.6024 C   0  0  0  0  0  0  0  0  0  0  0  0
   27.3988  -21.5621  -12.0641 O   0  0  0  0  0  0  0  0  0  0  0  0
   26.2698  -21.1461  -14.0119 N   0  0  0  0  0  0  0  0  0  0  0  0
   27.4009  -21.5899  -14.7948 C   0  0  0  0  0  0  0  0  0  0  0  0
   27.1743  -21.5154  -16.2349 C   0  0  0  0  0  0  0  0  0  0  0  0
   26.1208  -21.9571  -16.7314 O   0  0  0  0  0  0  0  0  0  0  0  0
   27.9495  -18.0148  -16.4519 C   0  0  0  0  0  0  0  0  0  0  0  0
   27.1886  -18.7224  -17.5067 C   0  0  1  0  0  0  0  0  0  0  0  0
   26.8773  -17.8824  -18.5806 O   0  0  0  0  0  0  0  0  0  0  0  0
   27.8809  -19.9364  -18.0693 C   0  0  2  0  0  0  0  0  0  0  0  0
   28.1412  -20.9436  -17.0878 N   0  0  0  0  0  0  0  0  0  0  0  0
   29.0962  -19.5981  -18.8332 C   0  0  0  0  0  0  0  0  0  0  0  0
   29.0751  -18.9013  -20.0253 O   0  0  0  0  0  0  0  0  0  0  0  0
   30.2117  -19.9536  -18.3921 O   0  0  0  0  0  0  0  0  0  0  0  0
  2  1  1  0
  3  2  2  0
  4  2  1  0
  5  6  1  6
  5  4  1  0
  7  5  1  0
  8  7  2  0
  9  7  1  0
 10  9  1  0
 11 10  1  0
 11 17  1  0
 12 11  2  0
 14 13  1  1
 14 16  1  0
 15 14  1  0
 16 17  1  1
 16 18  1  0
 18 20  2  0
 18 19  1  0
M  END
$$$$
