NGT.pdb
     RDKit          3D

 20 19  0  0  1  0  0  0  0  0999 V2000
   18.7169  -14.0460  -17.0366 N   0  0  0  0  0  0  0  0  0  0  0  0
   17.5731  -13.2294  -17.1934 C   0  0  0  0  0  0  0  0  0  0  0  0
   16.4505  -13.7960  -17.1640 O   0  0  0  0  0  0  0  0  0  0  0  0
   17.7086  -11.7420  -17.3871 C   0  0  0  0  0  0  0  0  0  0  0  0
   18.4195  -11.1389  -16.1686 C   0  0  2  0  0  0  0  0  0  0  0  0
   17.4635  -11.2021  -15.0792 N   0  0  0  0  0  0  0  0  0  0  0  0
   18.6950   -9.7034  -16.5357 C   0  0  0  0  0  0  0  0  0  0  0  0
   19.5378   -9.4088  -17.4312 O   0  0  0  0  0  0  0  0  0  0  0  0
   18.0250   -8.6360  -15.8963 N   0  0  0  0  0  0  0  0  0  0  0  0
   18.3426   -7.2675  -16.2366 C   0  0  0  0  0  0  0  0  0  0  0  0
   18.8680   -6.4977  -15.1130 C   0  0  0  0  0  0  0  0  0  0  0  0
   18.2916   -6.5192  -14.0091 O   0  0  0  0  0  0  0  0  0  0  0  0
   22.9429   -6.2991  -14.9980 C   0  0  0  0  0  0  0  0  0  0  0  0
   22.0179   -6.0866  -13.8615 C   0  0  1  0  0  0  0  0  0  0  0  0
   22.6660   -5.5243  -12.7572 O   0  0  0  0  0  0  0  0  0  0  0  0
   20.8285   -5.2175  -14.1775 C   0  0  2  0  0  0  0  0  0  0  0  0
   20.0344   -5.7179  -15.2567 N   0  0  0  0  0  0  0  0  0  0  0  0
   21.1930   -3.8035  -14.3839 C   0  0  0  0  0  0  0  0  0  0  0  0
   20.8335   -3.0819  -15.5051 O   0  0  0  0  0  0  0  0  0  0  0  0
   21.8623   -3.2128  -13.5073 O   0  0  0  0  0  0  0  0  0  0  0  0
  2  1  1  0
  3  2  2  0
  4  2  1  0
  5  6  1  1
  5  4  1  0
  7  5  1  0
  8  7  2  0
  9  7  1  0
 10  9  1  0
 11 10  1  0
 11 17  1  0
 12 11  2  0
 14 13  1  6
 14 16  1  0
 15 14  1  0
 16 17  1  6
 16 18  1  0
 18 20  2  0
 18 19  1  0
M  END
$$$$
