NGT.pdb
     RDKit          3D

 20 19  0  0  1  0  0  0  0  0999 V2000
   28.4103  -20.4464  -17.7987 N   0  0  0  0  0  0  0  0  0  0  0  0
   27.0204  -20.1858  -17.7876 C   0  0  0  0  0  0  0  0  0  0  0  0
   26.4196  -20.2091  -18.8925 O   0  0  0  0  0  0  0  0  0  0  0  0
   26.3012  -19.8936  -16.4971 C   0  0  0  0  0  0  0  0  0  0  0  0
   27.1229  -20.4489  -15.3265 C   0  0  2  0  0  0  0  0  0  0  0  0
   26.9231  -21.8856  -15.3471 N   0  0  0  0  0  0  0  0  0  0  0  0
   26.5048  -19.8558  -14.0865 C   0  0  0  0  0  0  0  0  0  0  0  0
   26.6463  -18.6303  -13.8088 O   0  0  0  0  0  0  0  0  0  0  0  0
   25.7467  -20.6428  -13.1905 N   0  0  0  0  0  0  0  0  0  0  0  0
   25.1805  -20.0506  -11.9996 C   0  0  0  0  0  0  0  0  0  0  0  0
   25.7586  -20.5688  -10.7634 C   0  0  0  0  0  0  0  0  0  0  0  0
   26.5427  -21.5362  -10.7907 O   0  0  0  0  0  0  0  0  0  0  0  0
   27.1957  -19.8294   -6.1745 C   0  0  0  0  0  0  0  0  0  0  0  0
   26.6439  -19.3743   -7.4709 C   0  0  1  0  0  0  0  0  0  0  0  0
   27.6344  -18.8462   -8.3051 O   0  0  0  0  0  0  0  0  0  0  0  0
   25.9185  -20.4401   -8.2504 C   0  0  2  0  0  0  0  0  0  0  0  0
   25.4409  -19.9851   -9.5194 N   0  0  0  0  0  0  0  0  0  0  0  0
   24.8485  -21.0895   -7.4704 C   0  0  0  0  0  0  0  0  0  0  0  0
   25.0824  -21.8259   -6.3259 O   0  0  0  0  0  0  0  0  0  0  0  0
   23.6623  -20.9770   -7.8521 O   0  0  0  0  0  0  0  0  0  0  0  0
  2  1  1  0
  3  2  2  0
  4  2  1  0
  5  6  1  1
  5  4  1  0
  7  5  1  0
  8  7  2  0
  9  7  1  0
 10  9  1  0
 11 10  1  0
 11 17  1  0
 12 11  2  0
 14 13  1  1
 14 16  1  0
 15 14  1  0
 16 17  1  6
 16 18  1  0
 18 20  2  0
 18 19  1  0
M  END
$$$$
