NGT.pdb
     RDKit          3D

 20 19  0  0  1  0  0  0  0  0999 V2000
   25.1597  -21.5163   -9.1659 N   0  0  0  0  0  0  0  0  0  0  0  0
   26.2138  -20.5737   -9.1768 C   0  0  0  0  0  0  0  0  0  0  0  0
   26.8002  -20.3505   -8.0865 O   0  0  0  0  0  0  0  0  0  0  0  0
   26.6079  -19.8725  -10.4500 C   0  0  0  0  0  0  0  0  0  0  0  0
   25.7523  -20.4090  -11.6051 C   0  0  2  0  0  0  0  0  0  0  0  0
   26.5021  -21.5119  -12.1759 N   0  0  0  0  0  0  0  0  0  0  0  0
   25.6598  -19.2760  -12.5946 C   0  0  0  0  0  0  0  0  0  0  0  0
   24.7086  -18.4442  -12.5473 O   0  0  0  0  0  0  0  0  0  0  0  0
   26.6281  -19.1005  -13.6088 N   0  0  0  0  0  0  0  0  0  0  0  0
   26.4914  -18.0293  -14.5697 C   0  0  0  0  0  0  0  0  0  0  0  0
   25.5499  -18.3308  -15.6438 C   0  0  0  0  0  0  0  0  0  0  0  0
   25.9137  -18.2810  -16.8341 O   0  0  0  0  0  0  0  0  0  0  0  0
   24.4637  -21.3001  -16.7533 C   0  0  0  0  0  0  0  0  0  0  0  0
   23.1828  -20.6418  -16.4094 C   0  0  1  0  0  0  0  0  0  0  0  0
   22.6596  -21.1135  -15.2013 O   0  0  0  0  0  0  0  0  0  0  0  0
   23.2576  -19.1402  -16.3132 C   0  0  2  0  0  0  0  0  0  0  0  0
   24.2151  -18.6828  -15.3543 N   0  0  0  0  0  0  0  0  0  0  0  0
   21.9387  -18.5150  -16.1018 C   0  0  0  0  0  0  0  0  0  0  0  0
   20.8822  -18.6542  -16.9802 O   0  0  0  0  0  0  0  0  0  0  0  0
   21.7511  -17.8196  -15.0788 O   0  0  0  0  0  0  0  0  0  0  0  0
  2  1  1  0
  3  2  2  0
  4  2  1  0
  5  6  1  6
  5  4  1  0
  7  5  1  0
  8  7  2  0
  9  7  1  0
 10  9  1  0
 11 10  1  0
 11 17  1  0
 12 11  2  0
 14 13  1  1
 14 16  1  0
 15 14  1  0
 16 17  1  1
 16 18  1  0
 18 20  2  0
 18 19  1  0
M  END
$$$$
