MAN.pdb
     RDKit          3D

 22 21  0  0  1  0  0  0  0  0999 V2000
   28.4370  -21.4515  -15.1090 C   0  0  0  0  0  0  0  0  0  0  0  0
   27.8201  -19.9801  -14.2542 S   0  0  0  0  0  0  0  0  0  0  0  0
   27.6948  -18.5479  -15.3307 C   0  0  0  0  0  0  0  0  0  0  0  0
   27.1940  -17.3577  -14.5512 C   0  0  0  0  0  0  0  0  0  0  0  0
   25.7621  -16.9957  -14.9248 C   0  0  2  0  0  0  0  0  0  0  0  0
   24.9720  -18.1264  -15.3180 N   0  0  0  0  0  0  0  0  0  0  0  0
   25.8908  -16.0175  -16.0537 C   0  0  0  0  0  0  0  0  0  0  0  0
   26.4557  -14.9156  -15.8826 O   0  0  0  0  0  0  0  0  0  0  0  0
   25.3383  -16.0070  -19.7913 C   0  0  0  0  0  0  0  0  0  0  0  0
   25.3631  -15.3311  -18.4102 C   0  0  2  0  0  0  0  0  0  0  0  0
   25.3778  -16.3069  -17.3561 N   0  0  0  0  0  0  0  0  0  0  0  0
   24.1595  -14.4736  -18.3847 C   0  0  0  0  0  0  0  0  0  0  0  0
   23.1102  -14.8989  -17.7849 O   0  0  0  0  0  0  0  0  0  0  0  0
   20.4247  -11.3015  -16.9575 N   0  0  0  0  0  0  0  0  0  0  0  0
   21.7213  -10.8764  -17.3227 C   0  0  0  0  0  0  0  0  0  0  0  0
   21.9544   -9.6519  -17.4928 O   0  0  0  0  0  0  0  0  0  0  0  0
   22.8120  -11.8426  -17.5121 C   0  0  0  0  0  0  0  0  0  0  0  0
   22.8705  -12.3601  -18.9647 C   0  0  2  0  0  0  0  0  0  0  0  0
   24.0580  -13.2114  -18.9652 N   0  0  0  0  0  0  0  0  0  0  0  0
   23.0857  -11.1492  -19.7992 C   0  0  0  0  0  0  0  0  0  0  0  0
   21.9377  -10.4931  -20.2597 O   0  0  0  0  0  0  0  0  0  0  0  0
   24.2244  -10.7138  -20.0922 O   0  0  0  0  0  0  0  0  0  0  0  0
  1  2  1  0
  3  2  1  0
  4  3  1  0
  5  4  1  0
  5  6  1  6
  7  5  1  0
  7 11  1  0
  8  7  2  0
 10  9  1  6
 10 11  1  0
 10 12  1  0
 12 13  2  0
 12 19  1  0
 15 14  1  0
 16 15  2  0
 17 15  1  0
 18 20  1  0
 18 17  1  1
 19 18  1  0
 20 21  1  0
 22 20  2  0
M  END
$$$$
