MAN.pdb
     RDKit          3D

 22 21  0  0  1  0  0  0  0  0999 V2000
   22.6008  -15.1305  -19.9337 C   0  0  0  0  0  0  0  0  0  0  0  0
   20.8120  -15.0558  -20.1998 S   0  0  0  0  0  0  0  0  0  0  0  0
   19.9041  -14.5970  -18.7195 C   0  0  0  0  0  0  0  0  0  0  0  0
   19.7541  -13.0978  -18.6491 C   0  0  0  0  0  0  0  0  0  0  0  0
   20.0776  -12.5591  -17.2612 C   0  0  2  0  0  0  0  0  0  0  0  0
   19.3689  -13.2295  -16.2098 N   0  0  0  0  0  0  0  0  0  0  0  0
   19.7065  -11.1073  -17.3121 C   0  0  0  0  0  0  0  0  0  0  0  0
   20.2923  -10.3255  -18.0920 O   0  0  0  0  0  0  0  0  0  0  0  0
   16.8670   -8.9715  -16.0405 C   0  0  0  0  0  0  0  0  0  0  0  0
   18.3192   -9.1780  -16.5025 C   0  0  2  0  0  0  0  0  0  0  0  0
   18.6776  -10.5688  -16.4788 N   0  0  0  0  0  0  0  0  0  0  0  0
   19.1321   -8.3577  -15.5801 C   0  0  0  0  0  0  0  0  0  0  0  0
   19.9008   -8.9482  -14.7421 O   0  0  0  0  0  0  0  0  0  0  0  0
   22.0105   -4.6589  -13.4856 N   0  0  0  0  0  0  0  0  0  0  0  0
   22.3749   -5.4581  -14.5918 C   0  0  0  0  0  0  0  0  0  0  0  0
   23.5674   -5.4673  -14.9922 O   0  0  0  0  0  0  0  0  0  0  0  0
   21.3815   -6.2838  -15.2921 C   0  0  0  0  0  0  0  0  0  0  0  0
   19.9776   -6.1401  -14.6679 C   0  0  2  0  0  0  0  0  0  0  0  0
   19.1426   -6.9654  -15.5377 N   0  0  0  0  0  0  0  0  0  0  0  0
   19.6344   -4.7013  -14.8128 C   0  0  0  0  0  0  0  0  0  0  0  0
   19.7047   -3.9202  -13.6529 O   0  0  0  0  0  0  0  0  0  0  0  0
   19.2959   -4.1852  -15.9042 O   0  0  0  0  0  0  0  0  0  0  0  0
  1  2  1  0
  3  2  1  0
  4  3  1  0
  5  4  1  0
  5  6  1  1
  7  5  1  0
  7 11  1  0
  8  7  2  0
 10  9  1  1
 10 11  1  0
 10 12  1  0
 12 13  2  0
 12 19  1  0
 15 14  1  0
 16 15  2  0
 17 15  1  0
 18 20  1  0
 18 17  1  6
 19 18  1  0
 20 21  1  0
 22 20  2  0
M  END
$$$$
