MAN.pdb
     RDKit          3D

 22 21  0  0  1  0  0  0  0  0999 V2000
   28.9774  -20.5254   -4.7332 C   0  0  0  0  0  0  0  0  0  0  0  0
   27.8845  -19.2568   -5.4205 S   0  0  0  0  0  0  0  0  0  0  0  0
   26.6231  -19.9342   -6.5048 C   0  0  0  0  0  0  0  0  0  0  0  0
   26.9947  -19.6892   -7.9460 C   0  0  0  0  0  0  0  0  0  0  0  0
   25.9531  -20.2524   -8.9047 C   0  0  2  0  0  0  0  0  0  0  0  0
   25.7868  -21.6729   -8.7958 N   0  0  0  0  0  0  0  0  0  0  0  0
   26.4405  -19.8765  -10.2719 C   0  0  0  0  0  0  0  0  0  0  0  0
   26.4354  -18.6839  -10.6461 O   0  0  0  0  0  0  0  0  0  0  0  0
   28.3450  -21.4615  -13.0984 C   0  0  0  0  0  0  0  0  0  0  0  0
   27.2322  -20.5482  -12.5577 C   0  0  2  0  0  0  0  0  0  0  0  0
   26.9258  -20.8595  -11.1893 N   0  0  0  0  0  0  0  0  0  0  0  0
   26.0876  -20.7635  -13.4677 C   0  0  0  0  0  0  0  0  0  0  0  0
   26.2329  -20.5076  -14.7148 O   0  0  0  0  0  0  0  0  0  0  0  0
   21.3656  -22.1617  -15.2975 N   0  0  0  0  0  0  0  0  0  0  0  0
   21.9466  -23.1040  -14.4201 C   0  0  0  0  0  0  0  0  0  0  0  0
   21.3928  -24.2195  -14.2428 O   0  0  0  0  0  0  0  0  0  0  0  0
   23.1933  -22.8050  -13.7022 C   0  0  0  0  0  0  0  0  0  0  0  0
   23.6632  -21.3567  -13.9527 C   0  0  2  0  0  0  0  0  0  0  0  0
   24.8331  -21.2337  -13.0861 N   0  0  0  0  0  0  0  0  0  0  0  0
   22.5509  -20.4988  -13.4671 C   0  0  0  0  0  0  0  0  0  0  0  0
   21.4734  -20.3147  -14.3419 O   0  0  0  0  0  0  0  0  0  0  0  0
   22.5496  -19.9547  -12.3375 O   0  0  0  0  0  0  0  0  0  0  0  0
  1  2  1  0
  3  2  1  0
  4  3  1  0
  5  4  1  0
  5  6  1  6
  7  5  1  0
  7 11  1  0
  8  7  2  0
 10  9  1  6
 10 11  1  0
 10 12  1  0
 12 13  2  0
 12 19  1  0
 15 14  1  0
 16 15  2  0
 17 15  1  0
 18 20  1  0
 18 17  1  1
 19 18  1  0
 20 21  1  0
 22 20  2  0
M  END
$$$$
