MAN.pdb
     RDKit          3D

 22 21  0  0  1  0  0  0  0  0999 V2000
   28.8636  -13.8335  -15.7923 C   0  0  0  0  0  0  0  0  0  0  0  0
   27.6456  -12.5265  -16.0821 S   0  0  0  0  0  0  0  0  0  0  0  0
   25.9648  -13.1498  -16.1924 C   0  0  0  0  0  0  0  0  0  0  0  0
   24.9900  -12.0003  -16.2504 C   0  0  0  0  0  0  0  0  0  0  0  0
   23.5552  -12.4806  -16.4284 C   0  0  2  0  0  0  0  0  0  0  0  0
   23.3375  -13.1829  -17.6598 N   0  0  0  0  0  0  0  0  0  0  0  0
   22.7195  -11.2372  -16.3695 C   0  0  0  0  0  0  0  0  0  0  0  0
   22.7940  -10.3744  -17.2709 O   0  0  0  0  0  0  0  0  0  0  0  0
   20.0095   -9.8887  -14.0487 C   0  0  0  0  0  0  0  0  0  0  0  0
   21.0101   -9.8072  -15.2137 C   0  0  2  0  0  0  0  0  0  0  0  0
   21.8138  -10.9953  -15.2903 N   0  0  0  0  0  0  0  0  0  0  0  0
   21.8051   -8.5899  -14.9478 C   0  0  0  0  0  0  0  0  0  0  0  0
   22.9893   -8.7162  -14.4750 O   0  0  0  0  0  0  0  0  0  0  0  0
   23.2942   -3.4442  -17.4535 N   0  0  0  0  0  0  0  0  0  0  0  0
   23.0962   -4.2142  -16.2860 C   0  0  0  0  0  0  0  0  0  0  0  0
   23.5721   -3.8229  -15.1892 O   0  0  0  0  0  0  0  0  0  0  0  0
   22.3417   -5.4744  -16.3264 C   0  0  0  0  0  0  0  0  0  0  0  0
   22.1507   -6.0711  -14.9162 C   0  0  2  0  0  0  0  0  0  0  0  0
   21.3765   -7.2836  -15.1719 N   0  0  0  0  0  0  0  0  0  0  0  0
   21.3383   -5.0690  -14.1781 C   0  0  0  0  0  0  0  0  0  0  0  0
   22.0304   -4.2227  -13.3033 O   0  0  0  0  0  0  0  0  0  0  0  0
   20.0961   -4.9633  -14.3112 O   0  0  0  0  0  0  0  0  0  0  0  0
  1  2  1  0
  3  2  1  0
  4  3  1  0
  5  4  1  0
  5  6  1  6
  7  5  1  0
  7 11  1  0
  8  7  2  0
 10  9  1  1
 10 11  1  0
 10 12  1  0
 12 13  2  0
 12 19  1  0
 15 14  1  0
 16 15  2  0
 17 15  1  0
 18 20  1  0
 18 17  1  6
 19 18  1  0
 20 21  1  0
 22 20  2  0
M  END
$$$$
