WME.pdb
     RDKit          3D

 32 33  0  0  1  0  0  0  0  0999 V2000
   25.0543  -19.2144   -8.8892 N   0  0  0  0  0  0  0  0  0  0  0  0
   26.1971  -20.0262   -9.3410 C   0  0  1  0  0  0  0  0  0  0  0  0
   26.6498  -20.8077   -8.1336 C   0  0  0  0  0  0  0  0  0  0  0  0
   27.1848  -19.8889   -7.1044 C   0  0  0  0  0  0  0  0  0  0  0  0
   26.9762  -18.5208   -7.0409 C   0  0  0  0  0  0  0  0  0  0  0  0
   27.6180  -18.0242   -5.9818 N   0  0  0  0  0  0  0  0  0  0  0  0
   28.2498  -19.0459   -5.3420 C   0  0  0  0  0  0  0  0  0  0  0  0
   29.0420  -19.0716   -4.1977 C   0  0  0  0  0  0  0  0  0  0  0  0
   29.5739  -20.2589   -3.7392 C   0  0  0  0  0  0  0  0  0  0  0  0
   29.2924  -21.4193   -4.4547 C   0  0  0  0  0  0  0  0  0  0  0  0
   28.5161  -21.4075   -5.5794 C   0  0  0  0  0  0  0  0  0  0  0  0
   27.9868  -20.2062   -6.0303 C   0  0  0  0  0  0  0  0  0  0  0  0
   25.7626  -20.9336  -10.4417 C   0  0  0  0  0  0  0  0  0  0  0  0
   24.7392  -21.6824  -10.2849 O   0  0  0  0  0  0  0  0  0  0  0  0
   27.0751  -18.1871  -17.7125 C   0  0  0  0  0  0  0  0  0  0  0  0
   27.7236  -18.8901  -16.1720 S   0  0  0  0  0  0  0  0  0  0  0  0
   26.3367  -19.5628  -15.1837 C   0  0  0  0  0  0  0  0  0  0  0  0
   26.8155  -19.9442  -13.8291 C   0  0  0  0  0  0  0  0  0  0  0  0
   25.7830  -20.5377  -12.9232 C   0  0  2  0  0  0  0  0  0  0  0  0
   26.4231  -21.0289  -11.6890 N   0  0  0  0  0  0  0  0  0  0  0  0
   25.0187  -21.6191  -13.5734 C   0  0  0  0  0  0  0  0  0  0  0  0
   25.4261  -22.7832  -13.7846 O   0  0  0  0  0  0  0  0  0  0  0  0
   23.6686  -21.3911  -14.0361 N   0  0  0  0  0  0  0  0  0  0  0  0
   22.8424  -22.4142  -14.5658 C   0  0  1  0  0  0  0  0  0  0  0  0
   21.4091  -22.3511  -14.0956 C   0  0  0  0  0  0  0  0  0  0  0  0
   21.0819  -23.4240  -13.0891 C   0  0  0  0  0  0  0  0  0  0  0  0
   19.6432  -23.3307  -12.6873 C   0  0  0  0  0  0  0  0  0  0  0  0
   18.8648  -22.4575  -13.1248 O   0  0  0  0  0  0  0  0  0  0  0  0
   22.8154  -22.5111  -16.0364 C   0  0  0  0  0  0  0  0  0  0  0  0
   22.9205  -21.3309  -16.7529 O   0  0  0  0  0  0  0  0  0  0  0  0
   19.1420  -24.2721  -11.7714 O   0  0  0  0  0  0  0  0  0  0  0  0
   22.7059  -23.5698  -16.6887 O   0  0  0  0  0  0  0  0  0  0  0  0
  2  1  1  1
  2  3  1  0
  4  5  2  0
  4  3  1  0
  6  5  1  0
  7 12  2  0
  7  6  1  0
  8  7  1  0
  9 10  1  0
  9  8  2  0
 10 11  2  0
 11 12  1  0
 12  4  1  0
 13  2  1  0
 13 14  2  0
 16 15  1  0
 17 16  1  0
 18 17  1  0
 19 18  1  6
 20 19  1  0
 20 13  1  0
 21 19  1  0
 22 21  2  0
 23 21  1  0
 24 23  1  0
 24 25  1  6
 25 26  1  0
 26 27  1  0
 27 31  1  0
 27 28  2  0
 29 30  1  0
 29 24  1  0
 32 29  2  0
M  END
$$$$
