WME.pdb
     RDKit          3D

 32 33  0  0  1  0  0  0  0  0999 V2000
   27.5974  -22.4433  -13.0264 N   0  0  0  0  0  0  0  0  0  0  0  0
   26.5164  -21.6864  -12.3724 C   0  0  1  0  0  0  0  0  0  0  0  0
   27.1120  -20.3502  -12.0073 C   0  0  0  0  0  0  0  0  0  0  0  0
   28.0439  -20.5030  -10.8680 C   0  0  0  0  0  0  0  0  0  0  0  0
   29.4100  -20.7178  -10.9515 C   0  0  0  0  0  0  0  0  0  0  0  0
   29.9189  -20.8116   -9.7216 N   0  0  0  0  0  0  0  0  0  0  0  0
   28.9073  -20.6618   -8.8235 C   0  0  0  0  0  0  0  0  0  0  0  0
   28.8973  -20.6714   -7.4316 C   0  0  0  0  0  0  0  0  0  0  0  0
   27.7193  -20.4892   -6.7372 C   0  0  0  0  0  0  0  0  0  0  0  0
   26.5524  -20.2967   -7.4712 C   0  0  0  0  0  0  0  0  0  0  0  0
   26.5488  -20.2851   -8.8379 C   0  0  0  0  0  0  0  0  0  0  0  0
   27.7409  -20.4697   -9.5246 C   0  0  0  0  0  0  0  0  0  0  0  0
   25.3728  -21.5299  -13.3164 C   0  0  0  0  0  0  0  0  0  0  0  0
   25.4174  -20.6381  -14.2305 O   0  0  0  0  0  0  0  0  0  0  0  0
   23.2678  -25.5761  -17.0692 C   0  0  0  0  0  0  0  0  0  0  0  0
   24.6533  -24.4389  -17.3431 S   0  0  0  0  0  0  0  0  0  0  0  0
   24.5685  -23.0774  -16.1218 C   0  0  0  0  0  0  0  0  0  0  0  0
   23.2888  -23.1484  -15.3689 C   0  0  0  0  0  0  0  0  0  0  0  0
   23.1306  -22.1462  -14.2692 C   0  0  2  0  0  0  0  0  0  0  0  0
   24.2026  -22.3235  -13.2725 N   0  0  0  0  0  0  0  0  0  0  0  0
   21.8070  -22.2247  -13.6225 C   0  0  0  0  0  0  0  0  0  0  0  0
   21.4180  -23.1299  -12.8510 O   0  0  0  0  0  0  0  0  0  0  0  0
   20.8139  -21.1997  -13.8509 N   0  0  0  0  0  0  0  0  0  0  0  0
   19.5497  -21.1818  -13.2096 C   0  0  1  0  0  0  0  0  0  0  0  0
   18.9888  -19.7964  -12.9966 C   0  0  0  0  0  0  0  0  0  0  0  0
   19.3412  -18.8505  -14.1158 C   0  0  0  0  0  0  0  0  0  0  0  0
   18.6681  -17.5305  -13.9045 C   0  0  0  0  0  0  0  0  0  0  0  0
   18.7997  -16.5620  -14.6821 O   0  0  0  0  0  0  0  0  0  0  0  0
   18.4969  -21.9839  -13.8584 C   0  0  0  0  0  0  0  0  0  0  0  0
   17.4015  -22.3364  -13.0885 O   0  0  0  0  0  0  0  0  0  0  0  0
   17.8470  -17.3715  -12.7746 O   0  0  0  0  0  0  0  0  0  0  0  0
   18.5119  -22.3713  -15.0451 O   0  0  0  0  0  0  0  0  0  0  0  0
  2  1  1  6
  2  3  1  0
  4  5  2  0
  4  3  1  0
  6  5  1  0
  7 12  2  0
  7  6  1  0
  8  7  1  0
  9 10  1  0
  9  8  2  0
 10 11  2  0
 11 12  1  0
 12  4  1  0
 13  2  1  0
 13 14  2  0
 16 15  1  0
 17 16  1  0
 18 17  1  0
 19 18  1  6
 20 19  1  0
 20 13  1  0
 21 19  1  0
 22 21  2  0
 23 21  1  0
 24 23  1  0
 24 25  1  6
 25 26  1  0
 26 27  1  0
 27 31  1  0
 27 28  2  0
 29 30  1  0
 29 24  1  0
 32 29  2  0
M  END
$$$$
