WME.pdb
     RDKit          3D

 32 33  0  0  1  0  0  0  0  0999 V2000
   26.5819  -18.2398   -9.4677 N   0  0  0  0  0  0  0  0  0  0  0  0
   26.9070  -19.6642   -9.6532 C   0  0  1  0  0  0  0  0  0  0  0  0
   26.5606  -20.3387   -8.3500 C   0  0  0  0  0  0  0  0  0  0  0  0
   27.3302  -19.7302   -7.2422 C   0  0  0  0  0  0  0  0  0  0  0  0
   27.4808  -18.3747   -6.9983 C   0  0  0  0  0  0  0  0  0  0  0  0
   28.2458  -18.2019   -5.9188 N   0  0  0  0  0  0  0  0  0  0  0  0
   28.6045  -19.4258   -5.4437 C   0  0  0  0  0  0  0  0  0  0  0  0
   29.3821  -19.8027   -4.3525 C   0  0  0  0  0  0  0  0  0  0  0  0
   29.5989  -21.1360   -4.0727 C   0  0  0  0  0  0  0  0  0  0  0  0
   29.0174  -22.0818   -4.9123 C   0  0  0  0  0  0  0  0  0  0  0  0
   28.2519  -21.7248   -5.9867 C   0  0  0  0  0  0  0  0  0  0  0  0
   28.0414  -20.3797   -6.2573 C   0  0  0  0  0  0  0  0  0  0  0  0
   26.1032  -20.2185  -10.7803 C   0  0  0  0  0  0  0  0  0  0  0  0
   24.8577  -19.9476  -10.8695 O   0  0  0  0  0  0  0  0  0  0  0  0
   28.6693  -20.9484  -16.8561 C   0  0  0  0  0  0  0  0  0  0  0  0
   27.5508  -22.3637  -16.6727 S   0  0  0  0  0  0  0  0  0  0  0  0
   26.2460  -21.9494  -15.4567 C   0  0  0  0  0  0  0  0  0  0  0  0
   26.8615  -21.5948  -14.1511 C   0  0  0  0  0  0  0  0  0  0  0  0
   25.9000  -21.2818  -13.0481 C   0  0  2  0  0  0  0  0  0  0  0  0
   26.6372  -21.0503  -11.7923 N   0  0  0  0  0  0  0  0  0  0  0  0
   24.8895  -22.3410  -12.8652 C   0  0  0  0  0  0  0  0  0  0  0  0
   25.1004  -23.4882  -12.4123 O   0  0  0  0  0  0  0  0  0  0  0  0
   23.5072  -22.1087  -13.2178 N   0  0  0  0  0  0  0  0  0  0  0  0
   22.5002  -23.1020  -13.1219 C   0  0  1  0  0  0  0  0  0  0  0  0
   21.0941  -22.5525  -13.1188 C   0  0  0  0  0  0  0  0  0  0  0  0
   20.8222  -21.6503  -14.2951 C   0  0  0  0  0  0  0  0  0  0  0  0
   20.0404  -20.4525  -13.8545 C   0  0  0  0  0  0  0  0  0  0  0  0
   19.4636  -20.3793  -12.7492 O   0  0  0  0  0  0  0  0  0  0  0  0
   22.5530  -24.1608  -14.1460 C   0  0  0  0  0  0  0  0  0  0  0  0
   21.7719  -25.2851  -13.9382 O   0  0  0  0  0  0  0  0  0  0  0  0
   19.9496  -19.3546  -14.7278 O   0  0  0  0  0  0  0  0  0  0  0  0
   23.2438  -24.1269  -15.1853 O   0  0  0  0  0  0  0  0  0  0  0  0
  2  1  1  1
  2  3  1  0
  4  5  2  0
  4  3  1  0
  6  5  1  0
  7 12  2  0
  7  6  1  0
  8  7  1  0
  9 10  1  0
  9  8  2  0
 10 11  2  0
 11 12  1  0
 12  4  1  0
 13  2  1  0
 13 14  2  0
 16 15  1  0
 17 16  1  0
 18 17  1  0
 19 18  1  6
 20 19  1  0
 20 13  1  0
 21 19  1  0
 22 21  2  0
 23 21  1  0
 24 23  1  0
 24 25  1  6
 25 26  1  0
 26 27  1  0
 27 31  1  0
 27 28  2  0
 29 30  1  0
 29 24  1  0
 32 29  2  0
M  END
$$$$
