WME.pdb
     RDKit          3D

 32 33  0  0  1  0  0  0  0  0999 V2000
   28.3982  -21.0431  -15.7665 N   0  0  0  0  0  0  0  0  0  0  0  0
   27.6226  -20.0881  -14.9568 C   0  0  1  0  0  0  0  0  0  0  0  0
   26.5751  -19.5204  -15.8809 C   0  0  0  0  0  0  0  0  0  0  0  0
   27.1416  -18.4004  -16.6647 C   0  0  0  0  0  0  0  0  0  0  0  0
   27.6053  -18.4663  -17.9686 C   0  0  0  0  0  0  0  0  0  0  0  0
   28.0486  -17.2644  -18.3417 N   0  0  0  0  0  0  0  0  0  0  0  0
   27.8849  -16.4021  -17.3015 C   0  0  0  0  0  0  0  0  0  0  0  0
   28.1761  -15.0475  -17.1685 C   0  0  0  0  0  0  0  0  0  0  0  0
   27.9062  -14.3844  -15.9894 C   0  0  0  0  0  0  0  0  0  0  0  0
   27.3371  -15.1112  -14.9476 C   0  0  0  0  0  0  0  0  0  0  0  0
   27.0463  -16.4414  -15.0655 C   0  0  0  0  0  0  0  0  0  0  0  0
   27.3229  -17.0970  -16.2573 C   0  0  0  0  0  0  0  0  0  0  0  0
   26.9995  -20.7995  -13.8039 C   0  0  0  0  0  0  0  0  0  0  0  0
   26.5337  -21.9793  -13.9583 O   0  0  0  0  0  0  0  0  0  0  0  0
   27.8170  -21.1920   -7.1490 C   0  0  0  0  0  0  0  0  0  0  0  0
   26.2088  -20.3987   -7.4175 S   0  0  0  0  0  0  0  0  0  0  0  0
   25.5306  -20.9377   -9.0306 C   0  0  0  0  0  0  0  0  0  0  0  0
   26.3617  -20.3971  -10.1380 C   0  0  0  0  0  0  0  0  0  0  0  0
   25.9653  -20.8319  -11.5138 C   0  0  2  0  0  0  0  0  0  0  0  0
   26.8827  -20.2448  -12.5078 N   0  0  0  0  0  0  0  0  0  0  0  0
   24.5677  -20.4838  -11.8331 C   0  0  0  0  0  0  0  0  0  0  0  0
   24.1397  -19.3417  -12.1124 O   0  0  0  0  0  0  0  0  0  0  0  0
   23.5402  -21.5002  -11.8454 N   0  0  0  0  0  0  0  0  0  0  0  0
   22.1878  -21.2381  -12.1800 C   0  0  1  0  0  0  0  0  0  0  0  0
   21.5519  -22.3008  -13.0436 C   0  0  0  0  0  0  0  0  0  0  0  0
   20.1070  -22.0062  -13.3548 C   0  0  0  0  0  0  0  0  0  0  0  0
   19.5463  -23.0688  -14.2473 C   0  0  0  0  0  0  0  0  0  0  0  0
   20.0090  -24.2273  -14.3079 O   0  0  0  0  0  0  0  0  0  0  0  0
   21.2847  -21.0051  -11.0386 C   0  0  0  0  0  0  0  0  0  0  0  0
   20.0347  -20.4777  -11.3148 O   0  0  0  0  0  0  0  0  0  0  0  0
   18.4441  -22.7479  -15.0588 O   0  0  0  0  0  0  0  0  0  0  0  0
   21.5544  -21.2446   -9.8435 O   0  0  0  0  0  0  0  0  0  0  0  0
  2  1  1  6
  2  3  1  0
  4  5  2  0
  4  3  1  0
  6  5  1  0
  7 12  2  0
  7  6  1  0
  8  7  1  0
  9 10  1  0
  9  8  2  0
 10 11  2  0
 11 12  1  0
 12  4  1  0
 13  2  1  0
 13 14  2  0
 16 15  1  0
 17 16  1  0
 18 17  1  0
 19 18  1  1
 20 19  1  0
 20 13  1  0
 21 19  1  0
 22 21  2  0
 23 21  1  0
 24 23  1  0
 24 25  1  1
 25 26  1  0
 26 27  1  0
 27 31  1  0
 27 28  2  0
 29 30  1  0
 29 24  1  0
 32 29  2  0
M  END
$$$$
