WME.pdb
     RDKit          3D

 32 33  0  0  1  0  0  0  0  0999 V2000
   27.0966  -21.7491  -13.9357 N   0  0  0  0  0  0  0  0  0  0  0  0
   26.3932  -20.6909  -13.1909 C   0  0  1  0  0  0  0  0  0  0  0  0
   25.0656  -20.5133  -13.8832 C   0  0  0  0  0  0  0  0  0  0  0  0
   25.1850  -19.5073  -14.9618 C   0  0  0  0  0  0  0  0  0  0  0  0
   26.3543  -19.1268  -15.6000 C   0  0  0  0  0  0  0  0  0  0  0  0
   26.0768  -18.1927  -16.5116 N   0  0  0  0  0  0  0  0  0  0  0  0
   24.7381  -17.9490  -16.4859 C   0  0  0  0  0  0  0  0  0  0  0  0
   23.9417  -17.0807  -17.2272 C   0  0  0  0  0  0  0  0  0  0  0  0
   22.5805  -17.0207  -17.0118 C   0  0  0  0  0  0  0  0  0  0  0  0
   22.0370  -17.8518  -16.0364 C   0  0  0  0  0  0  0  0  0  0  0  0
   22.8079  -18.7087  -15.3020 C   0  0  0  0  0  0  0  0  0  0  0  0
   24.1764  -18.7594  -15.5285 C   0  0  0  0  0  0  0  0  0  0  0  0
   26.2120  -21.1129  -11.7722 C   0  0  0  0  0  0  0  0  0  0  0  0
   25.5508  -22.1721  -11.5010 O   0  0  0  0  0  0  0  0  0  0  0  0
   27.8880  -20.0482   -4.0799 C   0  0  0  0  0  0  0  0  0  0  0  0
   28.2121  -19.6102   -5.8094 S   0  0  0  0  0  0  0  0  0  0  0  0
   26.9533  -20.3999   -6.8791 C   0  0  0  0  0  0  0  0  0  0  0  0
   27.2606  -20.1327   -8.3087 C   0  0  0  0  0  0  0  0  0  0  0  0
   26.2883  -20.6998   -9.2946 C   0  0  2  0  0  0  0  0  0  0  0  0
   26.7368  -20.4021  -10.6674 N   0  0  0  0  0  0  0  0  0  0  0  0
   24.9159  -20.2024   -9.0812 C   0  0  0  0  0  0  0  0  0  0  0  0
   24.5641  -19.0018   -9.0582 O   0  0  0  0  0  0  0  0  0  0  0  0
   23.8227  -21.1246   -8.8729 N   0  0  0  0  0  0  0  0  0  0  0  0
   22.4882  -20.7108   -8.6326 C   0  0  1  0  0  0  0  0  0  0  0  0
   21.6966  -20.4312   -9.8874 C   0  0  0  0  0  0  0  0  0  0  0  0
   21.4747  -21.6678  -10.7198 C   0  0  0  0  0  0  0  0  0  0  0  0
   20.7017  -21.3245  -11.9546 C   0  0  0  0  0  0  0  0  0  0  0  0
   20.2143  -20.1941  -12.1659 O   0  0  0  0  0  0  0  0  0  0  0  0
   21.6808  -21.6215   -7.8010 C   0  0  0  0  0  0  0  0  0  0  0  0
   20.4008  -21.2114   -7.4686 O   0  0  0  0  0  0  0  0  0  0  0  0
   20.5136  -22.3236  -12.9256 O   0  0  0  0  0  0  0  0  0  0  0  0
   22.0564  -22.7321   -7.3721 O   0  0  0  0  0  0  0  0  0  0  0  0
  2  1  1  6
  2  3  1  0
  4  5  2  0
  4  3  1  0
  6  5  1  0
  7 12  2  0
  7  6  1  0
  8  7  1  0
  9 10  1  0
  9  8  2  0
 10 11  2  0
 11 12  1  0
 12  4  1  0
 13  2  1  0
 13 14  2  0
 16 15  1  0
 17 16  1  0
 18 17  1  0
 19 18  1  1
 20 19  1  0
 20 13  1  0
 21 19  1  0
 22 21  2  0
 23 21  1  0
 24 23  1  0
 24 25  1  6
 25 26  1  0
 26 27  1  0
 27 31  1  0
 27 28  2  0
 29 30  1  0
 29 24  1  0
 32 29  2  0
M  END
$$$$
