QVY.pdb
     RDKit          3D

 29 29  0  0  1  0  0  0  0  0999 V2000
   25.6431  -18.6078  -20.8216 N   0  0  0  0  0  0  0  0  0  0  0  0
   26.5170  -17.5817  -20.2683 C   0  0  0  0  0  0  0  0  0  0  0  0
   26.9211  -16.7445  -21.0784 O   0  0  0  0  0  0  0  0  0  0  0  0
   26.8128  -17.6559  -18.8538 C   0  0  0  0  0  0  0  0  0  0  0  0
   26.1285  -18.6713  -18.0139 C   0  0  0  0  0  0  0  0  0  0  0  0
   26.9669  -19.4837  -17.1238 C   0  0  2  0  0  0  0  0  0  0  0  0
   28.1507  -20.0042  -17.7859 N   0  0  0  0  0  0  0  0  0  0  0  0
   26.3886  -20.4100  -16.1528 C   0  0  0  0  0  0  0  0  0  0  0  0
   26.3201  -21.6635  -16.4396 O   0  0  0  0  0  0  0  0  0  0  0  0
   27.5972  -21.4606  -13.2408 C   0  0  0  0  0  0  0  0  0  0  0  0
   26.1910  -21.1167  -12.7152 C   0  0  1  0  0  0  0  0  0  0  0  0
   26.4501  -19.7210  -12.0929 C   0  0  0  0  0  0  0  0  0  0  0  0
   25.2821  -20.9156  -13.8779 C   0  0  2  0  0  0  0  0  0  0  0  0
   25.8761  -20.0656  -14.9066 N   0  0  0  0  0  0  0  0  0  0  0  0
   23.9147  -20.4622  -13.5976 C   0  0  0  0  0  0  0  0  0  0  0  0
   23.7670  -19.2053  -13.2971 O   0  0  0  0  0  0  0  0  0  0  0  0
   22.5862  -16.5374  -18.0255 O   0  0  0  0  0  0  0  0  0  0  0  0
   22.0731  -17.4483  -17.1116 C   0  0  0  0  0  0  0  0  0  0  0  0
   22.5629  -18.7392  -17.1263 C   0  0  0  0  0  0  0  0  0  0  0  0
   22.0710  -19.6635  -16.2303 C   0  0  0  0  0  0  0  0  0  0  0  0
   21.0960  -19.3612  -15.3025 C   0  0  0  0  0  0  0  0  0  0  0  0
   20.5527  -20.3453  -14.3473 C   0  0  0  0  0  0  0  0  0  0  0  0
   21.4422  -20.6113  -13.1843 C   0  0  2  0  0  0  0  0  0  0  0  0
   22.7200  -21.1979  -13.6121 N   0  0  0  0  0  0  0  0  0  0  0  0
   20.7613  -21.4925  -12.2160 C   0  0  0  0  0  0  0  0  0  0  0  0
   19.7042  -21.1764  -11.6252 O   0  0  0  0  0  0  0  0  0  0  0  0
   20.6141  -18.0590  -15.3001 C   0  0  0  0  0  0  0  0  0  0  0  0
   21.0923  -17.1233  -16.1852 C   0  0  0  0  0  0  0  0  0  0  0  0
   21.2669  -22.7591  -11.8943 O   0  0  0  0  0  0  0  0  0  0  0  0
  2  1  1  0
  2  3  2  0
  4  2  1  0
  5  4  1  0
  6  5  1  0
  6  7  1  6
  8  9  2  0
  8  6  1  0
 11 10  1  6
 11 13  1  0
 12 11  1  0
 13 14  1  6
 14  8  1  0
 15 13  1  0
 15 24  1  0
 16 15  2  0
 17 18  1  0
 18 28  2  0
 19 18  1  0
 19 20  2  0
 20 21  1  0
 21 27  2  0
 21 22  1  0
 23 22  1  6
 23 24  1  0
 23 25  1  0
 25 29  1  0
 26 25  2  0
 28 27  1  0
M  END
$$$$
