QVY.pdb
     RDKit          3D

 29 29  0  0  1  0  0  0  0  0999 V2000
   28.5418  -21.9807  -15.4831 N   0  0  0  0  0  0  0  0  0  0  0  0
   28.5429  -21.5742  -16.8821 C   0  0  0  0  0  0  0  0  0  0  0  0
   29.2596  -22.2499  -17.6240 O   0  0  0  0  0  0  0  0  0  0  0  0
   27.7195  -20.4404  -17.2431 C   0  0  0  0  0  0  0  0  0  0  0  0
   26.8757  -19.7885  -16.2097 C   0  0  0  0  0  0  0  0  0  0  0  0
   25.5510  -20.3692  -15.9586 C   0  0  2  0  0  0  0  0  0  0  0  0
   25.0793  -21.1917  -17.0594 N   0  0  0  0  0  0  0  0  0  0  0  0
   24.4884  -19.6107  -15.3021 C   0  0  0  0  0  0  0  0  0  0  0  0
   24.8001  -18.6659  -14.4846 O   0  0  0  0  0  0  0  0  0  0  0  0
   21.9408  -17.7830  -16.9593 C   0  0  0  0  0  0  0  0  0  0  0  0
   21.0895  -18.5215  -15.9097 C   0  0  1  0  0  0  0  0  0  0  0  0
   20.5535  -19.7048  -16.7551 C   0  0  0  0  0  0  0  0  0  0  0  0
   21.9964  -19.0965  -14.8775 C   0  0  2  0  0  0  0  0  0  0  0  0
   23.1228  -19.8160  -15.4666 N   0  0  0  0  0  0  0  0  0  0  0  0
   21.3883  -19.9173  -13.8237 C   0  0  0  0  0  0  0  0  0  0  0  0
   21.4650  -21.2073  -13.9719 O   0  0  0  0  0  0  0  0  0  0  0  0
   17.6185  -23.5000   -6.6621 O   0  0  0  0  0  0  0  0  0  0  0  0
   18.2920  -22.6717   -7.5500 C   0  0  0  0  0  0  0  0  0  0  0  0
   17.5667  -21.7186   -8.2372 C   0  0  0  0  0  0  0  0  0  0  0  0
   18.2101  -20.8835   -9.1248 C   0  0  0  0  0  0  0  0  0  0  0  0
   19.5662  -20.9517   -9.3680 C   0  0  0  0  0  0  0  0  0  0  0  0
   20.2635  -20.0721  -10.3250 C   0  0  0  0  0  0  0  0  0  0  0  0
   20.0868  -20.4693  -11.7482 C   0  0  2  0  0  0  0  0  0  0  0  0
   20.7288  -19.5073  -12.6551 N   0  0  0  0  0  0  0  0  0  0  0  0
   18.6513  -20.6050  -12.0624 C   0  0  0  0  0  0  0  0  0  0  0  0
   17.9331  -19.6449  -12.4211 O   0  0  0  0  0  0  0  0  0  0  0  0
   20.2815  -21.9150   -8.6691 C   0  0  0  0  0  0  0  0  0  0  0  0
   19.6580  -22.7562   -7.7797 C   0  0  0  0  0  0  0  0  0  0  0  0
   17.9946  -21.8398  -11.9764 O   0  0  0  0  0  0  0  0  0  0  0  0
  2  1  1  0
  2  3  2  0
  4  2  1  0
  5  4  1  0
  6  5  1  0
  6  7  1  6
  8  9  2  0
  8  6  1  0
 11 10  1  6
 11 13  1  0
 12 11  1  0
 13 14  1  6
 14  8  1  0
 15 13  1  0
 15 24  1  0
 16 15  2  0
 17 18  1  0
 18 28  2  0
 19 18  1  0
 19 20  2  0
 20 21  1  0
 21 27  2  0
 21 22  1  0
 23 22  1  1
 23 24  1  0
 23 25  1  0
 25 29  1  0
 26 25  2  0
 28 27  1  0
M  END
$$$$
