QVY.pdb
     RDKit          3D

 29 29  0  0  1  0  0  0  0  0999 V2000
   17.3009  -13.7829  -19.1964 N   0  0  0  0  0  0  0  0  0  0  0  0
   18.2403  -13.7134  -20.3078 C   0  0  0  0  0  0  0  0  0  0  0  0
   17.8929  -14.3152  -21.3266 O   0  0  0  0  0  0  0  0  0  0  0  0
   19.4587  -12.9612  -20.0992 C   0  0  0  0  0  0  0  0  0  0  0  0
   19.6882  -12.2833  -18.7982 C   0  0  0  0  0  0  0  0  0  0  0  0
   20.9531  -12.5633  -18.1077 C   0  0  2  0  0  0  0  0  0  0  0  0
   21.2991  -13.9744  -18.1175 N   0  0  0  0  0  0  0  0  0  0  0  0
   21.3225  -11.8822  -16.8688 C   0  0  0  0  0  0  0  0  0  0  0  0
   20.6263  -12.0860  -15.8049 O   0  0  0  0  0  0  0  0  0  0  0  0
   24.3483  -12.2468  -15.1517 C   0  0  0  0  0  0  0  0  0  0  0  0
   24.2532  -10.7097  -15.1567 C   0  0  1  0  0  0  0  0  0  0  0  0
   25.1467  -10.3702  -16.3768 C   0  0  0  0  0  0  0  0  0  0  0  0
   22.8606  -10.3181  -15.5114 C   0  0  2  0  0  0  0  0  0  0  0  0
   22.3826  -10.9955  -16.7140 N   0  0  0  0  0  0  0  0  0  0  0  0
   22.5643   -8.8839  -15.6066 C   0  0  0  0  0  0  0  0  0  0  0  0
   22.7374   -8.3285  -16.7701 O   0  0  0  0  0  0  0  0  0  0  0  0
   19.9871   -0.6530  -16.3808 O   0  0  0  0  0  0  0  0  0  0  0  0
   20.1539   -2.0122  -16.1510 C   0  0  0  0  0  0  0  0  0  0  0  0
   21.0704   -2.7002  -16.9212 C   0  0  0  0  0  0  0  0  0  0  0  0
   21.2557   -4.0501  -16.7143 C   0  0  0  0  0  0  0  0  0  0  0  0
   20.5598   -4.7635  -15.7605 C   0  0  0  0  0  0  0  0  0  0  0  0
   20.7402   -6.2107  -15.5388 C   0  0  0  0  0  0  0  0  0  0  0  0
   22.0049   -6.5600  -14.8366 C   0  0  2  0  0  0  0  0  0  0  0  0
   22.1076   -8.0084  -14.6098 N   0  0  0  0  0  0  0  0  0  0  0  0
   22.0968   -5.8239  -13.5609 C   0  0  0  0  0  0  0  0  0  0  0  0
   22.4168   -4.6163  -13.4864 O   0  0  0  0  0  0  0  0  0  0  0  0
   19.6423   -4.0574  -14.9941 C   0  0  0  0  0  0  0  0  0  0  0  0
   19.4439   -2.7114  -15.1852 C   0  0  0  0  0  0  0  0  0  0  0  0
   21.8263   -6.4446  -12.3341 O   0  0  0  0  0  0  0  0  0  0  0  0
  2  1  1  0
  2  3  2  0
  4  2  1  0
  5  4  1  0
  6  5  1  0
  6  7  1  1
  8  9  2  0
  8  6  1  0
 11 10  1  6
 11 13  1  0
 12 11  1  0
 13 14  1  6
 14  8  1  0
 15 13  1  0
 15 24  1  0
 16 15  2  0
 17 18  1  0
 18 28  2  0
 19 18  1  0
 19 20  2  0
 20 21  1  0
 21 27  2  0
 21 22  1  0
 23 22  1  1
 23 24  1  0
 23 25  1  0
 25 29  1  0
 26 25  2  0
 28 27  1  0
M  END
$$$$
