QVY.pdb
     RDKit          3D

 29 29  0  0  1  0  0  0  0  0999 V2000
   22.0675  -24.7347  -17.5953 N   0  0  0  0  0  0  0  0  0  0  0  0
   22.2018  -23.9549  -18.8185 C   0  0  0  0  0  0  0  0  0  0  0  0
   21.2309  -23.9984  -19.5775 O   0  0  0  0  0  0  0  0  0  0  0  0
   23.4387  -23.2283  -19.0085 C   0  0  0  0  0  0  0  0  0  0  0  0
   24.4742  -23.2528  -17.9446 C   0  0  0  0  0  0  0  0  0  0  0  0
   24.3771  -22.2384  -16.8879 C   0  0  2  0  0  0  0  0  0  0  0  0
   23.8455  -20.9745  -17.3684 N   0  0  0  0  0  0  0  0  0  0  0  0
   25.4136  -22.0841  -15.8694 C   0  0  0  0  0  0  0  0  0  0  0  0
   26.0493  -23.1238  -15.4534 O   0  0  0  0  0  0  0  0  0  0  0  0
   27.0509  -18.2542  -14.8043 C   0  0  0  0  0  0  0  0  0  0  0  0
   27.7867  -19.5992  -14.6578 C   0  0  1  0  0  0  0  0  0  0  0  0
   28.6811  -19.3050  -13.4266 C   0  0  0  0  0  0  0  0  0  0  0  0
   26.8035  -20.6395  -14.2459 C   0  0  2  0  0  0  0  0  0  0  0  0
   25.7943  -20.8872  -15.2724 N   0  0  0  0  0  0  0  0  0  0  0  0
   26.1471  -20.4726  -12.9439 C   0  0  0  0  0  0  0  0  0  0  0  0
   25.2450  -19.5391  -12.8609 O   0  0  0  0  0  0  0  0  0  0  0  0
   19.8359  -20.3164  -13.0840 O   0  0  0  0  0  0  0  0  0  0  0  0
   20.9894  -20.6775  -12.4004 C   0  0  0  0  0  0  0  0  0  0  0  0
   21.2572  -20.0614  -11.1941 C   0  0  0  0  0  0  0  0  0  0  0  0
   22.3953  -20.4008  -10.4949 C   0  0  0  0  0  0  0  0  0  0  0  0
   23.2984  -21.3409  -10.9460 C   0  0  0  0  0  0  0  0  0  0  0  0
   24.5262  -21.7029  -10.2128 C   0  0  0  0  0  0  0  0  0  0  0  0
   25.6840  -20.8131  -10.4993 C   0  0  2  0  0  0  0  0  0  0  0  0
   26.3492  -21.1893  -11.7547 N   0  0  0  0  0  0  0  0  0  0  0  0
   26.6378  -20.8434   -9.3736 C   0  0  0  0  0  0  0  0  0  0  0  0
   27.7451  -21.4243   -9.4273 O   0  0  0  0  0  0  0  0  0  0  0  0
   23.0148  -21.9515  -12.1604 C   0  0  0  0  0  0  0  0  0  0  0  0
   21.8852  -21.6269  -12.8717 C   0  0  0  0  0  0  0  0  0  0  0  0
   26.3555  -20.2120   -8.1550 O   0  0  0  0  0  0  0  0  0  0  0  0
  2  1  1  0
  2  3  2  0
  4  2  1  0
  5  4  1  0
  6  5  1  0
  6  7  1  6
  8  9  2  0
  8  6  1  0
 11 10  1  1
 11 13  1  0
 12 11  1  0
 13 14  1  6
 14  8  1  0
 15 13  1  0
 15 24  1  0
 16 15  2  0
 17 18  1  0
 18 28  2  0
 19 18  1  0
 19 20  2  0
 20 21  1  0
 21 27  2  0
 21 22  1  0
 23 22  1  1
 23 24  1  0
 23 25  1  0
 25 29  1  0
 26 25  2  0
 28 27  1  0
M  END
$$$$
