QVY.pdb
     RDKit          3D

 29 29  0  0  1  0  0  0  0  0999 V2000
   19.4728  -23.3020  -15.4339 N   0  0  0  0  0  0  0  0  0  0  0  0
   19.6313  -22.3455  -16.5214 C   0  0  0  0  0  0  0  0  0  0  0  0
   18.5895  -22.0368  -17.1043 O   0  0  0  0  0  0  0  0  0  0  0  0
   20.9705  -21.8714  -16.7965 C   0  0  0  0  0  0  0  0  0  0  0  0
   22.1098  -22.3873  -15.9962 C   0  0  0  0  0  0  0  0  0  0  0  0
   22.6106  -21.5344  -14.9113 C   0  0  2  0  0  0  0  0  0  0  0  0
   22.4265  -20.1182  -15.1783 N   0  0  0  0  0  0  0  0  0  0  0  0
   23.8531  -21.8365  -14.2039 C   0  0  0  0  0  0  0  0  0  0  0  0
   24.1996  -23.0649  -14.0335 O   0  0  0  0  0  0  0  0  0  0  0  0
   27.0087  -18.8964  -13.2216 C   0  0  0  0  0  0  0  0  0  0  0  0
   27.1256  -20.3996  -13.5353 C   0  0  1  0  0  0  0  0  0  0  0  0
   28.3804  -20.7700  -12.7043 C   0  0  0  0  0  0  0  0  0  0  0  0
   25.9686  -21.1077  -12.9201 C   0  0  2  0  0  0  0  0  0  0  0  0
   24.7302  -20.9006  -13.6664 N   0  0  0  0  0  0  0  0  0  0  0  0
   25.7217  -20.8859  -11.4905 C   0  0  0  0  0  0  0  0  0  0  0  0
   24.9019  -19.9241  -11.1825 O   0  0  0  0  0  0  0  0  0  0  0  0
   28.3136  -18.7324   -3.3842 O   0  0  0  0  0  0  0  0  0  0  0  0
   28.0967  -19.4182   -4.5720 C   0  0  0  0  0  0  0  0  0  0  0  0
   28.8025  -19.0285   -5.6930 C   0  0  0  0  0  0  0  0  0  0  0  0
   28.6063  -19.6918   -6.8849 C   0  0  0  0  0  0  0  0  0  0  0  0
   27.7246  -20.7441   -7.0195 C   0  0  0  0  0  0  0  0  0  0  0  0
   27.4968  -21.4532   -8.2928 C   0  0  0  0  0  0  0  0  0  0  0  0
   26.3129  -20.9655   -9.0511 C   0  0  2  0  0  0  0  0  0  0  0  0
   26.2454  -21.5756  -10.3865 N   0  0  0  0  0  0  0  0  0  0  0  0
   26.3454  -19.4936   -9.1506 C   0  0  0  0  0  0  0  0  0  0  0  0
   25.4705  -18.7520   -8.6497 O   0  0  0  0  0  0  0  0  0  0  0  0
   27.0229  -21.1242   -5.8833 C   0  0  0  0  0  0  0  0  0  0  0  0
   27.2051  -20.4755   -4.6860 C   0  0  0  0  0  0  0  0  0  0  0  0
   27.3768  -18.8259   -9.8243 O   0  0  0  0  0  0  0  0  0  0  0  0
  2  1  1  0
  2  3  2  0
  4  2  1  0
  5  4  1  0
  6  5  1  0
  6  7  1  6
  8  9  2  0
  8  6  1  0
 11 10  1  1
 11 13  1  0
 12 11  1  0
 13 14  1  6
 14  8  1  0
 15 13  1  0
 15 24  1  0
 16 15  2  0
 17 18  1  0
 18 28  2  0
 19 18  1  0
 19 20  2  0
 20 21  1  0
 21 27  2  0
 21 22  1  0
 23 22  1  6
 23 24  1  0
 23 25  1  0
 25 29  1  0
 26 25  2  0
 28 27  1  0
M  END
$$$$
