WYH.pdb
     RDKit          3D

 37 40  0  0  1  0  0  0  0  0999 V2000
   25.3742  -19.3109  -20.1011 N   0  0  0  0  0  0  0  0  0  0  0  0
   25.2706  -19.4756  -18.6793 C   0  0  1  0  0  0  0  0  0  0  0  0
   24.4644  -18.4160  -18.0068 C   0  0  0  0  0  0  0  0  0  0  0  0
   24.9150  -17.0717  -18.3881 C   0  0  0  0  0  0  0  0  0  0  0  0
   24.0877  -16.0330  -18.7426 C   0  0  0  0  0  0  0  0  0  0  0  0
   24.8364  -14.9531  -19.0043 N   0  0  0  0  0  0  0  0  0  0  0  0
   26.1340  -15.2800  -18.8242 C   0  0  0  0  0  0  0  0  0  0  0  0
   27.2869  -14.5432  -18.9663 C   0  0  0  0  0  0  0  0  0  0  0  0
   28.5247  -15.0955  -18.7324 C   0  0  0  0  0  0  0  0  0  0  0  0
   28.5937  -16.4082  -18.3505 C   0  0  0  0  0  0  0  0  0  0  0  0
   27.4569  -17.1691  -18.2004 C   0  0  0  0  0  0  0  0  0  0  0  0
   26.2049  -16.6102  -18.4362 C   0  0  0  0  0  0  0  0  0  0  0  0
   24.7954  -20.8475  -18.3466 C   0  0  0  0  0  0  0  0  0  0  0  0
   23.9988  -21.4500  -19.1175 O   0  0  0  0  0  0  0  0  0  0  0  0
   25.0382  -29.1654  -15.8020 O   0  0  0  0  0  0  0  0  0  0  0  0
   25.2442  -27.7757  -15.8504 C   0  0  0  0  0  0  0  0  0  0  0  0
   25.7237  -27.2145  -17.0153 C   0  0  0  0  0  0  0  0  0  0  0  0
   25.9296  -25.8426  -17.0710 C   0  0  0  0  0  0  0  0  0  0  0  0
   25.6644  -25.0336  -15.9867 C   0  0  0  0  0  0  0  0  0  0  0  0
   25.9165  -23.5895  -16.1133 C   0  0  0  0  0  0  0  0  0  0  0  0
   24.8139  -22.8585  -16.8635 C   0  0  2  0  0  0  0  0  0  0  0  0
   25.2301  -21.4951  -17.1621 N   0  0  0  0  0  0  0  0  0  0  0  0
   23.5206  -22.8784  -16.1500 C   0  0  0  0  0  0  0  0  0  0  0  0
   23.3491  -22.1965  -15.1259 O   0  0  0  0  0  0  0  0  0  0  0  0
   25.1857  -25.5852  -14.8191 C   0  0  0  0  0  0  0  0  0  0  0  0
   24.9836  -26.9653  -14.7783 C   0  0  0  0  0  0  0  0  0  0  0  0
   22.4441  -23.6866  -16.6313 N   0  0  0  0  0  0  0  0  0  0  0  0
   21.5530  -24.3955  -15.7054 C   0  0  1  0  0  0  0  0  0  0  0  0
   22.3647  -25.0790  -14.6296 C   0  0  0  0  0  0  0  0  0  0  0  0
   21.4531  -25.7919  -13.7068 C   0  0  0  0  0  0  0  0  0  0  0  0
   20.0620  -25.8282  -13.8444 C   0  0  0  0  0  0  0  0  0  0  0  0
   19.5578  -26.5575  -12.8454 N   0  0  0  0  0  0  0  0  0  0  0  0
   20.5664  -26.9929  -12.0697 C   0  0  0  0  0  0  0  0  0  0  0  0
   21.7013  -26.5170  -12.6112 N   0  0  0  0  0  0  0  0  0  0  0  0
   20.5394  -23.4628  -15.1703 C   0  0  0  0  0  0  0  0  0  0  0  0
   20.6052  -22.2188  -15.4519 O   0  0  0  0  0  0  0  0  0  0  0  0
   19.4839  -23.8293  -14.3604 O   0  0  0  0  0  0  0  0  0  0  0  0
  2  1  1  6
  3  4  1  0
  3  2  1  0
  4  5  2  0
  6  5  1  0
  7  6  1  0
  8  7  2  0
  9  8  1  0
 10 11  1  0
 10  9  2  0
 11 12  2  0
 12  4  1  0
 12  7  1  0
 13  2  1  0
 13 14  2  0
 15 16  1  0
 16 17  2  0
 17 18  1  0
 19 20  1  0
 19 18  2  0
 21 20  1  1
 21 23  1  0
 21 22  1  0
 22 13  1  0
 23 27  1  0
 24 23  2  0
 25 19  1  0
 26 25  2  0
 26 16  1  0
 27 28  1  0
 28 35  1  0
 28 29  1  1
 30 34  1  0
 30 29  1  0
 31 30  2  0
 32 31  1  0
 32 33  1  0
 33 34  2  0
 35 36  2  0
 35 37  1  0
M  END
$$$$
