WYH.pdb
     RDKit          3D

 37 40  0  0  1  0  0  0  0  0999 V2000
   28.3156  -21.0250  -10.3957 N   0  0  0  0  0  0  0  0  0  0  0  0
   26.9946  -20.7755   -9.8938 C   0  0  1  0  0  0  0  0  0  0  0  0
   26.9046  -19.5860   -8.9982 C   0  0  0  0  0  0  0  0  0  0  0  0
   27.9259  -19.6259   -7.9441 C   0  0  0  0  0  0  0  0  0  0  0  0
   29.2255  -19.2026   -8.0880 C   0  0  0  0  0  0  0  0  0  0  0  0
   29.8649  -19.3633   -6.9216 N   0  0  0  0  0  0  0  0  0  0  0  0
   28.9971  -19.8843   -6.0278 C   0  0  0  0  0  0  0  0  0  0  0  0
   29.1526  -20.2389   -4.7079 C   0  0  0  0  0  0  0  0  0  0  0  0
   28.1124  -20.7683   -3.9801 C   0  0  0  0  0  0  0  0  0  0  0  0
   26.9027  -20.9397   -4.5973 C   0  0  0  0  0  0  0  0  0  0  0  0
   26.7184  -20.5937   -5.9164 C   0  0  0  0  0  0  0  0  0  0  0  0
   27.7703  -20.0575   -6.6524 C   0  0  0  0  0  0  0  0  0  0  0  0
   26.0137  -20.7187  -11.0132 C   0  0  0  0  0  0  0  0  0  0  0  0
   26.2265  -19.9744  -12.0095 O   0  0  0  0  0  0  0  0  0  0  0  0
   26.1862  -23.4111  -17.5091 O   0  0  0  0  0  0  0  0  0  0  0  0
   25.5271  -23.2289  -16.2811 C   0  0  0  0  0  0  0  0  0  0  0  0
   24.2352  -22.7461  -16.2847 C   0  0  0  0  0  0  0  0  0  0  0  0
   23.5774  -22.5637  -15.0757 C   0  0  0  0  0  0  0  0  0  0  0  0
   24.1898  -22.8554  -13.8755 C   0  0  0  0  0  0  0  0  0  0  0  0
   23.4365  -22.6271  -12.6324 C   0  0  0  0  0  0  0  0  0  0  0  0
   23.7789  -21.3036  -11.9659 C   0  0  2  0  0  0  0  0  0  0  0  0
   24.8294  -21.4983  -10.9762 N   0  0  0  0  0  0  0  0  0  0  0  0
   22.6023  -20.6360  -11.3725 C   0  0  0  0  0  0  0  0  0  0  0  0
   22.7043  -19.9877  -10.3179 O   0  0  0  0  0  0  0  0  0  0  0  0
   25.4797  -23.3376  -13.8621 C   0  0  0  0  0  0  0  0  0  0  0  0
   26.1279  -23.5159  -15.0849 C   0  0  0  0  0  0  0  0  0  0  0  0
   21.3248  -20.7277  -12.0075 N   0  0  0  0  0  0  0  0  0  0  0  0
   20.6462  -19.5340  -12.5257 C   0  0  1  0  0  0  0  0  0  0  0  0
   21.5607  -18.7901  -13.4710 C   0  0  0  0  0  0  0  0  0  0  0  0
   20.9109  -17.5277  -13.8890 C   0  0  0  0  0  0  0  0  0  0  0  0
   19.6706  -17.0857  -13.4181 C   0  0  0  0  0  0  0  0  0  0  0  0
   19.3908  -15.9160  -13.9990 N   0  0  0  0  0  0  0  0  0  0  0  0
   20.3995  -15.5856  -14.8247 C   0  0  0  0  0  0  0  0  0  0  0  0
   21.3056  -16.5754  -14.7404 N   0  0  0  0  0  0  0  0  0  0  0  0
   19.3564  -19.9153  -13.1377 C   0  0  0  0  0  0  0  0  0  0  0  0
   18.2660  -19.4308  -12.6821 O   0  0  0  0  0  0  0  0  0  0  0  0
   19.2173  -20.7832  -14.2016 O   0  0  0  0  0  0  0  0  0  0  0  0
  2  1  1  6
  3  4  1  0
  3  2  1  0
  4  5  2  0
  6  5  1  0
  7  6  1  0
  8  7  2  0
  9  8  1  0
 10 11  1  0
 10  9  2  0
 11 12  2  0
 12  4  1  0
 12  7  1  0
 13  2  1  0
 13 14  2  0
 15 16  1  0
 16 17  2  0
 17 18  1  0
 19 20  1  0
 19 18  2  0
 21 20  1  1
 21 23  1  0
 21 22  1  0
 22 13  1  0
 23 27  1  0
 24 23  2  0
 25 19  1  0
 26 25  2  0
 26 16  1  0
 27 28  1  0
 28 35  1  0
 28 29  1  6
 30 34  1  0
 30 29  1  0
 31 30  2  0
 32 31  1  0
 32 33  1  0
 33 34  2  0
 35 36  2  0
 35 37  1  0
M  END
$$$$
