WYH.pdb
     RDKit          3D

 37 40  0  0  1  0  0  0  0  0999 V2000
   29.6102  -23.0229  -18.0358 N   0  0  0  0  0  0  0  0  0  0  0  0
   28.6933  -21.9269  -17.9032 C   0  0  1  0  0  0  0  0  0  0  0  0
   27.8553  -21.6920  -19.1148 C   0  0  0  0  0  0  0  0  0  0  0  0
   28.6594  -21.1968  -20.2390 C   0  0  0  0  0  0  0  0  0  0  0  0
   29.5867  -21.9371  -20.9325 C   0  0  0  0  0  0  0  0  0  0  0  0
   30.1099  -21.1761  -21.9032 N   0  0  0  0  0  0  0  0  0  0  0  0
   29.5342  -19.9560  -21.8458 C   0  0  0  0  0  0  0  0  0  0  0  0
   29.7207  -18.8244  -22.6052 C   0  0  0  0  0  0  0  0  0  0  0  0
   29.0157  -17.6697  -22.3572 C   0  0  0  0  0  0  0  0  0  0  0  0
   28.1125  -17.6629  -21.3286 C   0  0  0  0  0  0  0  0  0  0  0  0
   27.9052  -18.7803  -20.5526 C   0  0  0  0  0  0  0  0  0  0  0  0
   28.6178  -19.9485  -20.8040 C   0  0  0  0  0  0  0  0  0  0  0  0
   27.8751  -22.0782  -16.6678 C   0  0  0  0  0  0  0  0  0  0  0  0
   27.3847  -23.1998  -16.3619 O   0  0  0  0  0  0  0  0  0  0  0  0
   24.1606  -20.4871   -8.8325 O   0  0  0  0  0  0  0  0  0  0  0  0
   24.9085  -20.3797  -10.0178 C   0  0  0  0  0  0  0  0  0  0  0  0
   25.9813  -21.2256  -10.2064 C   0  0  0  0  0  0  0  0  0  0  0  0
   26.7247  -21.1259  -11.3748 C   0  0  0  0  0  0  0  0  0  0  0  0
   26.4113  -20.1997  -12.3466 C   0  0  0  0  0  0  0  0  0  0  0  0
   27.2496  -20.1427  -13.5545 C   0  0  0  0  0  0  0  0  0  0  0  0
   26.7862  -21.0978  -14.6436 C   0  0  2  0  0  0  0  0  0  0  0  0
   27.6361  -20.9673  -15.8191 N   0  0  0  0  0  0  0  0  0  0  0  0
   25.3611  -20.9261  -14.9925 C   0  0  0  0  0  0  0  0  0  0  0  0
   24.9833  -19.9478  -15.6582 O   0  0  0  0  0  0  0  0  0  0  0  0
   25.3421  -19.3506  -12.1669 C   0  0  0  0  0  0  0  0  0  0  0  0
   24.6042  -19.4628  -10.9878 C   0  0  0  0  0  0  0  0  0  0  0  0
   24.3936  -21.8884  -14.5666 N   0  0  0  0  0  0  0  0  0  0  0  0
   22.9609  -21.6859  -14.8126 C   0  0  1  0  0  0  0  0  0  0  0  0
   22.2162  -22.9872  -14.6249 C   0  0  0  0  0  0  0  0  0  0  0  0
   20.7765  -22.7704  -14.8912 C   0  0  0  0  0  0  0  0  0  0  0  0
   20.1808  -22.8901  -16.1506 C   0  0  0  0  0  0  0  0  0  0  0  0
   18.8766  -22.6295  -16.0273 N   0  0  0  0  0  0  0  0  0  0  0  0
   18.6070  -22.3469  -14.7405 C   0  0  0  0  0  0  0  0  0  0  0  0
   19.7713  -22.4387  -14.0743 N   0  0  0  0  0  0  0  0  0  0  0  0
   22.4539  -20.5926  -13.9574 C   0  0  0  0  0  0  0  0  0  0  0  0
   22.7506  -20.5640  -12.7155 O   0  0  0  0  0  0  0  0  0  0  0  0
   21.6560  -19.5563  -14.3973 O   0  0  0  0  0  0  0  0  0  0  0  0
  2  1  1  6
  3  4  1  0
  3  2  1  0
  4  5  2  0
  6  5  1  0
  7  6  1  0
  8  7  2  0
  9  8  1  0
 10 11  1  0
 10  9  2  0
 11 12  2  0
 12  4  1  0
 12  7  1  0
 13  2  1  0
 13 14  2  0
 15 16  1  0
 16 17  2  0
 17 18  1  0
 19 20  1  0
 19 18  2  0
 21 20  1  1
 21 23  1  0
 21 22  1  0
 22 13  1  0
 23 27  1  0
 24 23  2  0
 25 19  1  0
 26 25  2  0
 26 16  1  0
 27 28  1  0
 28 35  1  0
 28 29  1  1
 30 34  1  0
 30 29  1  0
 31 30  2  0
 32 31  1  0
 32 33  1  0
 33 34  2  0
 35 36  2  0
 35 37  1  0
M  END
$$$$
