WYH.pdb
     RDKit          3D

 37 40  0  0  1  0  0  0  0  0999 V2000
   23.9981  -16.9013  -15.0070 N   0  0  0  0  0  0  0  0  0  0  0  0
   23.3220  -17.8784  -15.8116 C   0  0  1  0  0  0  0  0  0  0  0  0
   23.8726  -19.2580  -15.6741 C   0  0  0  0  0  0  0  0  0  0  0  0
   25.3219  -19.2396  -15.4402 C   0  0  0  0  0  0  0  0  0  0  0  0
   25.9471  -19.7350  -14.3209 C   0  0  0  0  0  0  0  0  0  0  0  0
   27.2701  -19.5724  -14.4563 N   0  0  0  0  0  0  0  0  0  0  0  0
   27.5074  -18.9792  -15.6458 C   0  0  0  0  0  0  0  0  0  0  0  0
   28.6797  -18.5928  -16.2529 C   0  0  0  0  0  0  0  0  0  0  0  0
   28.6823  -17.9871  -17.4878 C   0  0  0  0  0  0  0  0  0  0  0  0
   27.4838  -17.7713  -18.1131 C   0  0  0  0  0  0  0  0  0  0  0  0
   26.2957  -18.1475  -17.5295 C   0  0  0  0  0  0  0  0  0  0  0  0
   26.2932  -18.7608  -16.2808 C   0  0  0  0  0  0  0  0  0  0  0  0
   21.8532  -17.8267  -15.5702 C   0  0  0  0  0  0  0  0  0  0  0  0
   21.3925  -17.9935  -14.4074 O   0  0  0  0  0  0  0  0  0  0  0  0
   13.2482  -16.2504  -16.7149 O   0  0  0  0  0  0  0  0  0  0  0  0
   14.6311  -16.3975  -16.9188 C   0  0  0  0  0  0  0  0  0  0  0  0
   15.4846  -15.4446  -16.4034 C   0  0  0  0  0  0  0  0  0  0  0  0
   16.8520  -15.5830  -16.6004 C   0  0  0  0  0  0  0  0  0  0  0  0
   17.3706  -16.6520  -17.2997 C   0  0  0  0  0  0  0  0  0  0  0  0
   18.8289  -16.7287  -17.4795 C   0  0  0  0  0  0  0  0  0  0  0  0
   19.5148  -17.5674  -16.4121 C   0  0  2  0  0  0  0  0  0  0  0  0
   20.9531  -17.5898  -16.6403 N   0  0  0  0  0  0  0  0  0  0  0  0
   18.9675  -18.9360  -16.3149 C   0  0  0  0  0  0  0  0  0  0  0  0
   19.5599  -19.8958  -16.8354 O   0  0  0  0  0  0  0  0  0  0  0  0
   16.5260  -17.6082  -17.8183 C   0  0  0  0  0  0  0  0  0  0  0  0
   15.1544  -17.4557  -17.6120 C   0  0  0  0  0  0  0  0  0  0  0  0
   17.7431  -19.1750  -15.6168 N   0  0  0  0  0  0  0  0  0  0  0  0
   17.2571  -20.5394  -15.3798 C   0  0  1  0  0  0  0  0  0  0  0  0
   18.2989  -21.3349  -14.6281 C   0  0  0  0  0  0  0  0  0  0  0  0
   19.1589  -22.0529  -15.5953 C   0  0  0  0  0  0  0  0  0  0  0  0
   19.0616  -21.9237  -16.9843 C   0  0  0  0  0  0  0  0  0  0  0  0
   19.9855  -22.7072  -17.5469 N   0  0  0  0  0  0  0  0  0  0  0  0
   20.6743  -23.3360  -16.5781 C   0  0  0  0  0  0  0  0  0  0  0  0
   20.1559  -22.9239  -15.4080 N   0  0  0  0  0  0  0  0  0  0  0  0
   15.9482  -20.4947  -14.6953 C   0  0  0  0  0  0  0  0  0  0  0  0
   14.9118  -20.9726  -15.2686 O   0  0  0  0  0  0  0  0  0  0  0  0
   15.7353  -19.9615  -13.4405 O   0  0  0  0  0  0  0  0  0  0  0  0
  2  1  1  1
  3  4  1  0
  3  2  1  0
  4  5  2  0
  6  5  1  0
  7  6  1  0
  8  7  2  0
  9  8  1  0
 10 11  1  0
 10  9  2  0
 11 12  2  0
 12  4  1  0
 12  7  1  0
 13  2  1  0
 13 14  2  0
 15 16  1  0
 16 17  2  0
 17 18  1  0
 19 20  1  0
 19 18  2  0
 21 20  1  6
 21 23  1  0
 21 22  1  0
 22 13  1  0
 23 27  1  0
 24 23  2  0
 25 19  1  0
 26 25  2  0
 26 16  1  0
 27 28  1  0
 28 35  1  0
 28 29  1  1
 30 34  1  0
 30 29  1  0
 31 30  2  0
 32 31  1  0
 32 33  1  0
 33 34  2  0
 35 36  2  0
 35 37  1  0
M  END
$$$$
