WYH.pdb
     RDKit          3D

 37 40  0  0  1  0  0  0  0  0999 V2000
   23.2145  -11.4719  -17.6440 N   0  0  0  0  0  0  0  0  0  0  0  0
   22.0710  -10.6362  -17.4135 C   0  0  1  0  0  0  0  0  0  0  0  0
   20.9647  -11.3170  -16.6802 C   0  0  0  0  0  0  0  0  0  0  0  0
   20.1927  -12.1980  -17.5653 C   0  0  0  0  0  0  0  0  0  0  0  0
   20.3548  -13.5595  -17.6606 C   0  0  0  0  0  0  0  0  0  0  0  0
   19.4706  -14.0399  -18.5452 N   0  0  0  0  0  0  0  0  0  0  0  0
   18.7410  -13.0086  -19.0220 C   0  0  0  0  0  0  0  0  0  0  0  0
   17.7213  -12.9640  -19.9441 C   0  0  0  0  0  0  0  0  0  0  0  0
   17.1174  -11.7773  -20.2891 C   0  0  0  0  0  0  0  0  0  0  0  0
   17.5523  -10.6244  -19.6928 C   0  0  0  0  0  0  0  0  0  0  0  0
   18.5703  -10.6392  -18.7670 C   0  0  0  0  0  0  0  0  0  0  0  0
   19.1806  -11.8395  -18.4175 C   0  0  0  0  0  0  0  0  0  0  0  0
   22.4805   -9.3593  -16.7651 C   0  0  0  0  0  0  0  0  0  0  0  0
   23.1684   -9.3741  -15.7074 O   0  0  0  0  0  0  0  0  0  0  0  0
   27.3149   -7.0520  -20.8890 O   0  0  0  0  0  0  0  0  0  0  0  0
   26.1715   -6.7586  -20.1258 C   0  0  0  0  0  0  0  0  0  0  0  0
   26.2914   -5.9053  -19.0490 C   0  0  0  0  0  0  0  0  0  0  0  0
   25.1665   -5.6105  -18.2905 C   0  0  0  0  0  0  0  0  0  0  0  0
   23.9359   -6.1534  -18.5928 C   0  0  0  0  0  0  0  0  0  0  0  0
   22.7892   -5.8056  -17.7389 C   0  0  0  0  0  0  0  0  0  0  0  0
   22.4921   -6.8618  -16.6857 C   0  0  2  0  0  0  0  0  0  0  0  0
   22.1048   -8.1117  -17.3252 N   0  0  0  0  0  0  0  0  0  0  0  0
   21.4778   -6.4269  -15.7037 C   0  0  0  0  0  0  0  0  0  0  0  0
   20.3000   -6.8112  -15.7941 O   0  0  0  0  0  0  0  0  0  0  0  0
   23.8067   -7.0068  -19.6659 C   0  0  0  0  0  0  0  0  0  0  0  0
   24.9459   -7.2935  -20.4190 C   0  0  0  0  0  0  0  0  0  0  0  0
   21.8404   -5.5542  -14.6311 N   0  0  0  0  0  0  0  0  0  0  0  0
   20.9051   -5.2639  -13.5381 C   0  0  1  0  0  0  0  0  0  0  0  0
   20.5526   -6.5392  -12.8082 C   0  0  0  0  0  0  0  0  0  0  0  0
   19.6205   -6.2283  -11.7012 C   0  0  0  0  0  0  0  0  0  0  0  0
   19.1820   -4.9405  -11.3778 C   0  0  0  0  0  0  0  0  0  0  0  0
   18.3530   -5.0264  -10.3341 N   0  0  0  0  0  0  0  0  0  0  0  0
   18.2389   -6.3164   -9.9715 C   0  0  0  0  0  0  0  0  0  0  0  0
   19.0143   -7.0226  -10.8128 N   0  0  0  0  0  0  0  0  0  0  0  0
   21.4707   -4.2219  -12.6561 C   0  0  0  0  0  0  0  0  0  0  0  0
   22.6931   -4.2887  -12.2921 O   0  0  0  0  0  0  0  0  0  0  0  0
   20.7689   -3.1376  -12.1702 O   0  0  0  0  0  0  0  0  0  0  0  0
  2  1  1  1
  3  4  1  0
  3  2  1  0
  4  5  2  0
  6  5  1  0
  7  6  1  0
  8  7  2  0
  9  8  1  0
 10 11  1  0
 10  9  2  0
 11 12  2  0
 12  4  1  0
 12  7  1  0
 13  2  1  0
 13 14  2  0
 15 16  1  0
 16 17  2  0
 17 18  1  0
 19 20  1  0
 19 18  2  0
 21 20  1  6
 21 23  1  0
 21 22  1  0
 22 13  1  0
 23 27  1  0
 24 23  2  0
 25 19  1  0
 26 25  2  0
 26 16  1  0
 27 28  1  0
 28 35  1  0
 28 29  1  1
 30 34  1  0
 30 29  1  0
 31 30  2  0
 32 31  1  0
 32 33  1  0
 33 34  2  0
 35 36  2  0
 35 37  1  0
M  END
$$$$
