WYH.pdb
     RDKit          3D

 37 40  0  0  1  0  0  0  0  0999 V2000
   26.8288  -21.6878  -16.7778 N   0  0  0  0  0  0  0  0  0  0  0  0
   26.9438  -20.5794  -15.8736 C   0  0  1  0  0  0  0  0  0  0  0  0
   25.9754  -19.4776  -16.1443 C   0  0  0  0  0  0  0  0  0  0  0  0
   26.2820  -18.7870  -17.4031 C   0  0  0  0  0  0  0  0  0  0  0  0
   25.4035  -18.6222  -18.4472 C   0  0  0  0  0  0  0  0  0  0  0  0
   26.0111  -17.9279  -19.4188 N   0  0  0  0  0  0  0  0  0  0  0  0
   27.2683  -17.6429  -19.0170 C   0  0  0  0  0  0  0  0  0  0  0  0
   28.2912  -16.9651  -19.6386 C   0  0  0  0  0  0  0  0  0  0  0  0
   29.5144  -16.7989  -19.0318 C   0  0  0  0  0  0  0  0  0  0  0  0
   29.7017  -17.3256  -17.7823 C   0  0  0  0  0  0  0  0  0  0  0  0
   28.6963  -18.0082  -17.1367 C   0  0  0  0  0  0  0  0  0  0  0  0
   27.4588  -18.1756  -17.7501 C   0  0  0  0  0  0  0  0  0  0  0  0
   26.8878  -21.0503  -14.4617 C   0  0  0  0  0  0  0  0  0  0  0  0
   26.2367  -22.0887  -14.1619 O   0  0  0  0  0  0  0  0  0  0  0  0
   27.1908  -20.5283   -5.6301 O   0  0  0  0  0  0  0  0  0  0  0  0
   27.4227  -20.3221   -7.0011 C   0  0  0  0  0  0  0  0  0  0  0  0
   28.2084  -21.2252   -7.6860 C   0  0  0  0  0  0  0  0  0  0  0  0
   28.4419  -21.0285   -9.0404 C   0  0  0  0  0  0  0  0  0  0  0  0
   27.9047  -19.9505   -9.7110 C   0  0  0  0  0  0  0  0  0  0  0  0
   28.2031  -19.7988  -11.1439 C   0  0  0  0  0  0  0  0  0  0  0  0
   27.2483  -20.5789  -12.0343 C   0  0  2  0  0  0  0  0  0  0  0  0
   27.5635  -20.3409  -13.4362 N   0  0  0  0  0  0  0  0  0  0  0  0
   25.8281  -20.2894  -11.7491 C   0  0  0  0  0  0  0  0  0  0  0  0
   25.2078  -19.4394  -12.4092 O   0  0  0  0  0  0  0  0  0  0  0  0
   27.1192  -19.0433   -9.0353 C   0  0  0  0  0  0  0  0  0  0  0  0
   26.8932  -19.2543   -7.6745 C   0  0  0  0  0  0  0  0  0  0  0  0
   25.1457  -20.9875  -10.7048 N   0  0  0  0  0  0  0  0  0  0  0  0
   23.6945  -20.8594  -10.5270 C   0  0  1  0  0  0  0  0  0  0  0  0
   22.9724  -21.6039  -11.6259 C   0  0  0  0  0  0  0  0  0  0  0  0
   22.1483  -20.6513  -12.4031 C   0  0  0  0  0  0  0  0  0  0  0  0
   21.5797  -19.4877  -11.8757 C   0  0  0  0  0  0  0  0  0  0  0  0
   20.9073  -18.8677  -12.8491 N   0  0  0  0  0  0  0  0  0  0  0  0
   21.0190  -19.5835  -13.9821 C   0  0  0  0  0  0  0  0  0  0  0  0
   21.7735  -20.6564  -13.6866 N   0  0  0  0  0  0  0  0  0  0  0  0
   23.3134  -21.3040   -9.1703 C   0  0  0  0  0  0  0  0  0  0  0  0
   24.0100  -22.1904   -8.5701 O   0  0  0  0  0  0  0  0  0  0  0  0
   22.2280  -20.8282   -8.4633 O   0  0  0  0  0  0  0  0  0  0  0  0
  2  1  1  6
  3  4  1  0
  3  2  1  0
  4  5  2  0
  6  5  1  0
  7  6  1  0
  8  7  2  0
  9  8  1  0
 10 11  1  0
 10  9  2  0
 11 12  2  0
 12  4  1  0
 12  7  1  0
 13  2  1  0
 13 14  2  0
 15 16  1  0
 16 17  2  0
 17 18  1  0
 19 20  1  0
 19 18  2  0
 21 20  1  1
 21 23  1  0
 21 22  1  0
 22 13  1  0
 23 27  1  0
 24 23  2  0
 25 19  1  0
 26 25  2  0
 26 16  1  0
 27 28  1  0
 28 35  1  0
 28 29  1  6
 30 34  1  0
 30 29  1  0
 31 30  2  0
 32 31  1  0
 32 33  1  0
 33 34  2  0
 35 36  2  0
 35 37  1  0
M  END
$$$$
