WYH.pdb
     RDKit          3D

 37 40  0  0  1  0  0  0  0  0999 V2000
   22.9445   -9.2445  -12.9363 N   0  0  0  0  0  0  0  0  0  0  0  0
   23.0480   -8.7148  -14.2660 C   0  0  1  0  0  0  0  0  0  0  0  0
   23.2056   -9.7585  -15.3201 C   0  0  0  0  0  0  0  0  0  0  0  0
   24.5409  -10.3676  -15.2808 C   0  0  0  0  0  0  0  0  0  0  0  0
   24.8436  -11.5678  -14.6833 C   0  0  0  0  0  0  0  0  0  0  0  0
   26.1469  -11.8232  -14.8606 N   0  0  0  0  0  0  0  0  0  0  0  0
   26.6892  -10.8055  -15.5631 C   0  0  0  0  0  0  0  0  0  0  0  0
   27.9752  -10.5821  -15.9970 C   0  0  0  0  0  0  0  0  0  0  0  0
   28.3074   -9.4499  -16.7039 C   0  0  0  0  0  0  0  0  0  0  0  0
   27.3252   -8.5352  -16.9731 C   0  0  0  0  0  0  0  0  0  0  0  0
   26.0302   -8.7325  -16.5514 C   0  0  0  0  0  0  0  0  0  0  0  0
   25.6941   -9.8781  -15.8372 C   0  0  0  0  0  0  0  0  0  0  0  0
   21.9155   -7.7895  -14.5482 C   0  0  0  0  0  0  0  0  0  0  0  0
   20.8200   -7.9182  -13.9357 O   0  0  0  0  0  0  0  0  0  0  0  0
   17.2795   -1.0818  -17.9849 O   0  0  0  0  0  0  0  0  0  0  0  0
   18.3146   -1.9526  -17.6028 C   0  0  0  0  0  0  0  0  0  0  0  0
   18.8186   -2.8359  -18.5343 C   0  0  0  0  0  0  0  0  0  0  0  0
   19.8413   -3.6992  -18.1646 C   0  0  0  0  0  0  0  0  0  0  0  0
   20.3604   -3.6897  -16.8874 C   0  0  0  0  0  0  0  0  0  0  0  0
   21.4356   -4.6401  -16.5626 C   0  0  0  0  0  0  0  0  0  0  0  0
   20.9402   -5.8572  -15.7968 C   0  0  2  0  0  0  0  0  0  0  0  0
   22.0513   -6.7528  -15.5066 N   0  0  0  0  0  0  0  0  0  0  0  0
   19.8472   -6.5687  -16.4906 C   0  0  0  0  0  0  0  0  0  0  0  0
   20.0843   -7.3035  -17.4637 O   0  0  0  0  0  0  0  0  0  0  0  0
   19.8631   -2.8115  -15.9505 C   0  0  0  0  0  0  0  0  0  0  0  0
   18.8356   -1.9499  -16.3368 C   0  0  0  0  0  0  0  0  0  0  0  0
   18.4958   -6.4204  -16.0488 N   0  0  0  0  0  0  0  0  0  0  0  0
   17.3814   -7.0104  -16.7998 C   0  0  1  0  0  0  0  0  0  0  0  0
   17.0430   -8.3712  -16.2369 C   0  0  0  0  0  0  0  0  0  0  0  0
   15.9011   -8.9411  -16.9866 C   0  0  0  0  0  0  0  0  0  0  0  0
   15.9708   -9.3880  -18.3098 C   0  0  0  0  0  0  0  0  0  0  0  0
   14.7655   -9.8392  -18.6671 N   0  0  0  0  0  0  0  0  0  0  0  0
   13.9219   -9.7019  -17.6289 C   0  0  0  0  0  0  0  0  0  0  0  0
   14.6320   -9.1570  -16.6255 N   0  0  0  0  0  0  0  0  0  0  0  0
   16.2340   -6.0794  -16.8105 C   0  0  0  0  0  0  0  0  0  0  0  0
   16.1061   -5.2135  -15.8803 O   0  0  0  0  0  0  0  0  0  0  0  0
   15.2470   -6.0594  -17.7747 O   0  0  0  0  0  0  0  0  0  0  0  0
  2  1  1  1
  3  4  1  0
  3  2  1  0
  4  5  2  0
  6  5  1  0
  7  6  1  0
  8  7  2  0
  9  8  1  0
 10 11  1  0
 10  9  2  0
 11 12  2  0
 12  4  1  0
 12  7  1  0
 13  2  1  0
 13 14  2  0
 15 16  1  0
 16 17  2  0
 17 18  1  0
 19 20  1  0
 19 18  2  0
 21 20  1  6
 21 23  1  0
 21 22  1  0
 22 13  1  0
 23 27  1  0
 24 23  2  0
 25 19  1  0
 26 25  2  0
 26 16  1  0
 27 28  1  0
 28 35  1  0
 28 29  1  1
 30 34  1  0
 30 29  1  0
 31 30  2  0
 32 31  1  0
 32 33  1  0
 33 34  2  0
 35 36  2  0
 35 37  1  0
M  END
$$$$
