WYH.pdb
     RDKit          3D

 37 40  0  0  1  0  0  0  0  0999 V2000
   26.5735  -22.4926  -13.9048 N   0  0  0  0  0  0  0  0  0  0  0  0
   26.2192  -21.5077  -12.9231 C   0  0  1  0  0  0  0  0  0  0  0  0
   26.8533  -20.1764  -13.1486 C   0  0  0  0  0  0  0  0  0  0  0  0
   28.2879  -20.2025  -12.8376 C   0  0  0  0  0  0  0  0  0  0  0  0
   29.2925  -19.8825  -13.7192 C   0  0  0  0  0  0  0  0  0  0  0  0
   30.4710  -19.9935  -13.0916 N   0  0  0  0  0  0  0  0  0  0  0  0
   30.2414  -20.3807  -11.8186 C   0  0  0  0  0  0  0  0  0  0  0  0
   31.1011  -20.6391  -10.7763 C   0  0  0  0  0  0  0  0  0  0  0  0
   30.6358  -21.0361   -9.5442 C   0  0  0  0  0  0  0  0  0  0  0  0
   29.2852  -21.1723   -9.3678 C   0  0  0  0  0  0  0  0  0  0  0  0
   28.4020  -20.9206  -10.3926 C   0  0  0  0  0  0  0  0  0  0  0  0
   28.8725  -20.5183  -11.6385 C   0  0  0  0  0  0  0  0  0  0  0  0
   24.7388  -21.4157  -12.7874 C   0  0  0  0  0  0  0  0  0  0  0  0
   23.9884  -21.7854  -13.7320 O   0  0  0  0  0  0  0  0  0  0  0  0
   16.7532  -20.2438   -9.2042 O   0  0  0  0  0  0  0  0  0  0  0  0
   18.1436  -20.2956   -9.4044 C   0  0  0  0  0  0  0  0  0  0  0  0
   18.7759  -19.2058   -9.9652 C   0  0  0  0  0  0  0  0  0  0  0  0
   20.1491  -19.2493  -10.1659 C   0  0  0  0  0  0  0  0  0  0  0  0
   20.8896  -20.3583   -9.8162 C   0  0  0  0  0  0  0  0  0  0  0  0
   22.3392  -20.3390  -10.0680 C   0  0  0  0  0  0  0  0  0  0  0  0
   22.7051  -20.8176  -11.4644 C   0  0  2  0  0  0  0  0  0  0  0  0
   24.1522  -20.9130  -11.5980 N   0  0  0  0  0  0  0  0  0  0  0  0
   22.1238  -19.9782  -12.5319 C   0  0  0  0  0  0  0  0  0  0  0  0
   22.7234  -18.9726  -12.9470 O   0  0  0  0  0  0  0  0  0  0  0  0
   20.2667  -21.4513   -9.2560 C   0  0  0  0  0  0  0  0  0  0  0  0
   18.8863  -21.3929   -9.0602 C   0  0  0  0  0  0  0  0  0  0  0  0
   20.8576  -20.3140  -13.1042 N   0  0  0  0  0  0  0  0  0  0  0  0
   20.2904  -19.5303  -14.2078 C   0  0  1  0  0  0  0  0  0  0  0  0
   21.2612  -19.4911  -15.3651 C   0  0  0  0  0  0  0  0  0  0  0  0
   20.6916  -18.6667  -16.4544 C   0  0  0  0  0  0  0  0  0  0  0  0
   20.0537  -17.4373  -16.2619 C   0  0  0  0  0  0  0  0  0  0  0  0
   19.6672  -16.9711  -17.4524 N   0  0  0  0  0  0  0  0  0  0  0  0
   20.0297  -17.8491  -18.4043 C   0  0  0  0  0  0  0  0  0  0  0  0
   20.6470  -18.8650  -17.7760 N   0  0  0  0  0  0  0  0  0  0  0  0
   18.9633  -20.0667  -14.5748 C   0  0  0  0  0  0  0  0  0  0  0  0
   18.3025  -19.5359  -15.5303 O   0  0  0  0  0  0  0  0  0  0  0  0
   18.3476  -21.1339  -13.9533 O   0  0  0  0  0  0  0  0  0  0  0  0
  2  1  1  6
  3  4  1  0
  3  2  1  0
  4  5  2  0
  6  5  1  0
  7  6  1  0
  8  7  2  0
  9  8  1  0
 10 11  1  0
 10  9  2  0
 11 12  2  0
 12  4  1  0
 12  7  1  0
 13  2  1  0
 13 14  2  0
 15 16  1  0
 16 17  2  0
 17 18  1  0
 19 20  1  0
 19 18  2  0
 21 20  1  1
 21 23  1  0
 21 22  1  0
 22 13  1  0
 23 27  1  0
 24 23  2  0
 25 19  1  0
 26 25  2  0
 26 16  1  0
 27 28  1  0
 28 35  1  0
 28 29  1  6
 30 34  1  0
 30 29  1  0
 31 30  2  0
 32 31  1  0
 32 33  1  0
 33 34  2  0
 35 36  2  0
 35 37  1  0
M  END
$$$$
