LDD.pdb
     RDKit          3D

 25 24  0  0  1  0  0  0  0  0999 V2000
    6.4576  -12.4522   27.2795 C   0  0  0  0  0  0  0  0  0  0  0  0
    7.0715  -12.5815   25.9258 C   0  0  2  0  0  0  0  0  0  0  0  0
    6.2099  -11.8935   24.8814 C   0  0  0  0  0  0  0  0  0  0  0  0
    7.4211  -13.9794   25.5241 C   0  0  0  0  0  0  0  0  0  0  0  0
    8.7670  -14.1215   24.8791 C   0  0  2  0  0  0  0  0  0  0  0  0
    8.9741  -13.3141   23.7256 N   0  0  0  0  0  0  0  0  0  0  0  0
    9.1224  -15.5525   24.6846 C   0  0  0  0  0  0  0  0  0  0  0  0
    8.7183  -16.4303   25.5253 O   0  0  0  0  0  0  0  0  0  0  0  0
    9.8901  -16.0340   23.6108 N   0  0  0  0  0  0  0  0  0  0  0  0
   10.3658  -17.4104   23.5357 C   0  0  1  0  0  0  0  0  0  0  0  0
   11.0704  -17.6196   22.1974 C   0  0  0  0  0  0  0  0  0  0  0  0
   10.2012  -17.3017   21.0605 C   0  0  0  0  0  0  0  0  0  0  0  0
    9.0932  -17.8324   20.8882 O   0  0  0  0  0  0  0  0  0  0  0  0
   11.2527  -17.7850   24.6407 C   0  0  0  0  0  0  0  0  0  0  0  0
   12.1247  -16.9664   24.9970 O   0  0  0  0  0  0  0  0  0  0  0  0
   10.6212  -16.3612   20.1194 O   0  0  0  0  0  0  0  0  0  0  0  0
   11.1821  -19.0298   25.3442 N   0  0  0  0  0  0  0  0  0  0  0  0
   11.5898  -19.2210   26.7015 C   0  0  1  0  0  0  0  0  0  0  0  0
   10.9902  -18.2266   27.6532 C   0  0  0  0  0  0  0  0  0  0  0  0
   11.3592  -18.4437   29.0516 C   0  0  0  0  0  0  0  0  0  0  0  0
   12.1464  -19.3569   29.4266 O   0  0  0  0  0  0  0  0  0  0  0  0
   11.2983  -20.6004   27.1230 C   0  0  0  0  0  0  0  0  0  0  0  0
   10.6943  -21.5486   26.3038 O   0  0  0  0  0  0  0  0  0  0  0  0
   10.8256  -17.6196   30.0337 O   0  0  0  0  0  0  0  0  0  0  0  0
   11.6013  -20.9709   28.2817 O   0  0  0  0  0  0  0  0  0  0  0  0
  2  1  1  1
  3  2  1  0
  4  2  1  0
  5  4  1  0
  5  6  1  6
  7  9  1  0
  7  5  1  0
  8  7  2  0
 10  9  1  0
 10 11  1  6
 12 16  1  0
 12 11  1  0
 13 12  2  0
 14 10  1  0
 14 17  1  0
 15 14  2  0
 18 17  1  0
 18 22  1  0
 18 19  1  1
 19 20  1  0
 20 24  1  0
 20 21  2  0
 22 23  1  0
 25 22  2  0
M  END
$$$$
