LDD.pdb
     RDKit          3D

 25 24  0  0  1  0  0  0  0  0999 V2000
    8.9093  -11.9066   18.7883 C   0  0  0  0  0  0  0  0  0  0  0  0
    8.1088  -13.1504   18.9840 C   0  0  2  0  0  0  0  0  0  0  0  0
    6.6310  -12.8205   19.1022 C   0  0  0  0  0  0  0  0  0  0  0  0
    8.5729  -14.0282   20.1028 C   0  0  0  0  0  0  0  0  0  0  0  0
   10.0243  -14.3985   20.0398 C   0  0  2  0  0  0  0  0  0  0  0  0
   10.6238  -14.2822   18.7543 N   0  0  0  0  0  0  0  0  0  0  0  0
   10.2763  -15.7041   20.7062 C   0  0  0  0  0  0  0  0  0  0  0  0
    9.7944  -15.9291   21.8714 O   0  0  0  0  0  0  0  0  0  0  0  0
   11.0243  -16.7476   20.1356 N   0  0  0  0  0  0  0  0  0  0  0  0
   11.2522  -18.0178   20.8148 C   0  0  1  0  0  0  0  0  0  0  0  0
   11.3004  -19.1348   19.7750 C   0  0  0  0  0  0  0  0  0  0  0  0
   11.3002  -20.4642   20.3930 C   0  0  0  0  0  0  0  0  0  0  0  0
   10.4709  -21.3417   20.1076 O   0  0  0  0  0  0  0  0  0  0  0  0
   12.4671  -18.0341   21.6346 C   0  0  0  0  0  0  0  0  0  0  0  0
   13.5698  -18.0191   21.0505 O   0  0  0  0  0  0  0  0  0  0  0  0
   12.2694  -20.7761   21.3468 O   0  0  0  0  0  0  0  0  0  0  0  0
   12.4730  -18.0615   23.0660 N   0  0  0  0  0  0  0  0  0  0  0  0
   13.5893  -17.6962   23.8815 C   0  0  1  0  0  0  0  0  0  0  0  0
   14.1477  -16.3399   23.5606 C   0  0  0  0  0  0  0  0  0  0  0  0
   15.5814  -16.3396   23.2718 C   0  0  0  0  0  0  0  0  0  0  0  0
   16.3046  -17.3715   23.3522 O   0  0  0  0  0  0  0  0  0  0  0  0
   13.2253  -17.7964   25.3038 C   0  0  0  0  0  0  0  0  0  0  0  0
   13.5008  -18.9055   26.0968 O   0  0  0  0  0  0  0  0  0  0  0  0
   16.2006  -15.1558   22.8930 O   0  0  0  0  0  0  0  0  0  0  0  0
   12.6323  -16.8419   25.8599 O   0  0  0  0  0  0  0  0  0  0  0  0
  2  1  1  1
  3  2  1  0
  4  2  1  0
  5  4  1  0
  5  6  1  6
  7  9  1  0
  7  5  1  0
  8  7  2  0
 10  9  1  0
 10 11  1  6
 12 16  1  0
 12 11  1  0
 13 12  2  0
 14 10  1  0
 14 17  1  0
 15 14  2  0
 18 17  1  0
 18 22  1  0
 18 19  1  6
 19 20  1  0
 20 24  1  0
 20 21  2  0
 22 23  1  0
 25 22  2  0
M  END
$$$$
