LDD.pdb
     RDKit          3D

 25 24  0  0  1  0  0  0  0  0999 V2000
    7.6751  -12.9784   18.3692 C   0  0  0  0  0  0  0  0  0  0  0  0
    7.4881  -13.3558   19.8005 C   0  0  2  0  0  0  0  0  0  0  0  0
    7.5870  -12.1305   20.6925 C   0  0  0  0  0  0  0  0  0  0  0  0
    8.3710  -14.4642   20.2797 C   0  0  0  0  0  0  0  0  0  0  0  0
    8.2344  -15.7433   19.5098 C   0  0  2  0  0  0  0  0  0  0  0  0
    6.9237  -16.2972   19.4832 N   0  0  0  0  0  0  0  0  0  0  0  0
    9.2922  -16.7169   19.8911 C   0  0  0  0  0  0  0  0  0  0  0  0
    9.0061  -17.7021   20.6579 O   0  0  0  0  0  0  0  0  0  0  0  0
   10.6263  -16.6398   19.4571 N   0  0  0  0  0  0  0  0  0  0  0  0
   11.6640  -17.5478   19.9316 C   0  0  1  0  0  0  0  0  0  0  0  0
   12.8545  -17.4826   18.9778 C   0  0  0  0  0  0  0  0  0  0  0  0
   13.8571  -18.5097   19.2759 C   0  0  0  0  0  0  0  0  0  0  0  0
   15.0779  -18.3089   19.1842 O   0  0  0  0  0  0  0  0  0  0  0  0
   12.0977  -17.2755   21.3048 C   0  0  0  0  0  0  0  0  0  0  0  0
   12.7278  -16.2207   21.5232 O   0  0  0  0  0  0  0  0  0  0  0  0
   13.4391  -19.7767   19.6839 O   0  0  0  0  0  0  0  0  0  0  0  0
   11.8418  -18.1397   22.4171 N   0  0  0  0  0  0  0  0  0  0  0  0
   12.1819  -17.8414   23.7736 C   0  0  1  0  0  0  0  0  0  0  0  0
   11.0496  -18.0545   24.7362 C   0  0  0  0  0  0  0  0  0  0  0  0
   10.0143  -17.0235   24.6750 C   0  0  0  0  0  0  0  0  0  0  0  0
   10.1342  -15.9601   24.0048 O   0  0  0  0  0  0  0  0  0  0  0  0
   13.3698  -18.6122   24.1738 C   0  0  0  0  0  0  0  0  0  0  0  0
   14.0129  -19.5277   23.3472 O   0  0  0  0  0  0  0  0  0  0  0  0
    8.8339  -17.1990   25.3852 O   0  0  0  0  0  0  0  0  0  0  0  0
   13.8529  -18.4548   25.3199 O   0  0  0  0  0  0  0  0  0  0  0  0
  2  1  1  6
  3  2  1  0
  4  2  1  0
  5  4  1  0
  5  6  1  1
  7  9  1  0
  7  5  1  0
  8  7  2  0
 10  9  1  0
 10 11  1  6
 12 16  1  0
 12 11  1  0
 13 12  2  0
 14 10  1  0
 14 17  1  0
 15 14  2  0
 18 17  1  0
 18 22  1  0
 18 19  1  1
 19 20  1  0
 20 24  1  0
 20 21  2  0
 22 23  1  0
 25 22  2  0
M  END
$$$$
