LDD.pdb
     RDKit          3D

 25 24  0  0  1  0  0  0  0  0999 V2000
    7.4729  -12.6006   21.3298 C   0  0  0  0  0  0  0  0  0  0  0  0
    8.2141  -13.5939   20.4991 C   0  0  2  0  0  0  0  0  0  0  0  0
    9.1277  -12.8881   19.5122 C   0  0  0  0  0  0  0  0  0  0  0  0
    7.3555  -14.6177   19.8266 C   0  0  0  0  0  0  0  0  0  0  0  0
    8.1119  -15.7647   19.2267 C   0  0  2  0  0  0  0  0  0  0  0  0
    7.3483  -16.6176   18.3811 N   0  0  0  0  0  0  0  0  0  0  0  0
    8.9000  -16.4889   20.2594 C   0  0  0  0  0  0  0  0  0  0  0  0
    8.2983  -17.1970   21.1409 O   0  0  0  0  0  0  0  0  0  0  0  0
   10.3022  -16.4591   20.3438 N   0  0  0  0  0  0  0  0  0  0  0  0
   11.0502  -17.2375   21.3241 C   0  0  1  0  0  0  0  0  0  0  0  0
   12.4418  -17.5301   20.7681 C   0  0  0  0  0  0  0  0  0  0  0  0
   13.2187  -18.4006   21.6555 C   0  0  0  0  0  0  0  0  0  0  0  0
   12.6945  -19.1829   22.4631 O   0  0  0  0  0  0  0  0  0  0  0  0
   11.1528  -16.5873   22.6336 C   0  0  0  0  0  0  0  0  0  0  0  0
   11.6640  -15.4501   22.6860 O   0  0  0  0  0  0  0  0  0  0  0  0
   14.6124  -18.3630   21.6035 O   0  0  0  0  0  0  0  0  0  0  0  0
   10.6999  -17.1701   23.8604 N   0  0  0  0  0  0  0  0  0  0  0  0
   10.6768  -16.4955   25.1211 C   0  0  1  0  0  0  0  0  0  0  0  0
    9.4812  -15.6058   25.3029 C   0  0  0  0  0  0  0  0  0  0  0  0
    9.5526  -14.7469   26.4845 C   0  0  0  0  0  0  0  0  0  0  0  0
   10.4962  -14.7977   27.3219 O   0  0  0  0  0  0  0  0  0  0  0  0
   10.7804  -17.4741   26.2152 C   0  0  0  0  0  0  0  0  0  0  0  0
   11.0045  -18.8329   26.0195 O   0  0  0  0  0  0  0  0  0  0  0  0
    8.5407  -13.8255   26.7201 O   0  0  0  0  0  0  0  0  0  0  0  0
   10.6649  -17.0895   27.4029 O   0  0  0  0  0  0  0  0  0  0  0  0
  2  1  1  6
  3  2  1  0
  4  2  1  0
  5  4  1  0
  5  6  1  1
  7  9  1  0
  7  5  1  0
  8  7  2  0
 10  9  1  0
 10 11  1  6
 12 16  1  0
 12 11  1  0
 13 12  2  0
 14 10  1  0
 14 17  1  0
 15 14  2  0
 18 17  1  0
 18 22  1  0
 18 19  1  1
 19 20  1  0
 20 24  1  0
 20 21  2  0
 22 23  1  0
 25 22  2  0
M  END
$$$$
