LDD.pdb
     RDKit          3D

 25 24  0  0  1  0  0  0  0  0999 V2000
    7.7083  -13.0493   19.4202 C   0  0  0  0  0  0  0  0  0  0  0  0
    7.6041  -13.4732   20.8469 C   0  0  2  0  0  0  0  0  0  0  0  0
    7.7090  -12.2714   21.7695 C   0  0  0  0  0  0  0  0  0  0  0  0
    8.5434  -14.5657   21.2492 C   0  0  0  0  0  0  0  0  0  0  0  0
    8.4612  -15.7986   20.4003 C   0  0  2  0  0  0  0  0  0  0  0  0
    7.1753  -16.4051   20.3361 N   0  0  0  0  0  0  0  0  0  0  0  0
    9.5598  -16.7482   20.7220 C   0  0  0  0  0  0  0  0  0  0  0  0
    9.3279  -17.7625   21.4690 O   0  0  0  0  0  0  0  0  0  0  0  0
   10.8769  -16.6170   20.2507 N   0  0  0  0  0  0  0  0  0  0  0  0
   11.9516  -17.5174   20.6515 C   0  0  1  0  0  0  0  0  0  0  0  0
   13.1754  -17.2488   19.7790 C   0  0  0  0  0  0  0  0  0  0  0  0
   14.3025  -18.1195   20.1263 C   0  0  0  0  0  0  0  0  0  0  0  0
   14.1578  -19.2395   20.6397 O   0  0  0  0  0  0  0  0  0  0  0  0
   12.3059  -17.4120   22.0698 C   0  0  0  0  0  0  0  0  0  0  0  0
   12.6075  -16.2869   22.5176 O   0  0  0  0  0  0  0  0  0  0  0  0
   15.6048  -17.6870   19.8745 O   0  0  0  0  0  0  0  0  0  0  0  0
   12.3247  -18.5169   22.9800 N   0  0  0  0  0  0  0  0  0  0  0  0
   12.3862  -18.3966   24.4036 C   0  0  1  0  0  0  0  0  0  0  0  0
   11.0439  -18.4812   25.0708 C   0  0  0  0  0  0  0  0  0  0  0  0
   11.0989  -18.4055   26.5303 C   0  0  0  0  0  0  0  0  0  0  0  0
   12.1790  -18.4134   27.1843 O   0  0  0  0  0  0  0  0  0  0  0  0
   13.3145  -19.3983   24.9516 C   0  0  0  0  0  0  0  0  0  0  0  0
   14.0554  -20.2772   24.1684 O   0  0  0  0  0  0  0  0  0  0  0  0
    9.9166  -18.3251   27.2542 O   0  0  0  0  0  0  0  0  0  0  0  0
   13.4674  -19.4871   26.1928 O   0  0  0  0  0  0  0  0  0  0  0  0
  2  1  1  6
  3  2  1  0
  4  2  1  0
  5  4  1  0
  5  6  1  1
  7  9  1  0
  7  5  1  0
  8  7  2  0
 10  9  1  0
 10 11  1  6
 12 16  1  0
 12 11  1  0
 13 12  2  0
 14 10  1  0
 14 17  1  0
 15 14  2  0
 18 17  1  0
 18 22  1  0
 18 19  1  1
 19 20  1  0
 20 24  1  0
 20 21  2  0
 22 23  1  0
 25 22  2  0
M  END
$$$$
