LDD.pdb
     RDKit          3D

 25 24  0  0  1  0  0  0  0  0999 V2000
    6.9619  -13.2837   19.0851 C   0  0  0  0  0  0  0  0  0  0  0  0
    7.2628  -13.5390   20.5239 C   0  0  2  0  0  0  0  0  0  0  0  0
    7.4840  -12.2307   21.2630 C   0  0  0  0  0  0  0  0  0  0  0  0
    8.3721  -14.5113   20.7721 C   0  0  0  0  0  0  0  0  0  0  0  0
    8.1911  -15.8425   20.1065 C   0  0  2  0  0  0  0  0  0  0  0  0
    6.9596  -16.4979   20.3881 N   0  0  0  0  0  0  0  0  0  0  0  0
    9.3886  -16.7047   20.2922 C   0  0  0  0  0  0  0  0  0  0  0  0
    9.4211  -17.5536   21.2508 O   0  0  0  0  0  0  0  0  0  0  0  0
   10.5250  -16.6620   19.4670 N   0  0  0  0  0  0  0  0  0  0  0  0
   11.7166  -17.4625   19.7231 C   0  0  1  0  0  0  0  0  0  0  0  0
   12.5517  -17.5318   18.4467 C   0  0  0  0  0  0  0  0  0  0  0  0
   11.9422  -18.4003   17.4352 C   0  0  0  0  0  0  0  0  0  0  0  0
   11.2434  -19.3844   17.7220 O   0  0  0  0  0  0  0  0  0  0  0  0
   12.5297  -16.9634   20.8357 C   0  0  0  0  0  0  0  0  0  0  0  0
   12.7496  -15.7366   20.8980 O   0  0  0  0  0  0  0  0  0  0  0  0
   12.1448  -18.1232   16.0829 O   0  0  0  0  0  0  0  0  0  0  0  0
   13.0867  -17.7919   21.8618 N   0  0  0  0  0  0  0  0  0  0  0  0
   13.8712  -17.3127   22.9572 C   0  0  1  0  0  0  0  0  0  0  0  0
   13.7867  -18.1802   24.1797 C   0  0  0  0  0  0  0  0  0  0  0  0
   14.5870  -17.7011   25.3060 C   0  0  0  0  0  0  0  0  0  0  0  0
   14.5802  -16.5015   25.7002 O   0  0  0  0  0  0  0  0  0  0  0  0
   15.2681  -17.1310   22.5318 C   0  0  0  0  0  0  0  0  0  0  0  0
   16.1863  -16.3357   23.2096 O   0  0  0  0  0  0  0  0  0  0  0  0
   15.4064  -18.5909   25.9880 O   0  0  0  0  0  0  0  0  0  0  0  0
   15.6830  -17.7151   21.5030 O   0  0  0  0  0  0  0  0  0  0  0  0
  2  1  1  6
  3  2  1  0
  4  2  1  0
  5  4  1  0
  5  6  1  1
  7  9  1  0
  7  5  1  0
  8  7  2  0
 10  9  1  0
 10 11  1  6
 12 16  1  0
 12 11  1  0
 13 12  2  0
 14 10  1  0
 14 17  1  0
 15 14  2  0
 18 17  1  0
 18 22  1  0
 18 19  1  1
 19 20  1  0
 20 24  1  0
 20 21  2  0
 22 23  1  0
 25 22  2  0
M  END
$$$$
