LDD.pdb
     RDKit          3D

 25 24  0  0  1  0  0  0  0  0999 V2000
    5.6981  -12.3930   25.1847 C   0  0  0  0  0  0  0  0  0  0  0  0
    6.2560  -13.1239   26.3597 C   0  0  2  0  0  0  0  0  0  0  0  0
    6.8228  -12.1474   27.3754 C   0  0  0  0  0  0  0  0  0  0  0  0
    7.2339  -14.2045   26.0224 C   0  0  0  0  0  0  0  0  0  0  0  0
    6.7055  -15.2498   25.0866 C   0  0  2  0  0  0  0  0  0  0  0  0
    5.5935  -15.9925   25.5739 N   0  0  0  0  0  0  0  0  0  0  0  0
    7.8043  -16.0944   24.5469 C   0  0  0  0  0  0  0  0  0  0  0  0
    7.8452  -17.3436   24.8269 O   0  0  0  0  0  0  0  0  0  0  0  0
    8.8345  -15.6129   23.7217 N   0  0  0  0  0  0  0  0  0  0  0  0
    9.8863  -16.4719   23.1904 C   0  0  1  0  0  0  0  0  0  0  0  0
   10.5826  -15.7497   22.0393 C   0  0  0  0  0  0  0  0  0  0  0  0
   11.6017  -16.5866   21.3989 C   0  0  0  0  0  0  0  0  0  0  0  0
   12.8024  -16.2770   21.3584 O   0  0  0  0  0  0  0  0  0  0  0  0
   10.8674  -16.8877   24.1968 C   0  0  0  0  0  0  0  0  0  0  0  0
   11.7809  -17.6604   23.8420 O   0  0  0  0  0  0  0  0  0  0  0  0
   11.2239  -17.7904   20.8034 O   0  0  0  0  0  0  0  0  0  0  0  0
   10.8501  -16.4614   25.5634 N   0  0  0  0  0  0  0  0  0  0  0  0
   11.7307  -16.9499   26.5786 C   0  0  1  0  0  0  0  0  0  0  0  0
   11.4397  -16.3941   27.9427 C   0  0  0  0  0  0  0  0  0  0  0  0
   11.2547  -14.9436   27.9673 C   0  0  0  0  0  0  0  0  0  0  0  0
   11.7485  -14.1673   27.1025 O   0  0  0  0  0  0  0  0  0  0  0  0
   11.7140  -18.4213   26.5913 C   0  0  0  0  0  0  0  0  0  0  0  0
   10.5521  -19.1826   26.5187 O   0  0  0  0  0  0  0  0  0  0  0  0
   10.5064  -14.3686   28.9860 O   0  0  0  0  0  0  0  0  0  0  0  0
   12.7945  -19.0522   26.6706 O   0  0  0  0  0  0  0  0  0  0  0  0
  2  1  1  6
  3  2  1  0
  4  2  1  0
  5  4  1  0
  5  6  1  1
  7  9  1  0
  7  5  1  0
  8  7  2  0
 10  9  1  0
 10 11  1  6
 12 16  1  0
 12 11  1  0
 13 12  2  0
 14 10  1  0
 14 17  1  0
 15 14  2  0
 18 17  1  0
 18 22  1  0
 18 19  1  1
 19 20  1  0
 20 24  1  0
 20 21  2  0
 22 23  1  0
 25 22  2  0
M  END
$$$$
