RTS.pdb
     RDKit          3D

 25 24  0  0  1  0  0  0  0  0999 V2000
   -7.8780  -30.1119   39.3034 N   0  0  0  0  0  0  0  0  0  0  0  0
   -7.1740  -28.9242   39.6898 C   0  0  0  0  0  0  0  0  0  0  0  0
   -7.2854  -28.5315   40.9070 N   0  0  0  0  0  0  0  0  0  0  0  0
   -6.4103  -28.2761   38.7029 N   0  0  0  0  0  0  0  0  0  0  0  0
   -6.2164  -28.9235   37.4218 C   0  0  0  0  0  0  0  0  0  0  0  0
   -5.3966  -27.9778   36.5705 C   0  0  0  0  0  0  0  0  0  0  0  0
   -5.1355  -28.5520   35.2166 C   0  0  0  0  0  0  0  0  0  0  0  0
   -4.3303  -27.6130   34.3222 C   0  0  2  0  0  0  0  0  0  0  0  0
   -4.5730  -26.2800   34.8077 N   0  0  0  0  0  0  0  0  0  0  0  0
   -4.9117  -27.8001   32.9440 C   0  0  0  0  0  0  0  0  0  0  0  0
   -4.7430  -28.8755   32.3152 O   0  0  0  0  0  0  0  0  0  0  0  0
   -6.8079  -27.6836   41.2152 C   0  0  0  0  0  0  0  0  0  0  0  0
   -8.5994  -27.1824   32.1010 C   0  0  2  0  0  0  0  0  0  0  0  0
   -7.7721  -26.4956   31.0725 O   0  0  0  0  0  0  0  0  0  0  0  0
   -7.7078  -25.1397   31.3901 C   0  0  2  0  0  0  0  0  0  0  0  0
   -6.3319  -26.9967   31.0271 N   0  0  0  0  0  0  0  0  0  0  0  0
   -5.6659  -26.7893   32.2978 C   0  0  0  0  0  0  0  0  0  0  0  0
   -5.5768  -26.3854   29.9059 O   0  0  0  0  0  0  0  0  0  0  0  0
   -4.5592  -25.6689   30.0799 O   0  0  0  0  0  0  0  0  0  0  0  0
   -3.1577  -26.1212   26.2888 C   0  0  0  0  0  0  0  0  0  0  0  0
   -3.7968  -26.6746   27.3924 C   0  0  2  0  0  0  0  0  0  0  0  0
   -5.1997  -26.1121   27.4277 N   0  0  0  0  0  0  0  0  0  0  0  0
   -5.9679  -26.5775   28.5306 C   0  0  0  0  0  0  0  0  0  0  0  0
   -5.8630  -26.4978   26.1595 O   0  0  0  0  0  0  0  0  0  0  0  0
   -5.4276  -26.0037   25.0850 O   0  0  0  0  0  0  0  0  0  0  0  0
  2  1  1  0
  2  3  2  0
  4  2  1  0
  5  4  1  0
  6  5  1  0
  7  8  1  0
  7  6  1  0
  8  9  1  1
 10 16  1  0
 10  8  1  0
 11 10  2  0
 13 15  1  0
 13 12  1  6
 14 13  1  0
 15 16  1  6
 17 18  2  0
 17 15  1  0
 19 20  1  0
 21 20  1  1
 21 22  1  0
 22 17  1  0
 23 21  1  0
 24 23  2  0
 25 23  1  0
M  END
$$$$
