RTS.pdb
     RDKit          3D

 25 24  0  0  1  0  0  0  0  0999 V2000
    2.9140  -19.8708   21.8984 N   0  0  0  0  0  0  0  0  0  0  0  0
    2.5492  -19.8398   20.5122 C   0  0  0  0  0  0  0  0  0  0  0  0
    1.8343  -20.8052   20.0594 N   0  0  0  0  0  0  0  0  0  0  0  0
    3.0030  -18.7492   19.7493 N   0  0  0  0  0  0  0  0  0  0  0  0
    4.3641  -18.2847   19.9212 C   0  0  0  0  0  0  0  0  0  0  0  0
    5.0789  -18.5211   18.6081 C   0  0  0  0  0  0  0  0  0  0  0  0
    6.5153  -18.1204   18.6907 C   0  0  0  0  0  0  0  0  0  0  0  0
    6.7547  -16.6835   18.2348 C   0  0  2  0  0  0  0  0  0  0  0  0
    7.2971  -16.7631   16.9040 N   0  0  0  0  0  0  0  0  0  0  0  0
    7.7738  -16.1367   19.2017 C   0  0  0  0  0  0  0  0  0  0  0  0
    8.9992  -16.3692   19.0447 O   0  0  0  0  0  0  0  0  0  0  0  0
    1.6614  -20.8853   19.0567 C   0  0  0  0  0  0  0  0  0  0  0  0
    7.9276  -12.4321   20.3539 C   0  0  2  0  0  0  0  0  0  0  0  0
    8.0120  -13.3108   21.5516 O   0  0  0  0  0  0  0  0  0  0  0  0
    6.7565  -13.3564   22.1558 C   0  0  2  0  0  0  0  0  0  0  0  0
    8.3811  -14.7523   21.2146 N   0  0  0  0  0  0  0  0  0  0  0  0
    7.4078  -15.3452   20.3188 C   0  0  0  0  0  0  0  0  0  0  0  0
    8.5677  -15.5682   22.4394 O   0  0  0  0  0  0  0  0  0  0  0  0
    7.6081  -16.0702   23.0769 O   0  0  0  0  0  0  0  0  0  0  0  0
   11.5471  -17.9717   22.9584 C   0  0  0  0  0  0  0  0  0  0  0  0
   10.5236  -18.0211   23.8980 C   0  0  1  0  0  0  0  0  0  0  0  0
   10.0907  -16.5974   24.1656 N   0  0  0  0  0  0  0  0  0  0  0  0
    9.8770  -15.8394   22.9812 C   0  0  0  0  0  0  0  0  0  0  0  0
   11.1500  -15.9590   24.9823 O   0  0  0  0  0  0  0  0  0  0  0  0
   11.7468  -14.9563   24.5061 O   0  0  0  0  0  0  0  0  0  0  0  0
  2  1  1  0
  2  3  2  0
  4  2  1  0
  5  4  1  0
  6  5  1  0
  7  8  1  0
  7  6  1  0
  8  9  1  6
 10 16  1  0
 10  8  1  0
 11 10  2  0
 13 15  1  0
 13 12  1  1
 14 13  1  0
 15 16  1  1
 17 18  2  0
 17 15  1  0
 19 20  1  0
 21 20  1  6
 21 22  1  0
 22 17  1  0
 23 21  1  0
 24 23  2  0
 25 23  1  0
M  END
$$$$
