RTS.pdb
     RDKit          3D

 25 24  0  0  1  0  0  0  0  0999 V2000
    6.6423  -12.3059   13.6803 N   0  0  0  0  0  0  0  0  0  0  0  0
    7.7242  -13.2361   13.5404 C   0  0  0  0  0  0  0  0  0  0  0  0
    8.4384  -13.1682   12.4757 N   0  0  0  0  0  0  0  0  0  0  0  0
    7.9235  -14.1566   14.5846 N   0  0  0  0  0  0  0  0  0  0  0  0
    8.6828  -13.7499   15.7490 C   0  0  0  0  0  0  0  0  0  0  0  0
    7.6914  -13.5624   16.8773 C   0  0  0  0  0  0  0  0  0  0  0  0
    7.6030  -14.7836   17.7326 C   0  0  0  0  0  0  0  0  0  0  0  0
    8.8435  -15.6671   17.6304 C   0  0  2  0  0  0  0  0  0  0  0  0
    8.6661  -16.4848   16.4593 N   0  0  0  0  0  0  0  0  0  0  0  0
    8.8241  -16.5058   18.8829 C   0  0  0  0  0  0  0  0  0  0  0  0
    7.9932  -17.4393   19.0193 O   0  0  0  0  0  0  0  0  0  0  0  0
    9.2136  -13.8178   12.3391 C   0  0  0  0  0  0  0  0  0  0  0  0
    9.1637  -19.1430   19.5774 C   0  0  2  0  0  0  0  0  0  0  0  0
   10.2059  -18.6304   20.5074 O   0  0  0  0  0  0  0  0  0  0  0  0
   11.4105  -18.5352   19.8123 C   0  0  2  0  0  0  0  0  0  0  0  0
    9.9025  -17.2327   21.0383 N   0  0  0  0  0  0  0  0  0  0  0  0
    9.7274  -16.2880   19.9529 C   0  0  0  0  0  0  0  0  0  0  0  0
   10.9369  -16.7780   21.9996 O   0  0  0  0  0  0  0  0  0  0  0  0
   12.0145  -16.2419   21.6385 O   0  0  0  0  0  0  0  0  0  0  0  0
   10.4735  -17.7601   25.9060 C   0  0  0  0  0  0  0  0  0  0  0  0
   11.2921  -16.6409   25.8048 C   0  0  1  0  0  0  0  0  0  0  0  0
   11.7653  -16.5589   24.3712 N   0  0  0  0  0  0  0  0  0  0  0  0
   10.7683  -16.9245   23.4250 C   0  0  0  0  0  0  0  0  0  0  0  0
   12.9337  -17.4612   24.2387 O   0  0  0  0  0  0  0  0  0  0  0  0
   12.8381  -18.4502   23.4633 O   0  0  0  0  0  0  0  0  0  0  0  0
  2  1  1  0
  2  3  2  0
  4  2  1  0
  5  4  1  0
  6  5  1  0
  7  8  1  0
  7  6  1  0
  8  9  1  6
 10 16  1  0
 10  8  1  0
 11 10  2  0
 13 15  1  0
 13 12  1  1
 14 13  1  0
 15 16  1  1
 17 18  2  0
 17 15  1  0
 19 20  1  0
 21 20  1  6
 21 22  1  0
 22 17  1  0
 23 21  1  0
 24 23  2  0
 25 23  1  0
M  END
$$$$
