RTS.pdb
     RDKit          3D

 25 24  0  0  1  0  0  0  0  0999 V2000
    9.8317  -12.6704   18.9750 N   0  0  0  0  0  0  0  0  0  0  0  0
    8.5154  -13.1823   19.2219 C   0  0  0  0  0  0  0  0  0  0  0  0
    7.6691  -12.4062   19.7961 N   0  0  0  0  0  0  0  0  0  0  0  0
    8.2485  -14.5012   18.8140 N   0  0  0  0  0  0  0  0  0  0  0  0
    9.3100  -15.2836   18.2150 C   0  0  0  0  0  0  0  0  0  0  0  0
    9.8106  -16.2350   19.2806 C   0  0  0  0  0  0  0  0  0  0  0  0
   11.0859  -15.7495   19.8877 C   0  0  0  0  0  0  0  0  0  0  0  0
   11.6242  -16.6906   20.9622 C   0  0  2  0  0  0  0  0  0  0  0  0
   10.9860  -17.9625   20.7469 N   0  0  0  0  0  0  0  0  0  0  0  0
   11.1827  -16.0788   22.2673 C   0  0  0  0  0  0  0  0  0  0  0  0
   11.6276  -14.9629   22.6378 O   0  0  0  0  0  0  0  0  0  0  0  0
    6.7204  -12.7339   19.9813 C   0  0  0  0  0  0  0  0  0  0  0  0
    7.8132  -15.0400   23.6448 C   0  0  2  0  0  0  0  0  0  0  0  0
    8.3927  -16.0470   24.5743 O   0  0  0  0  0  0  0  0  0  0  0  0
    7.8445  -17.2931   24.2739 C   0  0  2  0  0  0  0  0  0  0  0  0
    9.9045  -16.1954   24.4328 N   0  0  0  0  0  0  0  0  0  0  0  0
   10.2584  -16.7204   23.1288 C   0  0  0  0  0  0  0  0  0  0  0  0
   10.4769  -17.0161   25.5282 O   0  0  0  0  0  0  0  0  0  0  0  0
   10.9683  -18.1572   25.3398 O   0  0  0  0  0  0  0  0  0  0  0  0
   11.5801  -15.4130   29.1103 C   0  0  0  0  0  0  0  0  0  0  0  0
   10.9288  -16.6252   29.3086 C   0  0  2  0  0  0  0  0  0  0  0  0
   10.9291  -17.3567   27.9854 N   0  0  0  0  0  0  0  0  0  0  0  0
   10.5054  -16.5500   26.8933 C   0  0  0  0  0  0  0  0  0  0  0  0
   10.0250  -18.5229   28.1245 O   0  0  0  0  0  0  0  0  0  0  0  0
   10.2672  -19.3596   29.0354 O   0  0  0  0  0  0  0  0  0  0  0  0
  2  1  1  0
  2  3  2  0
  4  2  1  0
  5  4  1  0
  6  5  1  0
  7  8  1  0
  7  6  1  0
  8  9  1  6
 10 16  1  0
 10  8  1  0
 11 10  2  0
 13 15  1  0
 13 12  1  1
 14 13  1  0
 15 16  1  1
 17 18  2  0
 17 15  1  0
 19 20  1  0
 21 20  1  6
 21 22  1  0
 22 17  1  0
 23 21  1  0
 24 23  2  0
 25 23  1  0
M  END
$$$$
