RTS.pdb
     RDKit          3D

 25 24  0  0  1  0  0  0  0  0999 V2000
    6.8423  -13.4505   15.1419 N   0  0  0  0  0  0  0  0  0  0  0  0
    8.2304  -13.3687   14.7929 C   0  0  0  0  0  0  0  0  0  0  0  0
    8.5435  -12.7188   13.7308 N   0  0  0  0  0  0  0  0  0  0  0  0
    9.1491  -14.0082   15.6439 N   0  0  0  0  0  0  0  0  0  0  0  0
    8.6531  -14.8189   16.7369 C   0  0  0  0  0  0  0  0  0  0  0  0
    8.3098  -16.1749   16.1586 C   0  0  0  0  0  0  0  0  0  0  0  0
    9.2172  -17.2372   16.6867 C   0  0  0  0  0  0  0  0  0  0  0  0
    9.2199  -18.4950   15.8220 C   0  0  2  0  0  0  0  0  0  0  0  0
    7.8636  -18.6894   15.3812 N   0  0  0  0  0  0  0  0  0  0  0  0
    9.6496  -19.6013   16.7515 C   0  0  0  0  0  0  0  0  0  0  0  0
    8.8300  -20.1300   17.5446 O   0  0  0  0  0  0  0  0  0  0  0  0
    9.5159  -12.6831   13.4226 C   0  0  0  0  0  0  0  0  0  0  0  0
   11.6614  -22.7176   15.5579 C   0  0  2  0  0  0  0  0  0  0  0  0
   12.2981  -22.1627   16.7829 O   0  0  0  0  0  0  0  0  0  0  0  0
   13.3957  -21.3929   16.4009 C   0  0  2  0  0  0  0  0  0  0  0  0
   11.3768  -21.2382   17.5728 N   0  0  0  0  0  0  0  0  0  0  0  0
   10.9783  -20.0935   16.7777 C   0  0  0  0  0  0  0  0  0  0  0  0
   11.9903  -20.8257   18.8590 O   0  0  0  0  0  0  0  0  0  0  0  0
   12.4604  -19.6765   19.0525 O   0  0  0  0  0  0  0  0  0  0  0  0
   10.6626  -21.3506   22.5241 C   0  0  0  0  0  0  0  0  0  0  0  0
   11.8972  -21.9801   22.4135 C   0  0  2  0  0  0  0  0  0  0  0  0
   12.6192  -21.3502   21.2440 N   0  0  0  0  0  0  0  0  0  0  0  0
   12.0864  -21.7282   19.9805 C   0  0  0  0  0  0  0  0  0  0  0  0
   14.0410  -21.7603   21.3288 O   0  0  0  0  0  0  0  0  0  0  0  0
   14.5447  -22.3710   20.3482 O   0  0  0  0  0  0  0  0  0  0  0  0
  2  1  1  0
  2  3  2  0
  4  2  1  0
  5  4  1  0
  6  5  1  0
  7  8  1  0
  7  6  1  0
  8  9  1  1
 10 16  1  0
 10  8  1  0
 11 10  2  0
 13 15  1  0
 13 12  1  1
 14 13  1  0
 15 16  1  1
 17 18  2  0
 17 15  1  0
 19 20  1  0
 21 20  1  1
 21 22  1  0
 22 17  1  0
 23 21  1  0
 24 23  2  0
 25 23  1  0
M  END
$$$$
