RTS.pdb
     RDKit          3D

 25 24  0  0  1  0  0  0  0  0999 V2000
   14.2292  -22.3712   16.1700 N   0  0  0  0  0  0  0  0  0  0  0  0
   13.9963  -20.9580   16.2347 C   0  0  0  0  0  0  0  0  0  0  0  0
   14.9614  -20.1766   15.9091 N   0  0  0  0  0  0  0  0  0  0  0  0
   12.7225  -20.5319   16.6507 N   0  0  0  0  0  0  0  0  0  0  0  0
   11.8066  -21.4975   17.2222 C   0  0  0  0  0  0  0  0  0  0  0  0
   11.1561  -22.2253   16.0653 C   0  0  0  0  0  0  0  0  0  0  0  0
   10.3180  -23.3658   16.5422 C   0  0  0  0  0  0  0  0  0  0  0  0
    8.9159  -22.9330   16.9628 C   0  0  2  0  0  0  0  0  0  0  0  0
    8.7180  -21.6132   16.4238 N   0  0  0  0  0  0  0  0  0  0  0  0
    8.9578  -22.9005   18.4693 C   0  0  0  0  0  0  0  0  0  0  0  0
    8.2790  -22.0614   19.1138 O   0  0  0  0  0  0  0  0  0  0  0  0
   14.8319  -19.1647   15.9420 C   0  0  0  0  0  0  0  0  0  0  0  0
    9.5468  -25.3426   22.6730 C   0  0  2  0  0  0  0  0  0  0  0  0
    9.4506  -25.2339   21.1923 O   0  0  0  0  0  0  0  0  0  0  0  0
    8.1425  -25.5293   20.8113 C   0  0  1  0  0  0  0  0  0  0  0  0
    9.7446  -23.8300   20.6725 N   0  0  0  0  0  0  0  0  0  0  0  0
    9.7519  -23.8001   19.2232 C   0  0  0  0  0  0  0  0  0  0  0  0
   11.0059  -23.2919   21.2385 O   0  0  0  0  0  0  0  0  0  0  0  0
   12.1341  -23.5327   20.7402 O   0  0  0  0  0  0  0  0  0  0  0  0
   11.4311  -19.6999   22.4507 C   0  0  0  0  0  0  0  0  0  0  0  0
   11.9791  -20.4611   23.4769 C   0  0  2  0  0  0  0  0  0  0  0  0
   12.1972  -21.8554   22.9343 N   0  0  0  0  0  0  0  0  0  0  0  0
   11.0161  -22.4490   22.4094 C   0  0  0  0  0  0  0  0  0  0  0  0
   12.7215  -22.6852   24.0449 O   0  0  0  0  0  0  0  0  0  0  0  0
   11.9769  -23.5841   24.5202 O   0  0  0  0  0  0  0  0  0  0  0  0
  2  1  1  0
  2  3  2  0
  4  2  1  0
  5  4  1  0
  6  5  1  0
  7  8  1  0
  7  6  1  0
  8  9  1  6
 10 16  1  0
 10  8  1  0
 11 10  2  0
 13 15  1  0
 13 12  1  6
 14 13  1  0
 15 16  1  6
 17 18  2  0
 17 15  1  0
 19 20  1  0
 21 20  1  6
 21 22  1  0
 22 17  1  0
 23 21  1  0
 24 23  2  0
 25 23  1  0
M  END
$$$$
