RTS.pdb
     RDKit          3D

 25 24  0  0  1  0  0  0  0  0999 V2000
    7.8610  -12.4233   16.6848 N   0  0  0  0  0  0  0  0  0  0  0  0
    7.8565  -13.6716   15.9797 C   0  0  0  0  0  0  0  0  0  0  0  0
    7.9424  -13.6364   14.6992 N   0  0  0  0  0  0  0  0  0  0  0  0
    7.7589  -14.8462   16.7466 N   0  0  0  0  0  0  0  0  0  0  0  0
    7.8545  -14.7576   18.1892 C   0  0  0  0  0  0  0  0  0  0  0  0
    9.3095  -14.9713   18.5478 C   0  0  0  0  0  0  0  0  0  0  0  0
    9.5329  -14.8364   20.0183 C   0  0  0  0  0  0  0  0  0  0  0  0
    9.2635  -16.1327   20.7779 C   0  0  2  0  0  0  0  0  0  0  0  0
    7.8802  -16.4585   20.5503 N   0  0  0  0  0  0  0  0  0  0  0  0
    9.5065  -15.7893   22.2255 C   0  0  0  0  0  0  0  0  0  0  0  0
   10.3625  -14.9266   22.5471 O   0  0  0  0  0  0  0  0  0  0  0  0
    7.9723  -14.5060   14.1658 C   0  0  0  0  0  0  0  0  0  0  0  0
    7.5783  -14.0803   24.6840 C   0  0  2  0  0  0  0  0  0  0  0  0
    7.8646  -15.3977   25.3133 O   0  0  0  0  0  0  0  0  0  0  0  0
    6.7550  -16.2228   25.1363 C   0  0  2  0  0  0  0  0  0  0  0  0
    9.0470  -16.1228   24.6780 N   0  0  0  0  0  0  0  0  0  0  0  0
    8.7933  -16.4115   23.2803 C   0  0  0  0  0  0  0  0  0  0  0  0
    9.4063  -17.3474   25.4345 O   0  0  0  0  0  0  0  0  0  0  0  0
    8.9027  -18.4723   25.1896 O   0  0  0  0  0  0  0  0  0  0  0  0
   13.0113  -18.0195   26.9821 C   0  0  0  0  0  0  0  0  0  0  0  0
   12.0795  -19.0442   26.8612 C   0  0  1  0  0  0  0  0  0  0  0  0
   10.7347  -18.4771   27.2559 N   0  0  0  0  0  0  0  0  0  0  0  0
   10.3671  -17.3229   26.5105 C   0  0  0  0  0  0  0  0  0  0  0  0
   10.8029  -18.1393   28.6974 O   0  0  0  0  0  0  0  0  0  0  0  0
   11.0879  -19.0577   29.5120 O   0  0  0  0  0  0  0  0  0  0  0  0
  2  1  1  0
  2  3  2  0
  4  2  1  0
  5  4  1  0
  6  5  1  0
  7  8  1  0
  7  6  1  0
  8  9  1  1
 10 16  1  0
 10  8  1  0
 11 10  2  0
 13 15  1  0
 13 12  1  1
 14 13  1  0
 15 16  1  1
 17 18  2  0
 17 15  1  0
 19 20  1  0
 21 20  1  6
 21 22  1  0
 22 17  1  0
 23 21  1  0
 24 23  2  0
 25 23  1  0
M  END
$$$$
