RTS.pdb
     RDKit          3D

 25 24  0  0  1  0  0  0  0  0999 V2000
    9.1638  -18.9452   13.5610 N   0  0  0  0  0  0  0  0  0  0  0  0
    9.0761  -18.1530   12.3693 C   0  0  0  0  0  0  0  0  0  0  0  0
    8.6191  -18.7147   11.3092 N   0  0  0  0  0  0  0  0  0  0  0  0
    9.4980  -16.8141   12.4513 N   0  0  0  0  0  0  0  0  0  0  0  0
    9.9768  -16.3010   13.7183 C   0  0  0  0  0  0  0  0  0  0  0  0
    8.8043  -16.3279   14.6753 C   0  0  0  0  0  0  0  0  0  0  0  0
    9.2079  -15.8832   16.0428 C   0  0  0  0  0  0  0  0  0  0  0  0
    8.1539  -15.0062   16.7135 C   0  0  2  0  0  0  0  0  0  0  0  0
    7.9631  -13.8682   15.8532 N   0  0  0  0  0  0  0  0  0  0  0  0
    8.7725  -14.5942   18.0250 C   0  0  0  0  0  0  0  0  0  0  0  0
    9.5813  -13.6334   18.0812 O   0  0  0  0  0  0  0  0  0  0  0  0
    8.5416  -18.1816   10.4423 C   0  0  0  0  0  0  0  0  0  0  0  0
    7.5021  -12.7864   20.4953 C   0  0  2  0  0  0  0  0  0  0  0  0
    7.9567  -13.9744   21.2671 O   0  0  0  0  0  0  0  0  0  0  0  0
    6.8589  -14.8046   21.4883 C   0  0  2  0  0  0  0  0  0  0  0  0
    8.9901  -14.8148   20.5232 N   0  0  0  0  0  0  0  0  0  0  0  0
    8.4783  -15.2586   19.2417 C   0  0  0  0  0  0  0  0  0  0  0  0
    9.4639  -15.9529   21.3485 O   0  0  0  0  0  0  0  0  0  0  0  0
    8.9236  -17.0871   21.3199 O   0  0  0  0  0  0  0  0  0  0  0  0
   13.1265  -15.7910   23.1705 C   0  0  0  0  0  0  0  0  0  0  0  0
   12.5742  -17.0547   22.9956 C   0  0  1  0  0  0  0  0  0  0  0  0
   11.0712  -16.8987   23.0458 N   0  0  0  0  0  0  0  0  0  0  0  0
   10.5870  -15.8273   22.2453 C   0  0  0  0  0  0  0  0  0  0  0  0
   10.6969  -16.6721   24.4619 O   0  0  0  0  0  0  0  0  0  0  0  0
   11.0536  -17.5268   25.3167 O   0  0  0  0  0  0  0  0  0  0  0  0
  2  1  1  0
  2  3  2  0
  4  2  1  0
  5  4  1  0
  6  5  1  0
  7  8  1  0
  7  6  1  0
  8  9  1  6
 10 16  1  0
 10  8  1  0
 11 10  2  0
 13 15  1  0
 13 12  1  1
 14 13  1  0
 15 16  1  1
 17 18  2  0
 17 15  1  0
 19 20  1  0
 21 20  1  6
 21 22  1  0
 22 17  1  0
 23 21  1  0
 24 23  2  0
 25 23  1  0
M  END
$$$$
