RTS.pdb
     RDKit          3D

 25 24  0  0  1  0  0  0  0  0999 V2000
    9.2391  -12.5884   19.1257 N   0  0  0  0  0  0  0  0  0  0  0  0
    7.8942  -13.0459   18.9324 C   0  0  0  0  0  0  0  0  0  0  0  0
    7.2421  -12.5813   17.9288 N   0  0  0  0  0  0  0  0  0  0  0  0
    7.3882  -13.9739   19.8598 N   0  0  0  0  0  0  0  0  0  0  0  0
    8.2882  -14.5690   20.8261 C   0  0  0  0  0  0  0  0  0  0  0  0
    9.3207  -15.3507   20.0426 C   0  0  0  0  0  0  0  0  0  0  0  0
    9.0162  -16.8129   20.0490 C   0  0  0  0  0  0  0  0  0  0  0  0
   10.1052  -17.6458   19.3779 C   0  0  2  0  0  0  0  0  0  0  0  0
    9.5281  -18.1736   18.1696 N   0  0  0  0  0  0  0  0  0  0  0  0
   10.4068  -18.7495   20.3594 C   0  0  0  0  0  0  0  0  0  0  0  0
    9.5440  -19.6227   20.6307 O   0  0  0  0  0  0  0  0  0  0  0  0
    6.2832  -12.8864   17.7580 C   0  0  0  0  0  0  0  0  0  0  0  0
   12.8008  -21.3890   19.9995 C   0  0  2  0  0  0  0  0  0  0  0  0
   13.1224  -20.8016   21.3281 O   0  0  0  0  0  0  0  0  0  0  0  0
   14.2158  -19.9493   21.1818 C   0  0  2  0  0  0  0  0  0  0  0  0
   11.9896  -19.9555   21.9011 N   0  0  0  0  0  0  0  0  0  0  0  0
   11.6583  -18.8569   21.0154 C   0  0  0  0  0  0  0  0  0  0  0  0
   12.3030  -19.4802   23.2711 O   0  0  0  0  0  0  0  0  0  0  0  0
   12.9097  -18.4032   23.4969 O   0  0  0  0  0  0  0  0  0  0  0  0
   10.3011  -20.9726   26.4110 C   0  0  0  0  0  0  0  0  0  0  0  0
   11.0315  -19.8229   26.6898 C   0  0  1  0  0  0  0  0  0  0  0  0
   12.2306  -19.8186   25.7689 N   0  0  0  0  0  0  0  0  0  0  0  0
   11.9265  -20.2332   24.4427 C   0  0  0  0  0  0  0  0  0  0  0  0
   13.2428  -20.7281   26.3563 O   0  0  0  0  0  0  0  0  0  0  0  0
   13.6192  -21.7199   25.6759 O   0  0  0  0  0  0  0  0  0  0  0  0
  2  1  1  0
  2  3  2  0
  4  2  1  0
  5  4  1  0
  6  5  1  0
  7  8  1  0
  7  6  1  0
  8  9  1  6
 10 16  1  0
 10  8  1  0
 11 10  2  0
 13 15  1  0
 13 12  1  1
 14 13  1  0
 15 16  1  1
 17 18  2  0
 17 15  1  0
 19 20  1  0
 21 20  1  6
 21 22  1  0
 22 17  1  0
 23 21  1  0
 24 23  2  0
 25 23  1  0
M  END
$$$$
