CYR.pdb
     RDKit          3D

 30 30  0  0  1  0  0  0  0  0999 V2000
   10.2231  -16.2688   18.5771 N   0  0  0  0  0  0  0  0  0  0  0  0
    9.0454  -16.3908   19.3825 C   0  0  1  0  0  0  0  0  0  0  0  0
    8.6387  -17.8531   19.4370 C   0  0  0  0  0  0  0  0  0  0  0  0
    7.8133  -18.3510   17.9040 S   0  0  0  0  0  0  0  0  0  0  0  0
    9.2259  -15.8419   20.7507 C   0  0  0  0  0  0  0  0  0  0  0  0
   10.3210  -15.9879   21.3082 O   0  0  0  0  0  0  0  0  0  0  0  0
    7.3633  -11.2942   28.1656 O   0  0  0  0  0  0  0  0  0  0  0  0
    7.2956  -11.8904   26.8997 C   0  0  0  0  0  0  0  0  0  0  0  0
    8.2684  -11.6842   25.9522 C   0  0  0  0  0  0  0  0  0  0  0  0
    8.2063  -12.2680   24.7063 C   0  0  0  0  0  0  0  0  0  0  0  0
    7.1510  -13.0875   24.3705 C   0  0  0  0  0  0  0  0  0  0  0  0
    7.1200  -13.6918   23.0353 C   0  0  0  0  0  0  0  0  0  0  0  0
    8.3010  -14.5918   22.7456 C   0  0  2  0  0  0  0  0  0  0  0  0
    8.1890  -15.1711   21.4094 N   0  0  0  0  0  0  0  0  0  0  0  0
    8.6384  -15.5497   23.7807 C   0  0  0  0  0  0  0  0  0  0  0  0
    8.8398  -15.1635   24.9537 O   0  0  0  0  0  0  0  0  0  0  0  0
    6.1822  -13.2900   25.3208 C   0  0  0  0  0  0  0  0  0  0  0  0
    6.2356  -12.7091   26.5725 C   0  0  0  0  0  0  0  0  0  0  0  0
    9.3092  -24.2936   23.7773 N   0  0  0  0  0  0  0  0  0  0  0  0
    8.8922  -23.2350   22.8951 C   0  0  0  0  0  0  0  0  0  0  0  0
    8.0137  -23.4757   21.9738 N   0  0  0  0  0  0  0  0  0  0  0  0
    9.4069  -21.9282   22.9926 N   0  0  0  0  0  0  0  0  0  0  0  0
   10.3094  -21.5515   24.0504 C   0  0  0  0  0  0  0  0  0  0  0  0
    9.8736  -20.2888   24.7531 C   0  0  0  0  0  0  0  0  0  0  0  0
    9.5445  -19.1938   23.7650 C   0  0  0  0  0  0  0  0  0  0  0  0
    9.0761  -17.9321   24.4752 C   0  0  2  0  0  0  0  0  0  0  0  0
    8.7455  -16.9283   23.5000 N   0  0  0  0  0  0  0  0  0  0  0  0
   10.2175  -17.4676   25.2828 C   0  0  0  0  0  0  0  0  0  0  0  0
   10.2489  -17.7250   26.5062 O   0  0  0  0  0  0  0  0  0  0  0  0
   11.2818  -16.7466   24.7559 O   0  0  0  0  0  0  0  0  0  0  0  0
  2  1  1  6
  2  3  1  0
  3  4  1  0
  5  2  1  0
  6  5  2  0
  8  9  2  0
  8  7  1  0
 10  9  1  0
 11 10  2  0
 12 11  1  0
 13 12  1  1
 13 14  1  0
 14  5  1  0
 15 27  1  0
 15 13  1  0
 16 15  2  0
 17 11  1  0
 17 18  2  0
 18  8  1  0
 20 19  1  0
 21 20  2  0
 22 20  1  0
 23 22  1  0
 24 23  1  0
 25 24  1  0
 26 25  1  6
 26 27  1  0
 28 30  1  0
 28 26  1  0
 29 28  2  0
M  END
$$$$
