CYR.pdb
     RDKit          3D

 30 30  0  0  1  0  0  0  0  0999 V2000
    7.6948  -12.7306   19.6233 N   0  0  0  0  0  0  0  0  0  0  0  0
    6.9826  -13.2104   20.7692 C   0  0  1  0  0  0  0  0  0  0  0  0
    6.0748  -14.3497   20.3398 C   0  0  0  0  0  0  0  0  0  0  0  0
    7.0286  -15.8620   20.0526 S   0  0  0  0  0  0  0  0  0  0  0  0
    7.8849  -13.6399   21.8679 C   0  0  0  0  0  0  0  0  0  0  0  0
    9.0620  -13.9095   21.5971 O   0  0  0  0  0  0  0  0  0  0  0  0
   10.5864  -15.5282   30.1382 O   0  0  0  0  0  0  0  0  0  0  0  0
    9.8422  -15.1220   29.0229 C   0  0  0  0  0  0  0  0  0  0  0  0
    9.1134  -16.0162   28.2773 C   0  0  0  0  0  0  0  0  0  0  0  0
    8.3802  -15.6217   27.1801 C   0  0  0  0  0  0  0  0  0  0  0  0
    8.3569  -14.2994   26.7940 C   0  0  0  0  0  0  0  0  0  0  0  0
    7.5643  -13.9174   25.6215 C   0  0  0  0  0  0  0  0  0  0  0  0
    8.2381  -14.2267   24.3027 C   0  0  2  0  0  0  0  0  0  0  0  0
    7.4290  -13.7426   23.1872 N   0  0  0  0  0  0  0  0  0  0  0  0
    8.7213  -15.5842   24.1395 C   0  0  0  0  0  0  0  0  0  0  0  0
    7.9265  -16.5034   23.8416 O   0  0  0  0  0  0  0  0  0  0  0  0
    9.0867  -13.4106   27.5424 C   0  0  0  0  0  0  0  0  0  0  0  0
    9.8248  -13.7965   28.6439 C   0  0  0  0  0  0  0  0  0  0  0  0
   13.9615  -18.5953   18.3405 N   0  0  0  0  0  0  0  0  0  0  0  0
   13.7830  -19.6992   19.2472 C   0  0  0  0  0  0  0  0  0  0  0  0
   14.1147  -20.8953   18.8758 N   0  0  0  0  0  0  0  0  0  0  0  0
   13.2545  -19.5316   20.5415 N   0  0  0  0  0  0  0  0  0  0  0  0
   12.7744  -18.2527   20.9987 C   0  0  0  0  0  0  0  0  0  0  0  0
   12.2917  -18.2993   22.4281 C   0  0  0  0  0  0  0  0  0  0  0  0
   11.6817  -16.9817   22.8469 C   0  0  0  0  0  0  0  0  0  0  0  0
   10.6693  -17.1735   23.9666 C   0  0  2  0  0  0  0  0  0  0  0  0
   10.0853  -15.9041   24.3069 N   0  0  0  0  0  0  0  0  0  0  0  0
   11.4267  -17.6852   25.1220 C   0  0  0  0  0  0  0  0  0  0  0  0
   11.9920  -18.7978   25.0414 O   0  0  0  0  0  0  0  0  0  0  0  0
   11.5529  -16.9918   26.3193 O   0  0  0  0  0  0  0  0  0  0  0  0
  2  1  1  6
  2  3  1  0
  3  4  1  0
  5  2  1  0
  6  5  2  0
  8  9  2  0
  8  7  1  0
 10  9  1  0
 11 10  2  0
 12 11  1  0
 13 12  1  1
 13 14  1  0
 14  5  1  0
 15 27  1  0
 15 13  1  0
 16 15  2  0
 17 11  1  0
 17 18  2  0
 18  8  1  0
 20 19  1  0
 21 20  2  0
 22 20  1  0
 23 22  1  0
 24 23  1  0
 25 24  1  0
 26 25  1  6
 26 27  1  0
 28 30  1  0
 28 26  1  0
 29 28  2  0
M  END
$$$$
