CYR.pdb
     RDKit          3D

 30 30  0  0  1  0  0  0  0  0999 V2000
    7.1245  -21.1992   21.4204 N   0  0  0  0  0  0  0  0  0  0  0  0
    7.7466  -20.9355   20.1578 C   0  0  1  0  0  0  0  0  0  0  0  0
    6.7260  -21.1527   19.0543 C   0  0  0  0  0  0  0  0  0  0  0  0
    7.5423  -21.3515   17.4501 S   0  0  0  0  0  0  0  0  0  0  0  0
    8.3281  -19.5713   20.0778 C   0  0  0  0  0  0  0  0  0  0  0  0
    9.5065  -19.4494   19.7199 O   0  0  0  0  0  0  0  0  0  0  0  0
    8.5854  -10.6963   19.7575 O   0  0  0  0  0  0  0  0  0  0  0  0
    8.1800  -12.0243   19.9437 C   0  0  0  0  0  0  0  0  0  0  0  0
    8.0641  -12.8977   18.8900 C   0  0  0  0  0  0  0  0  0  0  0  0
    7.6660  -14.2042   19.0680 C   0  0  0  0  0  0  0  0  0  0  0  0
    7.3683  -14.6786   20.3267 C   0  0  0  0  0  0  0  0  0  0  0  0
    6.9488  -16.0752   20.4768 C   0  0  0  0  0  0  0  0  0  0  0  0
    8.0827  -17.0691   20.3543 C   0  0  2  0  0  0  0  0  0  0  0  0
    7.5727  -18.4371   20.3971 N   0  0  0  0  0  0  0  0  0  0  0  0
    9.2272  -16.8359   21.2137 C   0  0  0  0  0  0  0  0  0  0  0  0
   10.2027  -16.1728   20.7961 O   0  0  0  0  0  0  0  0  0  0  0  0
    7.4857  -13.8017   21.3755 C   0  0  0  0  0  0  0  0  0  0  0  0
    7.8841  -12.4903   21.2071 C   0  0  0  0  0  0  0  0  0  0  0  0
   11.6256  -20.7919   28.9519 N   0  0  0  0  0  0  0  0  0  0  0  0
   12.5200  -19.6852   28.7327 C   0  0  0  0  0  0  0  0  0  0  0  0
   13.4626  -19.4424   29.5876 N   0  0  0  0  0  0  0  0  0  0  0  0
   12.4119  -18.8418   27.6105 N   0  0  0  0  0  0  0  0  0  0  0  0
   11.2612  -18.8842   26.7449 C   0  0  0  0  0  0  0  0  0  0  0  0
   11.3722  -17.9120   25.5957 C   0  0  0  0  0  0  0  0  0  0  0  0
   10.2029  -18.0437   24.6476 C   0  0  0  0  0  0  0  0  0  0  0  0
   10.3602  -17.1232   23.4461 C   0  0  2  0  0  0  0  0  0  0  0  0
    9.2730  -17.3409   22.5303 N   0  0  0  0  0  0  0  0  0  0  0  0
   11.6261  -17.5071   22.7975 C   0  0  0  0  0  0  0  0  0  0  0  0
   12.6333  -16.7793   22.9384 O   0  0  0  0  0  0  0  0  0  0  0  0
   11.7704  -18.6517   22.0236 O   0  0  0  0  0  0  0  0  0  0  0  0
  2  1  1  1
  2  3  1  0
  3  4  1  0
  5  2  1  0
  6  5  2  0
  8  9  2  0
  8  7  1  0
 10  9  1  0
 11 10  2  0
 12 11  1  0
 13 12  1  1
 13 14  1  0
 14  5  1  0
 15 27  1  0
 15 13  1  0
 16 15  2  0
 17 11  1  0
 17 18  2  0
 18  8  1  0
 20 19  1  0
 21 20  2  0
 22 20  1  0
 23 22  1  0
 24 23  1  0
 25 24  1  0
 26 25  1  1
 26 27  1  0
 28 30  1  0
 28 26  1  0
 29 28  2  0
M  END
$$$$
