MAI.pdb
     RDKit          3D

 22 21  0  0  1  0  0  0  0  0999 V2000
    5.8014  -19.4738   23.3237 C   0  0  0  0  0  0  0  0  0  0  0  0
    4.8239  -18.4712   22.1978 S   0  0  0  0  0  0  0  0  0  0  0  0
    5.7009  -16.9625   21.7066 C   0  0  0  0  0  0  0  0  0  0  0  0
    6.5007  -16.4475   22.9032 C   0  0  0  0  0  0  0  0  0  0  0  0
    7.2550  -15.2104   22.4625 C   0  0  2  0  0  0  0  0  0  0  0  0
    8.0805  -15.5446   21.3434 N   0  0  0  0  0  0  0  0  0  0  0  0
    8.0211  -14.7035   23.6229 C   0  0  0  0  0  0  0  0  0  0  0  0
    9.1672  -15.1781   23.8339 O   0  0  0  0  0  0  0  0  0  0  0  0
    7.4147  -12.3378   26.4642 C   0  0  0  0  0  0  0  0  0  0  0  0
    8.2406  -13.3700   25.7454 C   0  0  2  0  0  0  0  0  0  0  0  0
    7.5511  -13.7150   24.5181 N   0  0  0  0  0  0  0  0  0  0  0  0
    8.4516  -14.5444   26.6279 C   0  0  0  0  0  0  0  0  0  0  0  0
    7.4600  -15.3000   26.7804 O   0  0  0  0  0  0  0  0  0  0  0  0
   11.8573  -18.2387   25.4990 C   0  0  0  0  0  0  0  0  0  0  0  0
   10.7955  -17.3625   26.0657 C   0  0  0  0  0  0  0  0  0  0  0  0
   10.9934  -16.9309   27.4877 C   0  0  2  0  0  0  0  0  0  0  0  0
   11.0928  -18.2070   28.3152 C   0  0  0  0  0  0  0  0  0  0  0  0
    9.9781  -15.9989   28.0365 C   0  0  2  0  0  0  0  0  0  0  0  0
    9.6885  -14.8307   27.2796 N   0  0  0  0  0  0  0  0  0  0  0  0
   10.2832  -15.5971   29.4472 C   0  0  0  0  0  0  0  0  0  0  0  0
   10.4690  -14.2639   29.7523 O   0  0  0  0  0  0  0  0  0  0  0  0
   10.3726  -16.4425   30.3507 O   0  0  0  0  0  0  0  0  0  0  0  0
  2  1  1  0
  3  4  1  0
  3  2  1  0
  4  5  1  0
  5  7  1  0
  5  6  1  6
  7 11  1  0
  7  8  2  0
 10  9  1  1
 10 12  1  0
 11 10  1  0
 12 19  1  0
 12 13  2  0
 14 15  1  0
 16 18  1  0
 16 15  1  0
 16 17  1  1
 18 20  1  0
 18 19  1  6
 20 21  1  0
 22 20  2  0
M  END
$$$$
