MAI.pdb
     RDKit          3D

 22 21  0  0  1  0  0  0  0  0999 V2000
    7.9001  -11.6772   20.0797 C   0  0  0  0  0  0  0  0  0  0  0  0
    7.8042  -12.6482   18.5710 S   0  0  0  0  0  0  0  0  0  0  0  0
    8.2001  -14.3924   18.8673 C   0  0  0  0  0  0  0  0  0  0  0  0
    7.8971  -14.7234   20.3286 C   0  0  0  0  0  0  0  0  0  0  0  0
    8.2376  -16.1814   20.5568 C   0  0  2  0  0  0  0  0  0  0  0  0
    7.3227  -16.9929   19.8153 N   0  0  0  0  0  0  0  0  0  0  0  0
    8.1980  -16.4383   22.0138 C   0  0  0  0  0  0  0  0  0  0  0  0
    7.1582  -16.1206   22.6471 O   0  0  0  0  0  0  0  0  0  0  0  0
   10.0459  -18.4540   24.4886 C   0  0  0  0  0  0  0  0  0  0  0  0
    9.1860  -17.2590   24.1776 C   0  0  2  0  0  0  0  0  0  0  0  0
    9.2557  -17.0207   22.7496 N   0  0  0  0  0  0  0  0  0  0  0  0
    9.6457  -16.0922   24.9713 C   0  0  0  0  0  0  0  0  0  0  0  0
   10.7161  -15.5576   24.5895 O   0  0  0  0  0  0  0  0  0  0  0  0
    6.3988  -12.0623   27.3015 C   0  0  0  0  0  0  0  0  0  0  0  0
    7.1790  -13.3283   27.3703 C   0  0  0  0  0  0  0  0  0  0  0  0
    8.5951  -13.2513   26.8842 C   0  0  2  0  0  0  0  0  0  0  0  0
    8.5350  -12.6834   25.4710 C   0  0  0  0  0  0  0  0  0  0  0  0
    9.3748  -14.5123   26.9361 C   0  0  2  0  0  0  0  0  0  0  0  0
    8.9431  -15.5807   26.1032 N   0  0  0  0  0  0  0  0  0  0  0  0
    9.5308  -15.0235   28.3356 C   0  0  0  0  0  0  0  0  0  0  0  0
   10.1117  -14.2193   29.2953 O   0  0  0  0  0  0  0  0  0  0  0  0
    9.1465  -16.1602   28.6508 O   0  0  0  0  0  0  0  0  0  0  0  0
  2  1  1  0
  3  4  1  0
  3  2  1  0
  4  5  1  0
  5  7  1  0
  5  6  1  6
  7 11  1  0
  7  8  2  0
 10  9  1  6
 10 12  1  0
 11 10  1  0
 12 19  1  0
 12 13  2  0
 14 15  1  0
 16 18  1  0
 16 15  1  0
 16 17  1  6
 18 20  1  0
 18 19  1  6
 20 21  1  0
 22 20  2  0
M  END
$$$$
