MAI.pdb
     RDKit          3D

 22 21  0  0  1  0  0  0  0  0999 V2000
    6.1705  -11.5156   25.3979 C   0  0  0  0  0  0  0  0  0  0  0  0
    5.6955  -13.1934   25.8310 S   0  0  0  0  0  0  0  0  0  0  0  0
    6.2220  -14.3875   24.5726 C   0  0  0  0  0  0  0  0  0  0  0  0
    6.2731  -15.7780   25.2057 C   0  0  0  0  0  0  0  0  0  0  0  0
    6.6280  -16.7722   24.1198 C   0  0  2  0  0  0  0  0  0  0  0  0
    5.8720  -17.9693   24.3218 N   0  0  0  0  0  0  0  0  0  0  0  0
    8.0911  -16.9913   24.1599 C   0  0  0  0  0  0  0  0  0  0  0  0
    8.5353  -17.9189   24.8848 O   0  0  0  0  0  0  0  0  0  0  0  0
   11.0981  -15.6468   22.3852 C   0  0  0  0  0  0  0  0  0  0  0  0
   10.4516  -16.5179   23.4281 C   0  0  2  0  0  0  0  0  0  0  0  0
    9.0322  -16.2248   23.4344 N   0  0  0  0  0  0  0  0  0  0  0  0
   11.0878  -16.2749   24.7467 C   0  0  0  0  0  0  0  0  0  0  0  0
   12.2868  -15.9023   24.7160 O   0  0  0  0  0  0  0  0  0  0  0  0
    9.2963  -12.8006   28.1995 C   0  0  0  0  0  0  0  0  0  0  0  0
   10.2401  -13.7468   27.5437 C   0  0  0  0  0  0  0  0  0  0  0  0
   10.2613  -15.1395   28.0985 C   0  0  2  0  0  0  0  0  0  0  0  0
   10.8622  -15.0374   29.4955 C   0  0  0  0  0  0  0  0  0  0  0  0
   10.9545  -16.1614   27.2764 C   0  0  2  0  0  0  0  0  0  0  0  0
   10.4124  -16.4430   25.9926 N   0  0  0  0  0  0  0  0  0  0  0  0
   11.1402  -17.4510   28.0158 C   0  0  0  0  0  0  0  0  0  0  0  0
   10.3226  -18.5257   27.7301 O   0  0  0  0  0  0  0  0  0  0  0  0
   12.0182  -17.5731   28.8837 O   0  0  0  0  0  0  0  0  0  0  0  0
  2  1  1  0
  3  4  1  0
  3  2  1  0
  4  5  1  0
  5  7  1  0
  5  6  1  1
  7 11  1  0
  7  8  2  0
 10  9  1  6
 10 12  1  0
 11 10  1  0
 12 19  1  0
 12 13  2  0
 14 15  1  0
 16 18  1  0
 16 15  1  0
 16 17  1  1
 18 20  1  0
 18 19  1  6
 20 21  1  0
 22 20  2  0
M  END
$$$$
