MAI.pdb
     RDKit          3D

 22 21  0  0  1  0  0  0  0  0999 V2000
    8.0431  -17.9916   28.1241 C   0  0  0  0  0  0  0  0  0  0  0  0
    6.4889  -17.7885   27.2457 S   0  0  0  0  0  0  0  0  0  0  0  0
    6.7232  -17.8196   25.4483 C   0  0  0  0  0  0  0  0  0  0  0  0
    6.9031  -19.2704   25.0014 C   0  0  0  0  0  0  0  0  0  0  0  0
    7.2193  -19.2664   23.5203 C   0  0  2  0  0  0  0  0  0  0  0  0
    7.3422  -20.6179   23.0687 N   0  0  0  0  0  0  0  0  0  0  0  0
    8.4489  -18.4683   23.3167 C   0  0  0  0  0  0  0  0  0  0  0  0
    9.5463  -18.9582   23.6896 O   0  0  0  0  0  0  0  0  0  0  0  0
    9.4732  -15.4076   21.4797 C   0  0  0  0  0  0  0  0  0  0  0  0
    9.6926  -16.4078   22.5823 C   0  0  2  0  0  0  0  0  0  0  0  0
    8.4767  -17.1831   22.7276 N   0  0  0  0  0  0  0  0  0  0  0  0
   10.0678  -15.7002   23.8318 C   0  0  0  0  0  0  0  0  0  0  0  0
   11.0907  -14.9746   23.7641 O   0  0  0  0  0  0  0  0  0  0  0  0
    6.1581  -13.2030   26.5882 C   0  0  0  0  0  0  0  0  0  0  0  0
    7.4412  -13.6462   25.9771 C   0  0  0  0  0  0  0  0  0  0  0  0
    8.3510  -14.4377   26.8678 C   0  0  2  0  0  0  0  0  0  0  0  0
    8.7312  -13.5176   28.0219 C   0  0  0  0  0  0  0  0  0  0  0  0
    9.5476  -15.0301   26.2214 C   0  0  2  0  0  0  0  0  0  0  0  0
    9.3376  -15.8122   25.0527 N   0  0  0  0  0  0  0  0  0  0  0  0
   10.3801  -15.8176   27.1864 C   0  0  0  0  0  0  0  0  0  0  0  0
   11.1997  -15.1564   28.0787 O   0  0  0  0  0  0  0  0  0  0  0  0
   10.3475  -17.0577   27.1997 O   0  0  0  0  0  0  0  0  0  0  0  0
  2  1  1  0
  3  4  1  0
  3  2  1  0
  4  5  1  0
  5  7  1  0
  5  6  1  1
  7 11  1  0
  7  8  2  0
 10  9  1  6
 10 12  1  0
 11 10  1  0
 12 19  1  0
 12 13  2  0
 14 15  1  0
 16 18  1  0
 16 15  1  0
 16 17  1  1
 18 20  1  0
 18 19  1  6
 20 21  1  0
 22 20  2  0
M  END
$$$$
