VLG.pdb
     RDKit          3D

 20 19  0  0  1  0  0  0  0  0999 V2000
   19.9482   -9.7012  -20.6608 C   0  0  0  0  0  0  0  0  0  0  0  0
   19.5938  -11.1392  -20.3447 C   0  0  1  0  0  0  0  0  0  0  0  0
   19.7756  -11.9719  -21.5684 C   0  0  0  0  0  0  0  0  0  0  0  0
   20.4619  -11.5754  -19.1864 C   0  0  2  0  0  0  0  0  0  0  0  0
   20.2046  -12.9611  -18.8499 N   0  0  0  0  0  0  0  0  0  0  0  0
   20.2918  -10.7415  -17.9958 C   0  0  0  0  0  0  0  0  0  0  0  0
   19.2532  -10.8838  -17.2678 O   0  0  0  0  0  0  0  0  0  0  0  0
   21.5490  -10.7581  -13.9019 C   0  0  0  0  0  0  0  0  0  0  0  0
   22.6375  -10.3551  -14.9164 C   0  0  2  0  0  0  0  0  0  0  0  0
   23.9336  -10.4185  -14.1774 C   0  0  0  0  0  0  0  0  0  0  0  0
   22.2331   -9.0484  -15.4695 C   0  0  0  0  0  0  0  0  0  0  0  0
   21.0371   -8.9716  -16.3332 C   0  0  2  0  0  0  0  0  0  0  0  0
   21.2025   -9.7568  -17.5593 N   0  0  0  0  0  0  0  0  0  0  0  0
   20.6289   -7.5922  -16.6385 C   0  0  0  0  0  0  0  0  0  0  0  0
   21.3566   -6.9201  -17.4252 O   0  0  0  0  0  0  0  0  0  0  0  0
   19.4762   -6.9400  -16.1100 N   0  0  0  0  0  0  0  0  0  0  0  0
   19.0392   -5.6201  -16.3895 C   0  0  0  0  0  0  0  0  0  0  0  0
   19.1099   -4.6096  -15.3481 C   0  0  0  0  0  0  0  0  0  0  0  0
   19.3049   -4.7352  -14.1355 O   0  0  0  0  0  0  0  0  0  0  0  0
   18.9295   -3.2618  -15.7690 O   0  0  0  0  0  0  0  0  0  0  0  0
  2  1  1  6
  3  2  1  0
  4  2  1  0
  4  5  1  1
  6 13  1  0
  6  4  1  0
  7  6  2  0
  9  8  1  1
  9 10  1  0
  9 11  1  0
 12 11  1  6
 12 14  1  0
 12 13  1  0
 14 15  2  0
 16 14  1  0
 16 17  1  0
 18 20  1  0
 18 17  1  0
 19 18  2  0
M  END
$$$$
