VLG.pdb
     RDKit          3D

 20 19  0  0  1  0  0  0  0  0999 V2000
   18.4455  -11.9302  -18.0201 C   0  0  0  0  0  0  0  0  0  0  0  0
   19.7169  -12.6466  -18.4242 C   0  0  1  0  0  0  0  0  0  0  0  0
   19.3863  -13.7245  -19.4005 C   0  0  0  0  0  0  0  0  0  0  0  0
   20.6668  -11.6074  -18.9752 C   0  0  2  0  0  0  0  0  0  0  0  0
   21.6720  -12.2289  -19.8135 N   0  0  0  0  0  0  0  0  0  0  0  0
   21.3192  -10.8155  -17.9316 C   0  0  0  0  0  0  0  0  0  0  0  0
   20.6098  -10.2243  -17.0506 O   0  0  0  0  0  0  0  0  0  0  0  0
   26.8653  -10.2976  -15.4792 C   0  0  0  0  0  0  0  0  0  0  0  0
   25.3712   -9.9548  -15.3170 C   0  0  2  0  0  0  0  0  0  0  0  0
   24.8420  -10.8953  -14.2848 C   0  0  0  0  0  0  0  0  0  0  0  0
   24.7765  -10.0203  -16.6657 C   0  0  0  0  0  0  0  0  0  0  0  0
   23.3370   -9.7329  -16.8321 C   0  0  2  0  0  0  0  0  0  0  0  0
   22.7122  -10.6366  -17.8019 N   0  0  0  0  0  0  0  0  0  0  0  0
   23.0600   -8.3271  -17.1632 C   0  0  0  0  0  0  0  0  0  0  0  0
   23.3094   -7.9362  -18.3401 O   0  0  0  0  0  0  0  0  0  0  0  0
   22.5379   -7.3570  -16.2581 N   0  0  0  0  0  0  0  0  0  0  0  0
   22.3215   -5.9792  -16.5153 C   0  0  0  0  0  0  0  0  0  0  0  0
   21.8696   -5.1148  -15.4386 C   0  0  0  0  0  0  0  0  0  0  0  0
   21.5062   -5.4005  -14.2938 O   0  0  0  0  0  0  0  0  0  0  0  0
   21.8326   -3.7213  -15.7269 O   0  0  0  0  0  0  0  0  0  0  0  0
  2  1  1  6
  3  2  1  0
  4  2  1  0
  4  5  1  1
  6 13  1  0
  6  4  1  0
  7  6  2  0
  9  8  1  6
  9 10  1  0
  9 11  1  0
 12 11  1  6
 12 14  1  0
 12 13  1  0
 14 15  2  0
 16 14  1  0
 16 17  1  0
 18 20  1  0
 18 17  1  0
 19 18  2  0
M  END
$$$$
