VLG.pdb
     RDKit          3D

 20 19  0  0  1  0  0  0  0  0999 V2000
   26.6001  -13.3352  -18.2446 C   0  0  0  0  0  0  0  0  0  0  0  0
   25.2741  -12.6059  -18.1889 C   0  0  1  0  0  0  0  0  0  0  0  0
   24.2003  -13.5646  -17.7989 C   0  0  0  0  0  0  0  0  0  0  0  0
   25.4312  -11.4538  -17.2225 C   0  0  2  0  0  0  0  0  0  0  0  0
   25.7783  -11.9395  -15.9023 N   0  0  0  0  0  0  0  0  0  0  0  0
   24.2387  -10.6097  -17.1371 C   0  0  0  0  0  0  0  0  0  0  0  0
   23.8339   -9.9814  -18.1717 O   0  0  0  0  0  0  0  0  0  0  0  0
   19.7317  -10.9013  -17.0862 C   0  0  0  0  0  0  0  0  0  0  0  0
   20.5467  -11.4129  -15.8819 C   0  0  2  0  0  0  0  0  0  0  0  0
   19.6025  -12.2288  -15.0618 C   0  0  0  0  0  0  0  0  0  0  0  0
   21.1477  -10.2247  -15.2463 C   0  0  0  0  0  0  0  0  0  0  0  0
   22.2835   -9.5513  -15.9088 C   0  0  2  0  0  0  0  0  0  0  0  0
   23.4639  -10.4171  -15.9744 N   0  0  0  0  0  0  0  0  0  0  0  0
   22.6145   -8.2487  -15.3118 C   0  0  0  0  0  0  0  0  0  0  0  0
   23.3724   -8.2373  -14.2991 O   0  0  0  0  0  0  0  0  0  0  0  0
   22.1411   -6.9869  -15.7776 N   0  0  0  0  0  0  0  0  0  0  0  0
   22.3781   -5.7173  -15.1917 C   0  0  0  0  0  0  0  0  0  0  0  0
   21.7711   -5.3981  -13.9110 C   0  0  0  0  0  0  0  0  0  0  0  0
   21.0261   -6.0763  -13.1973 O   0  0  0  0  0  0  0  0  0  0  0  0
   22.0679   -4.1112  -13.3799 O   0  0  0  0  0  0  0  0  0  0  0  0
  2  1  1  1
  3  2  1  0
  4  2  1  0
  4  5  1  1
  6 13  1  0
  6  4  1  0
  7  6  2  0
  9  8  1  6
  9 10  1  0
  9 11  1  0
 12 11  1  1
 12 14  1  0
 12 13  1  0
 14 15  2  0
 16 14  1  0
 16 17  1  0
 18 20  1  0
 18 17  1  0
 19 18  2  0
M  END
$$$$
