VLG.pdb
     RDKit          3D

 20 19  0  0  1  0  0  0  0  0999 V2000
   20.0847  -10.3050  -19.7854 C   0  0  0  0  0  0  0  0  0  0  0  0
   19.2301  -11.5227  -19.5023 C   0  0  1  0  0  0  0  0  0  0  0  0
   18.7433  -12.0936  -20.7912 C   0  0  0  0  0  0  0  0  0  0  0  0
   20.0698  -12.4878  -18.6965 C   0  0  2  0  0  0  0  0  0  0  0  0
   19.3347  -13.7092  -18.4367 N   0  0  0  0  0  0  0  0  0  0  0  0
   20.5420  -11.9208  -17.4326 C   0  0  0  0  0  0  0  0  0  0  0  0
   19.7428  -11.8345  -16.4412 O   0  0  0  0  0  0  0  0  0  0  0  0
   22.9294  -13.2195  -14.1274 C   0  0  0  0  0  0  0  0  0  0  0  0
   23.8041  -12.8248  -15.3338 C   0  0  2  0  0  0  0  0  0  0  0  0
   25.1816  -13.3085  -15.0200 C   0  0  0  0  0  0  0  0  0  0  0  0
   23.6207  -11.3738  -15.5287 C   0  0  0  0  0  0  0  0  0  0  0  0
   22.2926  -10.8634  -15.9263 C   0  0  2  0  0  0  0  0  0  0  0  0
   21.8475  -11.4419  -17.1969 N   0  0  0  0  0  0  0  0  0  0  0  0
   22.2208   -9.3949  -15.9588 C   0  0  0  0  0  0  0  0  0  0  0  0
   22.6717   -8.8029  -16.9817 O   0  0  0  0  0  0  0  0  0  0  0  0
   21.6892   -8.5747  -14.9206 N   0  0  0  0  0  0  0  0  0  0  0  0
   21.5889   -7.1601  -14.9175 C   0  0  0  0  0  0  0  0  0  0  0  0
   20.4222   -6.5264  -15.5074 C   0  0  0  0  0  0  0  0  0  0  0  0
   19.4565   -7.0306  -16.0882 O   0  0  0  0  0  0  0  0  0  0  0  0
   20.3641   -5.1073  -15.4120 O   0  0  0  0  0  0  0  0  0  0  0  0
  2  1  1  6
  3  2  1  0
  4  2  1  0
  4  5  1  1
  6 13  1  0
  6  4  1  0
  7  6  2  0
  9  8  1  1
  9 10  1  0
  9 11  1  0
 12 11  1  6
 12 14  1  0
 12 13  1  0
 14 15  2  0
 16 14  1  0
 16 17  1  0
 18 20  1  0
 18 17  1  0
 19 18  2  0
M  END
$$$$
