VLG.pdb
     RDKit          3D

 20 19  0  0  1  0  0  0  0  0999 V2000
   20.8289  -32.0681   -9.1043 C   0  0  0  0  0  0  0  0  0  0  0  0
   20.0884  -32.6561  -10.2872 C   0  0  1  0  0  0  0  0  0  0  0  0
   18.9417  -31.7705  -10.6405 C   0  0  0  0  0  0  0  0  0  0  0  0
   21.0875  -32.8224  -11.4097 C   0  0  2  0  0  0  0  0  0  0  0  0
   20.4715  -33.4732  -12.5483 N   0  0  0  0  0  0  0  0  0  0  0  0
   22.2836  -33.5641  -11.0083 C   0  0  0  0  0  0  0  0  0  0  0  0
   22.2068  -34.8205  -10.7975 O   0  0  0  0  0  0  0  0  0  0  0  0
   27.5519  -34.4102  -12.8121 C   0  0  0  0  0  0  0  0  0  0  0  0
   26.3316  -34.8392  -11.9735 C   0  0  2  0  0  0  0  0  0  0  0  0
   25.3753  -35.4713  -12.9305 C   0  0  0  0  0  0  0  0  0  0  0  0
   25.8753  -33.6367  -11.2504 C   0  0  0  0  0  0  0  0  0  0  0  0
   24.7248  -33.7438  -10.3300 C   0  0  2  0  0  0  0  0  0  0  0  0
   23.5633  -33.0001  -10.8251 N   0  0  0  0  0  0  0  0  0  0  0  0
   25.0493  -33.3606   -8.9478 C   0  0  0  0  0  0  0  0  0  0  0  0
   25.2305  -32.1333   -8.7010 O   0  0  0  0  0  0  0  0  0  0  0  0
   25.1872  -34.2658   -7.8547 N   0  0  0  0  0  0  0  0  0  0  0  0
   25.5529  -33.9455   -6.5224 C   0  0  0  0  0  0  0  0  0  0  0  0
   26.9509  -33.7133   -6.2025 C   0  0  0  0  0  0  0  0  0  0  0  0
   27.9541  -33.8212   -6.9140 O   0  0  0  0  0  0  0  0  0  0  0  0
   27.2283  -33.2968   -4.8699 O   0  0  0  0  0  0  0  0  0  0  0  0
  2  1  1  1
  3  2  1  0
  4  2  1  0
  4  5  1  6
  6 13  1  0
  6  4  1  0
  7  6  2  0
  9  8  1  6
  9 10  1  0
  9 11  1  0
 12 11  1  6
 12 14  1  0
 12 13  1  0
 14 15  2  0
 16 14  1  0
 16 17  1  0
 18 20  1  0
 18 17  1  0
 19 18  2  0
M  END
$$$$
