VLG.pdb
     RDKit          3D

 20 19  0  0  1  0  0  0  0  0999 V2000
   20.4811   -9.2286  -20.3726 C   0  0  0  0  0  0  0  0  0  0  0  0
   19.6873  -10.5137  -20.4802 C   0  0  1  0  0  0  0  0  0  0  0  0
   19.4610  -10.8342  -21.9190 C   0  0  0  0  0  0  0  0  0  0  0  0
   20.4564  -11.5843  -19.7398 C   0  0  2  0  0  0  0  0  0  0  0  0
   19.7128  -12.8279  -19.7244 N   0  0  0  0  0  0  0  0  0  0  0  0
   20.7996  -11.2007  -18.3698 C   0  0  0  0  0  0  0  0  0  0  0  0
   19.9132  -11.2677  -17.4540 O   0  0  0  0  0  0  0  0  0  0  0  0
   24.8530  -12.8614  -15.2476 C   0  0  0  0  0  0  0  0  0  0  0  0
   23.5201  -12.0940  -15.1448 C   0  0  2  0  0  0  0  0  0  0  0  0
   22.4448  -13.1005  -15.3909 C   0  0  0  0  0  0  0  0  0  0  0  0
   23.6160  -10.9583  -16.0817 C   0  0  0  0  0  0  0  0  0  0  0  0
   22.3754  -10.3286  -16.5786 C   0  0  2  0  0  0  0  0  0  0  0  0
   22.0667  -10.7462  -17.9489 N   0  0  0  0  0  0  0  0  0  0  0  0
   22.3803   -8.8628  -16.4599 C   0  0  0  0  0  0  0  0  0  0  0  0
   23.2571   -8.2197  -17.1063 O   0  0  0  0  0  0  0  0  0  0  0  0
   21.4773   -8.0997  -15.6628 N   0  0  0  0  0  0  0  0  0  0  0  0
   21.4122   -6.6865  -15.5630 C   0  0  0  0  0  0  0  0  0  0  0  0
   21.6265   -6.0517  -14.2739 C   0  0  0  0  0  0  0  0  0  0  0  0
   21.6444   -4.8541  -13.9747 O   0  0  0  0  0  0  0  0  0  0  0  0
   21.8524   -6.9267  -13.1741 O   0  0  0  0  0  0  0  0  0  0  0  0
  2  1  1  6
  3  2  1  0
  4  2  1  0
  4  5  1  1
  6 13  1  0
  6  4  1  0
  7  6  2  0
  9  8  1  6
  9 10  1  0
  9 11  1  0
 12 11  1  6
 12 14  1  0
 12 13  1  0
 14 15  2  0
 16 14  1  0
 16 17  1  0
 18 20  1  0
 18 17  1  0
 19 18  2  0
M  END
$$$$
