VLG.pdb
     RDKit          3D

 20 19  0  0  1  0  0  0  0  0999 V2000
   42.6260   -4.4857  -10.2339 C   0  0  0  0  0  0  0  0  0  0  0  0
   43.1141   -5.6825   -9.4447 C   0  0  1  0  0  0  0  0  0  0  0  0
   44.5696   -5.5249   -9.1603 C   0  0  0  0  0  0  0  0  0  0  0  0
   42.2651   -5.7794   -8.1975 C   0  0  2  0  0  0  0  0  0  0  0  0
   42.6816   -6.9032   -7.3832 N   0  0  0  0  0  0  0  0  0  0  0  0
   40.8338   -5.8849   -8.4844 C   0  0  0  0  0  0  0  0  0  0  0  0
   40.3721   -6.9514   -9.0119 O   0  0  0  0  0  0  0  0  0  0  0  0
   36.9848   -7.0043   -6.7714 C   0  0  0  0  0  0  0  0  0  0  0  0
   37.6219   -5.7031   -6.2449 C   0  0  2  0  0  0  0  0  0  0  0  0
   36.8589   -5.3392   -5.0138 C   0  0  0  0  0  0  0  0  0  0  0  0
   37.6035   -4.7432   -7.3652 C   0  0  0  0  0  0  0  0  0  0  0  0
   38.4543   -4.9984   -8.5456 C   0  0  2  0  0  0  0  0  0  0  0  0
   39.8788   -4.8805   -8.2229 N   0  0  0  0  0  0  0  0  0  0  0  0
   38.1031   -4.1653   -9.7055 C   0  0  0  0  0  0  0  0  0  0  0  0
   38.5696   -2.9904   -9.7531 O   0  0  0  0  0  0  0  0  0  0  0  0
   37.2659   -4.5715  -10.7859 N   0  0  0  0  0  0  0  0  0  0  0  0
   36.8663   -3.7866  -11.8975 C   0  0  0  0  0  0  0  0  0  0  0  0
   35.9483   -2.6788  -11.6955 C   0  0  0  0  0  0  0  0  0  0  0  0
   35.5139   -2.1920  -10.6474 O   0  0  0  0  0  0  0  0  0  0  0  0
   35.4637   -2.0434  -12.8735 O   0  0  0  0  0  0  0  0  0  0  0  0
  2  1  1  1
  3  2  1  0
  4  2  1  0
  4  5  1  6
  6 13  1  0
  6  4  1  0
  7  6  2  0
  9  8  1  6
  9 10  1  0
  9 11  1  0
 12 11  1  1
 12 14  1  0
 12 13  1  0
 14 15  2  0
 16 14  1  0
 16 17  1  0
 18 20  1  0
 18 17  1  0
 19 18  2  0
M  END
$$$$
