SVK.pdb
     RDKit          3D

 23 22  0  0  1  0  0  0  0  0999 V2000
    6.1181  -19.6203   18.1194 O   0  0  0  0  0  0  0  0  0  0  0  0
    7.1185  -18.8562   18.6796 C   0  0  0  0  0  0  0  0  0  0  0  0
    7.4969  -17.6716   17.8352 C   0  0  2  0  0  0  0  0  0  0  0  0
    8.2562  -18.0631   16.6828 N   0  0  0  0  0  0  0  0  0  0  0  0
    8.2177  -16.6945   18.6888 C   0  0  0  0  0  0  0  0  0  0  0  0
    9.4808  -16.7657   18.6899 O   0  0  0  0  0  0  0  0  0  0  0  0
    6.8773  -12.8830   19.5828 C   0  0  0  0  0  0  0  0  0  0  0  0
    7.3875  -13.6672   20.7484 C   0  0  2  0  0  0  0  0  0  0  0  0
    8.0743  -12.6652   21.6766 C   0  0  0  0  0  0  0  0  0  0  0  0
    8.3024  -14.7612   20.3259 C   0  0  2  0  0  0  0  0  0  0  0  0
    7.5806  -15.7207   19.4741 N   0  0  0  0  0  0  0  0  0  0  0  0
    8.7734  -15.5251   21.4970 C   0  0  0  0  0  0  0  0  0  0  0  0
    7.9587  -16.3055   22.1103 O   0  0  0  0  0  0  0  0  0  0  0  0
   10.0814  -15.4841   22.0246 N   0  0  0  0  0  0  0  0  0  0  0  0
   10.4598  -16.4063   23.1284 C   0  0  1  0  0  0  0  0  0  0  0  0
   10.4164  -17.7800   22.5381 C   0  0  0  0  0  0  0  0  0  0  0  0
   10.7341  -18.8463   23.5203 C   0  0  0  0  0  0  0  0  0  0  0  0
   10.6809  -20.2352   22.9184 C   0  0  0  0  0  0  0  0  0  0  0  0
   11.0059  -21.3031   23.9238 C   0  0  0  0  0  0  0  0  0  0  0  0
   10.8813  -22.6340   23.3185 N   0  0  0  0  0  0  0  0  0  0  0  0
   11.7645  -16.0077   23.6831 C   0  0  0  0  0  0  0  0  0  0  0  0
   12.1150  -16.4723   24.7964 O   0  0  0  0  0  0  0  0  0  0  0  0
   12.6609  -15.1476   23.0724 O   0  0  0  0  0  0  0  0  0  0  0  0
  2  1  1  0
  3  4  1  6
  3  2  1  0
  5  6  2  0
  5  3  1  0
  8  7  1  6
  8 10  1  0
  9  8  1  0
 10 11  1  6
 10 12  1  0
 11  5  1  0
 12 14  1  0
 13 12  2  0
 14 15  1  0
 15 21  1  0
 15 16  1  6
 17 16  1  0
 18 17  1  0
 19 18  1  0
 20 19  1  0
 21 22  2  0
 21 23  1  0
M  END
$$$$
