SVK.pdb
     RDKit          3D

 23 22  0  0  1  0  0  0  0  0999 V2000
    7.8618  -19.3730   19.3713 O   0  0  0  0  0  0  0  0  0  0  0  0
    6.9401  -18.6698   18.6265 C   0  0  0  0  0  0  0  0  0  0  0  0
    7.5654  -17.6042   17.7705 C   0  0  2  0  0  0  0  0  0  0  0  0
    8.4324  -18.1652   16.7747 N   0  0  0  0  0  0  0  0  0  0  0  0
    8.2621  -16.6369   18.6546 C   0  0  0  0  0  0  0  0  0  0  0  0
    9.5265  -16.6346   18.6078 O   0  0  0  0  0  0  0  0  0  0  0  0
    7.1559  -12.7712   19.7224 C   0  0  0  0  0  0  0  0  0  0  0  0
    7.3974  -13.7290   20.8442 C   0  0  2  0  0  0  0  0  0  0  0  0
    7.9703  -12.9071   21.9989 C   0  0  0  0  0  0  0  0  0  0  0  0
    8.3005  -14.8406   20.4426 C   0  0  2  0  0  0  0  0  0  0  0  0
    7.6018  -15.7480   19.5176 N   0  0  0  0  0  0  0  0  0  0  0  0
    8.6730  -15.6557   21.6145 C   0  0  0  0  0  0  0  0  0  0  0  0
    7.8600  -16.5522   22.0434 O   0  0  0  0  0  0  0  0  0  0  0  0
    9.8825  -15.5455   22.3329 N   0  0  0  0  0  0  0  0  0  0  0  0
   10.2751  -16.6197   23.2836 C   0  0  1  0  0  0  0  0  0  0  0  0
   10.6942  -17.7767   22.4331 C   0  0  0  0  0  0  0  0  0  0  0  0
   10.2244  -19.0839   22.9558 C   0  0  0  0  0  0  0  0  0  0  0  0
   10.7266  -20.2578   22.1410 C   0  0  0  0  0  0  0  0  0  0  0  0
   10.1465  -21.5629   22.6071 C   0  0  0  0  0  0  0  0  0  0  0  0
   10.5860  -22.6605   21.7380 N   0  0  0  0  0  0  0  0  0  0  0  0
   11.3095  -16.1156   24.2027 C   0  0  0  0  0  0  0  0  0  0  0  0
   12.0456  -15.1708   23.8239 O   0  0  0  0  0  0  0  0  0  0  0  0
   11.5479  -16.6003   25.4771 O   0  0  0  0  0  0  0  0  0  0  0  0
  2  1  1  0
  3  4  1  6
  3  2  1  0
  5  6  2  0
  5  3  1  0
  8  7  1  6
  8 10  1  0
  9  8  1  0
 10 11  1  6
 10 12  1  0
 11  5  1  0
 12 14  1  0
 13 12  2  0
 14 15  1  0
 15 21  1  0
 15 16  1  6
 17 16  1  0
 18 17  1  0
 19 18  1  0
 20 19  1  0
 21 22  2  0
 21 23  1  0
M  END
$$$$
