SVK.pdb
     RDKit          3D

 23 22  0  0  1  0  0  0  0  0999 V2000
    6.0968  -16.4867   20.3435 O   0  0  0  0  0  0  0  0  0  0  0  0
    6.8232  -16.0669   21.4366 C   0  0  0  0  0  0  0  0  0  0  0  0
    6.9804  -14.5735   21.5003 C   0  0  2  0  0  0  0  0  0  0  0  0
    7.6431  -14.0602   20.3361 N   0  0  0  0  0  0  0  0  0  0  0  0
    7.6866  -14.2264   22.7588 C   0  0  0  0  0  0  0  0  0  0  0  0
    8.9512  -14.2410   22.7221 O   0  0  0  0  0  0  0  0  0  0  0  0
    6.3604  -11.5792   25.6252 C   0  0  0  0  0  0  0  0  0  0  0  0
    6.8250  -12.8965   26.1570 C   0  0  2  0  0  0  0  0  0  0  0  0
    7.4918  -12.6090   27.5023 C   0  0  0  0  0  0  0  0  0  0  0  0
    7.7419  -13.5869   25.2109 C   0  0  2  0  0  0  0  0  0  0  0  0
    7.0347  -13.8916   23.9562 N   0  0  0  0  0  0  0  0  0  0  0  0
    8.1765  -14.8841   25.7629 C   0  0  0  0  0  0  0  0  0  0  0  0
    7.3263  -15.8403   25.8711 O   0  0  0  0  0  0  0  0  0  0  0  0
    9.4849  -15.1893   26.1944 N   0  0  0  0  0  0  0  0  0  0  0  0
    9.7781  -16.5305   26.7660 C   0  0  1  0  0  0  0  0  0  0  0  0
   10.7404  -17.1712   25.8168 C   0  0  0  0  0  0  0  0  0  0  0  0
   11.2588  -18.4738   26.3037 C   0  0  0  0  0  0  0  0  0  0  0  0
   12.2382  -19.1137   25.3417 C   0  0  0  0  0  0  0  0  0  0  0  0
   12.7534  -20.4311   25.8477 C   0  0  0  0  0  0  0  0  0  0  0  0
   13.7357  -20.9922   24.9130 N   0  0  0  0  0  0  0  0  0  0  0  0
   10.2690  -16.3852   28.1469 C   0  0  0  0  0  0  0  0  0  0  0  0
   10.1800  -17.3666   28.9260 O   0  0  0  0  0  0  0  0  0  0  0  0
   10.8340  -15.2372   28.6751 O   0  0  0  0  0  0  0  0  0  0  0  0
  2  1  1  0
  3  4  1  6
  3  2  1  0
  5  6  2  0
  5  3  1  0
  8  7  1  6
  8 10  1  0
  9  8  1  0
 10 11  1  6
 10 12  1  0
 11  5  1  0
 12 14  1  0
 13 12  2  0
 14 15  1  0
 15 21  1  0
 15 16  1  6
 17 16  1  0
 18 17  1  0
 19 18  1  0
 20 19  1  0
 21 22  2  0
 21 23  1  0
M  END
$$$$
