SVK.pdb
     RDKit          3D

 23 22  0  0  1  0  0  0  0  0999 V2000
    6.0778  -19.8562   18.2217 O   0  0  0  0  0  0  0  0  0  0  0  0
    7.0056  -18.9585   18.7032 C   0  0  0  0  0  0  0  0  0  0  0  0
    7.1339  -17.7292   17.8478 C   0  0  2  0  0  0  0  0  0  0  0  0
    7.6434  -18.0419   16.5437 N   0  0  0  0  0  0  0  0  0  0  0  0
    7.9742  -16.7394   18.5668 C   0  0  0  0  0  0  0  0  0  0  0  0
    9.2151  -16.7639   18.3210 O   0  0  0  0  0  0  0  0  0  0  0  0
    6.8597  -12.9413   19.6268 C   0  0  0  0  0  0  0  0  0  0  0  0
    7.4864  -13.7258   20.7340 C   0  0  2  0  0  0  0  0  0  0  0  0
    8.3056  -12.7324   21.5581 C   0  0  0  0  0  0  0  0  0  0  0  0
    8.3153  -14.8491   20.2207 C   0  0  2  0  0  0  0  0  0  0  0  0
    7.4704  -15.8022   19.4826 N   0  0  0  0  0  0  0  0  0  0  0  0
    8.9106  -15.6073   21.3375 C   0  0  0  0  0  0  0  0  0  0  0  0
    8.1512  -16.3085   22.0995 O   0  0  0  0  0  0  0  0  0  0  0  0
   10.2842  -15.6426   21.6583 N   0  0  0  0  0  0  0  0  0  0  0  0
   10.7580  -16.5021   22.7757 C   0  0  1  0  0  0  0  0  0  0  0  0
   11.0070  -17.8475   22.1712 C   0  0  0  0  0  0  0  0  0  0  0  0
   10.7146  -18.9668   23.1009 C   0  0  0  0  0  0  0  0  0  0  0  0
   11.0777  -20.3198   22.5250 C   0  0  0  0  0  0  0  0  0  0  0  0
   10.7082  -21.4474   23.4464 C   0  0  0  0  0  0  0  0  0  0  0  0
   10.8198  -22.7356   22.7527 N   0  0  0  0  0  0  0  0  0  0  0  0
   11.9292  -15.8813   23.4174 C   0  0  0  0  0  0  0  0  0  0  0  0
   12.6202  -15.0675   22.7552 O   0  0  0  0  0  0  0  0  0  0  0  0
   12.3459  -16.1190   24.7158 O   0  0  0  0  0  0  0  0  0  0  0  0
  2  1  1  0
  3  4  1  6
  3  2  1  0
  5  6  2  0
  5  3  1  0
  8  7  1  6
  8 10  1  0
  9  8  1  0
 10 11  1  1
 10 12  1  0
 11  5  1  0
 12 14  1  0
 13 12  2  0
 14 15  1  0
 15 21  1  0
 15 16  1  6
 17 16  1  0
 18 17  1  0
 19 18  1  0
 20 19  1  0
 21 22  2  0
 21 23  1  0
M  END
$$$$
