SVK.pdb
     RDKit          3D

 23 22  0  0  1  0  0  0  0  0999 V2000
    7.3033  -16.3718   21.2075 O   0  0  0  0  0  0  0  0  0  0  0  0
    6.4039  -15.3441   21.0245 C   0  0  0  0  0  0  0  0  0  0  0  0
    7.0209  -13.9845   21.1978 C   0  0  2  0  0  0  0  0  0  0  0  0
    7.9551  -13.6889   20.1500 N   0  0  0  0  0  0  0  0  0  0  0  0
    7.6352  -13.9135   22.5471 C   0  0  0  0  0  0  0  0  0  0  0  0
    8.8932  -14.0352   22.6047 O   0  0  0  0  0  0  0  0  0  0  0  0
    6.0116  -11.7354   25.6356 C   0  0  0  0  0  0  0  0  0  0  0  0
    6.5374  -13.0753   26.0383 C   0  0  2  0  0  0  0  0  0  0  0  0
    7.1392  -12.9024   27.4330 C   0  0  0  0  0  0  0  0  0  0  0  0
    7.5265  -13.6022   25.0603 C   0  0  2  0  0  0  0  0  0  0  0  0
    6.9054  -13.7227   23.7310 N   0  0  0  0  0  0  0  0  0  0  0  0
    7.9555  -14.9624   25.4379 C   0  0  0  0  0  0  0  0  0  0  0  0
    7.1996  -15.9623   25.1595 O   0  0  0  0  0  0  0  0  0  0  0  0
    9.1626  -15.2836   26.0944 N   0  0  0  0  0  0  0  0  0  0  0  0
    9.4835  -16.7049   26.3923 C   0  0  1  0  0  0  0  0  0  0  0  0
   10.2747  -17.1932   25.2205 C   0  0  0  0  0  0  0  0  0  0  0  0
   10.7330  -18.5967   25.3713 C   0  0  0  0  0  0  0  0  0  0  0  0
   11.9235  -18.9241   24.4941 C   0  0  0  0  0  0  0  0  0  0  0  0
   12.3581  -20.3551   24.6366 C   0  0  0  0  0  0  0  0  0  0  0  0
   13.4149  -20.6703   23.6686 N   0  0  0  0  0  0  0  0  0  0  0  0
   10.1725  -16.7967   27.6906 C   0  0  0  0  0  0  0  0  0  0  0  0
   10.7350  -15.7716   28.1497 O   0  0  0  0  0  0  0  0  0  0  0  0
   10.2566  -17.9381   28.4692 O   0  0  0  0  0  0  0  0  0  0  0  0
  2  1  1  0
  3  4  1  6
  3  2  1  0
  5  6  2  0
  5  3  1  0
  8  7  1  6
  8 10  1  0
  9  8  1  0
 10 11  1  6
 10 12  1  0
 11  5  1  0
 12 14  1  0
 13 12  2  0
 14 15  1  0
 15 21  1  0
 15 16  1  6
 17 16  1  0
 18 17  1  0
 19 18  1  0
 20 19  1  0
 21 22  2  0
 21 23  1  0
M  END
$$$$
