SVK.pdb
     RDKit          3D

 23 22  0  0  1  0  0  0  0  0999 V2000
    7.2193  -19.0183   19.4084 O   0  0  0  0  0  0  0  0  0  0  0  0
    7.6093  -19.0627   18.0876 C   0  0  0  0  0  0  0  0  0  0  0  0
    7.5481  -17.7221   17.4106 C   0  0  2  0  0  0  0  0  0  0  0  0
    8.0842  -17.7748   16.0810 N   0  0  0  0  0  0  0  0  0  0  0  0
    8.2426  -16.7287   18.2672 C   0  0  0  0  0  0  0  0  0  0  0  0
    9.5049  -16.6957   18.1883 O   0  0  0  0  0  0  0  0  0  0  0  0
    8.0629  -12.6535   21.0724 C   0  0  0  0  0  0  0  0  0  0  0  0
    7.3948  -13.6896   20.2274 C   0  0  2  0  0  0  0  0  0  0  0  0
    6.1090  -14.0793   20.9566 C   0  0  0  0  0  0  0  0  0  0  0  0
    8.2781  -14.8605   19.9800 C   0  0  2  0  0  0  0  0  0  0  0  0
    7.5823  -15.8473   19.1378 N   0  0  0  0  0  0  0  0  0  0  0  0
    8.5925  -15.5499   21.2458 C   0  0  0  0  0  0  0  0  0  0  0  0
    7.8260  -16.4946   21.6570 O   0  0  0  0  0  0  0  0  0  0  0  0
    9.6972  -15.2655   22.0765 N   0  0  0  0  0  0  0  0  0  0  0  0
   10.2693  -16.3373   22.9343 C   0  0  1  0  0  0  0  0  0  0  0  0
   10.8586  -17.3369   21.9903 C   0  0  0  0  0  0  0  0  0  0  0  0
   11.3400  -18.5657   22.6693 C   0  0  0  0  0  0  0  0  0  0  0  0
   11.8865  -19.5959   21.7028 C   0  0  0  0  0  0  0  0  0  0  0  0
   12.2619  -20.8777   22.3906 C   0  0  0  0  0  0  0  0  0  0  0  0
   12.7705  -21.8526   21.4190 N   0  0  0  0  0  0  0  0  0  0  0  0
   11.2202  -15.7508   23.8937 C   0  0  0  0  0  0  0  0  0  0  0  0
   11.2146  -16.1650   25.0796 O   0  0  0  0  0  0  0  0  0  0  0  0
   12.1422  -14.7614   23.5983 O   0  0  0  0  0  0  0  0  0  0  0  0
  2  1  1  0
  3  4  1  6
  3  2  1  0
  5  6  2  0
  5  3  1  0
  8  7  1  1
  8 10  1  0
  9  8  1  0
 10 11  1  6
 10 12  1  0
 11  5  1  0
 12 14  1  0
 13 12  2  0
 14 15  1  0
 15 21  1  0
 15 16  1  6
 17 16  1  0
 18 17  1  0
 19 18  1  0
 20 19  1  0
 21 22  2  0
 21 23  1  0
M  END
$$$$
