AWN.pdb
     RDKit          3D

 28 29  0  0  1  0  0  0  0  0999 V2000
   10.2643  -20.1477   20.9105 C   0  0  0  0  0  0  0  0  0  0  0  0
    9.3347  -19.0146   20.5260 C   0  0  2  0  0  0  0  0  0  0  0  0
    9.6442  -18.6182   19.1739 N   0  0  0  0  0  0  0  0  0  0  0  0
    9.5590  -17.8631   21.4454 C   0  0  0  0  0  0  0  0  0  0  0  0
   10.5857  -17.1724   21.3566 O   0  0  0  0  0  0  0  0  0  0  0  0
    8.6444  -17.4913   22.4501 N   0  0  0  0  0  0  0  0  0  0  0  0
    8.7745  -16.3584   23.3392 C   0  0  1  0  0  0  0  0  0  0  0  0
    7.5043  -15.6953   23.6785 C   0  0  0  0  0  0  0  0  0  0  0  0
    7.5779  -14.2686   24.0406 C   0  0  0  0  0  0  0  0  0  0  0  0
    8.1101  -13.2039   23.3130 C   0  0  0  0  0  0  0  0  0  0  0  0
    8.0323  -12.0570   23.9713 N   0  0  0  0  0  0  0  0  0  0  0  0
    7.4395  -12.3096   25.1769 C   0  0  0  0  0  0  0  0  0  0  0  0
    7.1124  -11.4625   26.2432 C   0  0  0  0  0  0  0  0  0  0  0  0
    6.5040  -12.0597   27.3245 C   0  0  0  0  0  0  0  0  0  0  0  0
    6.2130  -13.3992   27.4020 C   0  0  0  0  0  0  0  0  0  0  0  0
    6.5438  -14.2063   26.3431 C   0  0  0  0  0  0  0  0  0  0  0  0
    7.1572  -13.6594   25.2313 C   0  0  0  0  0  0  0  0  0  0  0  0
    9.5307  -16.8575   24.5036 C   0  0  0  0  0  0  0  0  0  0  0  0
    9.1560  -17.9219   25.1163 O   0  0  0  0  0  0  0  0  0  0  0  0
   12.9488  -17.9479   24.1535 N   0  0  0  0  0  0  0  0  0  0  0  0
   13.4560  -16.8575   24.9329 C   0  0  0  0  0  0  0  0  0  0  0  0
   14.5291  -16.3267   24.5532 O   0  0  0  0  0  0  0  0  0  0  0  0
   12.7982  -16.3330   26.1327 C   0  0  0  0  0  0  0  0  0  0  0  0
   11.3477  -16.8586   26.2352 C   0  0  2  0  0  0  0  0  0  0  0  0
   10.7009  -16.2720   25.0663 N   0  0  0  0  0  0  0  0  0  0  0  0
   10.7140  -16.3379   27.4577 C   0  0  0  0  0  0  0  0  0  0  0  0
   11.0889  -16.7215   28.5817 O   0  0  0  0  0  0  0  0  0  0  0  0
    9.6720  -15.3965   27.3566 O   0  0  0  0  0  0  0  0  0  0  0  0
  2  3  1  0
  2  1  1  1
  4  2  1  0
  5  4  2  0
  6  4  1  0
  7  6  1  0
  8  9  1  0
  7  8  1  1
  9 10  2  0
 11 10  1  0
 12 11  1  0
 13 12  2  0
 14 13  1  0
 15 14  2  0
 15 16  1  0
 16 17  2  0
 17 12  1  0
 17  9  1  0
 18  7  1  0
 18 19  2  0
 21 20  1  0
 22 21  2  0
 23 21  1  0
 24 23  1  1
 24 25  1  0
 25 18  1  0
 26 24  1  0
 27 26  2  0
 28 26  1  0
M  END
$$$$
