AWN.pdb
     RDKit          3D

 28 29  0  0  1  0  0  0  0  0999 V2000
    7.8923  -15.6037   19.1319 C   0  0  0  0  0  0  0  0  0  0  0  0
    7.3632  -14.6621   20.1946 C   0  0  2  0  0  0  0  0  0  0  0  0
    7.1875  -13.3614   19.5958 N   0  0  0  0  0  0  0  0  0  0  0  0
    8.3538  -14.5689   21.3042 C   0  0  0  0  0  0  0  0  0  0  0  0
    9.3071  -13.7776   21.2374 O   0  0  0  0  0  0  0  0  0  0  0  0
    8.2764  -15.3518   22.4726 N   0  0  0  0  0  0  0  0  0  0  0  0
    9.2294  -15.3504   23.5601 C   0  0  1  0  0  0  0  0  0  0  0  0
    8.6736  -15.7490   24.8640 C   0  0  0  0  0  0  0  0  0  0  0  0
    7.5425  -14.9533   25.3732 C   0  0  0  0  0  0  0  0  0  0  0  0
    6.2074  -15.3256   25.5315 C   0  0  0  0  0  0  0  0  0  0  0  0
    5.4598  -14.3322   25.9887 N   0  0  0  0  0  0  0  0  0  0  0  0
    6.2713  -13.2451   26.1568 C   0  0  0  0  0  0  0  0  0  0  0  0
    6.0008  -11.9501   26.6166 C   0  0  0  0  0  0  0  0  0  0  0  0
    7.0750  -11.0901   26.6669 C   0  0  0  0  0  0  0  0  0  0  0  0
    8.3533  -11.4320   26.3010 C   0  0  0  0  0  0  0  0  0  0  0  0
    8.5906  -12.7074   25.8546 C   0  0  0  0  0  0  0  0  0  0  0  0
    7.5480  -13.6125   25.7831 C   0  0  0  0  0  0  0  0  0  0  0  0
   10.3549  -16.1845   23.0974 C   0  0  0  0  0  0  0  0  0  0  0  0
   10.1414  -17.3479   22.5978 O   0  0  0  0  0  0  0  0  0  0  0  0
   13.4723  -14.2229   20.4299 N   0  0  0  0  0  0  0  0  0  0  0  0
   13.5206  -15.5875   20.8649 C   0  0  0  0  0  0  0  0  0  0  0  0
   13.2208  -16.4720   20.0250 O   0  0  0  0  0  0  0  0  0  0  0  0
   13.8981  -16.0026   22.2186 C   0  0  0  0  0  0  0  0  0  0  0  0
   12.7690  -16.8336   22.8707 C   0  0  2  0  0  0  0  0  0  0  0  0
   11.7359  -15.8374   23.1337 N   0  0  0  0  0  0  0  0  0  0  0  0
   13.2390  -17.3992   24.1460 C   0  0  0  0  0  0  0  0  0  0  0  0
   12.7758  -16.9967   25.2297 O   0  0  0  0  0  0  0  0  0  0  0  0
   14.2235  -18.4056   24.1419 O   0  0  0  0  0  0  0  0  0  0  0  0
  2  3  1  0
  2  1  1  6
  4  2  1  0
  5  4  2  0
  6  4  1  0
  7  6  1  0
  8  9  1  0
  7  8  1  1
  9 10  2  0
 11 10  1  0
 12 11  1  0
 13 12  2  0
 14 13  1  0
 15 14  2  0
 15 16  1  0
 16 17  2  0
 17 12  1  0
 17  9  1  0
 18  7  1  0
 18 19  2  0
 21 20  1  0
 22 21  2  0
 23 21  1  0
 24 23  1  1
 24 25  1  0
 25 18  1  0
 26 24  1  0
 27 26  2  0
 28 26  1  0
M  END
$$$$
