AWN.pdb
     RDKit          3D

 28 29  0  0  1  0  0  0  0  0999 V2000
    7.9845  -16.2373   19.4883 C   0  0  0  0  0  0  0  0  0  0  0  0
    7.4002  -15.2332   20.4610 C   0  0  2  0  0  0  0  0  0  0  0  0
    7.2019  -13.9891   19.7582 N   0  0  0  0  0  0  0  0  0  0  0  0
    8.3584  -15.0230   21.5831 C   0  0  0  0  0  0  0  0  0  0  0  0
    9.2623  -14.1778   21.4942 O   0  0  0  0  0  0  0  0  0  0  0  0
    8.3035  -15.7501   22.7883 N   0  0  0  0  0  0  0  0  0  0  0  0
    9.1565  -15.5519   23.9389 C   0  0  1  0  0  0  0  0  0  0  0  0
    8.4920  -15.7520   25.2376 C   0  0  0  0  0  0  0  0  0  0  0  0
    7.3799  -14.8403   25.5601 C   0  0  0  0  0  0  0  0  0  0  0  0
    6.0102  -15.1027   25.5929 C   0  0  0  0  0  0  0  0  0  0  0  0
    5.2996  -14.0259   25.8934 N   0  0  0  0  0  0  0  0  0  0  0  0
    6.1726  -12.9899   26.0759 C   0  0  0  0  0  0  0  0  0  0  0  0
    5.9585  -11.6471   26.4116 C   0  0  0  0  0  0  0  0  0  0  0  0
    7.0862  -10.8649   26.5226 C   0  0  0  0  0  0  0  0  0  0  0  0
    8.3650  -11.3247   26.3271 C   0  0  0  0  0  0  0  0  0  0  0  0
    8.5463  -12.6446   25.9996 C   0  0  0  0  0  0  0  0  0  0  0  0
    7.4485  -13.4756   25.8742 C   0  0  0  0  0  0  0  0  0  0  0  0
   10.3278  -16.4203   23.7142 C   0  0  0  0  0  0  0  0  0  0  0  0
   10.2955  -17.3387   22.8173 O   0  0  0  0  0  0  0  0  0  0  0  0
   11.5427  -19.2191   26.1055 N   0  0  0  0  0  0  0  0  0  0  0  0
   11.9606  -19.5255   24.7693 C   0  0  0  0  0  0  0  0  0  0  0  0
   12.3642  -20.6934   24.5443 O   0  0  0  0  0  0  0  0  0  0  0  0
   11.9411  -18.5633   23.6644 C   0  0  0  0  0  0  0  0  0  0  0  0
   12.6680  -17.2581   24.0628 C   0  0  2  0  0  0  0  0  0  0  0  0
   11.5702  -16.3614   24.4083 N   0  0  0  0  0  0  0  0  0  0  0  0
   13.3943  -16.7175   22.9019 C   0  0  0  0  0  0  0  0  0  0  0  0
   14.4131  -17.2869   22.4673 O   0  0  0  0  0  0  0  0  0  0  0  0
   12.9336  -15.5438   22.2758 O   0  0  0  0  0  0  0  0  0  0  0  0
  2  3  1  0
  2  1  1  6
  4  2  1  0
  5  4  2  0
  6  4  1  0
  7  6  1  0
  8  9  1  0
  7  8  1  1
  9 10  2  0
 11 10  1  0
 12 11  1  0
 13 12  2  0
 14 13  1  0
 15 14  2  0
 15 16  1  0
 16 17  2  0
 17 12  1  0
 17  9  1  0
 18  7  1  0
 18 19  2  0
 21 20  1  0
 22 21  2  0
 23 21  1  0
 24 23  1  6
 24 25  1  0
 25 18  1  0
 26 24  1  0
 27 26  2  0
 28 26  1  0
M  END
$$$$
