AWN.pdb
     RDKit          3D

 28 29  0  0  1  0  0  0  0  0999 V2000
    7.2294  -13.5135   20.5267 C   0  0  0  0  0  0  0  0  0  0  0  0
    7.9601  -14.8316   20.6828 C   0  0  2  0  0  0  0  0  0  0  0  0
    6.9786  -15.8679   20.8920 N   0  0  0  0  0  0  0  0  0  0  0  0
    8.8621  -14.7548   21.8668 C   0  0  0  0  0  0  0  0  0  0  0  0
    9.7867  -13.9286   21.9061 O   0  0  0  0  0  0  0  0  0  0  0  0
    8.7288  -15.5928   22.9913 N   0  0  0  0  0  0  0  0  0  0  0  0
    9.6001  -15.6097   24.1452 C   0  0  1  0  0  0  0  0  0  0  0  0
    8.9169  -15.8534   25.4267 C   0  0  0  0  0  0  0  0  0  0  0  0
    7.7003  -15.0643   25.6893 C   0  0  0  0  0  0  0  0  0  0  0  0
    6.3651  -15.4656   25.6393 C   0  0  0  0  0  0  0  0  0  0  0  0
    5.5315  -14.4710   25.9048 N   0  0  0  0  0  0  0  0  0  0  0  0
    6.2813  -13.3537   26.1457 C   0  0  0  0  0  0  0  0  0  0  0  0
    5.9113  -12.0443   26.4774 C   0  0  0  0  0  0  0  0  0  0  0  0
    6.9444  -11.1525   26.6603 C   0  0  0  0  0  0  0  0  0  0  0  0
    8.2728  -11.4767   26.5375 C   0  0  0  0  0  0  0  0  0  0  0  0
    8.6074  -12.7668   26.2121 C   0  0  0  0  0  0  0  0  0  0  0  0
    7.6099  -13.7039   26.0163 C   0  0  0  0  0  0  0  0  0  0  0  0
   10.6584  -16.5861   23.8242 C   0  0  0  0  0  0  0  0  0  0  0  0
   11.4262  -17.0418   24.7471 O   0  0  0  0  0  0  0  0  0  0  0  0
   13.6051  -19.5302   19.4128 N   0  0  0  0  0  0  0  0  0  0  0  0
   12.7895  -19.6414   20.5859 C   0  0  0  0  0  0  0  0  0  0  0  0
   12.9843  -20.6325   21.3325 O   0  0  0  0  0  0  0  0  0  0  0  0
   11.7549  -18.6729   20.9587 C   0  0  0  0  0  0  0  0  0  0  0  0
   12.0508  -18.0643   22.3489 C   0  0  2  0  0  0  0  0  0  0  0  0
   10.9512  -17.1242   22.5383 N   0  0  0  0  0  0  0  0  0  0  0  0
   13.3240  -17.3263   22.3094 C   0  0  0  0  0  0  0  0  0  0  0  0
   13.3735  -16.1667   21.8580 O   0  0  0  0  0  0  0  0  0  0  0  0
   14.4994  -17.9373   22.7860 O   0  0  0  0  0  0  0  0  0  0  0  0
  2  3  1  0
  2  1  1  1
  4  2  1  0
  5  4  2  0
  6  4  1  0
  7  6  1  0
  8  9  1  0
  7  8  1  1
  9 10  2  0
 11 10  1  0
 12 11  1  0
 13 12  2  0
 14 13  1  0
 15 14  2  0
 15 16  1  0
 16 17  2  0
 17 12  1  0
 17  9  1  0
 18  7  1  0
 18 19  2  0
 21 20  1  0
 22 21  2  0
 23 21  1  0
 24 23  1  6
 24 25  1  0
 25 18  1  0
 26 24  1  0
 27 26  2  0
 28 26  1  0
M  END
$$$$
