AWN.pdb
     RDKit          3D

 28 29  0  0  1  0  0  0  0  0999 V2000
    7.8430  -15.4468   19.0112 C   0  0  0  0  0  0  0  0  0  0  0  0
    7.3435  -14.5114   20.0935 C   0  0  2  0  0  0  0  0  0  0  0  0
    7.3112  -13.1744   19.5526 N   0  0  0  0  0  0  0  0  0  0  0  0
    8.2808  -14.5566   21.2514 C   0  0  0  0  0  0  0  0  0  0  0  0
    9.3070  -13.8596   21.2632 O   0  0  0  0  0  0  0  0  0  0  0  0
    8.0700  -15.3720   22.3806 N   0  0  0  0  0  0  0  0  0  0  0  0
    8.9112  -15.4290   23.5553 C   0  0  1  0  0  0  0  0  0  0  0  0
    8.2558  -15.9798   24.7534 C   0  0  0  0  0  0  0  0  0  0  0  0
    7.2273  -15.1391   25.3916 C   0  0  0  0  0  0  0  0  0  0  0  0
    5.8930  -15.4398   25.6658 C   0  0  0  0  0  0  0  0  0  0  0  0
    5.2527  -14.4219   26.2214 N   0  0  0  0  0  0  0  0  0  0  0  0
    6.1403  -13.3894   26.3429 C   0  0  0  0  0  0  0  0  0  0  0  0
    5.9924  -12.0980   26.8642 C   0  0  0  0  0  0  0  0  0  0  0  0
    7.1163  -11.3030   26.8368 C   0  0  0  0  0  0  0  0  0  0  0  0
    8.3319  -11.7043   26.3405 C   0  0  0  0  0  0  0  0  0  0  0  0
    8.4492  -12.9748   25.8362 C   0  0  0  0  0  0  0  0  0  0  0  0
    7.3519  -13.8158   25.8382 C   0  0  0  0  0  0  0  0  0  0  0  0
   10.1237  -16.1571   23.1357 C   0  0  0  0  0  0  0  0  0  0  0  0
   10.0717  -17.0131   22.1800 O   0  0  0  0  0  0  0  0  0  0  0  0
   14.9443  -17.9717   22.2885 N   0  0  0  0  0  0  0  0  0  0  0  0
   14.7742  -16.5490   22.2578 C   0  0  0  0  0  0  0  0  0  0  0  0
   15.7197  -15.8646   21.7940 O   0  0  0  0  0  0  0  0  0  0  0  0
   13.5716  -15.8578   22.7301 C   0  0  0  0  0  0  0  0  0  0  0  0
   12.5270  -16.8718   23.2512 C   0  0  2  0  0  0  0  0  0  0  0  0
   11.4285  -16.0177   23.6898 N   0  0  0  0  0  0  0  0  0  0  0  0
   13.0729  -17.5996   24.4087 C   0  0  0  0  0  0  0  0  0  0  0  0
   12.7734  -17.2642   25.5700 O   0  0  0  0  0  0  0  0  0  0  0  0
   13.9438  -18.6862   24.2018 O   0  0  0  0  0  0  0  0  0  0  0  0
  2  3  1  0
  2  1  1  6
  4  2  1  0
  5  4  2  0
  6  4  1  0
  7  6  1  0
  8  9  1  0
  7  8  1  1
  9 10  2  0
 11 10  1  0
 12 11  1  0
 13 12  2  0
 14 13  1  0
 15 14  2  0
 15 16  1  0
 16 17  2  0
 17 12  1  0
 17  9  1  0
 18  7  1  0
 18 19  2  0
 21 20  1  0
 22 21  2  0
 23 21  1  0
 24 23  1  1
 24 25  1  0
 25 18  1  0
 26 24  1  0
 27 26  2  0
 28 26  1  0
M  END
$$$$
