AWN.pdb
     RDKit          3D

 28 29  0  0  1  0  0  0  0  0999 V2000
    6.9365  -14.7102   20.8560 C   0  0  0  0  0  0  0  0  0  0  0  0
    8.0583  -15.7036   21.0815 C   0  0  2  0  0  0  0  0  0  0  0  0
    7.4703  -16.9978   21.3269 N   0  0  0  0  0  0  0  0  0  0  0  0
    8.8523  -15.2845   22.2712 C   0  0  0  0  0  0  0  0  0  0  0  0
    9.4938  -14.2227   22.2624 O   0  0  0  0  0  0  0  0  0  0  0  0
    8.9255  -16.0455   23.4543 N   0  0  0  0  0  0  0  0  0  0  0  0
    9.7676  -15.7620   24.5951 C   0  0  1  0  0  0  0  0  0  0  0  0
    9.0762  -15.8055   25.8944 C   0  0  0  0  0  0  0  0  0  0  0  0
    7.7973  -15.0793   25.9890 C   0  0  0  0  0  0  0  0  0  0  0  0
    6.4983  -15.5642   25.8354 C   0  0  0  0  0  0  0  0  0  0  0  0
    5.5882  -14.6094   25.9570 N   0  0  0  0  0  0  0  0  0  0  0  0
    6.2468  -13.4363   26.1992 C   0  0  0  0  0  0  0  0  0  0  0  0
    5.7731  -12.1355   26.4117 C   0  0  0  0  0  0  0  0  0  0  0  0
    6.7314  -11.1729   26.6376 C   0  0  0  0  0  0  0  0  0  0  0  0
    8.0815  -11.4212   26.6639 C   0  0  0  0  0  0  0  0  0  0  0  0
    8.5182  -12.7045   26.4530 C   0  0  0  0  0  0  0  0  0  0  0  0
    7.5991  -13.7107   26.2206 C   0  0  0  0  0  0  0  0  0  0  0  0
   10.9088  -16.6900   24.4814 C   0  0  0  0  0  0  0  0  0  0  0  0
   11.7191  -16.8499   25.4646 O   0  0  0  0  0  0  0  0  0  0  0  0
   10.8311  -20.3695   24.5967 N   0  0  0  0  0  0  0  0  0  0  0  0
   11.1370  -20.4946   23.2021 C   0  0  0  0  0  0  0  0  0  0  0  0
   10.6615  -21.4851   22.5936 O   0  0  0  0  0  0  0  0  0  0  0  0
   11.9622  -19.5408   22.4561 C   0  0  0  0  0  0  0  0  0  0  0  0
   12.4026  -18.3703   23.3654 C   0  0  2  0  0  0  0  0  0  0  0  0
   11.2434  -17.4845   23.3475 N   0  0  0  0  0  0  0  0  0  0  0  0
   13.5556  -17.6793   22.7652 C   0  0  0  0  0  0  0  0  0  0  0  0
   14.6705  -18.2315   22.7108 O   0  0  0  0  0  0  0  0  0  0  0  0
   13.3977  -16.3797   22.2475 O   0  0  0  0  0  0  0  0  0  0  0  0
  2  3  1  0
  2  1  1  1
  4  2  1  0
  5  4  2  0
  6  4  1  0
  7  6  1  0
  8  9  1  0
  7  8  1  1
  9 10  2  0
 11 10  1  0
 12 11  1  0
 13 12  2  0
 14 13  1  0
 15 14  2  0
 15 16  1  0
 16 17  2  0
 17 12  1  0
 17  9  1  0
 18  7  1  0
 18 19  2  0
 21 20  1  0
 22 21  2  0
 23 21  1  0
 24 23  1  6
 24 25  1  0
 25 18  1  0
 26 24  1  0
 27 26  2  0
 28 26  1  0
M  END
$$$$
