AWN.pdb
     RDKit          3D

 28 29  0  0  1  0  0  0  0  0999 V2000
    7.8251  -15.9384   19.3237 C   0  0  0  0  0  0  0  0  0  0  0  0
    7.3744  -14.8936   20.3243 C   0  0  2  0  0  0  0  0  0  0  0  0
    7.2922  -13.6246   19.6433 N   0  0  0  0  0  0  0  0  0  0  0  0
    8.3765  -14.8037   21.4240 C   0  0  0  0  0  0  0  0  0  0  0  0
    9.3486  -14.0382   21.3341 O   0  0  0  0  0  0  0  0  0  0  0  0
    8.2894  -15.5616   22.6082 N   0  0  0  0  0  0  0  0  0  0  0  0
    9.1230  -15.4052   23.7793 C   0  0  1  0  0  0  0  0  0  0  0  0
    8.4676  -15.7549   25.0506 C   0  0  0  0  0  0  0  0  0  0  0  0
    7.2845  -14.9606   25.4264 C   0  0  0  0  0  0  0  0  0  0  0  0
    5.9378  -15.3236   25.3990 C   0  0  0  0  0  0  0  0  0  0  0  0
    5.1431  -14.3341   25.7785 N   0  0  0  0  0  0  0  0  0  0  0  0
    5.9325  -13.2591   26.0783 C   0  0  0  0  0  0  0  0  0  0  0  0
    5.6122  -11.9728   26.5304 C   0  0  0  0  0  0  0  0  0  0  0  0
    6.6760  -11.1246   26.7423 C   0  0  0  0  0  0  0  0  0  0  0  0
    7.9892  -11.4701   26.5390 C   0  0  0  0  0  0  0  0  0  0  0  0
    8.2748  -12.7368   26.0963 C   0  0  0  0  0  0  0  0  0  0  0  0
    7.2448  -13.6299   25.8664 C   0  0  0  0  0  0  0  0  0  0  0  0
   10.3490  -16.1749   23.4946 C   0  0  0  0  0  0  0  0  0  0  0  0
   10.2902  -17.2714   22.8290 O   0  0  0  0  0  0  0  0  0  0  0  0
   16.3361  -16.4156   23.6983 N   0  0  0  0  0  0  0  0  0  0  0  0
   15.1658  -16.3852   22.8717 C   0  0  0  0  0  0  0  0  0  0  0  0
   15.2150  -17.0021   21.7788 O   0  0  0  0  0  0  0  0  0  0  0  0
   13.9294  -15.6842   23.2284 C   0  0  0  0  0  0  0  0  0  0  0  0
   12.8043  -16.6925   23.5573 C   0  0  2  0  0  0  0  0  0  0  0  0
   11.6744  -15.8302   23.8865 N   0  0  0  0  0  0  0  0  0  0  0  0
   13.1757  -17.4854   24.7408 C   0  0  0  0  0  0  0  0  0  0  0  0
   12.8156  -17.1346   25.8802 O   0  0  0  0  0  0  0  0  0  0  0  0
   13.9469  -18.6528   24.5843 O   0  0  0  0  0  0  0  0  0  0  0  0
  2  3  1  0
  2  1  1  6
  4  2  1  0
  5  4  2  0
  6  4  1  0
  7  6  1  0
  8  9  1  0
  7  8  1  1
  9 10  2  0
 11 10  1  0
 12 11  1  0
 13 12  2  0
 14 13  1  0
 15 14  2  0
 15 16  1  0
 16 17  2  0
 17 12  1  0
 17  9  1  0
 18  7  1  0
 18 19  2  0
 21 20  1  0
 22 21  2  0
 23 21  1  0
 24 23  1  1
 24 25  1  0
 25 18  1  0
 26 24  1  0
 27 26  2  0
 28 26  1  0
M  END
$$$$
