AWN.pdb
     RDKit          3D

 28 29  0  0  1  0  0  0  0  0999 V2000
    6.5646  -14.7257   20.7517 C   0  0  0  0  0  0  0  0  0  0  0  0
    7.7125  -15.7030   20.9039 C   0  0  2  0  0  0  0  0  0  0  0  0
    7.1617  -16.9978   21.2218 N   0  0  0  0  0  0  0  0  0  0  0  0
    8.5961  -15.2518   22.0163 C   0  0  0  0  0  0  0  0  0  0  0  0
    9.1847  -14.1614   21.9551 O   0  0  0  0  0  0  0  0  0  0  0  0
    8.8162  -16.0128   23.1810 N   0  0  0  0  0  0  0  0  0  0  0  0
    9.6715  -15.6438   24.2869 C   0  0  1  0  0  0  0  0  0  0  0  0
    9.0572  -15.7980   25.6162 C   0  0  0  0  0  0  0  0  0  0  0  0
    7.7767  -15.1034   25.8389 C   0  0  0  0  0  0  0  0  0  0  0  0
    6.4805  -15.6180   25.8044 C   0  0  0  0  0  0  0  0  0  0  0  0
    5.5642  -14.6861   26.0212 N   0  0  0  0  0  0  0  0  0  0  0  0
    6.2157  -13.4995   26.2116 C   0  0  0  0  0  0  0  0  0  0  0  0
    5.7344  -12.2122   26.4811 C   0  0  0  0  0  0  0  0  0  0  0  0
    6.6875  -11.2287   26.6246 C   0  0  0  0  0  0  0  0  0  0  0  0
    8.0393  -11.4448   26.5203 C   0  0  0  0  0  0  0  0  0  0  0  0
    8.4835  -12.7157   26.2562 C   0  0  0  0  0  0  0  0  0  0  0  0
    7.5698  -13.7418   26.1019 C   0  0  0  0  0  0  0  0  0  0  0  0
   10.9143  -16.4159   24.0973 C   0  0  0  0  0  0  0  0  0  0  0  0
   11.7434  -16.5644   25.0665 O   0  0  0  0  0  0  0  0  0  0  0  0
   11.4714  -20.4689   23.9025 N   0  0  0  0  0  0  0  0  0  0  0  0
   11.2724  -19.9118   22.5972 C   0  0  0  0  0  0  0  0  0  0  0  0
   10.2130  -20.2162   21.9951 O   0  0  0  0  0  0  0  0  0  0  0  0
   12.2246  -19.0159   21.9354 C   0  0  0  0  0  0  0  0  0  0  0  0
   12.5791  -17.8216   22.8512 C   0  0  2  0  0  0  0  0  0  0  0  0
   11.3343  -17.0620   22.8994 N   0  0  0  0  0  0  0  0  0  0  0  0
   13.6274  -17.0032   22.2200 C   0  0  0  0  0  0  0  0  0  0  0  0
   13.3546  -15.8965   21.7182 O   0  0  0  0  0  0  0  0  0  0  0  0
   14.9529  -17.4760   22.1817 O   0  0  0  0  0  0  0  0  0  0  0  0
  2  3  1  0
  2  1  1  1
  4  2  1  0
  5  4  2  0
  6  4  1  0
  7  6  1  0
  8  9  1  0
  7  8  1  1
  9 10  2  0
 11 10  1  0
 12 11  1  0
 13 12  2  0
 14 13  1  0
 15 14  2  0
 15 16  1  0
 16 17  2  0
 17 12  1  0
 17  9  1  0
 18  7  1  0
 18 19  2  0
 21 20  1  0
 22 21  2  0
 23 21  1  0
 24 23  1  6
 24 25  1  0
 25 18  1  0
 26 24  1  0
 27 26  2  0
 28 26  1  0
M  END
$$$$
