AWN.pdb
     RDKit          3D

 28 29  0  0  1  0  0  0  0  0999 V2000
    8.8646  -18.4397   19.1465 C   0  0  0  0  0  0  0  0  0  0  0  0
    8.1276  -17.1304   19.3428 C   0  0  2  0  0  0  0  0  0  0  0  0
    8.3910  -16.2903   18.2001 N   0  0  0  0  0  0  0  0  0  0  0  0
    8.6324  -16.4639   20.5767 C   0  0  0  0  0  0  0  0  0  0  0  0
    9.6709  -15.7856   20.5505 O   0  0  0  0  0  0  0  0  0  0  0  0
    7.9816  -16.5566   21.8225 N   0  0  0  0  0  0  0  0  0  0  0  0
    8.3782  -15.8839   23.0395 C   0  0  1  0  0  0  0  0  0  0  0  0
    7.3064  -15.7407   24.0390 C   0  0  0  0  0  0  0  0  0  0  0  0
    7.6548  -15.0407   25.2882 C   0  0  0  0  0  0  0  0  0  0  0  0
    8.4165  -15.4934   26.3658 C   0  0  0  0  0  0  0  0  0  0  0  0
    8.4928  -14.5974   27.3384 N   0  0  0  0  0  0  0  0  0  0  0  0
    7.7792  -13.4988   26.9479 C   0  0  0  0  0  0  0  0  0  0  0  0
    7.5401  -12.2753   27.5864 C   0  0  0  0  0  0  0  0  0  0  0  0
    6.7685  -11.3716   26.8907 C   0  0  0  0  0  0  0  0  0  0  0  0
    6.2425  -11.6061   25.6444 C   0  0  0  0  0  0  0  0  0  0  0  0
    6.4927  -12.8129   25.0417 C   0  0  0  0  0  0  0  0  0  0  0  0
    7.2613  -13.7581   25.6954 C   0  0  0  0  0  0  0  0  0  0  0  0
    9.5670  -16.6123   23.5217 C   0  0  0  0  0  0  0  0  0  0  0  0
    9.5883  -17.8962   23.5233 O   0  0  0  0  0  0  0  0  0  0  0  0
   13.1924  -15.1278   21.5611 N   0  0  0  0  0  0  0  0  0  0  0  0
   13.1627  -16.2549   22.4459 C   0  0  0  0  0  0  0  0  0  0  0  0
   13.1757  -17.3978   21.9253 O   0  0  0  0  0  0  0  0  0  0  0  0
   13.1206  -16.1481   23.9068 C   0  0  0  0  0  0  0  0  0  0  0  0
   11.8757  -16.8700   24.4723 C   0  0  2  0  0  0  0  0  0  0  0  0
   10.7722  -16.0333   24.0129 N   0  0  0  0  0  0  0  0  0  0  0  0
   11.9184  -16.8586   25.9438 C   0  0  0  0  0  0  0  0  0  0  0  0
   12.8596  -16.3117   26.5488 O   0  0  0  0  0  0  0  0  0  0  0  0
   10.8851  -17.4732   26.6763 O   0  0  0  0  0  0  0  0  0  0  0  0
  2  3  1  0
  2  1  1  6
  4  2  1  0
  5  4  2  0
  6  4  1  0
  7  6  1  0
  8  9  1  0
  7  8  1  1
  9 10  2  0
 11 10  1  0
 12 11  1  0
 13 12  2  0
 14 13  1  0
 15 14  2  0
 15 16  1  0
 16 17  2  0
 17 12  1  0
 17  9  1  0
 18  7  1  0
 18 19  2  0
 21 20  1  0
 22 21  2  0
 23 21  1  0
 24 23  1  6
 24 25  1  0
 25 18  1  0
 26 24  1  0
 27 26  2  0
 28 26  1  0
M  END
$$$$
