AWN.pdb
     RDKit          3D

 28 29  0  0  1  0  0  0  0  0999 V2000
    6.8947  -14.3093   20.5585 C   0  0  0  0  0  0  0  0  0  0  0  0
    7.9169  -15.4119   20.7463 C   0  0  2  0  0  0  0  0  0  0  0  0
    7.2103  -16.6627   20.8774 N   0  0  0  0  0  0  0  0  0  0  0  0
    8.6981  -15.1497   21.9882 C   0  0  0  0  0  0  0  0  0  0  0  0
    9.3474  -14.1006   22.1184 O   0  0  0  0  0  0  0  0  0  0  0  0
    8.7502  -16.0513   23.0692 N   0  0  0  0  0  0  0  0  0  0  0  0
    9.5006  -15.8685   24.2916 C   0  0  1  0  0  0  0  0  0  0  0  0
    8.7292  -16.0950   25.5252 C   0  0  0  0  0  0  0  0  0  0  0  0
    7.5509  -15.2356   25.7370 C   0  0  0  0  0  0  0  0  0  0  0  0
    6.1977  -15.5669   25.6653 C   0  0  0  0  0  0  0  0  0  0  0  0
    5.4127  -14.5224   25.8837 N   0  0  0  0  0  0  0  0  0  0  0  0
    6.2156  -13.4401   26.1128 C   0  0  0  0  0  0  0  0  0  0  0  0
    5.9088  -12.1042   26.4003 C   0  0  0  0  0  0  0  0  0  0  0  0
    6.9838  -11.2636   26.5843 C   0  0  0  0  0  0  0  0  0  0  0  0
    8.2954  -11.6610   26.5026 C   0  0  0  0  0  0  0  0  0  0  0  0
    8.5677  -12.9756   26.2200 C   0  0  0  0  0  0  0  0  0  0  0  0
    7.5262  -13.8636   26.0252 C   0  0  0  0  0  0  0  0  0  0  0  0
   10.6928  -16.7263   24.1529 C   0  0  0  0  0  0  0  0  0  0  0  0
   10.5677  -17.9846   23.9297 O   0  0  0  0  0  0  0  0  0  0  0  0
   13.8658  -14.8457   21.7919 N   0  0  0  0  0  0  0  0  0  0  0  0
   14.1052  -16.1706   22.2830 C   0  0  0  0  0  0  0  0  0  0  0  0
   14.1188  -17.1040   21.4427 O   0  0  0  0  0  0  0  0  0  0  0  0
   14.3342  -16.4918   23.6943 C   0  0  0  0  0  0  0  0  0  0  0  0
   13.1380  -17.2793   24.2771 C   0  0  2  0  0  0  0  0  0  0  0  0
   12.0514  -16.3065   24.2365 N   0  0  0  0  0  0  0  0  0  0  0  0
   13.4156  -17.6446   25.6760 C   0  0  0  0  0  0  0  0  0  0  0  0
   12.7783  -17.1205   26.6088 O   0  0  0  0  0  0  0  0  0  0  0  0
   14.4126  -18.5960   25.9637 O   0  0  0  0  0  0  0  0  0  0  0  0
  2  3  1  0
  2  1  1  1
  4  2  1  0
  5  4  2  0
  6  4  1  0
  7  6  1  0
  8  9  1  0
  7  8  1  1
  9 10  2  0
 11 10  1  0
 12 11  1  0
 13 12  2  0
 14 13  1  0
 15 14  2  0
 15 16  1  0
 16 17  2  0
 17 12  1  0
 17  9  1  0
 18  7  1  0
 18 19  2  0
 21 20  1  0
 22 21  2  0
 23 21  1  0
 24 23  1  1
 24 25  1  0
 25 18  1  0
 26 24  1  0
 27 26  2  0
 28 26  1  0
M  END
$$$$
