AWN.pdb
     RDKit          3D

 28 29  0  0  1  0  0  0  0  0999 V2000
    8.1102  -16.8116   19.7181 C   0  0  0  0  0  0  0  0  0  0  0  0
    7.4110  -15.9720   20.7679 C   0  0  2  0  0  0  0  0  0  0  0  0
    6.8759  -14.7983   20.1220 N   0  0  0  0  0  0  0  0  0  0  0  0
    8.3993  -15.5615   21.8053 C   0  0  0  0  0  0  0  0  0  0  0  0
    9.1861  -14.6255   21.5953 O   0  0  0  0  0  0  0  0  0  0  0  0
    8.5035  -16.1916   23.0608 N   0  0  0  0  0  0  0  0  0  0  0  0
    9.4217  -15.8308   24.1180 C   0  0  1  0  0  0  0  0  0  0  0  0
    8.8661  -15.9392   25.4773 C   0  0  0  0  0  0  0  0  0  0  0  0
    7.6701  -15.1296   25.7706 C   0  0  0  0  0  0  0  0  0  0  0  0
    6.3295  -15.5152   25.7822 C   0  0  0  0  0  0  0  0  0  0  0  0
    5.5186  -14.5048   26.0587 N   0  0  0  0  0  0  0  0  0  0  0  0
    6.2904  -13.3920   26.2453 C   0  0  0  0  0  0  0  0  0  0  0  0
    5.9492  -12.0713   26.5628 C   0  0  0  0  0  0  0  0  0  0  0  0
    6.9990  -11.1888   26.6851 C   0  0  0  0  0  0  0  0  0  0  0  0
    8.3177  -11.5321   26.5170 C   0  0  0  0  0  0  0  0  0  0  0  0
    8.6240  -12.8329   26.2068 C   0  0  0  0  0  0  0  0  0  0  0  0
    7.6087  -13.7614   26.0712 C   0  0  0  0  0  0  0  0  0  0  0  0
   10.6281  -16.6479   23.8865 C   0  0  0  0  0  0  0  0  0  0  0  0
   10.5249  -17.8931   23.5909 O   0  0  0  0  0  0  0  0  0  0  0  0
   14.0313  -14.5353   21.6136 N   0  0  0  0  0  0  0  0  0  0  0  0
   14.0809  -15.8970   22.0578 C   0  0  0  0  0  0  0  0  0  0  0  0
   13.9483  -16.7931   21.1877 O   0  0  0  0  0  0  0  0  0  0  0  0
   14.2774  -16.2962   23.4539 C   0  0  0  0  0  0  0  0  0  0  0  0
   13.0870  -17.1480   23.9520 C   0  0  2  0  0  0  0  0  0  0  0  0
   11.9786  -16.1992   23.9496 N   0  0  0  0  0  0  0  0  0  0  0  0
   13.3400  -17.6010   25.3297 C   0  0  0  0  0  0  0  0  0  0  0  0
   12.6509  -17.1758   26.2759 O   0  0  0  0  0  0  0  0  0  0  0  0
   14.3724  -18.5244   25.5817 O   0  0  0  0  0  0  0  0  0  0  0  0
  2  3  1  0
  2  1  1  6
  4  2  1  0
  5  4  2  0
  6  4  1  0
  7  6  1  0
  8  9  1  0
  7  8  1  1
  9 10  2  0
 11 10  1  0
 12 11  1  0
 13 12  2  0
 14 13  1  0
 15 14  2  0
 15 16  1  0
 16 17  2  0
 17 12  1  0
 17  9  1  0
 18  7  1  0
 18 19  2  0
 21 20  1  0
 22 21  2  0
 23 21  1  0
 24 23  1  1
 24 25  1  0
 25 18  1  0
 26 24  1  0
 27 26  2  0
 28 26  1  0
M  END
$$$$
