AWN.pdb
     RDKit          3D

 28 29  0  0  1  0  0  0  0  0999 V2000
    8.9514  -14.9481   17.8725 C   0  0  0  0  0  0  0  0  0  0  0  0
    8.0219  -14.0069   18.6115 C   0  0  2  0  0  0  0  0  0  0  0  0
    8.2161  -12.6779   18.0851 N   0  0  0  0  0  0  0  0  0  0  0  0
    8.3618  -14.0214   20.0626 C   0  0  0  0  0  0  0  0  0  0  0  0
    9.3062  -13.3454   20.4987 O   0  0  0  0  0  0  0  0  0  0  0  0
    7.6522  -14.7833   21.0114 N   0  0  0  0  0  0  0  0  0  0  0  0
    7.8698  -14.7750   22.4409 C   0  0  1  0  0  0  0  0  0  0  0  0
    6.6573  -14.9920   23.2477 C   0  0  0  0  0  0  0  0  0  0  0  0
    6.8016  -14.8620   24.7086 C   0  0  0  0  0  0  0  0  0  0  0  0
    6.8397  -15.8624   25.6801 C   0  0  0  0  0  0  0  0  0  0  0  0
    6.9465  -15.3693   26.9049 N   0  0  0  0  0  0  0  0  0  0  0  0
    6.9849  -14.0068   26.8022 C   0  0  0  0  0  0  0  0  0  0  0  0
    7.0973  -13.0077   27.7772 C   0  0  0  0  0  0  0  0  0  0  0  0
    7.1122  -11.7109   27.3145 C   0  0  0  0  0  0  0  0  0  0  0  0
    7.0259  -11.3649   25.9887 C   0  0  0  0  0  0  0  0  0  0  0  0
    6.9171  -12.3636   25.0544 C   0  0  0  0  0  0  0  0  0  0  0  0
    6.8966  -13.6841   25.4633 C   0  0  0  0  0  0  0  0  0  0  0  0
    8.9443  -15.7572   22.6806 C   0  0  0  0  0  0  0  0  0  0  0  0
    8.8603  -16.9451   22.2004 O   0  0  0  0  0  0  0  0  0  0  0  0
   12.8318  -14.1425   21.3269 N   0  0  0  0  0  0  0  0  0  0  0  0
   12.5824  -15.4648   21.8202 C   0  0  0  0  0  0  0  0  0  0  0  0
   12.4534  -16.3823   20.9723 O   0  0  0  0  0  0  0  0  0  0  0  0
   12.4731  -15.8011   23.2422 C   0  0  0  0  0  0  0  0  0  0  0  0
   11.1635  -16.5738   23.5225 C   0  0  2  0  0  0  0  0  0  0  0  0
   10.1412  -15.5377   23.4211 N   0  0  0  0  0  0  0  0  0  0  0  0
   11.1837  -17.1085   24.8939 C   0  0  0  0  0  0  0  0  0  0  0  0
   12.0368  -17.9486   25.2367 O   0  0  0  0  0  0  0  0  0  0  0  0
   10.2284  -16.6668   25.8289 O   0  0  0  0  0  0  0  0  0  0  0  0
  2  3  1  0
  2  1  1  6
  4  2  1  0
  5  4  2  0
  6  4  1  0
  7  6  1  0
  8  9  1  0
  7  8  1  1
  9 10  2  0
 11 10  1  0
 12 11  1  0
 13 12  2  0
 14 13  1  0
 15 14  2  0
 15 16  1  0
 16 17  2  0
 17 12  1  0
 17  9  1  0
 18  7  1  0
 18 19  2  0
 21 20  1  0
 22 21  2  0
 23 21  1  0
 24 23  1  1
 24 25  1  0
 25 18  1  0
 26 24  1  0
 27 26  2  0
 28 26  1  0
M  END
$$$$
