AWN.pdb
     RDKit          3D

 28 29  0  0  1  0  0  0  0  0999 V2000
    7.9188  -15.6859   19.1237 C   0  0  0  0  0  0  0  0  0  0  0  0
    7.4310  -14.7262   20.1900 C   0  0  2  0  0  0  0  0  0  0  0  0
    7.3481  -13.4096   19.6064 N   0  0  0  0  0  0  0  0  0  0  0  0
    8.4056  -14.7098   21.3176 C   0  0  0  0  0  0  0  0  0  0  0  0
    9.4064  -13.9776   21.2790 O   0  0  0  0  0  0  0  0  0  0  0  0
    8.2597  -15.5032   22.4723 N   0  0  0  0  0  0  0  0  0  0  0  0
    9.0904  -15.4424   23.6543 C   0  0  1  0  0  0  0  0  0  0  0  0
    8.4275  -15.8812   24.8938 C   0  0  0  0  0  0  0  0  0  0  0  0
    7.3402  -15.0259   25.4021 C   0  0  0  0  0  0  0  0  0  0  0  0
    5.9912  -15.3331   25.5804 C   0  0  0  0  0  0  0  0  0  0  0  0
    5.2957  -14.2989   26.0295 N   0  0  0  0  0  0  0  0  0  0  0  0
    6.1587  -13.2484   26.1716 C   0  0  0  0  0  0  0  0  0  0  0  0
    5.9537  -11.9352   26.6134 C   0  0  0  0  0  0  0  0  0  0  0  0
    7.0671  -11.1255   26.6385 C   0  0  0  0  0  0  0  0  0  0  0  0
    8.3240  -11.5322   26.2647 C   0  0  0  0  0  0  0  0  0  0  0  0
    8.4968  -12.8239   25.8363 C   0  0  0  0  0  0  0  0  0  0  0  0
    7.4126  -13.6805   25.7903 C   0  0  0  0  0  0  0  0  0  0  0  0
   10.3110  -16.1989   23.3162 C   0  0  0  0  0  0  0  0  0  0  0  0
   10.2358  -17.2912   22.6454 O   0  0  0  0  0  0  0  0  0  0  0  0
   15.2877  -17.8241   22.6637 N   0  0  0  0  0  0  0  0  0  0  0  0
   15.1817  -16.4020   22.8058 C   0  0  0  0  0  0  0  0  0  0  0  0
   16.2146  -15.7216   22.5871 O   0  0  0  0  0  0  0  0  0  0  0  0
   13.9490  -15.7066   23.1854 C   0  0  0  0  0  0  0  0  0  0  0  0
   12.7701  -16.7014   23.2908 C   0  0  2  0  0  0  0  0  0  0  0  0
   11.6476  -15.8449   23.6585 N   0  0  0  0  0  0  0  0  0  0  0  0
   13.0259  -17.6646   24.3744 C   0  0  0  0  0  0  0  0  0  0  0  0
   13.8858  -18.5559   24.2435 O   0  0  0  0  0  0  0  0  0  0  0  0
   12.2905  -17.5789   25.5718 O   0  0  0  0  0  0  0  0  0  0  0  0
  2  3  1  0
  2  1  1  6
  4  2  1  0
  5  4  2  0
  6  4  1  0
  7  6  1  0
  8  9  1  0
  7  8  1  1
  9 10  2  0
 11 10  1  0
 12 11  1  0
 13 12  2  0
 14 13  1  0
 15 14  2  0
 15 16  1  0
 16 17  2  0
 17 12  1  0
 17  9  1  0
 18  7  1  0
 18 19  2  0
 21 20  1  0
 22 21  2  0
 23 21  1  0
 24 23  1  1
 24 25  1  0
 25 18  1  0
 26 24  1  0
 27 26  2  0
 28 26  1  0
M  END
$$$$
