LQC.pdb
     RDKit          3D

 24 23  0  0  1  0  0  0  0  0999 V2000
   26.7407  -18.8357   -6.7251 C   0  0  0  0  0  0  0  0  0  0  0  0
   27.0736  -20.3096   -6.6914 C   0  0  2  0  0  0  0  0  0  0  0  0
   28.2843  -20.5812   -5.8467 C   0  0  0  0  0  0  0  0  0  0  0  0
   27.2442  -20.8370   -8.1187 C   0  0  0  0  0  0  0  0  0  0  0  0
   26.1049  -20.2658   -8.9224 C   0  0  2  0  0  0  0  0  0  0  0  0
   24.8973  -20.9775   -8.5438 N   0  0  0  0  0  0  0  0  0  0  0  0
   26.2972  -20.3944  -10.3780 C   0  0  0  0  0  0  0  0  0  0  0  0
   27.3764  -20.0095  -10.9292 O   0  0  0  0  0  0  0  0  0  0  0  0
   24.8645  -24.7683  -13.9634 N   0  0  0  0  0  0  0  0  0  0  0  0
   24.9392  -23.8032  -15.0177 C   0  0  0  0  0  0  0  0  0  0  0  0
   25.1026  -24.2643  -16.1793 O   0  0  0  0  0  0  0  0  0  0  0  0
   24.8291  -22.3435  -14.7476 C   0  0  0  0  0  0  0  0  0  0  0  0
   24.6418  -22.1667  -13.2742 C   0  0  0  0  0  0  0  0  0  0  0  0
   25.5170  -21.1003  -12.6766 C   0  0  2  0  0  0  0  0  0  0  0  0
   25.3260  -20.9411  -11.2604 N   0  0  0  0  0  0  0  0  0  0  0  0
   25.4668  -19.8277  -13.4146 C   0  0  0  0  0  0  0  0  0  0  0  0
   24.4988  -19.0639  -13.2170 O   0  0  0  0  0  0  0  0  0  0  0  0
   26.4598  -19.4400  -14.3281 N   0  0  0  0  0  0  0  0  0  0  0  0
   26.4103  -18.1772  -15.0476 C   0  0  1  0  0  0  0  0  0  0  0  0
   27.8051  -17.7586  -15.5024 C   0  0  0  0  0  0  0  0  0  0  0  0
   28.6149  -19.0735  -16.4161 S   0  0  0  0  0  0  0  0  0  0  0  0
   25.5357  -18.2812  -16.2461 C   0  0  0  0  0  0  0  0  0  0  0  0
   25.1607  -17.2305  -16.7971 O   0  0  0  0  0  0  0  0  0  0  0  0
   25.1569  -19.5202  -16.7248 O   0  0  0  0  0  0  0  0  0  0  0  0
  2  1  1  6
  2  3  1  0
  4  2  1  0
  4  5  1  0
  5  7  1  0
  5  6  1  1
  7  8  2  0
  9 10  1  0
 10 11  2  0
 10 12  1  0
 12 13  1  0
 14 13  1  6
 15 14  1  0
 15  7  1  0
 16 17  2  0
 16 14  1  0
 18 16  1  0
 19 18  1  0
 19 20  1  6
 21 20  1  0
 22 19  1  0
 22 24  1  0
 23 22  2  0
M  END
$$$$
