LQC.pdb
     RDKit          3D

 24 23  0  0  1  0  0  0  0  0999 V2000
   19.5445  -11.7178  -18.1108 C   0  0  0  0  0  0  0  0  0  0  0  0
   18.9933  -12.0656  -16.7471 C   0  0  2  0  0  0  0  0  0  0  0  0
   18.3753  -13.4336  -16.7361 C   0  0  0  0  0  0  0  0  0  0  0  0
   18.0025  -10.9887  -16.2964 C   0  0  0  0  0  0  0  0  0  0  0  0
   18.8227   -9.8937  -15.6651 C   0  0  2  0  0  0  0  0  0  0  0  0
   19.5462  -10.4727  -14.5473 N   0  0  0  0  0  0  0  0  0  0  0  0
   18.0095   -8.7668  -15.1738 C   0  0  0  0  0  0  0  0  0  0  0  0
   17.2048   -8.1581  -15.9474 O   0  0  0  0  0  0  0  0  0  0  0  0
   16.6355   -7.3382   -9.2117 N   0  0  0  0  0  0  0  0  0  0  0  0
   15.9899   -6.2744   -9.9188 C   0  0  0  0  0  0  0  0  0  0  0  0
   15.2554   -5.5173   -9.2289 O   0  0  0  0  0  0  0  0  0  0  0  0
   16.1811   -6.0824  -11.3824 C   0  0  0  0  0  0  0  0  0  0  0  0
   17.0102   -7.2210  -11.8858 C   0  0  0  0  0  0  0  0  0  0  0  0
   17.2943   -7.1569  -13.3607 C   0  0  2  0  0  0  0  0  0  0  0  0
   18.0536   -8.2804  -13.8389 N   0  0  0  0  0  0  0  0  0  0  0  0
   17.8449   -5.8609  -13.7896 C   0  0  0  0  0  0  0  0  0  0  0  0
   19.0003   -5.5566  -13.4266 O   0  0  0  0  0  0  0  0  0  0  0  0
   17.1256   -4.9569  -14.5873 N   0  0  0  0  0  0  0  0  0  0  0  0
   17.7076   -3.7223  -15.0891 C   0  0  1  0  0  0  0  0  0  0  0  0
   17.3216   -3.4958  -16.5476 C   0  0  0  0  0  0  0  0  0  0  0  0
   18.1264   -4.6822  -17.6268 S   0  0  0  0  0  0  0  0  0  0  0  0
   17.2460   -2.5539  -14.2929 C   0  0  0  0  0  0  0  0  0  0  0  0
   16.1665   -2.6450  -13.6810 O   0  0  0  0  0  0  0  0  0  0  0  0
   18.0072   -1.4024  -14.2430 O   0  0  0  0  0  0  0  0  0  0  0  0
  2  1  1  6
  2  3  1  0
  4  2  1  0
  4  5  1  0
  5  7  1  0
  5  6  1  1
  7  8  2  0
  9 10  1  0
 10 11  2  0
 10 12  1  0
 12 13  1  0
 14 13  1  1
 15 14  1  0
 15  7  1  0
 16 17  2  0
 16 14  1  0
 18 16  1  0
 19 18  1  0
 19 20  1  6
 21 20  1  0
 22 19  1  0
 22 24  1  0
 23 22  2  0
M  END
$$$$
