LQC.pdb
     RDKit          3D

 24 23  0  0  1  0  0  0  0  0999 V2000
   23.9978  -14.4658  -15.9323 C   0  0  0  0  0  0  0  0  0  0  0  0
   25.0642  -15.3859  -16.4807 C   0  0  2  0  0  0  0  0  0  0  0  0
   25.2035  -15.2416  -17.9683 C   0  0  0  0  0  0  0  0  0  0  0  0
   24.7638  -16.8310  -16.0736 C   0  0  0  0  0  0  0  0  0  0  0  0
   25.5840  -17.1046  -14.8397 C   0  0  2  0  0  0  0  0  0  0  0  0
   26.9252  -16.6035  -15.0811 N   0  0  0  0  0  0  0  0  0  0  0  0
   25.6646  -18.5366  -14.4998 C   0  0  0  0  0  0  0  0  0  0  0  0
   24.6138  -19.2483  -14.4243 O   0  0  0  0  0  0  0  0  0  0  0  0
   26.4384  -23.4335  -15.2827 N   0  0  0  0  0  0  0  0  0  0  0  0
   26.9121  -22.5729  -16.3236 C   0  0  0  0  0  0  0  0  0  0  0  0
   26.5207  -22.8479  -17.4898 O   0  0  0  0  0  0  0  0  0  0  0  0
   27.8133  -21.4238  -16.0354 C   0  0  0  0  0  0  0  0  0  0  0  0
   28.0234  -21.3710  -14.5554 C   0  0  0  0  0  0  0  0  0  0  0  0
   26.9651  -20.5954  -13.8214 C   0  0  2  0  0  0  0  0  0  0  0  0
   26.8821  -19.2212  -14.2362 N   0  0  0  0  0  0  0  0  0  0  0  0
   27.0371  -20.7560  -12.3599 C   0  0  0  0  0  0  0  0  0  0  0  0
   28.1630  -20.8301  -11.8250 O   0  0  0  0  0  0  0  0  0  0  0  0
   25.8950  -20.8287  -11.5468 N   0  0  0  0  0  0  0  0  0  0  0  0
   25.9719  -20.9444  -10.0992 C   0  0  1  0  0  0  0  0  0  0  0  0
   26.6693  -19.7292   -9.4956 C   0  0  0  0  0  0  0  0  0  0  0  0
   26.5659  -19.7411   -7.7043 S   0  0  0  0  0  0  0  0  0  0  0  0
   24.6145  -21.0537   -9.5010 C   0  0  0  0  0  0  0  0  0  0  0  0
   23.6296  -20.8155  -10.2229 O   0  0  0  0  0  0  0  0  0  0  0  0
   24.4661  -21.4116   -8.1752 O   0  0  0  0  0  0  0  0  0  0  0  0
  2  1  1  6
  2  3  1  0
  4  2  1  0
  4  5  1  0
  5  7  1  0
  5  6  1  6
  7  8  2  0
  9 10  1  0
 10 11  2  0
 10 12  1  0
 12 13  1  0
 14 13  1  6
 15 14  1  0
 15  7  1  0
 16 17  2  0
 16 14  1  0
 18 16  1  0
 19 18  1  0
 19 20  1  1
 21 20  1  0
 22 19  1  0
 22 24  1  0
 23 22  2  0
M  END
$$$$
