LQC.pdb
     RDKit          3D

 24 23  0  0  1  0  0  0  0  0999 V2000
   23.9540  -13.3521  -15.2770 C   0  0  0  0  0  0  0  0  0  0  0  0
   24.1005  -12.9030  -16.7127 C   0  0  2  0  0  0  0  0  0  0  0  0
   25.5436  -12.8049  -17.1141 C   0  0  0  0  0  0  0  0  0  0  0  0
   23.3592  -11.5797  -16.9220 C   0  0  0  0  0  0  0  0  0  0  0  0
   21.9129  -11.8458  -16.5939 C   0  0  2  0  0  0  0  0  0  0  0  0
   21.3975  -12.7697  -17.5884 N   0  0  0  0  0  0  0  0  0  0  0  0
   21.0814  -10.6287  -16.5982 C   0  0  0  0  0  0  0  0  0  0  0  0
   20.9639   -9.9238  -17.6497 O   0  0  0  0  0  0  0  0  0  0  0  0
   16.4715  -12.3325  -16.6534 N   0  0  0  0  0  0  0  0  0  0  0  0
   16.6458  -11.1680  -15.8397 C   0  0  0  0  0  0  0  0  0  0  0  0
   16.1647  -11.2290  -14.6762 O   0  0  0  0  0  0  0  0  0  0  0  0
   17.3548   -9.9615  -16.3469 C   0  0  0  0  0  0  0  0  0  0  0  0
   18.0674   -9.3336  -15.1914 C   0  0  0  0  0  0  0  0  0  0  0  0
   19.5058   -9.0015  -15.4757 C   0  0  2  0  0  0  0  0  0  0  0  0
   20.3642  -10.1550  -15.4661 N   0  0  0  0  0  0  0  0  0  0  0  0
   20.0179   -7.8915  -14.6556 C   0  0  0  0  0  0  0  0  0  0  0  0
   20.6262   -8.1642  -13.5997 O   0  0  0  0  0  0  0  0  0  0  0  0
   19.8503   -6.5440  -15.0119 N   0  0  0  0  0  0  0  0  0  0  0  0
   20.4708   -5.4566  -14.2721 C   0  0  1  0  0  0  0  0  0  0  0  0
   21.9918   -5.5500  -14.3471 C   0  0  0  0  0  0  0  0  0  0  0  0
   22.7712   -4.1402  -13.5568 S   0  0  0  0  0  0  0  0  0  0  0  0
   20.0528   -4.1365  -14.8152 C   0  0  0  0  0  0  0  0  0  0  0  0
   19.7120   -4.0700  -16.0099 O   0  0  0  0  0  0  0  0  0  0  0  0
   20.0480   -3.0203  -14.0016 O   0  0  0  0  0  0  0  0  0  0  0  0
  2  1  1  1
  2  3  1  0
  4  2  1  0
  4  5  1  0
  5  7  1  0
  5  6  1  6
  7  8  2  0
  9 10  1  0
 10 11  2  0
 10 12  1  0
 12 13  1  0
 14 13  1  1
 15 14  1  0
 15  7  1  0
 16 17  2  0
 16 14  1  0
 18 16  1  0
 19 18  1  0
 19 20  1  6
 21 20  1  0
 22 19  1  0
 22 24  1  0
 23 22  2  0
M  END
$$$$
