LQC.pdb
     RDKit          3D

 24 23  0  0  1  0  0  0  0  0999 V2000
   29.0526  -19.0919   -6.0244 C   0  0  0  0  0  0  0  0  0  0  0  0
   27.8266  -19.7044   -5.3869 C   0  0  2  0  0  0  0  0  0  0  0  0
   28.1823  -20.5063   -4.1689 C   0  0  0  0  0  0  0  0  0  0  0  0
   27.0670  -20.5420   -6.4193 C   0  0  0  0  0  0  0  0  0  0  0  0
   27.0871  -19.7547   -7.7038 C   0  0  2  0  0  0  0  0  0  0  0  0
   26.4380  -18.4808   -7.4508 N   0  0  0  0  0  0  0  0  0  0  0  0
   26.3914  -20.4320   -8.8128 C   0  0  0  0  0  0  0  0  0  0  0  0
   26.6786  -21.6299   -9.1273 O   0  0  0  0  0  0  0  0  0  0  0  0
   21.4342  -21.4331  -12.1740 N   0  0  0  0  0  0  0  0  0  0  0  0
   21.4134  -21.2767  -10.7514 C   0  0  0  0  0  0  0  0  0  0  0  0
   20.4962  -21.8888  -10.1409 O   0  0  0  0  0  0  0  0  0  0  0  0
   22.4201  -20.4384  -10.0446 C   0  0  0  0  0  0  0  0  0  0  0  0
   23.4074  -19.9597  -11.0610 C   0  0  0  0  0  0  0  0  0  0  0  0
   24.8178  -20.4047  -10.7910 C   0  0  2  0  0  0  0  0  0  0  0  0
   25.3745  -19.8248   -9.5989 N   0  0  0  0  0  0  0  0  0  0  0  0
   25.7000  -20.2791  -11.9627 C   0  0  0  0  0  0  0  0  0  0  0  0
   26.1116  -19.1430  -12.2776 O   0  0  0  0  0  0  0  0  0  0  0  0
   26.0954  -21.3813  -12.7371 N   0  0  0  0  0  0  0  0  0  0  0  0
   26.9033  -21.2433  -13.9384 C   0  0  1  0  0  0  0  0  0  0  0  0
   27.8396  -22.4369  -14.1007 C   0  0  0  0  0  0  0  0  0  0  0  0
   28.7403  -22.3528  -15.6504 S   0  0  0  0  0  0  0  0  0  0  0  0
   26.0449  -21.1502  -15.1495 C   0  0  0  0  0  0  0  0  0  0  0  0
   24.9628  -21.7641  -15.1556 O   0  0  0  0  0  0  0  0  0  0  0  0
   26.4517  -20.3969  -16.2335 O   0  0  0  0  0  0  0  0  0  0  0  0
  2  1  1  6
  2  3  1  0
  4  2  1  0
  4  5  1  0
  5  7  1  0
  5  6  1  1
  7  8  2  0
  9 10  1  0
 10 11  2  0
 10 12  1  0
 12 13  1  0
 14 13  1  6
 15 14  1  0
 15  7  1  0
 16 17  2  0
 16 14  1  0
 18 16  1  0
 19 18  1  0
 19 20  1  6
 21 20  1  0
 22 19  1  0
 22 24  1  0
 23 22  2  0
M  END
$$$$
