LQC.pdb
     RDKit          3D

 24 23  0  0  1  0  0  0  0  0999 V2000
   14.5299   -9.0767  -16.5548 C   0  0  0  0  0  0  0  0  0  0  0  0
   14.1614  -10.3900  -15.9037 C   0  0  2  0  0  0  0  0  0  0  0  0
   12.6731  -10.5509  -15.7934 C   0  0  0  0  0  0  0  0  0  0  0  0
   14.8501  -10.5063  -14.5411 C   0  0  0  0  0  0  0  0  0  0  0  0
   16.3170  -10.2626  -14.7837 C   0  0  2  0  0  0  0  0  0  0  0  0
   16.9406  -11.5476  -15.0447 N   0  0  0  0  0  0  0  0  0  0  0  0
   16.9980   -9.6257  -13.6421 C   0  0  0  0  0  0  0  0  0  0  0  0
   17.1911  -10.2644  -12.5598 O   0  0  0  0  0  0  0  0  0  0  0  0
   21.7566   -5.8413  -13.5728 N   0  0  0  0  0  0  0  0  0  0  0  0
   21.3582   -5.7371  -12.2020 C   0  0  0  0  0  0  0  0  0  0  0  0
   22.1582   -5.1332  -11.4378 O   0  0  0  0  0  0  0  0  0  0  0  0
   20.0731   -6.3114  -11.7179 C   0  0  0  0  0  0  0  0  0  0  0  0
   19.4098   -6.9833  -12.8779 C   0  0  0  0  0  0  0  0  0  0  0  0
   18.1052   -7.6443  -12.5293 C   0  0  2  0  0  0  0  0  0  0  0  0
   17.4808   -8.2888  -13.6528 N   0  0  0  0  0  0  0  0  0  0  0  0
   17.1902   -6.7645  -11.7841 C   0  0  0  0  0  0  0  0  0  0  0  0
   16.5584   -5.8921  -12.4158 O   0  0  0  0  0  0  0  0  0  0  0  0
   17.0001   -6.8667  -10.3969 N   0  0  0  0  0  0  0  0  0  0  0  0
   16.1012   -5.9894   -9.6640 C   0  0  1  0  0  0  0  0  0  0  0  0
   15.6853   -6.6243   -8.3406 C   0  0  0  0  0  0  0  0  0  0  0  0
   14.9606   -8.2460   -8.5947 S   0  0  0  0  0  0  0  0  0  0  0  0
   16.7502   -4.6825   -9.3759 C   0  0  0  0  0  0  0  0  0  0  0  0
   17.9417   -4.5301   -9.7002 O   0  0  0  0  0  0  0  0  0  0  0  0
   16.0357   -3.6719   -8.7629 O   0  0  0  0  0  0  0  0  0  0  0  0
  2  1  1  1
  2  3  1  0
  4  2  1  0
  4  5  1  0
  5  7  1  0
  5  6  1  1
  7  8  2  0
  9 10  1  0
 10 11  2  0
 10 12  1  0
 12 13  1  0
 14 13  1  6
 15 14  1  0
 15  7  1  0
 16 17  2  0
 16 14  1  0
 18 16  1  0
 19 18  1  0
 19 20  1  1
 21 20  1  0
 22 19  1  0
 22 24  1  0
 23 22  2  0
M  END
$$$$
