LQC.pdb
     RDKit          3D

 24 23  0  0  1  0  0  0  0  0999 V2000
   27.8230  -21.4864  -10.3371 C   0  0  0  0  0  0  0  0  0  0  0  0
   28.6259  -21.4277  -11.6163 C   0  0  2  0  0  0  0  0  0  0  0  0
   30.0912  -21.2569  -11.3388 C   0  0  0  0  0  0  0  0  0  0  0  0
   28.0836  -20.3174  -12.5204 C   0  0  0  0  0  0  0  0  0  0  0  0
   26.6571  -20.6852  -12.8367 C   0  0  2  0  0  0  0  0  0  0  0  0
   26.6650  -22.0069  -13.4377 N   0  0  0  0  0  0  0  0  0  0  0  0
   26.0052  -19.7438  -13.7648 C   0  0  0  0  0  0  0  0  0  0  0  0
   26.6376  -18.7430  -14.2285 O   0  0  0  0  0  0  0  0  0  0  0  0
   27.2364  -18.9315  -17.9644 N   0  0  0  0  0  0  0  0  0  0  0  0
   25.9658  -18.9051  -18.6226 C   0  0  0  0  0  0  0  0  0  0  0  0
   25.9531  -18.4094  -19.7814 O   0  0  0  0  0  0  0  0  0  0  0  0
   24.7379  -19.4344  -17.9684 C   0  0  0  0  0  0  0  0  0  0  0  0
   25.1255  -19.9394  -16.6150 C   0  0  0  0  0  0  0  0  0  0  0  0
   24.1990  -19.4982  -15.5163 C   0  0  2  0  0  0  0  0  0  0  0  0
   24.6597  -19.8695  -14.2059 N   0  0  0  0  0  0  0  0  0  0  0  0
   22.7940  -19.8626  -15.7611 C   0  0  0  0  0  0  0  0  0  0  0  0
   22.5446  -20.7073  -16.6463 O   0  0  0  0  0  0  0  0  0  0  0  0
   21.7273  -19.3006  -15.0418 N   0  0  0  0  0  0  0  0  0  0  0  0
   20.7187  -20.1110  -14.3782 C   0  0  1  0  0  0  0  0  0  0  0  0
   21.2026  -20.5571  -13.0018 C   0  0  0  0  0  0  0  0  0  0  0  0
   19.9933  -21.6089  -12.1949 S   0  0  0  0  0  0  0  0  0  0  0  0
   19.4518  -19.3506  -14.2082 C   0  0  0  0  0  0  0  0  0  0  0  0
   19.5134  -18.1107  -14.1255 O   0  0  0  0  0  0  0  0  0  0  0  0
   18.2439  -20.0175  -14.1453 O   0  0  0  0  0  0  0  0  0  0  0  0
  2  1  1  1
  2  3  1  0
  4  2  1  0
  4  5  1  0
  5  7  1  0
  5  6  1  6
  7  8  2  0
  9 10  1  0
 10 11  2  0
 10 12  1  0
 12 13  1  0
 14 13  1  6
 15 14  1  0
 15  7  1  0
 16 17  2  0
 16 14  1  0
 18 16  1  0
 19 18  1  0
 19 20  1  1
 21 20  1  0
 22 19  1  0
 22 24  1  0
 23 22  2  0
M  END
$$$$
