LQC.pdb
     RDKit          3D

 24 23  0  0  1  0  0  0  0  0999 V2000
   27.7718  -12.8817  -16.3307 C   0  0  0  0  0  0  0  0  0  0  0  0
   26.3395  -13.3520  -16.2221 C   0  0  2  0  0  0  0  0  0  0  0  0
   25.9544  -13.6181  -14.7958 C   0  0  0  0  0  0  0  0  0  0  0  0
   26.1274  -14.5821  -17.1089 C   0  0  0  0  0  0  0  0  0  0  0  0
   26.4018  -15.7837  -16.2423 C   0  0  2  0  0  0  0  0  0  0  0  0
   27.7765  -16.1899  -16.4736 N   0  0  0  0  0  0  0  0  0  0  0  0
   25.5133  -16.9241  -16.5299 C   0  0  0  0  0  0  0  0  0  0  0  0
   25.7442  -17.6985  -17.5114 O   0  0  0  0  0  0  0  0  0  0  0  0
   25.7979  -21.9517  -16.1168 N   0  0  0  0  0  0  0  0  0  0  0  0
   24.3744  -22.0910  -16.1683 C   0  0  0  0  0  0  0  0  0  0  0  0
   23.9342  -23.2720  -16.1840 O   0  0  0  0  0  0  0  0  0  0  0  0
   23.4757  -20.9049  -16.2010 C   0  0  0  0  0  0  0  0  0  0  0  0
   24.3181  -19.6899  -15.9741 C   0  0  0  0  0  0  0  0  0  0  0  0
   23.5392  -18.4040  -15.9791 C   0  0  2  0  0  0  0  0  0  0  0  0
   24.3616  -17.2448  -15.7610 N   0  0  0  0  0  0  0  0  0  0  0  0
   22.3505  -18.4425  -15.1117 C   0  0  0  0  0  0  0  0  0  0  0  0
   22.5181  -18.5306  -13.8774 O   0  0  0  0  0  0  0  0  0  0  0  0
   21.0412  -18.3842  -15.6149 N   0  0  0  0  0  0  0  0  0  0  0  0
   19.8772  -18.2571  -14.7526 C   0  0  1  0  0  0  0  0  0  0  0  0
   18.7462  -17.5303  -15.4741 C   0  0  0  0  0  0  0  0  0  0  0  0
   19.1441  -15.7999  -15.7332 S   0  0  0  0  0  0  0  0  0  0  0  0
   19.3817  -19.5931  -14.3264 C   0  0  0  0  0  0  0  0  0  0  0  0
   19.6914  -20.5845  -15.0115 O   0  0  0  0  0  0  0  0  0  0  0  0
   18.5981  -19.7155  -13.1956 O   0  0  0  0  0  0  0  0  0  0  0  0
  2  1  1  1
  2  3  1  0
  4  2  1  0
  4  5  1  0
  5  7  1  0
  5  6  1  6
  7  8  2  0
  9 10  1  0
 10 11  2  0
 10 12  1  0
 12 13  1  0
 14 13  1  1
 15 14  1  0
 15  7  1  0
 16 17  2  0
 16 14  1  0
 18 16  1  0
 19 18  1  0
 19 20  1  6
 21 20  1  0
 22 19  1  0
 22 24  1  0
 23 22  2  0
M  END
$$$$
