GHS.pdb
     RDKit          3D

 21 21  0  0  1  0  0  0  0  0999 V2000
   17.2804  -11.1880  -14.9578 N   0  0  0  0  0  0  0  0  0  0  0  0
   18.0603  -11.4792  -16.1214 C   0  0  0  0  0  0  0  0  0  0  0  0
   19.3934  -10.7893  -16.0874 C   0  0  0  0  0  0  0  0  0  0  0  0
   20.3240  -11.3096  -15.4302 O   0  0  0  0  0  0  0  0  0  0  0  0
   19.6121   -9.5858  -16.7713 N   0  0  0  0  0  0  0  0  0  0  0  0
   20.7984   -8.7910  -16.7038 C   0  0  1  0  0  0  0  0  0  0  0  0
   21.4992   -8.5915  -18.0405 C   0  0  0  0  0  0  0  0  0  0  0  0
   21.9218   -9.8872  -18.6315 C   0  0  0  0  0  0  0  0  0  0  0  0
   21.3464  -10.6104  -19.6473 C   0  0  0  0  0  0  0  0  0  0  0  0
   22.0599  -11.7330  -19.8838 N   0  0  0  0  0  0  0  0  0  0  0  0
   23.0755  -11.7016  -19.0138 C   0  0  0  0  0  0  0  0  0  0  0  0
   23.0209  -10.6137  -18.2534 N   0  0  0  0  0  0  0  0  0  0  0  0
   20.5593   -7.5422  -15.9731 C   0  0  0  0  0  0  0  0  0  0  0  0
   19.4951   -6.8536  -16.1215 O   0  0  0  0  0  0  0  0  0  0  0  0
   22.1765   -4.4268  -12.5913 O   0  0  0  0  0  0  0  0  0  0  0  0
   22.4575   -5.4909  -13.4216 C   0  0  0  0  0  0  0  0  0  0  0  0
   21.2849   -5.7763  -14.3416 C   0  0  2  0  0  0  0  0  0  0  0  0
   21.5078   -7.0220  -15.0489 N   0  0  0  0  0  0  0  0  0  0  0  0
   21.1961   -4.6335  -15.3184 C   0  0  0  0  0  0  0  0  0  0  0  0
   21.9174   -4.6275  -16.3463 O   0  0  0  0  0  0  0  0  0  0  0  0
   20.3419   -3.5841  -15.1208 O   0  0  0  0  0  0  0  0  0  0  0  0
  2  1  1  0
  3  4  2  0
  3  2  1  0
  5  3  1  0
  6  5  1  0
  7  8  1  0
  6  7  1  6
  8 12  1  0
  9  8  2  0
  9 10  1  0
 10 11  1  0
 12 11  2  0
 13 18  1  0
 13  6  1  0
 14 13  2  0
 15 16  1  0
 17 16  1  1
 17 19  1  0
 17 18  1  0
 19 21  1  0
 20 19  2  0
M  END
$$$$
