GHS.pdb
     RDKit          3D

 21 21  0  0  1  0  0  0  0  0999 V2000
   20.6977  -10.1235  -18.5685 N   0  0  0  0  0  0  0  0  0  0  0  0
   19.3097  -10.0054  -18.2419 C   0  0  0  0  0  0  0  0  0  0  0  0
   19.0464   -8.8375  -17.3360 C   0  0  0  0  0  0  0  0  0  0  0  0
   17.8709   -8.6164  -16.9648 O   0  0  0  0  0  0  0  0  0  0  0  0
   20.0826   -7.9991  -16.9032 N   0  0  0  0  0  0  0  0  0  0  0  0
   19.9362   -6.8675  -16.0418 C   0  0  1  0  0  0  0  0  0  0  0  0
   20.8074   -6.9095  -14.7941 C   0  0  0  0  0  0  0  0  0  0  0  0
   20.1707   -7.7049  -13.7131 C   0  0  0  0  0  0  0  0  0  0  0  0
   18.9412   -8.3163  -13.6898 C   0  0  0  0  0  0  0  0  0  0  0  0
   18.7565   -8.9494  -12.5106 N   0  0  0  0  0  0  0  0  0  0  0  0
   19.8725   -8.7283  -11.8069 C   0  0  0  0  0  0  0  0  0  0  0  0
   20.7347   -7.9896  -12.4966 N   0  0  0  0  0  0  0  0  0  0  0  0
   20.0441   -5.6122  -16.7923 C   0  0  0  0  0  0  0  0  0  0  0  0
   21.0133   -5.3687  -17.5861 O   0  0  0  0  0  0  0  0  0  0  0  0
   17.8461   -1.4669  -18.1119 O   0  0  0  0  0  0  0  0  0  0  0  0
   17.8214   -2.6084  -17.3394 C   0  0  0  0  0  0  0  0  0  0  0  0
   19.1155   -3.3861  -17.4916 C   0  0  2  0  0  0  0  0  0  0  0  0
   19.0664   -4.5849  -16.6777 N   0  0  0  0  0  0  0  0  0  0  0  0
   20.2322   -2.4889  -17.0272 C   0  0  0  0  0  0  0  0  0  0  0  0
   20.5070   -2.4085  -15.8045 O   0  0  0  0  0  0  0  0  0  0  0  0
   20.9699   -1.7458  -17.9067 O   0  0  0  0  0  0  0  0  0  0  0  0
  2  1  1  0
  3  4  2  0
  3  2  1  0
  5  3  1  0
  6  5  1  0
  7  8  1  0
  6  7  1  1
  8 12  1  0
  9  8  2  0
  9 10  1  0
 10 11  1  0
 12 11  2  0
 13 18  1  0
 13  6  1  0
 14 13  2  0
 15 16  1  0
 17 16  1  1
 17 19  1  0
 17 18  1  0
 19 21  1  0
 20 19  2  0
M  END
$$$$
