GHS.pdb
     RDKit          3D

 21 21  0  0  1  0  0  0  0  0999 V2000
   21.0453  -12.9017  -17.9903 N   0  0  0  0  0  0  0  0  0  0  0  0
   21.8013  -11.8880  -17.3209 C   0  0  0  0  0  0  0  0  0  0  0  0
   20.9719  -10.6696  -17.0354 C   0  0  0  0  0  0  0  0  0  0  0  0
   20.1847  -10.2567  -17.9178 O   0  0  0  0  0  0  0  0  0  0  0  0
   21.0623   -9.9933  -15.8113 N   0  0  0  0  0  0  0  0  0  0  0  0
   20.3382   -8.8136  -15.4539 C   0  0  1  0  0  0  0  0  0  0  0  0
   19.1904   -9.0497  -14.4822 C   0  0  0  0  0  0  0  0  0  0  0  0
   18.1455   -9.9221  -15.0770 C   0  0  0  0  0  0  0  0  0  0  0  0
   17.8861  -11.2512  -14.8482 C   0  0  0  0  0  0  0  0  0  0  0  0
   16.8331  -11.6564  -15.5913 N   0  0  0  0  0  0  0  0  0  0  0  0
   16.4430  -10.5767  -16.2782 C   0  0  0  0  0  0  0  0  0  0  0  0
   17.2057   -9.5269  -15.9932 N   0  0  0  0  0  0  0  0  0  0  0  0
   21.2464   -7.7385  -15.0411 C   0  0  0  0  0  0  0  0  0  0  0  0
   22.1810   -7.9187  -14.1911 O   0  0  0  0  0  0  0  0  0  0  0  0
   22.7129   -3.1438  -15.7607 O   0  0  0  0  0  0  0  0  0  0  0  0
   21.8577   -4.1673  -16.1093 C   0  0  0  0  0  0  0  0  0  0  0  0
   22.0737   -5.3737  -15.2145 C   0  0  2  0  0  0  0  0  0  0  0  0
   21.1367   -6.4217  -15.5689 N   0  0  0  0  0  0  0  0  0  0  0  0
   21.8383   -4.9249  -13.7964 C   0  0  0  0  0  0  0  0  0  0  0  0
   20.6750   -4.9189  -13.3237 O   0  0  0  0  0  0  0  0  0  0  0  0
   22.8660   -4.5166  -12.9920 O   0  0  0  0  0  0  0  0  0  0  0  0
  2  1  1  0
  3  4  2  0
  3  2  1  0
  5  3  1  0
  6  5  1  0
  7  8  1  0
  6  7  1  1
  8 12  1  0
  9  8  2  0
  9 10  1  0
 10 11  1  0
 12 11  2  0
 13 18  1  0
 13  6  1  0
 14 13  2  0
 15 16  1  0
 17 16  1  6
 17 19  1  0
 17 18  1  0
 19 21  1  0
 20 19  2  0
M  END
$$$$
