GHS.pdb
     RDKit          3D

 21 21  0  0  1  0  0  0  0  0999 V2000
   17.4644  -13.2245  -14.8650 N   0  0  0  0  0  0  0  0  0  0  0  0
   18.2913  -13.1723  -16.0315 C   0  0  0  0  0  0  0  0  0  0  0  0
   18.5683  -11.7594  -16.4569 C   0  0  0  0  0  0  0  0  0  0  0  0
   19.4320  -11.5550  -17.3406 O   0  0  0  0  0  0  0  0  0  0  0  0
   17.8843  -10.6765  -15.8881 N   0  0  0  0  0  0  0  0  0  0  0  0
   17.9252   -9.3256  -16.3541 C   0  0  1  0  0  0  0  0  0  0  0  0
   16.5864   -8.7859  -16.8379 C   0  0  0  0  0  0  0  0  0  0  0  0
   16.7221   -7.4158  -17.3956 C   0  0  0  0  0  0  0  0  0  0  0  0
   16.3323   -6.2137  -16.8580 C   0  0  0  0  0  0  0  0  0  0  0  0
   16.6556   -5.2018  -17.6928 N   0  0  0  0  0  0  0  0  0  0  0  0
   17.2451   -5.7803  -18.7451 C   0  0  0  0  0  0  0  0  0  0  0  0
   17.2998   -7.0994  -18.5977 N   0  0  0  0  0  0  0  0  0  0  0  0
   18.5969   -8.4511  -15.3873 C   0  0  0  0  0  0  0  0  0  0  0  0
   18.2536   -8.3946  -14.1594 O   0  0  0  0  0  0  0  0  0  0  0  0
   22.3451   -8.0817  -14.6537 O   0  0  0  0  0  0  0  0  0  0  0  0
   21.8636   -6.8460  -15.0300 C   0  0  0  0  0  0  0  0  0  0  0  0
   20.3648   -6.7647  -14.8065 C   0  0  2  0  0  0  0  0  0  0  0  0
   19.6791   -7.6083  -15.7657 N   0  0  0  0  0  0  0  0  0  0  0  0
   19.9626   -5.3263  -14.9996 C   0  0  0  0  0  0  0  0  0  0  0  0
   19.4940   -4.9470  -16.1011 O   0  0  0  0  0  0  0  0  0  0  0  0
   20.0924   -4.4034  -13.9990 O   0  0  0  0  0  0  0  0  0  0  0  0
  2  1  1  0
  3  4  2  0
  3  2  1  0
  5  3  1  0
  6  5  1  0
  7  8  1  0
  6  7  1  1
  8 12  1  0
  9  8  2  0
  9 10  1  0
 10 11  1  0
 12 11  2  0
 13 18  1  0
 13  6  1  0
 14 13  2  0
 15 16  1  0
 17 16  1  6
 17 19  1  0
 17 18  1  0
 19 21  1  0
 20 19  2  0
M  END
$$$$
