GHS.pdb
     RDKit          3D

 21 21  0  0  1  0  0  0  0  0999 V2000
   19.8706  -13.9188  -16.0574 N   0  0  0  0  0  0  0  0  0  0  0  0
   19.2690  -12.6921  -15.6326 C   0  0  0  0  0  0  0  0  0  0  0  0
   19.9128  -11.5005  -16.2804 C   0  0  0  0  0  0  0  0  0  0  0  0
   20.8918  -11.6836  -17.0397 O   0  0  0  0  0  0  0  0  0  0  0  0
   19.4420  -10.2004  -16.0524 N   0  0  0  0  0  0  0  0  0  0  0  0
   19.9226   -9.0147  -16.6904 C   0  0  1  0  0  0  0  0  0  0  0  0
   19.0120   -8.4757  -17.7848 C   0  0  0  0  0  0  0  0  0  0  0  0
   18.9223   -9.4174  -18.9301 C   0  0  0  0  0  0  0  0  0  0  0  0
   19.8228  -10.3646  -19.3519 C   0  0  0  0  0  0  0  0  0  0  0  0
   19.3426  -11.0171  -20.4331 N   0  0  0  0  0  0  0  0  0  0  0  0
   18.1457  -10.4722  -20.6777 C   0  0  0  0  0  0  0  0  0  0  0  0
   17.8667   -9.5157  -19.7989 N   0  0  0  0  0  0  0  0  0  0  0  0
   20.3177   -8.0043  -15.7035 C   0  0  0  0  0  0  0  0  0  0  0  0
   19.7366   -7.8851  -14.5735 O   0  0  0  0  0  0  0  0  0  0  0  0
   23.4643   -4.4675  -14.5227 O   0  0  0  0  0  0  0  0  0  0  0  0
   23.0177   -5.3645  -15.4696 C   0  0  0  0  0  0  0  0  0  0  0  0
   21.8141   -6.1318  -14.9545 C   0  0  2  0  0  0  0  0  0  0  0  0
   21.3803   -7.0911  -15.9512 N   0  0  0  0  0  0  0  0  0  0  0  0
   20.7236   -5.1270  -14.6920 C   0  0  0  0  0  0  0  0  0  0  0  0
   19.9179   -4.8206  -15.6052 O   0  0  0  0  0  0  0  0  0  0  0  0
   20.5782   -4.5264  -13.4721 O   0  0  0  0  0  0  0  0  0  0  0  0
  2  1  1  0
  3  4  2  0
  3  2  1  0
  5  3  1  0
  6  5  1  0
  7  8  1  0
  6  7  1  6
  8 12  1  0
  9  8  2  0
  9 10  1  0
 10 11  1  0
 12 11  2  0
 13 18  1  0
 13  6  1  0
 14 13  2  0
 15 16  1  0
 17 16  1  6
 17 19  1  0
 17 18  1  0
 19 21  1  0
 20 19  2  0
M  END
$$$$
