GHS.pdb
     RDKit          3D

 21 21  0  0  1  0  0  0  0  0999 V2000
   18.7160  -12.0267  -15.8870 N   0  0  0  0  0  0  0  0  0  0  0  0
   18.0359  -10.8206  -16.2473 C   0  0  0  0  0  0  0  0  0  0  0  0
   18.5803   -9.6310  -15.5107 C   0  0  0  0  0  0  0  0  0  0  0  0
   18.2649   -9.4706  -14.3093 O   0  0  0  0  0  0  0  0  0  0  0  0
   19.4266   -8.7066  -16.1378 N   0  0  0  0  0  0  0  0  0  0  0  0
   19.9468   -7.5146  -15.5442 C   0  0  1  0  0  0  0  0  0  0  0  0
   21.4511   -7.3394  -15.6984 C   0  0  0  0  0  0  0  0  0  0  0  0
   22.1861   -8.5621  -15.2844 C   0  0  0  0  0  0  0  0  0  0  0  0
   21.6960   -9.7578  -14.8194 C   0  0  0  0  0  0  0  0  0  0  0  0
   22.7113  -10.6128  -14.5678 N   0  0  0  0  0  0  0  0  0  0  0  0
   23.8276   -9.9440  -14.8779 C   0  0  0  0  0  0  0  0  0  0  0  0
   23.5476   -8.7187  -15.3081 N   0  0  0  0  0  0  0  0  0  0  0  0
   19.1728   -6.3376  -15.9521 C   0  0  0  0  0  0  0  0  0  0  0  0
   18.8184   -6.1350  -17.1612 O   0  0  0  0  0  0  0  0  0  0  0  0
   16.0392   -2.9500  -14.7379 O   0  0  0  0  0  0  0  0  0  0  0  0
   16.8264   -4.0285  -14.3946 C   0  0  0  0  0  0  0  0  0  0  0  0
   17.9455   -4.2168  -15.4021 C   0  0  2  0  0  0  0  0  0  0  0  0
   18.7692   -5.3454  -15.0155 N   0  0  0  0  0  0  0  0  0  0  0  0
   18.7637   -2.9525  -15.4011 C   0  0  0  0  0  0  0  0  0  0  0  0
   19.7658   -2.8528  -14.6508 O   0  0  0  0  0  0  0  0  0  0  0  0
   18.4474   -1.8912  -16.2031 O   0  0  0  0  0  0  0  0  0  0  0  0
  2  1  1  0
  3  4  2  0
  3  2  1  0
  5  3  1  0
  6  5  1  0
  7  8  1  0
  6  7  1  6
  8 12  1  0
  9  8  2  0
  9 10  1  0
 10 11  1  0
 12 11  2  0
 13 18  1  0
 13  6  1  0
 14 13  2  0
 15 16  1  0
 17 16  1  1
 17 19  1  0
 17 18  1  0
 19 21  1  0
 20 19  2  0
M  END
$$$$
