GHS.pdb
     RDKit          3D

 21 21  0  0  1  0  0  0  0  0999 V2000
   17.3647  -15.6186  -17.4340 N   0  0  0  0  0  0  0  0  0  0  0  0
   18.7628  -15.4596  -17.1750 C   0  0  0  0  0  0  0  0  0  0  0  0
   19.0478  -14.2083  -16.3959 C   0  0  0  0  0  0  0  0  0  0  0  0
   18.7689  -14.1824  -15.1752 O   0  0  0  0  0  0  0  0  0  0  0  0
   19.6146  -13.0804  -17.0047 N   0  0  0  0  0  0  0  0  0  0  0  0
   19.9344  -11.8505  -16.3499 C   0  0  1  0  0  0  0  0  0  0  0  0
   21.3095  -11.2942  -16.6922 C   0  0  0  0  0  0  0  0  0  0  0  0
   21.5780  -10.0250  -15.9686 C   0  0  0  0  0  0  0  0  0  0  0  0
   21.5941   -8.7370  -16.4450 C   0  0  0  0  0  0  0  0  0  0  0  0
   21.8720   -7.8724  -15.4448 N   0  0  0  0  0  0  0  0  0  0  0  0
   22.0270   -8.6275  -14.3515 C   0  0  0  0  0  0  0  0  0  0  0  0
   21.8579   -9.9151  -14.6313 N   0  0  0  0  0  0  0  0  0  0  0  0
   18.8511  -10.8731  -16.4987 C   0  0  0  0  0  0  0  0  0  0  0  0
   18.2854  -10.6413  -17.6189 O   0  0  0  0  0  0  0  0  0  0  0  0
   15.6914  -10.6758  -15.0829 O   0  0  0  0  0  0  0  0  0  0  0  0
   16.1285   -9.4053  -14.7742 C   0  0  0  0  0  0  0  0  0  0  0  0
   17.3835   -9.0659  -15.5570 C   0  0  2  0  0  0  0  0  0  0  0  0
   18.3643  -10.1209  -15.3934 N   0  0  0  0  0  0  0  0  0  0  0  0
   17.9172   -7.7707  -15.0044 C   0  0  0  0  0  0  0  0  0  0  0  0
   19.0442   -7.7400  -14.4515 O   0  0  0  0  0  0  0  0  0  0  0  0
   17.2040   -6.6068  -15.0854 O   0  0  0  0  0  0  0  0  0  0  0  0
  2  1  1  0
  3  4  2  0
  3  2  1  0
  5  3  1  0
  6  5  1  0
  7  8  1  0
  6  7  1  6
  8 12  1  0
  9  8  2  0
  9 10  1  0
 10 11  1  0
 12 11  2  0
 13 18  1  0
 13  6  1  0
 14 13  2  0
 15 16  1  0
 17 16  1  1
 17 19  1  0
 17 18  1  0
 19 21  1  0
 20 19  2  0
M  END
$$$$
