GHS.pdb
     RDKit          3D

 21 21  0  0  1  0  0  0  0  0999 V2000
   25.5273  -16.4873  -19.4003 N   0  0  0  0  0  0  0  0  0  0  0  0
   24.1910  -16.9451  -19.1722 C   0  0  0  0  0  0  0  0  0  0  0  0
   24.1213  -17.9194  -18.0320 C   0  0  0  0  0  0  0  0  0  0  0  0
   24.3794  -19.1248  -18.2534 O   0  0  0  0  0  0  0  0  0  0  0  0
   23.7761  -17.5076  -16.7378 N   0  0  0  0  0  0  0  0  0  0  0  0
   23.8134  -18.3234  -15.5644 C   0  0  1  0  0  0  0  0  0  0  0  0
   24.8556  -17.9021  -14.5378 C   0  0  0  0  0  0  0  0  0  0  0  0
   26.2194  -17.8777  -15.1263 C   0  0  0  0  0  0  0  0  0  0  0  0
   26.9692  -16.8054  -15.5436 C   0  0  0  0  0  0  0  0  0  0  0  0
   28.1665  -17.2250  -16.0080 N   0  0  0  0  0  0  0  0  0  0  0  0
   28.1549  -18.5562  -15.8766 C   0  0  0  0  0  0  0  0  0  0  0  0
   27.0079  -18.9756  -15.3538 N   0  0  0  0  0  0  0  0  0  0  0  0
   22.4716  -18.5029  -15.0004 C   0  0  0  0  0  0  0  0  0  0  0  0
   21.7495  -17.5210  -14.6220 O   0  0  0  0  0  0  0  0  0  0  0  0
   20.0130  -21.1476  -16.3106 O   0  0  0  0  0  0  0  0  0  0  0  0
   19.5719  -20.1664  -15.4484 C   0  0  0  0  0  0  0  0  0  0  0  0
   20.5559  -19.9726  -14.3096 C   0  0  2  0  0  0  0  0  0  0  0  0
   21.8927  -19.7929  -14.8412 N   0  0  0  0  0  0  0  0  0  0  0  0
   20.4992  -21.2116  -13.4554 C   0  0  0  0  0  0  0  0  0  0  0  0
   21.4770  -21.9989  -13.4241 O   0  0  0  0  0  0  0  0  0  0  0  0
   19.4003  -21.5138  -12.6999 O   0  0  0  0  0  0  0  0  0  0  0  0
  2  1  1  0
  3  4  2  0
  3  2  1  0
  5  3  1  0
  6  5  1  0
  7  8  1  0
  6  7  1  1
  8 12  1  0
  9  8  2  0
  9 10  1  0
 10 11  1  0
 12 11  2  0
 13 18  1  0
 13  6  1  0
 14 13  2  0
 15 16  1  0
 17 16  1  6
 17 19  1  0
 17 18  1  0
 19 21  1  0
 20 19  2  0
M  END
$$$$
