GHS.pdb
     RDKit          3D

 21 21  0  0  1  0  0  0  0  0999 V2000
   23.0041  -10.9097  -18.2127 N   0  0  0  0  0  0  0  0  0  0  0  0
   21.6349  -11.2495  -17.9734 C   0  0  0  0  0  0  0  0  0  0  0  0
   20.8767  -10.1106  -17.3553 C   0  0  0  0  0  0  0  0  0  0  0  0
   20.1420   -9.4086  -18.0875 O   0  0  0  0  0  0  0  0  0  0  0  0
   20.9756   -9.8225  -15.9874 N   0  0  0  0  0  0  0  0  0  0  0  0
   20.2883   -8.7718  -15.3038 C   0  0  1  0  0  0  0  0  0  0  0  0
   19.3772   -9.2433  -14.1790 C   0  0  0  0  0  0  0  0  0  0  0  0
   18.1989   -9.9785  -14.7059 C   0  0  0  0  0  0  0  0  0  0  0  0
   17.0953   -9.4968  -15.3664 C   0  0  0  0  0  0  0  0  0  0  0  0
   16.2608  -10.5110  -15.6830 N   0  0  0  0  0  0  0  0  0  0  0  0
   16.8501  -11.6181  -15.2177 C   0  0  0  0  0  0  0  0  0  0  0  0
   18.0071  -11.3336  -14.6301 N   0  0  0  0  0  0  0  0  0  0  0  0
   21.2126   -7.7056  -14.9040 C   0  0  0  0  0  0  0  0  0  0  0  0
   22.2572   -7.9293  -14.2060 O   0  0  0  0  0  0  0  0  0  0  0  0
   22.3509   -2.9715  -15.1631 O   0  0  0  0  0  0  0  0  0  0  0  0
   21.4583   -3.9742  -15.4770 C   0  0  0  0  0  0  0  0  0  0  0  0
   21.8813   -5.2858  -14.8415 C   0  0  2  0  0  0  0  0  0  0  0  0
   20.9959   -6.3490  -15.2745 N   0  0  0  0  0  0  0  0  0  0  0  0
   21.7884   -5.1085  -13.3489 C   0  0  0  0  0  0  0  0  0  0  0  0
   20.7192   -5.3797  -12.7489 O   0  0  0  0  0  0  0  0  0  0  0  0
   22.8470   -4.6543  -12.6120 O   0  0  0  0  0  0  0  0  0  0  0  0
  2  1  1  0
  3  4  2  0
  3  2  1  0
  5  3  1  0
  6  5  1  0
  7  8  1  0
  6  7  1  1
  8 12  1  0
  9  8  2  0
  9 10  1  0
 10 11  1  0
 12 11  2  0
 13 18  1  0
 13  6  1  0
 14 13  2  0
 15 16  1  0
 17 16  1  6
 17 19  1  0
 17 18  1  0
 19 21  1  0
 20 19  2  0
M  END
$$$$
