GHS.pdb
     RDKit          3D

 21 21  0  0  1  0  0  0  0  0999 V2000
   21.1449  -11.4046  -19.4457 N   0  0  0  0  0  0  0  0  0  0  0  0
   20.7637  -10.0315  -19.3180 C   0  0  0  0  0  0  0  0  0  0  0  0
   21.2271   -9.4418  -18.0174 C   0  0  0  0  0  0  0  0  0  0  0  0
   20.7446   -9.8844  -16.9497 O   0  0  0  0  0  0  0  0  0  0  0  0
   22.1804   -8.4153  -17.9778 N   0  0  0  0  0  0  0  0  0  0  0  0
   22.7264   -7.8284  -16.7941 C   0  0  1  0  0  0  0  0  0  0  0  0
   24.2451   -7.8875  -16.7052 C   0  0  0  0  0  0  0  0  0  0  0  0
   24.7243   -9.2799  -16.5097 C   0  0  0  0  0  0  0  0  0  0  0  0
   24.0013  -10.4407  -16.3837 C   0  0  0  0  0  0  0  0  0  0  0  0
   24.8326  -11.4949  -16.2325 N   0  0  0  0  0  0  0  0  0  0  0  0
   26.0684  -10.9839  -16.2656 C   0  0  0  0  0  0  0  0  0  0  0  0
   26.0371   -9.6660  -16.4298 N   0  0  0  0  0  0  0  0  0  0  0  0
   22.1756   -6.4889  -16.5636 C   0  0  0  0  0  0  0  0  0  0  0  0
   22.0450   -5.6307  -17.4991 O   0  0  0  0  0  0  0  0  0  0  0  0
   20.3403   -3.3217  -13.3380 O   0  0  0  0  0  0  0  0  0  0  0  0
   20.8391   -4.5839  -13.5800 C   0  0  0  0  0  0  0  0  0  0  0  0
   21.2842   -4.7158  -15.0248 C   0  0  2  0  0  0  0  0  0  0  0  0
   21.7517   -6.0654  -15.2731 N   0  0  0  0  0  0  0  0  0  0  0  0
   22.4037   -3.7313  -15.2380 C   0  0  0  0  0  0  0  0  0  0  0  0
   22.1706   -2.6212  -15.7769 O   0  0  0  0  0  0  0  0  0  0  0  0
   23.6875   -4.0097  -14.8583 O   0  0  0  0  0  0  0  0  0  0  0  0
  2  1  1  0
  3  4  2  0
  3  2  1  0
  5  3  1  0
  6  5  1  0
  7  8  1  0
  6  7  1  6
  8 12  1  0
  9  8  2  0
  9 10  1  0
 10 11  1  0
 12 11  2  0
 13 18  1  0
 13  6  1  0
 14 13  2  0
 15 16  1  0
 17 16  1  1
 17 19  1  0
 17 18  1  0
 19 21  1  0
 20 19  2  0
M  END
$$$$
