GHS.pdb
     RDKit          3D

 21 21  0  0  1  0  0  0  0  0999 V2000
   23.2854  -12.7980  -19.3566 N   0  0  0  0  0  0  0  0  0  0  0  0
   22.9519  -11.4069  -19.3851 C   0  0  0  0  0  0  0  0  0  0  0  0
   23.1277  -10.7628  -18.0404 C   0  0  0  0  0  0  0  0  0  0  0  0
   22.6581  -11.3373  -17.0314 O   0  0  0  0  0  0  0  0  0  0  0  0
   23.8013   -9.5423  -17.8962 N   0  0  0  0  0  0  0  0  0  0  0  0
   24.0207   -8.8504  -16.6646 C   0  0  1  0  0  0  0  0  0  0  0  0
   25.4857   -8.5951  -16.3384 C   0  0  0  0  0  0  0  0  0  0  0  0
   26.2372   -9.8667  -16.1812 C   0  0  0  0  0  0  0  0  0  0  0  0
   25.7984  -11.1608  -16.3183 C   0  0  0  0  0  0  0  0  0  0  0  0
   26.8142  -12.0242  -16.0993 N   0  0  0  0  0  0  0  0  0  0  0  0
   27.8795  -11.2622  -15.8274 C   0  0  0  0  0  0  0  0  0  0  0  0
   27.5677   -9.9715  -15.8685 N   0  0  0  0  0  0  0  0  0  0  0  0
   23.1803   -7.6521  -16.5724 C   0  0  0  0  0  0  0  0  0  0  0  0
   22.9840   -6.8739  -17.5647 O   0  0  0  0  0  0  0  0  0  0  0  0
   19.8402   -5.1890  -14.0813 O   0  0  0  0  0  0  0  0  0  0  0  0
   20.6238   -6.3157  -14.2118 C   0  0  0  0  0  0  0  0  0  0  0  0
   21.6924   -6.1053  -15.2685 C   0  0  2  0  0  0  0  0  0  0  0  0
   22.5299   -7.2850  -15.3613 N   0  0  0  0  0  0  0  0  0  0  0  0
   22.5140   -4.9176  -14.8414 C   0  0  0  0  0  0  0  0  0  0  0  0
   23.4930   -5.0749  -14.0709 O   0  0  0  0  0  0  0  0  0  0  0  0
   22.2254   -3.6521  -15.2715 O   0  0  0  0  0  0  0  0  0  0  0  0
  2  1  1  0
  3  4  2  0
  3  2  1  0
  5  3  1  0
  6  5  1  0
  7  8  1  0
  6  7  1  6
  8 12  1  0
  9  8  2  0
  9 10  1  0
 10 11  1  0
 12 11  2  0
 13 18  1  0
 13  6  1  0
 14 13  2  0
 15 16  1  0
 17 16  1  1
 17 19  1  0
 17 18  1  0
 19 21  1  0
 20 19  2  0
M  END
$$$$
