EVS.pdb
     RDKit          3D

 23 22  0  0  1  0  0  0  0  0999 V2000
    8.6906  -16.5432   15.7882 N   0  0  0  0  0  0  0  0  0  0  0  0
    8.1450  -16.9092   17.0787 C   0  0  1  0  0  0  0  0  0  0  0  0
    8.3091  -18.4014   17.2612 C   0  0  0  0  0  0  0  0  0  0  0  0
    7.1977  -19.0544   16.4342 C   0  0  0  0  0  0  0  0  0  0  0  0
    7.2340  -20.5224   16.6594 C   0  0  0  0  0  0  0  0  0  0  0  0
    6.4158  -21.3147   16.1353 O   0  0  0  0  0  0  0  0  0  0  0  0
    8.8696  -16.1509   18.1414 C   0  0  0  0  0  0  0  0  0  0  0  0
   10.1121  -15.9044   18.0177 O   0  0  0  0  0  0  0  0  0  0  0  0
    8.2125  -21.0447   17.4838 O   0  0  0  0  0  0  0  0  0  0  0  0
    6.7486  -14.4069   21.5662 C   0  0  0  0  0  0  0  0  0  0  0  0
    8.0038  -13.9029   20.9425 C   0  0  2  0  0  0  0  0  0  0  0  0
    7.5833  -12.8975   19.8641 C   0  0  0  0  0  0  0  0  0  0  0  0
    8.9177  -14.9525   20.3692 C   0  0  2  0  0  0  0  0  0  0  0  0
    8.2043  -15.6883   19.3058 N   0  0  0  0  0  0  0  0  0  0  0  0
    9.4254  -15.9199   21.3734 C   0  0  0  0  0  0  0  0  0  0  0  0
    8.7375  -16.9767   21.6398 O   0  0  0  0  0  0  0  0  0  0  0  0
   13.2759  -15.8220   22.6293 O   0  0  0  0  0  0  0  0  0  0  0  0
   12.6207  -17.0381   22.7631 C   0  0  0  0  0  0  0  0  0  0  0  0
   11.1245  -16.8048   23.0082 C   0  0  2  0  0  0  0  0  0  0  0  0
   10.6339  -15.7950   22.0920 N   0  0  0  0  0  0  0  0  0  0  0  0
   11.0059  -16.3202   24.3986 C   0  0  0  0  0  0  0  0  0  0  0  0
   10.4673  -15.2112   24.6125 O   0  0  0  0  0  0  0  0  0  0  0  0
   11.4769  -17.0672   25.4568 O   0  0  0  0  0  0  0  0  0  0  0  0
  2  1  1  6
  2  7  1  0
  3  2  1  0
  4  3  1  0
  5  4  1  0
  6  5  2  0
  7  8  2  0
  9  5  1  0
 11 10  1  6
 11 12  1  0
 13 11  1  0
 14  7  1  0
 13 14  1  6
 15 16  2  0
 15 13  1  0
 18 17  1  0
 19 18  1  6
 19 20  1  0
 20 15  1  0
 21 23  1  0
 21 19  1  0
 22 21  2  0
M  END
$$$$
