EVS.pdb
     RDKit          3D

 23 22  0  0  1  0  0  0  0  0999 V2000
    9.1196  -15.8087   15.8051 N   0  0  0  0  0  0  0  0  0  0  0  0
    8.9436  -16.5563   17.0328 C   0  0  1  0  0  0  0  0  0  0  0  0
    9.7300  -17.8435   16.9254 C   0  0  0  0  0  0  0  0  0  0  0  0
    9.1550  -18.5923   15.7194 C   0  0  0  0  0  0  0  0  0  0  0  0
    9.8313  -19.9104   15.6083 C   0  0  0  0  0  0  0  0  0  0  0  0
   10.0580  -20.6477   16.5967 O   0  0  0  0  0  0  0  0  0  0  0  0
    9.4208  -15.7242   18.1769 C   0  0  0  0  0  0  0  0  0  0  0  0
   10.5779  -15.1950   18.1448 O   0  0  0  0  0  0  0  0  0  0  0  0
   10.2315  -20.3494   14.3605 O   0  0  0  0  0  0  0  0  0  0  0  0
    6.7300  -14.1528   21.1794 C   0  0  0  0  0  0  0  0  0  0  0  0
    8.0944  -13.6682   20.8301 C   0  0  2  0  0  0  0  0  0  0  0  0
    7.9241  -12.6803   19.6700 C   0  0  0  0  0  0  0  0  0  0  0  0
    9.0991  -14.7339   20.4829 C   0  0  2  0  0  0  0  0  0  0  0  0
    8.6100  -15.5010   19.3195 N   0  0  0  0  0  0  0  0  0  0  0  0
    9.3891  -15.6712   21.5963 C   0  0  0  0  0  0  0  0  0  0  0  0
    8.6204  -16.6881   21.7852 O   0  0  0  0  0  0  0  0  0  0  0  0
   12.8562  -17.0001   22.6895 O   0  0  0  0  0  0  0  0  0  0  0  0
   12.2018  -16.6117   23.8500 C   0  0  0  0  0  0  0  0  0  0  0  0
   10.6953  -16.4892   23.5880 C   0  0  2  0  0  0  0  0  0  0  0  0
   10.4653  -15.5572   22.5025 N   0  0  0  0  0  0  0  0  0  0  0  0
   10.1022  -15.9633   24.8345 C   0  0  0  0  0  0  0  0  0  0  0  0
   10.1280  -16.6707   25.8663 O   0  0  0  0  0  0  0  0  0  0  0  0
    9.5245  -14.7126   24.8771 O   0  0  0  0  0  0  0  0  0  0  0  0
  2  1  1  6
  2  7  1  0
  3  2  1  0
  4  3  1  0
  5  4  1  0
  6  5  2  0
  7  8  2  0
  9  5  1  0
 11 10  1  6
 11 12  1  0
 13 11  1  0
 14  7  1  0
 13 14  1  6
 15 16  2  0
 15 13  1  0
 18 17  1  0
 19 18  1  1
 19 20  1  0
 20 15  1  0
 21 23  1  0
 21 19  1  0
 22 21  2  0
M  END
$$$$
