EVS.pdb
     RDKit          3D

 23 22  0  0  1  0  0  0  0  0999 V2000
    5.7045  -16.4410   22.9019 N   0  0  0  0  0  0  0  0  0  0  0  0
    7.0892  -16.6425   22.5290 C   0  0  1  0  0  0  0  0  0  0  0  0
    7.2641  -16.2121   21.0899 C   0  0  0  0  0  0  0  0  0  0  0  0
    7.9579  -17.3783   20.3798 C   0  0  0  0  0  0  0  0  0  0  0  0
    8.4811  -16.8998   19.0743 C   0  0  0  0  0  0  0  0  0  0  0  0
    8.3733  -15.7117   18.6888 O   0  0  0  0  0  0  0  0  0  0  0  0
    7.9564  -15.8414   23.4429 C   0  0  0  0  0  0  0  0  0  0  0  0
    9.2228  -15.8817   23.3224 O   0  0  0  0  0  0  0  0  0  0  0  0
    9.1170  -17.8014   18.2419 O   0  0  0  0  0  0  0  0  0  0  0  0
    6.3020  -13.3272   26.7246 C   0  0  0  0  0  0  0  0  0  0  0  0
    7.5363  -13.0880   25.9261 C   0  0  2  0  0  0  0  0  0  0  0  0
    7.1288  -12.1964   24.7472 C   0  0  0  0  0  0  0  0  0  0  0  0
    8.2531  -14.3203   25.4428 C   0  0  2  0  0  0  0  0  0  0  0  0
    7.4028  -15.0218   24.4599 N   0  0  0  0  0  0  0  0  0  0  0  0
    8.6229  -15.2636   26.5270 C   0  0  0  0  0  0  0  0  0  0  0  0
    7.7251  -16.0456   27.0203 O   0  0  0  0  0  0  0  0  0  0  0  0
   12.3805  -16.5039   27.2000 O   0  0  0  0  0  0  0  0  0  0  0  0
   11.3558  -17.2318   27.7884 C   0  0  0  0  0  0  0  0  0  0  0  0
   10.2089  -16.2952   28.1891 C   0  0  2  0  0  0  0  0  0  0  0  0
    9.9094  -15.3971   27.0922 N   0  0  0  0  0  0  0  0  0  0  0  0
   10.6950  -15.5230   29.3509 C   0  0  0  0  0  0  0  0  0  0  0  0
   10.7535  -14.2756   29.2709 O   0  0  0  0  0  0  0  0  0  0  0  0
   11.0824  -16.1526   30.5141 O   0  0  0  0  0  0  0  0  0  0  0  0
  2  1  1  1
  2  7  1  0
  3  2  1  0
  4  3  1  0
  5  4  1  0
  6  5  2  0
  7  8  2  0
  9  5  1  0
 11 10  1  6
 11 12  1  0
 13 11  1  0
 14  7  1  0
 13 14  1  6
 15 16  2  0
 15 13  1  0
 18 17  1  0
 19 18  1  6
 19 20  1  0
 20 15  1  0
 21 23  1  0
 21 19  1  0
 22 21  2  0
M  END
$$$$
