EVS.pdb
     RDKit          3D

 23 22  0  0  1  0  0  0  0  0999 V2000
    8.3362  -14.9957   20.8178 N   0  0  0  0  0  0  0  0  0  0  0  0
    7.5065  -15.2177   21.9837 C   0  0  1  0  0  0  0  0  0  0  0  0
    7.1390  -16.6837   22.0366 C   0  0  0  0  0  0  0  0  0  0  0  0
    8.4360  -17.4347   22.3522 C   0  0  0  0  0  0  0  0  0  0  0  0
    8.1075  -18.8540   22.6435 C   0  0  0  0  0  0  0  0  0  0  0  0
    7.1460  -19.4564   22.1102 O   0  0  0  0  0  0  0  0  0  0  0  0
    8.2654  -14.8055   23.2015 C   0  0  0  0  0  0  0  0  0  0  0  0
    9.5360  -14.8779   23.2190 O   0  0  0  0  0  0  0  0  0  0  0  0
    8.8947  -19.5476   23.5431 O   0  0  0  0  0  0  0  0  0  0  0  0
    6.2280  -13.2143   26.7765 C   0  0  0  0  0  0  0  0  0  0  0  0
    7.5740  -12.8250   26.2714 C   0  0  2  0  0  0  0  0  0  0  0  0
    7.3635  -11.6160   25.3522 C   0  0  0  0  0  0  0  0  0  0  0  0
    8.3469  -13.9065   25.5652 C   0  0  2  0  0  0  0  0  0  0  0  0
    7.6025  -14.3271   24.3609 N   0  0  0  0  0  0  0  0  0  0  0  0
    8.6206  -15.0968   26.4080 C   0  0  0  0  0  0  0  0  0  0  0  0
    7.7094  -15.9974   26.5480 O   0  0  0  0  0  0  0  0  0  0  0  0
   12.1736  -16.7957   27.0582 O   0  0  0  0  0  0  0  0  0  0  0  0
   11.0103  -17.4578   27.4248 C   0  0  0  0  0  0  0  0  0  0  0  0
   10.0016  -16.4621   28.0115 C   0  0  2  0  0  0  0  0  0  0  0  0
    9.8261  -15.3523   27.0965 N   0  0  0  0  0  0  0  0  0  0  0  0
   10.5889  -15.9793   29.2781 C   0  0  0  0  0  0  0  0  0  0  0  0
   10.8288  -14.7585   29.4112 O   0  0  0  0  0  0  0  0  0  0  0  0
   10.8746  -16.8487   30.3087 O   0  0  0  0  0  0  0  0  0  0  0  0
  2  1  1  6
  2  7  1  0
  3  2  1  0
  4  3  1  0
  5  4  1  0
  6  5  2  0
  7  8  2  0
  9  5  1  0
 11 10  1  6
 11 12  1  0
 13 11  1  0
 14  7  1  0
 13 14  1  6
 15 16  2  0
 15 13  1  0
 18 17  1  0
 19 18  1  6
 19 20  1  0
 20 15  1  0
 21 23  1  0
 21 19  1  0
 22 21  2  0
M  END
$$$$
