EVS.pdb
     RDKit          3D

 23 22  0  0  1  0  0  0  0  0999 V2000
    9.0441  -15.1460   20.8607 N   0  0  0  0  0  0  0  0  0  0  0  0
    8.2713  -15.6822   21.9618 C   0  0  1  0  0  0  0  0  0  0  0  0
    8.5480  -17.1656   22.0621 C   0  0  0  0  0  0  0  0  0  0  0  0
    8.0220  -17.7837   20.7633 C   0  0  0  0  0  0  0  0  0  0  0  0
    8.2677  -19.2486   20.7974 C   0  0  0  0  0  0  0  0  0  0  0  0
    7.9281  -20.0202   19.8694 O   0  0  0  0  0  0  0  0  0  0  0  0
    8.6620  -14.9727   23.2160 C   0  0  0  0  0  0  0  0  0  0  0  0
    9.8849  -14.7050   23.4457 O   0  0  0  0  0  0  0  0  0  0  0  0
    8.8993  -19.7915   21.9002 O   0  0  0  0  0  0  0  0  0  0  0  0
    6.5696  -11.9674   25.0518 C   0  0  0  0  0  0  0  0  0  0  0  0
    6.9549  -13.0916   25.9497 C   0  0  2  0  0  0  0  0  0  0  0  0
    7.2961  -12.4688   27.3086 C   0  0  0  0  0  0  0  0  0  0  0  0
    8.0810  -13.9632   25.4620 C   0  0  2  0  0  0  0  0  0  0  0  0
    7.6950  -14.5804   24.1770 N   0  0  0  0  0  0  0  0  0  0  0  0
    8.4706  -15.0305   26.4166 C   0  0  0  0  0  0  0  0  0  0  0  0
    7.6206  -15.9503   26.7205 O   0  0  0  0  0  0  0  0  0  0  0  0
   12.2455  -16.1453   26.9863 O   0  0  0  0  0  0  0  0  0  0  0  0
   11.2522  -17.0101   27.4238 C   0  0  0  0  0  0  0  0  0  0  0  0
   10.0627  -16.2105   27.9707 C   0  0  2  0  0  0  0  0  0  0  0  0
    9.7282  -15.1449   27.0474 N   0  0  0  0  0  0  0  0  0  0  0  0
   10.5086  -15.6375   29.2572 C   0  0  0  0  0  0  0  0  0  0  0  0
   10.8774  -16.4084   30.1713 O   0  0  0  0  0  0  0  0  0  0  0  0
   10.5241  -14.2749   29.4638 O   0  0  0  0  0  0  0  0  0  0  0  0
  2  1  1  6
  2  7  1  0
  3  2  1  0
  4  3  1  0
  5  4  1  0
  6  5  2  0
  7  8  2  0
  9  5  1  0
 11 10  1  6
 11 12  1  0
 13 11  1  0
 14  7  1  0
 13 14  1  6
 15 16  2  0
 15 13  1  0
 18 17  1  0
 19 18  1  6
 19 20  1  0
 20 15  1  0
 21 23  1  0
 21 19  1  0
 22 21  2  0
M  END
$$$$
