EVS.pdb
     RDKit          3D

 23 22  0  0  1  0  0  0  0  0999 V2000
    9.3684  -15.3879   14.8590 N   0  0  0  0  0  0  0  0  0  0  0  0
    9.1808  -16.1199   16.0943 C   0  0  1  0  0  0  0  0  0  0  0  0
    9.9898  -17.3955   16.0215 C   0  0  0  0  0  0  0  0  0  0  0  0
    9.3554  -18.2370   14.9101 C   0  0  0  0  0  0  0  0  0  0  0  0
   10.1039  -19.5149   14.7919 C   0  0  0  0  0  0  0  0  0  0  0  0
    9.8449  -20.5254   15.4873 O   0  0  0  0  0  0  0  0  0  0  0  0
    9.6224  -15.2631   17.2345 C   0  0  0  0  0  0  0  0  0  0  0  0
   10.6925  -14.5798   17.1449 O   0  0  0  0  0  0  0  0  0  0  0  0
   11.1342  -19.5997   13.8747 O   0  0  0  0  0  0  0  0  0  0  0  0
    7.0655  -14.4264   20.6721 C   0  0  0  0  0  0  0  0  0  0  0  0
    8.2520  -13.6504   20.2155 C   0  0  2  0  0  0  0  0  0  0  0  0
    7.7359  -12.6119   19.2125 C   0  0  0  0  0  0  0  0  0  0  0  0
    9.3739  -14.4583   19.6203 C   0  0  2  0  0  0  0  0  0  0  0  0
    8.8729  -15.1854   18.4364 N   0  0  0  0  0  0  0  0  0  0  0  0
    9.9823  -15.4277   20.5649 C   0  0  0  0  0  0  0  0  0  0  0  0
    9.5309  -16.6339   20.6135 O   0  0  0  0  0  0  0  0  0  0  0  0
   13.3961  -16.4997   23.9009 O   0  0  0  0  0  0  0  0  0  0  0  0
   12.8882  -15.5877   22.9864 C   0  0  0  0  0  0  0  0  0  0  0  0
   11.5863  -16.1239   22.3773 C   0  0  2  0  0  0  0  0  0  0  0  0
   11.0482  -15.1511   21.4478 N   0  0  0  0  0  0  0  0  0  0  0  0
   10.6506  -16.3107   23.5050 C   0  0  0  0  0  0  0  0  0  0  0  0
    9.7671  -15.4490   23.7116 O   0  0  0  0  0  0  0  0  0  0  0  0
   10.7362  -17.4132   24.3275 O   0  0  0  0  0  0  0  0  0  0  0  0
  2  1  1  6
  2  7  1  0
  3  2  1  0
  4  3  1  0
  5  4  1  0
  6  5  2  0
  7  8  2  0
  9  5  1  0
 11 10  1  6
 11 12  1  0
 13 11  1  0
 14  7  1  0
 13 14  1  6
 15 16  2  0
 15 13  1  0
 18 17  1  0
 19 18  1  1
 19 20  1  0
 20 15  1  0
 21 23  1  0
 21 19  1  0
 22 21  2  0
M  END
$$$$
