EVS.pdb
     RDKit          3D

 23 22  0  0  1  0  0  0  0  0999 V2000
    7.7351  -16.4994   21.4291 N   0  0  0  0  0  0  0  0  0  0  0  0
    7.0470  -16.4116   22.7003 C   0  0  1  0  0  0  0  0  0  0  0  0
    6.8666  -17.8112   23.2438 C   0  0  0  0  0  0  0  0  0  0  0  0
    6.0281  -18.5640   22.2065 C   0  0  0  0  0  0  0  0  0  0  0  0
    5.7907  -19.9465   22.6960 C   0  0  0  0  0  0  0  0  0  0  0  0
    6.0517  -20.9666   22.0155 O   0  0  0  0  0  0  0  0  0  0  0  0
    7.8571  -15.5700   23.6302 C   0  0  0  0  0  0  0  0  0  0  0  0
    9.1268  -15.5596   23.5426 O   0  0  0  0  0  0  0  0  0  0  0  0
    5.2578  -20.1225   23.9589 O   0  0  0  0  0  0  0  0  0  0  0  0
    5.9816  -13.2381   26.8811 C   0  0  0  0  0  0  0  0  0  0  0  0
    7.2220  -12.8686   26.1439 C   0  0  2  0  0  0  0  0  0  0  0  0
    6.7920  -11.9405   25.0017 C   0  0  0  0  0  0  0  0  0  0  0  0
    8.0402  -14.0185   25.6204 C   0  0  2  0  0  0  0  0  0  0  0  0
    7.2445  -14.7670   24.6265 N   0  0  0  0  0  0  0  0  0  0  0  0
    8.5052  -14.9534   26.6749 C   0  0  0  0  0  0  0  0  0  0  0  0
    7.7073  -15.8683   27.1076 O   0  0  0  0  0  0  0  0  0  0  0  0
   12.4187  -15.6922   27.3933 O   0  0  0  0  0  0  0  0  0  0  0  0
   11.4713  -16.6187   27.8057 C   0  0  0  0  0  0  0  0  0  0  0  0
   10.2022  -15.8980   28.2781 C   0  0  2  0  0  0  0  0  0  0  0  0
    9.7838  -14.9420   27.2727 N   0  0  0  0  0  0  0  0  0  0  0  0
   10.5697  -15.1896   29.5212 C   0  0  0  0  0  0  0  0  0  0  0  0
   10.9975  -15.8501   30.4941 O   0  0  0  0  0  0  0  0  0  0  0  0
   10.4491  -13.8205   29.6242 O   0  0  0  0  0  0  0  0  0  0  0  0
  2  1  1  6
  2  7  1  0
  3  2  1  0
  4  3  1  0
  5  4  1  0
  6  5  2  0
  7  8  2  0
  9  5  1  0
 11 10  1  6
 11 12  1  0
 13 11  1  0
 14  7  1  0
 13 14  1  6
 15 16  2  0
 15 13  1  0
 18 17  1  0
 19 18  1  6
 19 20  1  0
 20 15  1  0
 21 23  1  0
 21 19  1  0
 22 21  2  0
M  END
$$$$
