EVS.pdb
     RDKit          3D

 23 22  0  0  1  0  0  0  0  0999 V2000
    5.9233  -16.1312   21.9278 N   0  0  0  0  0  0  0  0  0  0  0  0
    7.3600  -16.1808   21.7534 C   0  0  1  0  0  0  0  0  0  0  0  0
    7.7113  -15.4564   20.4733 C   0  0  0  0  0  0  0  0  0  0  0  0
    7.8262  -16.5359   19.3930 C   0  0  0  0  0  0  0  0  0  0  0  0
    8.7176  -16.0388   18.3135 C   0  0  0  0  0  0  0  0  0  0  0  0
    9.8528  -16.5211   18.0883 O   0  0  0  0  0  0  0  0  0  0  0  0
    8.0117  -15.5404   22.9342 C   0  0  0  0  0  0  0  0  0  0  0  0
    9.2796  -15.5428   23.0452 O   0  0  0  0  0  0  0  0  0  0  0  0
    8.2809  -14.9970   17.5174 O   0  0  0  0  0  0  0  0  0  0  0  0
    6.6306  -12.2189   24.9808 C   0  0  0  0  0  0  0  0  0  0  0  0
    6.9652  -13.3967   25.8290 C   0  0  2  0  0  0  0  0  0  0  0  0
    7.5815  -12.8451   27.1200 C   0  0  0  0  0  0  0  0  0  0  0  0
    7.8696  -14.4219   25.1992 C   0  0  2  0  0  0  0  0  0  0  0  0
    7.2478  -14.9181   23.9549 N   0  0  0  0  0  0  0  0  0  0  0  0
    8.1773  -15.5743   26.0822 C   0  0  0  0  0  0  0  0  0  0  0  0
    7.2392  -16.4001   26.3965 O   0  0  0  0  0  0  0  0  0  0  0  0
   10.9151  -19.0846   27.5423 O   0  0  0  0  0  0  0  0  0  0  0  0
   10.5645  -18.0326   26.7078 C   0  0  0  0  0  0  0  0  0  0  0  0
    9.6994  -17.0218   27.4714 C   0  0  2  0  0  0  0  0  0  0  0  0
    9.4437  -15.8690   26.6315 N   0  0  0  0  0  0  0  0  0  0  0  0
   10.4872  -16.6160   28.6534 C   0  0  0  0  0  0  0  0  0  0  0  0
   10.9990  -15.4745   28.6807 O   0  0  0  0  0  0  0  0  0  0  0  0
   10.6653  -17.4710   29.7196 O   0  0  0  0  0  0  0  0  0  0  0  0
  2  1  1  1
  2  7  1  0
  3  2  1  0
  4  3  1  0
  5  4  1  0
  6  5  2  0
  7  8  2  0
  9  5  1  0
 11 10  1  6
 11 12  1  0
 13 11  1  0
 14  7  1  0
 13 14  1  6
 15 16  2  0
 15 13  1  0
 18 17  1  0
 19 18  1  6
 19 20  1  0
 20 15  1  0
 21 23  1  0
 21 19  1  0
 22 21  2  0
M  END
$$$$
