KGT.pdb
     RDKit          3D

 21 20  0  0  1  0  0  0  0  0999 V2000
   28.1585  -20.2648  -14.1465 N   0  0  0  0  0  0  0  0  0  0  0  0
   27.3434  -19.6648  -15.1808 C   0  0  1  0  0  0  0  0  0  0  0  0
   26.1809  -20.4990  -15.6070 C   0  0  0  0  0  0  0  0  0  0  0  0
   25.8582  -21.6718  -14.7637 C   0  0  0  0  0  0  0  0  0  0  0  0
   24.5090  -21.6843  -14.1346 C   0  0  0  0  0  0  0  0  0  0  0  0
   24.2738  -22.9988  -13.3990 C   0  0  0  0  0  0  0  0  0  0  0  0
   22.9935  -23.0401  -12.7592 N   0  0  0  0  0  0  0  0  0  0  0  0
   26.7936  -18.3937  -14.6473 C   0  0  0  0  0  0  0  0  0  0  0  0
   26.4582  -18.4027  -13.4205 O   0  0  0  0  0  0  0  0  0  0  0  0
   26.6636  -17.2613  -15.4765 N   0  0  0  0  0  0  0  0  0  0  0  0
   26.1035  -16.0533  -14.9337 C   0  0  0  0  0  0  0  0  0  0  0  0
   26.0944  -14.9455  -15.9296 C   0  0  0  0  0  0  0  0  0  0  0  0
   26.9434  -14.9255  -16.8619 O   0  0  0  0  0  0  0  0  0  0  0  0
   24.6206  -15.5225  -18.2019 C   0  0  0  0  0  0  0  0  0  0  0  0
   23.7611  -14.3561  -17.7520 C   0  0  1  0  0  0  0  0  0  0  0  0
   22.8594  -14.8620  -16.8172 O   0  0  0  0  0  0  0  0  0  0  0  0
   24.6232  -13.2611  -17.1067 C   0  0  2  0  0  0  0  0  0  0  0  0
   25.1609  -13.8846  -15.8874 N   0  0  0  0  0  0  0  0  0  0  0  0
   23.7025  -12.1712  -16.7425 C   0  0  0  0  0  0  0  0  0  0  0  0
   23.2838  -12.0751  -15.5732 O   0  0  0  0  0  0  0  0  0  0  0  0
   23.3057  -11.2601  -17.6939 O   0  0  0  0  0  0  0  0  0  0  0  0
  2  3  1  0
  2  1  1  1
  4  3  1  0
  5  4  1  0
  6  5  1  0
  7  6  1  0
  8  2  1  0
  8  9  2  0
 10  8  1  0
 11 10  1  0
 11 12  1  0
 12 13  2  0
 15 14  1  1
 15 16  1  0
 17 15  1  0
 18 12  1  0
 17 18  1  1
 19 21  1  0
 19 17  1  0
 20 19  2  0
M  END
$$$$
