KGT.pdb
     RDKit          3D

 21 20  0  0  1  0  0  0  0  0999 V2000
   19.0206  -11.3942  -15.7779 N   0  0  0  0  0  0  0  0  0  0  0  0
   20.2766  -12.0735  -15.5437 C   0  0  1  0  0  0  0  0  0  0  0  0
   20.7395  -12.9178  -16.6847 C   0  0  0  0  0  0  0  0  0  0  0  0
   19.8606  -14.0406  -17.0815 C   0  0  0  0  0  0  0  0  0  0  0  0
   19.8421  -15.2203  -16.1737 C   0  0  0  0  0  0  0  0  0  0  0  0
   18.9462  -16.3168  -16.7391 C   0  0  0  0  0  0  0  0  0  0  0  0
   18.8676  -17.4532  -15.8717 N   0  0  0  0  0  0  0  0  0  0  0  0
   21.3178  -11.0404  -15.3173 C   0  0  0  0  0  0  0  0  0  0  0  0
   22.4949  -11.4724  -15.1046 O   0  0  0  0  0  0  0  0  0  0  0  0
   20.9897   -9.6698  -15.3427 N   0  0  0  0  0  0  0  0  0  0  0  0
   22.0251   -8.6952  -15.1295 C   0  0  0  0  0  0  0  0  0  0  0  0
   21.5228   -7.3022  -15.2924 C   0  0  0  0  0  0  0  0  0  0  0  0
   22.2981   -6.3244  -15.1101 O   0  0  0  0  0  0  0  0  0  0  0  0
   19.3431   -5.8664  -18.2374 C   0  0  0  0  0  0  0  0  0  0  0  0
   18.6587   -5.6766  -16.8968 C   0  0  1  0  0  0  0  0  0  0  0  0
   17.8143   -6.7716  -16.7212 O   0  0  0  0  0  0  0  0  0  0  0  0
   19.6908   -5.6255  -15.7606 C   0  0  2  0  0  0  0  0  0  0  0  0
   20.1876   -7.0059  -15.6501 N   0  0  0  0  0  0  0  0  0  0  0  0
   18.9464   -5.2666  -14.5419 C   0  0  0  0  0  0  0  0  0  0  0  0
   18.5691   -4.0924  -14.3663 O   0  0  0  0  0  0  0  0  0  0  0  0
   18.6683   -6.2284  -13.5983 O   0  0  0  0  0  0  0  0  0  0  0  0
  2  3  1  0
  2  1  1  6
  4  3  1  0
  5  4  1  0
  6  5  1  0
  7  6  1  0
  8  2  1  0
  8  9  2  0
 10  8  1  0
 11 10  1  0
 11 12  1  0
 12 13  2  0
 15 14  1  6
 15 16  1  0
 17 15  1  0
 18 12  1  0
 17 18  1  1
 19 21  1  0
 19 17  1  0
 20 19  2  0
M  END
$$$$
