KGT.pdb
     RDKit          3D

 21 20  0  0  1  0  0  0  0  0999 V2000
   19.7545  -10.8707  -18.5269 N   0  0  0  0  0  0  0  0  0  0  0  0
   18.9568  -10.3333  -17.4457 C   0  0  1  0  0  0  0  0  0  0  0  0
   18.0425  -11.3252  -16.8061 C   0  0  0  0  0  0  0  0  0  0  0  0
   17.6301  -12.4809  -17.6338 C   0  0  0  0  0  0  0  0  0  0  0  0
   16.7584  -13.4911  -16.9736 C   0  0  0  0  0  0  0  0  0  0  0  0
   16.4754  -14.6533  -17.9189 C   0  0  0  0  0  0  0  0  0  0  0  0
   15.6691  -15.6657  -17.3066 N   0  0  0  0  0  0  0  0  0  0  0  0
   19.8838   -9.8535  -16.3908 C   0  0  0  0  0  0  0  0  0  0  0  0
   19.3404   -9.4253  -15.3236 O   0  0  0  0  0  0  0  0  0  0  0  0
   21.2789   -9.8835  -16.5901 N   0  0  0  0  0  0  0  0  0  0  0  0
   22.1481   -9.4084  -15.5479 C   0  0  0  0  0  0  0  0  0  0  0  0
   22.2894   -7.9257  -15.5714 C   0  0  0  0  0  0  0  0  0  0  0  0
   22.7557   -7.3503  -16.5922 O   0  0  0  0  0  0  0  0  0  0  0  0
   19.6685   -5.6499  -13.8416 C   0  0  0  0  0  0  0  0  0  0  0  0
   20.6906   -5.0938  -14.8150 C   0  0  1  0  0  0  0  0  0  0  0  0
   20.6786   -3.7089  -14.6585 O   0  0  0  0  0  0  0  0  0  0  0  0
   22.0915   -5.6422  -14.5065 C   0  0  2  0  0  0  0  0  0  0  0  0
   21.9196   -7.1032  -14.4826 N   0  0  0  0  0  0  0  0  0  0  0  0
   22.4363   -5.1607  -13.1583 C   0  0  0  0  0  0  0  0  0  0  0  0
   22.4160   -5.9473  -12.1927 O   0  0  0  0  0  0  0  0  0  0  0  0
   22.7803   -3.8425  -12.9666 O   0  0  0  0  0  0  0  0  0  0  0  0
  2  3  1  0
  2  1  1  6
  4  3  1  0
  5  4  1  0
  6  5  1  0
  7  6  1  0
  8  2  1  0
  8  9  2  0
 10  8  1  0
 11 10  1  0
 11 12  1  0
 12 13  2  0
 15 14  1  1
 15 16  1  0
 17 15  1  0
 18 12  1  0
 17 18  1  1
 19 21  1  0
 19 17  1  0
 20 19  2  0
M  END
$$$$
