KGT.pdb
     RDKit          3D

 21 20  0  0  1  0  0  0  0  0999 V2000
   20.0570  -11.2898  -17.5136 N   0  0  0  0  0  0  0  0  0  0  0  0
   18.6191  -11.1866  -17.3874 C   0  0  1  0  0  0  0  0  0  0  0  0
   18.0028  -12.2334  -16.5195 C   0  0  0  0  0  0  0  0  0  0  0  0
   18.6293  -13.5741  -16.5462 C   0  0  0  0  0  0  0  0  0  0  0  0
   18.0174  -14.6089  -15.6682 C   0  0  0  0  0  0  0  0  0  0  0  0
   18.7248  -15.9477  -15.8458 C   0  0  0  0  0  0  0  0  0  0  0  0
   18.1803  -16.9650  -14.9980 N   0  0  0  0  0  0  0  0  0  0  0  0
   18.3092   -9.8729  -16.7705 C   0  0  0  0  0  0  0  0  0  0  0  0
   17.0775   -9.6281  -16.5692 O   0  0  0  0  0  0  0  0  0  0  0  0
   19.3412   -8.9718  -16.4388 N   0  0  0  0  0  0  0  0  0  0  0  0
   19.0441   -7.8394  -15.6041 C   0  0  0  0  0  0  0  0  0  0  0  0
   20.2698   -7.0712  -15.2483 C   0  0  0  0  0  0  0  0  0  0  0  0
   21.3829   -7.6582  -15.1653 O   0  0  0  0  0  0  0  0  0  0  0  0
   22.1841   -2.5451  -14.3109 C   0  0  0  0  0  0  0  0  0  0  0  0
   21.0020   -3.4795  -14.4870 C   0  0  1  0  0  0  0  0  0  0  0  0
   20.3341   -3.0654  -15.6382 O   0  0  0  0  0  0  0  0  0  0  0  0
   21.4749   -4.9314  -14.6513 C   0  0  2  0  0  0  0  0  0  0  0  0
   20.2554   -5.6811  -14.9911 N   0  0  0  0  0  0  0  0  0  0  0  0
   21.9680   -5.3575  -13.3309 C   0  0  0  0  0  0  0  0  0  0  0  0
   21.1789   -5.8460  -12.5000 O   0  0  0  0  0  0  0  0  0  0  0  0
   23.2998   -5.2156  -13.0162 O   0  0  0  0  0  0  0  0  0  0  0  0
  2  3  1  0
  2  1  1  1
  4  3  1  0
  5  4  1  0
  6  5  1  0
  7  6  1  0
  8  2  1  0
  8  9  2  0
 10  8  1  0
 11 10  1  0
 11 12  1  0
 12 13  2  0
 15 14  1  6
 15 16  1  0
 17 15  1  0
 18 12  1  0
 17 18  1  1
 19 21  1  0
 19 17  1  0
 20 19  2  0
M  END
$$$$
