KGT.pdb
     RDKit          3D

 21 20  0  0  1  0  0  0  0  0999 V2000
   15.6107  -11.5260  -15.9947 N   0  0  0  0  0  0  0  0  0  0  0  0
   17.0433  -11.4553  -16.1862 C   0  0  1  0  0  0  0  0  0  0  0  0
   17.5450  -12.2348  -17.3564 C   0  0  0  0  0  0  0  0  0  0  0  0
   17.3856  -13.7050  -17.2948 C   0  0  0  0  0  0  0  0  0  0  0  0
   18.2883  -14.4307  -16.3596 C   0  0  0  0  0  0  0  0  0  0  0  0
   17.9565  -15.9187  -16.3420 C   0  0  0  0  0  0  0  0  0  0  0  0
   18.8570  -16.6649  -15.5160 N   0  0  0  0  0  0  0  0  0  0  0  0
   17.4014  -10.0349  -16.4246 C   0  0  0  0  0  0  0  0  0  0  0  0
   16.9214   -9.5081  -17.4780 O   0  0  0  0  0  0  0  0  0  0  0  0
   18.2264   -9.3385  -15.5184 N   0  0  0  0  0  0  0  0  0  0  0  0
   18.5774   -7.9718  -15.7950 C   0  0  0  0  0  0  0  0  0  0  0  0
   19.4130   -7.3800  -14.7130 C   0  0  0  0  0  0  0  0  0  0  0  0
   19.1832   -7.6676  -13.5068 O   0  0  0  0  0  0  0  0  0  0  0  0
   22.7431   -8.0949  -13.9890 C   0  0  0  0  0  0  0  0  0  0  0  0
   22.7394   -6.5977  -14.2336 C   0  0  1  0  0  0  0  0  0  0  0  0
   23.0252   -6.4134  -15.5853 O   0  0  0  0  0  0  0  0  0  0  0  0
   21.3659   -5.9951  -13.9034 C   0  0  2  0  0  0  0  0  0  0  0  0
   20.4799   -6.4885  -14.9693 N   0  0  0  0  0  0  0  0  0  0  0  0
   21.5165   -4.5349  -14.0191 C   0  0  0  0  0  0  0  0  0  0  0  0
   21.1191   -3.9477  -15.0433 O   0  0  0  0  0  0  0  0  0  0  0  0
   22.0959   -3.8206  -12.9959 O   0  0  0  0  0  0  0  0  0  0  0  0
  2  3  1  0
  2  1  1  6
  4  3  1  0
  5  4  1  0
  6  5  1  0
  7  6  1  0
  8  2  1  0
  8  9  2  0
 10  8  1  0
 11 10  1  0
 11 12  1  0
 12 13  2  0
 15 14  1  6
 15 16  1  0
 17 15  1  0
 18 12  1  0
 17 18  1  6
 19 21  1  0
 19 17  1  0
 20 19  2  0
M  END
$$$$
