WMH.pdb
     RDKit          3D

 33 35  0  0  1  0  0  0  0  0999 V2000
   27.7131  -21.0099  -14.8080 N   0  0  0  0  0  0  0  0  0  0  0  0
   26.9541  -20.0981  -13.9348 C   0  0  1  0  0  0  0  0  0  0  0  0
   25.8920  -19.4341  -14.7663 C   0  0  0  0  0  0  0  0  0  0  0  0
   26.3512  -18.5488  -15.8316 C   0  0  0  0  0  0  0  0  0  0  0  0
   26.2887  -18.8841  -17.1912 C   0  0  0  0  0  0  0  0  0  0  0  0
   26.8131  -17.8869  -17.9265 N   0  0  0  0  0  0  0  0  0  0  0  0
   27.2260  -16.8898  -17.1038 C   0  0  0  0  0  0  0  0  0  0  0  0
   27.8078  -15.6635  -17.3575 C   0  0  0  0  0  0  0  0  0  0  0  0
   28.1205  -14.8089  -16.3327 C   0  0  0  0  0  0  0  0  0  0  0  0
   27.8286  -15.2289  -15.0462 C   0  0  0  0  0  0  0  0  0  0  0  0
   27.2496  -16.4486  -14.7821 C   0  0  0  0  0  0  0  0  0  0  0  0
   26.9384  -17.3044  -15.8249 C   0  0  0  0  0  0  0  0  0  0  0  0
   26.4699  -20.8266  -12.7831 C   0  0  0  0  0  0  0  0  0  0  0  0
   26.0308  -21.9959  -12.9144 O   0  0  0  0  0  0  0  0  0  0  0  0
   27.9967  -20.9432   -5.7929 C   0  0  0  0  0  0  0  0  0  0  0  0
   27.2667  -19.7024   -6.8629 S   0  0  0  0  0  0  0  0  0  0  0  0
   27.0508  -20.3106   -8.5373 C   0  0  0  0  0  0  0  0  0  0  0  0
   25.6776  -20.2222   -9.0775 C   0  0  0  0  0  0  0  0  0  0  0  0
   25.4442  -20.6946  -10.4633 C   0  0  2  0  0  0  0  0  0  0  0  0
   26.4410  -20.3128  -11.4319 N   0  0  0  0  0  0  0  0  0  0  0  0
   24.0618  -20.4652  -10.9731 C   0  0  0  0  0  0  0  0  0  0  0  0
   23.7986  -19.6969  -11.9386 O   0  0  0  0  0  0  0  0  0  0  0  0
   22.9543  -21.1220  -10.3765 N   0  0  0  0  0  0  0  0  0  0  0  0
   21.5946  -21.0079  -10.9231 C   0  0  1  0  0  0  0  0  0  0  0  0
   21.5701  -22.0400  -12.0592 C   0  0  0  0  0  0  0  0  0  0  0  0
   21.8812  -21.4764  -13.3627 C   0  0  0  0  0  0  0  0  0  0  0  0
   22.2369  -20.1785  -13.6209 C   0  0  0  0  0  0  0  0  0  0  0  0
   22.4419  -20.0392  -14.9337 N   0  0  0  0  0  0  0  0  0  0  0  0
   22.2204  -21.2263  -15.4966 C   0  0  0  0  0  0  0  0  0  0  0  0
   21.8730  -22.1228  -14.5352 N   0  0  0  0  0  0  0  0  0  0  0  0
   20.5756  -21.2731   -9.9118 C   0  0  0  0  0  0  0  0  0  0  0  0
   20.8337  -21.9722   -8.9174 O   0  0  0  0  0  0  0  0  0  0  0  0
   19.3031  -20.7513  -10.0410 O   0  0  0  0  0  0  0  0  0  0  0  0
  2  1  1  6
  3  4  1  0
  3  2  1  0
  4  5  2  0
  6  5  1  0
  7  6  1  0
  8  7  2  0
  9  8  1  0
 10 11  1  0
 10  9  2  0
 11 12  2  0
 12  7  1  0
 12  4  1  0
 13  2  1  0
 13 14  2  0
 16 15  1  0
 17 16  1  0
 17 18  1  0
 19 20  1  0
 19 18  1  1
 20 13  1  0
 21 19  1  0
 22 21  2  0
 23 21  1  0
 24 23  1  0
 25 26  1  0
 24 25  1  6
 26 27  2  0
 28 27  1  0
 29 28  1  0
 30 29  2  0
 30 26  1  0
 31 33  1  0
 31 24  1  0
 32 31  2  0
M  END
$$$$
