WMH.pdb
     RDKit          3D

 33 35  0  0  1  0  0  0  0  0999 V2000
   28.0186  -20.8928  -15.2050 N   0  0  0  0  0  0  0  0  0  0  0  0
   27.0893  -20.2446  -14.2636 C   0  0  1  0  0  0  0  0  0  0  0  0
   26.0205  -19.5552  -15.0652 C   0  0  0  0  0  0  0  0  0  0  0  0
   26.4553  -18.4782  -15.9487 C   0  0  0  0  0  0  0  0  0  0  0  0
   26.5500  -18.6156  -17.3405 C   0  0  0  0  0  0  0  0  0  0  0  0
   27.0077  -17.4699  -17.8770 N   0  0  0  0  0  0  0  0  0  0  0  0
   27.2233  -16.5646  -16.8894 C   0  0  0  0  0  0  0  0  0  0  0  0
   27.6686  -15.2578  -16.9144 C   0  0  0  0  0  0  0  0  0  0  0  0
   27.7856  -14.5333  -15.7569 C   0  0  0  0  0  0  0  0  0  0  0  0
   27.4400  -15.1667  -14.5754 C   0  0  0  0  0  0  0  0  0  0  0  0
   26.9957  -16.4683  -14.5389 C   0  0  0  0  0  0  0  0  0  0  0  0
   26.8819  -17.1912  -15.7142 C   0  0  0  0  0  0  0  0  0  0  0  0
   26.6114  -21.2211  -13.3098 C   0  0  0  0  0  0  0  0  0  0  0  0
   26.1822  -22.3330  -13.7058 O   0  0  0  0  0  0  0  0  0  0  0  0
   27.2360  -19.9181   -6.2635 C   0  0  0  0  0  0  0  0  0  0  0  0
   26.6770  -19.4958   -7.9146 S   0  0  0  0  0  0  0  0  0  0  0  0
   26.8993  -20.8577   -9.0618 C   0  0  0  0  0  0  0  0  0  0  0  0
   25.6568  -21.4374   -9.6145 C   0  0  0  0  0  0  0  0  0  0  0  0
   25.4149  -21.3023  -11.0709 C   0  0  2  0  0  0  0  0  0  0  0  0
   26.5784  -21.0301  -11.8770 N   0  0  0  0  0  0  0  0  0  0  0  0
   24.2729  -20.4136  -11.4310 C   0  0  0  0  0  0  0  0  0  0  0  0
   24.4130  -19.3212  -12.0465 O   0  0  0  0  0  0  0  0  0  0  0  0
   22.9435  -20.7718  -11.0873 N   0  0  0  0  0  0  0  0  0  0  0  0
   21.8500  -20.7396  -12.0690 C   0  0  1  0  0  0  0  0  0  0  0  0
   22.3515  -21.6438  -13.2037 C   0  0  0  0  0  0  0  0  0  0  0  0
   21.4213  -21.7501  -14.3159 C   0  0  0  0  0  0  0  0  0  0  0  0
   21.1824  -20.7934  -15.2674 C   0  0  0  0  0  0  0  0  0  0  0  0
   20.2640  -21.2530  -16.1219 N   0  0  0  0  0  0  0  0  0  0  0  0
   19.9275  -22.4778  -15.7196 C   0  0  0  0  0  0  0  0  0  0  0  0
   20.6365  -22.7960  -14.6039 N   0  0  0  0  0  0  0  0  0  0  0  0
   20.5912  -21.2118  -11.4999 C   0  0  0  0  0  0  0  0  0  0  0  0
   20.5797  -22.1030  -10.6340 O   0  0  0  0  0  0  0  0  0  0  0  0
   19.3869  -20.6762  -11.9135 O   0  0  0  0  0  0  0  0  0  0  0  0
  2  1  1  6
  3  4  1  0
  3  2  1  0
  4  5  2  0
  6  5  1  0
  7  6  1  0
  8  7  2  0
  9  8  1  0
 10 11  1  0
 10  9  2  0
 11 12  2  0
 12  7  1  0
 12  4  1  0
 13  2  1  0
 13 14  2  0
 16 15  1  0
 17 16  1  0
 17 18  1  0
 19 20  1  0
 19 18  1  1
 20 13  1  0
 21 19  1  0
 22 21  2  0
 23 21  1  0
 24 23  1  0
 25 26  1  0
 24 25  1  6
 26 27  2  0
 28 27  1  0
 29 28  1  0
 30 29  2  0
 30 26  1  0
 31 33  1  0
 31 24  1  0
 32 31  2  0
M  END
$$$$
