WMH.pdb
     RDKit          3D

 33 35  0  0  1  0  0  0  0  0999 V2000
   25.7182  -21.6290  -13.6198 N   0  0  0  0  0  0  0  0  0  0  0  0
   26.0558  -20.5662  -12.6575 C   0  0  1  0  0  0  0  0  0  0  0  0
   25.3380  -19.3135  -13.0767 C   0  0  0  0  0  0  0  0  0  0  0  0
   25.6124  -18.8196  -14.4223 C   0  0  0  0  0  0  0  0  0  0  0  0
   24.6062  -18.4823  -15.3382 C   0  0  0  0  0  0  0  0  0  0  0  0
   25.1645  -18.0924  -16.4984 N   0  0  0  0  0  0  0  0  0  0  0  0
   26.5158  -18.1557  -16.3919 C   0  0  0  0  0  0  0  0  0  0  0  0
   27.5283  -17.8527  -17.2805 C   0  0  0  0  0  0  0  0  0  0  0  0
   28.8436  -17.9860  -16.9189 C   0  0  0  0  0  0  0  0  0  0  0  0
   29.1054  -18.4336  -15.6353 C   0  0  0  0  0  0  0  0  0  0  0  0
   28.1045  -18.7389  -14.7421 C   0  0  0  0  0  0  0  0  0  0  0  0
   26.7792  -18.6011  -15.1181 C   0  0  0  0  0  0  0  0  0  0  0  0
   25.7673  -21.0224  -11.3157 C   0  0  0  0  0  0  0  0  0  0  0  0
   24.6932  -21.6256  -11.0711 O   0  0  0  0  0  0  0  0  0  0  0  0
   27.4054  -19.8577   -3.7118 C   0  0  0  0  0  0  0  0  0  0  0  0
   27.9207  -19.9803   -5.4254 S   0  0  0  0  0  0  0  0  0  0  0  0
   26.5706  -19.6275   -6.5537 C   0  0  0  0  0  0  0  0  0  0  0  0
   26.9034  -19.7024   -7.9922 C   0  0  0  0  0  0  0  0  0  0  0  0
   26.1506  -20.6661   -8.8303 C   0  0  2  0  0  0  0  0  0  0  0  0
   26.6377  -20.8411  -10.1755 N   0  0  0  0  0  0  0  0  0  0  0  0
   24.6698  -20.4936   -8.7970 C   0  0  0  0  0  0  0  0  0  0  0  0
   24.0857  -19.4460   -9.1884 O   0  0  0  0  0  0  0  0  0  0  0  0
   23.8331  -21.5316   -8.3108 N   0  0  0  0  0  0  0  0  0  0  0  0
   22.4557  -21.2771   -7.8651 C   0  0  1  0  0  0  0  0  0  0  0  0
   21.5956  -22.0296   -8.8901 C   0  0  0  0  0  0  0  0  0  0  0  0
   21.3383  -21.2693  -10.1022 C   0  0  0  0  0  0  0  0  0  0  0  0
   21.7292  -19.9793  -10.3485 C   0  0  0  0  0  0  0  0  0  0  0  0
   21.3086  -19.6249  -11.5661 N   0  0  0  0  0  0  0  0  0  0  0  0
   20.6636  -20.6705  -12.0815 C   0  0  0  0  0  0  0  0  0  0  0  0
   20.6754  -21.6932  -11.1856 N   0  0  0  0  0  0  0  0  0  0  0  0
   22.2280  -21.7448   -6.5010 C   0  0  0  0  0  0  0  0  0  0  0  0
   23.0151  -22.5411   -5.9623 O   0  0  0  0  0  0  0  0  0  0  0  0
   21.1314  -21.3105   -5.7818 O   0  0  0  0  0  0  0  0  0  0  0  0
  2  1  1  6
  3  4  1  0
  3  2  1  0
  4  5  2  0
  6  5  1  0
  7  6  1  0
  8  7  2  0
  9  8  1  0
 10 11  1  0
 10  9  2  0
 11 12  2  0
 12  7  1  0
 12  4  1  0
 13  2  1  0
 13 14  2  0
 16 15  1  0
 17 16  1  0
 17 18  1  0
 19 20  1  0
 19 18  1  6
 20 13  1  0
 21 19  1  0
 22 21  2  0
 23 21  1  0
 24 23  1  0
 25 26  1  0
 24 25  1  6
 26 27  2  0
 28 27  1  0
 29 28  1  0
 30 29  2  0
 30 26  1  0
 31 33  1  0
 31 24  1  0
 32 31  2  0
M  END
$$$$
