WMH.pdb
     RDKit          3D

 33 35  0  0  1  0  0  0  0  0999 V2000
   25.0463  -20.9525  -14.1869 N   0  0  0  0  0  0  0  0  0  0  0  0
   24.0513  -20.3596  -13.2769 C   0  0  1  0  0  0  0  0  0  0  0  0
   22.6831  -20.6687  -13.8180 C   0  0  0  0  0  0  0  0  0  0  0  0
   22.0562  -19.6406  -14.6422 C   0  0  0  0  0  0  0  0  0  0  0  0
   22.4477  -19.3660  -15.9600 C   0  0  0  0  0  0  0  0  0  0  0  0
   21.7122  -18.3502  -16.4469 N   0  0  0  0  0  0  0  0  0  0  0  0
   20.8367  -17.9326  -15.4979 C   0  0  0  0  0  0  0  0  0  0  0  0
   19.8686  -16.9480  -15.5025 C   0  0  0  0  0  0  0  0  0  0  0  0
   19.0839  -16.7293  -14.4004 C   0  0  0  0  0  0  0  0  0  0  0  0
   19.3054  -17.5333  -13.2953 C   0  0  0  0  0  0  0  0  0  0  0  0
   20.2674  -18.5167  -13.2797 C   0  0  0  0  0  0  0  0  0  0  0  0
   21.0550  -18.7287  -14.3984 C   0  0  0  0  0  0  0  0  0  0  0  0
   24.2990  -20.8186  -11.9280 C   0  0  0  0  0  0  0  0  0  0  0  0
   24.2717  -22.0460  -11.6636 O   0  0  0  0  0  0  0  0  0  0  0  0
   27.5999  -20.2885   -4.7551 C   0  0  0  0  0  0  0  0  0  0  0  0
   27.4477  -19.6313   -6.4171 S   0  0  0  0  0  0  0  0  0  0  0  0
   26.0272  -20.3134   -7.2755 C   0  0  0  0  0  0  0  0  0  0  0  0
   25.8363  -19.8482   -8.6657 C   0  0  0  0  0  0  0  0  0  0  0  0
   24.7315  -20.4462   -9.4531 C   0  0  2  0  0  0  0  0  0  0  0  0
   24.5878  -19.9589  -10.8019 N   0  0  0  0  0  0  0  0  0  0  0  0
   23.4215  -20.5009   -8.7428 C   0  0  0  0  0  0  0  0  0  0  0  0
   22.7398  -19.4757   -8.4675 O   0  0  0  0  0  0  0  0  0  0  0  0
   22.8719  -21.7449   -8.3372 N   0  0  0  0  0  0  0  0  0  0  0  0
   21.6557  -21.8279   -7.5159 C   0  0  1  0  0  0  0  0  0  0  0  0
   20.7984  -22.8766   -8.2384 C   0  0  0  0  0  0  0  0  0  0  0  0
   20.0774  -22.3476   -9.3846 C   0  0  0  0  0  0  0  0  0  0  0  0
   20.5668  -22.2095  -10.6571 C   0  0  0  0  0  0  0  0  0  0  0  0
   19.6129  -21.6869  -11.4330 N   0  0  0  0  0  0  0  0  0  0  0  0
   18.5395  -21.4977  -10.6668 C   0  0  0  0  0  0  0  0  0  0  0  0
   18.8147  -21.9024   -9.3982 N   0  0  0  0  0  0  0  0  0  0  0  0
   21.9523  -22.2089   -6.1381 C   0  0  0  0  0  0  0  0  0  0  0  0
   23.0365  -22.7405   -5.8448 O   0  0  0  0  0  0  0  0  0  0  0  0
   21.0320  -21.9854   -5.1324 O   0  0  0  0  0  0  0  0  0  0  0  0
  2  1  1  6
  3  4  1  0
  3  2  1  0
  4  5  2  0
  6  5  1  0
  7  6  1  0
  8  7  2  0
  9  8  1  0
 10 11  1  0
 10  9  2  0
 11 12  2  0
 12  7  1  0
 12  4  1  0
 13  2  1  0
 13 14  2  0
 16 15  1  0
 17 16  1  0
 17 18  1  0
 19 20  1  0
 19 18  1  1
 20 13  1  0
 21 19  1  0
 22 21  2  0
 23 21  1  0
 24 23  1  0
 25 26  1  0
 24 25  1  6
 26 27  2  0
 28 27  1  0
 29 28  1  0
 30 29  2  0
 30 26  1  0
 31 33  1  0
 31 24  1  0
 32 31  2  0
M  END
$$$$
