WMH.pdb
     RDKit          3D

 33 35  0  0  1  0  0  0  0  0999 V2000
   15.8906  -16.6700    5.3857 N   0  0  0  0  0  0  0  0  0  0  0  0
   17.2902  -16.8920    5.7876 C   0  0  1  0  0  0  0  0  0  0  0  0
   17.6795  -15.7976    6.7420 C   0  0  0  0  0  0  0  0  0  0  0  0
   18.0819  -14.5251    6.1518 C   0  0  0  0  0  0  0  0  0  0  0  0
   17.2568  -13.7763    5.3012 C   0  0  0  0  0  0  0  0  0  0  0  0
   17.9113  -12.6742    4.8928 N   0  0  0  0  0  0  0  0  0  0  0  0
   19.1516  -12.6571    5.4429 C   0  0  0  0  0  0  0  0  0  0  0  0
   20.1903  -11.7517    5.3530 C   0  0  0  0  0  0  0  0  0  0  0  0
   21.3616  -11.9564    6.0346 C   0  0  0  0  0  0  0  0  0  0  0  0
   21.4525  -13.1007    6.8085 C   0  0  0  0  0  0  0  0  0  0  0  0
   20.4242  -14.0096    6.9048 C   0  0  0  0  0  0  0  0  0  0  0  0
   19.2455  -13.7932    6.2115 C   0  0  0  0  0  0  0  0  0  0  0  0
   17.4367  -18.2369    6.2987 C   0  0  0  0  0  0  0  0  0  0  0  0
   16.4728  -18.8034    6.8710 O   0  0  0  0  0  0  0  0  0  0  0  0
   20.9216  -23.6148    3.2798 C   0  0  0  0  0  0  0  0  0  0  0  0
   19.5918  -23.2986    4.4413 S   0  0  0  0  0  0  0  0  0  0  0  0
   19.8389  -21.7618    5.3343 C   0  0  0  0  0  0  0  0  0  0  0  0
   18.8673  -21.4865    6.4139 C   0  0  0  0  0  0  0  0  0  0  0  0
   18.9125  -20.1561    7.0667 C   0  0  2  0  0  0  0  0  0  0  0  0
   18.6435  -19.0283    6.2104 N   0  0  0  0  0  0  0  0  0  0  0  0
   20.1103  -19.9255    7.9243 C   0  0  0  0  0  0  0  0  0  0  0  0
   21.2170  -19.5206    7.4737 O   0  0  0  0  0  0  0  0  0  0  0  0
   20.0518  -20.1575    9.3232 N   0  0  0  0  0  0  0  0  0  0  0  0
   21.2500  -20.1002   10.1726 C   0  0  1  0  0  0  0  0  0  0  0  0
   20.8350  -19.1779   11.3275 C   0  0  0  0  0  0  0  0  0  0  0  0
   21.8351  -19.0762   12.3777 C   0  0  0  0  0  0  0  0  0  0  0  0
   23.1045  -18.5781   12.2428 C   0  0  0  0  0  0  0  0  0  0  0  0
   23.7251  -18.6502   13.4238 N   0  0  0  0  0  0  0  0  0  0  0  0
   22.8653  -19.1838   14.2904 C   0  0  0  0  0  0  0  0  0  0  0  0
   21.6933  -19.4514   13.6550 N   0  0  0  0  0  0  0  0  0  0  0  0
   21.6528  -21.4240   10.6383 C   0  0  0  0  0  0  0  0  0  0  0  0
   22.8129  -21.6339   11.0310 O   0  0  0  0  0  0  0  0  0  0  0  0
   20.7509  -22.4702   10.6512 O   0  0  0  0  0  0  0  0  0  0  0  0
  2  1  1  1
  3  4  1  0
  3  2  1  0
  4  5  2  0
  6  5  1  0
  7  6  1  0
  8  7  2  0
  9  8  1  0
 10 11  1  0
 10  9  2  0
 11 12  2  0
 12  7  1  0
 12  4  1  0
 13  2  1  0
 13 14  2  0
 16 15  1  0
 17 16  1  0
 17 18  1  0
 19 20  1  0
 19 18  1  6
 20 13  1  0
 21 19  1  0
 22 21  2  0
 23 21  1  0
 24 23  1  0
 25 26  1  0
 24 25  1  1
 26 27  2  0
 28 27  1  0
 29 28  1  0
 30 29  2  0
 30 26  1  0
 31 33  1  0
 31 24  1  0
 32 31  2  0
M  END
$$$$
