WMH.pdb
     RDKit          3D

 33 35  0  0  1  0  0  0  0  0999 V2000
   28.2781  -21.4469  -15.7660 N   0  0  0  0  0  0  0  0  0  0  0  0
   27.5702  -20.4469  -14.9483 C   0  0  1  0  0  0  0  0  0  0  0  0
   26.6755  -19.6513  -15.8575 C   0  0  0  0  0  0  0  0  0  0  0  0
   27.2751  -18.5003  -16.5248 C   0  0  0  0  0  0  0  0  0  0  0  0
   27.7462  -18.5353  -17.8446 C   0  0  0  0  0  0  0  0  0  0  0  0
   28.2712  -17.3397  -18.1682 N   0  0  0  0  0  0  0  0  0  0  0  0
   28.1674  -16.5001  -17.1072 C   0  0  0  0  0  0  0  0  0  0  0  0
   28.5352  -15.1806  -16.9332 C   0  0  0  0  0  0  0  0  0  0  0  0
   28.3002  -14.5366  -15.7464 C   0  0  0  0  0  0  0  0  0  0  0  0
   27.6838  -15.2635  -14.7423 C   0  0  0  0  0  0  0  0  0  0  0  0
   27.3136  -16.5786  -14.9048 C   0  0  0  0  0  0  0  0  0  0  0  0
   27.5563  -17.2197  -16.1076 C   0  0  0  0  0  0  0  0  0  0  0  0
   26.9014  -21.1092  -13.8503 C   0  0  0  0  0  0  0  0  0  0  0  0
   26.2927  -22.1910  -14.0418 O   0  0  0  0  0  0  0  0  0  0  0  0
   26.1997  -19.7380   -7.0768 C   0  0  0  0  0  0  0  0  0  0  0  0
   27.6706  -20.3108   -7.9285 S   0  0  0  0  0  0  0  0  0  0  0  0
   27.2769  -21.0418   -9.5194 C   0  0  0  0  0  0  0  0  0  0  0  0
   26.0350  -20.5551  -10.1568 C   0  0  0  0  0  0  0  0  0  0  0  0
   25.7922  -20.9191  -11.5733 C   0  0  2  0  0  0  0  0  0  0  0  0
   26.8644  -20.6217  -12.4896 N   0  0  0  0  0  0  0  0  0  0  0  0
   24.4707  -20.4828  -12.1089 C   0  0  0  0  0  0  0  0  0  0  0  0
   24.2767  -19.3545  -12.6389 O   0  0  0  0  0  0  0  0  0  0  0  0
   23.3453  -21.3449  -12.0434 N   0  0  0  0  0  0  0  0  0  0  0  0
   22.0656  -21.0044  -12.6814 C   0  0  1  0  0  0  0  0  0  0  0  0
   22.1046  -21.7721  -14.0103 C   0  0  0  0  0  0  0  0  0  0  0  0
   20.9047  -21.6038  -14.8136 C   0  0  0  0  0  0  0  0  0  0  0  0
   19.7607  -20.9512  -14.4354 C   0  0  0  0  0  0  0  0  0  0  0  0
   18.8792  -21.0074  -15.4378 N   0  0  0  0  0  0  0  0  0  0  0  0
   19.4538  -21.6826  -16.4323 C   0  0  0  0  0  0  0  0  0  0  0  0
   20.7063  -22.0565  -16.0580 N   0  0  0  0  0  0  0  0  0  0  0  0
   20.9246  -21.3863  -11.8545 C   0  0  0  0  0  0  0  0  0  0  0  0
   21.0356  -22.2685  -10.9865 O   0  0  0  0  0  0  0  0  0  0  0  0
   19.6979  -20.7734  -12.0213 O   0  0  0  0  0  0  0  0  0  0  0  0
  2  1  1  6
  3  4  1  0
  3  2  1  0
  4  5  2  0
  6  5  1  0
  7  6  1  0
  8  7  2  0
  9  8  1  0
 10 11  1  0
 10  9  2  0
 11 12  2  0
 12  7  1  0
 12  4  1  0
 13  2  1  0
 13 14  2  0
 16 15  1  0
 17 16  1  0
 17 18  1  0
 19 20  1  0
 19 18  1  1
 20 13  1  0
 21 19  1  0
 22 21  2  0
 23 21  1  0
 24 23  1  0
 25 26  1  0
 24 25  1  6
 26 27  2  0
 28 27  1  0
 29 28  1  0
 30 29  2  0
 30 26  1  0
 31 33  1  0
 31 24  1  0
 32 31  2  0
M  END
$$$$
