WMH.pdb
     RDKit          3D

 33 35  0  0  1  0  0  0  0  0999 V2000
   28.2816  -20.3434  -15.2439 N   0  0  0  0  0  0  0  0  0  0  0  0
   27.2185  -19.6751  -14.4738 C   0  0  1  0  0  0  0  0  0  0  0  0
   26.2244  -19.1076  -15.4484 C   0  0  0  0  0  0  0  0  0  0  0  0
   26.6871  -18.0117  -16.2937 C   0  0  0  0  0  0  0  0  0  0  0  0
   26.8303  -18.1198  -17.6840 C   0  0  0  0  0  0  0  0  0  0  0  0
   27.3035  -16.9624  -18.1803 N   0  0  0  0  0  0  0  0  0  0  0  0
   27.4825  -16.0776  -17.1671 C   0  0  0  0  0  0  0  0  0  0  0  0
   27.9253  -14.7698  -17.1494 C   0  0  0  0  0  0  0  0  0  0  0  0
   28.0003  -14.0694  -15.9737 C   0  0  0  0  0  0  0  0  0  0  0  0
   27.6155  -14.7279  -14.8184 C   0  0  0  0  0  0  0  0  0  0  0  0
   27.1733  -16.0307  -14.8244 C   0  0  0  0  0  0  0  0  0  0  0  0
   27.1021  -16.7291  -16.0177 C   0  0  0  0  0  0  0  0  0  0  0  0
   26.6728  -20.5993  -13.5044 C   0  0  0  0  0  0  0  0  0  0  0  0
   26.2961  -21.7421  -13.8639 O   0  0  0  0  0  0  0  0  0  0  0  0
   25.7523  -20.1889   -6.7254 C   0  0  0  0  0  0  0  0  0  0  0  0
   27.2804  -20.7256   -7.4963 S   0  0  0  0  0  0  0  0  0  0  0  0
   27.0281  -21.2181   -9.2033 C   0  0  0  0  0  0  0  0  0  0  0  0
   25.7337  -20.8229   -9.7980 C   0  0  0  0  0  0  0  0  0  0  0  0
   25.5565  -21.0027  -11.2590 C   0  0  2  0  0  0  0  0  0  0  0  0
   26.5114  -20.3196  -12.0950 N   0  0  0  0  0  0  0  0  0  0  0  0
   24.1596  -20.8091  -11.7436 C   0  0  0  0  0  0  0  0  0  0  0  0
   23.6444  -19.6735  -11.9352 O   0  0  0  0  0  0  0  0  0  0  0  0
   23.3296  -21.9269  -12.0183 N   0  0  0  0  0  0  0  0  0  0  0  0
   21.9551  -21.7724  -12.5157 C   0  0  1  0  0  0  0  0  0  0  0  0
   21.7403  -23.0176  -13.3875 C   0  0  0  0  0  0  0  0  0  0  0  0
   20.4039  -23.1073  -13.9528 C   0  0  0  0  0  0  0  0  0  0  0  0
   19.9005  -22.3391  -14.9697 C   0  0  0  0  0  0  0  0  0  0  0  0
   18.6403  -22.7122  -15.2104 N   0  0  0  0  0  0  0  0  0  0  0  0
   18.3509  -23.6981  -14.3623 C   0  0  0  0  0  0  0  0  0  0  0  0
   19.4336  -23.9511  -13.5796 N   0  0  0  0  0  0  0  0  0  0  0  0
   20.9869  -21.6851  -11.4265 C   0  0  0  0  0  0  0  0  0  0  0  0
   19.8605  -21.1955  -11.6149 O   0  0  0  0  0  0  0  0  0  0  0  0
   21.3048  -22.1458  -10.1635 O   0  0  0  0  0  0  0  0  0  0  0  0
  2  1  1  6
  3  4  1  0
  3  2  1  0
  4  5  2  0
  6  5  1  0
  7  6  1  0
  8  7  2  0
  9  8  1  0
 10 11  1  0
 10  9  2  0
 11 12  2  0
 12  7  1  0
 12  4  1  0
 13  2  1  0
 13 14  2  0
 16 15  1  0
 17 16  1  0
 17 18  1  0
 19 20  1  0
 19 18  1  1
 20 13  1  0
 21 19  1  0
 22 21  2  0
 23 21  1  0
 24 23  1  0
 25 26  1  0
 24 25  1  6
 26 27  2  0
 28 27  1  0
 29 28  1  0
 30 29  2  0
 30 26  1  0
 31 33  1  0
 31 24  1  0
 32 31  2  0
M  END
$$$$
