PYP.pdb
     RDKit          3D

 27 29  0  0  1  0  0  0  0  0999 V2000
   27.7538  -21.7530  -14.8855 N   0  0  0  0  0  0  0  0  0  0  0  0
   28.1464  -21.9715  -16.2679 C   0  0  0  0  0  0  0  0  0  0  0  0
   27.7252  -20.7632  -17.0433 C   0  0  0  0  0  0  0  0  0  0  0  0
   27.0000  -19.9070  -16.0054 C   0  0  0  0  0  0  0  0  0  0  0  0
   27.7182  -20.3096  -14.7417 C   0  0  1  0  0  0  0  0  0  0  0  0
   27.0616  -19.8736  -13.5094 C   0  0  0  0  0  0  0  0  0  0  0  0
   26.8853  -18.6613  -13.2693 O   0  0  0  0  0  0  0  0  0  0  0  0
   20.9136  -19.0907  -15.6948 O   0  0  0  0  0  0  0  0  0  0  0  0
   21.7719  -19.5529  -14.7007 C   0  0  0  0  0  0  0  0  0  0  0  0
   22.5883  -20.6328  -14.9685 C   0  0  0  0  0  0  0  0  0  0  0  0
   23.4521  -21.1139  -13.9992 C   0  0  0  0  0  0  0  0  0  0  0  0
   23.5395  -20.5526  -12.7460 C   0  0  0  0  0  0  0  0  0  0  0  0
   24.4162  -21.0989  -11.7155 C   0  0  0  0  0  0  0  0  0  0  0  0
   25.7111  -20.4120  -11.4504 C   0  0  2  0  0  0  0  0  0  0  0  0
   26.6166  -20.8279  -12.5705 N   0  0  0  0  0  0  0  0  0  0  0  0
   26.3349  -20.8561  -10.2028 C   0  0  0  0  0  0  0  0  0  0  0  0
   26.8297  -22.0435  -10.1988 O   0  0  0  0  0  0  0  0  0  0  0  0
   22.7015  -19.4589  -12.4976 C   0  0  0  0  0  0  0  0  0  0  0  0
   21.8384  -18.9721  -13.4553 C   0  0  0  0  0  0  0  0  0  0  0  0
   26.4451  -20.0871   -9.0157 N   0  0  0  0  0  0  0  0  0  0  0  0
   26.1604  -18.6839   -8.8036 C   0  0  0  0  0  0  0  0  0  0  0  0
   27.2201  -18.2578   -7.7627 C   0  0  0  0  0  0  0  0  0  0  0  0
   27.1076  -19.4535   -6.8248 C   0  0  0  0  0  0  0  0  0  0  0  0
   26.9484  -20.6196   -7.7473 C   0  0  1  0  0  0  0  0  0  0  0  0
   26.0233  -21.6565   -7.2681 C   0  0  0  0  0  0  0  0  0  0  0  0
   24.8900  -21.7677   -7.7677 O   0  0  0  0  0  0  0  0  0  0  0  0
   26.4082  -22.5194   -6.2541 O   0  0  0  0  0  0  0  0  0  0  0  0
  1  2  1  0
  2  3  1  0
  4  3  1  0
  5  6  1  1
  5  4  1  0
  5  1  1  0
  6  7  2  0
  8  9  1  0
  9 19  2  0
 10  9  1  0
 10 11  2  0
 11 12  1  0
 12 18  2  0
 12 13  1  0
 14 13  1  6
 14 15  1  0
 14 16  1  0
 15  6  1  0
 16 20  1  0
 17 16  2  0
 19 18  1  0
 20 21  1  0
 20 24  1  0
 21 22  1  0
 22 23  1  0
 24 23  1  0
 25 27  1  0
 24 25  1  1
 26 25  2  0
M  END
$$$$
