PYP.pdb
     RDKit          3D

 27 29  0  0  1  0  0  0  0  0999 V2000
   27.9378  -21.4945  -13.0457 N   0  0  0  0  0  0  0  0  0  0  0  0
   28.1201  -21.6801  -14.4759 C   0  0  0  0  0  0  0  0  0  0  0  0
   27.4182  -20.5504  -15.1612 C   0  0  0  0  0  0  0  0  0  0  0  0
   26.7685  -19.7822  -14.0106 C   0  0  0  0  0  0  0  0  0  0  0  0
   27.7344  -20.0666  -12.8876 C   0  0  1  0  0  0  0  0  0  0  0  0
   27.2401  -19.7028  -11.5598 C   0  0  0  0  0  0  0  0  0  0  0  0
   26.8365  -18.5463  -11.3188 O   0  0  0  0  0  0  0  0  0  0  0  0
   20.7868  -19.8210  -11.9962 O   0  0  0  0  0  0  0  0  0  0  0  0
   21.9303  -20.1939  -11.2949 C   0  0  0  0  0  0  0  0  0  0  0  0
   22.1545  -19.6568  -10.0437 C   0  0  0  0  0  0  0  0  0  0  0  0
   23.2830  -20.0094   -9.3230 C   0  0  0  0  0  0  0  0  0  0  0  0
   24.2191  -20.8944   -9.8064 C   0  0  0  0  0  0  0  0  0  0  0  0
   25.4300  -21.2203   -9.0605 C   0  0  0  0  0  0  0  0  0  0  0  0
   26.6104  -20.3223   -9.1992 C   0  0  2  0  0  0  0  0  0  0  0  0
   27.2143  -20.6645  -10.5279 N   0  0  0  0  0  0  0  0  0  0  0  0
   27.6310  -20.5786   -8.1817 C   0  0  0  0  0  0  0  0  0  0  0  0
   28.2609  -21.6969   -8.2687 O   0  0  0  0  0  0  0  0  0  0  0  0
   23.9705  -21.4257  -11.0777 C   0  0  0  0  0  0  0  0  0  0  0  0
   22.8504  -21.0815  -11.8031 C   0  0  0  0  0  0  0  0  0  0  0  0
   27.9838  -19.6984   -7.1263 N   0  0  0  0  0  0  0  0  0  0  0  0
   27.5780  -18.3272   -6.9029 C   0  0  0  0  0  0  0  0  0  0  0  0
   28.8304  -17.6833   -6.2666 C   0  0  0  0  0  0  0  0  0  0  0  0
   29.1804  -18.7947   -5.2846 C   0  0  0  0  0  0  0  0  0  0  0  0
   28.9187  -20.0496   -6.0547 C   0  0  1  0  0  0  0  0  0  0  0  0
   28.3413  -21.1445   -5.2618 C   0  0  0  0  0  0  0  0  0  0  0  0
   27.1568  -21.4844   -5.4279 O   0  0  0  0  0  0  0  0  0  0  0  0
   29.1146  -21.8071   -4.3215 O   0  0  0  0  0  0  0  0  0  0  0  0
  1  2  1  0
  2  3  1  0
  4  3  1  0
  5  6  1  1
  5  4  1  0
  5  1  1  0
  6  7  2  0
  8  9  1  0
  9 19  2  0
 10  9  1  0
 10 11  2  0
 11 12  1  0
 12 18  2  0
 12 13  1  0
 14 13  1  1
 14 15  1  0
 14 16  1  0
 15  6  1  0
 16 20  1  0
 17 16  2  0
 19 18  1  0
 20 21  1  0
 20 24  1  0
 21 22  1  0
 22 23  1  0
 24 23  1  0
 25 27  1  0
 24 25  1  1
 26 25  2  0
M  END
$$$$
