PYP.pdb
     RDKit          3D

 27 29  0  0  1  0  0  0  0  0999 V2000
   22.7664  -19.7331  -13.8085 N   0  0  0  0  0  0  0  0  0  0  0  0
   21.7540  -19.2637  -14.7400 C   0  0  0  0  0  0  0  0  0  0  0  0
   22.2324  -17.9579  -15.2918 C   0  0  0  0  0  0  0  0  0  0  0  0
   23.5355  -17.7052  -14.5341 C   0  0  0  0  0  0  0  0  0  0  0  0
   23.9968  -19.1164  -14.2682 C   0  0  1  0  0  0  0  0  0  0  0  0
   25.0868  -19.2223  -13.2983 C   0  0  0  0  0  0  0  0  0  0  0  0
   26.2691  -19.0038  -13.6338 O   0  0  0  0  0  0  0  0  0  0  0  0
   28.4891  -19.3889   -4.9567 O   0  0  0  0  0  0  0  0  0  0  0  0
   27.7113  -19.4447   -6.1101 C   0  0  0  0  0  0  0  0  0  0  0  0
   27.4143  -18.2730   -6.7758 C   0  0  0  0  0  0  0  0  0  0  0  0
   26.6432  -18.2979   -7.9256 C   0  0  0  0  0  0  0  0  0  0  0  0
   26.1439  -19.4668   -8.4526 C   0  0  0  0  0  0  0  0  0  0  0  0
   25.2904  -19.4766   -9.6359 C   0  0  0  0  0  0  0  0  0  0  0  0
   25.9273  -19.6811  -10.9669 C   0  0  2  0  0  0  0  0  0  0  0  0
   24.8102  -19.5760  -11.9609 N   0  0  0  0  0  0  0  0  0  0  0  0
   26.5085  -21.0170  -11.1096 C   0  0  0  0  0  0  0  0  0  0  0  0
   25.7078  -21.9561  -11.4725 O   0  0  0  0  0  0  0  0  0  0  0  0
   26.4580  -20.6422   -7.7599 C   0  0  0  0  0  0  0  0  0  0  0  0
   27.2248  -20.6284   -6.6148 C   0  0  0  0  0  0  0  0  0  0  0  0
   27.8699  -21.3525  -10.8923 N   0  0  0  0  0  0  0  0  0  0  0  0
   28.9613  -20.5108  -10.4505 C   0  0  0  0  0  0  0  0  0  0  0  0
   30.1793  -21.0735  -11.2173 C   0  0  0  0  0  0  0  0  0  0  0  0
   29.9126  -22.5586  -11.0042 C   0  0  0  0  0  0  0  0  0  0  0  0
   28.4294  -22.6815  -11.1496 C   0  0  1  0  0  0  0  0  0  0  0  0
   27.8029  -23.6451  -10.2333 C   0  0  0  0  0  0  0  0  0  0  0  0
   27.0503  -23.2514   -9.3251 O   0  0  0  0  0  0  0  0  0  0  0  0
   28.0470  -25.0021  -10.3752 O   0  0  0  0  0  0  0  0  0  0  0  0
  1  2  1  0
  2  3  1  0
  4  3  1  0
  5  6  1  1
  5  4  1  0
  5  1  1  0
  6  7  2  0
  8  9  1  0
  9 19  2  0
 10  9  1  0
 10 11  2  0
 11 12  1  0
 12 18  2  0
 12 13  1  0
 14 13  1  1
 14 15  1  0
 14 16  1  0
 15  6  1  0
 16 20  1  0
 17 16  2  0
 19 18  1  0
 20 21  1  0
 20 24  1  0
 21 22  1  0
 22 23  1  0
 24 23  1  0
 25 27  1  0
 24 25  1  1
 26 25  2  0
M  END
$$$$
