PYP.pdb
     RDKit          3D

 27 29  0  0  1  0  0  0  0  0999 V2000
   26.7563  -20.5903  -13.8802 N   0  0  0  0  0  0  0  0  0  0  0  0
   27.5468  -21.1130  -14.9825 C   0  0  0  0  0  0  0  0  0  0  0  0
   28.9574  -21.2309  -14.4980 C   0  0  0  0  0  0  0  0  0  0  0  0
   28.8987  -20.6569  -13.0826 C   0  0  0  0  0  0  0  0  0  0  0  0
   27.4818  -20.9931  -12.6898 C   0  0  1  0  0  0  0  0  0  0  0  0
   27.0147  -20.3176  -11.4793 C   0  0  0  0  0  0  0  0  0  0  0  0
   26.7208  -19.1044  -11.4930 O   0  0  0  0  0  0  0  0  0  0  0  0
   20.6365  -19.4596  -11.9200 O   0  0  0  0  0  0  0  0  0  0  0  0
   21.7252  -19.8722  -11.1565 C   0  0  0  0  0  0  0  0  0  0  0  0
   22.0009  -19.2177   -9.9733 C   0  0  0  0  0  0  0  0  0  0  0  0
   23.0769  -19.6063   -9.1933 C   0  0  0  0  0  0  0  0  0  0  0  0
   23.9089  -20.6427   -9.5496 C   0  0  0  0  0  0  0  0  0  0  0  0
   25.0697  -21.0111   -8.7460 C   0  0  0  0  0  0  0  0  0  0  0  0
   26.3734  -20.3541   -9.0421 C   0  0  2  0  0  0  0  0  0  0  0  0
   26.8906  -21.0372  -10.2722 N   0  0  0  0  0  0  0  0  0  0  0  0
   27.3605  -20.5667   -7.9823 C   0  0  0  0  0  0  0  0  0  0  0  0
   27.9766  -21.6960   -7.9892 O   0  0  0  0  0  0  0  0  0  0  0  0
   23.6097  -21.2910  -10.7539 C   0  0  0  0  0  0  0  0  0  0  0  0
   22.5411  -20.9123  -11.5374 C   0  0  0  0  0  0  0  0  0  0  0  0
   27.6952  -19.6341   -6.9669 N   0  0  0  0  0  0  0  0  0  0  0  0
   27.2963  -18.2498   -6.8270 C   0  0  0  0  0  0  0  0  0  0  0  0
   28.5385  -17.5823   -6.1950 C   0  0  0  0  0  0  0  0  0  0  0  0
   28.8545  -18.6423   -5.1469 C   0  0  0  0  0  0  0  0  0  0  0  0
   28.6006  -19.9345   -5.8552 C   0  0  1  0  0  0  0  0  0  0  0  0
   27.9944  -20.9810   -5.0198 C   0  0  0  0  0  0  0  0  0  0  0  0
   26.8164  -21.3320   -5.2077 O   0  0  0  0  0  0  0  0  0  0  0  0
   28.7329  -21.5852   -4.0145 O   0  0  0  0  0  0  0  0  0  0  0  0
  1  2  1  0
  2  3  1  0
  4  3  1  0
  5  6  1  1
  5  4  1  0
  5  1  1  0
  6  7  2  0
  8  9  1  0
  9 19  2  0
 10  9  1  0
 10 11  2  0
 11 12  1  0
 12 18  2  0
 12 13  1  0
 14 13  1  1
 14 15  1  0
 14 16  1  0
 15  6  1  0
 16 20  1  0
 17 16  2  0
 19 18  1  0
 20 21  1  0
 20 24  1  0
 21 22  1  0
 22 23  1  0
 24 23  1  0
 25 27  1  0
 24 25  1  1
 26 25  2  0
M  END
$$$$
