PYP.pdb
     RDKit          3D

 27 29  0  0  1  0  0  0  0  0999 V2000
   28.1711  -21.4313  -13.0688 N   0  0  0  0  0  0  0  0  0  0  0  0
   28.3644  -21.6292  -14.4959 C   0  0  0  0  0  0  0  0  0  0  0  0
   27.6182  -20.5392  -15.1985 C   0  0  0  0  0  0  0  0  0  0  0  0
   26.9345  -19.7824  -14.0600 C   0  0  0  0  0  0  0  0  0  0  0  0
   27.9086  -20.0109  -12.9313 C   0  0  1  0  0  0  0  0  0  0  0  0
   27.3964  -19.6491  -11.6097 C   0  0  0  0  0  0  0  0  0  0  0  0
   26.9786  -18.4963  -11.3758 O   0  0  0  0  0  0  0  0  0  0  0  0
   20.9546  -20.2268  -12.5209 O   0  0  0  0  0  0  0  0  0  0  0  0
   22.0656  -20.4455  -11.7108 C   0  0  0  0  0  0  0  0  0  0  0  0
   22.9392  -21.4644  -12.0316 C   0  0  0  0  0  0  0  0  0  0  0  0
   24.0526  -21.7049  -11.2444 C   0  0  0  0  0  0  0  0  0  0  0  0
   24.3395  -20.9568  -10.1258 C   0  0  0  0  0  0  0  0  0  0  0  0
   25.4877  -21.2509   -9.2748 C   0  0  0  0  0  0  0  0  0  0  0  0
   26.6446  -20.3129   -9.2974 C   0  0  2  0  0  0  0  0  0  0  0  0
   27.3693  -20.6087  -10.5759 N   0  0  0  0  0  0  0  0  0  0  0  0
   27.5841  -20.5569   -8.2017 C   0  0  0  0  0  0  0  0  0  0  0  0
   28.2261  -21.6712   -8.2327 O   0  0  0  0  0  0  0  0  0  0  0  0
   23.4389  -19.9293   -9.8202 C   0  0  0  0  0  0  0  0  0  0  0  0
   22.3279  -19.6815  -10.5972 C   0  0  0  0  0  0  0  0  0  0  0  0
   27.8476  -19.6687   -7.1271 N   0  0  0  0  0  0  0  0  0  0  0  0
   27.4130  -18.3006   -6.9419 C   0  0  0  0  0  0  0  0  0  0  0  0
   28.6074  -17.6415   -6.2161 C   0  0  0  0  0  0  0  0  0  0  0  0
   28.8929  -18.7452   -5.2050 C   0  0  0  0  0  0  0  0  0  0  0  0
   28.7023  -20.0059   -5.9862 C   0  0  1  0  0  0  0  0  0  0  0  0
   28.0773  -21.1031   -5.2338 C   0  0  0  0  0  0  0  0  0  0  0  0
   28.7137  -21.7010   -4.3485 O   0  0  0  0  0  0  0  0  0  0  0  0
   26.7716  -21.4799   -5.5062 O   0  0  0  0  0  0  0  0  0  0  0  0
  1  2  1  0
  2  3  1  0
  4  3  1  0
  5  6  1  1
  5  4  1  0
  5  1  1  0
  6  7  2  0
  8  9  1  0
  9 19  2  0
 10  9  1  0
 10 11  2  0
 11 12  1  0
 12 18  2  0
 12 13  1  0
 14 13  1  1
 14 15  1  0
 14 16  1  0
 15  6  1  0
 16 20  1  0
 17 16  2  0
 19 18  1  0
 20 21  1  0
 20 24  1  0
 21 22  1  0
 22 23  1  0
 24 23  1  0
 25 27  1  0
 24 25  1  1
 26 25  2  0
M  END
$$$$
