PYP.pdb
     RDKit          3D

 27 29  0  0  1  0  0  0  0  0999 V2000
   28.1558  -21.4774  -12.9873 N   0  0  0  0  0  0  0  0  0  0  0  0
   28.1577  -22.1618  -14.2697 C   0  0  0  0  0  0  0  0  0  0  0  0
   26.9833  -21.6526  -15.0443 C   0  0  0  0  0  0  0  0  0  0  0  0
   26.2915  -20.7058  -14.0639 C   0  0  0  0  0  0  0  0  0  0  0  0
   27.4633  -20.2282  -13.2431 C   0  0  1  0  0  0  0  0  0  0  0  0
   27.0931  -19.5182  -12.0189 C   0  0  0  0  0  0  0  0  0  0  0  0
   26.4731  -18.4358  -12.0662 O   0  0  0  0  0  0  0  0  0  0  0  0
   20.5008  -20.5941   -7.0305 O   0  0  0  0  0  0  0  0  0  0  0  0
   21.7059  -20.6658   -7.7242 C   0  0  0  0  0  0  0  0  0  0  0  0
   21.8336  -19.9860   -8.9184 C   0  0  0  0  0  0  0  0  0  0  0  0
   23.0202  -20.0389   -9.6299 C   0  0  0  0  0  0  0  0  0  0  0  0
   24.1099  -20.7563   -9.1928 C   0  0  0  0  0  0  0  0  0  0  0  0
   25.3382  -20.8466   -9.9752 C   0  0  0  0  0  0  0  0  0  0  0  0
   26.4747  -19.9537   -9.6146 C   0  0  2  0  0  0  0  0  0  0  0  0
   27.4365  -20.0547  -10.7601 N   0  0  0  0  0  0  0  0  0  0  0  0
   27.1821  -20.4052   -8.4153 C   0  0  0  0  0  0  0  0  0  0  0  0
   27.7120  -21.5762   -8.4674 O   0  0  0  0  0  0  0  0  0  0  0  0
   23.9565  -21.4378   -7.9795 C   0  0  0  0  0  0  0  0  0  0  0  0
   22.7799  -21.3916   -7.2635 C   0  0  0  0  0  0  0  0  0  0  0  0
   27.3370  -19.6592   -7.2184 N   0  0  0  0  0  0  0  0  0  0  0  0
   26.7818  -18.3704   -6.8640 C   0  0  0  0  0  0  0  0  0  0  0  0
   27.8936  -17.7263   -6.0056 C   0  0  0  0  0  0  0  0  0  0  0  0
   28.2425  -18.9350   -5.1457 C   0  0  0  0  0  0  0  0  0  0  0  0
   28.1834  -20.0841   -6.1008 C   0  0  1  0  0  0  0  0  0  0  0  0
   27.6325  -21.3231   -5.5335 C   0  0  0  0  0  0  0  0  0  0  0  0
   26.5224  -21.7446   -5.9025 O   0  0  0  0  0  0  0  0  0  0  0  0
   28.3479  -22.0321   -4.5812 O   0  0  0  0  0  0  0  0  0  0  0  0
  1  2  1  0
  2  3  1  0
  4  3  1  0
  5  6  1  1
  5  4  1  0
  5  1  1  0
  6  7  2  0
  8  9  1  0
  9 19  2  0
 10  9  1  0
 10 11  2  0
 11 12  1  0
 12 18  2  0
 12 13  1  0
 14 13  1  6
 14 15  1  0
 14 16  1  0
 15  6  1  0
 16 20  1  0
 17 16  2  0
 19 18  1  0
 20 21  1  0
 20 24  1  0
 21 22  1  0
 22 23  1  0
 24 23  1  0
 25 27  1  0
 24 25  1  1
 26 25  2  0
M  END
$$$$
