PYP.pdb
     RDKit          3D

 27 29  0  0  1  0  0  0  0  0999 V2000
   27.3405  -20.3499  -17.4793 N   0  0  0  0  0  0  0  0  0  0  0  0
   28.3319  -20.2913  -18.5408 C   0  0  0  0  0  0  0  0  0  0  0  0
   28.7689  -18.8653  -18.6593 C   0  0  0  0  0  0  0  0  0  0  0  0
   27.8860  -18.1353  -17.6473 C   0  0  0  0  0  0  0  0  0  0  0  0
   27.6556  -19.2202  -16.6251 C   0  0  1  0  0  0  0  0  0  0  0  0
   26.5998  -18.9228  -15.6572 C   0  0  0  0  0  0  0  0  0  0  0  0
   26.6792  -17.9306  -14.9039 O   0  0  0  0  0  0  0  0  0  0  0  0
   23.0246  -14.4880  -18.6659 O   0  0  0  0  0  0  0  0  0  0  0  0
   23.0657  -15.6669  -17.9263 C   0  0  0  0  0  0  0  0  0  0  0  0
   22.4159  -15.7182  -16.7099 C   0  0  0  0  0  0  0  0  0  0  0  0
   22.4395  -16.8772  -15.9527 C   0  0  0  0  0  0  0  0  0  0  0  0
   23.0975  -18.0131  -16.3647 C   0  0  0  0  0  0  0  0  0  0  0  0
   23.1587  -19.2125  -15.5361 C   0  0  0  0  0  0  0  0  0  0  0  0
   24.3400  -19.4004  -14.6483 C   0  0  2  0  0  0  0  0  0  0  0  0
   25.4700  -19.7627  -15.5643 N   0  0  0  0  0  0  0  0  0  0  0  0
   24.1665  -20.5143  -13.7145 C   0  0  0  0  0  0  0  0  0  0  0  0
   24.0462  -21.6853  -14.2331 O   0  0  0  0  0  0  0  0  0  0  0  0
   23.7495  -17.9370  -17.6014 C   0  0  0  0  0  0  0  0  0  0  0  0
   23.7320  -16.7885  -18.3629 C   0  0  0  0  0  0  0  0  0  0  0  0
   24.1314  -20.4078  -12.3002 N   0  0  0  0  0  0  0  0  0  0  0  0
   24.4421  -19.2716  -11.4591 C   0  0  0  0  0  0  0  0  0  0  0  0
   25.0770  -19.9171  -10.2068 C   0  0  0  0  0  0  0  0  0  0  0  0
   24.0875  -21.0604  -10.0171 C   0  0  0  0  0  0  0  0  0  0  0  0
   23.8030  -21.5239  -11.4100 C   0  0  1  0  0  0  0  0  0  0  0  0
   22.4094  -21.9259  -11.6482 C   0  0  0  0  0  0  0  0  0  0  0  0
   21.6562  -21.2098  -12.3310 O   0  0  0  0  0  0  0  0  0  0  0  0
   21.9237  -23.1083  -11.1122 O   0  0  0  0  0  0  0  0  0  0  0  0
  1  2  1  0
  2  3  1  0
  4  3  1  0
  5  6  1  1
  5  4  1  0
  5  1  1  0
  6  7  2  0
  8  9  1  0
  9 19  2  0
 10  9  1  0
 10 11  2  0
 11 12  1  0
 12 18  2  0
 12 13  1  0
 14 13  1  6
 14 15  1  0
 14 16  1  0
 15  6  1  0
 16 20  1  0
 17 16  2  0
 19 18  1  0
 20 21  1  0
 20 24  1  0
 21 22  1  0
 22 23  1  0
 24 23  1  0
 25 27  1  0
 24 25  1  1
 26 25  2  0
M  END
$$$$
