PYP.pdb
     RDKit          3D

 27 29  0  0  1  0  0  0  0  0999 V2000
   27.3039  -17.4095  -17.8617 N   0  0  0  0  0  0  0  0  0  0  0  0
   27.9866  -16.4859  -18.7527 C   0  0  0  0  0  0  0  0  0  0  0  0
   29.4536  -16.7497  -18.6232 C   0  0  0  0  0  0  0  0  0  0  0  0
   29.5297  -17.8226  -17.5373 C   0  0  0  0  0  0  0  0  0  0  0  0
   28.2139  -18.5326  -17.7358 C   0  0  1  0  0  0  0  0  0  0  0  0
   27.8505  -19.4445  -16.6512 C   0  0  0  0  0  0  0  0  0  0  0  0
   28.5014  -20.4895  -16.4449 O   0  0  0  0  0  0  0  0  0  0  0  0
   24.7393  -21.4107   -8.5541 O   0  0  0  0  0  0  0  0  0  0  0  0
   25.2009  -20.8609   -9.7470 C   0  0  0  0  0  0  0  0  0  0  0  0
   24.3258  -20.1449  -10.5382 C   0  0  0  0  0  0  0  0  0  0  0  0
   24.7569  -19.5865  -11.7297 C   0  0  0  0  0  0  0  0  0  0  0  0
   26.0518  -19.7139  -12.1770 C   0  0  0  0  0  0  0  0  0  0  0  0
   26.4828  -19.1648  -13.4583 C   0  0  0  0  0  0  0  0  0  0  0  0
   26.4256  -20.0429  -14.6602 C   0  0  2  0  0  0  0  0  0  0  0  0
   26.7501  -19.1493  -15.8193 N   0  0  0  0  0  0  0  0  0  0  0  0
   25.0860  -20.5848  -14.8939 C   0  0  0  0  0  0  0  0  0  0  0  0
   24.2274  -19.7860  -15.4227 O   0  0  0  0  0  0  0  0  0  0  0  0
   26.9209  -20.4447  -11.3579 C   0  0  0  0  0  0  0  0  0  0  0  0
   26.5021  -21.0043  -10.1702 C   0  0  0  0  0  0  0  0  0  0  0  0
   24.6673  -21.9075  -14.5971 N   0  0  0  0  0  0  0  0  0  0  0  0
   25.4107  -22.9880  -13.9849 C   0  0  0  0  0  0  0  0  0  0  0  0
   24.8656  -24.2457  -14.6982 C   0  0  0  0  0  0  0  0  0  0  0  0
   23.3814  -23.9033  -14.6549 C   0  0  0  0  0  0  0  0  0  0  0  0
   23.3433  -22.4350  -14.9356 C   0  0  1  0  0  0  0  0  0  0  0  0
   22.3285  -21.6929  -14.1740 C   0  0  0  0  0  0  0  0  0  0  0  0
   21.1789  -21.5541  -14.6273 O   0  0  0  0  0  0  0  0  0  0  0  0
   22.6463  -21.1413  -12.9428 O   0  0  0  0  0  0  0  0  0  0  0  0
  1  2  1  0
  2  3  1  0
  4  3  1  0
  5  6  1  1
  5  4  1  0
  5  1  1  0
  6  7  2  0
  8  9  1  0
  9 19  2  0
 10  9  1  0
 10 11  2  0
 11 12  1  0
 12 18  2  0
 12 13  1  0
 14 13  1  1
 14 15  1  0
 14 16  1  0
 15  6  1  0
 16 20  1  0
 17 16  2  0
 19 18  1  0
 20 21  1  0
 20 24  1  0
 21 22  1  0
 22 23  1  0
 24 23  1  0
 25 27  1  0
 24 25  1  1
 26 25  2  0
M  END
$$$$
