PYP.pdb
     RDKit          3D

 27 29  0  0  1  0  0  0  0  0999 V2000
   27.6160  -17.4506  -17.8154 N   0  0  0  0  0  0  0  0  0  0  0  0
   28.3056  -16.6224  -18.7909 C   0  0  0  0  0  0  0  0  0  0  0  0
   29.7250  -17.0926  -18.8455 C   0  0  0  0  0  0  0  0  0  0  0  0
   29.7837  -18.1784  -17.7713 C   0  0  0  0  0  0  0  0  0  0  0  0
   28.3660  -18.6926  -17.7984 C   0  0  1  0  0  0  0  0  0  0  0  0
   28.0160  -19.5568  -16.6712 C   0  0  0  0  0  0  0  0  0  0  0  0
   28.5361  -20.6840  -16.5397 O   0  0  0  0  0  0  0  0  0  0  0  0
   25.3726  -21.3956   -8.3760 O   0  0  0  0  0  0  0  0  0  0  0  0
   25.8233  -20.8786   -9.5876 C   0  0  0  0  0  0  0  0  0  0  0  0
   25.0631  -19.9254  -10.2341 C   0  0  0  0  0  0  0  0  0  0  0  0
   25.4865  -19.3933  -11.4403 C   0  0  0  0  0  0  0  0  0  0  0  0
   26.6614  -19.7788  -12.0437 C   0  0  0  0  0  0  0  0  0  0  0  0
   27.0731  -19.2489  -13.3393 C   0  0  0  0  0  0  0  0  0  0  0  0
   26.7089  -20.0130  -14.5650 C   0  0  2  0  0  0  0  0  0  0  0  0
   27.0778  -19.1210  -15.7120 N   0  0  0  0  0  0  0  0  0  0  0  0
   25.2702  -20.2661  -14.6596 C   0  0  0  0  0  0  0  0  0  0  0  0
   24.5421  -19.2927  -15.0806 O   0  0  0  0  0  0  0  0  0  0  0  0
   27.4152  -20.7470  -11.3695 C   0  0  0  0  0  0  0  0  0  0  0  0
   27.0030  -21.2829  -10.1686 C   0  0  0  0  0  0  0  0  0  0  0  0
   24.6241  -21.4876  -14.3380 N   0  0  0  0  0  0  0  0  0  0  0  0
   25.1961  -22.7284  -13.8605 C   0  0  0  0  0  0  0  0  0  0  0  0
   24.3087  -23.8080  -14.5198 C   0  0  0  0  0  0  0  0  0  0  0  0
   22.9492  -23.1696  -14.2622 C   0  0  0  0  0  0  0  0  0  0  0  0
   23.1858  -21.7125  -14.5009 C   0  0  1  0  0  0  0  0  0  0  0  0
   22.4598  -20.8176  -13.5884 C   0  0  0  0  0  0  0  0  0  0  0  0
   21.2380  -20.6331  -13.7283 O   0  0  0  0  0  0  0  0  0  0  0  0
   23.1331  -20.1715  -12.5636 O   0  0  0  0  0  0  0  0  0  0  0  0
  1  2  1  0
  2  3  1  0
  4  3  1  0
  5  6  1  1
  5  4  1  0
  5  1  1  0
  6  7  2  0
  8  9  1  0
  9 19  2  0
 10  9  1  0
 10 11  2  0
 11 12  1  0
 12 18  2  0
 12 13  1  0
 14 13  1  1
 14 15  1  0
 14 16  1  0
 15  6  1  0
 16 20  1  0
 17 16  2  0
 19 18  1  0
 20 21  1  0
 20 24  1  0
 21 22  1  0
 22 23  1  0
 24 23  1  0
 25 27  1  0
 24 25  1  1
 26 25  2  0
M  END
$$$$
