EEV.pdb
     RDKit          3D

 26 25  0  0  1  0  0  0  0  0999 V2000
   17.0362  -11.6784  -17.3270 N   0  0  0  0  0  0  0  0  0  0  0  0
   17.6785  -11.3466  -16.0674 C   0  0  1  0  0  0  0  0  0  0  0  0
   19.0244  -12.0484  -16.0365 C   0  0  0  0  0  0  0  0  0  0  0  0
   19.2246  -12.9415  -17.2179 C   0  0  0  0  0  0  0  0  0  0  0  0
   20.5123  -13.6595  -17.1865 C   0  0  0  0  0  0  0  0  0  0  0  0
   21.4401  -13.2980  -17.9436 O   0  0  0  0  0  0  0  0  0  0  0  0
   17.8428   -9.8725  -16.0190 C   0  0  0  0  0  0  0  0  0  0  0  0
   17.9769   -9.2597  -17.1054 O   0  0  0  0  0  0  0  0  0  0  0  0
   20.7075  -14.7228  -16.3351 O   0  0  0  0  0  0  0  0  0  0  0  0
   17.8579   -9.1206  -14.8344 N   0  0  0  0  0  0  0  0  0  0  0  0
   18.0136   -7.6805  -14.8798 C   0  0  1  0  0  0  0  0  0  0  0  0
   16.8672   -6.9518  -14.3056 C   0  0  0  0  0  0  0  0  0  0  0  0
   15.6080   -7.2007  -15.0808 C   0  0  0  0  0  0  0  0  0  0  0  0
   14.4022   -6.7955  -14.2592 C   0  0  0  0  0  0  0  0  0  0  0  0
   14.2931   -5.6066  -13.9020 O   0  0  0  0  0  0  0  0  0  0  0  0
   19.2382   -7.3755  -14.0923 C   0  0  0  0  0  0  0  0  0  0  0  0
   19.4923   -7.8030  -12.9448 O   0  0  0  0  0  0  0  0  0  0  0  0
   13.4420   -7.7161  -13.9104 O   0  0  0  0  0  0  0  0  0  0  0  0
   22.8559   -6.0233  -15.9685 C   0  0  0  0  0  0  0  0  0  0  0  0
   22.6722   -6.6641  -14.6306 C   0  0  2  0  0  0  0  0  0  0  0  0
   22.6491   -8.1699  -14.7718 C   0  0  0  0  0  0  0  0  0  0  0  0
   21.4481   -6.1580  -13.8899 C   0  0  2  0  0  0  0  0  0  0  0  0
   20.2792   -6.5184  -14.6212 N   0  0  0  0  0  0  0  0  0  0  0  0
   21.5298   -4.7467  -13.5179 C   0  0  0  0  0  0  0  0  0  0  0  0
   22.4392   -4.3595  -12.5436 O   0  0  0  0  0  0  0  0  0  0  0  0
   20.8226   -3.8247  -14.0228 O   0  0  0  0  0  0  0  0  0  0  0  0
  2  7  1  0
  2  1  1  6
  3  2  1  0
  4  5  1  0
  4  3  1  0
  5  6  2  0
  7 10  1  0
  8  7  2  0
  9  5  1  0
 10 11  1  0
 11 12  1  1
 12 13  1  0
 13 14  1  0
 14 15  2  0
 14 18  1  0
 16 17  2  0
 16 11  1  0
 20 19  1  6
 20 22  1  0
 21 20  1  0
 22 24  1  0
 22 23  1  6
 23 16  1  0
 24 25  1  0
 26 24  2  0
M  END
$$$$
