EEV.pdb
     RDKit          3D

 26 25  0  0  1  0  0  0  0  0999 V2000
   16.1227  -11.5326  -18.3300 N   0  0  0  0  0  0  0  0  0  0  0  0
   16.4897  -11.0685  -17.0037 C   0  0  1  0  0  0  0  0  0  0  0  0
   17.1415  -12.2285  -16.2726 C   0  0  0  0  0  0  0  0  0  0  0  0
   16.1469  -13.2583  -15.8440 C   0  0  0  0  0  0  0  0  0  0  0  0
   15.5829  -12.9941  -14.5073 C   0  0  0  0  0  0  0  0  0  0  0  0
   16.0551  -12.0699  -13.8089 O   0  0  0  0  0  0  0  0  0  0  0  0
   17.4380   -9.9387  -17.1672 C   0  0  0  0  0  0  0  0  0  0  0  0
   18.3055  -10.0248  -18.0692 O   0  0  0  0  0  0  0  0  0  0  0  0
   14.5433  -13.7508  -14.0171 O   0  0  0  0  0  0  0  0  0  0  0  0
   17.4256   -8.7799  -16.3759 N   0  0  0  0  0  0  0  0  0  0  0  0
   18.3651   -7.7062  -16.6303 C   0  0  1  0  0  0  0  0  0  0  0  0
   17.7204   -6.3862  -16.7603 C   0  0  0  0  0  0  0  0  0  0  0  0
   16.8637   -6.0685  -15.5712 C   0  0  0  0  0  0  0  0  0  0  0  0
   16.6046   -4.5783  -15.4997 C   0  0  0  0  0  0  0  0  0  0  0  0
   15.7145   -4.0899  -16.2223 O   0  0  0  0  0  0  0  0  0  0  0  0
   19.2943   -7.6907  -15.4688 C   0  0  0  0  0  0  0  0  0  0  0  0
   18.9823   -7.9333  -14.2822 O   0  0  0  0  0  0  0  0  0  0  0  0
   17.3333   -3.7732  -14.6558 O   0  0  0  0  0  0  0  0  0  0  0  0
   22.2972   -9.7260  -15.2263 C   0  0  0  0  0  0  0  0  0  0  0  0
   22.7691   -8.3445  -14.9058 C   0  0  2  0  0  0  0  0  0  0  0  0
   23.8077   -8.3894  -13.8070 C   0  0  0  0  0  0  0  0  0  0  0  0
   21.6383   -7.3929  -14.5610 C   0  0  2  0  0  0  0  0  0  0  0  0
   20.6991   -7.3780  -15.6328 N   0  0  0  0  0  0  0  0  0  0  0  0
   22.0940   -6.0743  -14.1246 C   0  0  0  0  0  0  0  0  0  0  0  0
   22.5925   -5.9270  -12.8377 O   0  0  0  0  0  0  0  0  0  0  0  0
   22.0716   -5.0292  -14.8402 O   0  0  0  0  0  0  0  0  0  0  0  0
  2  7  1  0
  2  1  1  6
  3  2  1  0
  4  5  1  0
  4  3  1  0
  5  6  2  0
  7 10  1  0
  8  7  2  0
  9  5  1  0
 10 11  1  0
 11 12  1  1
 12 13  1  0
 13 14  1  0
 14 15  2  0
 14 18  1  0
 16 17  2  0
 16 11  1  0
 20 19  1  1
 20 22  1  0
 21 20  1  0
 22 24  1  0
 22 23  1  6
 23 16  1  0
 24 25  1  0
 26 24  2  0
M  END
$$$$
