EEV.pdb
     RDKit          3D

 26 25  0  0  1  0  0  0  0  0999 V2000
   27.0746  -20.7812  -19.1066 N   0  0  0  0  0  0  0  0  0  0  0  0
   26.3189  -21.7624  -18.3481 C   0  0  1  0  0  0  0  0  0  0  0  0
   27.2720  -22.8777  -17.9573 C   0  0  0  0  0  0  0  0  0  0  0  0
   28.5682  -22.3553  -17.4279 C   0  0  0  0  0  0  0  0  0  0  0  0
   29.7291  -22.7613  -18.2416 C   0  0  0  0  0  0  0  0  0  0  0  0
   29.5579  -23.4974  -19.2384 O   0  0  0  0  0  0  0  0  0  0  0  0
   25.7718  -21.0815  -17.1483 C   0  0  0  0  0  0  0  0  0  0  0  0
   26.4101  -20.1072  -16.6826 O   0  0  0  0  0  0  0  0  0  0  0  0
   30.9993  -22.3414  -17.9193 O   0  0  0  0  0  0  0  0  0  0  0  0
   24.5852  -21.4592  -16.5015 N   0  0  0  0  0  0  0  0  0  0  0  0
   24.0894  -20.6983  -15.3722 C   0  0  1  0  0  0  0  0  0  0  0  0
   22.6171  -20.6506  -15.3026 C   0  0  0  0  0  0  0  0  0  0  0  0
   22.1435  -19.7900  -14.1696 C   0  0  0  0  0  0  0  0  0  0  0  0
   20.6349  -19.8590  -14.0589 C   0  0  0  0  0  0  0  0  0  0  0  0
   20.0135  -20.6295  -14.8159 O   0  0  0  0  0  0  0  0  0  0  0  0
   24.6204  -21.3738  -14.1579 C   0  0  0  0  0  0  0  0  0  0  0  0
   24.5100  -22.5913  -13.8938 O   0  0  0  0  0  0  0  0  0  0  0  0
   19.9567  -19.0892  -13.1430 O   0  0  0  0  0  0  0  0  0  0  0  0
   28.0856  -20.2465  -12.4824 C   0  0  0  0  0  0  0  0  0  0  0  0
   27.0234  -20.4249  -11.4460 C   0  0  2  0  0  0  0  0  0  0  0  0
   27.6141  -21.0295  -10.1917 C   0  0  0  0  0  0  0  0  0  0  0  0
   25.8350  -21.2281  -11.9420 C   0  0  2  0  0  0  0  0  0  0  0  0
   25.3402  -20.6361  -13.1401 N   0  0  0  0  0  0  0  0  0  0  0  0
   24.8243  -21.4747  -10.9151 C   0  0  0  0  0  0  0  0  0  0  0  0
   23.6992  -20.6631  -10.8702 O   0  0  0  0  0  0  0  0  0  0  0  0
   24.8908  -22.3896  -10.0414 O   0  0  0  0  0  0  0  0  0  0  0  0
  2  7  1  0
  2  1  1  6
  3  2  1  0
  4  5  1  0
  4  3  1  0
  5  6  2  0
  7 10  1  0
  8  7  2  0
  9  5  1  0
 10 11  1  0
 11 12  1  1
 12 13  1  0
 13 14  1  0
 14 15  2  0
 14 18  1  0
 16 17  2  0
 16 11  1  0
 20 19  1  6
 20 22  1  0
 21 20  1  0
 22 24  1  0
 22 23  1  6
 23 16  1  0
 24 25  1  0
 26 24  2  0
M  END
$$$$
