EEV.pdb
     RDKit          3D

 26 25  0  0  1  0  0  0  0  0999 V2000
   28.1463  -21.9585  -16.8663 N   0  0  0  0  0  0  0  0  0  0  0  0
   27.6066  -20.7505  -16.2673 C   0  0  1  0  0  0  0  0  0  0  0  0
   26.9776  -19.9265  -17.3765 C   0  0  0  0  0  0  0  0  0  0  0  0
   28.0000  -19.3379  -18.2940 C   0  0  0  0  0  0  0  0  0  0  0  0
   28.8307  -18.3062  -17.6459 C   0  0  0  0  0  0  0  0  0  0  0  0
   28.4522  -17.7947  -16.5689 O   0  0  0  0  0  0  0  0  0  0  0  0
   26.5926  -21.1586  -15.2635 C   0  0  0  0  0  0  0  0  0  0  0  0
   25.7859  -22.0664  -15.5779 O   0  0  0  0  0  0  0  0  0  0  0  0
   30.0176  -17.8978  -18.2099 O   0  0  0  0  0  0  0  0  0  0  0  0
   26.4791  -20.5928  -13.9845 N   0  0  0  0  0  0  0  0  0  0  0  0
   25.4799  -21.0765  -13.0529 C   0  0  1  0  0  0  0  0  0  0  0  0
   25.8217  -20.8127  -11.6427 C   0  0  0  0  0  0  0  0  0  0  0  0
   24.7752  -21.3454  -10.7100 C   0  0  0  0  0  0  0  0  0  0  0  0
   25.1860  -21.1016   -9.2730 C   0  0  0  0  0  0  0  0  0  0  0  0
   24.3043  -20.8244   -8.4371 O   0  0  0  0  0  0  0  0  0  0  0  0
   24.2196  -20.3656  -13.3977 C   0  0  0  0  0  0  0  0  0  0  0  0
   24.0834  -19.1257  -13.4889 O   0  0  0  0  0  0  0  0  0  0  0  0
   26.5045  -21.1827   -8.8905 O   0  0  0  0  0  0  0  0  0  0  0  0
   20.1422  -20.1052  -15.8779 C   0  0  0  0  0  0  0  0  0  0  0  0
   21.3732  -20.8122  -15.4098 C   0  0  2  0  0  0  0  0  0  0  0  0
   21.2150  -22.3064  -15.5838 C   0  0  0  0  0  0  0  0  0  0  0  0
   21.7593  -20.4578  -13.9856 C   0  0  2  0  0  0  0  0  0  0  0  0
   22.9953  -21.0915  -13.6667 N   0  0  0  0  0  0  0  0  0  0  0  0
   20.6879  -20.6771  -13.0157 C   0  0  0  0  0  0  0  0  0  0  0  0
   19.6688  -19.7401  -12.9159 O   0  0  0  0  0  0  0  0  0  0  0  0
   20.6096  -21.6754  -12.2396 O   0  0  0  0  0  0  0  0  0  0  0  0
  2  7  1  0
  2  1  1  6
  3  2  1  0
  4  5  1  0
  4  3  1  0
  5  6  2  0
  7 10  1  0
  8  7  2  0
  9  5  1  0
 10 11  1  0
 11 12  1  1
 12 13  1  0
 13 14  1  0
 14 15  2  0
 14 18  1  0
 16 17  2  0
 16 11  1  0
 20 19  1  1
 20 22  1  0
 21 20  1  0
 22 24  1  0
 22 23  1  1
 23 16  1  0
 24 25  1  0
 26 24  2  0
M  END
$$$$
