EEV.pdb
     RDKit          3D

 26 25  0  0  1  0  0  0  0  0999 V2000
   18.1511  -11.9220  -15.1738 N   0  0  0  0  0  0  0  0  0  0  0  0
   17.4982  -10.6253  -15.2151 C   0  0  1  0  0  0  0  0  0  0  0  0
   15.9989  -10.8636  -15.2292 C   0  0  0  0  0  0  0  0  0  0  0  0
   15.5243  -11.5584  -13.9941 C   0  0  0  0  0  0  0  0  0  0  0  0
   14.0780  -11.8455  -14.0135 C   0  0  0  0  0  0  0  0  0  0  0  0
   13.2631  -10.9317  -13.7569 O   0  0  0  0  0  0  0  0  0  0  0  0
   17.9090   -9.8743  -14.0028 C   0  0  0  0  0  0  0  0  0  0  0  0
   18.2399  -10.5322  -12.9873 O   0  0  0  0  0  0  0  0  0  0  0  0
   13.6119  -13.1057  -14.3101 O   0  0  0  0  0  0  0  0  0  0  0  0
   17.9504   -8.4741  -13.9208 N   0  0  0  0  0  0  0  0  0  0  0  0
   18.5268   -7.8225  -12.7617 C   0  0  1  0  0  0  0  0  0  0  0  0
   19.5535   -6.8214  -13.1063 C   0  0  0  0  0  0  0  0  0  0  0  0
   20.2258   -6.2736  -11.8829 C   0  0  0  0  0  0  0  0  0  0  0  0
   21.2656   -5.2456  -12.2766 C   0  0  0  0  0  0  0  0  0  0  0  0
   20.9671   -4.0373  -12.2132 O   0  0  0  0  0  0  0  0  0  0  0  0
   17.3969   -7.1523  -12.0640 C   0  0  0  0  0  0  0  0  0  0  0  0
   16.4949   -6.4827  -12.6137 O   0  0  0  0  0  0  0  0  0  0  0  0
   22.5172   -5.6304  -12.6969 O   0  0  0  0  0  0  0  0  0  0  0  0
   14.9666   -8.7104   -9.7458 C   0  0  0  0  0  0  0  0  0  0  0  0
   15.5090   -7.5314   -9.0044 C   0  0  2  0  0  0  0  0  0  0  0  0
   14.4075   -6.8591   -8.2153 C   0  0  0  0  0  0  0  0  0  0  0  0
   16.2306   -6.5429   -9.9018 C   0  0  2  0  0  0  0  0  0  0  0  0
   17.2495   -7.2282  -10.6251 N   0  0  0  0  0  0  0  0  0  0  0  0
   16.6757   -5.3364   -9.2066 C   0  0  0  0  0  0  0  0  0  0  0  0
   15.7682   -4.3073   -8.9973 O   0  0  0  0  0  0  0  0  0  0  0  0
   17.8491   -5.1469   -8.7684 O   0  0  0  0  0  0  0  0  0  0  0  0
  2  7  1  0
  2  1  1  1
  3  2  1  0
  4  5  1  0
  4  3  1  0
  5  6  2  0
  7 10  1  0
  8  7  2  0
  9  5  1  0
 10 11  1  0
 11 12  1  6
 12 13  1  0
 13 14  1  0
 14 15  2  0
 14 18  1  0
 16 17  2  0
 16 11  1  0
 20 19  1  6
 20 22  1  0
 21 20  1  0
 22 24  1  0
 22 23  1  1
 23 16  1  0
 24 25  1  0
 26 24  2  0
M  END
$$$$
