EEV.pdb
     RDKit          3D

 26 25  0  0  1  0  0  0  0  0999 V2000
   17.7402  -11.6866  -18.2057 N   0  0  0  0  0  0  0  0  0  0  0  0
   17.9366  -10.3282  -18.6803 C   0  0  1  0  0  0  0  0  0  0  0  0
   16.7114   -9.9398  -19.4884 C   0  0  0  0  0  0  0  0  0  0  0  0
   15.6345  -10.9735  -19.4164 C   0  0  0  0  0  0  0  0  0  0  0  0
   14.4473  -10.6264  -20.2194 C   0  0  0  0  0  0  0  0  0  0  0  0
   14.4414   -9.5696  -20.8886 O   0  0  0  0  0  0  0  0  0  0  0  0
   18.0930   -9.4531  -17.4920 C   0  0  0  0  0  0  0  0  0  0  0  0
   17.3727   -9.6855  -16.4915 O   0  0  0  0  0  0  0  0  0  0  0  0
   13.3449  -11.4496  -20.2425 O   0  0  0  0  0  0  0  0  0  0  0  0
   18.9957   -8.3814  -17.4169 N   0  0  0  0  0  0  0  0  0  0  0  0
   19.0841   -7.5777  -16.2142 C   0  0  1  0  0  0  0  0  0  0  0  0
   20.4456   -7.5204  -15.6502 C   0  0  0  0  0  0  0  0  0  0  0  0
   20.8307   -8.8153  -14.9995 C   0  0  0  0  0  0  0  0  0  0  0  0
   22.2750   -8.7616  -14.5478 C   0  0  0  0  0  0  0  0  0  0  0  0
   23.0802   -8.0672  -15.1977 O   0  0  0  0  0  0  0  0  0  0  0  0
   18.6519   -6.2086  -16.6034 C   0  0  0  0  0  0  0  0  0  0  0  0
   18.8604   -5.6653  -17.7104 O   0  0  0  0  0  0  0  0  0  0  0  0
   22.6973   -9.4628  -13.4426 O   0  0  0  0  0  0  0  0  0  0  0  0
   15.4541   -4.9344  -17.1673 C   0  0  0  0  0  0  0  0  0  0  0  0
   15.9811   -4.0180  -16.1106 C   0  0  2  0  0  0  0  0  0  0  0  0
   15.4618   -2.6145  -16.3302 C   0  0  0  0  0  0  0  0  0  0  0  0
   17.4949   -4.0385  -16.0042 C   0  0  2  0  0  0  0  0  0  0  0  0
   17.9215   -5.3601  -15.6843 N   0  0  0  0  0  0  0  0  0  0  0  0
   18.0362   -2.9917  -15.1393 C   0  0  0  0  0  0  0  0  0  0  0  0
   18.5082   -1.8205  -15.7155 O   0  0  0  0  0  0  0  0  0  0  0  0
   18.1123   -3.0656  -13.8769 O   0  0  0  0  0  0  0  0  0  0  0  0
  2  7  1  0
  2  1  1  1
  3  2  1  0
  4  5  1  0
  4  3  1  0
  5  6  2  0
  7 10  1  0
  8  7  2  0
  9  5  1  0
 10 11  1  0
 11 12  1  6
 12 13  1  0
 13 14  1  0
 14 15  2  0
 14 18  1  0
 16 17  2  0
 16 11  1  0
 20 19  1  6
 20 22  1  0
 21 20  1  0
 22 24  1  0
 22 23  1  1
 23 16  1  0
 24 25  1  0
 26 24  2  0
M  END
$$$$
