EEV.pdb
     RDKit          3D

 26 25  0  0  1  0  0  0  0  0999 V2000
   18.4765  -26.2111   -9.4586 N   0  0  0  0  0  0  0  0  0  0  0  0
   18.5631  -25.1524   -8.4683 C   0  0  1  0  0  0  0  0  0  0  0  0
   17.9793  -23.8941   -9.0855 C   0  0  0  0  0  0  0  0  0  0  0  0
   18.9004  -23.2743  -10.0859 C   0  0  0  0  0  0  0  0  0  0  0  0
   18.3348  -22.0701  -10.7220 C   0  0  0  0  0  0  0  0  0  0  0  0
   17.5194  -22.1931  -11.6627 O   0  0  0  0  0  0  0  0  0  0  0  0
   17.7803  -25.5790   -7.2819 C   0  0  0  0  0  0  0  0  0  0  0  0
   16.6312  -26.0451   -7.4719 O   0  0  0  0  0  0  0  0  0  0  0  0
   18.6919  -20.8117  -10.2949 O   0  0  0  0  0  0  0  0  0  0  0  0
   18.2443  -25.4935   -5.9604 N   0  0  0  0  0  0  0  0  0  0  0  0
   17.4300  -25.9757   -4.8628 C   0  0  1  0  0  0  0  0  0  0  0  0
   18.2209  -26.3970   -3.6915 C   0  0  0  0  0  0  0  0  0  0  0  0
   17.3485  -26.9455   -2.6021 C   0  0  0  0  0  0  0  0  0  0  0  0
   18.2022  -27.4943   -1.4783 C   0  0  0  0  0  0  0  0  0  0  0  0
   19.4343  -27.3123   -1.5185 O   0  0  0  0  0  0  0  0  0  0  0  0
   16.5449  -24.8430   -4.4805 C   0  0  0  0  0  0  0  0  0  0  0  0
   16.8665  -23.6343   -4.4803 O   0  0  0  0  0  0  0  0  0  0  0  0
   17.6357  -28.1814   -0.4302 O   0  0  0  0  0  0  0  0  0  0  0  0
   12.7886  -24.6670   -5.6134 C   0  0  0  0  0  0  0  0  0  0  0  0
   12.8812  -24.3813   -4.1492 C   0  0  2  0  0  0  0  0  0  0  0  0
   11.8806  -23.3153   -3.7611 C   0  0  0  0  0  0  0  0  0  0  0  0
   14.2839  -24.0145   -3.7006 C   0  0  2  0  0  0  0  0  0  0  0  0
   15.1771  -25.0655   -4.0589 N   0  0  0  0  0  0  0  0  0  0  0  0
   14.3609  -23.5917   -2.3034 C   0  0  0  0  0  0  0  0  0  0  0  0
   14.7879  -24.5030   -1.3476 O   0  0  0  0  0  0  0  0  0  0  0  0
   14.0634  -22.4348   -1.8816 O   0  0  0  0  0  0  0  0  0  0  0  0
  2  7  1  0
  2  1  1  6
  3  2  1  0
  4  5  1  0
  4  3  1  0
  5  6  2  0
  7 10  1  0
  8  7  2  0
  9  5  1  0
 10 11  1  0
 11 12  1  1
 12 13  1  0
 13 14  1  0
 14 15  2  0
 14 18  1  0
 16 17  2  0
 16 11  1  0
 20 19  1  6
 20 22  1  0
 21 20  1  0
 22 24  1  0
 22 23  1  1
 23 16  1  0
 24 25  1  0
 26 24  2  0
M  END
$$$$
