PQP.pdb
     RDKit          3D

 24 25  0  0  1  0  0  0  0  0999 V2000
    8.7147  -15.2263   19.9132 N   0  0  0  0  0  0  0  0  0  0  0  0
    8.1169  -15.3193   18.5985 C   0  0  0  0  0  0  0  0  0  0  0  0
    7.9026  -13.8726   18.1635 C   0  0  0  0  0  0  0  0  0  0  0  0
    7.4674  -13.2431   19.4713 C   0  0  0  0  0  0  0  0  0  0  0  0
    8.3762  -13.9408   20.4597 C   0  0  1  0  0  0  0  0  0  0  0  0
    7.7634  -14.1097   21.7785 C   0  0  0  0  0  0  0  0  0  0  0  0
    7.2035  -13.0966   22.3111 O   0  0  0  0  0  0  0  0  0  0  0  0
    6.5573  -19.5799   24.9400 N   0  0  0  0  0  0  0  0  0  0  0  0
    5.9277  -19.0174   23.8018 C   0  0  0  0  0  0  0  0  0  0  0  0
    5.1881  -19.7574   23.1131 O   0  0  0  0  0  0  0  0  0  0  0  0
    6.1039  -17.6085   23.3969 C   0  0  0  0  0  0  0  0  0  0  0  0
    7.0021  -16.8143   24.2816 C   0  0  0  0  0  0  0  0  0  0  0  0
    7.1960  -15.3764   23.8453 C   0  0  2  0  0  0  0  0  0  0  0  0
    7.7470  -15.3167   22.5067 N   0  0  0  0  0  0  0  0  0  0  0  0
    8.1337  -14.7152   24.8180 C   0  0  0  0  0  0  0  0  0  0  0  0
    9.3818  -14.9157   24.6176 O   0  0  0  0  0  0  0  0  0  0  0  0
    7.6822  -13.9179   25.8903 N   0  0  0  0  0  0  0  0  0  0  0  0
    6.3282  -13.5732   26.2789 C   0  0  0  0  0  0  0  0  0  0  0  0
    6.4876  -12.1487   26.7973 C   0  0  0  0  0  0  0  0  0  0  0  0
    7.8336  -12.1471   27.4409 C   0  0  0  0  0  0  0  0  0  0  0  0
    8.6004  -13.2633   26.8269 C   0  0  1  0  0  0  0  0  0  0  0  0
    8.9730  -14.2672   27.8365 C   0  0  0  0  0  0  0  0  0  0  0  0
    8.3473  -15.5006   27.9387 O   0  0  0  0  0  0  0  0  0  0  0  0
    9.9058  -13.9883   28.6452 O   0  0  0  0  0  0  0  0  0  0  0  0
  1  5  1  0
  2  1  1  0
  3  2  1  0
  3  4  1  0
  4  5  1  0
  6  7  2  0
  5  6  1  1
  8  9  1  0
  9 11  1  0
 10  9  2  0
 11 12  1  0
 13 12  1  1
 13 14  1  0
 13 15  1  0
 14  6  1  0
 15 16  2  0
 17 15  1  0
 17 21  1  0
 18 17  1  0
 18 19  1  0
 19 20  1  0
 21 20  1  0
 22 23  1  0
 21 22  1  1
 24 22  2  0
M  END
$$$$
