PQP.pdb
     RDKit          3D

 24 25  0  0  1  0  0  0  0  0999 V2000
    8.9129  -14.9287   20.0841 N   0  0  0  0  0  0  0  0  0  0  0  0
    8.3403  -15.0328   18.7591 C   0  0  0  0  0  0  0  0  0  0  0  0
    7.8973  -13.6145   18.4123 C   0  0  0  0  0  0  0  0  0  0  0  0
    7.3642  -13.1469   19.7514 C   0  0  0  0  0  0  0  0  0  0  0  0
    8.3712  -13.7513   20.7054 C   0  0  1  0  0  0  0  0  0  0  0  0
    7.7910  -14.0993   22.0037 C   0  0  0  0  0  0  0  0  0  0  0  0
    7.2197  -13.1753   22.6695 O   0  0  0  0  0  0  0  0  0  0  0  0
    6.7108  -19.8487   24.8656 N   0  0  0  0  0  0  0  0  0  0  0  0
    6.5984  -18.8545   25.8693 C   0  0  0  0  0  0  0  0  0  0  0  0
    6.2963  -19.2207   27.0285 O   0  0  0  0  0  0  0  0  0  0  0  0
    6.8211  -17.4181   25.6098 C   0  0  0  0  0  0  0  0  0  0  0  0
    7.1661  -17.0868   24.1987 C   0  0  0  0  0  0  0  0  0  0  0  0
    7.3907  -15.6107   23.9411 C   0  0  2  0  0  0  0  0  0  0  0  0
    7.8179  -15.3880   22.5747 N   0  0  0  0  0  0  0  0  0  0  0  0
    8.4462  -15.1248   24.8962 C   0  0  0  0  0  0  0  0  0  0  0  0
    9.6514  -15.4483   24.6113 O   0  0  0  0  0  0  0  0  0  0  0  0
    8.1443  -14.3569   26.0400 N   0  0  0  0  0  0  0  0  0  0  0  0
    6.8552  -14.0210   26.6132 C   0  0  0  0  0  0  0  0  0  0  0  0
    7.0888  -12.6117   27.1446 C   0  0  0  0  0  0  0  0  0  0  0  0
    8.5079  -12.6299   27.6047 C   0  0  0  0  0  0  0  0  0  0  0  0
    9.1813  -13.7297   26.8646 C   0  0  1  0  0  0  0  0  0  0  0  0
    9.6787  -14.7617   27.7885 C   0  0  0  0  0  0  0  0  0  0  0  0
    9.1104  -16.0230   27.8851 O   0  0  0  0  0  0  0  0  0  0  0  0
   10.6688  -14.4813   28.5256 O   0  0  0  0  0  0  0  0  0  0  0  0
  1  5  1  0
  2  1  1  0
  3  2  1  0
  3  4  1  0
  4  5  1  0
  6  7  2  0
  5  6  1  1
  8  9  1  0
  9 11  1  0
 10  9  2  0
 11 12  1  0
 13 12  1  6
 13 14  1  0
 13 15  1  0
 14  6  1  0
 15 16  2  0
 17 15  1  0
 17 21  1  0
 18 17  1  0
 18 19  1  0
 19 20  1  0
 21 20  1  0
 22 23  1  0
 21 22  1  1
 24 22  2  0
M  END
$$$$
