PQP.pdb
     RDKit          3D

 24 25  0  0  1  0  0  0  0  0999 V2000
    8.8060  -14.7790   19.7809 N   0  0  0  0  0  0  0  0  0  0  0  0
    8.1906  -14.8230   18.4718 C   0  0  0  0  0  0  0  0  0  0  0  0
    7.8453  -13.3713   18.1534 C   0  0  0  0  0  0  0  0  0  0  0  0
    7.3859  -12.8829   19.5122 C   0  0  0  0  0  0  0  0  0  0  0  0
    8.3712  -13.5727   20.4303 C   0  0  1  0  0  0  0  0  0  0  0  0
    7.8029  -13.8936   21.7408 C   0  0  0  0  0  0  0  0  0  0  0  0
    7.3284  -12.9372   22.4363 O   0  0  0  0  0  0  0  0  0  0  0  0
    7.6398  -19.5520   25.0087 N   0  0  0  0  0  0  0  0  0  0  0  0
    6.7965  -18.6370   25.6868 C   0  0  0  0  0  0  0  0  0  0  0  0
    6.1153  -19.0654   26.6466 O   0  0  0  0  0  0  0  0  0  0  0  0
    6.6880  -17.2123   25.3143 C   0  0  0  0  0  0  0  0  0  0  0  0
    7.1466  -16.8936   23.9329 C   0  0  0  0  0  0  0  0  0  0  0  0
    7.2144  -15.4118   23.6240 C   0  0  2  0  0  0  0  0  0  0  0  0
    7.7417  -15.1892   22.2931 N   0  0  0  0  0  0  0  0  0  0  0  0
    8.1057  -14.7615   24.6464 C   0  0  0  0  0  0  0  0  0  0  0  0
    9.3630  -14.9429   24.4900 O   0  0  0  0  0  0  0  0  0  0  0  0
    7.6036  -13.9937   25.7176 N   0  0  0  0  0  0  0  0  0  0  0  0
    6.2305  -13.7503   26.1157 C   0  0  0  0  0  0  0  0  0  0  0  0
    6.2851  -12.3143   26.6239 C   0  0  0  0  0  0  0  0  0  0  0  0
    7.6322  -12.2060   27.2560 C   0  0  0  0  0  0  0  0  0  0  0  0
    8.4767  -13.2648   26.6422 C   0  0  1  0  0  0  0  0  0  0  0  0
    8.9328  -14.2305   27.6547 C   0  0  0  0  0  0  0  0  0  0  0  0
    8.3992  -15.5050   27.7741 O   0  0  0  0  0  0  0  0  0  0  0  0
    9.8526  -13.8781   28.4497 O   0  0  0  0  0  0  0  0  0  0  0  0
  1  5  1  0
  2  1  1  0
  3  2  1  0
  3  4  1  0
  4  5  1  0
  6  7  2  0
  5  6  1  1
  8  9  1  0
  9 11  1  0
 10  9  2  0
 11 12  1  0
 13 12  1  1
 13 14  1  0
 13 15  1  0
 14  6  1  0
 15 16  2  0
 17 15  1  0
 17 21  1  0
 18 17  1  0
 18 19  1  0
 19 20  1  0
 21 20  1  0
 22 23  1  0
 21 22  1  1
 24 22  2  0
M  END
$$$$
