PQP.pdb
     RDKit          3D

 24 25  0  0  1  0  0  0  0  0999 V2000
    8.9724  -15.0651   19.9377 N   0  0  0  0  0  0  0  0  0  0  0  0
    8.5079  -15.2062   18.5742 C   0  0  0  0  0  0  0  0  0  0  0  0
    8.3797  -13.7771   18.0552 C   0  0  0  0  0  0  0  0  0  0  0  0
    7.8327  -13.0762   19.2822 C   0  0  0  0  0  0  0  0  0  0  0  0
    8.6169  -13.7474   20.3886 C   0  0  1  0  0  0  0  0  0  0  0  0
    7.8695  -13.8391   21.6442 C   0  0  0  0  0  0  0  0  0  0  0  0
    7.4180  -12.7606   22.1504 O   0  0  0  0  0  0  0  0  0  0  0  0
    5.8083  -19.1730   24.6161 N   0  0  0  0  0  0  0  0  0  0  0  0
    7.0996  -18.6613   24.8975 C   0  0  0  0  0  0  0  0  0  0  0  0
    7.8988  -19.3944   25.5242 O   0  0  0  0  0  0  0  0  0  0  0  0
    7.5398  -17.3132   24.4864 C   0  0  0  0  0  0  0  0  0  0  0  0
    6.4534  -16.4347   23.9686 C   0  0  0  0  0  0  0  0  0  0  0  0
    6.9037  -15.0352   23.6023 C   0  0  2  0  0  0  0  0  0  0  0  0
    7.6113  -15.0388   22.3381 N   0  0  0  0  0  0  0  0  0  0  0  0
    7.8061  -14.5332   24.6961 C   0  0  0  0  0  0  0  0  0  0  0  0
    9.0566  -14.7543   24.5363 O   0  0  0  0  0  0  0  0  0  0  0  0
    7.3209  -13.8566   25.8344 N   0  0  0  0  0  0  0  0  0  0  0  0
    5.9550  -13.6625   26.2814 C   0  0  0  0  0  0  0  0  0  0  0  0
    6.0055  -12.2692   26.8974 C   0  0  0  0  0  0  0  0  0  0  0  0
    7.3660  -12.1921   27.5050 C   0  0  0  0  0  0  0  0  0  0  0  0
    8.2075  -13.1895   26.7923 C   0  0  1  0  0  0  0  0  0  0  0  0
    8.6985  -14.2241   27.7167 C   0  0  0  0  0  0  0  0  0  0  0  0
    8.1714  -15.5061   27.7606 O   0  0  0  0  0  0  0  0  0  0  0  0
    9.6431  -13.9263   28.5048 O   0  0  0  0  0  0  0  0  0  0  0  0
  1  5  1  0
  2  1  1  0
  3  2  1  0
  3  4  1  0
  4  5  1  0
  6  7  2  0
  5  6  1  1
  8  9  1  0
  9 11  1  0
 10  9  2  0
 11 12  1  0
 13 12  1  1
 13 14  1  0
 13 15  1  0
 14  6  1  0
 15 16  2  0
 17 15  1  0
 17 21  1  0
 18 17  1  0
 18 19  1  0
 19 20  1  0
 21 20  1  0
 22 23  1  0
 21 22  1  1
 24 22  2  0
M  END
$$$$
