PQP.pdb
     RDKit          3D

 24 25  0  0  1  0  0  0  0  0999 V2000
    8.3429  -15.3100   19.3964 N   0  0  0  0  0  0  0  0  0  0  0  0
    7.7841  -14.8901   18.1291 C   0  0  0  0  0  0  0  0  0  0  0  0
    7.9756  -13.3766   18.1000 C   0  0  0  0  0  0  0  0  0  0  0  0
    7.6817  -13.0241   19.5441 C   0  0  0  0  0  0  0  0  0  0  0  0
    8.3406  -14.1730   20.2758 C   0  0  1  0  0  0  0  0  0  0  0  0
    7.6631  -14.5170   21.5272 C   0  0  0  0  0  0  0  0  0  0  0  0
    6.5302  -13.9822   21.7595 O   0  0  0  0  0  0  0  0  0  0  0  0
    7.4407  -19.7274   25.1678 N   0  0  0  0  0  0  0  0  0  0  0  0
    6.9369  -18.6780   25.9760 C   0  0  0  0  0  0  0  0  0  0  0  0
    6.4421  -18.9772   27.0871 O   0  0  0  0  0  0  0  0  0  0  0  0
    6.9707  -17.2592   25.5685 C   0  0  0  0  0  0  0  0  0  0  0  0
    7.5150  -17.0167   24.2028 C   0  0  0  0  0  0  0  0  0  0  0  0
    7.5216  -15.5609   23.7829 C   0  0  2  0  0  0  0  0  0  0  0  0
    8.1744  -15.4006   22.4995 N   0  0  0  0  0  0  0  0  0  0  0  0
    8.2543  -14.7743   24.8351 C   0  0  0  0  0  0  0  0  0  0  0  0
    9.5317  -14.8472   24.8011 O   0  0  0  0  0  0  0  0  0  0  0  0
    7.5901  -13.9969   25.8064 N   0  0  0  0  0  0  0  0  0  0  0  0
    6.1689  -13.8054   26.0225 C   0  0  0  0  0  0  0  0  0  0  0  0
    6.0986  -12.3529   26.4793 C   0  0  0  0  0  0  0  0  0  0  0  0
    7.3503  -12.1614   27.2682 C   0  0  0  0  0  0  0  0  0  0  0  0
    8.3091  -13.1986   26.8037 C   0  0  1  0  0  0  0  0  0  0  0  0
    8.6756  -14.1091   27.9004 C   0  0  0  0  0  0  0  0  0  0  0  0
    9.6020  -13.7766   28.8773 O   0  0  0  0  0  0  0  0  0  0  0  0
    8.1185  -15.2446   27.9501 O   0  0  0  0  0  0  0  0  0  0  0  0
  1  5  1  0
  2  1  1  0
  3  2  1  0
  3  4  1  0
  4  5  1  0
  6  7  2  0
  5  6  1  1
  8  9  1  0
  9 11  1  0
 10  9  2  0
 11 12  1  0
 13 12  1  1
 13 14  1  0
 13 15  1  0
 14  6  1  0
 15 16  2  0
 17 15  1  0
 17 21  1  0
 18 17  1  0
 18 19  1  0
 19 20  1  0
 21 20  1  0
 22 23  1  0
 21 22  1  1
 24 22  2  0
M  END
$$$$
