PQP.pdb
     RDKit          3D

 24 25  0  0  1  0  0  0  0  0999 V2000
    8.7245  -14.9447   19.7530 N   0  0  0  0  0  0  0  0  0  0  0  0
    8.0453  -15.0144   18.4770 C   0  0  0  0  0  0  0  0  0  0  0  0
    7.7020  -13.5670   18.1375 C   0  0  0  0  0  0  0  0  0  0  0  0
    7.3156  -13.0376   19.5037 C   0  0  0  0  0  0  0  0  0  0  0  0
    8.3364  -13.7164   20.3907 C   0  0  1  0  0  0  0  0  0  0  0  0
    7.8291  -13.9958   21.7353 C   0  0  0  0  0  0  0  0  0  0  0  0
    7.3391  -13.0269   22.4020 O   0  0  0  0  0  0  0  0  0  0  0  0
    7.2977  -19.6623   24.9184 N   0  0  0  0  0  0  0  0  0  0  0  0
    6.8272  -18.6462   25.7870 C   0  0  0  0  0  0  0  0  0  0  0  0
    6.4736  -18.9773   26.9422 O   0  0  0  0  0  0  0  0  0  0  0  0
    6.7374  -17.2262   25.3926 C   0  0  0  0  0  0  0  0  0  0  0  0
    7.1989  -16.9350   24.0061 C   0  0  0  0  0  0  0  0  0  0  0  0
    7.2960  -15.4591   23.6776 C   0  0  2  0  0  0  0  0  0  0  0  0
    7.8431  -15.2643   22.3503 N   0  0  0  0  0  0  0  0  0  0  0  0
    8.1860  -14.8098   24.7018 C   0  0  0  0  0  0  0  0  0  0  0  0
    9.4347  -15.0745   24.6072 O   0  0  0  0  0  0  0  0  0  0  0  0
    7.6917  -13.9572   25.7106 N   0  0  0  0  0  0  0  0  0  0  0  0
    6.3367  -13.5005   25.9521 C   0  0  0  0  0  0  0  0  0  0  0  0
    6.5543  -12.0817   26.4650 C   0  0  0  0  0  0  0  0  0  0  0  0
    7.8233  -12.1703   27.2446 C   0  0  0  0  0  0  0  0  0  0  0  0
    8.5581  -13.3554   26.7284 C   0  0  1  0  0  0  0  0  0  0  0  0
    8.7449  -14.3631   27.7846 C   0  0  0  0  0  0  0  0  0  0  0  0
    9.7091  -14.2466   28.7745 O   0  0  0  0  0  0  0  0  0  0  0  0
    7.9903  -15.3793   27.7856 O   0  0  0  0  0  0  0  0  0  0  0  0
  1  5  1  0
  2  1  1  0
  3  2  1  0
  3  4  1  0
  4  5  1  0
  6  7  2  0
  5  6  1  1
  8  9  1  0
  9 11  1  0
 10  9  2  0
 11 12  1  0
 13 12  1  1
 13 14  1  0
 13 15  1  0
 14  6  1  0
 15 16  2  0
 17 15  1  0
 17 21  1  0
 18 17  1  0
 18 19  1  0
 19 20  1  0
 21 20  1  0
 22 23  1  0
 21 22  1  1
 24 22  2  0
M  END
$$$$
