PQP.pdb
     RDKit          3D

 24 25  0  0  1  0  0  0  0  0999 V2000
    8.8729  -15.0267   19.7620 N   0  0  0  0  0  0  0  0  0  0  0  0
    8.2377  -15.0825   18.4628 C   0  0  0  0  0  0  0  0  0  0  0  0
    7.9374  -13.6282   18.1120 C   0  0  0  0  0  0  0  0  0  0  0  0
    7.5144  -13.0903   19.4639 C   0  0  0  0  0  0  0  0  0  0  0  0
    8.4888  -13.7902   20.3861 C   0  0  1  0  0  0  0  0  0  0  0  0
    7.9287  -14.0583   21.7119 C   0  0  0  0  0  0  0  0  0  0  0  0
    7.4399  -13.0782   22.3630 O   0  0  0  0  0  0  0  0  0  0  0  0
    7.1791  -19.7064   24.9078 N   0  0  0  0  0  0  0  0  0  0  0  0
    6.6907  -18.6745   25.7474 C   0  0  0  0  0  0  0  0  0  0  0  0
    6.2377  -18.9951   26.8704 O   0  0  0  0  0  0  0  0  0  0  0  0
    6.6937  -17.2499   25.3592 C   0  0  0  0  0  0  0  0  0  0  0  0
    7.2461  -16.9757   24.0028 C   0  0  0  0  0  0  0  0  0  0  0  0
    7.3130  -15.5057   23.6416 C   0  0  2  0  0  0  0  0  0  0  0  0
    7.8903  -15.3273   22.3247 N   0  0  0  0  0  0  0  0  0  0  0  0
    8.1578  -14.8090   24.6728 C   0  0  0  0  0  0  0  0  0  0  0  0
    9.4113  -15.0656   24.6366 O   0  0  0  0  0  0  0  0  0  0  0  0
    7.6184  -13.9223   25.6277 N   0  0  0  0  0  0  0  0  0  0  0  0
    6.2369  -13.5529   25.8687 C   0  0  0  0  0  0  0  0  0  0  0  0
    6.3536  -12.0869   26.2694 C   0  0  0  0  0  0  0  0  0  0  0  0
    7.6405  -12.0194   27.0213 C   0  0  0  0  0  0  0  0  0  0  0  0
    8.4550  -13.1810   26.5761 C   0  0  1  0  0  0  0  0  0  0  0  0
    8.7399  -14.0885   27.6991 C   0  0  0  0  0  0  0  0  0  0  0  0
    8.0992  -15.3074   27.8634 O   0  0  0  0  0  0  0  0  0  0  0  0
    9.6084  -13.7370   28.5501 O   0  0  0  0  0  0  0  0  0  0  0  0
  1  5  1  0
  2  1  1  0
  3  2  1  0
  3  4  1  0
  4  5  1  0
  6  7  2  0
  5  6  1  1
  8  9  1  0
  9 11  1  0
 10  9  2  0
 11 12  1  0
 13 12  1  1
 13 14  1  0
 13 15  1  0
 14  6  1  0
 15 16  2  0
 17 15  1  0
 17 21  1  0
 18 17  1  0
 18 19  1  0
 19 20  1  0
 21 20  1  0
 22 23  1  0
 21 22  1  1
 24 22  2  0
M  END
$$$$
