PQP.pdb
     RDKit          3D

 24 25  0  0  1  0  0  0  0  0999 V2000
    8.6275  -15.4231   19.9194 N   0  0  0  0  0  0  0  0  0  0  0  0
    7.9535  -15.4973   18.6408 C   0  0  0  0  0  0  0  0  0  0  0  0
    7.8318  -14.0483   18.1787 C   0  0  0  0  0  0  0  0  0  0  0  0
    7.5200  -13.3560   19.4900 C   0  0  0  0  0  0  0  0  0  0  0  0
    8.4227  -14.1023   20.4479 C   0  0  1  0  0  0  0  0  0  0  0  0
    7.8711  -14.1910   21.8012 C   0  0  0  0  0  0  0  0  0  0  0  0
    7.4082  -13.1273   22.3282 O   0  0  0  0  0  0  0  0  0  0  0  0
    7.0716  -19.6592   24.1135 N   0  0  0  0  0  0  0  0  0  0  0  0
    6.0408  -18.9506   23.4473 C   0  0  0  0  0  0  0  0  0  0  0  0
    5.2295  -19.6065   22.7542 O   0  0  0  0  0  0  0  0  0  0  0  0
    5.8829  -17.4852   23.5352 C   0  0  0  0  0  0  0  0  0  0  0  0
    6.9283  -16.7938   24.3411 C   0  0  0  0  0  0  0  0  0  0  0  0
    7.2270  -15.3777   23.8927 C   0  0  2  0  0  0  0  0  0  0  0  0
    7.8142  -15.3724   22.5683 N   0  0  0  0  0  0  0  0  0  0  0  0
    8.1814  -14.7659   24.8815 C   0  0  0  0  0  0  0  0  0  0  0  0
    9.4217  -15.0211   24.6946 O   0  0  0  0  0  0  0  0  0  0  0  0
    7.7531  -13.9563   25.9539 N   0  0  0  0  0  0  0  0  0  0  0  0
    6.4092  -13.5784   26.3467 C   0  0  0  0  0  0  0  0  0  0  0  0
    6.6046  -12.1573   26.8621 C   0  0  0  0  0  0  0  0  0  0  0  0
    7.9526  -12.1871   27.5009 C   0  0  0  0  0  0  0  0  0  0  0  0
    8.6901  -13.3224   26.8861 C   0  0  1  0  0  0  0  0  0  0  0  0
    9.0420  -14.3333   27.8961 C   0  0  0  0  0  0  0  0  0  0  0  0
   10.1021  -14.1803   28.7770 O   0  0  0  0  0  0  0  0  0  0  0  0
    8.3440  -15.3872   27.9599 O   0  0  0  0  0  0  0  0  0  0  0  0
  1  5  1  0
  2  1  1  0
  3  2  1  0
  3  4  1  0
  4  5  1  0
  6  7  2  0
  5  6  1  1
  8  9  1  0
  9 11  1  0
 10  9  2  0
 11 12  1  0
 13 12  1  1
 13 14  1  0
 13 15  1  0
 14  6  1  0
 15 16  2  0
 17 15  1  0
 17 21  1  0
 18 17  1  0
 18 19  1  0
 19 20  1  0
 21 20  1  0
 22 23  1  0
 21 22  1  1
 24 22  2  0
M  END
$$$$
