PQP.pdb
     RDKit          3D

 24 25  0  0  1  0  0  0  0  0999 V2000
    8.7816  -15.3018   19.9624 N   0  0  0  0  0  0  0  0  0  0  0  0
    8.2654  -15.4109   18.6147 C   0  0  0  0  0  0  0  0  0  0  0  0
    8.1042  -13.9697   18.1402 C   0  0  0  0  0  0  0  0  0  0  0  0
    7.5994  -13.3075   19.4062 C   0  0  0  0  0  0  0  0  0  0  0  0
    8.4323  -14.0004   20.4625 C   0  0  1  0  0  0  0  0  0  0  0  0
    7.7356  -14.1332   21.7433 C   0  0  0  0  0  0  0  0  0  0  0  0
    7.1816  -13.0952   22.2321 O   0  0  0  0  0  0  0  0  0  0  0  0
    7.0809  -19.5978   23.7799 N   0  0  0  0  0  0  0  0  0  0  0  0
    5.9853  -18.9134   23.1972 C   0  0  0  0  0  0  0  0  0  0  0  0
    5.2130  -19.5635   22.4557 O   0  0  0  0  0  0  0  0  0  0  0  0
    5.7169  -17.4795   23.4253 C   0  0  0  0  0  0  0  0  0  0  0  0
    6.7492  -16.7743   24.2361 C   0  0  0  0  0  0  0  0  0  0  0  0
    7.0247  -15.3513   23.7948 C   0  0  2  0  0  0  0  0  0  0  0  0
    7.6319  -15.3310   22.4795 N   0  0  0  0  0  0  0  0  0  0  0  0
    7.9506  -14.7215   24.7991 C   0  0  0  0  0  0  0  0  0  0  0  0
    9.2015  -14.9068   24.6013 O   0  0  0  0  0  0  0  0  0  0  0  0
    7.4858  -13.9678   25.8969 N   0  0  0  0  0  0  0  0  0  0  0  0
    6.1311  -13.7734   26.3767 C   0  0  0  0  0  0  0  0  0  0  0  0
    6.1630  -12.3341   26.8773 C   0  0  0  0  0  0  0  0  0  0  0  0
    7.5408  -12.1733   27.4266 C   0  0  0  0  0  0  0  0  0  0  0  0
    8.3855  -13.2029   26.7654 C   0  0  1  0  0  0  0  0  0  0  0  0
    8.9373  -14.1466   27.7507 C   0  0  0  0  0  0  0  0  0  0  0  0
    8.4976  -15.4567   27.8670 O   0  0  0  0  0  0  0  0  0  0  0  0
    9.8530  -13.7403   28.5243 O   0  0  0  0  0  0  0  0  0  0  0  0
  1  5  1  0
  2  1  1  0
  3  2  1  0
  3  4  1  0
  4  5  1  0
  6  7  2  0
  5  6  1  1
  8  9  1  0
  9 11  1  0
 10  9  2  0
 11 12  1  0
 13 12  1  1
 13 14  1  0
 13 15  1  0
 14  6  1  0
 15 16  2  0
 17 15  1  0
 17 21  1  0
 18 17  1  0
 18 19  1  0
 19 20  1  0
 21 20  1  0
 22 23  1  0
 21 22  1  1
 24 22  2  0
M  END
$$$$
