QTE.pdb
     RDKit          3D

 26 25  0  0  1  0  0  0  0  0999 V2000
   26.2130  -26.3904  -15.7970 N   0  0  0  0  0  0  0  0  0  0  0  0
   27.0958  -25.4152  -16.4019 C   0  0  0  0  0  0  0  0  0  0  0  0
   27.2836  -24.3812  -15.7178 O   0  0  0  0  0  0  0  0  0  0  0  0
   27.6978  -25.6626  -17.7222 C   0  0  0  0  0  0  0  0  0  0  0  0
   27.4907  -27.0194  -18.3070 C   0  0  0  0  0  0  0  0  0  0  0  0
   28.6720  -27.8908  -18.0996 C   0  0  2  0  0  0  0  0  0  0  0  0
   29.7590  -27.6019  -18.9916 N   0  0  0  0  0  0  0  0  0  0  0  0
   28.3787  -29.3291  -18.1307 C   0  0  0  0  0  0  0  0  0  0  0  0
   28.4547  -29.9733  -19.2138 O   0  0  0  0  0  0  0  0  0  0  0  0
   29.7274  -31.6118  -18.6390 C   0  0  0  0  0  0  0  0  0  0  0  0
   29.2272  -32.1150  -17.2995 C   0  0  1  0  0  0  0  0  0  0  0  0
   30.2226  -31.8321  -16.3664 O   0  0  0  0  0  0  0  0  0  0  0  0
   27.9098  -31.4773  -16.9317 C   0  0  2  0  0  0  0  0  0  0  0  0
   28.0062  -30.0142  -16.9517 N   0  0  0  0  0  0  0  0  0  0  0  0
   27.3740  -31.9605  -15.6478 C   0  0  0  0  0  0  0  0  0  0  0  0
   27.6807  -31.3305  -14.5875 O   0  0  0  0  0  0  0  0  0  0  0  0
   26.5303  -33.0954  -15.5292 N   0  0  0  0  0  0  0  0  0  0  0  0
   25.9945  -33.5521  -14.2399 C   0  0  1  0  0  0  0  0  0  0  0  0
   24.5161  -33.6745  -14.2846 C   0  0  0  0  0  0  0  0  0  0  0  0
   23.9730  -34.1343  -12.9622 C   0  0  0  0  0  0  0  0  0  0  0  0
   22.4891  -34.3440  -13.0345 C   0  0  0  0  0  0  0  0  0  0  0  0
   21.9143  -34.0944  -14.1228 O   0  0  0  0  0  0  0  0  0  0  0  0
   26.6857  -34.7672  -13.7871 C   0  0  0  0  0  0  0  0  0  0  0  0
   27.1723  -35.5309  -14.6915 O   0  0  0  0  0  0  0  0  0  0  0  0
   21.7865  -34.7965  -11.9368 O   0  0  0  0  0  0  0  0  0  0  0  0
   26.8787  -35.1884  -12.4973 O   0  0  0  0  0  0  0  0  0  0  0  0
  2  1  1  0
  2  3  2  0
  4  5  1  0
  4  2  1  0
  6  5  1  0
  6  7  1  6
  8  6  1  0
  9  8  2  0
 11 10  1  6
 11 12  1  0
 13 11  1  0
 13 14  1  1
 14  8  1  0
 15 13  1  0
 15 17  1  0
 16 15  2  0
 18 17  1  0
 18 19  1  6
 19 20  1  0
 20 21  1  0
 21 25  1  0
 21 22  2  0
 23 26  1  0
 23 18  1  0
 24 23  2  0
M  END
$$$$
