QTE.pdb
     RDKit          3D

 26 25  0  0  1  0  0  0  0  0999 V2000
   15.7466  -12.6014  -18.3612 N   0  0  0  0  0  0  0  0  0  0  0  0
   16.6977  -12.6623  -19.4511 C   0  0  0  0  0  0  0  0  0  0  0  0
   16.2338  -13.1047  -20.5288 O   0  0  0  0  0  0  0  0  0  0  0  0
   18.0918  -12.2312  -19.2575 C   0  0  0  0  0  0  0  0  0  0  0  0
   18.4570  -11.7429  -17.8959 C   0  0  0  0  0  0  0  0  0  0  0  0
   19.8546  -11.2507  -17.8476 C   0  0  2  0  0  0  0  0  0  0  0  0
   20.8199  -12.2299  -18.2600 N   0  0  0  0  0  0  0  0  0  0  0  0
   20.2534  -10.6803  -16.5548 C   0  0  0  0  0  0  0  0  0  0  0  0
   20.2739  -11.4003  -15.5180 O   0  0  0  0  0  0  0  0  0  0  0  0
   23.2855   -9.7932  -15.5175 C   0  0  0  0  0  0  0  0  0  0  0  0
   22.1442   -9.5756  -14.5441 C   0  0  1  0  0  0  0  0  0  0  0  0
   22.6870   -8.9574  -13.4195 O   0  0  0  0  0  0  0  0  0  0  0  0
   21.0431   -8.7518  -15.1659 C   0  0  2  0  0  0  0  0  0  0  0  0
   20.6187   -9.3189  -16.4499 N   0  0  0  0  0  0  0  0  0  0  0  0
   21.3941   -7.3277  -15.2999 C   0  0  0  0  0  0  0  0  0  0  0  0
   22.1003   -6.9686  -16.2937 O   0  0  0  0  0  0  0  0  0  0  0  0
   20.9851   -6.3306  -14.3768 N   0  0  0  0  0  0  0  0  0  0  0  0
   21.2193   -4.8983  -14.6033 C   0  0  1  0  0  0  0  0  0  0  0  0
   19.9467   -4.1350  -14.5827 C   0  0  0  0  0  0  0  0  0  0  0  0
   20.1746   -2.6968  -14.9498 C   0  0  0  0  0  0  0  0  0  0  0  0
   18.8975   -1.9133  -14.8708 C   0  0  0  0  0  0  0  0  0  0  0  0
   18.9401   -0.7749  -14.3421 O   0  0  0  0  0  0  0  0  0  0  0  0
   22.2446   -4.3842  -13.6847 C   0  0  0  0  0  0  0  0  0  0  0  0
   22.4536   -5.0525  -12.6134 O   0  0  0  0  0  0  0  0  0  0  0  0
   17.7191   -2.4336  -15.3649 O   0  0  0  0  0  0  0  0  0  0  0  0
   23.0175   -3.2628  -13.8368 O   0  0  0  0  0  0  0  0  0  0  0  0
  2  1  1  0
  2  3  2  0
  4  5  1  0
  4  2  1  0
  6  5  1  0
  6  7  1  1
  8  6  1  0
  9  8  2  0
 11 10  1  6
 11 12  1  0
 13 11  1  0
 13 14  1  6
 14  8  1  0
 15 13  1  0
 15 17  1  0
 16 15  2  0
 18 17  1  0
 18 19  1  1
 19 20  1  0
 20 21  1  0
 21 25  1  0
 21 22  2  0
 23 26  1  0
 23 18  1  0
 24 23  2  0
M  END
$$$$
