QTE.pdb
     RDKit          3D

 26 25  0  0  1  0  0  0  0  0999 V2000
   16.6292  -13.5611  -14.0323 N   0  0  0  0  0  0  0  0  0  0  0  0
   16.3914  -14.5260  -15.0853 C   0  0  0  0  0  0  0  0  0  0  0  0
   15.6804  -15.5033  -14.7511 O   0  0  0  0  0  0  0  0  0  0  0  0
   16.9660  -14.3322  -16.4266 C   0  0  0  0  0  0  0  0  0  0  0  0
   17.8153  -13.1211  -16.6208 C   0  0  0  0  0  0  0  0  0  0  0  0
   18.3413  -13.0378  -18.0044 C   0  0  2  0  0  0  0  0  0  0  0  0
   19.2557  -14.0945  -18.3327 N   0  0  0  0  0  0  0  0  0  0  0  0
   18.9413  -11.7429  -18.3492 C   0  0  0  0  0  0  0  0  0  0  0  0
   20.1921  -11.6331  -18.4807 O   0  0  0  0  0  0  0  0  0  0  0  0
   16.7716   -8.7797  -20.4104 C   0  0  0  0  0  0  0  0  0  0  0  0
   18.2775   -8.9343  -20.3343 C   0  0  1  0  0  0  0  0  0  0  0  0
   18.8275   -7.7196  -20.7384 O   0  0  0  0  0  0  0  0  0  0  0  0
   18.7192   -9.3203  -18.9438 C   0  0  2  0  0  0  0  0  0  0  0  0
   18.1304  -10.6005  -18.5378 N   0  0  0  0  0  0  0  0  0  0  0  0
   18.4585   -8.2707  -17.9440 C   0  0  0  0  0  0  0  0  0  0  0  0
   17.3408   -8.2742  -17.3389 O   0  0  0  0  0  0  0  0  0  0  0  0
   19.3907   -7.2517  -17.6177 N   0  0  0  0  0  0  0  0  0  0  0  0
   19.0696   -6.1488  -16.7021 C   0  0  1  0  0  0  0  0  0  0  0  0
   19.5201   -6.4483  -15.3201 C   0  0  0  0  0  0  0  0  0  0  0  0
   20.9250   -6.9787  -15.3140 C   0  0  0  0  0  0  0  0  0  0  0  0
   21.3682   -7.3099  -13.9193 C   0  0  0  0  0  0  0  0  0  0  0  0
   21.7680   -6.3674  -13.1921 O   0  0  0  0  0  0  0  0  0  0  0  0
   19.5615   -4.8694  -17.2316 C   0  0  0  0  0  0  0  0  0  0  0  0
   19.2316   -3.8103  -16.5932 O   0  0  0  0  0  0  0  0  0  0  0  0
   21.3345   -8.6100  -13.4587 O   0  0  0  0  0  0  0  0  0  0  0  0
   20.3432   -4.6674  -18.3390 O   0  0  0  0  0  0  0  0  0  0  0  0
  2  1  1  0
  2  3  2  0
  4  5  1  0
  4  2  1  0
  6  5  1  0
  6  7  1  1
  8  6  1  0
  9  8  2  0
 11 10  1  1
 11 12  1  0
 13 11  1  0
 13 14  1  1
 14  8  1  0
 15 13  1  0
 15 17  1  0
 16 15  2  0
 18 17  1  0
 18 19  1  1
 19 20  1  0
 20 21  1  0
 21 25  1  0
 21 22  2  0
 23 26  1  0
 23 18  1  0
 24 23  2  0
M  END
$$$$
