QTE.pdb
     RDKit          3D

 26 25  0  0  1  0  0  0  0  0999 V2000
   18.9988  -14.8007  -14.6263 N   0  0  0  0  0  0  0  0  0  0  0  0
   19.2341  -13.8401  -15.6838 C   0  0  0  0  0  0  0  0  0  0  0  0
   20.4274  -13.4746  -15.8051 O   0  0  0  0  0  0  0  0  0  0  0  0
   18.1243  -13.3568  -16.5212 C   0  0  0  0  0  0  0  0  0  0  0  0
   18.1327  -11.9059  -16.8690 C   0  0  0  0  0  0  0  0  0  0  0  0
   17.1311  -11.1485  -16.0808 C   0  0  2  0  0  0  0  0  0  0  0  0
   15.7748  -11.5061  -16.3858 N   0  0  0  0  0  0  0  0  0  0  0  0
   17.2826   -9.6897  -16.1478 C   0  0  0  0  0  0  0  0  0  0  0  0
   16.9462   -9.0597  -17.1888 O   0  0  0  0  0  0  0  0  0  0  0  0
   17.3365   -5.3095  -14.1653 C   0  0  0  0  0  0  0  0  0  0  0  0
   17.0260   -6.7917  -14.2293 C   0  0  1  0  0  0  0  0  0  0  0  0
   15.7122   -6.9084  -14.6784 O   0  0  0  0  0  0  0  0  0  0  0  0
   17.9974   -7.5167  -15.1284 C   0  0  2  0  0  0  0  0  0  0  0  0
   17.8075   -8.9687  -15.0511 N   0  0  0  0  0  0  0  0  0  0  0  0
   19.4008   -7.1467  -14.8781 C   0  0  0  0  0  0  0  0  0  0  0  0
   20.0008   -7.6778  -13.8915 O   0  0  0  0  0  0  0  0  0  0  0  0
   20.1229   -6.2264  -15.6814 N   0  0  0  0  0  0  0  0  0  0  0  0
   21.4942   -5.8056  -15.3649 C   0  0  1  0  0  0  0  0  0  0  0  0
   22.0918   -5.0339  -16.4829 C   0  0  0  0  0  0  0  0  0  0  0  0
   23.4571   -4.5257  -16.1180 C   0  0  0  0  0  0  0  0  0  0  0  0
   24.0255   -3.6763  -17.2165 C   0  0  0  0  0  0  0  0  0  0  0  0
   24.3031   -4.2358  -18.3060 O   0  0  0  0  0  0  0  0  0  0  0  0
   21.5444   -5.1203  -14.0660 C   0  0  0  0  0  0  0  0  0  0  0  0
   22.4606   -5.4859  -13.2505 O   0  0  0  0  0  0  0  0  0  0  0  0
   24.2333   -2.3255  -17.0278 O   0  0  0  0  0  0  0  0  0  0  0  0
   20.7213   -4.1220  -13.6145 O   0  0  0  0  0  0  0  0  0  0  0  0
  2  1  1  0
  2  3  2  0
  4  5  1  0
  4  2  1  0
  6  5  1  0
  6  7  1  6
  8  6  1  0
  9  8  2  0
 11 10  1  6
 11 12  1  0
 13 11  1  0
 13 14  1  1
 14  8  1  0
 15 13  1  0
 15 17  1  0
 16 15  2  0
 18 17  1  0
 18 19  1  6
 19 20  1  0
 20 21  1  0
 21 25  1  0
 21 22  2  0
 23 26  1  0
 23 18  1  0
 24 23  2  0
M  END
$$$$
