QTE.pdb
     RDKit          3D

 26 25  0  0  1  0  0  0  0  0999 V2000
   16.0865  -12.4632  -15.1225 N   0  0  0  0  0  0  0  0  0  0  0  0
   15.8456  -13.8867  -15.2322 C   0  0  0  0  0  0  0  0  0  0  0  0
   14.9001  -14.3149  -14.5287 O   0  0  0  0  0  0  0  0  0  0  0  0
   16.6771  -14.7245  -16.1116 C   0  0  0  0  0  0  0  0  0  0  0  0
   17.6428  -14.0105  -16.9967 C   0  0  0  0  0  0  0  0  0  0  0  0
   19.0330  -14.4770  -16.7786 C   0  0  2  0  0  0  0  0  0  0  0  0
   19.1116  -15.7678  -16.1555 N   0  0  0  0  0  0  0  0  0  0  0  0
   19.8856  -13.5273  -16.0528 C   0  0  0  0  0  0  0  0  0  0  0  0
   19.7783  -13.3998  -14.8014 O   0  0  0  0  0  0  0  0  0  0  0  0
   23.6305  -13.5131  -16.2576 C   0  0  0  0  0  0  0  0  0  0  0  0
   23.1859  -12.0802  -16.4729 C   0  0  1  0  0  0  0  0  0  0  0  0
   23.3370  -11.8119  -17.8318 O   0  0  0  0  0  0  0  0  0  0  0  0
   21.7645  -11.8720  -16.0102 C   0  0  2  0  0  0  0  0  0  0  0  0
   20.8372  -12.7411  -16.7417 N   0  0  0  0  0  0  0  0  0  0  0  0
   21.3387  -10.4635  -16.0716 C   0  0  0  0  0  0  0  0  0  0  0  0
   20.3973  -10.1491  -16.8655 O   0  0  0  0  0  0  0  0  0  0  0  0
   21.9241   -9.4340  -15.2898 N   0  0  0  0  0  0  0  0  0  0  0  0
   21.4697   -8.0384  -15.3505 C   0  0  1  0  0  0  0  0  0  0  0  0
   22.0201   -7.2438  -14.2244 C   0  0  0  0  0  0  0  0  0  0  0  0
   21.5335   -5.8241  -14.2778 C   0  0  0  0  0  0  0  0  0  0  0  0
   22.1695   -4.9972  -13.1994 C   0  0  0  0  0  0  0  0  0  0  0  0
   22.9768   -5.5664  -12.4238 O   0  0  0  0  0  0  0  0  0  0  0  0
   21.7279   -7.4615  -16.6771 C   0  0  0  0  0  0  0  0  0  0  0  0
   22.8304   -7.7783  -17.2447 O   0  0  0  0  0  0  0  0  0  0  0  0
   21.8718   -3.6563  -13.0708 O   0  0  0  0  0  0  0  0  0  0  0  0
   20.9213   -6.6160  -17.3931 O   0  0  0  0  0  0  0  0  0  0  0  0
  2  1  1  0
  2  3  2  0
  4  5  1  0
  4  2  1  0
  6  5  1  0
  6  7  1  1
  8  6  1  0
  9  8  2  0
 11 10  1  6
 11 12  1  0
 13 11  1  0
 13 14  1  6
 14  8  1  0
 15 13  1  0
 15 17  1  0
 16 15  2  0
 18 17  1  0
 18 19  1  1
 19 20  1  0
 20 21  1  0
 21 25  1  0
 21 22  2  0
 23 26  1  0
 23 18  1  0
 24 23  2  0
M  END
$$$$
