QTE.pdb
     RDKit          3D

 26 25  0  0  1  0  0  0  0  0999 V2000
   15.7504  -15.0627  -14.4781 N   0  0  0  0  0  0  0  0  0  0  0  0
   15.8022  -16.0322  -15.5522 C   0  0  0  0  0  0  0  0  0  0  0  0
   14.7450  -16.6846  -15.7221 O   0  0  0  0  0  0  0  0  0  0  0  0
   17.0265  -16.2047  -16.3511 C   0  0  0  0  0  0  0  0  0  0  0  0
   18.1569  -15.2789  -16.0495 C   0  0  0  0  0  0  0  0  0  0  0  0
   19.3294  -15.5463  -16.9164 C   0  0  2  0  0  0  0  0  0  0  0  0
   19.8070  -16.8973  -16.8311 N   0  0  0  0  0  0  0  0  0  0  0  0
   20.4491  -14.6155  -16.7277 C   0  0  0  0  0  0  0  0  0  0  0  0
   21.1996  -14.7155  -15.7175 O   0  0  0  0  0  0  0  0  0  0  0  0
   23.9152  -11.6239  -18.1537 C   0  0  0  0  0  0  0  0  0  0  0  0
   22.8732  -12.6989  -18.3904 C   0  0  1  0  0  0  0  0  0  0  0  0
   23.5261  -13.9244  -18.2746 O   0  0  0  0  0  0  0  0  0  0  0  0
   21.7269  -12.5748  -17.4167 C   0  0  2  0  0  0  0  0  0  0  0  0
   20.7037  -13.5941  -17.6711 N   0  0  0  0  0  0  0  0  0  0  0  0
   21.1403  -11.2242  -17.3859 C   0  0  0  0  0  0  0  0  0  0  0  0
   20.3259  -10.8961  -18.3049 O   0  0  0  0  0  0  0  0  0  0  0  0
   21.4354  -10.2653  -16.3823 N   0  0  0  0  0  0  0  0  0  0  0  0
   20.9335   -8.8858  -16.4335 C   0  0  1  0  0  0  0  0  0  0  0  0
   21.3775   -8.1073  -15.2506 C   0  0  0  0  0  0  0  0  0  0  0  0
   20.8272   -6.7105  -15.2869 C   0  0  0  0  0  0  0  0  0  0  0  0
   21.3165   -5.9098  -14.1161 C   0  0  0  0  0  0  0  0  0  0  0  0
   22.1349   -6.4544  -13.3346 O   0  0  0  0  0  0  0  0  0  0  0  0
   21.2570   -8.2589  -17.7226 C   0  0  0  0  0  0  0  0  0  0  0  0
   20.3058   -7.6572  -18.3319 O   0  0  0  0  0  0  0  0  0  0  0  0
   20.8767   -4.6182  -13.9119 O   0  0  0  0  0  0  0  0  0  0  0  0
   22.4694   -8.2366  -18.3611 O   0  0  0  0  0  0  0  0  0  0  0  0
  2  1  1  0
  2  3  2  0
  4  5  1  0
  4  2  1  0
  6  5  1  0
  6  7  1  1
  8  6  1  0
  9  8  2  0
 11 10  1  1
 11 12  1  0
 13 11  1  0
 13 14  1  6
 14  8  1  0
 15 13  1  0
 15 17  1  0
 16 15  2  0
 18 17  1  0
 18 19  1  1
 19 20  1  0
 20 21  1  0
 21 25  1  0
 21 22  2  0
 23 26  1  0
 23 18  1  0
 24 23  2  0
M  END
$$$$
