QTE.pdb
     RDKit          3D

 26 25  0  0  1  0  0  0  0  0999 V2000
   17.6000  -12.1375  -20.2331 N   0  0  0  0  0  0  0  0  0  0  0  0
   16.4089  -12.3511  -19.4382 C   0  0  0  0  0  0  0  0  0  0  0  0
   15.4829  -12.9537  -20.0313 O   0  0  0  0  0  0  0  0  0  0  0  0
   16.3374  -11.8742  -18.0475 C   0  0  0  0  0  0  0  0  0  0  0  0
   17.5224  -11.1256  -17.5363 C   0  0  0  0  0  0  0  0  0  0  0  0
   18.3200  -11.9430  -16.5911 C   0  0  2  0  0  0  0  0  0  0  0  0
   17.5186  -12.7656  -15.7298 N   0  0  0  0  0  0  0  0  0  0  0  0
   19.2803  -11.1773  -15.7865 C   0  0  0  0  0  0  0  0  0  0  0  0
   19.1004  -11.0307  -14.5456 O   0  0  0  0  0  0  0  0  0  0  0  0
   23.8134   -9.4976  -15.0812 C   0  0  0  0  0  0  0  0  0  0  0  0
   22.8045  -10.2611  -15.9158 C   0  0  1  0  0  0  0  0  0  0  0  0
   23.0225  -11.6153  -15.6711 O   0  0  0  0  0  0  0  0  0  0  0  0
   21.3921   -9.8466  -15.5829 C   0  0  2  0  0  0  0  0  0  0  0  0
   20.4183  -10.5921  -16.3869 N   0  0  0  0  0  0  0  0  0  0  0  0
   21.1765   -8.3938  -15.6933 C   0  0  0  0  0  0  0  0  0  0  0  0
   21.1310   -7.8743  -16.8524 O   0  0  0  0  0  0  0  0  0  0  0  0
   21.0157   -7.5390  -14.5721 N   0  0  0  0  0  0  0  0  0  0  0  0
   20.8865   -6.0814  -14.7002 C   0  0  1  0  0  0  0  0  0  0  0  0
   19.5523   -5.6174  -14.2451 C   0  0  0  0  0  0  0  0  0  0  0  0
   19.4718   -4.1178  -14.2516 C   0  0  0  0  0  0  0  0  0  0  0  0
   18.4323   -3.6397  -15.2222 C   0  0  0  0  0  0  0  0  0  0  0  0
   17.4167   -4.3582  -15.3942 O   0  0  0  0  0  0  0  0  0  0  0  0
   22.0147   -5.3973  -14.0531 C   0  0  0  0  0  0  0  0  0  0  0  0
   22.5441   -5.9771  -13.0423 O   0  0  0  0  0  0  0  0  0  0  0  0
   18.5945   -2.4488  -15.8995 O   0  0  0  0  0  0  0  0  0  0  0  0
   22.5797   -4.1994  -14.4049 O   0  0  0  0  0  0  0  0  0  0  0  0
  2  1  1  0
  2  3  2  0
  4  5  1  0
  4  2  1  0
  6  5  1  0
  6  7  1  1
  8  6  1  0
  9  8  2  0
 11 10  1  1
 11 12  1  0
 13 11  1  0
 13 14  1  6
 14  8  1  0
 15 13  1  0
 15 17  1  0
 16 15  2  0
 18 17  1  0
 18 19  1  1
 19 20  1  0
 20 21  1  0
 21 25  1  0
 21 22  2  0
 23 26  1  0
 23 18  1  0
 24 23  2  0
M  END
$$$$
