QTE.pdb
     RDKit          3D

 26 25  0  0  1  0  0  0  0  0999 V2000
   18.1644  -15.7291  -15.4718 N   0  0  0  0  0  0  0  0  0  0  0  0
   17.7192  -15.1622  -16.7274 C   0  0  0  0  0  0  0  0  0  0  0  0
   16.9977  -15.9196  -17.4189 O   0  0  0  0  0  0  0  0  0  0  0  0
   18.1142  -13.7994  -17.1193 C   0  0  0  0  0  0  0  0  0  0  0  0
   18.9679  -13.0478  -16.1540 C   0  0  0  0  0  0  0  0  0  0  0  0
   19.3105  -11.6979  -16.6622 C   0  0  2  0  0  0  0  0  0  0  0  0
   19.8746  -11.7104  -17.9822 N   0  0  0  0  0  0  0  0  0  0  0  0
   20.1690  -10.9117  -15.7674 C   0  0  0  0  0  0  0  0  0  0  0  0
   19.8681  -10.7773  -14.5487 O   0  0  0  0  0  0  0  0  0  0  0  0
   23.8822  -11.3369  -15.1992 C   0  0  0  0  0  0  0  0  0  0  0  0
   23.6507   -9.8761  -15.5308 C   0  0  1  0  0  0  0  0  0  0  0  0
   24.0946   -9.6850  -16.8376 O   0  0  0  0  0  0  0  0  0  0  0  0
   22.1984   -9.5003  -15.3662 C   0  0  2  0  0  0  0  0  0  0  0  0
   21.3427  -10.2930  -16.2549 N   0  0  0  0  0  0  0  0  0  0  0  0
   21.9536   -8.0577  -15.5346 C   0  0  0  0  0  0  0  0  0  0  0  0
   21.5253   -7.6427  -16.6569 O   0  0  0  0  0  0  0  0  0  0  0  0
   22.1704   -7.1020  -14.5083 N   0  0  0  0  0  0  0  0  0  0  0  0
   21.8582   -5.6764  -14.6754 C   0  0  1  0  0  0  0  0  0  0  0  0
   20.4392   -5.4781  -15.0623 C   0  0  0  0  0  0  0  0  0  0  0  0
   20.1094   -4.0171  -15.1718 C   0  0  0  0  0  0  0  0  0  0  0  0
   18.6956   -3.8186  -15.6333 C   0  0  0  0  0  0  0  0  0  0  0  0
   18.4995   -3.0513  -16.6079 O   0  0  0  0  0  0  0  0  0  0  0  0
   22.2729   -4.9080  -13.4935 C   0  0  0  0  0  0  0  0  0  0  0  0
   22.3988   -3.6425  -13.6372 O   0  0  0  0  0  0  0  0  0  0  0  0
   17.6509   -4.4616  -15.0020 O   0  0  0  0  0  0  0  0  0  0  0  0
   22.5428   -5.3857  -12.2376 O   0  0  0  0  0  0  0  0  0  0  0  0
  2  1  1  0
  2  3  2  0
  4  5  1  0
  4  2  1  0
  6  5  1  0
  6  7  1  6
  8  6  1  0
  9  8  2  0
 11 10  1  6
 11 12  1  0
 13 11  1  0
 13 14  1  6
 14  8  1  0
 15 13  1  0
 15 17  1  0
 16 15  2  0
 18 17  1  0
 18 19  1  1
 19 20  1  0
 20 21  1  0
 21 25  1  0
 21 22  2  0
 23 26  1  0
 23 18  1  0
 24 23  2  0
M  END
$$$$
