TWP.pdb
     RDKit          3D

 29 31  0  0  1  0  0  0  0  0999 V2000
   23.3606  -17.2223  -16.1234 C   0  0  0  0  0  0  0  0  0  0  0  0
   24.1208  -17.5970  -17.3461 C   0  0  1  0  0  0  0  0  0  0  0  0
   23.8883  -16.6948  -18.3595 O   0  0  0  0  0  0  0  0  0  0  0  0
   25.6111  -17.7912  -17.0920 C   0  0  2  0  0  0  0  0  0  0  0  0
   26.1826  -18.1067  -18.3966 N   0  0  0  0  0  0  0  0  0  0  0  0
   25.8422  -18.8892  -16.0993 C   0  0  0  0  0  0  0  0  0  0  0  0
   25.5085  -20.0528  -16.4323 O   0  0  0  0  0  0  0  0  0  0  0  0
   26.4187  -18.6185  -14.8544 N   0  0  0  0  0  0  0  0  0  0  0  0
   26.5126  -19.4584  -13.7246 C   0  0  1  0  0  0  0  0  0  0  0  0
   27.6234  -18.8763  -12.7731 C   0  0  0  0  0  0  0  0  0  0  0  0
   27.9100  -19.8126  -11.6629 C   0  0  0  0  0  0  0  0  0  0  0  0
   28.6121  -21.0195  -11.8318 C   0  0  0  0  0  0  0  0  0  0  0  0
   28.7064  -21.6645  -10.6646 N   0  0  0  0  0  0  0  0  0  0  0  0
   28.0852  -20.9161   -9.7034 C   0  0  0  0  0  0  0  0  0  0  0  0
   27.9165  -21.1485   -8.3608 C   0  0  0  0  0  0  0  0  0  0  0  0
   27.2275  -20.1813   -7.6334 C   0  0  0  0  0  0  0  0  0  0  0  0
   26.7359  -19.0496   -8.2282 C   0  0  0  0  0  0  0  0  0  0  0  0
   26.9161  -18.8430   -9.5718 C   0  0  0  0  0  0  0  0  0  0  0  0
   27.5975  -19.7767  -10.3381 C   0  0  0  0  0  0  0  0  0  0  0  0
   25.3193  -19.6966  -12.9423 C   0  0  0  0  0  0  0  0  0  0  0  0
   24.5793  -18.7388  -12.5255 O   0  0  0  0  0  0  0  0  0  0  0  0
   24.8721  -21.0097  -12.5782 N   0  0  0  0  0  0  0  0  0  0  0  0
   25.4888  -22.2466  -12.8949 C   0  0  0  0  0  0  0  0  0  0  0  0
   24.2849  -23.1236  -13.2937 C   0  0  0  0  0  0  0  0  0  0  0  0
   23.2325  -22.6580  -12.3411 C   0  0  0  0  0  0  0  0  0  0  0  0
   23.6159  -21.2929  -11.8723 C   0  0  1  0  0  0  0  0  0  0  0  0
   23.8662  -21.3516  -10.4097 C   0  0  0  0  0  0  0  0  0  0  0  0
   25.1030  -21.5343   -9.8363 O   0  0  0  0  0  0  0  0  0  0  0  0
   22.9013  -21.2300   -9.5676 O   0  0  0  0  0  0  0  0  0  0  0  0
  2  1  1  1
  2  3  1  0
  4  2  1  0
  4  5  1  6
  6  7  2  0
  6  4  1  0
  8  6  1  0
  9  8  1  0
  9 10  1  1
 10 11  1  0
 11 19  1  0
 11 12  2  0
 12 13  1  0
 14 13  1  0
 14 15  2  0
 16 15  1  0
 17 16  2  0
 18 19  2  0
 18 17  1  0
 19 14  1  0
 20  9  1  0
 21 20  2  0
 22 20  1  0
 22 26  1  0
 23 24  1  0
 23 22  1  0
 24 25  1  0
 25 26  1  0
 26 27  1  1
 27 28  1  0
 29 27  2  0
M  END
$$$$
