TWP.pdb
     RDKit          3D

 29 31  0  0  1  0  0  0  0  0999 V2000
   27.9722  -20.6289  -18.2924 C   0  0  0  0  0  0  0  0  0  0  0  0
   28.7965  -21.8671  -18.3193 C   0  0  1  0  0  0  0  0  0  0  0  0
   29.7507  -21.7953  -19.3089 O   0  0  0  0  0  0  0  0  0  0  0  0
   29.4088  -22.2115  -16.9667 C   0  0  2  0  0  0  0  0  0  0  0  0
   30.0814  -23.4904  -17.1669 N   0  0  0  0  0  0  0  0  0  0  0  0
   28.3501  -22.2953  -15.9100 C   0  0  0  0  0  0  0  0  0  0  0  0
   27.5310  -23.2441  -15.9826 O   0  0  0  0  0  0  0  0  0  0  0  0
   28.2917  -21.3522  -14.8793 N   0  0  0  0  0  0  0  0  0  0  0  0
   27.3250  -21.2178  -13.8604 C   0  0  1  0  0  0  0  0  0  0  0  0
   27.8791  -20.2047  -12.7906 C   0  0  0  0  0  0  0  0  0  0  0  0
   27.1319  -20.3209  -11.5180 C   0  0  0  0  0  0  0  0  0  0  0  0
   25.7461  -20.1049  -11.4132 C   0  0  0  0  0  0  0  0  0  0  0  0
   25.3501  -20.2626  -10.1461 N   0  0  0  0  0  0  0  0  0  0  0  0
   26.4406  -20.5865   -9.3873 C   0  0  0  0  0  0  0  0  0  0  0  0
   26.5485  -20.8460   -8.0435 C   0  0  0  0  0  0  0  0  0  0  0  0
   27.8174  -21.1520   -7.5585 C   0  0  0  0  0  0  0  0  0  0  0  0
   28.9115  -21.1899   -8.3819 C   0  0  0  0  0  0  0  0  0  0  0  0
   28.7766  -20.9242   -9.7203 C   0  0  0  0  0  0  0  0  0  0  0  0
   27.5327  -20.6163  -10.2507 C   0  0  0  0  0  0  0  0  0  0  0  0
   25.9878  -20.8074  -14.2294 C   0  0  0  0  0  0  0  0  0  0  0  0
   25.7655  -19.7293  -14.8829 O   0  0  0  0  0  0  0  0  0  0  0  0
   24.8175  -21.5681  -13.9003 N   0  0  0  0  0  0  0  0  0  0  0  0
   24.7501  -22.7438  -13.1105 C   0  0  0  0  0  0  0  0  0  0  0  0
   23.7786  -23.6286  -13.9170 C   0  0  0  0  0  0  0  0  0  0  0  0
   22.8032  -22.6241  -14.4378 C   0  0  0  0  0  0  0  0  0  0  0  0
   23.4727  -21.2893  -14.4203 C   0  0  1  0  0  0  0  0  0  0  0  0
   22.7422  -20.4098  -13.4726 C   0  0  0  0  0  0  0  0  0  0  0  0
   23.1593  -20.1242  -12.1934 O   0  0  0  0  0  0  0  0  0  0  0  0
   21.6366  -19.8459  -13.8108 O   0  0  0  0  0  0  0  0  0  0  0  0
  2  1  1  1
  2  3  1  0
  4  2  1  0
  4  5  1  6
  6  7  2  0
  6  4  1  0
  8  6  1  0
  9  8  1  0
  9 10  1  1
 10 11  1  0
 11 19  1  0
 11 12  2  0
 12 13  1  0
 14 13  1  0
 14 15  2  0
 16 15  1  0
 17 16  2  0
 18 19  2  0
 18 17  1  0
 19 14  1  0
 20  9  1  0
 21 20  2  0
 22 20  1  0
 22 26  1  0
 23 24  1  0
 23 22  1  0
 24 25  1  0
 25 26  1  0
 26 27  1  1
 27 28  1  0
 29 27  2  0
M  END
$$$$
