TWP.pdb
     RDKit          3D

 29 31  0  0  1  0  0  0  0  0999 V2000
   27.0388  -15.5093  -15.7100 C   0  0  0  0  0  0  0  0  0  0  0  0
   26.6248  -16.7303  -14.9678 C   0  0  1  0  0  0  0  0  0  0  0  0
   25.6646  -17.4241  -15.6690 O   0  0  0  0  0  0  0  0  0  0  0  0
   27.7967  -17.6234  -14.5776 C   0  0  2  0  0  0  0  0  0  0  0  0
   28.3297  -18.1261  -15.8391 N   0  0  0  0  0  0  0  0  0  0  0  0
   27.3428  -18.7335  -13.6798 C   0  0  0  0  0  0  0  0  0  0  0  0
   26.8463  -19.7518  -14.2208 O   0  0  0  0  0  0  0  0  0  0  0  0
   27.4813  -18.6332  -12.2919 N   0  0  0  0  0  0  0  0  0  0  0  0
   26.9554  -19.4758  -11.2898 C   0  0  1  0  0  0  0  0  0  0  0  0
   27.5409  -19.0125   -9.9040 C   0  0  0  0  0  0  0  0  0  0  0  0
   27.1188  -19.9289   -8.8207 C   0  0  0  0  0  0  0  0  0  0  0  0
   26.5437  -21.1905   -9.0562 C   0  0  0  0  0  0  0  0  0  0  0  0
   26.2494  -21.7861   -7.8960 N   0  0  0  0  0  0  0  0  0  0  0  0
   26.6181  -20.9545   -6.8750 C   0  0  0  0  0  0  0  0  0  0  0  0
   26.5236  -21.1140   -5.5147 C   0  0  0  0  0  0  0  0  0  0  0  0
   26.9941  -20.0706   -4.7215 C   0  0  0  0  0  0  0  0  0  0  0  0
   27.5248  -18.9335   -5.2707 C   0  0  0  0  0  0  0  0  0  0  0  0
   27.6053  -18.7984   -6.6329 C   0  0  0  0  0  0  0  0  0  0  0  0
   27.1516  -19.8113   -7.4645 C   0  0  0  0  0  0  0  0  0  0  0  0
   25.5183  -19.5847  -11.1657 C   0  0  0  0  0  0  0  0  0  0  0  0
   24.7770  -18.5635  -10.9501 O   0  0  0  0  0  0  0  0  0  0  0  0
   24.8158  -20.8300  -11.2770 N   0  0  0  0  0  0  0  0  0  0  0  0
   25.3761  -22.1315  -11.3307 C   0  0  0  0  0  0  0  0  0  0  0  0
   24.5448  -22.8037  -12.4417 C   0  0  0  0  0  0  0  0  0  0  0  0
   23.1877  -22.2246  -12.2075 C   0  0  0  0  0  0  0  0  0  0  0  0
   23.3622  -20.9510  -11.4475 C   0  0  1  0  0  0  0  0  0  0  0  0
   22.7138  -21.1034  -10.1202 C   0  0  0  0  0  0  0  0  0  0  0  0
   23.3811  -21.4040   -8.9556 O   0  0  0  0  0  0  0  0  0  0  0  0
   21.4431  -20.9567   -9.9835 O   0  0  0  0  0  0  0  0  0  0  0  0
  2  1  1  6
  2  3  1  0
  4  2  1  0
  4  5  1  6
  6  7  2  0
  6  4  1  0
  8  6  1  0
  9  8  1  0
  9 10  1  1
 10 11  1  0
 11 19  1  0
 11 12  2  0
 12 13  1  0
 14 13  1  0
 14 15  2  0
 16 15  1  0
 17 16  2  0
 18 19  2  0
 18 17  1  0
 19 14  1  0
 20  9  1  0
 21 20  2  0
 22 20  1  0
 22 26  1  0
 23 24  1  0
 23 22  1  0
 24 25  1  0
 25 26  1  0
 26 27  1  1
 27 28  1  0
 29 27  2  0
M  END
$$$$
