TWP.pdb
     RDKit          3D

 29 31  0  0  1  0  0  0  0  0999 V2000
   22.3365  -22.1227  -13.1308 C   0  0  0  0  0  0  0  0  0  0  0  0
   23.6992  -21.7888  -12.6360 C   0  0  1  0  0  0  0  0  0  0  0  0
   24.6603  -22.2558  -13.5039 O   0  0  0  0  0  0  0  0  0  0  0  0
   23.8826  -20.3063  -12.3329 C   0  0  2  0  0  0  0  0  0  0  0  0
   23.8545  -19.6448  -13.6328 N   0  0  0  0  0  0  0  0  0  0  0  0
   25.1733  -20.0673  -11.6110 C   0  0  0  0  0  0  0  0  0  0  0  0
   26.1767  -19.7617  -12.3010 O   0  0  0  0  0  0  0  0  0  0  0  0
   25.2446  -20.1732  -10.2185 N   0  0  0  0  0  0  0  0  0  0  0  0
   26.3798  -20.0922   -9.3846 C   0  0  1  0  0  0  0  0  0  0  0  0
   25.8908  -19.7805   -7.9212 C   0  0  0  0  0  0  0  0  0  0  0  0
   27.0071  -19.2793   -7.0880 C   0  0  0  0  0  0  0  0  0  0  0  0
   27.5487  -17.9879   -7.2179 C   0  0  0  0  0  0  0  0  0  0  0  0
   28.5518  -17.8199   -6.3502 N   0  0  0  0  0  0  0  0  0  0  0  0
   28.6996  -18.9721   -5.6288 C   0  0  0  0  0  0  0  0  0  0  0  0
   29.5828  -19.2920   -4.6276 C   0  0  0  0  0  0  0  0  0  0  0  0
   29.4822  -20.5683   -4.0795 C   0  0  0  0  0  0  0  0  0  0  0  0
   28.5475  -21.4676   -4.5197 C   0  0  0  0  0  0  0  0  0  0  0  0
   27.6786  -21.1235   -5.5232 C   0  0  0  0  0  0  0  0  0  0  0  0
   27.7385  -19.8633   -6.0991 C   0  0  0  0  0  0  0  0  0  0  0  0
   27.2801  -21.2234   -9.3348 C   0  0  0  0  0  0  0  0  0  0  0  0
   26.8558  -22.4215   -9.1821 O   0  0  0  0  0  0  0  0  0  0  0  0
   28.7034  -21.0960   -9.4551 N   0  0  0  0  0  0  0  0  0  0  0  0
   29.4570  -19.8966   -9.5193 C   0  0  0  0  0  0  0  0  0  0  0  0
   30.4757  -20.2055  -10.6347 C   0  0  0  0  0  0  0  0  0  0  0  0
   30.7700  -21.6504  -10.3950 C   0  0  0  0  0  0  0  0  0  0  0  0
   29.6267  -22.2253   -9.6253 C   0  0  1  0  0  0  0  0  0  0  0  0
   30.1279  -22.6661   -8.2987 C   0  0  0  0  0  0  0  0  0  0  0  0
   29.8887  -22.0066   -7.1156 O   0  0  0  0  0  0  0  0  0  0  0  0
   30.8407  -23.7304   -8.1807 O   0  0  0  0  0  0  0  0  0  0  0  0
  2  1  1  6
  2  3  1  0
  4  2  1  0
  4  5  1  6
  6  7  2  0
  6  4  1  0
  8  6  1  0
  9  8  1  0
  9 10  1  1
 10 11  1  0
 11 19  1  0
 11 12  2  0
 12 13  1  0
 14 13  1  0
 14 15  2  0
 16 15  1  0
 17 16  2  0
 18 19  2  0
 18 17  1  0
 19 14  1  0
 20  9  1  0
 21 20  2  0
 22 20  1  0
 22 26  1  0
 23 24  1  0
 23 22  1  0
 24 25  1  0
 25 26  1  0
 26 27  1  1
 27 28  1  0
 29 27  2  0
M  END
$$$$
