TWP.pdb
     RDKit          3D

 29 31  0  0  1  0  0  0  0  0999 V2000
   23.5848  -22.8330  -13.2451 C   0  0  0  0  0  0  0  0  0  0  0  0
   22.6077  -21.7264  -13.4292 C   0  0  1  0  0  0  0  0  0  0  0  0
   21.4391  -22.1961  -13.9848 O   0  0  0  0  0  0  0  0  0  0  0  0
   22.3491  -20.9338  -12.1532 C   0  0  2  0  0  0  0  0  0  0  0  0
   21.3976  -19.8961  -12.5349 N   0  0  0  0  0  0  0  0  0  0  0  0
   23.6239  -20.3554  -11.6194 C   0  0  0  0  0  0  0  0  0  0  0  0
   24.1775  -19.4511  -12.2916 O   0  0  0  0  0  0  0  0  0  0  0  0
   24.1631  -20.8064  -10.4106 N   0  0  0  0  0  0  0  0  0  0  0  0
   25.4421  -20.5592   -9.8686 C   0  0  1  0  0  0  0  0  0  0  0  0
   25.3592  -20.7565   -8.3091 C   0  0  0  0  0  0  0  0  0  0  0  0
   26.4102  -19.9723   -7.6220 C   0  0  0  0  0  0  0  0  0  0  0  0
   26.7007  -18.6316   -7.9320 C   0  0  0  0  0  0  0  0  0  0  0  0
   27.7028  -18.1887   -7.1659 N   0  0  0  0  0  0  0  0  0  0  0  0
   28.0966  -19.2024   -6.3369 C   0  0  0  0  0  0  0  0  0  0  0  0
   29.0768  -19.2411   -5.3764 C   0  0  0  0  0  0  0  0  0  0  0  0
   29.2395  -20.4400   -4.6869 C   0  0  0  0  0  0  0  0  0  0  0  0
   28.4606  -21.5344   -4.9550 C   0  0  0  0  0  0  0  0  0  0  0  0
   27.4899  -21.4699   -5.9213 C   0  0  0  0  0  0  0  0  0  0  0  0
   27.2886  -20.2970   -6.6336 C   0  0  0  0  0  0  0  0  0  0  0  0
   26.5619  -21.3271  -10.3678 C   0  0  0  0  0  0  0  0  0  0  0  0
   26.5990  -22.6040  -10.2854 O   0  0  0  0  0  0  0  0  0  0  0  0
   27.7054  -20.7272  -10.9916 N   0  0  0  0  0  0  0  0  0  0  0  0
   27.9564  -19.3442  -11.1782 C   0  0  0  0  0  0  0  0  0  0  0  0
   28.4954  -19.2980  -12.6221 C   0  0  0  0  0  0  0  0  0  0  0  0
   29.2963  -20.5570  -12.6950 C   0  0  0  0  0  0  0  0  0  0  0  0
   28.7902  -21.4794  -11.6352 C   0  0  1  0  0  0  0  0  0  0  0  0
   29.8828  -21.7167  -10.6579 C   0  0  0  0  0  0  0  0  0  0  0  0
   30.9576  -22.5469  -10.8753 O   0  0  0  0  0  0  0  0  0  0  0  0
   29.8822  -21.1353   -9.5103 O   0  0  0  0  0  0  0  0  0  0  0  0
  2  1  1  1
  2  3  1  0
  4  2  1  0
  4  5  1  6
  6  7  2  0
  6  4  1  0
  8  6  1  0
  9  8  1  0
  9 10  1  1
 10 11  1  0
 11 19  1  0
 11 12  2  0
 12 13  1  0
 14 13  1  0
 14 15  2  0
 16 15  1  0
 17 16  2  0
 18 19  2  0
 18 17  1  0
 19 14  1  0
 20  9  1  0
 21 20  2  0
 22 20  1  0
 22 26  1  0
 23 24  1  0
 23 22  1  0
 24 25  1  0
 25 26  1  0
 26 27  1  1
 27 28  1  0
 29 27  2  0
M  END
$$$$
