TWP.pdb
     RDKit          3D

 29 31  0  0  1  0  0  0  0  0999 V2000
   28.9468  -18.9866  -18.3646 C   0  0  0  0  0  0  0  0  0  0  0  0
   28.0730  -19.6595  -17.3662 C   0  0  1  0  0  0  0  0  0  0  0  0
   26.8869  -20.0526  -17.9438 O   0  0  0  0  0  0  0  0  0  0  0  0
   28.7608  -20.8129  -16.6451 C   0  0  2  0  0  0  0  0  0  0  0  0
   29.0046  -21.8160  -17.6758 N   0  0  0  0  0  0  0  0  0  0  0  0
   27.8954  -21.3420  -15.5427 C   0  0  0  0  0  0  0  0  0  0  0  0
   27.0770  -22.2492  -15.8314 O   0  0  0  0  0  0  0  0  0  0  0  0
   28.0104  -20.8439  -14.2411 N   0  0  0  0  0  0  0  0  0  0  0  0
   27.1255  -21.0042  -13.1539 C   0  0  1  0  0  0  0  0  0  0  0  0
   27.7666  -20.3104  -11.8947 C   0  0  0  0  0  0  0  0  0  0  0  0
   26.8497  -20.3737  -10.7342 C   0  0  0  0  0  0  0  0  0  0  0  0
   25.4559  -20.5150  -10.8576 C   0  0  0  0  0  0  0  0  0  0  0  0
   24.8854  -20.5259   -9.6486 N   0  0  0  0  0  0  0  0  0  0  0  0
   25.8663  -20.3991   -8.7043 C   0  0  0  0  0  0  0  0  0  0  0  0
   25.7874  -20.3586   -7.3343 C   0  0  0  0  0  0  0  0  0  0  0  0
   26.9842  -20.2201   -6.6358 C   0  0  0  0  0  0  0  0  0  0  0  0
   28.1873  -20.1250   -7.2836 C   0  0  0  0  0  0  0  0  0  0  0  0
   28.2381  -20.1658   -8.6533 C   0  0  0  0  0  0  0  0  0  0  0  0
   27.0730  -20.3045   -9.3928 C   0  0  0  0  0  0  0  0  0  0  0  0
   25.7667  -20.5286  -13.2958 C   0  0  0  0  0  0  0  0  0  0  0  0
   25.4991  -19.2962  -13.5153 O   0  0  0  0  0  0  0  0  0  0  0  0
   24.6235  -21.3899  -13.2073 N   0  0  0  0  0  0  0  0  0  0  0  0
   24.6062  -22.7620  -12.8501 C   0  0  0  0  0  0  0  0  0  0  0  0
   23.6252  -23.3591  -13.8789 C   0  0  0  0  0  0  0  0  0  0  0  0
   22.6130  -22.2684  -14.0121 C   0  0  0  0  0  0  0  0  0  0  0  0
   23.2564  -20.9952  -13.5706 C   0  0  1  0  0  0  0  0  0  0  0  0
   22.5418  -20.5006  -12.3664 C   0  0  0  0  0  0  0  0  0  0  0  0
   21.3462  -19.8211  -12.3927 O   0  0  0  0  0  0  0  0  0  0  0  0
   23.0221  -20.6885  -11.1880 O   0  0  0  0  0  0  0  0  0  0  0  0
  2  1  1  6
  2  3  1  0
  4  2  1  0
  4  5  1  6
  6  7  2  0
  6  4  1  0
  8  6  1  0
  9  8  1  0
  9 10  1  1
 10 11  1  0
 11 19  1  0
 11 12  2  0
 12 13  1  0
 14 13  1  0
 14 15  2  0
 16 15  1  0
 17 16  2  0
 18 19  2  0
 18 17  1  0
 19 14  1  0
 20  9  1  0
 21 20  2  0
 22 20  1  0
 22 26  1  0
 23 24  1  0
 23 22  1  0
 24 25  1  0
 25 26  1  0
 26 27  1  1
 27 28  1  0
 29 27  2  0
M  END
$$$$
