TWP.pdb
     RDKit          3D

 29 31  0  0  1  0  0  0  0  0999 V2000
   29.4450  -20.6372  -15.0059 C   0  0  0  0  0  0  0  0  0  0  0  0
   28.9313  -20.1453  -13.6993 C   0  0  1  0  0  0  0  0  0  0  0  0
   29.3231  -18.8438  -13.4810 O   0  0  0  0  0  0  0  0  0  0  0  0
   27.4250  -20.3169  -13.5420 C   0  0  2  0  0  0  0  0  0  0  0  0
   26.8351  -19.4777  -14.5793 N   0  0  0  0  0  0  0  0  0  0  0  0
   26.9836  -19.9053  -12.1708 C   0  0  0  0  0  0  0  0  0  0  0  0
   26.6389  -18.7094  -12.0063 O   0  0  0  0  0  0  0  0  0  0  0  0
   26.9507  -20.8298  -11.1222 N   0  0  0  0  0  0  0  0  0  0  0  0
   26.5975  -20.6203   -9.7724 C   0  0  1  0  0  0  0  0  0  0  0  0
   25.3896  -21.5697   -9.4296 C   0  0  0  0  0  0  0  0  0  0  0  0
   24.1188  -21.0132   -9.9462 C   0  0  0  0  0  0  0  0  0  0  0  0
   23.2444  -20.2329   -9.1687 C   0  0  0  0  0  0  0  0  0  0  0  0
   22.1738  -19.8844   -9.8896 N   0  0  0  0  0  0  0  0  0  0  0  0
   22.3060  -20.4096  -11.1453 C   0  0  0  0  0  0  0  0  0  0  0  0
   21.4786  -20.3312  -12.2380 C   0  0  0  0  0  0  0  0  0  0  0  0
   21.8962  -20.9830  -13.3955 C   0  0  0  0  0  0  0  0  0  0  0  0
   23.0773  -21.6750  -13.4440 C   0  0  0  0  0  0  0  0  0  0  0  0
   23.8844  -21.7398  -12.3374 C   0  0  0  0  0  0  0  0  0  0  0  0
   23.5122  -21.1052  -11.1618 C   0  0  0  0  0  0  0  0  0  0  0  0
   27.6159  -20.7920   -8.7594 C   0  0  0  0  0  0  0  0  0  0  0  0
   28.5555  -21.6528   -8.8814 O   0  0  0  0  0  0  0  0  0  0  0  0
   27.6569  -20.0181   -7.5527 N   0  0  0  0  0  0  0  0  0  0  0  0
   26.8018  -18.9471   -7.1886 C   0  0  0  0  0  0  0  0  0  0  0  0
   27.7903  -17.9201   -6.6007 C   0  0  0  0  0  0  0  0  0  0  0  0
   28.7718  -18.8006   -5.8986 C   0  0  0  0  0  0  0  0  0  0  0  0
   28.6806  -20.1603   -6.5095 C   0  0  1  0  0  0  0  0  0  0  0  0
   28.2082  -21.1111   -5.4712 C   0  0  0  0  0  0  0  0  0  0  0  0
   28.9799  -21.5808   -4.4341 O   0  0  0  0  0  0  0  0  0  0  0  0
   27.0043  -21.5641   -5.4872 O   0  0  0  0  0  0  0  0  0  0  0  0
  2  1  1  6
  2  3  1  0
  4  2  1  0
  4  5  1  6
  6  7  2  0
  6  4  1  0
  8  6  1  0
  9  8  1  0
  9 10  1  1
 10 11  1  0
 11 19  1  0
 11 12  2  0
 12 13  1  0
 14 13  1  0
 14 15  2  0
 16 15  1  0
 17 16  2  0
 18 19  2  0
 18 17  1  0
 19 14  1  0
 20  9  1  0
 21 20  2  0
 22 20  1  0
 22 26  1  0
 23 24  1  0
 23 22  1  0
 24 25  1  0
 25 26  1  0
 26 27  1  1
 27 28  1  0
 29 27  2  0
M  END
$$$$
