TWP.pdb
     RDKit          3D

 29 31  0  0  1  0  0  0  0  0999 V2000
   29.4279  -25.5395  -18.4783 C   0  0  0  0  0  0  0  0  0  0  0  0
   28.9937  -24.4645  -17.5460 C   0  0  1  0  0  0  0  0  0  0  0  0
   29.6574  -24.5650  -16.3442 O   0  0  0  0  0  0  0  0  0  0  0  0
   29.1119  -23.0669  -18.1426 C   0  0  2  0  0  0  0  0  0  0  0  0
   30.5382  -22.8724  -18.3790 N   0  0  0  0  0  0  0  0  0  0  0  0
   28.5548  -22.0400  -17.2048 C   0  0  0  0  0  0  0  0  0  0  0  0
   29.3620  -21.4445  -16.4497 O   0  0  0  0  0  0  0  0  0  0  0  0
   27.1859  -21.7554  -17.1866 N   0  0  0  0  0  0  0  0  0  0  0  0
   26.4776  -20.8827  -16.3337 C   0  0  1  0  0  0  0  0  0  0  0  0
   25.4281  -20.0942  -17.2024 C   0  0  0  0  0  0  0  0  0  0  0  0
   24.6959  -19.1073  -16.3770 C   0  0  0  0  0  0  0  0  0  0  0  0
   25.2800  -17.9262  -15.8853 C   0  0  0  0  0  0  0  0  0  0  0  0
   24.3903  -17.2393  -15.1616 N   0  0  0  0  0  0  0  0  0  0  0  0
   23.2097  -17.9293  -15.1556 C   0  0  0  0  0  0  0  0  0  0  0  0
   22.0081  -17.6383  -14.5588 C   0  0  0  0  0  0  0  0  0  0  0  0
   20.9743  -18.5538  -14.7391 C   0  0  0  0  0  0  0  0  0  0  0  0
   21.1464  -19.6959  -15.4755 C   0  0  0  0  0  0  0  0  0  0  0  0
   22.3579  -19.9639  -16.0593 C   0  0  0  0  0  0  0  0  0  0  0  0
   23.4172  -19.0813  -15.9097 C   0  0  0  0  0  0  0  0  0  0  0  0
   25.7944  -21.4430  -15.1883 C   0  0  0  0  0  0  0  0  0  0  0  0
   25.1315  -22.5357  -15.2618 O   0  0  0  0  0  0  0  0  0  0  0  0
   25.8078  -20.8291  -13.8923 N   0  0  0  0  0  0  0  0  0  0  0  0
   26.4706  -19.6341  -13.5137 C   0  0  0  0  0  0  0  0  0  0  0  0
   27.0802  -20.0123  -12.1489 C   0  0  0  0  0  0  0  0  0  0  0  0
   26.0174  -20.8852  -11.5654 C   0  0  0  0  0  0  0  0  0  0  0  0
   25.1894  -21.4082  -12.6928 C   0  0  1  0  0  0  0  0  0  0  0  0
   23.8070  -20.8870  -12.5414 C   0  0  0  0  0  0  0  0  0  0  0  0
   22.8647  -21.4109  -11.6873 O   0  0  0  0  0  0  0  0  0  0  0  0
   23.4011  -19.8781  -13.2284 O   0  0  0  0  0  0  0  0  0  0  0  0
  2  1  1  6
  2  3  1  0
  4  2  1  0
  4  5  1  1
  6  7  2  0
  6  4  1  0
  8  6  1  0
  9  8  1  0
  9 10  1  6
 10 11  1  0
 11 19  1  0
 11 12  2  0
 12 13  1  0
 14 13  1  0
 14 15  2  0
 16 15  1  0
 17 16  2  0
 18 19  2  0
 18 17  1  0
 19 14  1  0
 20  9  1  0
 21 20  2  0
 22 20  1  0
 22 26  1  0
 23 24  1  0
 23 22  1  0
 24 25  1  0
 25 26  1  0
 26 27  1  1
 27 28  1  0
 29 27  2  0
M  END
$$$$
