TWP.pdb
     RDKit          3D

 29 31  0  0  1  0  0  0  0  0999 V2000
   19.2713  -20.4758  -16.8620 C   0  0  0  0  0  0  0  0  0  0  0  0
   20.4604  -19.9495  -16.1392 C   0  0  1  0  0  0  0  0  0  0  0  0
   20.1133  -19.5220  -14.8776 O   0  0  0  0  0  0  0  0  0  0  0  0
   21.6257  -20.9313  -16.1035 C   0  0  2  0  0  0  0  0  0  0  0  0
   21.1430  -22.0684  -15.3276 N   0  0  0  0  0  0  0  0  0  0  0  0
   22.8330  -20.3004  -15.4800 C   0  0  0  0  0  0  0  0  0  0  0  0
   23.3522  -19.3254  -16.0767 O   0  0  0  0  0  0  0  0  0  0  0  0
   23.3484  -20.7811  -14.2723 N   0  0  0  0  0  0  0  0  0  0  0  0
   24.5429  -20.4167  -13.6157 C   0  0  1  0  0  0  0  0  0  0  0  0
   24.4076  -20.8127  -12.0982 C   0  0  0  0  0  0  0  0  0  0  0  0
   25.4279  -20.1195  -11.2797 C   0  0  0  0  0  0  0  0  0  0  0  0
   25.4237  -18.7316  -11.0523 C   0  0  0  0  0  0  0  0  0  0  0  0
   26.4693  -18.3860  -10.2944 N   0  0  0  0  0  0  0  0  0  0  0  0
   27.1827  -19.5144   -9.9980 C   0  0  0  0  0  0  0  0  0  0  0  0
   28.3260  -19.6791   -9.2560 C   0  0  0  0  0  0  0  0  0  0  0  0
   28.8196  -20.9755   -9.1343 C   0  0  0  0  0  0  0  0  0  0  0  0
   28.1967  -22.0403   -9.7297 C   0  0  0  0  0  0  0  0  0  0  0  0
   27.0571  -21.8480  -10.4677 C   0  0  0  0  0  0  0  0  0  0  0  0
   26.5261  -20.5754  -10.6162 C   0  0  0  0  0  0  0  0  0  0  0  0
   25.7930  -20.9452  -14.1165 C   0  0  0  0  0  0  0  0  0  0  0  0
   25.9513  -22.1908  -14.3657 O   0  0  0  0  0  0  0  0  0  0  0  0
   26.9410  -20.1254  -14.3749 N   0  0  0  0  0  0  0  0  0  0  0  0
   27.1107  -18.7560  -14.0485 C   0  0  0  0  0  0  0  0  0  0  0  0
   27.7652  -18.1906  -15.3250 C   0  0  0  0  0  0  0  0  0  0  0  0
   28.6544  -19.3161  -15.7426 C   0  0  0  0  0  0  0  0  0  0  0  0
   28.1255  -20.5672  -15.1221 C   0  0  1  0  0  0  0  0  0  0  0  0
   29.1456  -21.0911  -14.1784 C   0  0  0  0  0  0  0  0  0  0  0  0
   30.2903  -21.7538  -14.5556 O   0  0  0  0  0  0  0  0  0  0  0  0
   29.0073  -20.9474  -12.9076 O   0  0  0  0  0  0  0  0  0  0  0  0
  2  1  1  1
  2  3  1  0
  4  2  1  0
  4  5  1  1
  6  7  2  0
  6  4  1  0
  8  6  1  0
  9  8  1  0
  9 10  1  1
 10 11  1  0
 11 19  1  0
 11 12  2  0
 12 13  1  0
 14 13  1  0
 14 15  2  0
 16 15  1  0
 17 16  2  0
 18 19  2  0
 18 17  1  0
 19 14  1  0
 20  9  1  0
 21 20  2  0
 22 20  1  0
 22 26  1  0
 23 24  1  0
 23 22  1  0
 24 25  1  0
 25 26  1  0
 26 27  1  1
 27 28  1  0
 29 27  2  0
M  END
$$$$
