TWP.pdb
     RDKit          3D

 29 31  0  0  1  0  0  0  0  0999 V2000
   27.3356  -14.1202  -20.4517 C   0  0  0  0  0  0  0  0  0  0  0  0
   27.4395  -15.6034  -20.4008 C   0  0  1  0  0  0  0  0  0  0  0  0
   28.6504  -16.0241  -20.9028 O   0  0  0  0  0  0  0  0  0  0  0  0
   27.1710  -16.1780  -19.0148 C   0  0  2  0  0  0  0  0  0  0  0  0
   27.3685  -17.6167  -19.1535 N   0  0  0  0  0  0  0  0  0  0  0  0
   25.7826  -15.8448  -18.5613 C   0  0  0  0  0  0  0  0  0  0  0  0
   24.8283  -16.4099  -19.1495 O   0  0  0  0  0  0  0  0  0  0  0  0
   25.5692  -14.9439  -17.5134 N   0  0  0  0  0  0  0  0  0  0  0  0
   24.3469  -14.4548  -17.0059 C   0  0  1  0  0  0  0  0  0  0  0  0
   24.3582  -14.6372  -15.4424 C   0  0  0  0  0  0  0  0  0  0  0  0
   24.2237  -16.0656  -15.0775 C   0  0  0  0  0  0  0  0  0  0  0  0
   25.3230  -16.9039  -14.8192 C   0  0  0  0  0  0  0  0  0  0  0  0
   24.9020  -18.1399  -14.5322 N   0  0  0  0  0  0  0  0  0  0  0  0
   23.5357  -18.1568  -14.5859 C   0  0  0  0  0  0  0  0  0  0  0  0
   22.6460  -19.1799  -14.3703 C   0  0  0  0  0  0  0  0  0  0  0  0
   21.2926  -18.8792  -14.5018 C   0  0  0  0  0  0  0  0  0  0  0  0
   20.8653  -17.6211  -14.8345 C   0  0  0  0  0  0  0  0  0  0  0  0
   21.7751  -16.6175  -15.0470 C   0  0  0  0  0  0  0  0  0  0  0  0
   23.1339  -16.8677  -14.9258 C   0  0  0  0  0  0  0  0  0  0  0  0
   23.9743  -13.0891  -17.3042 C   0  0  0  0  0  0  0  0  0  0  0  0
   24.8447  -12.1562  -17.4086 O   0  0  0  0  0  0  0  0  0  0  0  0
   22.6164  -12.6759  -17.5087 N   0  0  0  0  0  0  0  0  0  0  0  0
   21.4544  -13.4871  -17.4616 C   0  0  0  0  0  0  0  0  0  0  0  0
   20.6525  -12.9869  -18.6799 C   0  0  0  0  0  0  0  0  0  0  0  0
   20.9441  -11.5218  -18.6633 C   0  0  0  0  0  0  0  0  0  0  0  0
   22.2111  -11.3195  -17.8992 C   0  0  1  0  0  0  0  0  0  0  0  0
   21.9053  -10.5198  -16.6857 C   0  0  0  0  0  0  0  0  0  0  0  0
   21.7483   -9.1535  -16.6707 O   0  0  0  0  0  0  0  0  0  0  0  0
   21.7657  -11.0849  -15.5386 O   0  0  0  0  0  0  0  0  0  0  0  0
  2  1  1  1
  2  3  1  0
  4  2  1  0
  4  5  1  6
  6  7  2  0
  6  4  1  0
  8  6  1  0
  9  8  1  0
  9 10  1  1
 10 11  1  0
 11 19  1  0
 11 12  2  0
 12 13  1  0
 14 13  1  0
 14 15  2  0
 16 15  1  0
 17 16  2  0
 18 19  2  0
 18 17  1  0
 19 14  1  0
 20  9  1  0
 21 20  2  0
 22 20  1  0
 22 26  1  0
 23 24  1  0
 23 22  1  0
 24 25  1  0
 25 26  1  0
 26 27  1  1
 27 28  1  0
 29 27  2  0
M  END
$$$$
