TWP.pdb
     RDKit          3D

 29 31  0  0  1  0  0  0  0  0999 V2000
   24.7723  -26.6769  -17.2346 C   0  0  0  0  0  0  0  0  0  0  0  0
   24.9873  -25.3972  -16.5071 C   0  0  1  0  0  0  0  0  0  0  0  0
   26.3316  -25.1294  -16.3798 O   0  0  0  0  0  0  0  0  0  0  0  0
   24.2319  -24.2232  -17.1190 C   0  0  2  0  0  0  0  0  0  0  0  0
   24.8331  -24.0261  -18.4334 N   0  0  0  0  0  0  0  0  0  0  0  0
   24.3571  -23.0038  -16.2577 C   0  0  0  0  0  0  0  0  0  0  0  0
   25.2486  -22.1715  -16.5556 O   0  0  0  0  0  0  0  0  0  0  0  0
   23.5006  -22.8048  -15.1704 N   0  0  0  0  0  0  0  0  0  0  0  0
   23.4813  -21.7388  -14.2463 C   0  0  1  0  0  0  0  0  0  0  0  0
   21.9793  -21.3562  -13.9718 C   0  0  0  0  0  0  0  0  0  0  0  0
   21.3541  -20.7749  -15.1812 C   0  0  0  0  0  0  0  0  0  0  0  0
   20.4817  -21.4912  -16.0203 C   0  0  0  0  0  0  0  0  0  0  0  0
   20.0866  -20.7207  -17.0389 N   0  0  0  0  0  0  0  0  0  0  0  0
   20.6707  -19.4915  -16.9058 C   0  0  0  0  0  0  0  0  0  0  0  0
   20.5774  -18.3686  -17.6901 C   0  0  0  0  0  0  0  0  0  0  0  0
   21.3043  -17.2520  -17.2849 C   0  0  0  0  0  0  0  0  0  0  0  0
   22.0811  -17.2710  -16.1569 C   0  0  0  0  0  0  0  0  0  0  0  0
   22.1588  -18.4066  -15.3923 C   0  0  0  0  0  0  0  0  0  0  0  0
   21.4515  -19.5435  -15.7540 C   0  0  0  0  0  0  0  0  0  0  0  0
   24.1474  -21.9175  -12.9746 C   0  0  0  0  0  0  0  0  0  0  0  0
   24.0763  -23.0154  -12.3202 O   0  0  0  0  0  0  0  0  0  0  0  0
   24.9353  -20.8926  -12.3537 N   0  0  0  0  0  0  0  0  0  0  0  0
   25.3143  -19.6442  -12.9092 C   0  0  0  0  0  0  0  0  0  0  0  0
   26.7926  -19.5295  -12.4865 C   0  0  0  0  0  0  0  0  0  0  0  0
   26.7740  -20.1401  -11.1232 C   0  0  0  0  0  0  0  0  0  0  0  0
   25.5682  -21.0166  -11.0344 C   0  0  1  0  0  0  0  0  0  0  0  0
   24.6641  -20.4676   -9.9921 C   0  0  0  0  0  0  0  0  0  0  0  0
   23.5243  -19.7425  -10.2509 O   0  0  0  0  0  0  0  0  0  0  0  0
   24.9085  -20.6478   -8.7421 O   0  0  0  0  0  0  0  0  0  0  0  0
  2  1  1  6
  2  3  1  0
  4  2  1  0
  4  5  1  6
  6  7  2  0
  6  4  1  0
  8  6  1  0
  9  8  1  0
  9 10  1  1
 10 11  1  0
 11 19  1  0
 11 12  2  0
 12 13  1  0
 14 13  1  0
 14 15  2  0
 16 15  1  0
 17 16  2  0
 18 19  2  0
 18 17  1  0
 19 14  1  0
 20  9  1  0
 21 20  2  0
 22 20  1  0
 22 26  1  0
 23 24  1  0
 23 22  1  0
 24 25  1  0
 25 26  1  0
 26 27  1  1
 27 28  1  0
 29 27  2  0
M  END
$$$$
