RLS.pdb
     RDKit          3D

 26 25  0  0  1  0  0  0  0  0999 V2000
    8.0002  -15.1842   15.0578 N   0  0  0  0  0  0  0  0  0  0  0  0
    8.1031  -13.8016   15.3547 C   0  0  0  0  0  0  0  0  0  0  0  0
    7.9367  -12.9227   14.4463 N   0  0  0  0  0  0  0  0  0  0  0  0
    8.3956  -13.3807   16.6822 N   0  0  0  0  0  0  0  0  0  0  0  0
    9.0130  -14.3538   17.5569 C   0  0  0  0  0  0  0  0  0  0  0  0
    7.9400  -14.9193   18.4581 C   0  0  0  0  0  0  0  0  0  0  0  0
    8.0758  -14.3758   19.8516 C   0  0  0  0  0  0  0  0  0  0  0  0
    8.3881  -15.4290   20.8663 C   0  0  2  0  0  0  0  0  0  0  0  0
    7.3120  -16.3599   20.9755 N   0  0  0  0  0  0  0  0  0  0  0  0
    8.8042  -14.8662   22.1729 C   0  0  0  0  0  0  0  0  0  0  0  0
    9.9008  -14.2166   22.2681 O   0  0  0  0  0  0  0  0  0  0  0  0
    7.9250  -11.8963   14.6896 C   0  0  0  0  0  0  0  0  0  0  0  0
    8.2181  -12.1183   26.7725 C   0  0  2  0  0  0  0  0  0  0  0  0
    7.2812  -13.2167   26.4808 C   0  0  0  0  0  0  0  0  0  0  0  0
    5.8759  -12.6825   26.8519 C   0  0  0  0  0  0  0  0  0  0  0  0
    7.2577  -13.8594   25.1705 C   0  0  1  0  0  0  0  0  0  0  0  0
    8.3981  -14.6327   24.6528 N   0  0  0  0  0  0  0  0  0  0  0  0
    7.9659  -15.0660   23.2927 C   0  0  0  0  0  0  0  0  0  0  0  0
    8.7579  -15.8810   25.3366 O   0  0  0  0  0  0  0  0  0  0  0  0
    7.9345  -16.8278   25.3522 O   0  0  0  0  0  0  0  0  0  0  0  0
   11.5232  -17.9434   24.5688 C   0  0  0  0  0  0  0  0  0  0  0  0
   11.5910  -17.9450   25.9408 C   0  0  2  0  0  0  0  0  0  0  0  0
   10.3025  -17.3893   26.5603 N   0  0  0  0  0  0  0  0  0  0  0  0
    9.9871  -16.1077   25.9949 C   0  0  0  0  0  0  0  0  0  0  0  0
   10.4576  -17.2630   28.0292 O   0  0  0  0  0  0  0  0  0  0  0  0
   10.7202  -18.3235   28.8710 O   0  0  0  0  0  0  0  0  0  0  0  0
  2  4  1  0
  2  1  1  0
  3  2  2  0
  5  6  1  0
  5  4  1  0
  6  7  1  0
  8  7  1  0
  8  9  1  1
 10  8  1  0
 10 17  1  0
 11 10  2  0
 13 12  1  1
 14 13  1  0
 15 13  1  0
 16 15  1  6
 16 17  1  0
 18 16  1  0
 19 18  2  0
 20 21  1  0
 22 23  1  0
 22 21  1  6
 23 18  1  0
 24 22  1  0
 25 24  1  0
 26 24  2  0
M  END
$$$$
