RLS.pdb
     RDKit          3D

 26 25  0  0  1  0  0  0  0  0999 V2000
    9.5458  -13.0928   17.0487 N   0  0  0  0  0  0  0  0  0  0  0  0
    8.2017  -13.4346   16.7536 C   0  0  0  0  0  0  0  0  0  0  0  0
    7.8186  -13.6044   15.5496 N   0  0  0  0  0  0  0  0  0  0  0  0
    7.2612  -13.5920   17.8097 N   0  0  0  0  0  0  0  0  0  0  0  0
    7.7961  -13.8153   19.1354 C   0  0  0  0  0  0  0  0  0  0  0  0
    8.2644  -15.2497   19.2149 C   0  0  0  0  0  0  0  0  0  0  0  0
    8.9445  -15.5145   20.5276 C   0  0  0  0  0  0  0  0  0  0  0  0
    7.9856  -15.7723   21.6457 C   0  0  2  0  0  0  0  0  0  0  0  0
    6.7166  -15.1809   21.3692 N   0  0  0  0  0  0  0  0  0  0  0  0
    8.5282  -15.3898   22.9711 C   0  0  0  0  0  0  0  0  0  0  0  0
    9.6808  -14.8442   23.0556 O   0  0  0  0  0  0  0  0  0  0  0  0
    6.8531  -13.9753   15.3417 C   0  0  0  0  0  0  0  0  0  0  0  0
    5.7594  -12.2999   26.0925 C   0  0  1  0  0  0  0  0  0  0  0  0
    6.9167  -13.0641   25.5962 C   0  0  0  0  0  0  0  0  0  0  0  0
    8.1558  -12.1746   25.8632 C   0  0  0  0  0  0  0  0  0  0  0  0
    7.1615  -14.4334   26.0387 C   0  0  2  0  0  0  0  0  0  0  0  0
    8.2399  -15.2616   25.4750 N   0  0  0  0  0  0  0  0  0  0  0  0
    7.7458  -15.6425   24.1202 C   0  0  0  0  0  0  0  0  0  0  0  0
    8.5443  -16.5417   26.1259 O   0  0  0  0  0  0  0  0  0  0  0  0
    7.6006  -17.3080   26.4373 O   0  0  0  0  0  0  0  0  0  0  0  0
   12.2576  -18.2255   26.0878 C   0  0  0  0  0  0  0  0  0  0  0  0
   11.1757  -19.0348   26.3357 C   0  0  1  0  0  0  0  0  0  0  0  0
   10.0635  -18.2669   27.0611 N   0  0  0  0  0  0  0  0  0  0  0  0
    9.8466  -16.9917   26.4378 C   0  0  0  0  0  0  0  0  0  0  0  0
   10.4253  -18.0719   28.4854 O   0  0  0  0  0  0  0  0  0  0  0  0
   10.7091  -19.1024   29.3570 O   0  0  0  0  0  0  0  0  0  0  0  0
  2  4  1  0
  2  1  1  0
  3  2  2  0
  5  6  1  0
  5  4  1  0
  6  7  1  0
  8  7  1  0
  8  9  1  6
 10  8  1  0
 10 17  1  0
 11 10  2  0
 13 12  1  6
 14 13  1  0
 15 13  1  0
 16 15  1  6
 16 17  1  0
 18 16  1  0
 19 18  2  0
 20 21  1  0
 22 23  1  0
 22 21  1  6
 23 18  1  0
 24 22  1  0
 25 24  1  0
 26 24  2  0
M  END
$$$$
