RLS.pdb
     RDKit          3D

 26 25  0  0  1  0  0  0  0  0999 V2000
    7.5614  -14.7518   16.0160 N   0  0  0  0  0  0  0  0  0  0  0  0
    8.0248  -13.5035   16.5031 C   0  0  0  0  0  0  0  0  0  0  0  0
    8.0712  -12.4807   15.7434 N   0  0  0  0  0  0  0  0  0  0  0  0
    8.4457  -13.3819   17.8569 N   0  0  0  0  0  0  0  0  0  0  0  0
    8.7880  -14.6055   18.5489 C   0  0  0  0  0  0  0  0  0  0  0  0
    7.9090  -14.7114   19.7735 C   0  0  0  0  0  0  0  0  0  0  0  0
    8.7110  -14.4900   21.0238 C   0  0  0  0  0  0  0  0  0  0  0  0
    8.7991  -15.7059   21.8897 C   0  0  2  0  0  0  0  0  0  0  0  0
    7.5938  -16.4666   21.8162 N   0  0  0  0  0  0  0  0  0  0  0  0
    9.2063  -15.3956   23.2808 C   0  0  0  0  0  0  0  0  0  0  0  0
   10.3694  -14.9203   23.5145 O   0  0  0  0  0  0  0  0  0  0  0  0
    8.5367  -11.5919   16.0693 C   0  0  0  0  0  0  0  0  0  0  0  0
    5.9621  -12.5767   26.3067 C   0  0  1  0  0  0  0  0  0  0  0  0
    7.1604  -13.2726   25.8074 C   0  0  0  0  0  0  0  0  0  0  0  0
    8.3395  -12.2931   26.0269 C   0  0  0  0  0  0  0  0  0  0  0  0
    7.5073  -14.6094   26.2797 C   0  0  2  0  0  0  0  0  0  0  0  0
    8.6537  -15.3607   25.7430 N   0  0  0  0  0  0  0  0  0  0  0  0
    8.2849  -15.6372   24.3245 C   0  0  0  0  0  0  0  0  0  0  0  0
    8.9430  -16.6837   26.3097 O   0  0  0  0  0  0  0  0  0  0  0  0
    8.1178  -17.2036   27.0993 O   0  0  0  0  0  0  0  0  0  0  0  0
   11.9021  -19.1668   24.8709 C   0  0  0  0  0  0  0  0  0  0  0  0
   10.8486  -19.7134   25.5626 C   0  0  1  0  0  0  0  0  0  0  0  0
   10.3069  -18.7348   26.6122 N   0  0  0  0  0  0  0  0  0  0  0  0
   10.1046  -17.4377   26.0305 C   0  0  0  0  0  0  0  0  0  0  0  0
   11.2541  -18.6310   27.7477 O   0  0  0  0  0  0  0  0  0  0  0  0
   11.8876  -17.4635   28.1193 O   0  0  0  0  0  0  0  0  0  0  0  0
  2  4  1  0
  2  1  1  0
  3  2  2  0
  5  6  1  0
  5  4  1  0
  6  7  1  0
  8  7  1  0
  8  9  1  1
 10  8  1  0
 10 17  1  0
 11 10  2  0
 13 12  1  6
 14 13  1  0
 15 13  1  0
 16 15  1  6
 16 17  1  0
 18 16  1  0
 19 18  2  0
 20 21  1  0
 22 23  1  0
 22 21  1  6
 23 18  1  0
 24 22  1  0
 25 24  1  0
 26 24  2  0
M  END
$$$$
