RLS.pdb
     RDKit          3D

 26 25  0  0  1  0  0  0  0  0999 V2000
    7.6608  -13.1142   18.5991 N   0  0  0  0  0  0  0  0  0  0  0  0
    7.5120  -14.1984   17.6977 C   0  0  0  0  0  0  0  0  0  0  0  0
    7.6724  -14.0340   16.4437 N   0  0  0  0  0  0  0  0  0  0  0  0
    7.1793  -15.4910   18.1910 N   0  0  0  0  0  0  0  0  0  0  0  0
    7.2015  -15.6700   19.6266 C   0  0  0  0  0  0  0  0  0  0  0  0
    8.6455  -15.7307   20.0676 C   0  0  0  0  0  0  0  0  0  0  0  0
    8.7392  -15.9208   21.5544 C   0  0  0  0  0  0  0  0  0  0  0  0
    9.6782  -14.9609   22.2125 C   0  0  2  0  0  0  0  0  0  0  0  0
   11.0091  -15.1465   21.7319 N   0  0  0  0  0  0  0  0  0  0  0  0
    9.5860  -14.9857   23.6918 C   0  0  0  0  0  0  0  0  0  0  0  0
   10.6299  -15.2144   24.3926 O   0  0  0  0  0  0  0  0  0  0  0  0
    7.5749  -14.8479   15.7797 C   0  0  0  0  0  0  0  0  0  0  0  0
    5.6534  -11.8625   26.2920 C   0  0  1  0  0  0  0  0  0  0  0  0
    6.9022  -12.5941   26.0186 C   0  0  0  0  0  0  0  0  0  0  0  0
    7.9591  -11.9998   26.9818 C   0  0  0  0  0  0  0  0  0  0  0  0
    6.9428  -14.0529   26.0471 C   0  0  2  0  0  0  0  0  0  0  0  0
    8.1751  -14.8113   25.7770 N   0  0  0  0  0  0  0  0  0  0  0  0
    8.3295  -14.7526   24.2946 C   0  0  0  0  0  0  0  0  0  0  0  0
    8.1898  -16.2456   26.0892 O   0  0  0  0  0  0  0  0  0  0  0  0
    7.9170  -16.6195   27.2556 O   0  0  0  0  0  0  0  0  0  0  0  0
    8.0910  -20.8624   24.7178 C   0  0  0  0  0  0  0  0  0  0  0  0
    8.0293  -19.5310   24.3854 C   0  0  1  0  0  0  0  0  0  0  0  0
    8.5020  -18.6470   25.5464 N   0  0  0  0  0  0  0  0  0  0  0  0
    8.4937  -17.2644   25.1589 C   0  0  0  0  0  0  0  0  0  0  0  0
    9.8693  -19.0413   25.9621 O   0  0  0  0  0  0  0  0  0  0  0  0
   10.9418  -18.1752   26.0059 O   0  0  0  0  0  0  0  0  0  0  0  0
  2  4  1  0
  2  1  1  0
  3  2  2  0
  5  6  1  0
  5  4  1  0
  6  7  1  0
  8  7  1  0
  8  9  1  1
 10  8  1  0
 10 17  1  0
 11 10  2  0
 13 12  1  6
 14 13  1  0
 15 13  1  0
 16 15  1  1
 16 17  1  0
 18 16  1  0
 19 18  2  0
 20 21  1  0
 22 23  1  0
 22 21  1  1
 23 18  1  0
 24 22  1  0
 25 24  1  0
 26 24  2  0
M  END
$$$$
