RLS.pdb
     RDKit          3D

 26 25  0  0  1  0  0  0  0  0999 V2000
    7.6850  -15.6943   14.6853 N   0  0  0  0  0  0  0  0  0  0  0  0
    7.5383  -15.8194   16.0900 C   0  0  0  0  0  0  0  0  0  0  0  0
    6.5028  -15.3701   16.6827 N   0  0  0  0  0  0  0  0  0  0  0  0
    8.5557  -16.4539   16.8561 N   0  0  0  0  0  0  0  0  0  0  0  0
    8.2941  -16.6392   18.2670 C   0  0  0  0  0  0  0  0  0  0  0  0
    8.4165  -15.2946   18.9455 C   0  0  0  0  0  0  0  0  0  0  0  0
    8.1112  -15.4096   20.4115 C   0  0  0  0  0  0  0  0  0  0  0  0
    8.0437  -14.0861   21.1042 C   0  0  2  0  0  0  0  0  0  0  0  0
    8.7327  -13.0872   20.3532 N   0  0  0  0  0  0  0  0  0  0  0  0
    8.4794  -14.1525   22.5195 C   0  0  0  0  0  0  0  0  0  0  0  0
    9.7184  -14.0396   22.8118 O   0  0  0  0  0  0  0  0  0  0  0  0
    6.4182  -15.4294   17.7325 C   0  0  0  0  0  0  0  0  0  0  0  0
    5.5925  -11.7440   26.5425 C   0  0  1  0  0  0  0  0  0  0  0  0
    6.7268  -12.3758   25.8469 C   0  0  0  0  0  0  0  0  0  0  0  0
    8.0016  -11.8284   26.5347 C   0  0  0  0  0  0  0  0  0  0  0  0
    6.8056  -13.8255   25.6963 C   0  0  2  0  0  0  0  0  0  0  0  0
    7.8931  -14.4813   24.9520 N   0  0  0  0  0  0  0  0  0  0  0  0
    7.4998  -14.3414   23.5202 C   0  0  0  0  0  0  0  0  0  0  0  0
    8.0892  -15.9243   25.1376 O   0  0  0  0  0  0  0  0  0  0  0  0
    7.0903  -16.6836   25.1192 O   0  0  0  0  0  0  0  0  0  0  0  0
   11.5106  -17.9217   24.3629 C   0  0  0  0  0  0  0  0  0  0  0  0
   10.3384  -18.6177   24.5316 C   0  0  1  0  0  0  0  0  0  0  0  0
    9.4458  -17.9531   25.5872 N   0  0  0  0  0  0  0  0  0  0  0  0
    9.3433  -16.5424   25.3402 C   0  0  0  0  0  0  0  0  0  0  0  0
   10.0017  -18.1840   26.9419 O   0  0  0  0  0  0  0  0  0  0  0  0
   10.3239  -17.1752   27.8256 O   0  0  0  0  0  0  0  0  0  0  0  0
  2  4  1  0
  2  1  1  0
  3  2  2  0
  5  6  1  0
  5  4  1  0
  6  7  1  0
  8  7  1  0
  8  9  1  6
 10  8  1  0
 10 17  1  0
 11 10  2  0
 13 12  1  6
 14 13  1  0
 15 13  1  0
 16 15  1  6
 16 17  1  0
 18 16  1  0
 19 18  2  0
 20 21  1  0
 22 23  1  0
 22 21  1  6
 23 18  1  0
 24 22  1  0
 25 24  1  0
 26 24  2  0
M  END
$$$$
