RLS.pdb
     RDKit          3D

 26 25  0  0  1  0  0  0  0  0999 V2000
    8.2560  -12.4068   16.5051 N   0  0  0  0  0  0  0  0  0  0  0  0
    8.4602  -13.8068   16.4118 C   0  0  0  0  0  0  0  0  0  0  0  0
    8.3329  -14.4141   15.2981 N   0  0  0  0  0  0  0  0  0  0  0  0
    8.8123  -14.5515   17.5720 N   0  0  0  0  0  0  0  0  0  0  0  0
    7.7252  -15.0321   18.3969 C   0  0  0  0  0  0  0  0  0  0  0  0
    7.7083  -14.2170   19.6692 C   0  0  0  0  0  0  0  0  0  0  0  0
    8.9156  -14.5193   20.5098 C   0  0  0  0  0  0  0  0  0  0  0  0
    8.7075  -15.6649   21.4482 C   0  0  2  0  0  0  0  0  0  0  0  0
    7.3905  -16.1971   21.3112 N   0  0  0  0  0  0  0  0  0  0  0  0
    9.0573  -15.3336   22.8500 C   0  0  0  0  0  0  0  0  0  0  0  0
   10.2687  -15.0700   23.1604 O   0  0  0  0  0  0  0  0  0  0  0  0
    8.4115  -15.4650   15.2489 C   0  0  0  0  0  0  0  0  0  0  0  0
    8.0949  -11.8827   26.0546 C   0  0  2  0  0  0  0  0  0  0  0  0
    7.2890  -13.0265   26.5146 C   0  0  0  0  0  0  0  0  0  0  0  0
    5.8940  -12.4490   26.8582 C   0  0  0  0  0  0  0  0  0  0  0  0
    7.1606  -14.2330   25.7030 C   0  0  2  0  0  0  0  0  0  0  0  0
    8.3297  -15.0003   25.2435 N   0  0  0  0  0  0  0  0  0  0  0  0
    8.0278  -15.3182   23.8179 C   0  0  0  0  0  0  0  0  0  0  0  0
    8.5893  -16.3062   25.8617 O   0  0  0  0  0  0  0  0  0  0  0  0
    7.6778  -17.1686   25.8730 O   0  0  0  0  0  0  0  0  0  0  0  0
   12.0684  -18.1959   25.7118 C   0  0  0  0  0  0  0  0  0  0  0  0
   10.8727  -18.8215   25.9685 C   0  0  1  0  0  0  0  0  0  0  0  0
   10.0234  -18.0109   26.9556 N   0  0  0  0  0  0  0  0  0  0  0  0
    9.8134  -16.6796   26.4600 C   0  0  0  0  0  0  0  0  0  0  0  0
   10.6948  -17.9524   28.2759 O   0  0  0  0  0  0  0  0  0  0  0  0
   11.0837  -16.7813   28.8922 O   0  0  0  0  0  0  0  0  0  0  0  0
  2  4  1  0
  2  1  1  0
  3  2  2  0
  5  6  1  0
  5  4  1  0
  6  7  1  0
  8  7  1  0
  8  9  1  1
 10  8  1  0
 10 17  1  0
 11 10  2  0
 13 12  1  1
 14 13  1  0
 15 13  1  0
 16 15  1  6
 16 17  1  0
 18 16  1  0
 19 18  2  0
 20 21  1  0
 22 23  1  0
 22 21  1  6
 23 18  1  0
 24 22  1  0
 25 24  1  0
 26 24  2  0
M  END
$$$$
