RLS.pdb
     RDKit          3D

 26 25  0  0  1  0  0  0  0  0999 V2000
    8.5025  -14.5421   13.7722 N   0  0  0  0  0  0  0  0  0  0  0  0
    8.2369  -14.0008   15.0555 C   0  0  0  0  0  0  0  0  0  0  0  0
    7.3367  -13.1128   15.2179 N   0  0  0  0  0  0  0  0  0  0  0  0
    8.9804  -14.4495   16.1827 N   0  0  0  0  0  0  0  0  0  0  0  0
   10.0913  -15.3392   15.9228 C   0  0  0  0  0  0  0  0  0  0  0  0
    9.6329  -16.7522   16.1994 C   0  0  0  0  0  0  0  0  0  0  0  0
   10.6666  -17.5006   16.9913 C   0  0  0  0  0  0  0  0  0  0  0  0
   10.1313  -18.0742   18.2643 C   0  0  2  0  0  0  0  0  0  0  0  0
    8.7626  -18.4490   18.1130 N   0  0  0  0  0  0  0  0  0  0  0  0
   10.3675  -17.1981   19.4363 C   0  0  0  0  0  0  0  0  0  0  0  0
   11.5525  -16.8071   19.7125 O   0  0  0  0  0  0  0  0  0  0  0  0
    7.1231  -12.7360   16.1798 C   0  0  0  0  0  0  0  0  0  0  0  0
    6.2653  -13.6969   20.6035 C   0  0  1  0  0  0  0  0  0  0  0  0
    7.6024  -14.3008   20.4731 C   0  0  0  0  0  0  0  0  0  0  0  0
    8.5777  -13.1207   20.2412 C   0  0  0  0  0  0  0  0  0  0  0  0
    8.1233  -15.2058   21.4930 C   0  0  2  0  0  0  0  0  0  0  0  0
    9.4330  -15.8653   21.3650 N   0  0  0  0  0  0  0  0  0  0  0  0
    9.2611  -16.8140   20.2270 C   0  0  0  0  0  0  0  0  0  0  0  0
    9.8978  -16.7066   22.4747 O   0  0  0  0  0  0  0  0  0  0  0  0
    9.2287  -17.7185   22.7957 O   0  0  0  0  0  0  0  0  0  0  0  0
   13.5531  -16.1697   24.4909 C   0  0  0  0  0  0  0  0  0  0  0  0
   13.0088  -17.4231   24.3507 C   0  0  1  0  0  0  0  0  0  0  0  0
   11.4782  -17.3576   24.2739 N   0  0  0  0  0  0  0  0  0  0  0  0
   11.0670  -16.4626   23.2291 C   0  0  0  0  0  0  0  0  0  0  0  0
   10.9227  -16.9012   25.5703 O   0  0  0  0  0  0  0  0  0  0  0  0
   11.1272  -17.5522   26.7689 O   0  0  0  0  0  0  0  0  0  0  0  0
  2  4  1  0
  2  1  1  0
  3  2  2  0
  5  6  1  0
  5  4  1  0
  6  7  1  0
  8  7  1  0
  8  9  1  6
 10  8  1  0
 10 17  1  0
 11 10  2  0
 13 12  1  6
 14 13  1  0
 15 13  1  0
 16 15  1  6
 16 17  1  0
 18 16  1  0
 19 18  2  0
 20 21  1  0
 22 23  1  0
 22 21  1  6
 23 18  1  0
 24 22  1  0
 25 24  1  0
 26 24  2  0
M  END
$$$$
