ESQ.pdb
     RDKit          3D

 25 24  0  0  1  0  0  0  0  0999 V2000
   11.6504  -16.8634   18.6337 N   0  0  0  0  0  0  0  0  0  0  0  0
   10.5040  -17.2482   19.4014 C   0  0  1  0  0  0  0  0  0  0  0  0
   10.6923  -18.6744   19.8631 C   0  0  0  0  0  0  0  0  0  0  0  0
   11.2918  -19.4331   18.6784 C   0  0  0  0  0  0  0  0  0  0  0  0
   10.5617  -20.7132   18.4554 C   0  0  0  0  0  0  0  0  0  0  0  0
   11.0723  -21.8325   18.7150 O   0  0  0  0  0  0  0  0  0  0  0  0
   10.3083  -16.3112   20.5162 C   0  0  0  0  0  0  0  0  0  0  0  0
   11.2447  -15.7168   21.1088 O   0  0  0  0  0  0  0  0  0  0  0  0
    9.2793  -20.6868   17.9467 O   0  0  0  0  0  0  0  0  0  0  0  0
    6.4573  -15.7963   22.0610 O   0  0  0  0  0  0  0  0  0  0  0  0
    7.3210  -14.7118   22.2217 C   0  0  0  0  0  0  0  0  0  0  0  0
    8.7253  -15.2024   22.1281 C   0  0  2  0  0  0  0  0  0  0  0  0
    8.9958  -16.0236   20.9937 N   0  0  0  0  0  0  0  0  0  0  0  0
    9.1021  -15.8536   23.4133 C   0  0  0  0  0  0  0  0  0  0  0  0
    9.4231  -17.0696   23.4561 O   0  0  0  0  0  0  0  0  0  0  0  0
   10.6553  -12.8855   28.5244 N   0  0  0  0  0  0  0  0  0  0  0  0
   10.3338  -14.1466   29.1022 C   0  0  0  0  0  0  0  0  0  0  0  0
   10.7031  -14.3613   30.2749 O   0  0  0  0  0  0  0  0  0  0  0  0
    9.5917  -15.1804   28.3598 C   0  0  0  0  0  0  0  0  0  0  0  0
    9.2740  -14.7656   26.9708 C   0  0  0  0  0  0  0  0  0  0  0  0
    9.5791  -15.7780   25.8987 C   0  0  2  0  0  0  0  0  0  0  0  0
    9.1213  -15.1531   24.6461 N   0  0  0  0  0  0  0  0  0  0  0  0
    8.7477  -16.9922   26.1776 C   0  0  0  0  0  0  0  0  0  0  0  0
    7.5253  -16.9900   25.8150 O   0  0  0  0  0  0  0  0  0  0  0  0
    9.2010  -18.1194   26.7982 O   0  0  0  0  0  0  0  0  0  0  0  0
  2  3  1  0
  2  1  1  1
  4  3  1  0
  5  4  1  0
  6  5  2  0
  7  2  1  0
  8  7  2  0
  9  5  1  0
 11 10  1  0
 12 11  1  1
 12 14  1  0
 12 13  1  0
 13  7  1  0
 14 15  2  0
 16 17  1  0
 17 18  2  0
 19 17  1  0
 19 20  1  0
 21 20  1  1
 22 21  1  0
 22 14  1  0
 23 21  1  0
 24 23  2  0
 25 23  1  0
M  END
$$$$
