ESQ.pdb
     RDKit          3D

 25 24  0  0  1  0  0  0  0  0999 V2000
   11.4012  -18.1993   19.4330 N   0  0  0  0  0  0  0  0  0  0  0  0
   11.9191  -19.1352   20.3856 C   0  0  1  0  0  0  0  0  0  0  0  0
   13.3653  -19.4129   20.0480 C   0  0  0  0  0  0  0  0  0  0  0  0
   13.4588  -19.4036   18.5217 C   0  0  0  0  0  0  0  0  0  0  0  0
   14.8655  -19.6292   18.0838 C   0  0  0  0  0  0  0  0  0  0  0  0
   15.3567  -20.7805   17.9663 O   0  0  0  0  0  0  0  0  0  0  0  0
   11.7436  -18.6143   21.7483 C   0  0  0  0  0  0  0  0  0  0  0  0
   12.2008  -17.5119   22.1448 O   0  0  0  0  0  0  0  0  0  0  0  0
   15.6707  -18.5470   17.7933 O   0  0  0  0  0  0  0  0  0  0  0  0
    8.5385  -19.6228   23.9680 O   0  0  0  0  0  0  0  0  0  0  0  0
    9.3565  -18.5532   24.3352 C   0  0  0  0  0  0  0  0  0  0  0  0
   10.7737  -18.9169   24.0507 C   0  0  2  0  0  0  0  0  0  0  0  0
   11.0184  -19.3659   22.7191 N   0  0  0  0  0  0  0  0  0  0  0  0
   11.2462  -19.8838   25.0802 C   0  0  0  0  0  0  0  0  0  0  0  0
   11.1454  -21.1252   24.9008 O   0  0  0  0  0  0  0  0  0  0  0  0
   17.1911  -19.2399   26.9077 N   0  0  0  0  0  0  0  0  0  0  0  0
   15.9317  -19.2461   27.5721 C   0  0  0  0  0  0  0  0  0  0  0  0
   15.8785  -18.7693   28.7243 O   0  0  0  0  0  0  0  0  0  0  0  0
   14.7176  -19.7930   26.9416 C   0  0  0  0  0  0  0  0  0  0  0  0
   13.5606  -19.8277   27.8702 C   0  0  0  0  0  0  0  0  0  0  0  0
   12.2957  -20.4303   27.3186 C   0  0  2  0  0  0  0  0  0  0  0  0
   11.8288  -19.4693   26.3048 N   0  0  0  0  0  0  0  0  0  0  0  0
   11.3015  -20.4900   28.4373 C   0  0  0  0  0  0  0  0  0  0  0  0
   10.3691  -19.6210   28.4709 O   0  0  0  0  0  0  0  0  0  0  0  0
   11.3134  -21.4155   29.4396 O   0  0  0  0  0  0  0  0  0  0  0  0
  2  3  1  0
  2  1  1  6
  4  3  1  0
  5  4  1  0
  6  5  2  0
  7  2  1  0
  8  7  2  0
  9  5  1  0
 11 10  1  0
 12 11  1  6
 12 14  1  0
 12 13  1  0
 13  7  1  0
 14 15  2  0
 16 17  1  0
 17 18  2  0
 19 17  1  0
 19 20  1  0
 21 20  1  1
 22 21  1  0
 22 14  1  0
 23 21  1  0
 24 23  2  0
 25 23  1  0
M  END
$$$$
