ESQ.pdb
     RDKit          3D

 25 24  0  0  1  0  0  0  0  0999 V2000
    9.3578  -12.9260   17.2209 N   0  0  0  0  0  0  0  0  0  0  0  0
    8.9058  -14.2369   17.5799 C   0  0  1  0  0  0  0  0  0  0  0  0
    8.2842  -14.8803   16.3624 C   0  0  0  0  0  0  0  0  0  0  0  0
    7.9343  -13.7396   15.4060 C   0  0  0  0  0  0  0  0  0  0  0  0
    7.3492  -14.2770   14.1449 C   0  0  0  0  0  0  0  0  0  0  0  0
    7.9411  -14.1912   13.0390 O   0  0  0  0  0  0  0  0  0  0  0  0
   10.0211  -15.0199   18.1294 C   0  0  0  0  0  0  0  0  0  0  0  0
    9.9224  -16.2144   18.5100 O   0  0  0  0  0  0  0  0  0  0  0  0
    6.1151  -14.8935   14.1747 O   0  0  0  0  0  0  0  0  0  0  0  0
   14.0659  -13.5296   18.1820 O   0  0  0  0  0  0  0  0  0  0  0  0
   13.7206  -14.8714   18.0143 C   0  0  0  0  0  0  0  0  0  0  0  0
   12.4556  -15.1349   18.7572 C   0  0  2  0  0  0  0  0  0  0  0  0
   11.3156  -14.4362   18.2602 N   0  0  0  0  0  0  0  0  0  0  0  0
   12.6847  -14.9029   20.2103 C   0  0  0  0  0  0  0  0  0  0  0  0
   12.8857  -13.7449   20.6597 O   0  0  0  0  0  0  0  0  0  0  0  0
    9.9414  -18.0241   24.6574 N   0  0  0  0  0  0  0  0  0  0  0  0
   10.9948  -17.4373   25.4148 C   0  0  0  0  0  0  0  0  0  0  0  0
   10.9799  -17.5947   26.6528 O   0  0  0  0  0  0  0  0  0  0  0  0
   12.0770  -16.6643   24.7809 C   0  0  0  0  0  0  0  0  0  0  0  0
   11.9406  -16.5998   23.3045 C   0  0  0  0  0  0  0  0  0  0  0  0
   12.9367  -15.7237   22.5922 C   0  0  2  0  0  0  0  0  0  0  0  0
   12.6897  -15.9568   21.1590 N   0  0  0  0  0  0  0  0  0  0  0  0
   14.3051  -16.2205   22.9447 C   0  0  0  0  0  0  0  0  0  0  0  0
   14.8425  -17.1053   22.2004 O   0  0  0  0  0  0  0  0  0  0  0  0
   15.0349  -15.7948   24.0158 O   0  0  0  0  0  0  0  0  0  0  0  0
  2  3  1  0
  2  1  1  6
  4  3  1  0
  5  4  1  0
  6  5  2  0
  7  2  1  0
  8  7  2  0
  9  5  1  0
 11 10  1  0
 12 11  1  6
 12 14  1  0
 12 13  1  0
 13  7  1  0
 14 15  2  0
 16 17  1  0
 17 18  2  0
 19 17  1  0
 19 20  1  0
 21 20  1  1
 22 21  1  0
 22 14  1  0
 23 21  1  0
 24 23  2  0
 25 23  1  0
M  END
$$$$
