ESQ.pdb
     RDKit          3D

 25 24  0  0  1  0  0  0  0  0999 V2000
   11.5354  -17.4921   19.0116 N   0  0  0  0  0  0  0  0  0  0  0  0
   11.4730  -18.3666   20.1443 C   0  0  1  0  0  0  0  0  0  0  0  0
   12.8472  -18.9499   20.3765 C   0  0  0  0  0  0  0  0  0  0  0  0
   13.8010  -17.7617   20.5063 C   0  0  0  0  0  0  0  0  0  0  0  0
   15.2026  -18.2352   20.6874 C   0  0  0  0  0  0  0  0  0  0  0  0
   15.5838  -18.8243   21.7306 O   0  0  0  0  0  0  0  0  0  0  0  0
   10.9596  -17.6389   21.3131 C   0  0  0  0  0  0  0  0  0  0  0  0
   11.2246  -16.4358   21.5655 O   0  0  0  0  0  0  0  0  0  0  0  0
   16.1271  -18.0277   19.6842 O   0  0  0  0  0  0  0  0  0  0  0  0
    8.6688  -19.5809   24.3893 O   0  0  0  0  0  0  0  0  0  0  0  0
    8.3101  -18.3139   23.9268 C   0  0  0  0  0  0  0  0  0  0  0  0
    9.5243  -17.6441   23.3804 C   0  0  2  0  0  0  0  0  0  0  0  0
   10.1045  -18.2913   22.2494 N   0  0  0  0  0  0  0  0  0  0  0  0
   10.5011  -17.4274   24.4835 C   0  0  0  0  0  0  0  0  0  0  0  0
   11.5451  -18.1241   24.5733 O   0  0  0  0  0  0  0  0  0  0  0  0
    9.3921  -13.4738   30.4014 N   0  0  0  0  0  0  0  0  0  0  0  0
    9.7660  -13.7229   29.0502 C   0  0  0  0  0  0  0  0  0  0  0  0
    9.6184  -12.7983   28.2250 O   0  0  0  0  0  0  0  0  0  0  0  0
   10.3101  -15.0213   28.6161 C   0  0  0  0  0  0  0  0  0  0  0  0
   10.8776  -14.9709   27.2458 C   0  0  0  0  0  0  0  0  0  0  0  0
   11.2266  -16.3008   26.6318 C   0  0  2  0  0  0  0  0  0  0  0  0
   10.3156  -16.4384   25.4827 N   0  0  0  0  0  0  0  0  0  0  0  0
   10.9095  -17.3595   27.6428 C   0  0  0  0  0  0  0  0  0  0  0  0
    9.7973  -17.9762   27.5509 O   0  0  0  0  0  0  0  0  0  0  0  0
   11.7292  -17.7234   28.6708 O   0  0  0  0  0  0  0  0  0  0  0  0
  2  3  1  0
  2  1  1  6
  4  3  1  0
  5  4  1  0
  6  5  2  0
  7  2  1  0
  8  7  2  0
  9  5  1  0
 11 10  1  0
 12 11  1  1
 12 14  1  0
 12 13  1  0
 13  7  1  0
 14 15  2  0
 16 17  1  0
 17 18  2  0
 19 17  1  0
 19 20  1  0
 21 20  1  1
 22 21  1  0
 22 14  1  0
 23 21  1  0
 24 23  2  0
 25 23  1  0
M  END
$$$$
