ESQ.pdb
     RDKit          3D

 25 24  0  0  1  0  0  0  0  0999 V2000
    9.5490  -17.8196   18.4776 N   0  0  0  0  0  0  0  0  0  0  0  0
   10.7084  -17.7504   19.3159 C   0  0  1  0  0  0  0  0  0  0  0  0
   11.8723  -17.2617   18.4858 C   0  0  0  0  0  0  0  0  0  0  0  0
   12.7357  -18.4895   18.1932 C   0  0  0  0  0  0  0  0  0  0  0  0
   13.6202  -18.2377   17.0203 C   0  0  0  0  0  0  0  0  0  0  0  0
   14.8553  -18.4715   17.0470 O   0  0  0  0  0  0  0  0  0  0  0  0
   10.4383  -16.8913   20.4770 C   0  0  0  0  0  0  0  0  0  0  0  0
   11.1802  -16.8232   21.4901 O   0  0  0  0  0  0  0  0  0  0  0  0
   13.0806  -17.7303   15.8562 O   0  0  0  0  0  0  0  0  0  0  0  0
    6.6512  -15.1324   21.1759 O   0  0  0  0  0  0  0  0  0  0  0  0
    7.7692  -14.3133   21.3401 C   0  0  0  0  0  0  0  0  0  0  0  0
    8.9617  -15.1756   21.5769 C   0  0  2  0  0  0  0  0  0  0  0  0
    9.2769  -16.0644   20.5068 N   0  0  0  0  0  0  0  0  0  0  0  0
    8.8061  -15.8773   22.8812 C   0  0  0  0  0  0  0  0  0  0  0  0
    8.5221  -17.1022   22.9304 O   0  0  0  0  0  0  0  0  0  0  0  0
    9.1759  -13.6934   29.6006 N   0  0  0  0  0  0  0  0  0  0  0  0
    9.9815  -14.5348   28.7817 C   0  0  0  0  0  0  0  0  0  0  0  0
   11.2212  -14.4348   28.8854 O   0  0  0  0  0  0  0  0  0  0  0  0
    9.3943  -15.4985   27.8346 C   0  0  0  0  0  0  0  0  0  0  0  0
    9.4162  -15.0060   26.4349 C   0  0  0  0  0  0  0  0  0  0  0  0
    8.7763  -15.9079   25.4128 C   0  0  2  0  0  0  0  0  0  0  0  0
    8.9664  -15.2171   24.1260 N   0  0  0  0  0  0  0  0  0  0  0  0
    7.3131  -15.9749   25.7260 C   0  0  0  0  0  0  0  0  0  0  0  0
    6.5282  -15.1525   25.1488 O   0  0  0  0  0  0  0  0  0  0  0  0
    6.7433  -16.8605   26.5934 O   0  0  0  0  0  0  0  0  0  0  0  0
  2  3  1  0
  2  1  1  6
  4  3  1  0
  5  4  1  0
  6  5  2  0
  7  2  1  0
  8  7  2  0
  9  5  1  0
 11 10  1  0
 12 11  1  6
 12 14  1  0
 12 13  1  0
 13  7  1  0
 14 15  2  0
 16 17  1  0
 17 18  2  0
 19 17  1  0
 19 20  1  0
 21 20  1  1
 22 21  1  0
 22 14  1  0
 23 21  1  0
 24 23  2  0
 25 23  1  0
M  END
$$$$
