ESQ.pdb
     RDKit          3D

 25 24  0  0  1  0  0  0  0  0999 V2000
   10.4285  -16.5310   15.0651 N   0  0  0  0  0  0  0  0  0  0  0  0
   11.6592  -16.9819   15.6428 C   0  0  1  0  0  0  0  0  0  0  0  0
   12.7537  -16.8407   14.6110 C   0  0  0  0  0  0  0  0  0  0  0  0
   12.8651  -15.3464   14.3057 C   0  0  0  0  0  0  0  0  0  0  0  0
   13.9554  -15.0949   13.3212 C   0  0  0  0  0  0  0  0  0  0  0  0
   15.1225  -14.7880   13.6741 O   0  0  0  0  0  0  0  0  0  0  0  0
   11.9399  -16.2328   16.8752 C   0  0  0  0  0  0  0  0  0  0  0  0
   13.0267  -16.2951   17.5048 O   0  0  0  0  0  0  0  0  0  0  0  0
   13.6915  -15.1982   11.9708 O   0  0  0  0  0  0  0  0  0  0  0  0
    8.8725  -14.6257   19.2722 O   0  0  0  0  0  0  0  0  0  0  0  0
    9.9679  -13.7926   19.0401 C   0  0  0  0  0  0  0  0  0  0  0  0
   11.1321  -14.6346   18.6436 C   0  0  2  0  0  0  0  0  0  0  0  0
   10.9530  -15.3680   17.4333 N   0  0  0  0  0  0  0  0  0  0  0  0
   11.5211  -15.5018   19.7901 C   0  0  0  0  0  0  0  0  0  0  0  0
   11.1388  -16.6987   19.8586 O   0  0  0  0  0  0  0  0  0  0  0  0
   17.2333  -16.3691   24.3473 N   0  0  0  0  0  0  0  0  0  0  0  0
   16.3699  -15.8287   23.3523 C   0  0  0  0  0  0  0  0  0  0  0  0
   16.8448  -14.9853   22.5644 O   0  0  0  0  0  0  0  0  0  0  0  0
   14.9584  -16.2351   23.2374 C   0  0  0  0  0  0  0  0  0  0  0  0
   14.2628  -15.5634   22.1117 C   0  0  0  0  0  0  0  0  0  0  0  0
   12.8144  -15.9299   21.9243 C   0  0  2  0  0  0  0  0  0  0  0  0
   12.3328  -15.0375   20.8561 N   0  0  0  0  0  0  0  0  0  0  0  0
   12.0997  -15.6040   23.1996 C   0  0  0  0  0  0  0  0  0  0  0  0
   11.4441  -14.5127   23.2690 O   0  0  0  0  0  0  0  0  0  0  0  0
   12.0935  -16.3947   24.3114 O   0  0  0  0  0  0  0  0  0  0  0  0
  2  3  1  0
  2  1  1  6
  4  3  1  0
  5  4  1  0
  6  5  2  0
  7  2  1  0
  8  7  2  0
  9  5  1  0
 11 10  1  0
 12 11  1  1
 12 14  1  0
 12 13  1  0
 13  7  1  0
 14 15  2  0
 16 17  1  0
 17 18  2  0
 19 17  1  0
 19 20  1  0
 21 20  1  1
 22 21  1  0
 22 14  1  0
 23 21  1  0
 24 23  2  0
 25 23  1  0
M  END
$$$$
