ESQ.pdb
     RDKit          3D

 25 24  0  0  1  0  0  0  0  0999 V2000
   12.2327  -18.6777   19.3331 N   0  0  0  0  0  0  0  0  0  0  0  0
   11.7960  -17.3249   19.5091 C   0  0  1  0  0  0  0  0  0  0  0  0
   10.9968  -16.9167   18.2937 C   0  0  0  0  0  0  0  0  0  0  0  0
   11.0881  -18.0830   17.3089 C   0  0  0  0  0  0  0  0  0  0  0  0
   10.2391  -17.8227   16.1119 C   0  0  0  0  0  0  0  0  0  0  0  0
   10.6013  -17.0547   15.1847 O   0  0  0  0  0  0  0  0  0  0  0  0
   11.0328  -17.2019   20.7587 C   0  0  0  0  0  0  0  0  0  0  0  0
   10.4792  -16.1405   21.1438 O   0  0  0  0  0  0  0  0  0  0  0  0
    9.0091  -18.4383   16.0018 O   0  0  0  0  0  0  0  0  0  0  0  0
   10.7787  -20.4487   23.5288 O   0  0  0  0  0  0  0  0  0  0  0  0
    9.6774  -19.6137   23.3342 C   0  0  0  0  0  0  0  0  0  0  0  0
   10.1624  -18.2882   22.8554 C   0  0  2  0  0  0  0  0  0  0  0  0
   10.8804  -18.3255   21.6234 N   0  0  0  0  0  0  0  0  0  0  0  0
   10.9266  -17.6238   23.9473 C   0  0  0  0  0  0  0  0  0  0  0  0
   12.1847  -17.6012   23.9394 O   0  0  0  0  0  0  0  0  0  0  0  0
    9.7871  -13.1322   29.8163 N   0  0  0  0  0  0  0  0  0  0  0  0
    9.6199  -13.7523   28.5455 C   0  0  0  0  0  0  0  0  0  0  0  0
    8.6259  -13.4268   27.8647 O   0  0  0  0  0  0  0  0  0  0  0  0
   10.5745  -14.7492   28.0302 C   0  0  0  0  0  0  0  0  0  0  0  0
   10.0798  -15.4328   26.8095 C   0  0  0  0  0  0  0  0  0  0  0  0
   11.0531  -16.3682   26.1423 C   0  0  2  0  0  0  0  0  0  0  0  0
   10.2918  -16.9868   25.0437 N   0  0  0  0  0  0  0  0  0  0  0  0
   11.4217  -17.4210   27.1419 C   0  0  0  0  0  0  0  0  0  0  0  0
   12.4013  -17.1992   27.9273 O   0  0  0  0  0  0  0  0  0  0  0  0
   10.7823  -18.6180   27.2821 O   0  0  0  0  0  0  0  0  0  0  0  0
  2  3  1  0
  2  1  1  6
  4  3  1  0
  5  4  1  0
  6  5  2  0
  7  2  1  0
  8  7  2  0
  9  5  1  0
 11 10  1  0
 12 11  1  1
 12 14  1  0
 12 13  1  0
 13  7  1  0
 14 15  2  0
 16 17  1  0
 17 18  2  0
 19 17  1  0
 19 20  1  0
 21 20  1  1
 22 21  1  0
 22 14  1  0
 23 21  1  0
 24 23  2  0
 25 23  1  0
M  END
$$$$
