PDK.pdb
     RDKit          3D

 25 25  0  0  1  0  0  0  0  0999 V2000
    7.9191  -14.5045   18.9366 N   0  0  0  0  0  0  0  0  0  0  0  0
    6.8781  -13.7220   19.5014 C   0  0  0  0  0  0  0  0  0  0  0  0
    7.5588  -12.8269   20.5421 C   0  0  0  0  0  0  0  0  0  0  0  0
    8.9822  -12.7699   20.0536 C   0  0  0  0  0  0  0  0  0  0  0  0
    9.1842  -14.1407   19.4522 C   0  0  1  0  0  0  0  0  0  0  0  0
    9.7089  -15.0170   20.5295 C   0  0  0  0  0  0  0  0  0  0  0  0
   10.8509  -14.6820   20.9854 O   0  0  0  0  0  0  0  0  0  0  0  0
    9.0467  -16.1489   21.0539 N   0  0  0  0  0  0  0  0  0  0  0  0
    9.6704  -17.0229   22.0169 C   0  0  1  0  0  0  0  0  0  0  0  0
   10.9119  -17.6708   21.5165 C   0  0  0  0  0  0  0  0  0  0  0  0
   11.4585  -18.6406   22.4927 C   0  0  0  0  0  0  0  0  0  0  0  0
   11.0106  -19.8096   22.5727 O   0  0  0  0  0  0  0  0  0  0  0  0
    9.8106  -16.3037   23.2888 C   0  0  0  0  0  0  0  0  0  0  0  0
   10.6737  -15.3945   23.3511 O   0  0  0  0  0  0  0  0  0  0  0  0
   12.4898  -18.3156   23.3691 O   0  0  0  0  0  0  0  0  0  0  0  0
    9.0546  -16.5515   24.4454 N   0  0  0  0  0  0  0  0  0  0  0  0
    9.2443  -15.7872   25.7121 C   0  0  1  0  0  0  0  0  0  0  0  0
    7.9869  -15.1210   26.0949 C   0  0  0  0  0  0  0  0  0  0  0  0
    7.8118  -13.7146   25.6911 C   0  0  0  0  0  0  0  0  0  0  0  0
    6.6296  -12.9461   26.0911 C   0  0  0  0  0  0  0  0  0  0  0  0
    6.4262  -11.5346   25.7556 C   0  0  0  0  0  0  0  0  0  0  0  0
    5.2800  -10.8808   26.3085 N   0  0  0  0  0  0  0  0  0  0  0  0
    9.7196  -16.7706   26.7362 C   0  0  0  0  0  0  0  0  0  0  0  0
    9.4054  -17.9538   26.6871 O   0  0  0  0  0  0  0  0  0  0  0  0
   10.5332  -16.3317   27.7624 O   0  0  0  0  0  0  0  0  0  0  0  0
  1  2  1  0
  3  2  1  0
  4  3  1  0
  5  6  1  1
  5  4  1  0
  5  1  1  0
  6  7  2  0
  8  9  1  0
  8  6  1  0
  9 13  1  0
 10 11  1  0
  9 10  1  6
 11 15  1  0
 12 11  2  0
 13 14  2  0
 13 16  1  0
 16 17  1  0
 17 23  1  0
 17 18  1  1
 19 18  1  0
 20 19  1  0
 21 20  1  0
 22 21  1  0
 23 24  2  0
 23 25  1  0
M  END
$$$$
