PDK.pdb
     RDKit          3D

 25 25  0  0  1  0  0  0  0  0999 V2000
    8.4047  -14.1175   17.9755 N   0  0  0  0  0  0  0  0  0  0  0  0
    8.9642  -14.5857   16.7578 C   0  0  0  0  0  0  0  0  0  0  0  0
    8.4669  -16.0272   16.6076 C   0  0  0  0  0  0  0  0  0  0  0  0
    7.2134  -16.0366   17.4421 C   0  0  0  0  0  0  0  0  0  0  0  0
    7.5495  -15.0791   18.5610 C   0  0  1  0  0  0  0  0  0  0  0  0
    8.1490  -15.8814   19.6568 C   0  0  0  0  0  0  0  0  0  0  0  0
    7.3715  -16.7486   20.1742 O   0  0  0  0  0  0  0  0  0  0  0  0
    9.4699  -15.7453   20.1376 N   0  0  0  0  0  0  0  0  0  0  0  0
    9.9755  -16.5473   21.2245 C   0  0  1  0  0  0  0  0  0  0  0  0
   11.3107  -17.1433   20.9537 C   0  0  0  0  0  0  0  0  0  0  0  0
   11.7024  -18.1146   22.0004 C   0  0  0  0  0  0  0  0  0  0  0  0
   10.8491  -18.8246   22.5848 O   0  0  0  0  0  0  0  0  0  0  0  0
    9.8772  -15.7752   22.4690 C   0  0  0  0  0  0  0  0  0  0  0  0
   10.7154  -14.8591   22.6532 O   0  0  0  0  0  0  0  0  0  0  0  0
   13.0256  -18.2947   22.3929 O   0  0  0  0  0  0  0  0  0  0  0  0
    8.9182  -15.9792   23.4736 N   0  0  0  0  0  0  0  0  0  0  0  0
    8.9042  -15.2004   24.7456 C   0  0  1  0  0  0  0  0  0  0  0  0
    7.5852  -14.5733   24.9413 C   0  0  0  0  0  0  0  0  0  0  0  0
    7.3009  -13.9844   26.2619 C   0  0  0  0  0  0  0  0  0  0  0  0
    7.0048  -12.5571   26.4145 C   0  0  0  0  0  0  0  0  0  0  0  0
    6.7784  -11.9079   27.7082 C   0  0  0  0  0  0  0  0  0  0  0  0
    6.6095  -10.4873   27.7159 N   0  0  0  0  0  0  0  0  0  0  0  0
    9.2623  -16.1604   25.8373 C   0  0  0  0  0  0  0  0  0  0  0  0
    9.1771  -17.3728   25.6820 O   0  0  0  0  0  0  0  0  0  0  0  0
    9.6999  -15.6658   27.0503 O   0  0  0  0  0  0  0  0  0  0  0  0
  1  2  1  0
  3  2  1  0
  4  3  1  0
  5  6  1  1
  5  4  1  0
  5  1  1  0
  6  7  2  0
  8  9  1  0
  8  6  1  0
  9 13  1  0
 10 11  1  0
  9 10  1  6
 11 15  1  0
 12 11  2  0
 13 14  2  0
 13 16  1  0
 16 17  1  0
 17 23  1  0
 17 18  1  1
 19 18  1  0
 20 19  1  0
 21 20  1  0
 22 21  1  0
 23 24  2  0
 23 25  1  0
M  END
$$$$
