PDK.pdb
     RDKit          3D

 25 25  0  0  1  0  0  0  0  0999 V2000
    7.3484  -13.7627   19.6064 N   0  0  0  0  0  0  0  0  0  0  0  0
    8.1981  -12.7769   19.0396 C   0  0  0  0  0  0  0  0  0  0  0  0
    8.9866  -13.4996   17.9425 C   0  0  0  0  0  0  0  0  0  0  0  0
    8.0946  -14.6641   17.6022 C   0  0  0  0  0  0  0  0  0  0  0  0
    7.4614  -14.9999   18.9318 C   0  0  1  0  0  0  0  0  0  0  0  0
    8.3332  -16.0062   19.5887 C   0  0  0  0  0  0  0  0  0  0  0  0
    8.3758  -17.1400   19.0082 O   0  0  0  0  0  0  0  0  0  0  0  0
    9.0830  -15.7901   20.7658 N   0  0  0  0  0  0  0  0  0  0  0  0
    9.9909  -16.7817   21.2880 C   0  0  1  0  0  0  0  0  0  0  0  0
   10.8700  -17.3879   20.2531 C   0  0  0  0  0  0  0  0  0  0  0  0
   11.7015  -18.4800   20.8084 C   0  0  0  0  0  0  0  0  0  0  0  0
   11.2665  -19.2400   21.7066 O   0  0  0  0  0  0  0  0  0  0  0  0
   10.6901  -16.2192   22.4496 C   0  0  0  0  0  0  0  0  0  0  0  0
   11.7410  -15.5667   22.2364 O   0  0  0  0  0  0  0  0  0  0  0  0
   13.0000  -18.7246   20.3710 O   0  0  0  0  0  0  0  0  0  0  0  0
   10.2771  -16.3525   23.7847 N   0  0  0  0  0  0  0  0  0  0  0  0
   10.9613  -15.6586   24.9138 C   0  0  1  0  0  0  0  0  0  0  0  0
   10.1165  -15.7001   26.1205 C   0  0  0  0  0  0  0  0  0  0  0  0
   10.6762  -15.1384   27.3626 C   0  0  0  0  0  0  0  0  0  0  0  0
    9.9265  -15.1704   28.6216 C   0  0  0  0  0  0  0  0  0  0  0  0
   10.3705  -14.5049   29.8489 C   0  0  0  0  0  0  0  0  0  0  0  0
    9.5174  -14.5899   30.9943 N   0  0  0  0  0  0  0  0  0  0  0  0
   12.2793  -16.3443   25.0997 C   0  0  0  0  0  0  0  0  0  0  0  0
   12.3890  -17.5617   25.0163 O   0  0  0  0  0  0  0  0  0  0  0  0
   13.3997  -15.5841   25.3721 O   0  0  0  0  0  0  0  0  0  0  0  0
  1  2  1  0
  3  2  1  0
  4  3  1  0
  5  6  1  1
  5  4  1  0
  5  1  1  0
  6  7  2  0
  8  9  1  0
  8  6  1  0
  9 13  1  0
 10 11  1  0
  9 10  1  6
 11 15  1  0
 12 11  2  0
 13 14  2  0
 13 16  1  0
 16 17  1  0
 17 23  1  0
 17 18  1  1
 19 18  1  0
 20 19  1  0
 21 20  1  0
 22 21  1  0
 23 24  2  0
 23 25  1  0
M  END
$$$$
