PDK.pdb
     RDKit          3D

 25 25  0  0  1  0  0  0  0  0999 V2000
    9.4852  -14.0502   18.1376 N   0  0  0  0  0  0  0  0  0  0  0  0
    8.3755  -14.1350   17.2565 C   0  0  0  0  0  0  0  0  0  0  0  0
    7.1542  -13.7559   18.1005 C   0  0  0  0  0  0  0  0  0  0  0  0
    7.7562  -12.9309   19.2071 C   0  0  0  0  0  0  0  0  0  0  0  0
    9.1025  -13.5831   19.4159 C   0  0  1  0  0  0  0  0  0  0  0  0
    8.9233  -14.6329   20.4502 C   0  0  0  0  0  0  0  0  0  0  0  0
    8.2643  -14.2669   21.4778 O   0  0  0  0  0  0  0  0  0  0  0  0
    9.4186  -15.9528   20.3657 N   0  0  0  0  0  0  0  0  0  0  0  0
    9.2031  -16.9199   21.4138 C   0  0  1  0  0  0  0  0  0  0  0  0
    9.2738  -18.3299   20.9467 C   0  0  0  0  0  0  0  0  0  0  0  0
   10.6148  -18.6678   20.4175 C   0  0  0  0  0  0  0  0  0  0  0  0
   11.2052  -17.9154   19.6058 O   0  0  0  0  0  0  0  0  0  0  0  0
   10.0768  -16.5932   22.5472 C   0  0  0  0  0  0  0  0  0  0  0  0
   11.1646  -16.0191   22.2968 O   0  0  0  0  0  0  0  0  0  0  0  0
   11.2913  -19.8272   20.7858 O   0  0  0  0  0  0  0  0  0  0  0  0
    9.7931  -16.8719   23.8935 N   0  0  0  0  0  0  0  0  0  0  0  0
   10.6965  -16.4662   25.0089 C   0  0  1  0  0  0  0  0  0  0  0  0
    9.9241  -15.7895   26.0658 C   0  0  0  0  0  0  0  0  0  0  0  0
   10.6511  -15.3697   27.2769 C   0  0  0  0  0  0  0  0  0  0  0  0
    9.9808  -14.6380   28.3556 C   0  0  0  0  0  0  0  0  0  0  0  0
   10.6683  -14.1417   29.5503 C   0  0  0  0  0  0  0  0  0  0  0  0
    9.8871  -13.4353   30.5186 N   0  0  0  0  0  0  0  0  0  0  0  0
   11.3710  -17.7146   25.4867 C   0  0  0  0  0  0  0  0  0  0  0  0
   10.8141  -18.8050   25.4412 O   0  0  0  0  0  0  0  0  0  0  0  0
   12.6540  -17.6340   25.9916 O   0  0  0  0  0  0  0  0  0  0  0  0
  1  2  1  0
  3  2  1  0
  4  3  1  0
  5  6  1  1
  5  4  1  0
  5  1  1  0
  6  7  2  0
  8  9  1  0
  8  6  1  0
  9 13  1  0
 10 11  1  0
  9 10  1  6
 11 15  1  0
 12 11  2  0
 13 14  2  0
 13 16  1  0
 16 17  1  0
 17 23  1  0
 17 18  1  1
 19 18  1  0
 20 19  1  0
 21 20  1  0
 22 21  1  0
 23 24  2  0
 23 25  1  0
M  END
$$$$
