PDK.pdb
     RDKit          3D

 25 25  0  0  1  0  0  0  0  0999 V2000
    7.8554  -13.4398   19.0379 N   0  0  0  0  0  0  0  0  0  0  0  0
    8.6763  -13.1432   17.9185 C   0  0  0  0  0  0  0  0  0  0  0  0
    8.8638  -14.4755   17.1854 C   0  0  0  0  0  0  0  0  0  0  0  0
    7.6621  -15.2700   17.6239 C   0  0  0  0  0  0  0  0  0  0  0  0
    7.4444  -14.7925   19.0403 C   0  0  1  0  0  0  0  0  0  0  0  0
    8.2217  -15.6927   19.9287 C   0  0  0  0  0  0  0  0  0  0  0  0
    7.8141  -16.8998   19.9591 O   0  0  0  0  0  0  0  0  0  0  0  0
    9.3352  -15.3066   20.7070 N   0  0  0  0  0  0  0  0  0  0  0  0
   10.0423  -16.2409   21.5481 C   0  0  1  0  0  0  0  0  0  0  0  0
   11.3889  -16.6050   21.0327 C   0  0  0  0  0  0  0  0  0  0  0  0
   12.0076  -17.6899   21.8279 C   0  0  0  0  0  0  0  0  0  0  0  0
   11.3183  -18.4320   22.5680 O   0  0  0  0  0  0  0  0  0  0  0  0
   10.0151  -15.7486   22.9307 C   0  0  0  0  0  0  0  0  0  0  0  0
   10.9257  -14.9612   23.2860 O   0  0  0  0  0  0  0  0  0  0  0  0
   13.3753  -17.9471   21.8011 O   0  0  0  0  0  0  0  0  0  0  0  0
    9.0495  -16.0886   23.8913 N   0  0  0  0  0  0  0  0  0  0  0  0
    9.0892  -15.5761   25.2914 C   0  0  1  0  0  0  0  0  0  0  0  0
    7.8004  -14.9519   25.6392 C   0  0  0  0  0  0  0  0  0  0  0  0
    7.7757  -13.4876   25.8023 C   0  0  0  0  0  0  0  0  0  0  0  0
    6.5686  -12.7891   26.2534 C   0  0  0  0  0  0  0  0  0  0  0  0
    6.4963  -11.3400   26.4563 C   0  0  0  0  0  0  0  0  0  0  0  0
    5.2571  -10.7974   26.9221 N   0  0  0  0  0  0  0  0  0  0  0  0
    9.4264  -16.7452   26.1639 C   0  0  0  0  0  0  0  0  0  0  0  0
    9.5938  -16.6203   27.3712 O   0  0  0  0  0  0  0  0  0  0  0  0
    9.5518  -17.9962   25.5922 O   0  0  0  0  0  0  0  0  0  0  0  0
  1  2  1  0
  3  2  1  0
  4  3  1  0
  5  6  1  1
  5  4  1  0
  5  1  1  0
  6  7  2  0
  8  9  1  0
  8  6  1  0
  9 13  1  0
 10 11  1  0
  9 10  1  6
 11 15  1  0
 12 11  2  0
 13 14  2  0
 13 16  1  0
 16 17  1  0
 17 23  1  0
 17 18  1  1
 19 18  1  0
 20 19  1  0
 21 20  1  0
 22 21  1  0
 23 24  2  0
 23 25  1  0
M  END
$$$$
