PDK.pdb
     RDKit          3D

 25 25  0  0  1  0  0  0  0  0999 V2000
    9.5213  -15.7835   18.9618 N   0  0  0  0  0  0  0  0  0  0  0  0
    8.8825  -16.7759   18.1731 C   0  0  0  0  0  0  0  0  0  0  0  0
    7.5495  -17.0586   18.8737 C   0  0  0  0  0  0  0  0  0  0  0  0
    7.3045  -15.7912   19.6492 C   0  0  0  0  0  0  0  0  0  0  0  0
    8.7003  -15.3581   20.0313 C   0  0  1  0  0  0  0  0  0  0  0  0
    9.0023  -15.9715   21.3490 C   0  0  0  0  0  0  0  0  0  0  0  0
    8.0600  -15.8979   22.2039 O   0  0  0  0  0  0  0  0  0  0  0  0
   10.2177  -16.6023   21.6946 N   0  0  0  0  0  0  0  0  0  0  0  0
   10.4221  -17.2164   22.9836 C   0  0  1  0  0  0  0  0  0  0  0  0
   11.6233  -18.0910   23.0427 C   0  0  0  0  0  0  0  0  0  0  0  0
   11.6028  -18.9746   24.2307 C   0  0  0  0  0  0  0  0  0  0  0  0
   10.5274  -19.2761   24.8019 O   0  0  0  0  0  0  0  0  0  0  0  0
   10.3540  -16.1784   24.0192 C   0  0  0  0  0  0  0  0  0  0  0  0
   11.2647  -15.3147   24.0382 O   0  0  0  0  0  0  0  0  0  0  0  0
   12.7627  -19.5163   24.7771 O   0  0  0  0  0  0  0  0  0  0  0  0
    9.3491  -16.0731   24.9938 N   0  0  0  0  0  0  0  0  0  0  0  0
    9.3087  -14.9680   25.9947 C   0  0  1  0  0  0  0  0  0  0  0  0
    8.1039  -14.1442   25.7913 C   0  0  0  0  0  0  0  0  0  0  0  0
    7.8398  -13.0723   26.7675 C   0  0  0  0  0  0  0  0  0  0  0  0
    6.6540  -12.2174   26.6618 C   0  0  0  0  0  0  0  0  0  0  0  0
    6.3306  -11.1547   27.6169 C   0  0  0  0  0  0  0  0  0  0  0  0
    5.0776  -10.4821   27.4604 N   0  0  0  0  0  0  0  0  0  0  0  0
    9.3538  -15.6136   27.3448 C   0  0  0  0  0  0  0  0  0  0  0  0
    9.6152  -14.9734   28.3561 O   0  0  0  0  0  0  0  0  0  0  0  0
    9.0940  -16.9659   27.4519 O   0  0  0  0  0  0  0  0  0  0  0  0
  1  2  1  0
  3  2  1  0
  4  3  1  0
  5  6  1  1
  5  4  1  0
  5  1  1  0
  6  7  2  0
  8  9  1  0
  8  6  1  0
  9 13  1  0
 10 11  1  0
  9 10  1  6
 11 15  1  0
 12 11  2  0
 13 14  2  0
 13 16  1  0
 16 17  1  0
 17 23  1  0
 17 18  1  1
 19 18  1  0
 20 19  1  0
 21 20  1  0
 22 21  1  0
 23 24  2  0
 23 25  1  0
M  END
$$$$
