PDK.pdb
     RDKit          3D

 25 25  0  0  1  0  0  0  0  0999 V2000
    8.7931  -12.6484   19.5854 N   0  0  0  0  0  0  0  0  0  0  0  0
    8.6965  -12.2138   18.2375 C   0  0  0  0  0  0  0  0  0  0  0  0
    8.4495  -13.4833   17.4160 C   0  0  0  0  0  0  0  0  0  0  0  0
    7.8480  -14.4235   18.4269 C   0  0  0  0  0  0  0  0  0  0  0  0
    8.5544  -14.0367   19.7048 C   0  0  1  0  0  0  0  0  0  0  0  0
    9.7682  -14.8853   19.8066 C   0  0  0  0  0  0  0  0  0  0  0  0
    9.5435  -16.1382   19.8684 O   0  0  0  0  0  0  0  0  0  0  0  0
   11.0966  -14.4066   19.8382 N   0  0  0  0  0  0  0  0  0  0  0  0
   12.2259  -15.2916   19.9852 C   0  0  1  0  0  0  0  0  0  0  0  0
   13.4223  -14.8635   19.2126 C   0  0  0  0  0  0  0  0  0  0  0  0
   13.2442  -15.0781   17.7585 C   0  0  0  0  0  0  0  0  0  0  0  0
   13.1781  -14.1135   16.9592 O   0  0  0  0  0  0  0  0  0  0  0  0
   12.4584  -15.5300   21.4148 C   0  0  0  0  0  0  0  0  0  0  0  0
   12.8696  -14.5664   22.1061 O   0  0  0  0  0  0  0  0  0  0  0  0
   13.1407  -16.3486   17.1994 O   0  0  0  0  0  0  0  0  0  0  0  0
   12.2573  -16.7531   22.0738 N   0  0  0  0  0  0  0  0  0  0  0  0
   12.5205  -16.9374   23.5303 C   0  0  1  0  0  0  0  0  0  0  0  0
   11.8548  -18.1595   24.0148 C   0  0  0  0  0  0  0  0  0  0  0  0
   12.1325  -18.5826   25.3988 C   0  0  0  0  0  0  0  0  0  0  0  0
   11.5174  -19.7847   25.9685 C   0  0  0  0  0  0  0  0  0  0  0  0
   11.6351  -20.1680   27.3776 C   0  0  0  0  0  0  0  0  0  0  0  0
   11.0599  -21.4162   27.7749 N   0  0  0  0  0  0  0  0  0  0  0  0
   14.0083  -16.9790   23.6928 C   0  0  0  0  0  0  0  0  0  0  0  0
   14.7286  -17.5498   22.8826 O   0  0  0  0  0  0  0  0  0  0  0  0
   14.5827  -16.3578   24.7844 O   0  0  0  0  0  0  0  0  0  0  0  0
  1  2  1  0
  3  2  1  0
  4  3  1  0
  5  6  1  6
  5  4  1  0
  5  1  1  0
  6  7  2  0
  8  9  1  0
  8  6  1  0
  9 13  1  0
 10 11  1  0
  9 10  1  1
 11 15  1  0
 12 11  2  0
 13 14  2  0
 13 16  1  0
 16 17  1  0
 17 23  1  0
 17 18  1  6
 19 18  1  0
 20 19  1  0
 21 20  1  0
 22 21  1  0
 23 24  2  0
 23 25  1  0
M  END
$$$$
