HHG.pdb
     RDKit          3D

 25 26  0  0  1  0  0  0  0  0999 V2000
   25.9776  -21.7175  -12.4698 N   0  0  0  0  0  0  0  0  0  0  0  0
   24.5955  -21.3535  -12.2317 C   0  0  1  0  0  0  0  0  0  0  0  0
   24.4951  -20.0274  -11.5122 C   0  0  0  0  0  0  0  0  0  0  0  0
   25.3077  -20.1093  -10.2705 C   0  0  0  0  0  0  0  0  0  0  0  0
   26.5855  -20.6409  -10.1819 C   0  0  0  0  0  0  0  0  0  0  0  0
   26.9728  -20.5306   -8.8988 N   0  0  0  0  0  0  0  0  0  0  0  0
   26.0137  -19.9611   -8.1759 C   0  0  0  0  0  0  0  0  0  0  0  0
   24.9993  -19.7081   -9.0285 N   0  0  0  0  0  0  0  0  0  0  0  0
   23.8678  -21.2993  -13.5347 C   0  0  0  0  0  0  0  0  0  0  0  0
   24.4155  -20.8480  -14.5661 O   0  0  0  0  0  0  0  0  0  0  0  0
   22.5445  -21.7583  -13.6248 N   0  0  0  0  0  0  0  0  0  0  0  0
   21.7606  -21.8428  -14.8159 C   0  0  1  0  0  0  0  0  0  0  0  0
   21.4217  -23.2200  -15.2636 C   0  0  0  0  0  0  0  0  0  0  0  0
   22.6563  -24.0016  -15.4962 C   0  0  0  0  0  0  0  0  0  0  0  0
   23.0995  -25.1478  -14.8905 C   0  0  0  0  0  0  0  0  0  0  0  0
   24.2748  -25.4634  -15.4529 N   0  0  0  0  0  0  0  0  0  0  0  0
   24.6015  -24.5603  -16.3979 C   0  0  0  0  0  0  0  0  0  0  0  0
   23.5896  -23.6746  -16.4025 N   0  0  0  0  0  0  0  0  0  0  0  0
   20.4795  -21.0931  -14.5417 C   0  0  0  0  0  0  0  0  0  0  0  0
   19.6012  -20.9215  -15.4251 O   0  0  0  0  0  0  0  0  0  0  0  0
   20.2127  -20.5458  -13.2598 N   0  0  0  0  0  0  0  0  0  0  0  0
   18.9858  -19.7695  -13.0288 C   0  0  0  0  0  0  0  0  0  0  0  0
   17.8793  -20.6825  -12.7034 C   0  0  0  0  0  0  0  0  0  0  0  0
   18.1235  -21.8037  -12.2041 O   0  0  0  0  0  0  0  0  0  0  0  0
   16.5408  -20.3707  -12.9213 O   0  0  0  0  0  0  0  0  0  0  0  0
  2  1  1  6
  2  9  1  0
  3  2  1  0
  4  3  1  0
  5  4  2  0
  6  5  1  0
  7  8  2  0
  7  6  1  0
  8  4  1  0
  9 10  2  0
 11 12  1  0
 11  9  1  0
 12 19  1  0
 13 14  1  0
 12 13  1  1
 14 15  2  0
 15 16  1  0
 17 16  1  0
 18 14  1  0
 18 17  2  0
 19 21  1  0
 20 19  2  0
 21 22  1  0
 23 22  1  0
 24 23  2  0
 25 23  1  0
M  END
$$$$
