HHG.pdb
     RDKit          3D

 25 26  0  0  1  0  0  0  0  0999 V2000
   31.6133  -35.4380   -5.9652 N   0  0  0  0  0  0  0  0  0  0  0  0
   31.5268  -35.6972   -4.5423 C   0  0  1  0  0  0  0  0  0  0  0  0
   32.8716  -35.5271   -3.8723 C   0  0  0  0  0  0  0  0  0  0  0  0
   33.7780  -36.5940   -4.3713 C   0  0  0  0  0  0  0  0  0  0  0  0
   33.4007  -37.6502   -5.1869 C   0  0  0  0  0  0  0  0  0  0  0  0
   34.5012  -38.3892   -5.4133 N   0  0  0  0  0  0  0  0  0  0  0  0
   35.5478  -37.8596   -4.7879 C   0  0  0  0  0  0  0  0  0  0  0  0
   35.0908  -36.7603   -4.1534 N   0  0  0  0  0  0  0  0  0  0  0  0
   30.5181  -34.7793   -3.9337 C   0  0  0  0  0  0  0  0  0  0  0  0
   30.4102  -33.5906   -4.3119 O   0  0  0  0  0  0  0  0  0  0  0  0
   29.6661  -35.2392   -2.9176 N   0  0  0  0  0  0  0  0  0  0  0  0
   28.7035  -34.4589   -2.2069 C   0  0  1  0  0  0  0  0  0  0  0  0
   27.2814  -34.8231   -2.4451 C   0  0  0  0  0  0  0  0  0  0  0  0
   26.7691  -34.1287   -3.6471 C   0  0  0  0  0  0  0  0  0  0  0  0
   27.3661  -33.9154   -4.8617 C   0  0  0  0  0  0  0  0  0  0  0  0
   26.4920  -33.2366   -5.6183 N   0  0  0  0  0  0  0  0  0  0  0  0
   25.3553  -33.0068   -4.9323 C   0  0  0  0  0  0  0  0  0  0  0  0
   25.5541  -33.5657   -3.7254 N   0  0  0  0  0  0  0  0  0  0  0  0
   29.0090  -34.6322   -0.7389 C   0  0  0  0  0  0  0  0  0  0  0  0
   28.3461  -34.0496    0.1569 O   0  0  0  0  0  0  0  0  0  0  0  0
   30.0697  -35.4700   -0.3067 N   0  0  0  0  0  0  0  0  0  0  0  0
   30.3487  -35.6279    1.1281 C   0  0  0  0  0  0  0  0  0  0  0  0
   29.5005  -36.6953    1.6802 C   0  0  0  0  0  0  0  0  0  0  0  0
   28.6571  -37.2613    0.9492 O   0  0  0  0  0  0  0  0  0  0  0  0
   29.5777  -37.1282    3.0004 O   0  0  0  0  0  0  0  0  0  0  0  0
  2  1  1  6
  2  9  1  0
  3  2  1  0
  4  3  1  0
  5  4  2  0
  6  5  1  0
  7  8  2  0
  7  6  1  0
  8  4  1  0
  9 10  2  0
 11 12  1  0
 11  9  1  0
 12 19  1  0
 13 14  1  0
 12 13  1  1
 14 15  2  0
 15 16  1  0
 17 16  1  0
 18 14  1  0
 18 17  2  0
 19 21  1  0
 20 19  2  0
 21 22  1  0
 23 22  1  0
 24 23  2  0
 25 23  1  0
M  END
$$$$
