HHG.pdb
     RDKit          3D

 25 26  0  0  1  0  0  0  0  0999 V2000
   25.9445  -29.6433  -20.4243 N   0  0  0  0  0  0  0  0  0  0  0  0
   27.3539  -29.3910  -20.6463 C   0  0  1  0  0  0  0  0  0  0  0  0
   27.5752  -28.0289  -21.2644 C   0  0  0  0  0  0  0  0  0  0  0  0
   27.0435  -28.0559  -22.6520 C   0  0  0  0  0  0  0  0  0  0  0  0
   27.2959  -29.0472  -23.5884 C   0  0  0  0  0  0  0  0  0  0  0  0
   26.6388  -28.7082  -24.7117 N   0  0  0  0  0  0  0  0  0  0  0  0
   25.9884  -27.5624  -24.5363 C   0  0  0  0  0  0  0  0  0  0  0  0
   26.2448  -27.1736  -23.2702 N   0  0  0  0  0  0  0  0  0  0  0  0
   28.0858  -29.5033  -19.3494 C   0  0  0  0  0  0  0  0  0  0  0  0
   29.3147  -29.2757  -19.2755 O   0  0  0  0  0  0  0  0  0  0  0  0
   27.4006  -29.8696  -18.1805 N   0  0  0  0  0  0  0  0  0  0  0  0
   27.9628  -29.9752  -16.8716 C   0  0  1  0  0  0  0  0  0  0  0  0
   27.4865  -28.9678  -15.8865 C   0  0  0  0  0  0  0  0  0  0  0  0
   27.9305  -27.6133  -16.2835 C   0  0  0  0  0  0  0  0  0  0  0  0
   29.1957  -27.1001  -16.3977 C   0  0  0  0  0  0  0  0  0  0  0  0
   29.0711  -25.8241  -16.7895 N   0  0  0  0  0  0  0  0  0  0  0  0
   27.7708  -25.5004  -16.9307 C   0  0  0  0  0  0  0  0  0  0  0  0
   27.0937  -26.6181  -16.6134 N   0  0  0  0  0  0  0  0  0  0  0  0
   27.6135  -31.3529  -16.3635 C   0  0  0  0  0  0  0  0  0  0  0  0
   26.5241  -31.9146  -16.6443 O   0  0  0  0  0  0  0  0  0  0  0  0
   28.5124  -32.0776  -15.5384 N   0  0  0  0  0  0  0  0  0  0  0  0
   28.0973  -33.3523  -14.9350 C   0  0  0  0  0  0  0  0  0  0  0  0
   28.1192  -34.4108  -15.9562 C   0  0  0  0  0  0  0  0  0  0  0  0
   28.4241  -34.1304  -17.1371 O   0  0  0  0  0  0  0  0  0  0  0  0
   27.8140  -35.7412  -15.6859 O   0  0  0  0  0  0  0  0  0  0  0  0
  2  1  1  1
  2  9  1  0
  3  2  1  0
  4  3  1  0
  5  4  2  0
  6  5  1  0
  7  8  2  0
  7  6  1  0
  8  4  1  0
  9 10  2  0
 11 12  1  0
 11  9  1  0
 12 19  1  0
 13 14  1  0
 12 13  1  1
 14 15  2  0
 15 16  1  0
 17 16  1  0
 18 14  1  0
 18 17  2  0
 19 21  1  0
 20 19  2  0
 21 22  1  0
 23 22  1  0
 24 23  2  0
 25 23  1  0
M  END
$$$$
