HHG.pdb
     RDKit          3D

 25 26  0  0  1  0  0  0  0  0999 V2000
   28.1506  -31.6171  -16.8156 N   0  0  0  0  0  0  0  0  0  0  0  0
   27.2768  -31.1453  -17.8707 C   0  0  1  0  0  0  0  0  0  0  0  0
   26.1654  -32.1335  -18.1437 C   0  0  0  0  0  0  0  0  0  0  0  0
   26.7704  -33.3717  -18.7001 C   0  0  0  0  0  0  0  0  0  0  0  0
   27.4684  -33.4562  -19.8954 C   0  0  0  0  0  0  0  0  0  0  0  0
   27.8506  -34.7373  -20.0417 N   0  0  0  0  0  0  0  0  0  0  0  0
   27.4340  -35.4627  -19.0088 C   0  0  0  0  0  0  0  0  0  0  0  0
   26.7736  -34.6139  -18.1943 N   0  0  0  0  0  0  0  0  0  0  0  0
   26.7141  -29.8159  -17.4881 C   0  0  0  0  0  0  0  0  0  0  0  0
   26.5232  -29.5125  -16.2885 O   0  0  0  0  0  0  0  0  0  0  0  0
   26.3868  -28.8756  -18.4774 N   0  0  0  0  0  0  0  0  0  0  0  0
   26.0678  -27.5002  -18.2609 C   0  0  1  0  0  0  0  0  0  0  0  0
   27.1596  -26.5348  -18.5575 C   0  0  0  0  0  0  0  0  0  0  0  0
   28.2622  -26.6932  -17.5836 C   0  0  0  0  0  0  0  0  0  0  0  0
   28.2673  -26.5212  -16.2243 C   0  0  0  0  0  0  0  0  0  0  0  0
   29.5102  -26.7853  -15.7968 N   0  0  0  0  0  0  0  0  0  0  0  0
   30.3028  -27.1206  -16.8336 C   0  0  0  0  0  0  0  0  0  0  0  0
   29.5098  -27.0556  -17.9177 N   0  0  0  0  0  0  0  0  0  0  0  0
   24.8890  -27.1871  -19.1502 C   0  0  0  0  0  0  0  0  0  0  0  0
   24.8363  -27.5611  -20.3495 O   0  0  0  0  0  0  0  0  0  0  0  0
   23.7800  -26.4490  -18.6612 N   0  0  0  0  0  0  0  0  0  0  0  0
   22.6795  -26.0836  -19.5649 C   0  0  0  0  0  0  0  0  0  0  0  0
   21.6692  -25.3127  -18.8240 C   0  0  0  0  0  0  0  0  0  0  0  0
   22.0302  -24.4712  -17.9710 O   0  0  0  0  0  0  0  0  0  0  0  0
   20.2993  -25.4633  -19.0163 O   0  0  0  0  0  0  0  0  0  0  0  0
  2  1  1  1
  2  9  1  0
  3  2  1  0
  4  3  1  0
  5  4  2  0
  6  5  1  0
  7  8  2  0
  7  6  1  0
  8  4  1  0
  9 10  2  0
 11 12  1  0
 11  9  1  0
 12 19  1  0
 13 14  1  0
 12 13  1  6
 14 15  2  0
 15 16  1  0
 17 16  1  0
 18 14  1  0
 18 17  2  0
 19 21  1  0
 20 19  2  0
 21 22  1  0
 23 22  1  0
 24 23  2  0
 25 23  1  0
M  END
$$$$
