HHG.pdb
     RDKit          3D

 25 26  0  0  1  0  0  0  0  0999 V2000
   19.2143  -12.5397  -16.6254 N   0  0  0  0  0  0  0  0  0  0  0  0
   18.9796  -11.2004  -16.1247 C   0  0  1  0  0  0  0  0  0  0  0  0
   18.2851  -11.2321  -14.7819 C   0  0  0  0  0  0  0  0  0  0  0  0
   16.8930  -11.7094  -14.9895 C   0  0  0  0  0  0  0  0  0  0  0  0
   15.9516  -11.1047  -15.8087 C   0  0  0  0  0  0  0  0  0  0  0  0
   14.8254  -11.8348  -15.7250 N   0  0  0  0  0  0  0  0  0  0  0  0
   15.0037  -12.8628  -14.9014 C   0  0  0  0  0  0  0  0  0  0  0  0
   16.2746  -12.7741  -14.4578 N   0  0  0  0  0  0  0  0  0  0  0  0
   20.2815  -10.4756  -16.0245 C   0  0  0  0  0  0  0  0  0  0  0  0
   21.2992  -11.0309  -15.5518 O   0  0  0  0  0  0  0  0  0  0  0  0
   20.3861   -9.1465  -16.4632 N   0  0  0  0  0  0  0  0  0  0  0  0
   21.5669   -8.3429  -16.4445 C   0  0  1  0  0  0  0  0  0  0  0  0
   21.9532   -7.7410  -17.7485 C   0  0  0  0  0  0  0  0  0  0  0  0
   22.3244   -8.8009  -18.7120 C   0  0  0  0  0  0  0  0  0  0  0  0
   23.1124   -9.9086  -18.5414 C   0  0  0  0  0  0  0  0  0  0  0  0
   23.1417  -10.5576  -19.7141 N   0  0  0  0  0  0  0  0  0  0  0  0
   22.4004   -9.9056  -20.6311 C   0  0  0  0  0  0  0  0  0  0  0  0
   21.9108   -8.8310  -19.9877 N   0  0  0  0  0  0  0  0  0  0  0  0
   21.3155   -7.2323  -15.4535 C   0  0  0  0  0  0  0  0  0  0  0  0
   20.2080   -6.6419  -15.3754 O   0  0  0  0  0  0  0  0  0  0  0  0
   22.3320   -6.8057  -14.5599 N   0  0  0  0  0  0  0  0  0  0  0  0
   22.0953   -5.6665  -13.6613 C   0  0  0  0  0  0  0  0  0  0  0  0
   22.0980   -4.4175  -14.4383 C   0  0  0  0  0  0  0  0  0  0  0  0
   22.4468   -4.4325  -15.6400 O   0  0  0  0  0  0  0  0  0  0  0  0
   21.7272   -3.1856  -13.9079 O   0  0  0  0  0  0  0  0  0  0  0  0
  2  1  1  1
  2  9  1  0
  3  2  1  0
  4  3  1  0
  5  4  2  0
  6  5  1  0
  7  8  2  0
  7  6  1  0
  8  4  1  0
  9 10  2  0
 11 12  1  0
 11  9  1  0
 12 19  1  0
 13 14  1  0
 12 13  1  6
 14 15  2  0
 15 16  1  0
 17 16  1  0
 18 14  1  0
 18 17  2  0
 19 21  1  0
 20 19  2  0
 21 22  1  0
 23 22  1  0
 24 23  2  0
 25 23  1  0
M  END
$$$$
