HHG.pdb
     RDKit          3D

 25 26  0  0  1  0  0  0  0  0999 V2000
   19.1641  -10.1783  -16.6394 N   0  0  0  0  0  0  0  0  0  0  0  0
   20.1398  -10.7490  -15.7328 C   0  0  1  0  0  0  0  0  0  0  0  0
   20.7723  -11.9903  -16.3205 C   0  0  0  0  0  0  0  0  0  0  0  0
   19.7115  -13.0176  -16.4888 C   0  0  0  0  0  0  0  0  0  0  0  0
   18.7012  -13.2841  -15.5769 C   0  0  0  0  0  0  0  0  0  0  0  0
   17.9517  -14.2740  -16.0935 N   0  0  0  0  0  0  0  0  0  0  0  0
   18.4314  -14.6451  -17.2762 C   0  0  0  0  0  0  0  0  0  0  0  0
   19.5094  -13.8675  -17.5064 N   0  0  0  0  0  0  0  0  0  0  0  0
   21.1826   -9.7261  -15.4222 C   0  0  0  0  0  0  0  0  0  0  0  0
   22.1711  -10.0035  -14.7055 O   0  0  0  0  0  0  0  0  0  0  0  0
   21.0702   -8.4240  -15.9339 N   0  0  0  0  0  0  0  0  0  0  0  0
   22.0664   -7.4026  -15.8663 C   0  0  1  0  0  0  0  0  0  0  0  0
   22.7039   -7.0426  -17.1610 C   0  0  0  0  0  0  0  0  0  0  0  0
   23.4776   -8.1889  -17.6872 C   0  0  0  0  0  0  0  0  0  0  0  0
   24.6795   -8.7025  -17.2762 C   0  0  0  0  0  0  0  0  0  0  0  0
   24.9586   -9.7430  -18.0741 N   0  0  0  0  0  0  0  0  0  0  0  0
   23.9785   -9.9153  -18.9825 C   0  0  0  0  0  0  0  0  0  0  0  0
   23.0827   -8.9469  -18.7211 N   0  0  0  0  0  0  0  0  0  0  0  0
   21.3885   -6.1774  -15.3026 C   0  0  0  0  0  0  0  0  0  0  0  0
   20.2000   -5.8794  -15.5851 O   0  0  0  0  0  0  0  0  0  0  0  0
   22.0747   -5.3028  -14.4206 N   0  0  0  0  0  0  0  0  0  0  0  0
   21.3424   -4.2408  -13.7154 C   0  0  0  0  0  0  0  0  0  0  0  0
   21.2488   -3.0518  -14.5763 C   0  0  0  0  0  0  0  0  0  0  0  0
   21.8158   -3.0447  -15.6919 O   0  0  0  0  0  0  0  0  0  0  0  0
   20.5507   -1.9021  -14.2199 O   0  0  0  0  0  0  0  0  0  0  0  0
  2  1  1  6
  2  9  1  0
  3  2  1  0
  4  3  1  0
  5  4  2  0
  6  5  1  0
  7  8  2  0
  7  6  1  0
  8  4  1  0
  9 10  2  0
 11 12  1  0
 11  9  1  0
 12 19  1  0
 13 14  1  0
 12 13  1  6
 14 15  2  0
 15 16  1  0
 17 16  1  0
 18 14  1  0
 18 17  2  0
 19 21  1  0
 20 19  2  0
 21 22  1  0
 23 22  1  0
 24 23  2  0
 25 23  1  0
M  END
$$$$
