HHG.pdb
     RDKit          3D

 25 26  0  0  1  0  0  0  0  0999 V2000
   27.8643  -21.2568  -13.0798 N   0  0  0  0  0  0  0  0  0  0  0  0
   27.2254  -21.1795  -11.7816 C   0  0  1  0  0  0  0  0  0  0  0  0
   28.1138  -20.4839  -10.7751 C   0  0  0  0  0  0  0  0  0  0  0  0
   29.3346  -21.3096  -10.5833 C   0  0  0  0  0  0  0  0  0  0  0  0
   29.5902  -22.5204  -11.2091 C   0  0  0  0  0  0  0  0  0  0  0  0
   30.7892  -22.9465  -10.7738 N   0  0  0  0  0  0  0  0  0  0  0  0
   31.3020  -22.0747   -9.9113 C   0  0  0  0  0  0  0  0  0  0  0  0
   30.4007  -21.0767   -9.8037 N   0  0  0  0  0  0  0  0  0  0  0  0
   25.9222  -20.4623  -11.9147 C   0  0  0  0  0  0  0  0  0  0  0  0
   25.7089  -19.3861  -11.3115 O   0  0  0  0  0  0  0  0  0  0  0  0
   24.9054  -20.9887  -12.7263 N   0  0  0  0  0  0  0  0  0  0  0  0
   23.6133  -20.4169  -12.9362 C   0  0  1  0  0  0  0  0  0  0  0  0
   23.1107  -20.4656  -14.3352 C   0  0  0  0  0  0  0  0  0  0  0  0
   23.9131  -19.5717  -15.1992 C   0  0  0  0  0  0  0  0  0  0  0  0
   23.6554  -18.2952  -15.6251 C   0  0  0  0  0  0  0  0  0  0  0  0
   24.6892  -17.9173  -16.3903 N   0  0  0  0  0  0  0  0  0  0  0  0
   25.6012  -18.9060  -16.4705 C   0  0  0  0  0  0  0  0  0  0  0  0
   25.0981  -19.9091  -15.7295 N   0  0  0  0  0  0  0  0  0  0  0  0
   22.6571  -21.1787  -12.0508 C   0  0  0  0  0  0  0  0  0  0  0  0
   22.7468  -22.4213  -11.8804 O   0  0  0  0  0  0  0  0  0  0  0  0
   21.6060  -20.5138  -11.3675 N   0  0  0  0  0  0  0  0  0  0  0  0
   20.7620  -21.2500  -10.4151 C   0  0  0  0  0  0  0  0  0  0  0  0
   19.6026  -21.8170  -11.1207 C   0  0  0  0  0  0  0  0  0  0  0  0
   19.5103  -21.6978  -12.3630 O   0  0  0  0  0  0  0  0  0  0  0  0
   18.5727  -22.4966  -10.4773 O   0  0  0  0  0  0  0  0  0  0  0  0
  2  1  1  6
  2  9  1  0
  3  2  1  0
  4  3  1  0
  5  4  2  0
  6  5  1  0
  7  8  2  0
  7  6  1  0
  8  4  1  0
  9 10  2  0
 11 12  1  0
 11  9  1  0
 12 19  1  0
 13 14  1  0
 12 13  1  6
 14 15  2  0
 15 16  1  0
 17 16  1  0
 18 14  1  0
 18 17  2  0
 19 21  1  0
 20 19  2  0
 21 22  1  0
 23 22  1  0
 24 23  2  0
 25 23  1  0
M  END
$$$$
