VTI.pdb
     RDKit          3D

 23 22  0  0  1  0  0  0  0  0999 V2000
   21.0259  -16.6861  -19.7032 C   0  0  0  0  0  0  0  0  0  0  0  0
   20.5130  -16.6306  -18.2830 C   0  0  2  0  0  0  0  0  0  0  0  0
   19.8478  -17.9256  -17.8799 C   0  0  0  0  0  0  0  0  0  0  0  0
   19.5202  -15.4626  -18.2187 C   0  0  2  0  0  0  0  0  0  0  0  0
   18.4992  -15.7527  -19.2031 N   0  0  0  0  0  0  0  0  0  0  0  0
   20.2075  -14.1840  -18.5191 C   0  0  0  0  0  0  0  0  0  0  0  0
   20.4792  -13.9460  -19.7351 O   0  0  0  0  0  0  0  0  0  0  0  0
   19.8639  -11.7176  -19.9035 C   0  0  0  0  0  0  0  0  0  0  0  0
   20.1649  -11.1500  -18.5494 C   0  0  1  0  0  0  0  0  0  0  0  0
   18.9572  -11.0022  -17.8698 O   0  0  0  0  0  0  0  0  0  0  0  0
   21.0877  -12.0199  -17.7307 C   0  0  2  0  0  0  0  0  0  0  0  0
   20.5163  -13.3197  -17.4648 N   0  0  0  0  0  0  0  0  0  0  0  0
   21.4870  -11.3989  -16.4638 C   0  0  0  0  0  0  0  0  0  0  0  0
   20.8715  -11.6580  -15.4015 O   0  0  0  0  0  0  0  0  0  0  0  0
   26.7522  -10.1446  -15.3183 C   0  0  0  0  0  0  0  0  0  0  0  0
   25.3661   -9.7074  -15.8162 C   0  0  0  0  0  0  0  0  0  0  0  0
   24.3747  -10.2545  -14.8512 C   0  0  2  0  0  0  0  0  0  0  0  0
   24.5452  -11.7447  -14.6554 C   0  0  0  0  0  0  0  0  0  0  0  0
   22.9379   -9.8840  -15.1235 C   0  0  2  0  0  0  0  0  0  0  0  0
   22.5697  -10.4906  -16.3786 N   0  0  0  0  0  0  0  0  0  0  0  0
   22.6725   -8.4448  -15.0813 C   0  0  0  0  0  0  0  0  0  0  0  0
   22.5330   -7.7976  -13.8797 O   0  0  0  0  0  0  0  0  0  0  0  0
   22.5690   -7.7855  -16.1238 O   0  0  0  0  0  0  0  0  0  0  0  0
  2  4  1  0
  2  3  1  6
  2  1  1  0
  4  5  1  6
  6  4  1  0
  6  7  2  0
  9  8  1  6
  9 10  1  0
  9 11  1  0
 11 12  1  1
 12  6  1  0
 13 11  1  0
 14 13  2  0
 15 16  1  0
 17 16  1  0
 17 19  1  0
 17 18  1  6
 19 20  1  6
 19 21  1  0
 20 13  1  0
 21 22  1  0
 23 21  2  0
M  END
$$$$
