VTI.pdb
     RDKit          3D

 23 22  0  0  1  0  0  0  0  0999 V2000
   18.7709  -19.5797  -15.1966 C   0  0  0  0  0  0  0  0  0  0  0  0
   19.9356  -18.6488  -15.4411 C   0  0  2  0  0  0  0  0  0  0  0  0
   19.5589  -17.5164  -16.3673 C   0  0  0  0  0  0  0  0  0  0  0  0
   21.0598  -19.4995  -16.0464 C   0  0  2  0  0  0  0  0  0  0  0  0
   20.4480  -20.2722  -17.1067 N   0  0  0  0  0  0  0  0  0  0  0  0
   21.6529  -20.3816  -15.0131 C   0  0  0  0  0  0  0  0  0  0  0  0
   20.8525  -21.0875  -14.3274 O   0  0  0  0  0  0  0  0  0  0  0  0
   23.2345  -23.3279  -15.3758 C   0  0  0  0  0  0  0  0  0  0  0  0
   24.2537  -22.5106  -14.6412 C   0  0  1  0  0  0  0  0  0  0  0  0
   25.1947  -22.0668  -15.5685 O   0  0  0  0  0  0  0  0  0  0  0  0
   23.6611  -21.3177  -13.9312 C   0  0  2  0  0  0  0  0  0  0  0  0
   23.0410  -20.3908  -14.8494 N   0  0  0  0  0  0  0  0  0  0  0  0
   24.6364  -20.5998  -13.1043 C   0  0  0  0  0  0  0  0  0  0  0  0
   24.8706  -19.3829  -13.3013 O   0  0  0  0  0  0  0  0  0  0  0  0
   24.7369  -20.5462   -7.9064 C   0  0  0  0  0  0  0  0  0  0  0  0
   24.8114  -20.2404   -9.4101 C   0  0  0  0  0  0  0  0  0  0  0  0
   26.1392  -20.7220   -9.8776 C   0  0  2  0  0  0  0  0  0  0  0  0
   27.2661  -20.1679   -9.0342 C   0  0  0  0  0  0  0  0  0  0  0  0
   26.4044  -20.5505  -11.3527 C   0  0  2  0  0  0  0  0  0  0  0  0
   25.3503  -21.2347  -12.0596 N   0  0  0  0  0  0  0  0  0  0  0  0
   27.7432  -20.9682  -11.7728 C   0  0  0  0  0  0  0  0  0  0  0  0
   28.7606  -20.0528  -11.8668 O   0  0  0  0  0  0  0  0  0  0  0  0
   27.9836  -22.1503  -12.0504 O   0  0  0  0  0  0  0  0  0  0  0  0
  2  4  1  0
  2  3  1  6
  2  1  1  0
  4  5  1  6
  6  4  1  0
  6  7  2  0
  9  8  1  6
  9 10  1  0
  9 11  1  0
 11 12  1  6
 12  6  1  0
 13 11  1  0
 14 13  2  0
 15 16  1  0
 17 16  1  0
 17 19  1  0
 17 18  1  1
 19 20  1  6
 19 21  1  0
 20 13  1  0
 21 22  1  0
 23 21  2  0
M  END
$$$$
