VTI.pdb
     RDKit          3D

 23 22  0  0  1  0  0  0  0  0999 V2000
   27.2179  -10.8794  -16.9546 C   0  0  0  0  0  0  0  0  0  0  0  0
   26.7008  -11.7510  -15.8339 C   0  0  2  0  0  0  0  0  0  0  0  0
   27.6909  -12.8311  -15.4661 C   0  0  0  0  0  0  0  0  0  0  0  0
   25.3817  -12.3621  -16.3241 C   0  0  2  0  0  0  0  0  0  0  0  0
   25.7254  -13.1971  -17.4556 N   0  0  0  0  0  0  0  0  0  0  0  0
   24.4316  -11.2934  -16.7148 C   0  0  0  0  0  0  0  0  0  0  0  0
   24.4329  -10.9359  -17.9319 O   0  0  0  0  0  0  0  0  0  0  0  0
   20.1293   -9.2621  -16.1301 C   0  0  0  0  0  0  0  0  0  0  0  0
   21.1928  -10.2673  -15.8063 C   0  0  1  0  0  0  0  0  0  0  0  0
   20.9443  -11.4114  -16.5625 O   0  0  0  0  0  0  0  0  0  0  0  0
   22.5884   -9.7743  -16.1029 C   0  0  2  0  0  0  0  0  0  0  0  0
   23.5964  -10.7428  -15.7386 N   0  0  0  0  0  0  0  0  0  0  0  0
   22.8930   -8.4932  -15.4578 C   0  0  0  0  0  0  0  0  0  0  0  0
   23.3976   -8.4584  -14.3093 O   0  0  0  0  0  0  0  0  0  0  0  0
   25.0752   -3.2560  -17.1026 C   0  0  0  0  0  0  0  0  0  0  0  0
   24.2614   -3.8803  -15.9588 C   0  0  0  0  0  0  0  0  0  0  0  0
   23.8071   -5.2137  -16.4375 C   0  0  2  0  0  0  0  0  0  0  0  0
   23.1376   -5.1260  -17.7911 C   0  0  0  0  0  0  0  0  0  0  0  0
   22.9830   -6.0056  -15.4529 C   0  0  2  0  0  0  0  0  0  0  0  0
   22.6369   -7.2522  -16.0892 N   0  0  0  0  0  0  0  0  0  0  0  0
   21.8206   -5.2856  -14.9296 C   0  0  0  0  0  0  0  0  0  0  0  0
   21.9506   -4.4394  -13.8576 O   0  0  0  0  0  0  0  0  0  0  0  0
   20.7020   -5.4248  -15.4410 O   0  0  0  0  0  0  0  0  0  0  0  0
  2  4  1  0
  2  3  1  6
  2  1  1  0
  4  5  1  6
  6  4  1  0
  6  7  2  0
  9  8  1  6
  9 10  1  0
  9 11  1  0
 11 12  1  1
 12  6  1  0
 13 11  1  0
 14 13  2  0
 15 16  1  0
 17 16  1  0
 17 19  1  0
 17 18  1  6
 19 20  1  6
 19 21  1  0
 20 13  1  0
 21 22  1  0
 23 21  2  0
M  END
$$$$
