VTI.pdb
     RDKit          3D

 23 22  0  0  1  0  0  0  0  0999 V2000
   21.6220   -4.6533  -12.9190 C   0  0  0  0  0  0  0  0  0  0  0  0
   21.6033   -4.3576  -14.4006 C   0  0  2  0  0  0  0  0  0  0  0  0
   20.2280   -4.5601  -14.9918 C   0  0  0  0  0  0  0  0  0  0  0  0
   22.6228   -5.3019  -15.0510 C   0  0  2  0  0  0  0  0  0  0  0  0
   22.6721   -4.9326  -16.4499 N   0  0  0  0  0  0  0  0  0  0  0  0
   22.1998   -6.7127  -14.8830 C   0  0  0  0  0  0  0  0  0  0  0  0
   22.2728   -7.2026  -13.7152 O   0  0  0  0  0  0  0  0  0  0  0  0
   19.0132   -8.3831  -14.9819 C   0  0  0  0  0  0  0  0  0  0  0  0
   19.8408   -8.9550  -16.0930 C   0  0  1  0  0  0  0  0  0  0  0  0
   19.4830   -8.3032  -17.2717 O   0  0  0  0  0  0  0  0  0  0  0  0
   21.3255   -8.7950  -15.8727 C   0  0  2  0  0  0  0  0  0  0  0  0
   21.7495   -7.4200  -16.0014 N   0  0  0  0  0  0  0  0  0  0  0  0
   22.1313   -9.6350  -16.7645 C   0  0  0  0  0  0  0  0  0  0  0  0
   22.6656   -9.1505  -17.7913 O   0  0  0  0  0  0  0  0  0  0  0  0
   26.4858  -12.0581  -15.7752 C   0  0  0  0  0  0  0  0  0  0  0  0
   25.3184  -11.3244  -16.4528 C   0  0  0  0  0  0  0  0  0  0  0  0
   24.2887  -12.3537  -16.7593 C   0  0  2  0  0  0  0  0  0  0  0  0
   24.8837  -13.5481  -17.4718 C   0  0  0  0  0  0  0  0  0  0  0  0
   23.0529  -11.8415  -17.4563 C   0  0  2  0  0  0  0  0  0  0  0  0
   22.3426  -11.0124  -16.5145 N   0  0  0  0  0  0  0  0  0  0  0  0
   22.2172  -12.8914  -18.0418 C   0  0  0  0  0  0  0  0  0  0  0  0
   22.3246  -13.2054  -19.3729 O   0  0  0  0  0  0  0  0  0  0  0  0
   21.4006  -13.5146  -17.3511 O   0  0  0  0  0  0  0  0  0  0  0  0
  2  4  1  0
  2  3  1  6
  2  1  1  0
  4  5  1  6
  6  4  1  0
  6  7  2  0
  9  8  1  1
  9 10  1  0
  9 11  1  0
 11 12  1  6
 12  6  1  0
 13 11  1  0
 14 13  2  0
 15 16  1  0
 17 16  1  0
 17 19  1  0
 17 18  1  6
 19 20  1  1
 19 21  1  0
 20 13  1  0
 21 22  1  0
 23 21  2  0
M  END
$$$$
