VTI.pdb
     RDKit          3D

 23 22  0  0  1  0  0  0  0  0999 V2000
   14.2880  -11.9933  -13.2447 C   0  0  0  0  0  0  0  0  0  0  0  0
   14.4956  -11.0131  -14.3758 C   0  0  2  0  0  0  0  0  0  0  0  0
   13.9636  -11.5507  -15.6835 C   0  0  0  0  0  0  0  0  0  0  0  0
   16.0055  -10.7556  -14.4639 C   0  0  2  0  0  0  0  0  0  0  0  0
   16.6149  -12.0433  -14.7214 N   0  0  0  0  0  0  0  0  0  0  0  0
   16.5039  -10.1698  -13.1967 C   0  0  0  0  0  0  0  0  0  0  0  0
   16.9350  -10.9762  -12.3176 O   0  0  0  0  0  0  0  0  0  0  0  0
   19.3867   -8.2515  -12.8768 C   0  0  0  0  0  0  0  0  0  0  0  0
   18.3332   -7.4000  -12.2354 C   0  0  1  0  0  0  0  0  0  0  0  0
   18.0043   -6.3818  -13.1284 O   0  0  0  0  0  0  0  0  0  0  0  0
   17.0825   -8.1669  -11.8802 C   0  0  2  0  0  0  0  0  0  0  0  0
   16.4741   -8.7814  -13.0374 N   0  0  0  0  0  0  0  0  0  0  0  0
   16.0841   -7.3462  -11.1875 C   0  0  0  0  0  0  0  0  0  0  0  0
   14.9864   -7.0770  -11.7326 O   0  0  0  0  0  0  0  0  0  0  0  0
   12.2386   -7.0908   -7.3802 C   0  0  0  0  0  0  0  0  0  0  0  0
   13.2162   -6.0390   -7.9265 C   0  0  0  0  0  0  0  0  0  0  0  0
   14.3273   -6.7862   -8.5750 C   0  0  2  0  0  0  0  0  0  0  0  0
   14.9642   -7.7788   -7.6277 C   0  0  0  0  0  0  0  0  0  0  0  0
   15.3579   -5.9327   -9.2714 C   0  0  2  0  0  0  0  0  0  0  0  0
   16.3062   -6.8255   -9.8898 N   0  0  0  0  0  0  0  0  0  0  0  0
   15.9889   -4.9325   -8.4084 C   0  0  0  0  0  0  0  0  0  0  0  0
   15.3618   -3.7397   -8.1513 O   0  0  0  0  0  0  0  0  0  0  0  0
   17.0959   -5.1413   -7.8954 O   0  0  0  0  0  0  0  0  0  0  0  0
  2  4  1  0
  2  3  1  6
  2  1  1  0
  4  5  1  1
  6  4  1  0
  6  7  2  0
  9  8  1  6
  9 10  1  0
  9 11  1  0
 11 12  1  6
 12  6  1  0
 13 11  1  0
 14 13  2  0
 15 16  1  0
 17 16  1  0
 17 19  1  0
 17 18  1  1
 19 20  1  1
 19 21  1  0
 20 13  1  0
 21 22  1  0
 23 21  2  0
M  END
$$$$
