VTI.pdb
     RDKit          3D

 23 22  0  0  1  0  0  0  0  0999 V2000
   25.8499  -18.6506  -14.9911 C   0  0  0  0  0  0  0  0  0  0  0  0
   25.4509  -17.3604  -15.6687 C   0  0  2  0  0  0  0  0  0  0  0  0
   26.0305  -16.1576  -14.9620 C   0  0  0  0  0  0  0  0  0  0  0  0
   23.9174  -17.3140  -15.6592 C   0  0  2  0  0  0  0  0  0  0  0  0
   23.4778  -18.5325  -16.3056 N   0  0  0  0  0  0  0  0  0  0  0  0
   23.4329  -16.1162  -16.3858 C   0  0  0  0  0  0  0  0  0  0  0  0
   23.7402  -16.0213  -17.6129 O   0  0  0  0  0  0  0  0  0  0  0  0
   20.1743  -12.7589  -17.2067 C   0  0  0  0  0  0  0  0  0  0  0  0
   20.7220  -14.0402  -16.6549 C   0  0  1  0  0  0  0  0  0  0  0  0
   20.4817  -15.0456  -17.5897 O   0  0  0  0  0  0  0  0  0  0  0  0
   22.2024  -13.9797  -16.3660 C   0  0  2  0  0  0  0  0  0  0  0  0
   22.6745  -15.1678  -15.6936 N   0  0  0  0  0  0  0  0  0  0  0  0
   22.5867  -12.7982  -15.5871 C   0  0  0  0  0  0  0  0  0  0  0  0
   22.3701  -12.7470  -14.3522 O   0  0  0  0  0  0  0  0  0  0  0  0
   27.3397  -11.0440  -15.5522 C   0  0  0  0  0  0  0  0  0  0  0  0
   25.9003  -11.4357  -15.1849 C   0  0  0  0  0  0  0  0  0  0  0  0
   25.0361  -10.2848  -15.5619 C   0  0  2  0  0  0  0  0  0  0  0  0
   25.4858   -9.0033  -14.8958 C   0  0  0  0  0  0  0  0  0  0  0  0
   23.5535  -10.5119  -15.4007 C   0  0  2  0  0  0  0  0  0  0  0  0
   23.2111  -11.6750  -16.1811 N   0  0  0  0  0  0  0  0  0  0  0  0
   22.7308   -9.3436  -15.7194 C   0  0  0  0  0  0  0  0  0  0  0  0
   22.2883   -8.5110  -14.7229 O   0  0  0  0  0  0  0  0  0  0  0  0
   22.4190   -9.0842  -16.8889 O   0  0  0  0  0  0  0  0  0  0  0  0
  2  4  1  0
  2  3  1  1
  2  1  1  0
  4  5  1  6
  6  4  1  0
  6  7  2  0
  9  8  1  6
  9 10  1  0
  9 11  1  0
 11 12  1  1
 12  6  1  0
 13 11  1  0
 14 13  2  0
 15 16  1  0
 17 16  1  0
 17 19  1  0
 17 18  1  1
 19 20  1  6
 19 21  1  0
 20 13  1  0
 21 22  1  0
 23 21  2  0
M  END
$$$$
