VTI.pdb
     RDKit          3D

 23 22  0  0  1  0  0  0  0  0999 V2000
   25.9512  -19.5852  -14.9181 C   0  0  0  0  0  0  0  0  0  0  0  0
   27.3596  -19.1278  -14.6174 C   0  0  2  0  0  0  0  0  0  0  0  0
   28.2881  -19.3811  -15.7818 C   0  0  0  0  0  0  0  0  0  0  0  0
   27.8178  -19.9012  -13.3741 C   0  0  2  0  0  0  0  0  0  0  0  0
   27.6411  -21.3031  -13.6893 N   0  0  0  0  0  0  0  0  0  0  0  0
   27.0082  -19.5100  -12.1956 C   0  0  0  0  0  0  0  0  0  0  0  0
   26.8904  -18.2688  -11.9619 O   0  0  0  0  0  0  0  0  0  0  0  0
   23.4514  -20.2962   -9.0741 C   0  0  0  0  0  0  0  0  0  0  0  0
   24.2448  -20.6288  -10.3014 C   0  0  1  0  0  0  0  0  0  0  0  0
   23.6274  -20.0141  -11.3892 O   0  0  0  0  0  0  0  0  0  0  0  0
   25.6805  -20.1689  -10.2252 C   0  0  2  0  0  0  0  0  0  0  0  0
   26.4255  -20.5119  -11.4143 N   0  0  0  0  0  0  0  0  0  0  0  0
   26.3858  -20.6840   -9.0473 C   0  0  0  0  0  0  0  0  0  0  0  0
   26.9811  -21.7879   -9.0892 O   0  0  0  0  0  0  0  0  0  0  0  0
   29.4195  -17.7910   -5.7888 C   0  0  0  0  0  0  0  0  0  0  0  0
   28.8502  -18.9223   -6.6584 C   0  0  0  0  0  0  0  0  0  0  0  0
   27.7329  -19.5312   -5.8874 C   0  0  2  0  0  0  0  0  0  0  0  0
   28.1872  -20.0151   -4.5281 C   0  0  0  0  0  0  0  0  0  0  0  0
   26.9405  -20.5834   -6.6227 C   0  0  2  0  0  0  0  0  0  0  0  0
   26.4289  -19.9723   -7.8242 N   0  0  0  0  0  0  0  0  0  0  0  0
   25.8999  -21.2224   -5.8151 C   0  0  0  0  0  0  0  0  0  0  0  0
   26.2103  -22.2621   -4.9756 O   0  0  0  0  0  0  0  0  0  0  0  0
   24.7241  -20.8396   -5.8729 O   0  0  0  0  0  0  0  0  0  0  0  0
  2  4  1  0
  2  3  1  6
  2  1  1  0
  4  5  1  6
  6  4  1  0
  6  7  2  0
  9  8  1  1
  9 10  1  0
  9 11  1  0
 11 12  1  6
 12  6  1  0
 13 11  1  0
 14 13  2  0
 15 16  1  0
 17 16  1  0
 17 19  1  0
 17 18  1  1
 19 20  1  6
 19 21  1  0
 20 13  1  0
 21 22  1  0
 23 21  2  0
M  END
$$$$
