VTI.pdb
     RDKit          3D

 23 22  0  0  1  0  0  0  0  0999 V2000
   21.2684  -21.3052  -11.0270 C   0  0  0  0  0  0  0  0  0  0  0  0
   21.8728  -19.9914  -11.4647 C   0  0  2  0  0  0  0  0  0  0  0  0
   20.9024  -19.1792  -12.2898 C   0  0  0  0  0  0  0  0  0  0  0  0
   23.1287  -20.3333  -12.2769 C   0  0  2  0  0  0  0  0  0  0  0  0
   22.6727  -21.1186  -13.4043 N   0  0  0  0  0  0  0  0  0  0  0  0
   24.0894  -21.0962  -11.4449 C   0  0  0  0  0  0  0  0  0  0  0  0
   24.2301  -22.3290  -11.7085 O   0  0  0  0  0  0  0  0  0  0  0  0
   27.5792  -20.3892  -11.5631 C   0  0  0  0  0  0  0  0  0  0  0  0
   26.9470  -21.5137  -10.8001 C   0  0  1  0  0  0  0  0  0  0  0  0
   27.9598  -22.1998  -10.1323 O   0  0  0  0  0  0  0  0  0  0  0  0
   25.9212  -21.0488   -9.7951 C   0  0  2  0  0  0  0  0  0  0  0  0
   24.7802  -20.4297  -10.4288 N   0  0  0  0  0  0  0  0  0  0  0  0
   26.4745  -20.1319   -8.7934 C   0  0  0  0  0  0  0  0  0  0  0  0
   26.1945  -18.9090   -8.8204 O   0  0  0  0  0  0  0  0  0  0  0  0
   26.9827  -21.3823   -3.4879 C   0  0  0  0  0  0  0  0  0  0  0  0
   26.7074  -20.4555   -4.6819 C   0  0  0  0  0  0  0  0  0  0  0  0
   27.9637  -20.4002   -5.4769 C   0  0  2  0  0  0  0  0  0  0  0  0
   29.1344  -19.9264   -4.6444 C   0  0  0  0  0  0  0  0  0  0  0  0
   27.8663  -19.6556   -6.7853 C   0  0  2  0  0  0  0  0  0  0  0  0
   27.3383  -20.5746   -7.7627 N   0  0  0  0  0  0  0  0  0  0  0  0
   29.1169  -19.0228   -7.2084 C   0  0  0  0  0  0  0  0  0  0  0  0
   29.9357  -19.6396   -8.1201 O   0  0  0  0  0  0  0  0  0  0  0  0
   29.4596  -17.9233   -6.7544 O   0  0  0  0  0  0  0  0  0  0  0  0
  2  4  1  0
  2  3  1  6
  2  1  1  0
  4  5  1  6
  6  4  1  0
  6  7  2  0
  9  8  1  1
  9 10  1  0
  9 11  1  0
 11 12  1  6
 12  6  1  0
 13 11  1  0
 14 13  2  0
 15 16  1  0
 17 16  1  0
 17 19  1  0
 17 18  1  1
 19 20  1  6
 19 21  1  0
 20 13  1  0
 21 22  1  0
 23 21  2  0
M  END
$$$$
