CRH.pdb
     RDKit          3D

 28 28  0  0  1  0  0  0  0  0999 V2000
   28.0806  -22.0692  -16.3824 N   0  0  0  0  0  0  0  0  0  0  0  0
   27.7529  -20.9967  -15.4856 C   0  0  1  0  0  0  0  0  0  0  0  0
   27.3200  -19.7580  -16.2512 C   0  0  0  0  0  0  0  0  0  0  0  0
   28.5479  -19.2864  -17.4785 S   0  0  0  0  0  0  0  0  0  0  0  0
   26.6950  -21.3939  -14.5078 C   0  0  0  0  0  0  0  0  0  0  0  0
   25.9025  -22.3359  -14.7629 O   0  0  0  0  0  0  0  0  0  0  0  0
   27.0498  -18.8955   -6.8733 N   0  0  0  0  0  0  0  0  0  0  0  0
   27.3965  -20.2079   -7.3204 C   0  0  0  0  0  0  0  0  0  0  0  0
   28.4397  -20.8000   -6.9022 N   0  0  0  0  0  0  0  0  0  0  0  0
   26.5363  -20.8487   -8.2576 N   0  0  0  0  0  0  0  0  0  0  0  0
   25.2906  -20.2425   -8.6105 C   0  0  0  0  0  0  0  0  0  0  0  0
   24.8500  -20.7633   -9.9615 C   0  0  0  0  0  0  0  0  0  0  0  0
   25.9217  -20.3756  -10.9573 C   0  0  0  0  0  0  0  0  0  0  0  0
   25.5135  -20.9254  -12.3232 C   0  0  2  0  0  0  0  0  0  0  0  0
   26.5753  -20.6982  -13.2617 N   0  0  0  0  0  0  0  0  0  0  0  0
   24.3219  -20.1182  -12.7392 C   0  0  0  0  0  0  0  0  0  0  0  0
   24.4871  -19.0024  -13.2883 O   0  0  0  0  0  0  0  0  0  0  0  0
   28.7304  -21.7159   -7.2770 N   0  0  0  0  0  0  0  0  0  0  0  0
   22.9980  -20.5660  -12.5368 C   0  0  1  0  0  0  0  0  0  0  0  0
   21.9984  -20.2853  -13.5300 C   0  0  0  0  0  0  0  0  0  0  0  0
   22.3525  -20.8875  -14.8786 C   0  0  0  0  0  0  0  0  0  0  0  0
   21.3310  -20.4447  -15.8389 C   0  0  0  0  0  0  0  0  0  0  0  0
   20.2461  -19.6679  -15.5489 N   0  0  0  0  0  0  0  0  0  0  0  0
   19.5378  -19.4727  -16.6912 C   0  0  0  0  0  0  0  0  0  0  0  0
   20.1951  -20.1308  -17.6665 N   0  0  0  0  0  0  0  0  0  0  0  0
   21.2979  -20.7278  -17.1390 C   0  0  0  0  0  0  0  0  0  0  0  0
   20.6605  -20.8180  -13.1441 O   0  0  0  0  0  0  0  0  0  0  0  0
   20.6052  -21.8551  -12.4647 O   0  0  0  0  0  0  0  0  0  0  0  0
  2  1  1  6
  3  2  1  0
  3  4  1  0
  5  2  1  0
  5  6  2  0
  7  8  1  0
  8  9  2  0
 10  8  1  0
 10 11  1  0
 11 12  1  0
 14 13  1  1
 13 12  1  0
 14 15  1  0
 15  5  1  0
 16 14  1  0
 17 16  2  0
 18 16  1  0
 19 20  1  6
 19 18  1  0
 21 22  2  0
 21 20  1  0
 23 22  1  0
 24 25  2  0
 24 23  1  0
 25 21  1  0
 26 19  1  0
 27 26  2  0
 28 26  1  0
M  END
$$$$
