CRH.pdb
     RDKit          3D

 28 28  0  0  1  0  0  0  0  0999 V2000
   26.0448  -21.2973  -15.4303 N   0  0  0  0  0  0  0  0  0  0  0  0
   26.1629  -20.4479  -14.2787 C   0  0  1  0  0  0  0  0  0  0  0  0
   27.0496  -19.2499  -14.5727 C   0  0  0  0  0  0  0  0  0  0  0  0
   28.6333  -19.7613  -15.2559 S   0  0  0  0  0  0  0  0  0  0  0  0
   24.8280  -19.9922  -13.7854 C   0  0  0  0  0  0  0  0  0  0  0  0
   24.7302  -19.2847  -12.7508 O   0  0  0  0  0  0  0  0  0  0  0  0
   17.6992  -19.4878  -18.4243 N   0  0  0  0  0  0  0  0  0  0  0  0
   19.1060  -19.2397  -18.4640 C   0  0  0  0  0  0  0  0  0  0  0  0
   19.7255  -19.0916  -19.5631 N   0  0  0  0  0  0  0  0  0  0  0  0
   19.8105  -19.1600  -17.2285 N   0  0  0  0  0  0  0  0  0  0  0  0
   19.1300  -19.4368  -16.0021 C   0  0  0  0  0  0  0  0  0  0  0  0
   20.0963  -19.2693  -14.8493 C   0  0  0  0  0  0  0  0  0  0  0  0
   21.4355  -19.8008  -15.3123 C   0  0  0  0  0  0  0  0  0  0  0  0
   22.3176  -19.9875  -14.0787 C   0  0  2  0  0  0  0  0  0  0  0  0
   23.6395  -20.3615  -14.4941 N   0  0  0  0  0  0  0  0  0  0  0  0
   21.7097  -21.1282  -13.3214 C   0  0  0  0  0  0  0  0  0  0  0  0
   22.4529  -21.9722  -12.7652 O   0  0  0  0  0  0  0  0  0  0  0  0
   20.7395  -18.9060  -19.5933 N   0  0  0  0  0  0  0  0  0  0  0  0
   20.3127  -21.2982  -13.2042 C   0  0  1  0  0  0  0  0  0  0  0  0
   19.7964  -22.3175  -12.3330 C   0  0  0  0  0  0  0  0  0  0  0  0
   20.2476  -22.1193  -10.8964 C   0  0  0  0  0  0  0  0  0  0  0  0
   19.7202  -23.2451  -10.1114 C   0  0  0  0  0  0  0  0  0  0  0  0
   18.9443  -24.2601  -10.5932 N   0  0  0  0  0  0  0  0  0  0  0  0
   18.6569  -25.1061   -9.5702 C   0  0  0  0  0  0  0  0  0  0  0  0
   19.2587  -24.6011   -8.4752 N   0  0  0  0  0  0  0  0  0  0  0  0
   19.9120  -23.4561   -8.8113 C   0  0  0  0  0  0  0  0  0  0  0  0
   18.3059  -22.3487  -12.3294 O   0  0  0  0  0  0  0  0  0  0  0  0
   17.6879  -21.3522  -12.7358 O   0  0  0  0  0  0  0  0  0  0  0  0
  2  1  1  6
  3  2  1  0
  3  4  1  0
  5  2  1  0
  5  6  2  0
  7  8  1  0
  8  9  2  0
 10  8  1  0
 10 11  1  0
 11 12  1  0
 14 13  1  6
 13 12  1  0
 14 15  1  0
 15  5  1  0
 16 14  1  0
 17 16  2  0
 18 16  1  0
 19 20  1  1
 19 18  1  0
 21 22  2  0
 21 20  1  0
 23 22  1  0
 24 25  2  0
 24 23  1  0
 25 21  1  0
 26 19  1  0
 27 26  2  0
 28 26  1  0
M  END
$$$$
