CRH.pdb
     RDKit          3D

 28 28  0  0  1  0  0  0  0  0999 V2000
   27.2084  -21.0737   -9.6853 N   0  0  0  0  0  0  0  0  0  0  0  0
   26.2000  -21.2170  -10.6975 C   0  0  1  0  0  0  0  0  0  0  0  0
   24.8378  -20.7940  -10.1747 C   0  0  0  0  0  0  0  0  0  0  0  0
   24.4076  -21.6882   -8.6740 S   0  0  0  0  0  0  0  0  0  0  0  0
   26.5395  -20.4476  -11.9327 C   0  0  0  0  0  0  0  0  0  0  0  0
   26.8835  -19.2403  -11.8658 O   0  0  0  0  0  0  0  0  0  0  0  0
   31.0638  -23.7158  -14.7174 N   0  0  0  0  0  0  0  0  0  0  0  0
   30.0423  -24.1755  -15.6048 C   0  0  0  0  0  0  0  0  0  0  0  0
   29.7924  -25.4127  -15.7488 N   0  0  0  0  0  0  0  0  0  0  0  0
   29.2984  -23.2049  -16.3352 N   0  0  0  0  0  0  0  0  0  0  0  0
   29.6424  -21.8210  -16.2344 C   0  0  0  0  0  0  0  0  0  0  0  0
   28.8779  -21.2017  -15.0843 C   0  0  0  0  0  0  0  0  0  0  0  0
   27.4078  -21.2830  -15.4341 C   0  0  0  0  0  0  0  0  0  0  0  0
   26.6435  -20.3905  -14.4573 C   0  0  2  0  0  0  0  0  0  0  0  0
   26.4749  -21.0858  -13.2131 N   0  0  0  0  0  0  0  0  0  0  0  0
   25.2963  -20.1803  -15.0781 C   0  0  0  0  0  0  0  0  0  0  0  0
   24.2803  -20.6904  -14.5476 O   0  0  0  0  0  0  0  0  0  0  0  0
   29.0755  -25.7477  -16.4103 N   0  0  0  0  0  0  0  0  0  0  0  0
   25.1168  -19.4200  -16.2544 C   0  0  2  0  0  0  0  0  0  0  0  0
   23.8490  -18.7905  -16.5013 C   0  0  0  0  0  0  0  0  0  0  0  0
   23.5177  -17.7476  -15.4481 C   0  0  0  0  0  0  0  0  0  0  0  0
   22.1816  -17.2186  -15.7591 C   0  0  0  0  0  0  0  0  0  0  0  0
   21.0124  -17.6071  -15.1705 N   0  0  0  0  0  0  0  0  0  0  0  0
   19.9951  -16.8948  -15.7207 C   0  0  0  0  0  0  0  0  0  0  0  0
   20.5512  -16.0795  -16.6385 N   0  0  0  0  0  0  0  0  0  0  0  0
   21.8965  -16.2811  -16.6599 C   0  0  0  0  0  0  0  0  0  0  0  0
   23.8106  -18.1095  -17.8271 O   0  0  0  0  0  0  0  0  0  0  0  0
   24.8462  -17.5737  -18.2521 O   0  0  0  0  0  0  0  0  0  0  0  0
  2  1  1  1
  3  2  1  0
  3  4  1  0
  5  2  1  0
  5  6  2  0
  7  8  1  0
  8  9  2  0
 10  8  1  0
 10 11  1  0
 11 12  1  0
 14 13  1  6
 13 12  1  0
 14 15  1  0
 15  5  1  0
 16 14  1  0
 17 16  2  0
 18 16  1  0
 19 20  1  6
 19 18  1  0
 21 22  2  0
 21 20  1  0
 23 22  1  0
 24 25  2  0
 24 23  1  0
 25 21  1  0
 26 19  1  0
 27 26  2  0
 28 26  1  0
M  END
$$$$
