CRH.pdb
     RDKit          3D

 28 28  0  0  1  0  0  0  0  0999 V2000
   25.0119  -16.1767   11.9229 N   0  0  0  0  0  0  0  0  0  0  0  0
   24.7573  -16.3473   10.5200 C   0  0  1  0  0  0  0  0  0  0  0  0
   25.5242  -17.5362    9.9666 C   0  0  0  0  0  0  0  0  0  0  0  0
   27.2650  -17.1426    9.7403 S   0  0  0  0  0  0  0  0  0  0  0  0
   23.2981  -16.4973   10.2346 C   0  0  0  0  0  0  0  0  0  0  0  0
   22.5613  -17.1833   10.9875 O   0  0  0  0  0  0  0  0  0  0  0  0
   18.4753  -11.8037    4.6655 N   0  0  0  0  0  0  0  0  0  0  0  0
   17.8615  -13.0935    4.7080 C   0  0  0  0  0  0  0  0  0  0  0  0
   16.9642  -13.4319    3.8749 N   0  0  0  0  0  0  0  0  0  0  0  0
   18.2822  -14.0062    5.7176 N   0  0  0  0  0  0  0  0  0  0  0  0
   19.1438  -13.5590    6.7670 C   0  0  0  0  0  0  0  0  0  0  0  0
   19.4719  -14.7270    7.6718 C   0  0  0  0  0  0  0  0  0  0  0  0
   20.9757  -14.7483    7.8408 C   0  0  0  0  0  0  0  0  0  0  0  0
   21.3272  -15.9142    8.7638 C   0  0  2  0  0  0  0  0  0  0  0  0
   22.7234  -15.8548    9.0910 N   0  0  0  0  0  0  0  0  0  0  0  0
   21.0733  -17.1519    7.9589 C   0  0  0  0  0  0  0  0  0  0  0  0
   21.8657  -17.4700    7.0398 O   0  0  0  0  0  0  0  0  0  0  0  0
   16.5035  -14.3536    3.9186 N   0  0  0  0  0  0  0  0  0  0  0  0
   19.9617  -17.9908    8.1934 C   0  0  2  0  0  0  0  0  0  0  0  0
   19.7591  -19.1434    7.3597 C   0  0  0  0  0  0  0  0  0  0  0  0
   18.9384  -20.2132    8.0587 C   0  0  0  0  0  0  0  0  0  0  0  0
   19.8576  -20.9891    8.9043 C   0  0  0  0  0  0  0  0  0  0  0  0
   21.1993  -20.7714    9.0335 N   0  0  0  0  0  0  0  0  0  0  0  0
   21.7035  -21.6885    9.8992 C   0  0  0  0  0  0  0  0  0  0  0  0
   20.6672  -22.4564   10.2900 N   0  0  0  0  0  0  0  0  0  0  0  0
   19.5329  -22.0237    9.6761 C   0  0  0  0  0  0  0  0  0  0  0  0
   19.0532  -18.8005    6.0921 O   0  0  0  0  0  0  0  0  0  0  0  0
   19.0438  -19.6325    5.1713 O   0  0  0  0  0  0  0  0  0  0  0  0
  2  1  1  1
  3  2  1  0
  3  4  1  0
  5  2  1  0
  5  6  2  0
  7  8  1  0
  8  9  2  0
 10  8  1  0
 10 11  1  0
 11 12  1  0
 14 13  1  6
 13 12  1  0
 14 15  1  0
 15  5  1  0
 16 14  1  0
 17 16  2  0
 18 16  1  0
 19 20  1  1
 19 18  1  0
 21 22  2  0
 21 20  1  0
 23 22  1  0
 24 25  2  0
 24 23  1  0
 25 21  1  0
 26 19  1  0
 27 26  2  0
 28 26  1  0
M  END
$$$$
