CRH.pdb
     RDKit          3D

 28 28  0  0  1  0  0  0  0  0999 V2000
   25.4577  -17.3389  -20.5984 N   0  0  0  0  0  0  0  0  0  0  0  0
   25.3196  -16.7748  -19.2852 C   0  0  1  0  0  0  0  0  0  0  0  0
   24.5035  -15.4940  -19.3242 C   0  0  0  0  0  0  0  0  0  0  0  0
   22.8244  -15.8064  -19.8896 S   0  0  0  0  0  0  0  0  0  0  0  0
   24.7106  -17.7448  -18.3253 C   0  0  0  0  0  0  0  0  0  0  0  0
   23.8524  -18.5791  -18.7096 O   0  0  0  0  0  0  0  0  0  0  0  0
   26.6173  -21.5503  -10.7991 N   0  0  0  0  0  0  0  0  0  0  0  0
   27.3427  -21.2373  -11.9899 C   0  0  0  0  0  0  0  0  0  0  0  0
   28.3989  -21.8660  -12.3111 N   0  0  0  0  0  0  0  0  0  0  0  0
   26.8508  -20.1913  -12.8224 N   0  0  0  0  0  0  0  0  0  0  0  0
   25.6453  -19.5085  -12.4699 C   0  0  0  0  0  0  0  0  0  0  0  0
   24.7275  -19.4683  -13.6727 C   0  0  0  0  0  0  0  0  0  0  0  0
   25.4292  -18.6555  -14.7391 C   0  0  0  0  0  0  0  0  0  0  0  0
   24.4879  -18.5422  -15.9373 C   0  0  2  0  0  0  0  0  0  0  0  0
   25.1038  -17.7307  -16.9483 N   0  0  0  0  0  0  0  0  0  0  0  0
   23.2719  -17.8328  -15.4249 C   0  0  0  0  0  0  0  0  0  0  0  0
   23.3618  -16.6418  -15.0410 O   0  0  0  0  0  0  0  0  0  0  0  0
   28.9704  -21.5868  -13.1228 N   0  0  0  0  0  0  0  0  0  0  0  0
   22.0070  -18.4568  -15.3537 C   0  0  1  0  0  0  0  0  0  0  0  0
   20.8880  -17.7255  -14.8269 C   0  0  0  0  0  0  0  0  0  0  0  0
   20.1833  -16.9141  -15.9000 C   0  0  0  0  0  0  0  0  0  0  0  0
   19.1805  -16.0747  -15.2281 C   0  0  0  0  0  0  0  0  0  0  0  0
   19.2897  -15.5519  -13.9715 N   0  0  0  0  0  0  0  0  0  0  0  0
   18.1671  -14.8361  -13.7031 C   0  0  0  0  0  0  0  0  0  0  0  0
   17.3839  -14.9281  -14.7961 N   0  0  0  0  0  0  0  0  0  0  0  0
   18.0101  -15.6908  -15.7326 C   0  0  0  0  0  0  0  0  0  0  0  0
   19.8708  -18.6252  -14.2115 O   0  0  0  0  0  0  0  0  0  0  0  0
   19.6612  -19.7320  -14.7323 O   0  0  0  0  0  0  0  0  0  0  0  0
  2  1  1  6
  3  2  1  0
  3  4  1  0
  5  2  1  0
  5  6  2  0
  7  8  1  0
  8  9  2  0
 10  8  1  0
 10 11  1  0
 11 12  1  0
 14 13  1  1
 13 12  1  0
 14 15  1  0
 15  5  1  0
 16 14  1  0
 17 16  2  0
 18 16  1  0
 19 20  1  1
 19 18  1  0
 21 22  2  0
 21 20  1  0
 23 22  1  0
 24 25  2  0
 24 23  1  0
 25 21  1  0
 26 19  1  0
 27 26  2  0
 28 26  1  0
M  END
$$$$
