CRH.pdb
     RDKit          3D

 28 28  0  0  1  0  0  0  0  0999 V2000
   26.4593  -14.5267  -17.0087 N   0  0  0  0  0  0  0  0  0  0  0  0
   25.9637  -13.3885  -16.2870 C   0  0  1  0  0  0  0  0  0  0  0  0
   27.0168  -12.2972  -16.1989 C   0  0  0  0  0  0  0  0  0  0  0  0
   28.5151  -12.8979  -15.4046 S   0  0  0  0  0  0  0  0  0  0  0  0
   24.7107  -12.8476  -16.8956 C   0  0  0  0  0  0  0  0  0  0  0  0
   24.5507  -12.8404  -18.1425 O   0  0  0  0  0  0  0  0  0  0  0  0
   19.3371  -17.4583  -15.6289 N   0  0  0  0  0  0  0  0  0  0  0  0
   19.8848  -16.5497  -14.6713 C   0  0  0  0  0  0  0  0  0  0  0  0
   20.0328  -16.8759  -13.4525 N   0  0  0  0  0  0  0  0  0  0  0  0
   20.2677  -15.2521  -15.1170 N   0  0  0  0  0  0  0  0  0  0  0  0
   20.0731  -14.8830  -16.4843 C   0  0  0  0  0  0  0  0  0  0  0  0
   21.2411  -14.0360  -16.9411 C   0  0  0  0  0  0  0  0  0  0  0  0
   21.3121  -12.8416  -16.0144 C   0  0  0  0  0  0  0  0  0  0  0  0
   22.3937  -11.9011  -16.5439 C   0  0  2  0  0  0  0  0  0  0  0  0
   23.6737  -12.3287  -16.0552 N   0  0  0  0  0  0  0  0  0  0  0  0
   22.0782  -10.5589  -15.9579 C   0  0  0  0  0  0  0  0  0  0  0  0
   22.4624  -10.2811  -14.7964 O   0  0  0  0  0  0  0  0  0  0  0  0
   20.5125  -16.2581  -12.7802 N   0  0  0  0  0  0  0  0  0  0  0  0
   21.3549   -9.5756  -16.6680 C   0  0  1  0  0  0  0  0  0  0  0  0
   21.1696   -8.2762  -16.0835 C   0  0  0  0  0  0  0  0  0  0  0  0
   22.4930   -7.5922  -15.7877 C   0  0  0  0  0  0  0  0  0  0  0  0
   22.1886   -6.3135  -15.1289 C   0  0  0  0  0  0  0  0  0  0  0  0
   21.6068   -6.1659  -13.9025 N   0  0  0  0  0  0  0  0  0  0  0  0
   21.4896   -4.8390  -13.6376 C   0  0  0  0  0  0  0  0  0  0  0  0
   21.9997   -4.1894  -14.7026 N   0  0  0  0  0  0  0  0  0  0  0  0
   22.4290   -5.0993  -15.6184 C   0  0  0  0  0  0  0  0  0  0  0  0
   20.3902   -7.3682  -16.9727 O   0  0  0  0  0  0  0  0  0  0  0  0
   20.3095   -7.6416  -18.1806 O   0  0  0  0  0  0  0  0  0  0  0  0
  2  1  1  6
  3  2  1  0
  3  4  1  0
  5  2  1  0
  5  6  2  0
  7  8  1  0
  8  9  2  0
 10  8  1  0
 10 11  1  0
 11 12  1  0
 14 13  1  1
 13 12  1  0
 14 15  1  0
 15  5  1  0
 16 14  1  0
 17 16  2  0
 18 16  1  0
 19 20  1  1
 19 18  1  0
 21 22  2  0
 21 20  1  0
 23 22  1  0
 24 25  2  0
 24 23  1  0
 25 21  1  0
 26 19  1  0
 27 26  2  0
 28 26  1  0
M  END
$$$$
