CRH.pdb
     RDKit          3D

 28 28  0  0  1  0  0  0  0  0999 V2000
   19.3527  -24.0428  -12.8305 N   0  0  0  0  0  0  0  0  0  0  0  0
   19.1455  -23.8916  -11.4177 C   0  0  1  0  0  0  0  0  0  0  0  0
   18.8024  -22.4538  -11.0672 C   0  0  0  0  0  0  0  0  0  0  0  0
   18.8903  -21.3896  -12.5151 S   0  0  0  0  0  0  0  0  0  0  0  0
   18.0841  -24.8129  -10.9102 C   0  0  0  0  0  0  0  0  0  0  0  0
   17.0875  -25.1013  -11.6202 O   0  0  0  0  0  0  0  0  0  0  0  0
   22.1503  -29.3306  -10.2610 N   0  0  0  0  0  0  0  0  0  0  0  0
   21.0972  -30.1335   -9.7239 C   0  0  0  0  0  0  0  0  0  0  0  0
   21.2901  -30.9141   -8.7404 N   0  0  0  0  0  0  0  0  0  0  0  0
   19.8075  -30.0396  -10.3215 N   0  0  0  0  0  0  0  0  0  0  0  0
   19.4320  -28.8507  -11.0208 C   0  0  0  0  0  0  0  0  0  0  0  0
   19.1634  -27.7489  -10.0186 C   0  0  0  0  0  0  0  0  0  0  0  0
   17.6713  -27.7328   -9.7664 C   0  0  0  0  0  0  0  0  0  0  0  0
   17.3230  -26.4030   -9.0991 C   0  0  2  0  0  0  0  0  0  0  0  0
   18.1956  -25.3793   -9.5996 N   0  0  0  0  0  0  0  0  0  0  0  0
   17.6014  -26.6026   -7.6407 C   0  0  0  0  0  0  0  0  0  0  0  0
   18.7868  -26.6226   -7.2304 O   0  0  0  0  0  0  0  0  0  0  0  0
   20.5375  -31.5123   -8.3672 N   0  0  0  0  0  0  0  0  0  0  0  0
   16.5701  -26.7722   -6.6909 C   0  0  2  0  0  0  0  0  0  0  0  0
   16.9048  -26.8852   -5.2982 C   0  0  0  0  0  0  0  0  0  0  0  0
   15.6990  -26.6564   -4.4036 C   0  0  0  0  0  0  0  0  0  0  0  0
   15.1966  -25.3028   -4.6817 C   0  0  0  0  0  0  0  0  0  0  0  0
   15.8127  -24.3675   -5.4627 N   0  0  0  0  0  0  0  0  0  0  0  0
   15.0462  -23.2464   -5.4786 C   0  0  0  0  0  0  0  0  0  0  0  0
   13.9711  -23.5066   -4.7087 N   0  0  0  0  0  0  0  0  0  0  0  0
   14.0665  -24.7726   -4.2198 C   0  0  0  0  0  0  0  0  0  0  0  0
   17.4577  -28.2284   -4.9623 O   0  0  0  0  0  0  0  0  0  0  0  0
   17.4668  -29.1057   -5.8401 O   0  0  0  0  0  0  0  0  0  0  0  0
  2  1  1  6
  3  2  1  0
  3  4  1  0
  5  2  1  0
  5  6  2  0
  7  8  1  0
  8  9  2  0
 10  8  1  0
 10 11  1  0
 11 12  1  0
 14 13  1  6
 13 12  1  0
 14 15  1  0
 15  5  1  0
 16 14  1  0
 17 16  2  0
 18 16  1  0
 19 20  1  6
 19 18  1  0
 21 22  2  0
 21 20  1  0
 23 22  1  0
 24 25  2  0
 24 23  1  0
 25 21  1  0
 26 19  1  0
 27 26  2  0
 28 26  1  0
M  END
$$$$
