CRH.pdb
     RDKit          3D

 28 28  0  0  1  0  0  0  0  0999 V2000
   17.4453  -13.2916  -15.6943 N   0  0  0  0  0  0  0  0  0  0  0  0
   18.1518  -12.1937  -16.2922 C   0  0  1  0  0  0  0  0  0  0  0  0
   17.2718  -10.9581  -16.3742 C   0  0  0  0  0  0  0  0  0  0  0  0
   15.7684  -11.2876  -17.3059 S   0  0  0  0  0  0  0  0  0  0  0  0
   19.4142  -11.8793  -15.5570 C   0  0  0  0  0  0  0  0  0  0  0  0
   19.4686  -11.9640  -14.3039 O   0  0  0  0  0  0  0  0  0  0  0  0
   27.6904  -13.6707  -17.1390 N   0  0  0  0  0  0  0  0  0  0  0  0
   27.7701  -12.7889  -16.0173 C   0  0  0  0  0  0  0  0  0  0  0  0
   28.8713  -12.5604  -15.4266 N   0  0  0  0  0  0  0  0  0  0  0  0
   26.5728  -12.1614  -15.5681 N   0  0  0  0  0  0  0  0  0  0  0  0
   25.3435  -12.3968  -16.2589 C   0  0  0  0  0  0  0  0  0  0  0  0
   24.2495  -11.5670  -15.6223 C   0  0  0  0  0  0  0  0  0  0  0  0
   22.9547  -11.9341  -16.3146 C   0  0  0  0  0  0  0  0  0  0  0  0
   21.8288  -11.1389  -15.6553 C   0  0  2  0  0  0  0  0  0  0  0  0
   20.5819  -11.4755  -16.2813 N   0  0  0  0  0  0  0  0  0  0  0  0
   22.1368   -9.7003  -15.9379 C   0  0  0  0  0  0  0  0  0  0  0  0
   21.7126   -9.1685  -16.9920 O   0  0  0  0  0  0  0  0  0  0  0  0
   28.9143  -12.0191  -14.5498 N   0  0  0  0  0  0  0  0  0  0  0  0
   22.8969   -8.9027  -15.0545 C   0  0  1  0  0  0  0  0  0  0  0  0
   23.0666   -7.5038  -15.3353 C   0  0  0  0  0  0  0  0  0  0  0  0
   23.2058   -7.2358  -16.8237 C   0  0  0  0  0  0  0  0  0  0  0  0
   23.5493   -5.8151  -16.9836 C   0  0  0  0  0  0  0  0  0  0  0  0
   24.5042   -5.1404  -16.2784 N   0  0  0  0  0  0  0  0  0  0  0  0
   24.5273   -3.8520  -16.7075 C   0  0  0  0  0  0  0  0  0  0  0  0
   23.5882   -3.7517  -17.6689 N   0  0  0  0  0  0  0  0  0  0  0  0
   22.9882   -4.9611  -17.8365 C   0  0  0  0  0  0  0  0  0  0  0  0
   21.9177   -6.6907  -14.8438 O   0  0  0  0  0  0  0  0  0  0  0  0
   20.7648   -7.0952  -15.0615 O   0  0  0  0  0  0  0  0  0  0  0  0
  2  1  1  1
  3  2  1  0
  3  4  1  0
  5  2  1  0
  5  6  2  0
  7  8  1  0
  8  9  2  0
 10  8  1  0
 10 11  1  0
 11 12  1  0
 14 13  1  6
 13 12  1  0
 14 15  1  0
 15  5  1  0
 16 14  1  0
 17 16  2  0
 18 16  1  0
 19 20  1  1
 19 18  1  0
 21 22  2  0
 21 20  1  0
 23 22  1  0
 24 25  2  0
 24 23  1  0
 25 21  1  0
 26 19  1  0
 27 26  2  0
 28 26  1  0
M  END
$$$$
