ICE.pdb
     RDKit          3D

 24 23  0  0  1  0  0  0  0  0999 V2000
    7.9518  -12.2612   18.5884 C   0  0  0  0  0  0  0  0  0  0  0  0
    7.3104  -13.4190   19.2785 C   0  0  0  0  0  0  0  0  0  0  0  0
    7.8288  -13.6152   20.7004 C   0  0  2  0  0  0  0  0  0  0  0  0
    9.3107  -13.8276   20.7269 C   0  0  0  0  0  0  0  0  0  0  0  0
    7.1328  -14.8449   21.2414 C   0  0  2  0  0  0  0  0  0  0  0  0
    5.7103  -14.8107   21.0007 N   0  0  0  0  0  0  0  0  0  0  0  0
    7.3878  -15.0416   22.6920 C   0  0  0  0  0  0  0  0  0  0  0  0
    7.0060  -14.1366   23.4775 O   0  0  0  0  0  0  0  0  0  0  0  0
    8.0391  -16.2139   23.1507 N   0  0  0  0  0  0  0  0  0  0  0  0
    8.9099  -16.1035   24.3412 C   0  0  1  0  0  0  0  0  0  0  0  0
    8.0165  -16.3896   25.5603 C   0  0  0  0  0  0  0  0  0  0  0  0
    6.6076  -17.4265   25.1400 S   0  0  0  0  0  0  0  0  0  0  0  0
    9.9406  -17.1511   24.3088 C   0  0  0  0  0  0  0  0  0  0  0  0
   10.0235  -17.8851   23.2615 O   0  0  0  0  0  0  0  0  0  0  0  0
   10.8558  -17.4294   25.3231 N   0  0  0  0  0  0  0  0  0  0  0  0
   12.2390  -17.8603   25.0662 C   0  0  1  0  0  0  0  0  0  0  0  0
   12.9064  -16.8049   24.2264 C   0  0  0  0  0  0  0  0  0  0  0  0
   14.3066  -17.1822   23.9043 C   0  0  0  0  0  0  0  0  0  0  0  0
   15.0002  -16.1081   23.1108 C   0  0  0  0  0  0  0  0  0  0  0  0
   15.9085  -15.4633   23.6542 O   0  0  0  0  0  0  0  0  0  0  0  0
   12.9727  -18.0105   26.3405 C   0  0  0  0  0  0  0  0  0  0  0  0
   12.5677  -17.5759   27.5734 O   0  0  0  0  0  0  0  0  0  0  0  0
   14.6230  -15.8641   21.8224 O   0  0  0  0  0  0  0  0  0  0  0  0
   14.1097  -18.6134   26.2552 O   0  0  0  0  0  0  0  0  0  0  0  0
  2  1  1  0
  3  5  1  0
  3  2  1  0
  3  4  1  6
  5  6  1  1
  5  7  1  0
  7  8  2  0
  9  7  1  0
  9 10  1  0
 10 13  1  0
 10 11  1  1
 12 11  1  0
 13 14  2  0
 15 13  1  0
 15 16  1  0
 16 21  1  0
 16 17  1  6
 18 17  1  0
 19 20  2  0
 19 18  1  0
 21 22  1  0
 23 19  1  0
 24 21  2  0
M  END
$$$$
