ICE.pdb
     RDKit          3D

 24 23  0  0  1  0  0  0  0  0999 V2000
    8.1189  -11.7626   19.6875 C   0  0  0  0  0  0  0  0  0  0  0  0
    7.5466  -12.8647   20.5158 C   0  0  0  0  0  0  0  0  0  0  0  0
    8.1617  -14.2231   20.1911 C   0  0  2  0  0  0  0  0  0  0  0  0
    7.8463  -14.6557   18.7929 C   0  0  0  0  0  0  0  0  0  0  0  0
    7.5622  -15.2072   21.1716 C   0  0  2  0  0  0  0  0  0  0  0  0
    6.1223  -15.2473   21.0851 N   0  0  0  0  0  0  0  0  0  0  0  0
    7.9693  -14.9227   22.5721 C   0  0  0  0  0  0  0  0  0  0  0  0
    7.9148  -13.7282   22.9621 O   0  0  0  0  0  0  0  0  0  0  0  0
    8.3998  -15.9744   23.4190 N   0  0  0  0  0  0  0  0  0  0  0  0
    8.8797  -15.6229   24.7732 C   0  0  1  0  0  0  0  0  0  0  0  0
    7.6578  -15.0923   25.5424 C   0  0  0  0  0  0  0  0  0  0  0  0
    6.1835  -16.0767   25.2354 S   0  0  0  0  0  0  0  0  0  0  0  0
    9.3366  -16.8316   25.4740 C   0  0  0  0  0  0  0  0  0  0  0  0
    8.6455  -17.9030   25.3441 O   0  0  0  0  0  0  0  0  0  0  0  0
   10.4700  -16.9304   26.2799 N   0  0  0  0  0  0  0  0  0  0  0  0
   11.2581  -18.1654   26.4164 C   0  0  1  0  0  0  0  0  0  0  0  0
   12.6047  -17.9296   25.7875 C   0  0  0  0  0  0  0  0  0  0  0  0
   13.4954  -19.1042   25.9713 C   0  0  0  0  0  0  0  0  0  0  0  0
   14.8435  -18.8796   25.3419 C   0  0  0  0  0  0  0  0  0  0  0  0
   15.7799  -19.6242   25.6657 O   0  0  0  0  0  0  0  0  0  0  0  0
   11.4354  -18.5034   27.8443 C   0  0  0  0  0  0  0  0  0  0  0  0
   11.0185  -17.7636   28.9177 O   0  0  0  0  0  0  0  0  0  0  0  0
   15.0118  -17.8729   24.4363 O   0  0  0  0  0  0  0  0  0  0  0  0
   12.0516  -19.6123   28.0768 O   0  0  0  0  0  0  0  0  0  0  0  0
  2  1  1  0
  3  5  1  0
  3  2  1  0
  3  4  1  6
  5  6  1  1
  5  7  1  0
  7  8  2  0
  9  7  1  0
  9 10  1  0
 10 13  1  0
 10 11  1  1
 12 11  1  0
 13 14  2  0
 15 13  1  0
 15 16  1  0
 16 21  1  0
 16 17  1  1
 18 17  1  0
 19 20  2  0
 19 18  1  0
 21 22  1  0
 23 19  1  0
 24 21  2  0
M  END
$$$$
