ICE.pdb
     RDKit          3D

 24 23  0  0  1  0  0  0  0  0999 V2000
    6.5172  -11.7301   27.4016 C   0  0  0  0  0  0  0  0  0  0  0  0
    5.9936  -12.9401   26.7017 C   0  0  0  0  0  0  0  0  0  0  0  0
    7.0860  -13.7114   25.9664 C   0  0  2  0  0  0  0  0  0  0  0  0
    7.7404  -12.8763   24.9099 C   0  0  0  0  0  0  0  0  0  0  0  0
    6.4074  -14.9003   25.3219 C   0  0  2  0  0  0  0  0  0  0  0  0
    5.8105  -15.7777   26.2999 N   0  0  0  0  0  0  0  0  0  0  0  0
    7.3349  -15.6755   24.4577 C   0  0  0  0  0  0  0  0  0  0  0  0
    8.0175  -16.5806   25.0025 O   0  0  0  0  0  0  0  0  0  0  0  0
    7.4303  -15.3879   23.0732 N   0  0  0  0  0  0  0  0  0  0  0  0
    8.3762  -16.1851   22.2623 C   0  0  1  0  0  0  0  0  0  0  0  0
    8.1328  -15.7876   20.7963 C   0  0  0  0  0  0  0  0  0  0  0  0
    6.9037  -14.4827   20.6427 S   0  0  0  0  0  0  0  0  0  0  0  0
    9.7591  -15.8060   22.5860 C   0  0  0  0  0  0  0  0  0  0  0  0
    9.9617  -14.6594   23.1215 O   0  0  0  0  0  0  0  0  0  0  0  0
   10.8937  -16.5858   22.3657 N   0  0  0  0  0  0  0  0  0  0  0  0
   12.1712  -16.3668   23.0621 C   0  0  1  0  0  0  0  0  0  0  0  0
   11.9568  -16.6456   24.5253 C   0  0  0  0  0  0  0  0  0  0  0  0
   11.5543  -18.0580   24.7486 C   0  0  0  0  0  0  0  0  0  0  0  0
   11.5289  -18.4007   26.2136 C   0  0  0  0  0  0  0  0  0  0  0  0
   11.9809  -19.4972   26.5734 O   0  0  0  0  0  0  0  0  0  0  0  0
   13.2047  -17.2820   22.5340 C   0  0  0  0  0  0  0  0  0  0  0  0
   13.0022  -18.3559   21.7101 O   0  0  0  0  0  0  0  0  0  0  0  0
   11.0153  -17.5104   27.1111 O   0  0  0  0  0  0  0  0  0  0  0  0
   14.4127  -17.0232   22.9044 O   0  0  0  0  0  0  0  0  0  0  0  0
  2  1  1  0
  3  5  1  0
  3  2  1  0
  3  4  1  6
  5  6  1  1
  5  7  1  0
  7  8  2  0
  9  7  1  0
  9 10  1  0
 10 13  1  0
 10 11  1  6
 12 11  1  0
 13 14  2  0
 15 13  1  0
 15 16  1  0
 16 21  1  0
 16 17  1  1
 18 17  1  0
 19 20  2  0
 19 18  1  0
 21 22  1  0
 23 19  1  0
 24 21  2  0
M  END
$$$$
