ICE.pdb
     RDKit          3D

 24 23  0  0  1  0  0  0  0  0999 V2000
    7.3034  -16.0571   17.7462 C   0  0  0  0  0  0  0  0  0  0  0  0
    7.2840  -14.8466   18.6193 C   0  0  0  0  0  0  0  0  0  0  0  0
    7.8544  -15.1161   20.0090 C   0  0  2  0  0  0  0  0  0  0  0  0
    7.0756  -16.1693   20.7343 C   0  0  0  0  0  0  0  0  0  0  0  0
    7.7643  -13.8097   20.7668 C   0  0  2  0  0  0  0  0  0  0  0  0
    8.4469  -12.7389   20.0813 N   0  0  0  0  0  0  0  0  0  0  0  0
    8.2877  -13.9275   22.1525 C   0  0  0  0  0  0  0  0  0  0  0  0
    9.5350  -13.8833   22.3086 O   0  0  0  0  0  0  0  0  0  0  0  0
    7.3956  -14.0833   23.2427 N   0  0  0  0  0  0  0  0  0  0  0  0
    7.9735  -14.2966   24.5875 C   0  0  1  0  0  0  0  0  0  0  0  0
    6.8349  -14.0525   25.5927 C   0  0  0  0  0  0  0  0  0  0  0  0
    6.4703  -12.3020   25.7922 S   0  0  0  0  0  0  0  0  0  0  0  0
    8.3876  -15.6988   24.7399 C   0  0  0  0  0  0  0  0  0  0  0  0
    7.5209  -16.6136   24.5065 O   0  0  0  0  0  0  0  0  0  0  0  0
    9.6545  -16.1408   25.1185 N   0  0  0  0  0  0  0  0  0  0  0  0
    9.9932  -17.5612   25.2992 C   0  0  1  0  0  0  0  0  0  0  0  0
   11.4005  -17.7696   24.8087 C   0  0  0  0  0  0  0  0  0  0  0  0
   11.5300  -17.3964   23.3767 C   0  0  0  0  0  0  0  0  0  0  0  0
   12.9437  -17.5604   22.8882 C   0  0  0  0  0  0  0  0  0  0  0  0
   13.3542  -16.8030   21.9972 O   0  0  0  0  0  0  0  0  0  0  0  0
    9.9119  -17.9283   26.7286 C   0  0  0  0  0  0  0  0  0  0  0  0
    9.9854  -19.1898   27.2543 O   0  0  0  0  0  0  0  0  0  0  0  0
   13.7411  -18.5278   23.4269 O   0  0  0  0  0  0  0  0  0  0  0  0
    9.7520  -16.9418   27.5438 O   0  0  0  0  0  0  0  0  0  0  0  0
  2  1  1  0
  3  5  1  0
  3  2  1  0
  3  4  1  1
  5  6  1  6
  5  7  1  0
  7  8  2  0
  9  7  1  0
  9 10  1  0
 10 13  1  0
 10 11  1  1
 12 11  1  0
 13 14  2  0
 15 13  1  0
 15 16  1  0
 16 21  1  0
 16 17  1  1
 18 17  1  0
 19 20  2  0
 19 18  1  0
 21 22  1  0
 23 19  1  0
 24 21  2  0
M  END
$$$$
