ICE.pdb
     RDKit          3D

 24 23  0  0  1  0  0  0  0  0999 V2000
    7.8682  -11.7868   27.1612 C   0  0  0  0  0  0  0  0  0  0  0  0
    7.4717  -13.1698   26.7632 C   0  0  0  0  0  0  0  0  0  0  0  0
    6.2710  -13.1878   25.8214 C   0  0  2  0  0  0  0  0  0  0  0  0
    5.0651  -12.5582   26.4467 C   0  0  0  0  0  0  0  0  0  0  0  0
    5.9843  -14.6436   25.5251 C   0  0  2  0  0  0  0  0  0  0  0  0
    6.0615  -15.4620   26.7112 N   0  0  0  0  0  0  0  0  0  0  0  0
    6.8885  -15.1926   24.4816 C   0  0  0  0  0  0  0  0  0  0  0  0
    7.4523  -16.2913   24.7201 O   0  0  0  0  0  0  0  0  0  0  0  0
    7.0929  -14.4867   23.2697 N   0  0  0  0  0  0  0  0  0  0  0  0
    7.8569  -15.1581   22.1957 C   0  0  1  0  0  0  0  0  0  0  0  0
    7.9774  -14.1410   21.0480 C   0  0  0  0  0  0  0  0  0  0  0  0
    8.9237  -14.7908   19.6627 S   0  0  0  0  0  0  0  0  0  0  0  0
    9.2220  -15.4493   22.6566 C   0  0  0  0  0  0  0  0  0  0  0  0
    9.8916  -14.5010   23.1996 O   0  0  0  0  0  0  0  0  0  0  0  0
    9.8724  -16.6788   22.5615 N   0  0  0  0  0  0  0  0  0  0  0  0
   11.2525  -16.8996   23.0212 C   0  0  1  0  0  0  0  0  0  0  0  0
   11.3047  -18.2360   23.7110 C   0  0  0  0  0  0  0  0  0  0  0  0
   12.4360  -18.2996   24.6717 C   0  0  0  0  0  0  0  0  0  0  0  0
   12.0244  -18.9417   25.9688 C   0  0  0  0  0  0  0  0  0  0  0  0
   10.8720  -19.3863   26.0703 O   0  0  0  0  0  0  0  0  0  0  0  0
   12.1801  -16.9044   21.8704 C   0  0  0  0  0  0  0  0  0  0  0  0
   11.9156  -17.3645   20.6089 O   0  0  0  0  0  0  0  0  0  0  0  0
   12.9149  -19.0232   26.9995 O   0  0  0  0  0  0  0  0  0  0  0  0
   13.3536  -16.4236   22.1052 O   0  0  0  0  0  0  0  0  0  0  0  0
  2  1  1  0
  3  5  1  0
  3  2  1  0
  3  4  1  1
  5  6  1  1
  5  7  1  0
  7  8  2  0
  9  7  1  0
  9 10  1  0
 10 13  1  0
 10 11  1  6
 12 11  1  0
 13 14  2  0
 15 13  1  0
 15 16  1  0
 16 21  1  0
 16 17  1  6
 18 17  1  0
 19 20  2  0
 19 18  1  0
 21 22  1  0
 23 19  1  0
 24 21  2  0
M  END
$$$$
