ICE.pdb
     RDKit          3D

 24 23  0  0  1  0  0  0  0  0999 V2000
    7.1748  -15.5372   16.8558 C   0  0  0  0  0  0  0  0  0  0  0  0
    7.2305  -14.3792   17.7960 C   0  0  0  0  0  0  0  0  0  0  0  0
    7.8457  -14.7465   19.1435 C   0  0  2  0  0  0  0  0  0  0  0  0
    7.1212  -15.8844   19.7932 C   0  0  0  0  0  0  0  0  0  0  0  0
    7.7328  -13.5135   20.0133 C   0  0  2  0  0  0  0  0  0  0  0  0
    8.3330  -12.3573   19.3925 N   0  0  0  0  0  0  0  0  0  0  0  0
    8.3262  -13.7203   21.3597 C   0  0  0  0  0  0  0  0  0  0  0  0
    9.5767  -13.8333   21.4329 O   0  0  0  0  0  0  0  0  0  0  0  0
    7.4942  -13.7846   22.5053 N   0  0  0  0  0  0  0  0  0  0  0  0
    8.1192  -14.1398   23.7981 C   0  0  1  0  0  0  0  0  0  0  0  0
    7.0087  -14.0424   24.8581 C   0  0  0  0  0  0  0  0  0  0  0  0
    6.5829  -12.3364   25.2392 S   0  0  0  0  0  0  0  0  0  0  0  0
    8.5666  -15.5398   23.7722 C   0  0  0  0  0  0  0  0  0  0  0  0
    8.3087  -16.2374   22.7286 O   0  0  0  0  0  0  0  0  0  0  0  0
    9.2587  -16.1959   24.7892 N   0  0  0  0  0  0  0  0  0  0  0  0
   10.1154  -17.3691   24.5557 C   0  0  1  0  0  0  0  0  0  0  0  0
   11.3194  -16.9174   23.7740 C   0  0  0  0  0  0  0  0  0  0  0  0
   12.3276  -18.0032   23.6672 C   0  0  0  0  0  0  0  0  0  0  0  0
   13.5363  -17.5607   22.8879 C   0  0  0  0  0  0  0  0  0  0  0  0
   13.5945  -16.3842   22.5024 O   0  0  0  0  0  0  0  0  0  0  0  0
   10.5544  -17.9461   25.8437 C   0  0  0  0  0  0  0  0  0  0  0  0
   11.0447  -19.2072   26.0500 O   0  0  0  0  0  0  0  0  0  0  0  0
   14.5363  -18.4500   22.6216 O   0  0  0  0  0  0  0  0  0  0  0  0
   10.4522  -17.1627   26.8631 O   0  0  0  0  0  0  0  0  0  0  0  0
  2  1  1  0
  3  5  1  0
  3  2  1  0
  3  4  1  1
  5  6  1  6
  5  7  1  0
  7  8  2  0
  9  7  1  0
  9 10  1  0
 10 13  1  0
 10 11  1  1
 12 11  1  0
 13 14  2  0
 15 13  1  0
 15 16  1  0
 16 21  1  0
 16 17  1  6
 18 17  1  0
 19 20  2  0
 19 18  1  0
 21 22  1  0
 23 19  1  0
 24 21  2  0
M  END
$$$$
