ICE.pdb
     RDKit          3D

 24 23  0  0  1  0  0  0  0  0999 V2000
    8.0594  -15.9825   16.6681 C   0  0  0  0  0  0  0  0  0  0  0  0
    7.5692  -14.8386   17.4924 C   0  0  0  0  0  0  0  0  0  0  0  0
    8.2213  -14.7872   18.8713 C   0  0  2  0  0  0  0  0  0  0  0  0
    7.9818  -16.0457   19.6462 C   0  0  0  0  0  0  0  0  0  0  0  0
    7.5901  -13.6193   19.5973 C   0  0  2  0  0  0  0  0  0  0  0  0
    7.7794  -12.3764   18.8889 N   0  0  0  0  0  0  0  0  0  0  0  0
    8.0969  -13.4825   20.9874 C   0  0  0  0  0  0  0  0  0  0  0  0
    9.1266  -12.7824   21.1646 O   0  0  0  0  0  0  0  0  0  0  0  0
    7.4284  -14.1263   22.0586 N   0  0  0  0  0  0  0  0  0  0  0  0
    8.0031  -13.9942   23.4151 C   0  0  1  0  0  0  0  0  0  0  0  0
    6.8734  -13.4651   24.3152 C   0  0  0  0  0  0  0  0  0  0  0  0
    7.3227  -13.4981   26.0571 S   0  0  0  0  0  0  0  0  0  0  0  0
    8.3801  -15.3176   23.9322 C   0  0  0  0  0  0  0  0  0  0  0  0
    7.4954  -16.2448   23.9220 O   0  0  0  0  0  0  0  0  0  0  0  0
    9.6291  -15.6714   24.4405 N   0  0  0  0  0  0  0  0  0  0  0  0
    9.9721  -17.0397   24.8590 C   0  0  1  0  0  0  0  0  0  0  0  0
   11.4105  -17.2906   24.4945 C   0  0  0  0  0  0  0  0  0  0  0  0
   11.8483  -18.6393   24.9372 C   0  0  0  0  0  0  0  0  0  0  0  0
   13.2912  -18.8927   24.5936 C   0  0  0  0  0  0  0  0  0  0  0  0
   13.5652  -19.3128   23.4603 O   0  0  0  0  0  0  0  0  0  0  0  0
    9.8032  -17.1849   26.3202 C   0  0  0  0  0  0  0  0  0  0  0  0
    9.6450  -18.3547   27.0128 O   0  0  0  0  0  0  0  0  0  0  0  0
   14.2624  -18.6589   25.5231 O   0  0  0  0  0  0  0  0  0  0  0  0
    9.8053  -16.0819   26.9885 O   0  0  0  0  0  0  0  0  0  0  0  0
  2  1  1  0
  3  5  1  0
  3  2  1  0
  3  4  1  1
  5  6  1  6
  5  7  1  0
  7  8  2  0
  9  7  1  0
  9 10  1  0
 10 13  1  0
 10 11  1  1
 12 11  1  0
 13 14  2  0
 15 13  1  0
 15 16  1  0
 16 21  1  0
 16 17  1  1
 18 17  1  0
 19 20  2  0
 19 18  1  0
 21 22  1  0
 23 19  1  0
 24 21  2  0
M  END
$$$$
