ICE.pdb
     RDKit          3D

 24 23  0  0  1  0  0  0  0  0999 V2000
    7.3351  -12.1977   27.7808 C   0  0  0  0  0  0  0  0  0  0  0  0
    6.6803  -13.4322   27.2561 C   0  0  0  0  0  0  0  0  0  0  0  0
    7.2850  -13.9013   25.9357 C   0  0  2  0  0  0  0  0  0  0  0  0
    7.2779  -12.8154   24.9048 C   0  0  0  0  0  0  0  0  0  0  0  0
    6.4279  -15.0541   25.4608 C   0  0  2  0  0  0  0  0  0  0  0  0
    6.3442  -16.1067   26.4445 N   0  0  0  0  0  0  0  0  0  0  0  0
    6.9066  -15.6150   24.1707 C   0  0  0  0  0  0  0  0  0  0  0  0
    6.0585  -16.1752   23.4299 O   0  0  0  0  0  0  0  0  0  0  0  0
    8.2730  -15.5109   23.8092 N   0  0  0  0  0  0  0  0  0  0  0  0
    8.6500  -15.8410   22.4175 C   0  0  1  0  0  0  0  0  0  0  0  0
    7.9211  -14.8275   21.5187 C   0  0  0  0  0  0  0  0  0  0  0  0
    6.5609  -15.5799   20.6128 S   0  0  0  0  0  0  0  0  0  0  0  0
   10.0915  -15.6284   22.2234 C   0  0  0  0  0  0  0  0  0  0  0  0
   10.5529  -14.4422   22.3732 O   0  0  0  0  0  0  0  0  0  0  0  0
   11.0246  -16.6084   21.8878 N   0  0  0  0  0  0  0  0  0  0  0  0
   12.1803  -16.9458   22.7337 C   0  0  1  0  0  0  0  0  0  0  0  0
   11.6687  -17.2743   24.1103 C   0  0  0  0  0  0  0  0  0  0  0  0
   12.3640  -18.4609   24.6716 C   0  0  0  0  0  0  0  0  0  0  0  0
   11.9559  -18.7180   26.0969 C   0  0  0  0  0  0  0  0  0  0  0  0
   11.1425  -17.9486   26.6281 O   0  0  0  0  0  0  0  0  0  0  0  0
   12.8929  -18.1174   22.1821 C   0  0  0  0  0  0  0  0  0  0  0  0
   14.2329  -18.3789   22.2776 O   0  0  0  0  0  0  0  0  0  0  0  0
   12.4810  -19.7805   26.7732 O   0  0  0  0  0  0  0  0  0  0  0  0
   12.1553  -18.9637   21.5473 O   0  0  0  0  0  0  0  0  0  0  0  0
  2  1  1  0
  3  5  1  0
  3  2  1  0
  3  4  1  6
  5  6  1  1
  5  7  1  0
  7  8  2  0
  9  7  1  0
  9 10  1  0
 10 13  1  0
 10 11  1  6
 12 11  1  0
 13 14  2  0
 15 13  1  0
 15 16  1  0
 16 21  1  0
 16 17  1  1
 18 17  1  0
 19 20  2  0
 19 18  1  0
 21 22  1  0
 23 19  1  0
 24 21  2  0
M  END
$$$$
