ICE.pdb
     RDKit          3D

 24 23  0  0  1  0  0  0  0  0999 V2000
    7.3425  -11.8117   20.2582 C   0  0  0  0  0  0  0  0  0  0  0  0
    7.2035  -13.2202   19.7839 C   0  0  0  0  0  0  0  0  0  0  0  0
    7.9947  -14.2075   20.6373 C   0  0  2  0  0  0  0  0  0  0  0  0
    9.4509  -13.8620   20.6803 C   0  0  0  0  0  0  0  0  0  0  0  0
    7.8166  -15.5650   19.9932 C   0  0  2  0  0  0  0  0  0  0  0  0
    6.4341  -15.9785   19.9771 N   0  0  0  0  0  0  0  0  0  0  0  0
    8.6417  -16.6110   20.6512 C   0  0  0  0  0  0  0  0  0  0  0  0
    8.1363  -17.2211   21.6280 O   0  0  0  0  0  0  0  0  0  0  0  0
    9.9475  -16.8938   20.1783 N   0  0  0  0  0  0  0  0  0  0  0  0
   10.7467  -17.9021   20.9080 C   0  0  1  0  0  0  0  0  0  0  0  0
   11.5669  -18.6560   19.8472 C   0  0  0  0  0  0  0  0  0  0  0  0
   12.6242  -19.9157   20.5767 S   0  0  0  0  0  0  0  0  0  0  0  0
   11.7069  -17.2340   21.7982 C   0  0  0  0  0  0  0  0  0  0  0  0
   12.2243  -16.1283   21.4082 O   0  0  0  0  0  0  0  0  0  0  0  0
   12.1168  -17.6918   23.0497 N   0  0  0  0  0  0  0  0  0  0  0  0
   13.0203  -16.9343   23.9300 C   0  0  1  0  0  0  0  0  0  0  0  0
   13.0477  -17.6201   25.2692 C   0  0  0  0  0  0  0  0  0  0  0  0
   11.6730  -17.8402   25.7872 C   0  0  0  0  0  0  0  0  0  0  0  0
   11.6805  -18.6775   27.0373 C   0  0  0  0  0  0  0  0  0  0  0  0
   12.7574  -19.1525   27.4256 O   0  0  0  0  0  0  0  0  0  0  0  0
   14.3850  -16.9097   23.3628 C   0  0  0  0  0  0  0  0  0  0  0  0
   14.8263  -17.5964   22.2643 O   0  0  0  0  0  0  0  0  0  0  0  0
   10.5168  -18.8978   27.7149 O   0  0  0  0  0  0  0  0  0  0  0  0
   15.2286  -16.1595   23.9864 O   0  0  0  0  0  0  0  0  0  0  0  0
  2  1  1  0
  3  5  1  0
  3  2  1  0
  3  4  1  6
  5  6  1  1
  5  7  1  0
  7  8  2  0
  9  7  1  0
  9 10  1  0
 10 13  1  0
 10 11  1  6
 12 11  1  0
 13 14  2  0
 15 13  1  0
 15 16  1  0
 16 21  1  0
 16 17  1  1
 18 17  1  0
 19 20  2  0
 19 18  1  0
 21 22  1  0
 23 19  1  0
 24 21  2  0
M  END
$$$$
