ICE.pdb
     RDKit          3D

 24 23  0  0  1  0  0  0  0  0999 V2000
    7.8435  -15.8216   16.3200 C   0  0  0  0  0  0  0  0  0  0  0  0
    7.7046  -14.6277   17.2051 C   0  0  0  0  0  0  0  0  0  0  0  0
    8.3541  -14.8312   18.5711 C   0  0  2  0  0  0  0  0  0  0  0  0
    7.8311  -16.0544   19.2581 C   0  0  0  0  0  0  0  0  0  0  0  0
    8.0127  -13.6065   19.3914 C   0  0  2  0  0  0  0  0  0  0  0  0
    8.5190  -12.3956   18.7913 N   0  0  0  0  0  0  0  0  0  0  0  0
    8.5044  -13.7126   20.7896 C   0  0  0  0  0  0  0  0  0  0  0  0
    9.7445  -13.6215   20.9784 O   0  0  0  0  0  0  0  0  0  0  0  0
    7.5910  -13.9094   21.8554 N   0  0  0  0  0  0  0  0  0  0  0  0
    8.1425  -14.1516   23.2063 C   0  0  1  0  0  0  0  0  0  0  0  0
    6.9559  -14.0641   24.1814 C   0  0  0  0  0  0  0  0  0  0  0  0
    7.3818  -14.6640   25.8232 S   0  0  0  0  0  0  0  0  0  0  0  0
    8.6714  -15.5203   23.2953 C   0  0  0  0  0  0  0  0  0  0  0  0
    7.9467  -16.4783   22.8488 O   0  0  0  0  0  0  0  0  0  0  0  0
    9.9077  -15.8862   23.8257 N   0  0  0  0  0  0  0  0  0  0  0  0
   10.3611  -17.2823   23.9271 C   0  0  1  0  0  0  0  0  0  0  0  0
   11.6717  -17.3997   23.1970 C   0  0  0  0  0  0  0  0  0  0  0  0
   12.2128  -18.7803   23.2854 C   0  0  0  0  0  0  0  0  0  0  0  0
   13.5264  -18.9067   22.5624 C   0  0  0  0  0  0  0  0  0  0  0  0
   14.3608  -17.9987   22.6867 O   0  0  0  0  0  0  0  0  0  0  0  0
   10.5531  -17.6558   25.3442 C   0  0  0  0  0  0  0  0  0  0  0  0
   10.3999  -16.8405   26.4328 O   0  0  0  0  0  0  0  0  0  0  0  0
   13.7750  -20.0047   21.7913 O   0  0  0  0  0  0  0  0  0  0  0  0
   10.9040  -18.8797   25.5499 O   0  0  0  0  0  0  0  0  0  0  0  0
  2  1  1  0
  3  5  1  0
  3  2  1  0
  3  4  1  1
  5  6  1  6
  5  7  1  0
  7  8  2  0
  9  7  1  0
  9 10  1  0
 10 13  1  0
 10 11  1  1
 12 11  1  0
 13 14  2  0
 15 13  1  0
 15 16  1  0
 16 21  1  0
 16 17  1  6
 18 17  1  0
 19 20  2  0
 19 18  1  0
 21 22  1  0
 23 19  1  0
 24 21  2  0
M  END
$$$$
