ICE.pdb
     RDKit          3D

 24 23  0  0  1  0  0  0  0  0999 V2000
    7.2282  -12.1638   17.5064 C   0  0  0  0  0  0  0  0  0  0  0  0
    7.3850  -13.4743   18.2038 C   0  0  0  0  0  0  0  0  0  0  0  0
    7.6059  -13.3170   19.7056 C   0  0  2  0  0  0  0  0  0  0  0  0
    8.8529  -12.5445   20.0057 C   0  0  0  0  0  0  0  0  0  0  0  0
    7.7318  -14.7168   20.2662 C   0  0  2  0  0  0  0  0  0  0  0  0
    6.5756  -15.5258   19.9646 N   0  0  0  0  0  0  0  0  0  0  0  0
    7.9694  -14.7146   21.7330 C   0  0  0  0  0  0  0  0  0  0  0  0
    7.2894  -13.9194   22.4309 O   0  0  0  0  0  0  0  0  0  0  0  0
    8.9319  -15.5853   22.3024 N   0  0  0  0  0  0  0  0  0  0  0  0
    9.1067  -15.5614   23.7710 C   0  0  1  0  0  0  0  0  0  0  0  0
    7.7263  -15.8669   24.3772 C   0  0  0  0  0  0  0  0  0  0  0  0
    7.8066  -16.1103   26.1580 S   0  0  0  0  0  0  0  0  0  0  0  0
   10.0080  -16.6454   24.1875 C   0  0  0  0  0  0  0  0  0  0  0  0
    9.6173  -17.8543   24.0193 O   0  0  0  0  0  0  0  0  0  0  0  0
   11.2707  -16.4857   24.7566 N   0  0  0  0  0  0  0  0  0  0  0  0
   12.1796  -17.6094   25.0326 C   0  0  1  0  0  0  0  0  0  0  0  0
   13.5880  -17.1390   24.7882 C   0  0  0  0  0  0  0  0  0  0  0  0
   13.8513  -16.9664   23.3365 C   0  0  0  0  0  0  0  0  0  0  0  0
   14.8436  -15.8642   23.0817 C   0  0  0  0  0  0  0  0  0  0  0  0
   15.3599  -15.2956   24.0544 O   0  0  0  0  0  0  0  0  0  0  0  0
   12.0438  -18.0432   26.4390 C   0  0  0  0  0  0  0  0  0  0  0  0
   12.6457  -19.1249   27.0228 O   0  0  0  0  0  0  0  0  0  0  0  0
   15.1551  -15.5128   21.8006 O   0  0  0  0  0  0  0  0  0  0  0  0
   11.2712  -17.3135   27.1697 O   0  0  0  0  0  0  0  0  0  0  0  0
  2  1  1  0
  3  5  1  0
  3  2  1  0
  3  4  1  6
  5  6  1  1
  5  7  1  0
  7  8  2  0
  9  7  1  0
  9 10  1  0
 10 13  1  0
 10 11  1  1
 12 11  1  0
 13 14  2  0
 15 13  1  0
 15 16  1  0
 16 21  1  0
 16 17  1  1
 18 17  1  0
 19 20  2  0
 19 18  1  0
 21 22  1  0
 23 19  1  0
 24 21  2  0
M  END
$$$$
