NKH.pdb
     RDKit          3D

 28 28  0  0  1  0  0  0  0  0999 V2000
    8.8362  -13.0944   15.7957 N   0  0  0  0  0  0  0  0  0  0  0  0
    7.7017  -13.9596   15.8998 C   0  0  0  0  0  0  0  0  0  0  0  0
    6.8769  -13.9242   14.9691 O   0  0  0  0  0  0  0  0  0  0  0  0
    7.5623  -14.8251   17.0637 C   0  0  0  0  0  0  0  0  0  0  0  0
    8.6193  -14.5532   18.0987 C   0  0  2  0  0  0  0  0  0  0  0  0
    9.8994  -15.0400   17.5166 N   0  0  0  0  0  0  0  0  0  0  0  0
    8.4495  -15.3087   19.3468 C   0  0  0  0  0  0  0  0  0  0  0  0
    7.3899  -15.1697   20.0552 O   0  0  0  0  0  0  0  0  0  0  0  0
    9.4151  -16.2391   19.8627 N   0  0  0  0  0  0  0  0  0  0  0  0
    9.1913  -16.8936   21.1255 C   0  0  1  0  0  0  0  0  0  0  0  0
   10.2002  -17.9952   21.3423 C   0  0  0  0  0  0  0  0  0  0  0  0
    9.7356  -19.3183   20.7864 C   0  0  0  0  0  0  0  0  0  0  0  0
   10.8668  -20.3014   21.0238 C   0  0  0  0  0  0  0  0  0  0  0  0
   10.5011  -21.6884   20.5442 C   0  0  0  0  0  0  0  0  0  0  0  0
   11.6151  -22.5630   20.8436 N   0  0  0  0  0  0  0  0  0  0  0  0
    9.3491  -15.9281   22.2280 C   0  0  0  0  0  0  0  0  0  0  0  0
   10.3726  -15.2002   22.3814 O   0  0  0  0  0  0  0  0  0  0  0  0
    8.2725  -15.8136   23.1805 N   0  0  0  0  0  0  0  0  0  0  0  0
    8.3674  -14.8668   24.2394 C   0  0  1  0  0  0  0  0  0  0  0  0
    6.9813  -14.3055   24.4748 C   0  0  0  0  0  0  0  0  0  0  0  0
    6.9164  -13.2976   25.5359 C   0  0  0  0  0  0  0  0  0  0  0  0
    8.0097  -12.8529   26.2599 C   0  0  0  0  0  0  0  0  0  0  0  0
    7.5793  -11.9323   27.1421 N   0  0  0  0  0  0  0  0  0  0  0  0
    6.2490  -11.7923   26.9876 C   0  0  0  0  0  0  0  0  0  0  0  0
    5.8571  -12.6215   26.0146 N   0  0  0  0  0  0  0  0  0  0  0  0
    8.9197  -15.4972   25.4576 C   0  0  0  0  0  0  0  0  0  0  0  0
    9.2414  -14.7599   26.4178 O   0  0  0  0  0  0  0  0  0  0  0  0
    9.1014  -16.8612   25.5969 O   0  0  0  0  0  0  0  0  0  0  0  0
  1  2  1  0
  2  3  2  0
  4  2  1  0
  4  5  1  0
  5  6  1  6
  7  8  2  0
  7  5  1  0
  9  7  1  0
 10  9  1  0
 10 11  1  1
 11 12  1  0
 13 12  1  0
 14 15  1  0
 14 13  1  0
 16 17  2  0
 16 10  1  0
 18 16  1  0
 19 18  1  0
 19 20  1  1
 20 21  1  0
 21 22  2  0
 21 25  1  0
 22 23  1  0
 24 23  1  0
 25 24  2  0
 26 19  1  0
 27 26  2  0
 28 26  1  0
M  END
$$$$
