NKH.pdb
     RDKit          3D

 28 28  0  0  1  0  0  0  0  0999 V2000
    7.5525  -11.9737   18.3501 N   0  0  0  0  0  0  0  0  0  0  0  0
    8.2400  -13.1442   18.8014 C   0  0  0  0  0  0  0  0  0  0  0  0
    9.0469  -13.6655   18.0108 O   0  0  0  0  0  0  0  0  0  0  0  0
    7.9729  -13.6650   20.1358 C   0  0  0  0  0  0  0  0  0  0  0  0
    8.2263  -15.1450   20.2248 C   0  0  2  0  0  0  0  0  0  0  0  0
    7.2978  -15.7803   19.2508 N   0  0  0  0  0  0  0  0  0  0  0  0
    7.8878  -15.7375   21.5254 C   0  0  0  0  0  0  0  0  0  0  0  0
    7.6748  -14.9922   22.5468 O   0  0  0  0  0  0  0  0  0  0  0  0
    7.7641  -17.1496   21.7594 N   0  0  0  0  0  0  0  0  0  0  0  0
    7.6080  -17.6535   23.0992 C   0  0  1  0  0  0  0  0  0  0  0  0
    7.2269  -19.1139   23.0796 C   0  0  0  0  0  0  0  0  0  0  0  0
    7.0092  -19.6701   24.4647 C   0  0  0  0  0  0  0  0  0  0  0  0
    6.6797  -21.1406   24.2867 C   0  0  0  0  0  0  0  0  0  0  0  0
    6.4209  -21.8122   25.6170 C   0  0  0  0  0  0  0  0  0  0  0  0
    6.2103  -23.2215   25.3623 N   0  0  0  0  0  0  0  0  0  0  0  0
    8.8823  -17.5402   23.8313 C   0  0  0  0  0  0  0  0  0  0  0  0
    9.9267  -17.0176   23.3445 O   0  0  0  0  0  0  0  0  0  0  0  0
    8.9327  -18.0571   25.1766 N   0  0  0  0  0  0  0  0  0  0  0  0
    9.5183  -17.2727   26.2104 C   0  0  1  0  0  0  0  0  0  0  0  0
    8.7357  -15.9800   26.3008 C   0  0  0  0  0  0  0  0  0  0  0  0
    9.0924  -15.1440   27.4497 C   0  0  0  0  0  0  0  0  0  0  0  0
   10.0535  -15.4757   28.3897 C   0  0  0  0  0  0  0  0  0  0  0  0
   10.1138  -14.4805   29.2935 N   0  0  0  0  0  0  0  0  0  0  0  0
    9.2170  -13.5393   28.9425 C   0  0  0  0  0  0  0  0  0  0  0  0
    8.6042  -13.9491   27.8269 N   0  0  0  0  0  0  0  0  0  0  0  0
    9.5141  -18.0091   27.4926 C   0  0  0  0  0  0  0  0  0  0  0  0
   10.5053  -17.8946   28.2500 O   0  0  0  0  0  0  0  0  0  0  0  0
    8.4724  -18.8204   27.9045 O   0  0  0  0  0  0  0  0  0  0  0  0
  1  2  1  0
  2  3  2  0
  4  2  1  0
  4  5  1  0
  5  6  1  6
  7  8  2  0
  7  5  1  0
  9  7  1  0
 10  9  1  0
 10 11  1  6
 11 12  1  0
 13 12  1  0
 14 15  1  0
 14 13  1  0
 16 17  2  0
 16 10  1  0
 18 16  1  0
 19 18  1  0
 19 20  1  1
 20 21  1  0
 21 22  2  0
 21 25  1  0
 22 23  1  0
 24 23  1  0
 25 24  2  0
 26 19  1  0
 27 26  2  0
 28 26  1  0
M  END
$$$$
