NKH.pdb
     RDKit          3D

 28 28  0  0  1  0  0  0  0  0999 V2000
    3.9850  -21.6430   20.9064 N   0  0  0  0  0  0  0  0  0  0  0  0
    4.9428  -21.6151   19.8442 C   0  0  0  0  0  0  0  0  0  0  0  0
    4.7151  -22.3400   18.8590 O   0  0  0  0  0  0  0  0  0  0  0  0
    6.1171  -20.7600   19.9576 C   0  0  0  0  0  0  0  0  0  0  0  0
    6.1973  -20.0871   21.3004 C   0  0  2  0  0  0  0  0  0  0  0  0
    4.8244  -19.5950   21.5962 N   0  0  0  0  0  0  0  0  0  0  0  0
    7.0507  -18.8920   21.3259 C   0  0  0  0  0  0  0  0  0  0  0  0
    8.3281  -19.0021   21.3407 O   0  0  0  0  0  0  0  0  0  0  0  0
    6.5507  -17.5451   21.3305 N   0  0  0  0  0  0  0  0  0  0  0  0
    7.4615  -16.4317   21.3907 C   0  0  1  0  0  0  0  0  0  0  0  0
    6.7352  -15.1330   21.1370 C   0  0  0  0  0  0  0  0  0  0  0  0
    7.6782  -13.9633   21.0030 C   0  0  0  0  0  0  0  0  0  0  0  0
    7.6674  -13.5727   19.5367 C   0  0  0  0  0  0  0  0  0  0  0  0
    8.6474  -12.4552   19.2570 C   0  0  0  0  0  0  0  0  0  0  0  0
    8.4900  -12.0719   17.8699 N   0  0  0  0  0  0  0  0  0  0  0  0
    8.0629  -16.3453   22.7337 C   0  0  0  0  0  0  0  0  0  0  0  0
    7.4143  -16.5241   23.8052 O   0  0  0  0  0  0  0  0  0  0  0  0
    9.4692  -16.0387   22.8220 N   0  0  0  0  0  0  0  0  0  0  0  0
   10.1362  -16.1490   24.0749 C   0  0  1  0  0  0  0  0  0  0  0  0
    9.9107  -17.5548   24.5893 C   0  0  0  0  0  0  0  0  0  0  0  0
    8.6188  -17.7492   25.2521 C   0  0  0  0  0  0  0  0  0  0  0  0
    7.9384  -16.7613   25.9437 C   0  0  0  0  0  0  0  0  0  0  0  0
    6.7957  -17.2936   26.4148 N   0  0  0  0  0  0  0  0  0  0  0  0
    6.7464  -18.5848   26.0361 C   0  0  0  0  0  0  0  0  0  0  0  0
    7.8526  -18.8513   25.3338 N   0  0  0  0  0  0  0  0  0  0  0  0
   11.5751  -15.8402   23.9310 C   0  0  0  0  0  0  0  0  0  0  0  0
   12.0667  -15.8093   22.7793 O   0  0  0  0  0  0  0  0  0  0  0  0
   12.4120  -15.5820   25.0014 O   0  0  0  0  0  0  0  0  0  0  0  0
  1  2  1  0
  2  3  2  0
  4  2  1  0
  4  5  1  0
  5  6  1  6
  7  8  2  0
  7  5  1  0
  9  7  1  0
 10  9  1  0
 10 11  1  1
 11 12  1  0
 13 12  1  0
 14 15  1  0
 14 13  1  0
 16 17  2  0
 16 10  1  0
 18 16  1  0
 19 18  1  0
 19 20  1  6
 20 21  1  0
 21 22  2  0
 21 25  1  0
 22 23  1  0
 24 23  1  0
 25 24  2  0
 26 19  1  0
 27 26  2  0
 28 26  1  0
M  END
$$$$
