NKH.pdb
     RDKit          3D

 28 28  0  0  1  0  0  0  0  0999 V2000
    7.6335  -12.3213   18.0326 N   0  0  0  0  0  0  0  0  0  0  0  0
    8.3527  -13.4197   18.6006 C   0  0  0  0  0  0  0  0  0  0  0  0
    9.4140  -13.7498   18.0415 O   0  0  0  0  0  0  0  0  0  0  0  0
    7.8250  -14.0906   19.7815 C   0  0  0  0  0  0  0  0  0  0  0  0
    7.9480  -15.5865   19.6827 C   0  0  2  0  0  0  0  0  0  0  0  0
    6.9873  -16.0091   18.6278 N   0  0  0  0  0  0  0  0  0  0  0  0
    7.5344  -16.3068   20.8940 C   0  0  0  0  0  0  0  0  0  0  0  0
    6.5027  -15.9316   21.5565 O   0  0  0  0  0  0  0  0  0  0  0  0
    8.2184  -17.4548   21.4215 N   0  0  0  0  0  0  0  0  0  0  0  0
    7.7410  -18.0996   22.6171 C   0  0  1  0  0  0  0  0  0  0  0  0
    8.0058  -19.5848   22.5651 C   0  0  0  0  0  0  0  0  0  0  0  0
    7.4719  -20.3070   23.7770 C   0  0  0  0  0  0  0  0  0  0  0  0
    7.7102  -21.7853   23.5317 C   0  0  0  0  0  0  0  0  0  0  0  0
    7.0859  -22.6318   24.6186 C   0  0  0  0  0  0  0  0  0  0  0  0
    7.3954  -24.0158   24.3277 N   0  0  0  0  0  0  0  0  0  0  0  0
    8.4501  -17.5664   23.7941 C   0  0  0  0  0  0  0  0  0  0  0  0
    9.6824  -17.2800   23.8001 O   0  0  0  0  0  0  0  0  0  0  0  0
    7.6892  -17.3635   25.0022 N   0  0  0  0  0  0  0  0  0  0  0  0
    8.3292  -16.8269   26.1552 C   0  0  1  0  0  0  0  0  0  0  0  0
    7.3177  -15.9628   26.8776 C   0  0  0  0  0  0  0  0  0  0  0  0
    7.0567  -14.6766   26.2268 C   0  0  0  0  0  0  0  0  0  0  0  0
    7.8239  -14.1487   25.2021 C   0  0  0  0  0  0  0  0  0  0  0  0
    7.2928  -12.9630   24.8516 N   0  0  0  0  0  0  0  0  0  0  0  0
    6.2170  -12.7381   25.6298 C   0  0  0  0  0  0  0  0  0  0  0  0
    6.0821  -13.7792   26.4580 N   0  0  0  0  0  0  0  0  0  0  0  0
    8.8445  -17.9101   27.0198 C   0  0  0  0  0  0  0  0  0  0  0  0
    9.4580  -17.5977   28.0663 O   0  0  0  0  0  0  0  0  0  0  0  0
    8.6861  -19.2546   26.7368 O   0  0  0  0  0  0  0  0  0  0  0  0
  1  2  1  0
  2  3  2  0
  4  2  1  0
  4  5  1  0
  5  6  1  6
  7  8  2  0
  7  5  1  0
  9  7  1  0
 10  9  1  0
 10 11  1  6
 11 12  1  0
 13 12  1  0
 14 15  1  0
 14 13  1  0
 16 17  2  0
 16 10  1  0
 18 16  1  0
 19 18  1  0
 19 20  1  1
 20 21  1  0
 21 22  2  0
 21 25  1  0
 22 23  1  0
 24 23  1  0
 25 24  2  0
 26 19  1  0
 27 26  2  0
 28 26  1  0
M  END
$$$$
