NKH.pdb
     RDKit          3D

 28 28  0  0  1  0  0  0  0  0999 V2000
    7.2193  -13.1535   16.8515 N   0  0  0  0  0  0  0  0  0  0  0  0
    8.0659  -14.1004   17.5095 C   0  0  0  0  0  0  0  0  0  0  0  0
    8.3284  -15.1483   16.8923 O   0  0  0  0  0  0  0  0  0  0  0  0
    8.5730  -13.8059   18.8434 C   0  0  0  0  0  0  0  0  0  0  0  0
    8.6582  -15.0396   19.6997 C   0  0  2  0  0  0  0  0  0  0  0  0
    7.2838  -15.6086   19.7384 N   0  0  0  0  0  0  0  0  0  0  0  0
    9.0083  -14.7773   21.1017 C   0  0  0  0  0  0  0  0  0  0  0  0
   10.1369  -14.2500   21.4052 O   0  0  0  0  0  0  0  0  0  0  0  0
    8.1490  -15.0713   22.2150 N   0  0  0  0  0  0  0  0  0  0  0  0
    8.5520  -14.7298   23.5544 C   0  0  1  0  0  0  0  0  0  0  0  0
    7.4215  -14.0609   24.2982 C   0  0  0  0  0  0  0  0  0  0  0  0
    7.8571  -13.5123   25.6341 C   0  0  0  0  0  0  0  0  0  0  0  0
    6.6228  -12.8942   26.2641 C   0  0  0  0  0  0  0  0  0  0  0  0
    6.9441  -12.2616   27.5999 C   0  0  0  0  0  0  0  0  0  0  0  0
    5.7009  -11.7867   28.1696 N   0  0  0  0  0  0  0  0  0  0  0  0
    8.9085  -15.9505   24.2996 C   0  0  0  0  0  0  0  0  0  0  0  0
    8.1396  -16.9480   24.4204 O   0  0  0  0  0  0  0  0  0  0  0  0
   10.2078  -16.0020   24.9229 N   0  0  0  0  0  0  0  0  0  0  0  0
   10.5923  -17.1618   25.6538 C   0  0  1  0  0  0  0  0  0  0  0  0
   12.0312  -17.4689   25.2978 C   0  0  0  0  0  0  0  0  0  0  0  0
   12.2381  -17.8154   23.8896 C   0  0  0  0  0  0  0  0  0  0  0  0
   11.2361  -18.2400   23.0334 C   0  0  0  0  0  0  0  0  0  0  0  0
   11.7864  -18.4646   21.8261 N   0  0  0  0  0  0  0  0  0  0  0  0
   13.1027  -18.1922   21.9073 C   0  0  0  0  0  0  0  0  0  0  0  0
   13.3665  -17.8006   23.1582 N   0  0  0  0  0  0  0  0  0  0  0  0
   10.4189  -16.9466   27.1064 C   0  0  0  0  0  0  0  0  0  0  0  0
   10.7053  -17.8835   27.8869 O   0  0  0  0  0  0  0  0  0  0  0  0
    9.9567  -15.7636   27.6539 O   0  0  0  0  0  0  0  0  0  0  0  0
  1  2  1  0
  2  3  2  0
  4  2  1  0
  4  5  1  0
  5  6  1  1
  7  8  2  0
  7  5  1  0
  9  7  1  0
 10  9  1  0
 10 11  1  1
 11 12  1  0
 13 12  1  0
 14 15  1  0
 14 13  1  0
 16 17  2  0
 16 10  1  0
 18 16  1  0
 19 18  1  0
 19 20  1  1
 20 21  1  0
 21 22  2  0
 21 25  1  0
 22 23  1  0
 24 23  1  0
 25 24  2  0
 26 19  1  0
 27 26  2  0
 28 26  1  0
M  END
$$$$
