NKH.pdb
     RDKit          3D

 28 28  0  0  1  0  0  0  0  0999 V2000
    9.3166  -13.4570   16.9748 N   0  0  0  0  0  0  0  0  0  0  0  0
    7.9341  -13.2593   17.2848 C   0  0  0  0  0  0  0  0  0  0  0  0
    7.2381  -12.6896   16.4251 O   0  0  0  0  0  0  0  0  0  0  0  0
    7.4110  -13.7216   18.5638 C   0  0  0  0  0  0  0  0  0  0  0  0
    8.4871  -14.3124   19.4329 C   0  0  2  0  0  0  0  0  0  0  0  0
    9.0247  -15.4808   18.6843 N   0  0  0  0  0  0  0  0  0  0  0  0
    8.0011  -14.8591   20.7065 C   0  0  0  0  0  0  0  0  0  0  0  0
    7.3986  -14.1071   21.5523 O   0  0  0  0  0  0  0  0  0  0  0  0
    8.1462  -16.2329   21.1010 N   0  0  0  0  0  0  0  0  0  0  0  0
    7.5876  -16.6950   22.3450 C   0  0  1  0  0  0  0  0  0  0  0  0
    7.4560  -18.1987   22.3457 C   0  0  0  0  0  0  0  0  0  0  0  0
    6.2994  -18.6752   21.5027 C   0  0  0  0  0  0  0  0  0  0  0  0
    6.3012  -20.1899   21.5937 C   0  0  0  0  0  0  0  0  0  0  0  0
    5.2300  -20.7959   20.7145 C   0  0  0  0  0  0  0  0  0  0  0  0
    5.3260  -22.2352   20.8364 N   0  0  0  0  0  0  0  0  0  0  0  0
    8.4766  -16.3298   23.4626 C   0  0  0  0  0  0  0  0  0  0  0  0
    9.7334  -16.2310   23.3554 O   0  0  0  0  0  0  0  0  0  0  0  0
    7.8718  -16.0730   24.7463 N   0  0  0  0  0  0  0  0  0  0  0  0
    8.6802  -15.6196   25.8270 C   0  0  1  0  0  0  0  0  0  0  0  0
    7.7590  -15.0030   26.8580 C   0  0  0  0  0  0  0  0  0  0  0  0
    7.1032  -13.7709   26.4134 C   0  0  0  0  0  0  0  0  0  0  0  0
    7.3904  -13.1163   25.2275 C   0  0  0  0  0  0  0  0  0  0  0  0
    6.6002  -12.0299   25.1488 N   0  0  0  0  0  0  0  0  0  0  0  0
    5.8299  -11.9899   26.2526 C   0  0  0  0  0  0  0  0  0  0  0  0
    6.1410  -13.0462   27.0112 N   0  0  0  0  0  0  0  0  0  0  0  0
    9.4712  -16.7336   26.3924 C   0  0  0  0  0  0  0  0  0  0  0  0
    9.1993  -17.9020   26.0317 O   0  0  0  0  0  0  0  0  0  0  0  0
   10.4991  -16.5570   27.3006 O   0  0  0  0  0  0  0  0  0  0  0  0
  1  2  1  0
  2  3  2  0
  4  2  1  0
  4  5  1  0
  5  6  1  6
  7  8  2  0
  7  5  1  0
  9  7  1  0
 10  9  1  0
 10 11  1  6
 11 12  1  0
 13 12  1  0
 14 15  1  0
 14 13  1  0
 16 17  2  0
 16 10  1  0
 18 16  1  0
 19 18  1  0
 19 20  1  1
 20 21  1  0
 21 22  2  0
 21 25  1  0
 22 23  1  0
 24 23  1  0
 25 24  2  0
 26 19  1  0
 27 26  2  0
 28 26  1  0
M  END
$$$$
