NKH.pdb
     RDKit          3D

 28 28  0  0  1  0  0  0  0  0999 V2000
   11.6033  -15.8008   15.8538 N   0  0  0  0  0  0  0  0  0  0  0  0
   10.2627  -16.2909   15.7589 C   0  0  0  0  0  0  0  0  0  0  0  0
    9.9399  -16.8515   14.6961 O   0  0  0  0  0  0  0  0  0  0  0  0
    9.3526  -16.1170   16.8835 C   0  0  0  0  0  0  0  0  0  0  0  0
    9.2814  -17.3466   17.7469 C   0  0  2  0  0  0  0  0  0  0  0  0
    8.5653  -18.3731   16.9419 N   0  0  0  0  0  0  0  0  0  0  0  0
    8.4789  -17.1816   18.9660 C   0  0  0  0  0  0  0  0  0  0  0  0
    8.8423  -16.3599   19.8806 O   0  0  0  0  0  0  0  0  0  0  0  0
    7.2596  -17.8940   19.2301 N   0  0  0  0  0  0  0  0  0  0  0  0
    6.6097  -17.7735   20.5092 C   0  0  1  0  0  0  0  0  0  0  0  0
    5.3772  -18.6430   20.5662 C   0  0  0  0  0  0  0  0  0  0  0  0
    4.6588  -18.5365   21.8884 C   0  0  0  0  0  0  0  0  0  0  0  0
    3.4133  -19.3947   21.7672 C   0  0  0  0  0  0  0  0  0  0  0  0
    2.5845  -19.3445   23.0314 C   0  0  0  0  0  0  0  0  0  0  0  0
    1.4705  -20.2531   22.8609 N   0  0  0  0  0  0  0  0  0  0  0  0
    7.5173  -18.2247   21.5795 C   0  0  0  0  0  0  0  0  0  0  0  0
    8.0497  -19.3721   21.6100 O   0  0  0  0  0  0  0  0  0  0  0  0
    7.8085  -17.3008   22.6477 N   0  0  0  0  0  0  0  0  0  0  0  0
    8.5691  -17.7384   23.7688 C   0  0  1  0  0  0  0  0  0  0  0  0
    9.7531  -16.8055   23.9087 C   0  0  0  0  0  0  0  0  0  0  0  0
   10.8050  -17.0204   22.9122 C   0  0  0  0  0  0  0  0  0  0  0  0
   10.8076  -18.0514   21.9878 C   0  0  0  0  0  0  0  0  0  0  0  0
   11.9192  -17.9366   21.2381 N   0  0  0  0  0  0  0  0  0  0  0  0
   12.6085  -16.8636   21.6704 C   0  0  0  0  0  0  0  0  0  0  0  0
   11.9274  -16.3162   22.6825 N   0  0  0  0  0  0  0  0  0  0  0  0
    7.7368  -17.7579   24.9908 C   0  0  0  0  0  0  0  0  0  0  0  0
    8.2423  -18.1947   26.0504 O   0  0  0  0  0  0  0  0  0  0  0  0
    6.4259  -17.3187   25.0296 O   0  0  0  0  0  0  0  0  0  0  0  0
  1  2  1  0
  2  3  2  0
  4  2  1  0
  4  5  1  0
  5  6  1  6
  7  8  2  0
  7  5  1  0
  9  7  1  0
 10  9  1  0
 10 11  1  6
 11 12  1  0
 13 12  1  0
 14 15  1  0
 14 13  1  0
 16 17  2  0
 16 10  1  0
 18 16  1  0
 19 18  1  0
 19 20  1  1
 20 21  1  0
 21 22  2  0
 21 25  1  0
 22 23  1  0
 24 23  1  0
 25 24  2  0
 26 19  1  0
 27 26  2  0
 28 26  1  0
M  END
$$$$
