NKH.pdb
     RDKit          3D

 28 28  0  0  1  0  0  0  0  0999 V2000
   18.3650  -19.4288   10.2486 N   0  0  0  0  0  0  0  0  0  0  0  0
   18.9929  -18.8739   11.4080 C   0  0  0  0  0  0  0  0  0  0  0  0
   20.2206  -18.6811   11.3480 O   0  0  0  0  0  0  0  0  0  0  0  0
   18.1883  -18.5653   12.5830 C   0  0  0  0  0  0  0  0  0  0  0  0
   16.7190  -18.7614   12.3278 C   0  0  2  0  0  0  0  0  0  0  0  0
   16.2754  -17.5748   11.5470 N   0  0  0  0  0  0  0  0  0  0  0  0
   15.8907  -18.7584   13.5407 C   0  0  0  0  0  0  0  0  0  0  0  0
   16.1634  -17.9714   14.5155 O   0  0  0  0  0  0  0  0  0  0  0  0
   14.7423  -19.5998   13.7339 N   0  0  0  0  0  0  0  0  0  0  0  0
   14.0175  -19.5662   14.9776 C   0  0  1  0  0  0  0  0  0  0  0  0
   12.6802  -20.2516   14.8351 C   0  0  0  0  0  0  0  0  0  0  0  0
   11.8303  -20.1174   16.0741 C   0  0  0  0  0  0  0  0  0  0  0  0
   10.4696  -20.6890   15.7216 C   0  0  0  0  0  0  0  0  0  0  0  0
    9.5256  -20.6324   16.9021 C   0  0  0  0  0  0  0  0  0  0  0  0
    8.2309  -21.0958   16.4499 N   0  0  0  0  0  0  0  0  0  0  0  0
   14.7724  -20.2851   16.0197 C   0  0  0  0  0  0  0  0  0  0  0  0
   15.5975  -21.2123   15.7742 O   0  0  0  0  0  0  0  0  0  0  0  0
   14.5515  -19.9043   17.3929 N   0  0  0  0  0  0  0  0  0  0  0  0
   15.4444  -20.3628   18.4027 C   0  0  1  0  0  0  0  0  0  0  0  0
   16.8195  -19.8203   18.0760 C   0  0  0  0  0  0  0  0  0  0  0  0
   17.8608  -20.2186   19.0262 C   0  0  0  0  0  0  0  0  0  0  0  0
   17.6507  -21.0496   20.1136 C   0  0  0  0  0  0  0  0  0  0  0  0
   18.8226  -21.1972   20.7584 N   0  0  0  0  0  0  0  0  0  0  0  0
   19.7557  -20.4810   20.1029 C   0  0  0  0  0  0  0  0  0  0  0  0
   19.1652  -19.8928   19.0574 N   0  0  0  0  0  0  0  0  0  0  0  0
   14.9869  -19.9319   19.7411 C   0  0  0  0  0  0  0  0  0  0  0  0
   14.1606  -18.9934   19.8159 O   0  0  0  0  0  0  0  0  0  0  0  0
   15.4217  -20.5098   20.9200 O   0  0  0  0  0  0  0  0  0  0  0  0
  1  2  1  0
  2  3  2  0
  4  2  1  0
  4  5  1  0
  5  6  1  6
  7  8  2  0
  7  5  1  0
  9  7  1  0
 10  9  1  0
 10 11  1  6
 11 12  1  0
 13 12  1  0
 14 15  1  0
 14 13  1  0
 16 17  2  0
 16 10  1  0
 18 16  1  0
 19 18  1  0
 19 20  1  6
 20 21  1  0
 21 22  2  0
 21 25  1  0
 22 23  1  0
 24 23  1  0
 25 24  2  0
 26 19  1  0
 27 26  2  0
 28 26  1  0
M  END
$$$$
