NKH.pdb
     RDKit          3D

 28 28  0  0  1  0  0  0  0  0999 V2000
   13.3641  -16.9134   13.7817 N   0  0  0  0  0  0  0  0  0  0  0  0
   12.0847  -16.2770   13.7152 C   0  0  0  0  0  0  0  0  0  0  0  0
   11.7804  -15.7311   12.6394 O   0  0  0  0  0  0  0  0  0  0  0  0
   11.2122  -16.2935   14.8822 C   0  0  0  0  0  0  0  0  0  0  0  0
   10.9796  -17.6890   15.3928 C   0  0  2  0  0  0  0  0  0  0  0  0
   10.0106  -18.3146   14.4524 N   0  0  0  0  0  0  0  0  0  0  0  0
   10.3338  -17.7490   16.7106 C   0  0  0  0  0  0  0  0  0  0  0  0
    9.2841  -17.0546   16.9555 O   0  0  0  0  0  0  0  0  0  0  0  0
   10.7987  -18.5633   17.7990 N   0  0  0  0  0  0  0  0  0  0  0  0
   10.0696  -18.6035   19.0400 C   0  0  1  0  0  0  0  0  0  0  0  0
   10.1945  -19.9605   19.6892 C   0  0  0  0  0  0  0  0  0  0  0  0
    9.4149  -20.0558   20.9771 C   0  0  0  0  0  0  0  0  0  0  0  0
    9.6562  -21.4524   21.5191 C   0  0  0  0  0  0  0  0  0  0  0  0
    8.9196  -21.6728   22.8216 C   0  0  0  0  0  0  0  0  0  0  0  0
    9.2873  -22.9827   23.3163 N   0  0  0  0  0  0  0  0  0  0  0  0
   10.6219  -17.6123   19.9807 C   0  0  0  0  0  0  0  0  0  0  0  0
   11.8512  -17.3217   20.0515 O   0  0  0  0  0  0  0  0  0  0  0  0
    9.7028  -16.9416   20.8667 N   0  0  0  0  0  0  0  0  0  0  0  0
   10.1754  -15.8990   21.7132 C   0  0  1  0  0  0  0  0  0  0  0  0
    9.0467  -14.9051   21.8862 C   0  0  0  0  0  0  0  0  0  0  0  0
    8.6796  -14.1970   20.6574 C   0  0  0  0  0  0  0  0  0  0  0  0
    9.4253  -14.2172   19.4909 C   0  0  0  0  0  0  0  0  0  0  0  0
    8.7891  -13.4625   18.5761 N   0  0  0  0  0  0  0  0  0  0  0  0
    7.6690  -12.9730   19.1411 C   0  0  0  0  0  0  0  0  0  0  0  0
    7.6112  -13.4222   20.3991 N   0  0  0  0  0  0  0  0  0  0  0  0
   10.6322  -16.4437   23.0097 C   0  0  0  0  0  0  0  0  0  0  0  0
   10.3927  -17.6454   23.2699 O   0  0  0  0  0  0  0  0  0  0  0  0
   11.3123  -15.6977   23.9551 O   0  0  0  0  0  0  0  0  0  0  0  0
  1  2  1  0
  2  3  2  0
  4  2  1  0
  4  5  1  0
  5  6  1  6
  7  8  2  0
  7  5  1  0
  9  7  1  0
 10  9  1  0
 10 11  1  1
 11 12  1  0
 13 12  1  0
 14 15  1  0
 14 13  1  0
 16 17  2  0
 16 10  1  0
 18 16  1  0
 19 18  1  0
 19 20  1  1
 20 21  1  0
 21 22  2  0
 21 25  1  0
 22 23  1  0
 24 23  1  0
 25 24  2  0
 26 19  1  0
 27 26  2  0
 28 26  1  0
M  END
$$$$
