MDM.pdb
     RDKit          3D

 25 24  0  0  1  0  0  0  0  0999 V2000
    6.9192  -11.0206   25.9129 C   0  0  0  0  0  0  0  0  0  0  0  0
    7.5389  -12.7103   25.6753 S   0  0  0  0  0  0  0  0  0  0  0  0
    6.3467  -13.6884   24.6985 C   0  0  0  0  0  0  0  0  0  0  0  0
    6.9152  -15.1047   24.5682 C   0  0  0  0  0  0  0  0  0  0  0  0
    7.5623  -15.1724   23.2017 C   0  0  2  0  0  0  0  0  0  0  0  0
    6.5266  -15.4684   22.2593 N   0  0  0  0  0  0  0  0  0  0  0  0
    8.6840  -16.1330   23.1631 C   0  0  0  0  0  0  0  0  0  0  0  0
    8.4443  -17.3335   23.4787 O   0  0  0  0  0  0  0  0  0  0  0  0
   10.0161  -15.8277   22.8008 N   0  0  0  0  0  0  0  0  0  0  0  0
   11.1537  -16.6618   23.0783 C   0  0  1  0  0  0  0  0  0  0  0  0
   12.2314  -16.3766   22.0863 C   0  0  0  0  0  0  0  0  0  0  0  0
   13.2944  -17.3825   22.0236 C   0  0  0  0  0  0  0  0  0  0  0  0
   13.1328  -18.5045   22.5287 O   0  0  0  0  0  0  0  0  0  0  0  0
   11.6259  -16.5353   24.4831 C   0  0  0  0  0  0  0  0  0  0  0  0
   12.6525  -15.8439   24.6820 O   0  0  0  0  0  0  0  0  0  0  0  0
   14.5166  -17.1437   21.4091 O   0  0  0  0  0  0  0  0  0  0  0  0
   10.3887  -14.0786   30.0974 C   0  0  0  0  0  0  0  0  0  0  0  0
    9.4491  -14.0915   28.5406 S   0  0  0  0  0  0  0  0  0  0  0  0
   10.3225  -15.1088   27.2886 C   0  0  0  0  0  0  0  0  0  0  0  0
   10.7533  -16.4153   27.8881 C   0  0  0  0  0  0  0  0  0  0  0  0
   11.5220  -17.2307   26.9304 C   0  0  2  0  0  0  0  0  0  0  0  0
   10.9706  -17.1545   25.5769 N   0  0  0  0  0  0  0  0  0  0  0  0
   11.7724  -18.5991   27.3456 C   0  0  0  0  0  0  0  0  0  0  0  0
   12.5611  -19.0165   28.3931 O   0  0  0  0  0  0  0  0  0  0  0  0
   11.2180  -19.5483   26.6865 O   0  0  0  0  0  0  0  0  0  0  0  0
  2  1  1  0
  3  2  1  0
  3  4  1  0
  4  5  1  0
  5  7  1  0
  5  6  1  6
  7  8  2  0
  9 10  1  0
  9  7  1  0
 10 11  1  6
 12 11  1  0
 13 12  2  0
 14 15  2  0
 14 10  1  0
 16 12  1  0
 17 18  1  0
 19 18  1  0
 20 19  1  0
 21 22  1  0
 21 20  1  1
 22 14  1  0
 23 21  1  0
 24 23  1  0
 25 23  2  0
M  END
$$$$
