MDM.pdb
     RDKit          3D

 25 24  0  0  1  0  0  0  0  0999 V2000
    8.8557  -12.0162   19.9731 C   0  0  0  0  0  0  0  0  0  0  0  0
    7.7951  -12.6467   18.6414 S   0  0  0  0  0  0  0  0  0  0  0  0
    7.7144  -14.4691   18.7081 C   0  0  0  0  0  0  0  0  0  0  0  0
    8.2838  -14.9028   20.0623 C   0  0  0  0  0  0  0  0  0  0  0  0
    8.4320  -16.4074   19.9920 C   0  0  2  0  0  0  0  0  0  0  0  0
    7.1405  -16.9443   19.6887 N   0  0  0  0  0  0  0  0  0  0  0  0
    9.0268  -16.9671   21.2230 C   0  0  0  0  0  0  0  0  0  0  0  0
    8.2423  -17.4274   22.1012 O   0  0  0  0  0  0  0  0  0  0  0  0
   10.4092  -17.0353   21.5110 N   0  0  0  0  0  0  0  0  0  0  0  0
   10.9659  -17.4523   22.7693 C   0  0  1  0  0  0  0  0  0  0  0  0
   12.4064  -17.7952   22.5850 C   0  0  0  0  0  0  0  0  0  0  0  0
   13.1017  -18.2150   23.8041 C   0  0  0  0  0  0  0  0  0  0  0  0
   14.1232  -17.6218   24.1847 O   0  0  0  0  0  0  0  0  0  0  0  0
   10.7531  -16.4507   23.8482 C   0  0  0  0  0  0  0  0  0  0  0  0
   10.9927  -15.2517   23.5715 O   0  0  0  0  0  0  0  0  0  0  0  0
   12.6675  -19.2772   24.5862 O   0  0  0  0  0  0  0  0  0  0  0  0
    6.4647  -11.7518   27.3601 C   0  0  0  0  0  0  0  0  0  0  0  0
    6.8526  -13.0773   26.1771 S   0  0  0  0  0  0  0  0  0  0  0  0
    8.3048  -14.0342   26.7605 C   0  0  0  0  0  0  0  0  0  0  0  0
    8.7167  -15.0387   25.7246 C   0  0  0  0  0  0  0  0  0  0  0  0
    9.8844  -15.8266   26.1589 C   0  0  2  0  0  0  0  0  0  0  0  0
   10.2999  -16.7975   25.1457 N   0  0  0  0  0  0  0  0  0  0  0  0
    9.7714  -16.4228   27.4777 C   0  0  0  0  0  0  0  0  0  0  0  0
    9.9224  -15.7890   28.6898 O   0  0  0  0  0  0  0  0  0  0  0  0
    9.5064  -17.6740   27.5615 O   0  0  0  0  0  0  0  0  0  0  0  0
  2  1  1  0
  3  2  1  0
  3  4  1  0
  4  5  1  0
  5  7  1  0
  5  6  1  1
  7  8  2  0
  9 10  1  0
  9  7  1  0
 10 11  1  6
 12 11  1  0
 13 12  2  0
 14 15  2  0
 14 10  1  0
 16 12  1  0
 17 18  1  0
 19 18  1  0
 20 19  1  0
 21 22  1  0
 21 20  1  6
 22 14  1  0
 23 21  1  0
 24 23  1  0
 25 23  2  0
M  END
$$$$
