MDM.pdb
     RDKit          3D

 25 24  0  0  1  0  0  0  0  0999 V2000
    8.0822  -11.6981   20.3829 C   0  0  0  0  0  0  0  0  0  0  0  0
    7.3455  -12.4320   18.8948 S   0  0  0  0  0  0  0  0  0  0  0  0
    7.9208  -14.1519   18.6882 C   0  0  0  0  0  0  0  0  0  0  0  0
    8.2439  -14.6967   20.0829 C   0  0  0  0  0  0  0  0  0  0  0  0
    8.6700  -16.1351   19.8824 C   0  0  2  0  0  0  0  0  0  0  0  0
    7.5601  -16.8262   19.3004 N   0  0  0  0  0  0  0  0  0  0  0  0
    9.1558  -16.7521   21.1338 C   0  0  0  0  0  0  0  0  0  0  0  0
    8.2973  -17.0818   22.0014 O   0  0  0  0  0  0  0  0  0  0  0  0
   10.5088  -17.0102   21.4522 N   0  0  0  0  0  0  0  0  0  0  0  0
   10.9797  -17.4528   22.7365 C   0  0  1  0  0  0  0  0  0  0  0  0
   12.3977  -17.9021   22.6169 C   0  0  0  0  0  0  0  0  0  0  0  0
   12.6192  -19.0021   21.6754 C   0  0  0  0  0  0  0  0  0  0  0  0
   11.8428  -19.9696   21.6404 O   0  0  0  0  0  0  0  0  0  0  0  0
   10.7959  -16.4264   23.7972 C   0  0  0  0  0  0  0  0  0  0  0  0
   11.5567  -15.4305   23.7682 O   0  0  0  0  0  0  0  0  0  0  0  0
   13.6870  -19.0250   20.7878 O   0  0  0  0  0  0  0  0  0  0  0  0
    6.8007  -11.3928   27.9106 C   0  0  0  0  0  0  0  0  0  0  0  0
    6.9285  -12.6106   26.5661 S   0  0  0  0  0  0  0  0  0  0  0  0
    8.3408  -13.7399   26.8744 C   0  0  0  0  0  0  0  0  0  0  0  0
    8.5260  -14.6711   25.7122 C   0  0  0  0  0  0  0  0  0  0  0  0
    9.6651  -15.5839   25.9174 C   0  0  2  0  0  0  0  0  0  0  0  0
    9.8141  -16.5336   24.8140 N   0  0  0  0  0  0  0  0  0  0  0  0
    9.7083  -16.2362   27.2136 C   0  0  0  0  0  0  0  0  0  0  0  0
    9.8886  -15.6355   28.4385 O   0  0  0  0  0  0  0  0  0  0  0  0
    9.5705  -17.5096   27.2612 O   0  0  0  0  0  0  0  0  0  0  0  0
  2  1  1  0
  3  2  1  0
  3  4  1  0
  4  5  1  0
  5  7  1  0
  5  6  1  1
  7  8  2  0
  9 10  1  0
  9  7  1  0
 10 11  1  6
 12 11  1  0
 13 12  2  0
 14 15  2  0
 14 10  1  0
 16 12  1  0
 17 18  1  0
 19 18  1  0
 20 19  1  0
 21 22  1  0
 21 20  1  6
 22 14  1  0
 23 21  1  0
 24 23  1  0
 25 23  2  0
M  END
$$$$
