MDM.pdb
     RDKit          3D

 25 24  0  0  1  0  0  0  0  0999 V2000
    8.8333  -11.8328   19.8008 C   0  0  0  0  0  0  0  0  0  0  0  0
    7.3961  -12.4632   18.8882 S   0  0  0  0  0  0  0  0  0  0  0  0
    7.2826  -14.2765   19.0639 C   0  0  0  0  0  0  0  0  0  0  0  0
    7.7568  -14.6295   20.4770 C   0  0  0  0  0  0  0  0  0  0  0  0
    7.9369  -16.1322   20.4954 C   0  0  2  0  0  0  0  0  0  0  0  0
    6.6374  -16.7141   20.3496 N   0  0  0  0  0  0  0  0  0  0  0  0
    8.6551  -16.5928   21.7014 C   0  0  0  0  0  0  0  0  0  0  0  0
    7.9650  -16.9777   22.6884 O   0  0  0  0  0  0  0  0  0  0  0  0
   10.0597  -16.6429   21.8532 N   0  0  0  0  0  0  0  0  0  0  0  0
   10.7422  -17.1266   23.0225 C   0  0  1  0  0  0  0  0  0  0  0  0
   12.1767  -17.3728   22.6932 C   0  0  0  0  0  0  0  0  0  0  0  0
   12.4041  -18.2003   21.5061 C   0  0  0  0  0  0  0  0  0  0  0  0
   12.9724  -17.7302   20.5079 O   0  0  0  0  0  0  0  0  0  0  0  0
   10.5742  -16.2271   24.1951 C   0  0  0  0  0  0  0  0  0  0  0  0
   11.4028  -15.2954   24.3253 O   0  0  0  0  0  0  0  0  0  0  0  0
   12.0056  -19.5284   21.4310 O   0  0  0  0  0  0  0  0  0  0  0  0
    7.0250  -12.1700   27.6929 C   0  0  0  0  0  0  0  0  0  0  0  0
    6.8608  -12.7038   25.9623 S   0  0  0  0  0  0  0  0  0  0  0  0
    8.1777  -13.9128   25.5508 C   0  0  0  0  0  0  0  0  0  0  0  0
    8.3471  -14.8989   26.6692 C   0  0  0  0  0  0  0  0  0  0  0  0
    9.5285  -15.7574   26.4688 C   0  0  2  0  0  0  0  0  0  0  0  0
    9.5348  -16.3837   25.1461 N   0  0  0  0  0  0  0  0  0  0  0  0
    9.7849  -16.7133   27.5308 C   0  0  0  0  0  0  0  0  0  0  0  0
    9.8173  -18.0847   27.4219 O   0  0  0  0  0  0  0  0  0  0  0  0
   10.0059  -16.2685   28.7124 O   0  0  0  0  0  0  0  0  0  0  0  0
  2  1  1  0
  3  2  1  0
  3  4  1  0
  4  5  1  0
  5  7  1  0
  5  6  1  1
  7  8  2  0
  9 10  1  0
  9  7  1  0
 10 11  1  6
 12 11  1  0
 13 12  2  0
 14 15  2  0
 14 10  1  0
 16 12  1  0
 17 18  1  0
 19 18  1  0
 20 19  1  0
 21 22  1  0
 21 20  1  1
 22 14  1  0
 23 21  1  0
 24 23  1  0
 25 23  2  0
M  END
$$$$
