MDM.pdb
     RDKit          3D

 25 24  0  0  1  0  0  0  0  0999 V2000
    8.4899  -11.5410   20.1578 C   0  0  0  0  0  0  0  0  0  0  0  0
    7.3092  -12.4501   19.1208 S   0  0  0  0  0  0  0  0  0  0  0  0
    7.8057  -14.2015   18.9859 C   0  0  0  0  0  0  0  0  0  0  0  0
    8.0589  -14.7157   20.4064 C   0  0  0  0  0  0  0  0  0  0  0  0
    8.4616  -16.1673   20.2609 C   0  0  2  0  0  0  0  0  0  0  0  0
    7.3490  -16.8574   19.6826 N   0  0  0  0  0  0  0  0  0  0  0  0
    8.9147  -16.7511   21.5401 C   0  0  0  0  0  0  0  0  0  0  0  0
    8.0332  -17.0705   22.3883 O   0  0  0  0  0  0  0  0  0  0  0  0
   10.2598  -16.9875   21.9056 N   0  0  0  0  0  0  0  0  0  0  0  0
   10.6927  -17.4227   23.2056 C   0  0  1  0  0  0  0  0  0  0  0  0
   12.1025  -17.9049   23.1232 C   0  0  0  0  0  0  0  0  0  0  0  0
   12.6068  -18.1078   21.7630 C   0  0  0  0  0  0  0  0  0  0  0  0
   12.2728  -19.1076   21.1081 O   0  0  0  0  0  0  0  0  0  0  0  0
   10.5091  -16.3779   24.2483 C   0  0  0  0  0  0  0  0  0  0  0  0
   11.0429  -15.2626   24.0415 O   0  0  0  0  0  0  0  0  0  0  0  0
   13.4686  -17.2130   21.1423 O   0  0  0  0  0  0  0  0  0  0  0  0
    6.3391  -12.3225   25.8249 C   0  0  0  0  0  0  0  0  0  0  0  0
    7.8002  -12.3221   26.9075 S   0  0  0  0  0  0  0  0  0  0  0  0
    8.0763  -14.0023   27.5900 C   0  0  0  0  0  0  0  0  0  0  0  0
    8.2573  -14.9928   26.4773 C   0  0  0  0  0  0  0  0  0  0  0  0
    9.6012  -15.5983   26.4958 C   0  0  2  0  0  0  0  0  0  0  0  0
    9.7694  -16.5952   25.4378 N   0  0  0  0  0  0  0  0  0  0  0  0
   10.0392  -16.0905   27.7895 C   0  0  0  0  0  0  0  0  0  0  0  0
   10.4719  -15.3402   28.8588 O   0  0  0  0  0  0  0  0  0  0  0  0
   10.0396  -17.3559   27.9931 O   0  0  0  0  0  0  0  0  0  0  0  0
  2  1  1  0
  3  2  1  0
  3  4  1  0
  4  5  1  0
  5  7  1  0
  5  6  1  1
  7  8  2  0
  9 10  1  0
  9  7  1  0
 10 11  1  6
 12 11  1  0
 13 12  2  0
 14 15  2  0
 14 10  1  0
 16 12  1  0
 17 18  1  0
 19 18  1  0
 20 19  1  0
 21 22  1  0
 21 20  1  1
 22 14  1  0
 23 21  1  0
 24 23  1  0
 25 23  2  0
M  END
$$$$
