AAR.pdb
     RDKit          3D

 22 21  0  0  1  0  0  0  0  0999 V2000
   16.1898  -13.5769  -14.3603 C   0  0  0  0  0  0  0  0  0  0  0  0
   15.7755  -13.0386  -15.7333 C   0  0  2  0  0  0  0  0  0  0  0  0
   15.6884  -14.0705  -16.7161 N   0  0  0  0  0  0  0  0  0  0  0  0
   16.7898  -11.9922  -16.1169 C   0  0  0  0  0  0  0  0  0  0  0  0
   17.9034  -12.3504  -16.5788 O   0  0  0  0  0  0  0  0  0  0  0  0
   16.9144   -8.2583  -16.2368 C   0  0  0  0  0  0  0  0  0  0  0  0
   17.5342   -9.6594  -16.3366 C   0  0  2  0  0  0  0  0  0  0  0  0
   16.5257  -10.6039  -15.9721 N   0  0  0  0  0  0  0  0  0  0  0  0
   18.6930   -9.6548  -15.4187 C   0  0  0  0  0  0  0  0  0  0  0  0
   18.5873  -10.0054  -14.2167 O   0  0  0  0  0  0  0  0  0  0  0  0
   26.7980  -12.1553  -17.4244 N   0  0  0  0  0  0  0  0  0  0  0  0
   26.9335  -11.4689  -16.1934 C   0  0  0  0  0  0  0  0  0  0  0  0
   28.0466  -11.5039  -15.5554 N   0  0  0  0  0  0  0  0  0  0  0  0
   25.8489  -10.7302  -15.6385 N   0  0  0  0  0  0  0  0  0  0  0  0
   24.5455  -10.6873  -16.2289 C   0  0  0  0  0  0  0  0  0  0  0  0
   23.6017   -9.9071  -15.3443 C   0  0  0  0  0  0  0  0  0  0  0  0
   22.2454   -9.8140  -15.9745 C   0  0  0  0  0  0  0  0  0  0  0  0
   21.1660   -9.2987  -15.0724 C   0  0  2  0  0  0  0  0  0  0  0  0
   19.9482   -9.2467  -15.9042 N   0  0  0  0  0  0  0  0  0  0  0  0
   21.4594   -7.8910  -14.7231 C   0  0  0  0  0  0  0  0  0  0  0  0
   21.1946   -6.9988  -15.5634 O   0  0  0  0  0  0  0  0  0  0  0  0
   22.0100   -7.4888  -13.5236 O   0  0  0  0  0  0  0  0  0  0  0  0
  2  1  1  1
  2  4  1  0
  2  3  1  0
  4  5  2  0
  7  6  1  1
  7  9  1  0
  8  4  1  0
  8  7  1  0
  9 19  1  0
 10  9  2  0
 12 11  1  0
 12 13  2  0
 14 12  1  0
 15 14  1  0
 16 15  1  0
 17 16  1  0
 18 17  1  6
 19 18  1  0
 20 18  1  0
 21 20  2  0
 22 20  1  0
M  END
$$$$
