AAR.pdb
     RDKit          3D

 22 21  0  0  1  0  0  0  0  0999 V2000
   32.7784  -13.0380  -20.8552 C   0  0  0  0  0  0  0  0  0  0  0  0
   32.9181  -12.7194  -19.3635 C   0  0  2  0  0  0  0  0  0  0  0  0
   33.3878  -13.8389  -18.6120 N   0  0  0  0  0  0  0  0  0  0  0  0
   31.5647  -12.2598  -18.8859 C   0  0  0  0  0  0  0  0  0  0  0  0
   30.6417  -13.1016  -18.7404 O   0  0  0  0  0  0  0  0  0  0  0  0
   30.1192   -9.0621  -17.6064 C   0  0  0  0  0  0  0  0  0  0  0  0
   30.0387  -10.5392  -18.0170 C   0  0  2  0  0  0  0  0  0  0  0  0
   31.2970  -10.8958  -18.5927 N   0  0  0  0  0  0  0  0  0  0  0  0
   28.9107  -10.6334  -18.9678 C   0  0  0  0  0  0  0  0  0  0  0  0
   29.0786  -10.5215  -20.2080 O   0  0  0  0  0  0  0  0  0  0  0  0
   21.3058  -15.0556  -17.8293 N   0  0  0  0  0  0  0  0  0  0  0  0
   21.1315  -14.2600  -18.9875 C   0  0  0  0  0  0  0  0  0  0  0  0
   20.0399  -14.3300  -19.6589 N   0  0  0  0  0  0  0  0  0  0  0  0
   22.1528  -13.3713  -19.4314 N   0  0  0  0  0  0  0  0  0  0  0  0
   23.3492  -13.1169  -18.6875 C   0  0  0  0  0  0  0  0  0  0  0  0
   24.1844  -12.0733  -19.3912 C   0  0  0  0  0  0  0  0  0  0  0  0
   25.4962  -11.8890  -18.6908 C   0  0  0  0  0  0  0  0  0  0  0  0
   26.4363  -10.9311  -19.3565 C   0  0  2  0  0  0  0  0  0  0  0  0
   27.6139  -10.8542  -18.4706 N   0  0  0  0  0  0  0  0  0  0  0  0
   25.8422   -9.5761  -19.3331 C   0  0  0  0  0  0  0  0  0  0  0  0
   26.0911   -8.8309  -18.3559 O   0  0  0  0  0  0  0  0  0  0  0  0
   25.0245   -9.0711  -20.3233 O   0  0  0  0  0  0  0  0  0  0  0  0
  2  1  1  6
  2  4  1  0
  2  3  1  0
  4  5  2  0
  7  6  1  6
  7  9  1  0
  8  4  1  0
  8  7  1  0
  9 19  1  0
 10  9  2  0
 12 11  1  0
 12 13  2  0
 14 12  1  0
 15 14  1  0
 16 15  1  0
 17 16  1  0
 18 17  1  1
 19 18  1  0
 20 18  1  0
 21 20  2  0
 22 20  1  0
M  END
$$$$
