AAR.pdb
     RDKit          3D

 22 21  0  0  1  0  0  0  0  0999 V2000
   15.4358  -10.2107   -9.5485 C   0  0  0  0  0  0  0  0  0  0  0  0
   14.6204   -8.9378   -9.3011 C   0  0  2  0  0  0  0  0  0  0  0  0
   13.3241   -9.0003   -9.8962 N   0  0  0  0  0  0  0  0  0  0  0  0
   15.4268   -7.7885   -9.8487 C   0  0  0  0  0  0  0  0  0  0  0  0
   15.5467   -7.6550  -11.0935 O   0  0  0  0  0  0  0  0  0  0  0  0
   16.7810   -4.6118   -8.5296 C   0  0  0  0  0  0  0  0  0  0  0  0
   16.7514   -5.7355   -9.5753 C   0  0  2  0  0  0  0  0  0  0  0  0
   16.0604   -6.8445   -8.9969 N   0  0  0  0  0  0  0  0  0  0  0  0
   18.1650   -6.0271   -9.8951 C   0  0  0  0  0  0  0  0  0  0  0  0
   18.8322   -6.8677   -9.2416 O   0  0  0  0  0  0  0  0  0  0  0  0
   19.7758   -9.1685  -16.7302 N   0  0  0  0  0  0  0  0  0  0  0  0
   21.0284   -9.5071  -16.1634 C   0  0  0  0  0  0  0  0  0  0  0  0
   21.9858   -9.9158  -16.9140 N   0  0  0  0  0  0  0  0  0  0  0  0
   21.2543   -9.4036  -14.7605 N   0  0  0  0  0  0  0  0  0  0  0  0
   20.2649   -8.9328  -13.8392 C   0  0  0  0  0  0  0  0  0  0  0  0
   20.6549   -7.5723  -13.3110 C   0  0  0  0  0  0  0  0  0  0  0  0
   19.6255   -7.0673  -12.3463 C   0  0  0  0  0  0  0  0  0  0  0  0
   20.0197   -5.8335  -11.5935 C   0  0  2  0  0  0  0  0  0  0  0  0
   18.7798   -5.3448  -10.9601 N   0  0  0  0  0  0  0  0  0  0  0  0
   20.4048   -4.7806  -12.5593 C   0  0  0  0  0  0  0  0  0  0  0  0
   19.4976   -4.1824  -13.1850 O   0  0  0  0  0  0  0  0  0  0  0  0
   21.7073   -4.4080  -12.8212 O   0  0  0  0  0  0  0  0  0  0  0  0
  2  1  1  6
  2  4  1  0
  2  3  1  0
  4  5  2  0
  7  6  1  1
  7  9  1  0
  8  4  1  0
  8  7  1  0
  9 19  1  0
 10  9  2  0
 12 11  1  0
 12 13  2  0
 14 12  1  0
 15 14  1  0
 16 15  1  0
 17 16  1  0
 18 17  1  6
 19 18  1  0
 20 18  1  0
 21 20  2  0
 22 20  1  0
M  END
$$$$
