AAR.pdb
     RDKit          3D

 22 21  0  0  1  0  0  0  0  0999 V2000
   28.0799  -17.8186  -21.1430 C   0  0  0  0  0  0  0  0  0  0  0  0
   28.5656  -17.1363  -19.8605 C   0  0  2  0  0  0  0  0  0  0  0  0
   29.7992  -16.4426  -20.0496 N   0  0  0  0  0  0  0  0  0  0  0  0
   28.6899  -18.2123  -18.8128 C   0  0  0  0  0  0  0  0  0  0  0  0
   29.6619  -19.0091  -18.8570 O   0  0  0  0  0  0  0  0  0  0  0  0
   26.7699  -19.2781  -15.7850 C   0  0  0  0  0  0  0  0  0  0  0  0
   27.8802  -19.4272  -16.8349 C   0  0  2  0  0  0  0  0  0  0  0  0
   27.7366  -18.3559  -17.7693 N   0  0  0  0  0  0  0  0  0  0  0  0
   27.6879  -20.7626  -17.4392 C   0  0  0  0  0  0  0  0  0  0  0  0
   26.9457  -20.9371  -18.4378 O   0  0  0  0  0  0  0  0  0  0  0  0
   29.0271  -28.2986  -15.0114 N   0  0  0  0  0  0  0  0  0  0  0  0
   29.6561  -28.5629  -16.2520 C   0  0  0  0  0  0  0  0  0  0  0  0
   29.5008  -29.7016  -16.8234 N   0  0  0  0  0  0  0  0  0  0  0  0
   30.4684  -27.5815  -16.8901 N   0  0  0  0  0  0  0  0  0  0  0  0
   30.4671  -26.1993  -16.5176 C   0  0  0  0  0  0  0  0  0  0  0  0
   29.2847  -25.4960  -17.1415 C   0  0  0  0  0  0  0  0  0  0  0  0
   29.2880  -24.0413  -16.7823 C   0  0  0  0  0  0  0  0  0  0  0  0
   28.2024  -23.2320  -17.4236 C   0  0  2  0  0  0  0  0  0  0  0  0
   28.3542  -21.8681  -16.8809 N   0  0  0  0  0  0  0  0  0  0  0  0
   26.8906  -23.7045  -16.9282 C   0  0  0  0  0  0  0  0  0  0  0  0
   26.2753  -24.5690  -17.5963 O   0  0  0  0  0  0  0  0  0  0  0  0
   26.2919  -23.2544  -15.7694 O   0  0  0  0  0  0  0  0  0  0  0  0
  2  1  1  6
  2  4  1  0
  2  3  1  0
  4  5  2  0
  7  6  1  1
  7  9  1  0
  8  4  1  0
  8  7  1  0
  9 19  1  0
 10  9  2  0
 12 11  1  0
 12 13  2  0
 14 12  1  0
 15 14  1  0
 16 15  1  0
 17 16  1  0
 18 17  1  1
 19 18  1  0
 20 18  1  0
 21 20  2  0
 22 20  1  0
M  END
$$$$
