AAR.pdb
     RDKit          3D

 22 21  0  0  1  0  0  0  0  0999 V2000
   21.2141  -11.3064  -18.4337 C   0  0  0  0  0  0  0  0  0  0  0  0
   22.2706  -10.7325  -17.4846 C   0  0  2  0  0  0  0  0  0  0  0  0
   23.3245  -11.6595  -17.2227 N   0  0  0  0  0  0  0  0  0  0  0  0
   21.5533  -10.3370  -16.2197 C   0  0  0  0  0  0  0  0  0  0  0  0
   20.9776  -11.2198  -15.5334 O   0  0  0  0  0  0  0  0  0  0  0  0
   21.5791   -7.5476  -13.8668 C   0  0  0  0  0  0  0  0  0  0  0  0
   20.8084   -8.6750  -14.5683 C   0  0  2  0  0  0  0  0  0  0  0  0
   21.5067   -8.9886  -15.7749 N   0  0  0  0  0  0  0  0  0  0  0  0
   19.4456   -8.1502  -14.7986 C   0  0  0  0  0  0  0  0  0  0  0  0
   19.1352   -7.5567  -15.8616 O   0  0  0  0  0  0  0  0  0  0  0  0
   12.4173   -9.6737   -9.4337 N   0  0  0  0  0  0  0  0  0  0  0  0
   11.9060   -9.1106  -10.6280 C   0  0  0  0  0  0  0  0  0  0  0  0
   10.6466   -8.8967  -10.7517 N   0  0  0  0  0  0  0  0  0  0  0  0
   12.7681   -8.7712  -11.7104 N   0  0  0  0  0  0  0  0  0  0  0  0
   14.1820   -8.9941  -11.6869 C   0  0  0  0  0  0  0  0  0  0  0  0
   14.8253   -8.3671  -12.9013 C   0  0  0  0  0  0  0  0  0  0  0  0
   16.2956   -8.6552  -12.9260 C   0  0  0  0  0  0  0  0  0  0  0  0
   17.0542   -7.9651  -14.0181 C   0  0  2  0  0  0  0  0  0  0  0  0
   18.4698   -8.3200  -13.8002 N   0  0  0  0  0  0  0  0  0  0  0  0
   16.9824   -6.5023  -13.8066 C   0  0  0  0  0  0  0  0  0  0  0  0
   17.8349   -5.9634  -13.0615 O   0  0  0  0  0  0  0  0  0  0  0  0
   16.0318   -5.6822  -14.3789 O   0  0  0  0  0  0  0  0  0  0  0  0
  2  1  1  6
  2  4  1  0
  2  3  1  0
  4  5  2  0
  7  6  1  6
  7  9  1  0
  8  4  1  0
  8  7  1  0
  9 19  1  0
 10  9  2  0
 12 11  1  0
 12 13  2  0
 14 12  1  0
 15 14  1  0
 16 15  1  0
 17 16  1  0
 18 17  1  1
 19 18  1  0
 20 18  1  0
 21 20  2  0
 22 20  1  0
M  END
$$$$
