AAR.pdb
     RDKit          3D

 22 21  0  0  1  0  0  0  0  0999 V2000
   26.0958  -19.9646  -16.5795 C   0  0  0  0  0  0  0  0  0  0  0  0
   27.0013  -19.2389  -15.5797 C   0  0  2  0  0  0  0  0  0  0  0  0
   27.3348  -20.0567  -14.4579 N   0  0  0  0  0  0  0  0  0  0  0  0
   26.2731  -17.9890  -15.1574 C   0  0  0  0  0  0  0  0  0  0  0  0
   25.3258  -18.0734  -14.3345 O   0  0  0  0  0  0  0  0  0  0  0  0
   26.5333  -14.3237  -15.8180 C   0  0  0  0  0  0  0  0  0  0  0  0
   25.7841  -15.5899  -15.3792 C   0  0  2  0  0  0  0  0  0  0  0  0
   26.6257  -16.7091  -15.6633 N   0  0  0  0  0  0  0  0  0  0  0  0
   24.5197  -15.5970  -16.1453 C   0  0  0  0  0  0  0  0  0  0  0  0
   24.4054  -16.2225  -17.2289 O   0  0  0  0  0  0  0  0  0  0  0  0
   16.1831  -14.5035  -14.6648 N   0  0  0  0  0  0  0  0  0  0  0  0
   17.1797  -14.7429  -13.6879 C   0  0  0  0  0  0  0  0  0  0  0  0
   16.8902  -15.3884  -12.6170 N   0  0  0  0  0  0  0  0  0  0  0  0
   18.5145  -14.2782  -13.8678 N   0  0  0  0  0  0  0  0  0  0  0  0
   18.8932  -13.3598  -14.8986 C   0  0  0  0  0  0  0  0  0  0  0  0
   19.7626  -14.0562  -15.9189 C   0  0  0  0  0  0  0  0  0  0  0  0
   21.1485  -14.2518  -15.3837 C   0  0  0  0  0  0  0  0  0  0  0  0
   22.1207  -14.8467  -16.3560 C   0  0  2  0  0  0  0  0  0  0  0  0
   23.4145  -14.8840  -15.6473 N   0  0  0  0  0  0  0  0  0  0  0  0
   22.3189  -13.9041  -17.4793 C   0  0  0  0  0  0  0  0  0  0  0  0
   21.6944  -14.1071  -18.5475 O   0  0  0  0  0  0  0  0  0  0  0  0
   23.1525  -12.8055  -17.4313 O   0  0  0  0  0  0  0  0  0  0  0  0
  2  1  1  6
  2  4  1  0
  2  3  1  0
  4  5  2  0
  7  6  1  6
  7  9  1  0
  8  4  1  0
  8  7  1  0
  9 19  1  0
 10  9  2  0
 12 11  1  0
 12 13  2  0
 14 12  1  0
 15 14  1  0
 16 15  1  0
 17 16  1  0
 18 17  1  1
 19 18  1  0
 20 18  1  0
 21 20  2  0
 22 20  1  0
M  END
$$$$
