AAR.pdb
     RDKit          3D

 22 21  0  0  1  0  0  0  0  0999 V2000
   19.9771  -14.1070  -18.4137 C   0  0  0  0  0  0  0  0  0  0  0  0
   20.7583  -14.6067  -17.1946 C   0  0  2  0  0  0  0  0  0  0  0  0
   20.0367  -15.5923  -16.4553 N   0  0  0  0  0  0  0  0  0  0  0  0
   21.0702  -13.3984  -16.3497 C   0  0  0  0  0  0  0  0  0  0  0  0
   20.1355  -12.7989  -15.7592 O   0  0  0  0  0  0  0  0  0  0  0  0
   24.1413  -11.5324  -15.3182 C   0  0  0  0  0  0  0  0  0  0  0  0
   22.6227  -11.7299  -15.4280 C   0  0  2  0  0  0  0  0  0  0  0  0
   22.3963  -12.9119  -16.1982 N   0  0  0  0  0  0  0  0  0  0  0  0
   22.1011  -10.5036  -16.0680 C   0  0  0  0  0  0  0  0  0  0  0  0
   21.7625  -10.4805  -17.2777 O   0  0  0  0  0  0  0  0  0  0  0  0
   14.7045   -7.9066  -16.9696 N   0  0  0  0  0  0  0  0  0  0  0  0
   15.4055   -6.7062  -17.2384 C   0  0  0  0  0  0  0  0  0  0  0  0
   14.7781   -5.6805  -17.6873 N   0  0  0  0  0  0  0  0  0  0  0  0
   16.8099   -6.6083  -17.0193 N   0  0  0  0  0  0  0  0  0  0  0  0
   17.6025   -7.6886  -16.5152 C   0  0  0  0  0  0  0  0  0  0  0  0
   19.0516   -7.2711  -16.4283 C   0  0  0  0  0  0  0  0  0  0  0  0
   19.9049   -8.4207  -15.9860 C   0  0  0  0  0  0  0  0  0  0  0  0
   21.3616   -8.1031  -15.8378 C   0  0  2  0  0  0  0  0  0  0  0  0
   21.9804   -9.3307  -15.3015 N   0  0  0  0  0  0  0  0  0  0  0  0
   21.5289   -7.0866  -14.7756 C   0  0  0  0  0  0  0  0  0  0  0  0
   21.5731   -7.4701  -13.5826 O   0  0  0  0  0  0  0  0  0  0  0  0
   21.6407   -5.7315  -15.0103 O   0  0  0  0  0  0  0  0  0  0  0  0
  2  1  1  6
  2  4  1  0
  2  3  1  0
  4  5  2  0
  7  6  1  6
  7  9  1  0
  8  4  1  0
  8  7  1  0
  9 19  1  0
 10  9  2  0
 12 11  1  0
 12 13  2  0
 14 12  1  0
 15 14  1  0
 16 15  1  0
 17 16  1  0
 18 17  1  1
 19 18  1  0
 20 18  1  0
 21 20  2  0
 22 20  1  0
M  END
$$$$
