AAR.pdb
     RDKit          3D

 22 21  0  0  1  0  0  0  0  0999 V2000
   33.6806  -32.9271   -5.0973 C   0  0  0  0  0  0  0  0  0  0  0  0
   33.5052  -34.2901   -5.7739 C   0  0  2  0  0  0  0  0  0  0  0  0
   33.6862  -34.2202   -7.1884 N   0  0  0  0  0  0  0  0  0  0  0  0
   32.1267  -34.7822   -5.4152 C   0  0  0  0  0  0  0  0  0  0  0  0
   31.1466  -34.4514   -6.1304 O   0  0  0  0  0  0  0  0  0  0  0  0
   30.6598  -37.1047   -2.8840 C   0  0  0  0  0  0  0  0  0  0  0  0
   30.5699  -36.0590   -4.0046 C   0  0  2  0  0  0  0  0  0  0  0  0
   31.8981  -35.6139   -4.2864 N   0  0  0  0  0  0  0  0  0  0  0  0
   29.6895  -34.9891   -3.4890 C   0  0  0  0  0  0  0  0  0  0  0  0
   30.1414  -34.0200   -2.8293 O   0  0  0  0  0  0  0  0  0  0  0  0
   23.0314  -33.2224   -8.4385 N   0  0  0  0  0  0  0  0  0  0  0  0
   24.0591  -32.2515   -8.3608 C   0  0  0  0  0  0  0  0  0  0  0  0
   24.1308  -31.3176   -9.2382 N   0  0  0  0  0  0  0  0  0  0  0  0
   25.0289  -32.2870   -7.3175 N   0  0  0  0  0  0  0  0  0  0  0  0
   25.0207  -33.2646   -6.2718 C   0  0  0  0  0  0  0  0  0  0  0  0
   26.2152  -33.0666   -5.3685 C   0  0  0  0  0  0  0  0  0  0  0  0
   26.2158  -34.0820   -4.2666 C   0  0  0  0  0  0  0  0  0  0  0  0
   27.3790  -33.9904   -3.3268 C   0  0  2  0  0  0  0  0  0  0  0  0
   28.3083  -35.0581   -3.7441 N   0  0  0  0  0  0  0  0  0  0  0  0
   26.9335  -34.3710   -1.9680 C   0  0  0  0  0  0  0  0  0  0  0  0
   27.0145  -35.5751   -1.6276 O   0  0  0  0  0  0  0  0  0  0  0  0
   26.4298  -33.4825   -1.0402 O   0  0  0  0  0  0  0  0  0  0  0  0
  2  1  1  1
  2  4  1  0
  2  3  1  0
  4  5  2  0
  7  6  1  1
  7  9  1  0
  8  4  1  0
  8  7  1  0
  9 19  1  0
 10  9  2  0
 12 11  1  0
 12 13  2  0
 14 12  1  0
 15 14  1  0
 16 15  1  0
 17 16  1  0
 18 17  1  6
 19 18  1  0
 20 18  1  0
 21 20  2  0
 22 20  1  0
M  END
$$$$
