AAR.pdb
     RDKit          3D

 22 21  0  0  1  0  0  0  0  0999 V2000
   23.8939  -20.8574   -9.8121 C   0  0  0  0  0  0  0  0  0  0  0  0
   25.3407  -21.3575   -9.7574 C   0  0  2  0  0  0  0  0  0  0  0  0
   25.9170  -21.2080   -8.4597 N   0  0  0  0  0  0  0  0  0  0  0  0
   26.1100  -20.5851  -10.7978 C   0  0  0  0  0  0  0  0  0  0  0  0
   26.5463  -19.4387  -10.5197 O   0  0  0  0  0  0  0  0  0  0  0  0
   27.7112  -21.2490  -14.0613 C   0  0  0  0  0  0  0  0  0  0  0  0
   27.0289  -20.3053  -13.0608 C   0  0  2  0  0  0  0  0  0  0  0  0
   26.3598  -21.1149  -12.0920 N   0  0  0  0  0  0  0  0  0  0  0  0
   26.1104  -19.4659  -13.8591 C   0  0  0  0  0  0  0  0  0  0  0  0
   24.9717  -19.8715  -14.2021 O   0  0  0  0  0  0  0  0  0  0  0  0
   27.7805  -11.0349  -16.4986 N   0  0  0  0  0  0  0  0  0  0  0  0
   26.6011  -11.4519  -17.1619 C   0  0  0  0  0  0  0  0  0  0  0  0
   26.0005  -10.6557  -17.9698 N   0  0  0  0  0  0  0  0  0  0  0  0
   26.0577  -12.7520  -16.9510 N   0  0  0  0  0  0  0  0  0  0  0  0
   26.6069  -13.6902  -16.0196 C   0  0  0  0  0  0  0  0  0  0  0  0
   25.7834  -14.9566  -16.0139 C   0  0  0  0  0  0  0  0  0  0  0  0
   26.3818  -15.9693  -15.0856 C   0  0  0  0  0  0  0  0  0  0  0  0
   25.6531  -17.2770  -15.0262 C   0  0  2  0  0  0  0  0  0  0  0  0
   26.5225  -18.1779  -14.2452 N   0  0  0  0  0  0  0  0  0  0  0  0
   25.6029  -17.8643  -16.3835 C   0  0  0  0  0  0  0  0  0  0  0  0
   24.5116  -17.8501  -17.0010 O   0  0  0  0  0  0  0  0  0  0  0  0
   26.6857  -18.4322  -17.0228 O   0  0  0  0  0  0  0  0  0  0  0  0
  2  1  1  1
  2  4  1  0
  2  3  1  0
  4  5  2  0
  7  6  1  6
  7  9  1  0
  8  4  1  0
  8  7  1  0
  9 19  1  0
 10  9  2  0
 12 11  1  0
 12 13  2  0
 14 12  1  0
 15 14  1  0
 16 15  1  0
 17 16  1  0
 18 17  1  6
 19 18  1  0
 20 18  1  0
 21 20  2  0
 22 20  1  0
M  END
$$$$
