AAR.pdb
     RDKit          3D

 22 21  0  0  1  0  0  0  0  0999 V2000
   12.1094  -10.1547   -9.2122 C   0  0  0  0  0  0  0  0  0  0  0  0
   13.5089  -10.1197   -9.8338 C   0  0  2  0  0  0  0  0  0  0  0  0
   14.4347  -10.9491   -9.1312 N   0  0  0  0  0  0  0  0  0  0  0  0
   13.9492   -8.6785   -9.8390 C   0  0  0  0  0  0  0  0  0  0  0  0
   13.2903   -7.8330  -10.4968 O   0  0  0  0  0  0  0  0  0  0  0  0
   15.7797   -6.3093   -7.8876 C   0  0  0  0  0  0  0  0  0  0  0  0
   15.5537   -6.8996   -9.2868 C   0  0  2  0  0  0  0  0  0  0  0  0
   15.0935   -8.2419   -9.1192 N   0  0  0  0  0  0  0  0  0  0  0  0
   16.8567   -6.8081   -9.9791 C   0  0  0  0  0  0  0  0  0  0  0  0
   17.8940   -7.3411   -9.5116 O   0  0  0  0  0  0  0  0  0  0  0  0
   22.3079   -8.7257  -13.4970 N   0  0  0  0  0  0  0  0  0  0  0  0
   21.9014   -8.7737  -14.8525 C   0  0  0  0  0  0  0  0  0  0  0  0
   22.7584   -9.0278  -15.7735 N   0  0  0  0  0  0  0  0  0  0  0  0
   20.5452   -8.5435  -15.2235 N   0  0  0  0  0  0  0  0  0  0  0  0
   19.4766   -8.4548  -14.2751 C   0  0  0  0  0  0  0  0  0  0  0  0
   18.9418   -7.0428  -14.2279 C   0  0  0  0  0  0  0  0  0  0  0  0
   17.8365   -6.9319  -13.2223 C   0  0  0  0  0  0  0  0  0  0  0  0
   18.1612   -6.1008  -12.0188 C   0  0  2  0  0  0  0  0  0  0  0  0
   16.9373   -6.1052  -11.1945 N   0  0  0  0  0  0  0  0  0  0  0  0
   18.3433   -4.6936  -12.4382 C   0  0  0  0  0  0  0  0  0  0  0  0
   17.3259   -3.9726  -12.5704 O   0  0  0  0  0  0  0  0  0  0  0  0
   19.5687   -4.1142  -12.6965 O   0  0  0  0  0  0  0  0  0  0  0  0
  2  1  1  1
  2  4  1  0
  2  3  1  0
  4  5  2  0
  7  6  1  1
  7  9  1  0
  8  4  1  0
  8  7  1  0
  9 19  1  0
 10  9  2  0
 12 11  1  0
 12 13  2  0
 14 12  1  0
 15 14  1  0
 16 15  1  0
 17 16  1  0
 18 17  1  6
 19 18  1  0
 20 18  1  0
 21 20  2  0
 22 20  1  0
M  END
$$$$
