DFF.pdb
     RDKit          3D

 31 32  0  0  1  0  0  0  0  0999 V2000
   24.3610  -25.1024  -16.0953 N   0  0  0  0  0  0  0  0  0  0  0  0
   23.9210  -24.5854  -14.8129 C   0  0  1  0  0  0  0  0  0  0  0  0
   23.5717  -25.6888  -13.8647 C   0  0  0  0  0  0  0  0  0  0  0  0
   22.3847  -26.4322  -14.3420 C   0  0  0  0  0  0  0  0  0  0  0  0
   21.3536  -25.7906  -14.6422 O   0  0  0  0  0  0  0  0  0  0  0  0
   25.0623  -23.8121  -14.2269 C   0  0  0  0  0  0  0  0  0  0  0  0
   26.2159  -24.3026  -14.2897 O   0  0  0  0  0  0  0  0  0  0  0  0
   22.3949  -27.8121  -14.4611 O   0  0  0  0  0  0  0  0  0  0  0  0
   24.8810  -22.5639  -13.6141 N   0  0  0  0  0  0  0  0  0  0  0  0
   26.0156  -21.7322  -13.1577 C   0  0  1  0  0  0  0  0  0  0  0  0
   25.9657  -20.4270  -13.8824 C   0  0  0  0  0  0  0  0  0  0  0  0
   26.9638  -19.4215  -13.5355 C   0  0  0  0  0  0  0  0  0  0  0  0
   28.2652  -19.4900  -14.0197 C   0  0  0  0  0  0  0  0  0  0  0  0
   29.2065  -18.5282  -13.7336 C   0  0  0  0  0  0  0  0  0  0  0  0
   28.8818  -17.4586  -12.9507 C   0  0  0  0  0  0  0  0  0  0  0  0
   27.6170  -17.3565  -12.4577 C   0  0  0  0  0  0  0  0  0  0  0  0
   26.6594  -18.3354  -12.7489 C   0  0  0  0  0  0  0  0  0  0  0  0
   25.8291  -21.6097  -11.6994 C   0  0  0  0  0  0  0  0  0  0  0  0
   24.6568  -21.4877  -11.1896 O   0  0  0  0  0  0  0  0  0  0  0  0
   26.9030  -21.6260  -10.7927 N   0  0  0  0  0  0  0  0  0  0  0  0
   26.6505  -21.2916   -9.3908 C   0  0  1  0  0  0  0  0  0  0  0  0
   28.0243  -20.9034   -8.8262 C   0  0  0  0  0  0  0  0  0  0  0  0
   27.9651  -20.4561   -7.4337 C   0  0  0  0  0  0  0  0  0  0  0  0
   28.3469  -21.3713   -6.4519 C   0  0  0  0  0  0  0  0  0  0  0  0
   28.3105  -20.9821   -5.1305 C   0  0  0  0  0  0  0  0  0  0  0  0
   27.9084  -19.7149   -4.7449 C   0  0  0  0  0  0  0  0  0  0  0  0
   27.5361  -18.8262   -5.7202 C   0  0  0  0  0  0  0  0  0  0  0  0
   27.5656  -19.1950   -7.0402 C   0  0  0  0  0  0  0  0  0  0  0  0
   25.6834  -20.2010   -9.2143 C   0  0  0  0  0  0  0  0  0  0  0  0
   24.7101  -20.2778   -8.2372 O   0  0  0  0  0  0  0  0  0  0  0  0
   25.7025  -19.1798   -9.9290 O   0  0  0  0  0  0  0  0  0  0  0  0
  2  1  1  6
  2  3  1  0
  3  4  1  0
  4  8  1  0
  5  4  2  0
  6  2  1  0
  6  7  2  0
  9  6  1  0
 10  9  1  0
 10 11  1  6
 12 11  1  0
 12 17  1  0
 13 12  2  0
 14 13  1  0
 14 15  2  0
 15 16  1  0
 16 17  2  0
 18 10  1  0
 19 18  2  0
 20 18  1  0
 21 20  1  0
 21 22  1  6
 22 23  1  0
 23 24  2  0
 24 25  1  0
 26 25  2  0
 27 26  1  0
 28 27  2  0
 28 23  1  0
 29 30  1  0
 29 21  1  0
 31 29  2  0
M  END
$$$$
