DFF.pdb
     RDKit          3D

 31 32  0  0  1  0  0  0  0  0999 V2000
   21.3510  -12.1870  -19.3566 N   0  0  0  0  0  0  0  0  0  0  0  0
   20.8240  -11.4910  -18.1976 C   0  0  1  0  0  0  0  0  0  0  0  0
   21.5121  -11.9171  -16.9392 C   0  0  0  0  0  0  0  0  0  0  0  0
   21.0132  -13.2362  -16.4914 C   0  0  0  0  0  0  0  0  0  0  0  0
   21.8327  -14.0698  -16.0461 O   0  0  0  0  0  0  0  0  0  0  0  0
   21.0830  -10.0292  -18.3977 C   0  0  0  0  0  0  0  0  0  0  0  0
   22.2025   -9.6720  -18.8388 O   0  0  0  0  0  0  0  0  0  0  0  0
   19.6683  -13.5610  -16.5561 O   0  0  0  0  0  0  0  0  0  0  0  0
   20.1177   -9.0541  -18.1085 N   0  0  0  0  0  0  0  0  0  0  0  0
   20.3843   -7.6066  -18.2535 C   0  0  1  0  0  0  0  0  0  0  0  0
   19.2874   -7.0040  -19.0689 C   0  0  0  0  0  0  0  0  0  0  0  0
   19.4367   -7.0174  -20.5198 C   0  0  0  0  0  0  0  0  0  0  0  0
   18.7377   -7.9182  -21.3154 C   0  0  0  0  0  0  0  0  0  0  0  0
   18.8378   -7.9169  -22.6875 C   0  0  0  0  0  0  0  0  0  0  0  0
   19.6424   -7.0128  -23.3182 C   0  0  0  0  0  0  0  0  0  0  0  0
   20.3431   -6.1146  -22.5730 C   0  0  0  0  0  0  0  0  0  0  0  0
   20.2412   -6.1162  -21.1768 C   0  0  0  0  0  0  0  0  0  0  0  0
   20.4467   -7.0956  -16.8710 C   0  0  0  0  0  0  0  0  0  0  0  0
   19.5447   -7.4026  -16.0101 O   0  0  0  0  0  0  0  0  0  0  0  0
   21.4826   -6.2617  -16.4159 N   0  0  0  0  0  0  0  0  0  0  0  0
   21.4061   -5.7132  -15.0616 C   0  0  1  0  0  0  0  0  0  0  0  0
   22.8026   -5.9416  -14.4661 C   0  0  0  0  0  0  0  0  0  0  0  0
   23.1997   -7.3505  -14.4622 C   0  0  0  0  0  0  0  0  0  0  0  0
   22.6108   -8.1776  -13.5048 C   0  0  0  0  0  0  0  0  0  0  0  0
   22.9557   -9.5115  -13.4766 C   0  0  0  0  0  0  0  0  0  0  0  0
   23.8657  -10.0577  -14.3652 C   0  0  0  0  0  0  0  0  0  0  0  0
   24.4363   -9.2333  -15.3003 C   0  0  0  0  0  0  0  0  0  0  0  0
   24.1058   -7.9036  -15.3441 C   0  0  0  0  0  0  0  0  0  0  0  0
   21.0468   -4.2901  -15.0259 C   0  0  0  0  0  0  0  0  0  0  0  0
   20.7838   -3.6628  -13.8237 O   0  0  0  0  0  0  0  0  0  0  0  0
   20.9656   -3.6036  -16.0634 O   0  0  0  0  0  0  0  0  0  0  0  0
  2  1  1  6
  2  3  1  0
  3  4  1  0
  4  8  1  0
  5  4  2  0
  6  2  1  0
  6  7  2  0
  9  6  1  0
 10  9  1  0
 10 11  1  6
 12 11  1  0
 12 17  1  0
 13 12  2  0
 14 13  1  0
 14 15  2  0
 15 16  1  0
 16 17  2  0
 18 10  1  0
 19 18  2  0
 20 18  1  0
 21 20  1  0
 21 22  1  6
 22 23  1  0
 23 24  2  0
 24 25  1  0
 26 25  2  0
 27 26  1  0
 28 27  2  0
 28 23  1  0
 29 30  1  0
 29 21  1  0
 31 29  2  0
M  END
$$$$
