DFF.pdb
     RDKit          3D

 31 32  0  0  1  0  0  0  0  0999 V2000
   28.0701  -22.4045  -20.3665 N   0  0  0  0  0  0  0  0  0  0  0  0
   28.3841  -22.6707  -18.9750 C   0  0  1  0  0  0  0  0  0  0  0  0
   29.5050  -21.8073  -18.4885 C   0  0  0  0  0  0  0  0  0  0  0  0
   30.7909  -22.2364  -19.0816 C   0  0  0  0  0  0  0  0  0  0  0  0
   31.0509  -23.4589  -19.1344 O   0  0  0  0  0  0  0  0  0  0  0  0
   27.1630  -22.3452  -18.1707 C   0  0  0  0  0  0  0  0  0  0  0  0
   26.6710  -21.1943  -18.2639 O   0  0  0  0  0  0  0  0  0  0  0  0
   31.7026  -21.3175  -19.5746 O   0  0  0  0  0  0  0  0  0  0  0  0
   26.5572  -23.2827  -17.3219 N   0  0  0  0  0  0  0  0  0  0  0  0
   25.3462  -22.9712  -16.5320 C   0  0  1  0  0  0  0  0  0  0  0  0
   24.4453  -24.1623  -16.5597 C   0  0  0  0  0  0  0  0  0  0  0  0
   23.2260  -24.1076  -15.7608 C   0  0  0  0  0  0  0  0  0  0  0  0
   23.0797  -24.8633  -14.6031 C   0  0  0  0  0  0  0  0  0  0  0  0
   21.9522  -24.7925  -13.8179 C   0  0  0  0  0  0  0  0  0  0  0  0
   20.9254  -23.9615  -14.1610 C   0  0  0  0  0  0  0  0  0  0  0  0
   21.0317  -23.2055  -15.2881 C   0  0  0  0  0  0  0  0  0  0  0  0
   22.1792  -23.2778  -16.0870 C   0  0  0  0  0  0  0  0  0  0  0  0
   25.8506  -22.6387  -15.1861 C   0  0  0  0  0  0  0  0  0  0  0  0
   26.6018  -23.4555  -14.5400 O   0  0  0  0  0  0  0  0  0  0  0  0
   25.5518  -21.4258  -14.5416 N   0  0  0  0  0  0  0  0  0  0  0  0
   25.6413  -21.3591  -13.0828 C   0  0  1  0  0  0  0  0  0  0  0  0
   26.9080  -20.5377  -12.8043 C   0  0  0  0  0  0  0  0  0  0  0  0
   27.0571  -19.3930  -13.7042 C   0  0  0  0  0  0  0  0  0  0  0  0
   27.9216  -19.5418  -14.7895 C   0  0  0  0  0  0  0  0  0  0  0  0
   28.0809  -18.4869  -15.6617 C   0  0  0  0  0  0  0  0  0  0  0  0
   27.4126  -17.2858  -15.4976 C   0  0  0  0  0  0  0  0  0  0  0  0
   26.5665  -17.1538  -14.4269 C   0  0  0  0  0  0  0  0  0  0  0  0
   26.3949  -18.1921  -13.5483 C   0  0  0  0  0  0  0  0  0  0  0  0
   24.4672  -20.7431  -12.4520 C   0  0  0  0  0  0  0  0  0  0  0  0
   23.4867  -20.1500  -13.2232 O   0  0  0  0  0  0  0  0  0  0  0  0
   24.3127  -20.7310  -11.2150 O   0  0  0  0  0  0  0  0  0  0  0  0
  2  1  1  6
  2  3  1  0
  3  4  1  0
  4  8  1  0
  5  4  2  0
  6  2  1  0
  6  7  2  0
  9  6  1  0
 10  9  1  0
 10 11  1  1
 12 11  1  0
 12 17  1  0
 13 12  2  0
 14 13  1  0
 14 15  2  0
 15 16  1  0
 16 17  2  0
 18 10  1  0
 19 18  2  0
 20 18  1  0
 21 20  1  0
 21 22  1  6
 22 23  1  0
 23 24  2  0
 24 25  1  0
 26 25  2  0
 27 26  1  0
 28 27  2  0
 28 23  1  0
 29 30  1  0
 29 21  1  0
 31 29  2  0
M  END
$$$$
