DFF.pdb
     RDKit          3D

 31 32  0  0  1  0  0  0  0  0999 V2000
   28.4270  -22.4309  -17.9977 N   0  0  0  0  0  0  0  0  0  0  0  0
   27.8038  -21.2271  -17.4799 C   0  0  1  0  0  0  0  0  0  0  0  0
   26.7701  -20.6936  -18.4209 C   0  0  0  0  0  0  0  0  0  0  0  0
   27.4086  -20.0889  -19.6109 C   0  0  0  0  0  0  0  0  0  0  0  0
   28.1335  -19.0810  -19.4578 O   0  0  0  0  0  0  0  0  0  0  0  0
   27.1214  -21.5928  -16.1976 C   0  0  0  0  0  0  0  0  0  0  0  0
   26.4574  -22.6569  -16.1522 O   0  0  0  0  0  0  0  0  0  0  0  0
   27.2197  -20.6140  -20.8787 O   0  0  0  0  0  0  0  0  0  0  0  0
   27.2021  -20.7863  -15.0533 N   0  0  0  0  0  0  0  0  0  0  0  0
   26.4971  -21.1197  -13.7966 C   0  0  1  0  0  0  0  0  0  0  0  0
   27.2120  -20.4576  -12.6644 C   0  0  0  0  0  0  0  0  0  0  0  0
   26.6054  -20.5395  -11.3404 C   0  0  0  0  0  0  0  0  0  0  0  0
   26.0075  -19.4352  -10.7440 C   0  0  0  0  0  0  0  0  0  0  0  0
   25.3964  -19.5065   -9.5133 C   0  0  0  0  0  0  0  0  0  0  0  0
   25.3598  -20.6875   -8.8304 C   0  0  0  0  0  0  0  0  0  0  0  0
   25.9348  -21.7913   -9.3820 C   0  0  0  0  0  0  0  0  0  0  0  0
   26.5565  -21.7184  -10.6342 C   0  0  0  0  0  0  0  0  0  0  0  0
   25.1198  -20.6306  -13.9971 C   0  0  0  0  0  0  0  0  0  0  0  0
   24.8952  -19.4387  -14.4189 O   0  0  0  0  0  0  0  0  0  0  0  0
   23.9881  -21.4268  -13.7504 N   0  0  0  0  0  0  0  0  0  0  0  0
   22.6835  -20.7787  -13.6127 C   0  0  1  0  0  0  0  0  0  0  0  0
   21.8384  -21.3497  -14.7602 C   0  0  0  0  0  0  0  0  0  0  0  0
   22.1664  -20.7617  -16.0599 C   0  0  0  0  0  0  0  0  0  0  0  0
   21.4115  -19.6630  -16.4729 C   0  0  0  0  0  0  0  0  0  0  0  0
   21.6974  -19.0794  -17.6881 C   0  0  0  0  0  0  0  0  0  0  0  0
   22.7073  -19.5460  -18.5119 C   0  0  0  0  0  0  0  0  0  0  0  0
   23.4407  -20.6261  -18.0933 C   0  0  0  0  0  0  0  0  0  0  0  0
   23.1712  -21.2201  -16.8875 C   0  0  0  0  0  0  0  0  0  0  0  0
   22.0416  -21.0251  -12.3154 C   0  0  0  0  0  0  0  0  0  0  0  0
   20.8737  -20.3709  -11.9751 O   0  0  0  0  0  0  0  0  0  0  0  0
   22.5191  -21.8213  -11.4834 O   0  0  0  0  0  0  0  0  0  0  0  0
  2  1  1  6
  2  3  1  0
  3  4  1  0
  4  8  1  0
  5  4  2  0
  6  2  1  0
  6  7  2  0
  9  6  1  0
 10  9  1  0
 10 11  1  1
 12 11  1  0
 12 17  1  0
 13 12  2  0
 14 13  1  0
 14 15  2  0
 15 16  1  0
 16 17  2  0
 18 10  1  0
 19 18  2  0
 20 18  1  0
 21 20  1  0
 21 22  1  6
 22 23  1  0
 23 24  2  0
 24 25  1  0
 26 25  2  0
 27 26  1  0
 28 27  2  0
 28 23  1  0
 29 30  1  0
 29 21  1  0
 31 29  2  0
M  END
$$$$
