DFF.pdb
     RDKit          3D

 31 32  0  0  1  0  0  0  0  0999 V2000
   19.7051  -23.6174  -18.4740 N   0  0  0  0  0  0  0  0  0  0  0  0
   19.0620  -22.4871  -17.8303 C   0  0  1  0  0  0  0  0  0  0  0  0
   17.5751  -22.5350  -17.9903 C   0  0  0  0  0  0  0  0  0  0  0  0
   17.1952  -22.3406  -19.4071 C   0  0  0  0  0  0  0  0  0  0  0  0
   17.5295  -21.2798  -19.9795 O   0  0  0  0  0  0  0  0  0  0  0  0
   19.3755  -22.5674  -16.3677 C   0  0  0  0  0  0  0  0  0  0  0  0
   19.5796  -23.6959  -15.8577 O   0  0  0  0  0  0  0  0  0  0  0  0
   16.4831  -23.3030  -20.1037 O   0  0  0  0  0  0  0  0  0  0  0  0
   19.4473  -21.4258  -15.5565 N   0  0  0  0  0  0  0  0  0  0  0  0
   19.8222  -21.4908  -14.1273 C   0  0  1  0  0  0  0  0  0  0  0  0
   20.5554  -20.2382  -13.7741 C   0  0  0  0  0  0  0  0  0  0  0  0
   20.9207  -20.0389  -12.3761 C   0  0  0  0  0  0  0  0  0  0  0  0
   20.1740  -19.2184  -11.5383 C   0  0  0  0  0  0  0  0  0  0  0  0
   20.4828  -19.0519  -10.2080 C   0  0  0  0  0  0  0  0  0  0  0  0
   21.5526  -19.7009   -9.6632 C   0  0  0  0  0  0  0  0  0  0  0  0
   22.3082  -20.5133  -10.4520 C   0  0  0  0  0  0  0  0  0  0  0  0
   21.9937  -20.6825  -11.8057 C   0  0  0  0  0  0  0  0  0  0  0  0
   18.5432  -21.6531  -13.4102 C   0  0  0  0  0  0  0  0  0  0  0  0
   17.5428  -20.8874  -13.6589 O   0  0  0  0  0  0  0  0  0  0  0  0
   18.3411  -22.6428  -12.4328 N   0  0  0  0  0  0  0  0  0  0  0  0
   17.1114  -22.6140  -11.6404 C   0  0  1  0  0  0  0  0  0  0  0  0
   16.3209  -23.8483  -12.0973 C   0  0  0  0  0  0  0  0  0  0  0  0
   15.6484  -23.6535  -13.3827 C   0  0  0  0  0  0  0  0  0  0  0  0
   16.3239  -24.0772  -14.5280 C   0  0  0  0  0  0  0  0  0  0  0  0
   15.7176  -23.9161  -15.7549 C   0  0  0  0  0  0  0  0  0  0  0  0
   14.4622  -23.3486  -15.8892 C   0  0  0  0  0  0  0  0  0  0  0  0
   13.8102  -22.9370  -14.7555 C   0  0  0  0  0  0  0  0  0  0  0  0
   14.3972  -23.0889  -13.5260 C   0  0  0  0  0  0  0  0  0  0  0  0
   17.3476  -22.6489  -10.1917 C   0  0  0  0  0  0  0  0  0  0  0  0
   16.2910  -22.5616   -9.3063 O   0  0  0  0  0  0  0  0  0  0  0  0
   18.4934  -22.7561   -9.7122 O   0  0  0  0  0  0  0  0  0  0  0  0
  2  1  1  6
  2  3  1  0
  3  4  1  0
  4  8  1  0
  5  4  2  0
  6  2  1  0
  6  7  2  0
  9  6  1  0
 10  9  1  0
 10 11  1  1
 12 11  1  0
 12 17  1  0
 13 12  2  0
 14 13  1  0
 14 15  2  0
 15 16  1  0
 16 17  2  0
 18 10  1  0
 19 18  2  0
 20 18  1  0
 21 20  1  0
 21 22  1  6
 22 23  1  0
 23 24  2  0
 24 25  1  0
 26 25  2  0
 27 26  1  0
 28 27  2  0
 28 23  1  0
 29 30  1  0
 29 21  1  0
 31 29  2  0
M  END
$$$$
