DFF.pdb
     RDKit          3D

 31 32  0  0  1  0  0  0  0  0999 V2000
   22.0684  -17.1721  -17.7168 N   0  0  0  0  0  0  0  0  0  0  0  0
   21.7430  -15.8623  -18.2498 C   0  0  1  0  0  0  0  0  0  0  0  0
   20.2640  -15.6451  -18.3126 C   0  0  0  0  0  0  0  0  0  0  0  0
   19.6590  -16.4720  -19.3802 C   0  0  0  0  0  0  0  0  0  0  0  0
   20.1776  -16.4584  -20.5185 O   0  0  0  0  0  0  0  0  0  0  0  0
   22.3239  -14.8432  -17.3182 C   0  0  0  0  0  0  0  0  0  0  0  0
   21.9518  -14.8434  -16.1195 O   0  0  0  0  0  0  0  0  0  0  0  0
   18.5398  -17.2530  -19.1437 O   0  0  0  0  0  0  0  0  0  0  0  0
   23.2655  -13.8949  -17.7431 N   0  0  0  0  0  0  0  0  0  0  0  0
   23.8268  -12.8721  -16.8341 C   0  0  1  0  0  0  0  0  0  0  0  0
   25.2639  -12.6662  -17.1852 C   0  0  0  0  0  0  0  0  0  0  0  0
   25.9527  -11.5315  -16.5805 C   0  0  0  0  0  0  0  0  0  0  0  0
   26.4454  -11.5868  -15.2817 C   0  0  0  0  0  0  0  0  0  0  0  0
   27.1318  -10.5394  -14.7117 C   0  0  0  0  0  0  0  0  0  0  0  0
   27.3522   -9.3940  -15.4202 C   0  0  0  0  0  0  0  0  0  0  0  0
   26.8848   -9.3021  -16.6955 C   0  0  0  0  0  0  0  0  0  0  0  0
   26.1864  -10.3680  -17.2752 C   0  0  0  0  0  0  0  0  0  0  0  0
   22.9862  -11.6786  -17.0465 C   0  0  0  0  0  0  0  0  0  0  0  0
   22.6494  -11.3077  -18.2288 O   0  0  0  0  0  0  0  0  0  0  0  0
   22.5040  -10.8913  -15.9866 N   0  0  0  0  0  0  0  0  0  0  0  0
   21.8413   -9.6231  -16.2919 C   0  0  1  0  0  0  0  0  0  0  0  0
   20.3447   -9.9057  -16.0988 C   0  0  0  0  0  0  0  0  0  0  0  0
   19.5053   -8.7297  -16.3337 C   0  0  0  0  0  0  0  0  0  0  0  0
   19.1554   -8.4480  -17.6549 C   0  0  0  0  0  0  0  0  0  0  0  0
   18.3601   -7.3526  -17.9125 C   0  0  0  0  0  0  0  0  0  0  0  0
   17.8971   -6.5232  -16.9057 C   0  0  0  0  0  0  0  0  0  0  0  0
   18.2487   -6.8121  -15.6124 C   0  0  0  0  0  0  0  0  0  0  0  0
   19.0392   -7.8975  -15.3362 C   0  0  0  0  0  0  0  0  0  0  0  0
   22.2801   -8.5128  -15.4373 C   0  0  0  0  0  0  0  0  0  0  0  0
   22.7432   -8.7526  -14.1582 O   0  0  0  0  0  0  0  0  0  0  0  0
   22.2514   -7.3288  -15.8267 O   0  0  0  0  0  0  0  0  0  0  0  0
  2  1  1  1
  2  3  1  0
  3  4  1  0
  4  8  1  0
  5  4  2  0
  6  2  1  0
  6  7  2  0
  9  6  1  0
 10  9  1  0
 10 11  1  6
 12 11  1  0
 12 17  1  0
 13 12  2  0
 14 13  1  0
 14 15  2  0
 15 16  1  0
 16 17  2  0
 18 10  1  0
 19 18  2  0
 20 18  1  0
 21 20  1  0
 21 22  1  1
 22 23  1  0
 23 24  2  0
 24 25  1  0
 26 25  2  0
 27 26  1  0
 28 27  2  0
 28 23  1  0
 29 30  1  0
 29 21  1  0
 31 29  2  0
M  END
$$$$
