DFF.pdb
     RDKit          3D

 31 32  0  0  1  0  0  0  0  0999 V2000
   16.7321  -21.1499    2.7980 N   0  0  0  0  0  0  0  0  0  0  0  0
   15.9556  -20.1756    3.5419 C   0  0  1  0  0  0  0  0  0  0  0  0
   15.3347  -20.7810    4.7611 C   0  0  0  0  0  0  0  0  0  0  0  0
   14.3159  -21.7860    4.3847 C   0  0  0  0  0  0  0  0  0  0  0  0
   13.2420  -21.3931    3.8775 O   0  0  0  0  0  0  0  0  0  0  0  0
   16.8968  -19.0979    3.9853 C   0  0  0  0  0  0  0  0  0  0  0  0
   18.0365  -19.4265    4.3958 O   0  0  0  0  0  0  0  0  0  0  0  0
   14.5282  -23.1404    4.5822 O   0  0  0  0  0  0  0  0  0  0  0  0
   16.5444  -17.7410    3.9554 N   0  0  0  0  0  0  0  0  0  0  0  0
   17.4865  -16.6681    4.3413 C   0  0  1  0  0  0  0  0  0  0  0  0
   17.1231  -15.4285    3.5913 C   0  0  0  0  0  0  0  0  0  0  0  0
   17.8204  -14.1962    3.9419 C   0  0  0  0  0  0  0  0  0  0  0  0
   17.2929  -13.2979    4.8625 C   0  0  0  0  0  0  0  0  0  0  0  0
   17.9572  -12.1515    5.2330 C   0  0  0  0  0  0  0  0  0  0  0  0
   19.1772  -11.8587    4.6959 C   0  0  0  0  0  0  0  0  0  0  0  0
   19.7265  -12.7143    3.7907 C   0  0  0  0  0  0  0  0  0  0  0  0
   19.0502  -13.8807    3.4139 C   0  0  0  0  0  0  0  0  0  0  0  0
   17.3360  -16.5437    5.8035 C   0  0  0  0  0  0  0  0  0  0  0  0
   16.2007  -16.7382    6.3713 O   0  0  0  0  0  0  0  0  0  0  0  0
   18.4080  -16.2176    6.6521 N   0  0  0  0  0  0  0  0  0  0  0  0
   18.1474  -16.0234    8.0786 C   0  0  1  0  0  0  0  0  0  0  0  0
   18.9640  -17.1183    8.7795 C   0  0  0  0  0  0  0  0  0  0  0  0
   20.4091  -16.9320    8.6405 C   0  0  0  0  0  0  0  0  0  0  0  0
   21.0657  -17.7146    7.6898 C   0  0  0  0  0  0  0  0  0  0  0  0
   22.4254  -17.5605    7.5267 C   0  0  0  0  0  0  0  0  0  0  0  0
   23.1608  -16.6564    8.2734 C   0  0  0  0  0  0  0  0  0  0  0  0
   22.5025  -15.8941    9.2037 C   0  0  0  0  0  0  0  0  0  0  0  0
   21.1502  -16.0331    9.3805 C   0  0  0  0  0  0  0  0  0  0  0  0
   18.5273  -14.6918    8.5670 C   0  0  0  0  0  0  0  0  0  0  0  0
   19.1557  -13.7905    7.7299 O   0  0  0  0  0  0  0  0  0  0  0  0
   18.3015  -14.3292    9.7382 O   0  0  0  0  0  0  0  0  0  0  0  0
  2  1  1  1
  2  3  1  0
  3  4  1  0
  4  8  1  0
  5  4  2  0
  6  2  1  0
  6  7  2  0
  9  6  1  0
 10  9  1  0
 10 11  1  6
 12 11  1  0
 12 17  1  0
 13 12  2  0
 14 13  1  0
 14 15  2  0
 15 16  1  0
 16 17  2  0
 18 10  1  0
 19 18  2  0
 20 18  1  0
 21 20  1  0
 21 22  1  1
 22 23  1  0
 23 24  2  0
 24 25  1  0
 26 25  2  0
 27 26  1  0
 28 27  2  0
 28 23  1  0
 29 30  1  0
 29 21  1  0
 31 29  2  0
M  END
$$$$
