LVQ.pdb
     RDKit          3D

 25 24  0  0  1  0  0  0  0  0999 V2000
    8.7495  -21.1104   17.4759 C   0  0  0  0  0  0  0  0  0  0  0  0
    8.2393  -20.1943   18.5608 C   0  0  2  0  0  0  0  0  0  0  0  0
    6.8419  -19.7035   18.2527 C   0  0  0  0  0  0  0  0  0  0  0  0
    9.1967  -19.0527   18.8049 C   0  0  0  0  0  0  0  0  0  0  0  0
    8.9103  -17.9569   17.8290 C   0  0  2  0  0  0  0  0  0  0  0  0
    9.5639  -18.2214   16.5778 N   0  0  0  0  0  0  0  0  0  0  0  0
    9.3671  -16.6360   18.3765 C   0  0  0  0  0  0  0  0  0  0  0  0
   10.5321  -16.2153   18.2170 O   0  0  0  0  0  0  0  0  0  0  0  0
    6.8466  -13.2589   18.8742 C   0  0  0  0  0  0  0  0  0  0  0  0
    7.7147  -13.6602   20.0498 C   0  0  2  0  0  0  0  0  0  0  0  0
    8.1598  -12.3561   20.6769 C   0  0  0  0  0  0  0  0  0  0  0  0
    8.8595  -14.5132   19.5889 C   0  0  2  0  0  0  0  0  0  0  0  0
    8.5022  -15.7986   19.1017 N   0  0  0  0  0  0  0  0  0  0  0  0
    9.9201  -14.6012   20.6583 C   0  0  0  0  0  0  0  0  0  0  0  0
   10.4872  -13.5699   21.0939 O   0  0  0  0  0  0  0  0  0  0  0  0
    7.2612  -14.7089   25.3615 N   0  0  0  0  0  0  0  0  0  0  0  0
    8.5885  -15.0337   25.7916 C   0  0  0  0  0  0  0  0  0  0  0  0
    8.8118  -14.8381   27.0067 O   0  0  0  0  0  0  0  0  0  0  0  0
    9.6064  -15.5471   24.9024 C   0  0  0  0  0  0  0  0  0  0  0  0
    9.4575  -15.4512   23.4461 C   0  0  0  0  0  0  0  0  0  0  0  0
   10.5512  -16.0161   22.6069 C   0  0  2  0  0  0  0  0  0  0  0  0
   10.3010  -15.8552   21.1968 N   0  0  0  0  0  0  0  0  0  0  0  0
   11.0002  -17.3785   22.9075 C   0  0  0  0  0  0  0  0  0  0  0  0
   10.5440  -18.3506   22.2605 O   0  0  0  0  0  0  0  0  0  0  0  0
   11.9423  -17.6698   23.9010 O   0  0  0  0  0  0  0  0  0  0  0  0
  2  1  1  6
  2  3  1  0
  4  2  1  0
  5  4  1  0
  5  6  1  6
  7 13  1  0
  7  5  1  0
  8  7  2  0
 10  9  1  6
 10 12  1  0
 11 10  1  0
 12 14  1  0
 12 13  1  1
 14 15  2  0
 17 16  1  0
 17 19  1  0
 18 17  2  0
 20 19  1  0
 21 20  1  1
 22 21  1  0
 22 14  1  0
 23 21  1  0
 23 25  1  0
 24 23  2  0
M  END
$$$$
