LVQ.pdb
     RDKit          3D

 25 24  0  0  1  0  0  0  0  0999 V2000
    5.1021  -12.5050   26.3002 C   0  0  0  0  0  0  0  0  0  0  0  0
    6.5309  -12.8324   26.6576 C   0  0  2  0  0  0  0  0  0  0  0  0
    7.4904  -12.3257   25.6033 C   0  0  0  0  0  0  0  0  0  0  0  0
    6.7037  -14.3103   26.9134 C   0  0  0  0  0  0  0  0  0  0  0  0
    6.1040  -15.0766   25.7785 C   0  0  2  0  0  0  0  0  0  0  0  0
    5.3410  -16.1871   26.2758 N   0  0  0  0  0  0  0  0  0  0  0  0
    7.1789  -15.5672   24.8525 C   0  0  0  0  0  0  0  0  0  0  0  0
    7.9223  -16.5275   25.1438 O   0  0  0  0  0  0  0  0  0  0  0  0
    6.9025  -15.1620   20.7121 C   0  0  0  0  0  0  0  0  0  0  0  0
    8.2652  -14.8400   21.2916 C   0  0  2  0  0  0  0  0  0  0  0  0
    9.2604  -15.4317   20.3161 C   0  0  0  0  0  0  0  0  0  0  0  0
    8.3920  -15.4025   22.6766 C   0  0  2  0  0  0  0  0  0  0  0  0
    7.4061  -14.9677   23.6019 N   0  0  0  0  0  0  0  0  0  0  0  0
    9.7865  -15.1876   23.2112 C   0  0  0  0  0  0  0  0  0  0  0  0
   10.1887  -14.0419   23.5282 O   0  0  0  0  0  0  0  0  0  0  0  0
   11.2541  -14.4076   28.1298 N   0  0  0  0  0  0  0  0  0  0  0  0
   11.0640  -15.7905   27.8078 C   0  0  0  0  0  0  0  0  0  0  0  0
   10.6805  -16.5057   28.7596 O   0  0  0  0  0  0  0  0  0  0  0  0
   11.2955  -16.3362   26.4890 C   0  0  0  0  0  0  0  0  0  0  0  0
   11.7757  -15.4879   25.3926 C   0  0  0  0  0  0  0  0  0  0  0  0
   11.9340  -16.1228   24.0541 C   0  0  2  0  0  0  0  0  0  0  0  0
   10.6765  -16.2788   23.3677 N   0  0  0  0  0  0  0  0  0  0  0  0
   12.7291  -17.3517   23.9776 C   0  0  0  0  0  0  0  0  0  0  0  0
   12.2035  -18.4201   23.5853 O   0  0  0  0  0  0  0  0  0  0  0  0
   14.0849  -17.4060   24.3212 O   0  0  0  0  0  0  0  0  0  0  0  0
  2  1  1  6
  2  3  1  0
  4  2  1  0
  5  4  1  0
  5  6  1  1
  7 13  1  0
  7  5  1  0
  8  7  2  0
 10  9  1  6
 10 12  1  0
 11 10  1  0
 12 14  1  0
 12 13  1  1
 14 15  2  0
 17 16  1  0
 17 19  1  0
 18 17  2  0
 20 19  1  0
 21 20  1  1
 22 21  1  0
 22 14  1  0
 23 21  1  0
 23 25  1  0
 24 23  2  0
M  END
$$$$
