LVQ.pdb
     RDKit          3D

 25 24  0  0  1  0  0  0  0  0999 V2000
   16.5673  -14.6553   15.9967 C   0  0  0  0  0  0  0  0  0  0  0  0
   16.4544  -13.6751   17.1382 C   0  0  2  0  0  0  0  0  0  0  0  0
   17.7999  -13.4271   17.7839 C   0  0  0  0  0  0  0  0  0  0  0  0
   15.4215  -14.1255   18.1430 C   0  0  0  0  0  0  0  0  0  0  0  0
   14.1167  -14.3335   17.4435 C   0  0  2  0  0  0  0  0  0  0  0  0
   13.4721  -13.0721   17.2069 N   0  0  0  0  0  0  0  0  0  0  0  0
   13.2218  -15.2213   18.2584 C   0  0  0  0  0  0  0  0  0  0  0  0
   12.5601  -14.7923   19.2269 O   0  0  0  0  0  0  0  0  0  0  0  0
   10.6411  -19.3934   18.6464 C   0  0  0  0  0  0  0  0  0  0  0  0
   11.5375  -18.5087   17.8034 C   0  0  2  0  0  0  0  0  0  0  0  0
   12.5304  -19.4516   17.1575 C   0  0  0  0  0  0  0  0  0  0  0  0
   12.1893  -17.4597   18.6551 C   0  0  2  0  0  0  0  0  0  0  0  0
   13.0809  -16.5901   17.9724 N   0  0  0  0  0  0  0  0  0  0  0  0
   12.8424  -18.0865   19.8622 C   0  0  0  0  0  0  0  0  0  0  0  0
   13.9963  -18.5750   19.7932 O   0  0  0  0  0  0  0  0  0  0  0  0
    9.3742  -16.0155   23.5846 N   0  0  0  0  0  0  0  0  0  0  0  0
   10.5440  -16.3934   24.3202 C   0  0  0  0  0  0  0  0  0  0  0  0
   10.4243  -16.3413   25.5642 O   0  0  0  0  0  0  0  0  0  0  0  0
   11.7785  -16.8041   23.6896 C   0  0  0  0  0  0  0  0  0  0  0  0
   12.1157  -18.2240   23.5394 C   0  0  0  0  0  0  0  0  0  0  0  0
   12.8180  -18.6330   22.2907 C   0  0  2  0  0  0  0  0  0  0  0  0
   12.1648  -18.1378   21.1054 N   0  0  0  0  0  0  0  0  0  0  0  0
   13.1683  -20.0486   22.1437 C   0  0  0  0  0  0  0  0  0  0  0  0
   12.4584  -20.8046   21.4394 O   0  0  0  0  0  0  0  0  0  0  0  0
   14.2867  -20.6255   22.7566 O   0  0  0  0  0  0  0  0  0  0  0  0
  2  1  1  6
  2  3  1  0
  4  2  1  0
  5  4  1  0
  5  6  1  1
  7 13  1  0
  7  5  1  0
  8  7  2  0
 10  9  1  1
 10 12  1  0
 11 10  1  0
 12 14  1  0
 12 13  1  6
 14 15  2  0
 17 16  1  0
 17 19  1  0
 18 17  2  0
 20 19  1  0
 21 20  1  1
 22 21  1  0
 22 14  1  0
 23 21  1  0
 23 25  1  0
 24 23  2  0
M  END
$$$$
