LVQ.pdb
     RDKit          3D

 25 24  0  0  1  0  0  0  0  0999 V2000
    6.0164  -17.1776   20.2743 C   0  0  0  0  0  0  0  0  0  0  0  0
    7.2399  -17.8808   20.8083 C   0  0  2  0  0  0  0  0  0  0  0  0
    6.9971  -19.3665   20.9592 C   0  0  0  0  0  0  0  0  0  0  0  0
    7.7100  -17.2527   22.0982 C   0  0  0  0  0  0  0  0  0  0  0  0
    7.8397  -15.7760   21.9043 C   0  0  2  0  0  0  0  0  0  0  0  0
    8.7602  -15.4928   20.8389 N   0  0  0  0  0  0  0  0  0  0  0  0
    8.3059  -15.1208   23.1719 C   0  0  0  0  0  0  0  0  0  0  0  0
    9.5113  -15.0775   23.4955 O   0  0  0  0  0  0  0  0  0  0  0  0
    6.4544  -11.8999   25.0420 C   0  0  0  0  0  0  0  0  0  0  0  0
    6.7594  -13.0689   25.9569 C   0  0  2  0  0  0  0  0  0  0  0  0
    7.2419  -12.4451   27.2492 C   0  0  0  0  0  0  0  0  0  0  0  0
    7.7734  -13.9770   25.3265 C   0  0  2  0  0  0  0  0  0  0  0  0
    7.4046  -14.5181   24.0661 N   0  0  0  0  0  0  0  0  0  0  0  0
    8.1911  -15.0581   26.2925 C   0  0  0  0  0  0  0  0  0  0  0  0
    7.3825  -15.9440   26.6617 O   0  0  0  0  0  0  0  0  0  0  0  0
   12.8788  -18.9112   25.6315 N   0  0  0  0  0  0  0  0  0  0  0  0
   13.1945  -18.1099   26.7763 C   0  0  0  0  0  0  0  0  0  0  0  0
   14.3781  -18.1978   27.1712 O   0  0  0  0  0  0  0  0  0  0  0  0
   12.2307  -17.2603   27.4392 C   0  0  0  0  0  0  0  0  0  0  0  0
   10.8647  -17.1193   26.9229 C   0  0  0  0  0  0  0  0  0  0  0  0
    9.9536  -16.1852   27.6418 C   0  0  2  0  0  0  0  0  0  0  0  0
    9.5108  -15.0974   26.8065 N   0  0  0  0  0  0  0  0  0  0  0  0
   10.3841  -15.6962   28.9548 C   0  0  0  0  0  0  0  0  0  0  0  0
   10.6212  -14.4774   29.1277 O   0  0  0  0  0  0  0  0  0  0  0  0
   10.5462  -16.5330   30.0651 O   0  0  0  0  0  0  0  0  0  0  0  0
  2  1  1  1
  2  3  1  0
  4  2  1  0
  5  4  1  0
  5  6  1  6
  7 13  1  0
  7  5  1  0
  8  7  2  0
 10  9  1  6
 10 12  1  0
 11 10  1  0
 12 14  1  0
 12 13  1  6
 14 15  2  0
 17 16  1  0
 17 19  1  0
 18 17  2  0
 20 19  1  0
 21 20  1  6
 22 21  1  0
 22 14  1  0
 23 21  1  0
 23 25  1  0
 24 23  2  0
M  END
$$$$
