LVQ.pdb
     RDKit          3D

 25 24  0  0  1  0  0  0  0  0999 V2000
    6.7943  -13.1347   19.2559 C   0  0  0  0  0  0  0  0  0  0  0  0
    7.3655  -14.4997   19.5510 C   0  0  2  0  0  0  0  0  0  0  0  0
    6.5319  -15.5921   18.9182 C   0  0  0  0  0  0  0  0  0  0  0  0
    7.5359  -14.7096   21.0364 C   0  0  0  0  0  0  0  0  0  0  0  0
    8.2694  -13.5422   21.6145 C   0  0  2  0  0  0  0  0  0  0  0  0
    9.5319  -13.3700   20.9519 N   0  0  0  0  0  0  0  0  0  0  0  0
    8.4860  -13.7373   23.0870 C   0  0  0  0  0  0  0  0  0  0  0  0
    9.5260  -14.2554   23.5449 O   0  0  0  0  0  0  0  0  0  0  0  0
    6.3950  -11.5106   26.0157 C   0  0  0  0  0  0  0  0  0  0  0  0
    6.5357  -12.9983   26.2681 C   0  0  2  0  0  0  0  0  0  0  0  0
    6.7898  -13.1254   27.7552 C   0  0  0  0  0  0  0  0  0  0  0  0
    7.6413  -13.5698   25.4306 C   0  0  2  0  0  0  0  0  0  0  0  0
    7.5237  -13.3447   24.0331 N   0  0  0  0  0  0  0  0  0  0  0  0
    7.8406  -15.0327   25.7411 C   0  0  0  0  0  0  0  0  0  0  0  0
    6.9632  -15.8815   25.4503 O   0  0  0  0  0  0  0  0  0  0  0  0
   11.5591  -18.9471   23.1624 N   0  0  0  0  0  0  0  0  0  0  0  0
   11.8798  -18.0019   24.1900 C   0  0  0  0  0  0  0  0  0  0  0  0
   12.8273  -17.2311   23.9204 O   0  0  0  0  0  0  0  0  0  0  0  0
   11.1744  -17.9313   25.4501 C   0  0  0  0  0  0  0  0  0  0  0  0
    9.7367  -17.6433   25.4975 C   0  0  0  0  0  0  0  0  0  0  0  0
    9.2297  -16.8776   26.6707 C   0  0  2  0  0  0  0  0  0  0  0  0
    9.0275  -15.4826   26.3707 N   0  0  0  0  0  0  0  0  0  0  0  0
    9.9368  -17.0429   27.9438 C   0  0  0  0  0  0  0  0  0  0  0  0
   10.0814  -18.1842   28.4419 O   0  0  0  0  0  0  0  0  0  0  0  0
   10.4837  -15.9703   28.6578 O   0  0  0  0  0  0  0  0  0  0  0  0
  2  1  1  1
  2  3  1  0
  4  2  1  0
  5  4  1  0
  5  6  1  6
  7 13  1  0
  7  5  1  0
  8  7  2  0
 10  9  1  6
 10 12  1  0
 11 10  1  0
 12 14  1  0
 12 13  1  6
 14 15  2  0
 17 16  1  0
 17 19  1  0
 18 17  2  0
 20 19  1  0
 21 20  1  6
 22 21  1  0
 22 14  1  0
 23 21  1  0
 23 25  1  0
 24 23  2  0
M  END
$$$$
