KEF.pdb
     RDKit          3D

 30 30  0  0  1  0  0  0  0  0999 V2000
   22.0390  -19.2069  -12.7433 N   0  0  0  0  0  0  0  0  0  0  0  0
   21.9280  -20.4876  -13.3321 C   0  0  1  0  0  0  0  0  0  0  0  0
   21.0912  -20.5583  -14.5985 C   0  0  0  0  0  0  0  0  0  0  0  0
   21.1994  -19.3731  -15.4805 C   0  0  0  0  0  0  0  0  0  0  0  0
   20.2473  -18.2594  -15.2840 C   0  0  0  0  0  0  0  0  0  0  0  0
   20.3801  -17.1997  -16.3391 C   0  0  0  0  0  0  0  0  0  0  0  0
   19.4967  -16.1152  -16.1346 N   0  0  0  0  0  0  0  0  0  0  0  0
   23.2330  -21.1809  -13.5667 C   0  0  0  0  0  0  0  0  0  0  0  0
   23.1955  -22.4173  -13.8260 O   0  0  0  0  0  0  0  0  0  0  0  0
   24.4962  -20.5816  -13.5248 N   0  0  0  0  0  0  0  0  0  0  0  0
   25.7395  -21.3922  -13.4450 C   0  0  1  0  0  0  0  0  0  0  0  0
   26.6128  -20.7790  -14.4861 C   0  0  0  0  0  0  0  0  0  0  0  0
   27.9260  -21.3586  -14.7786 C   0  0  0  0  0  0  0  0  0  0  0  0
   28.6599  -20.5844  -15.8013 C   0  0  0  0  0  0  0  0  0  0  0  0
   28.1679  -19.5294  -16.3387 O   0  0  0  0  0  0  0  0  0  0  0  0
   26.2357  -21.4575  -12.0734 C   0  0  0  0  0  0  0  0  0  0  0  0
   27.3775  -21.9454  -11.8754 O   0  0  0  0  0  0  0  0  0  0  0  0
   29.9320  -20.9331  -16.2554 O   0  0  0  0  0  0  0  0  0  0  0  0
   25.5236  -21.0090  -10.9406 N   0  0  0  0  0  0  0  0  0  0  0  0
   26.0420  -21.1110   -9.6002 C   0  0  1  0  0  0  0  0  0  0  0  0
   27.3592  -20.3643   -9.4623 C   0  0  0  0  0  0  0  0  0  0  0  0
   27.8397  -20.3122   -8.0549 C   0  0  0  0  0  0  0  0  0  0  0  0
   28.5747  -21.3324   -7.4896 C   0  0  0  0  0  0  0  0  0  0  0  0
   29.0124  -21.2223   -6.1903 C   0  0  0  0  0  0  0  0  0  0  0  0
   28.7514  -20.1176   -5.3941 C   0  0  0  0  0  0  0  0  0  0  0  0
   28.0081  -19.1163   -6.0058 C   0  0  0  0  0  0  0  0  0  0  0  0
   27.5616  -19.2016   -7.2945 C   0  0  0  0  0  0  0  0  0  0  0  0
   25.0097  -20.6793   -8.6587 C   0  0  0  0  0  0  0  0  0  0  0  0
   24.8804  -21.1316   -7.3634 O   0  0  0  0  0  0  0  0  0  0  0  0
   24.1675  -19.8185   -9.0737 O   0  0  0  0  0  0  0  0  0  0  0  0
  2  1  1  6
  2  3  1  0
  4  5  1  0
  4  3  1  0
  6  5  1  0
  7  6  1  0
  8  9  2  0
  8  2  1  0
 10  8  1  0
 11 10  1  0
 11 12  1  6
 13 12  1  0
 13 14  1  0
 14 15  2  0
 16 11  1  0
 16 19  1  0
 17 16  2  0
 18 14  1  0
 20 19  1  0
 20 28  1  0
 20 21  1  6
 21 22  1  0
 22 27  2  0
 23 22  1  0
 23 24  2  0
 24 25  1  0
 25 26  2  0
 27 26  1  0
 28 29  1  0
 30 28  2  0
M  END
$$$$
