KEF.pdb
     RDKit          3D

 30 30  0  0  1  0  0  0  0  0999 V2000
   17.4702  -13.4919  -16.7299 N   0  0  0  0  0  0  0  0  0  0  0  0
   18.7056  -13.1407  -17.3213 C   0  0  1  0  0  0  0  0  0  0  0  0
   18.9038  -13.6054  -18.7543 C   0  0  0  0  0  0  0  0  0  0  0  0
   18.6267  -15.0423  -18.9846 C   0  0  0  0  0  0  0  0  0  0  0  0
   19.7715  -15.9667  -19.1272 C   0  0  0  0  0  0  0  0  0  0  0  0
   19.3399  -17.3652  -19.4611 C   0  0  0  0  0  0  0  0  0  0  0  0
   20.4332  -18.2427  -19.6431 N   0  0  0  0  0  0  0  0  0  0  0  0
   19.0526  -11.6885  -17.2238 C   0  0  0  0  0  0  0  0  0  0  0  0
   20.0437  -11.2818  -17.8946 O   0  0  0  0  0  0  0  0  0  0  0  0
   18.3764  -10.7362  -16.4539 N   0  0  0  0  0  0  0  0  0  0  0  0
   18.8769   -9.3427  -16.3246 C   0  0  1  0  0  0  0  0  0  0  0  0
   17.7378   -8.6307  -15.6782 C   0  0  0  0  0  0  0  0  0  0  0  0
   16.5013   -8.3906  -16.4263 C   0  0  0  0  0  0  0  0  0  0  0  0
   15.4914   -7.6776  -15.6165 C   0  0  0  0  0  0  0  0  0  0  0  0
   14.8523   -6.6614  -16.0667 O   0  0  0  0  0  0  0  0  0  0  0  0
   20.1789   -9.3124  -15.6645 C   0  0  0  0  0  0  0  0  0  0  0  0
   20.4933  -10.2776  -14.9225 O   0  0  0  0  0  0  0  0  0  0  0  0
   15.1545   -8.0508  -14.3152 O   0  0  0  0  0  0  0  0  0  0  0  0
   21.1219   -8.2710  -15.7978 N   0  0  0  0  0  0  0  0  0  0  0  0
   22.5106   -8.4238  -15.4460 C   0  0  1  0  0  0  0  0  0  0  0  0
   23.1346   -9.6049  -16.1721 C   0  0  0  0  0  0  0  0  0  0  0  0
   24.5978   -9.7166  -15.9255 C   0  0  0  0  0  0  0  0  0  0  0  0
   25.1103  -10.3289  -14.8016 C   0  0  0  0  0  0  0  0  0  0  0  0
   26.4723  -10.4238  -14.6346 C   0  0  0  0  0  0  0  0  0  0  0  0
   27.3845   -9.9273  -15.5531 C   0  0  0  0  0  0  0  0  0  0  0  0
   26.8222   -9.3193  -16.6682 C   0  0  0  0  0  0  0  0  0  0  0  0
   25.4730   -9.2122  -16.8574 C   0  0  0  0  0  0  0  0  0  0  0  0
   23.1991   -7.1534  -15.6710 C   0  0  0  0  0  0  0  0  0  0  0  0
   24.1810   -6.6302  -14.8579 O   0  0  0  0  0  0  0  0  0  0  0  0
   22.8604   -6.4827  -16.6996 O   0  0  0  0  0  0  0  0  0  0  0  0
  2  1  1  6
  2  3  1  0
  4  5  1  0
  4  3  1  0
  6  5  1  0
  7  6  1  0
  8  9  2  0
  8  2  1  0
 10  8  1  0
 11 10  1  0
 11 12  1  1
 13 12  1  0
 13 14  1  0
 14 15  2  0
 16 11  1  0
 16 19  1  0
 17 16  2  0
 18 14  1  0
 20 19  1  0
 20 28  1  0
 20 21  1  6
 21 22  1  0
 22 27  2  0
 23 22  1  0
 23 24  2  0
 24 25  1  0
 25 26  2  0
 27 26  1  0
 28 29  1  0
 30 28  2  0
M  END
$$$$
