KEF.pdb
     RDKit          3D

 30 30  0  0  1  0  0  0  0  0999 V2000
   24.3935  -18.8263  -16.7505 N   0  0  0  0  0  0  0  0  0  0  0  0
   24.1548  -18.4292  -15.4146 C   0  0  1  0  0  0  0  0  0  0  0  0
   22.8334  -17.7214  -15.1656 C   0  0  0  0  0  0  0  0  0  0  0  0
   22.4713  -16.7075  -16.1831 C   0  0  0  0  0  0  0  0  0  0  0  0
   21.1874  -15.9895  -16.0364 C   0  0  0  0  0  0  0  0  0  0  0  0
   20.9408  -15.0226  -17.1580 C   0  0  0  0  0  0  0  0  0  0  0  0
   19.6481  -14.4524  -17.1099 N   0  0  0  0  0  0  0  0  0  0  0  0
   24.3280  -19.5160  -14.4010 C   0  0  0  0  0  0  0  0  0  0  0  0
   23.2949  -19.9083  -13.7876 O   0  0  0  0  0  0  0  0  0  0  0  0
   25.5354  -20.1398  -14.0694 N   0  0  0  0  0  0  0  0  0  0  0  0
   25.5830  -21.2969  -13.1377 C   0  0  1  0  0  0  0  0  0  0  0  0
   26.3225  -22.3307  -13.9166 C   0  0  0  0  0  0  0  0  0  0  0  0
   25.6899  -22.9735  -15.0710 C   0  0  0  0  0  0  0  0  0  0  0  0
   24.9023  -24.1622  -14.6827 C   0  0  0  0  0  0  0  0  0  0  0  0
   25.4250  -25.1479  -14.0510 O   0  0  0  0  0  0  0  0  0  0  0  0
   26.1104  -20.9000  -11.8353 C   0  0  0  0  0  0  0  0  0  0  0  0
   27.2318  -20.3327  -11.7943 O   0  0  0  0  0  0  0  0  0  0  0  0
   23.5437  -24.3034  -14.9656 O   0  0  0  0  0  0  0  0  0  0  0  0
   25.4496  -21.1061  -10.6056 N   0  0  0  0  0  0  0  0  0  0  0  0
   26.1292  -21.0640   -9.3359 C   0  0  1  0  0  0  0  0  0  0  0  0
   27.0777  -19.8783   -9.2596 C   0  0  0  0  0  0  0  0  0  0  0  0
   27.6767  -19.7142   -7.9073 C   0  0  0  0  0  0  0  0  0  0  0  0
   27.2179  -18.7755   -7.0078 C   0  0  0  0  0  0  0  0  0  0  0  0
   27.7942  -18.6817   -5.7624 C   0  0  0  0  0  0  0  0  0  0  0  0
   28.8364  -19.4961   -5.3468 C   0  0  0  0  0  0  0  0  0  0  0  0
   29.2649  -20.4254   -6.2859 C   0  0  0  0  0  0  0  0  0  0  0  0
   28.7094  -20.5386   -7.5292 C   0  0  0  0  0  0  0  0  0  0  0  0
   25.1348  -21.1029   -8.2645 C   0  0  0  0  0  0  0  0  0  0  0  0
   25.2840  -21.7733   -7.0697 O   0  0  0  0  0  0  0  0  0  0  0  0
   24.0483  -20.4663   -8.4562 O   0  0  0  0  0  0  0  0  0  0  0  0
  2  1  1  6
  2  3  1  0
  4  5  1  0
  4  3  1  0
  6  5  1  0
  7  6  1  0
  8  9  2  0
  8  2  1  0
 10  8  1  0
 11 10  1  0
 11 12  1  6
 13 12  1  0
 13 14  1  0
 14 15  2  0
 16 11  1  0
 16 19  1  0
 17 16  2  0
 18 14  1  0
 20 19  1  0
 20 28  1  0
 20 21  1  6
 21 22  1  0
 22 27  2  0
 23 22  1  0
 23 24  2  0
 24 25  1  0
 25 26  2  0
 27 26  1  0
 28 29  1  0
 30 28  2  0
M  END
$$$$
