KEF.pdb
     RDKit          3D

 30 30  0  0  1  0  0  0  0  0999 V2000
   21.9327  -19.6899  -13.6221 N   0  0  0  0  0  0  0  0  0  0  0  0
   22.1700  -21.0196  -13.2038 C   0  0  1  0  0  0  0  0  0  0  0  0
   21.7931  -22.1000  -14.2036 C   0  0  0  0  0  0  0  0  0  0  0  0
   20.6343  -21.7707  -15.0657 C   0  0  0  0  0  0  0  0  0  0  0  0
   20.8076  -20.7471  -16.1182 C   0  0  0  0  0  0  0  0  0  0  0  0
   19.5614  -20.5446  -16.9304 C   0  0  0  0  0  0  0  0  0  0  0  0
   19.6505  -19.4285  -17.7934 N   0  0  0  0  0  0  0  0  0  0  0  0
   23.5558  -21.2771  -12.7020 C   0  0  0  0  0  0  0  0  0  0  0  0
   23.8109  -22.4371  -12.2697 O   0  0  0  0  0  0  0  0  0  0  0  0
   24.5992  -20.3460  -12.6678 N   0  0  0  0  0  0  0  0  0  0  0  0
   25.9016  -20.6604  -12.0245 C   0  0  1  0  0  0  0  0  0  0  0  0
   26.8808  -19.8928  -12.8458 C   0  0  0  0  0  0  0  0  0  0  0  0
   27.8801  -20.6003  -13.6501 C   0  0  0  0  0  0  0  0  0  0  0  0
   27.2579  -21.4704  -14.6699 C   0  0  0  0  0  0  0  0  0  0  0  0
   27.3695  -22.7472  -14.6344 O   0  0  0  0  0  0  0  0  0  0  0  0
   25.8514  -20.4068  -10.5875 C   0  0  0  0  0  0  0  0  0  0  0  0
   25.0108  -19.5762  -10.1581 O   0  0  0  0  0  0  0  0  0  0  0  0
   26.5061  -20.9785  -15.7370 O   0  0  0  0  0  0  0  0  0  0  0  0
   26.6832  -21.0306   -9.6333 N   0  0  0  0  0  0  0  0  0  0  0  0
   26.7385  -20.6167   -8.2544 C   0  0  1  0  0  0  0  0  0  0  0  0
   27.8280  -21.3621   -7.5003 C   0  0  0  0  0  0  0  0  0  0  0  0
   28.1559  -20.7249   -6.1961 C   0  0  0  0  0  0  0  0  0  0  0  0
   29.1889  -19.8227   -6.0565 C   0  0  0  0  0  0  0  0  0  0  0  0
   29.4342  -19.2469   -4.8317 C   0  0  0  0  0  0  0  0  0  0  0  0
   28.6850  -19.5272   -3.6992 C   0  0  0  0  0  0  0  0  0  0  0  0
   27.6563  -20.4412   -3.8880 C   0  0  0  0  0  0  0  0  0  0  0  0
   27.3923  -21.0271   -5.0940 C   0  0  0  0  0  0  0  0  0  0  0  0
   26.8647  -19.1607   -8.2013 C   0  0  0  0  0  0  0  0  0  0  0  0
   26.2185  -18.3423   -7.3004 O   0  0  0  0  0  0  0  0  0  0  0  0
   27.6327  -18.6122   -9.0567 O   0  0  0  0  0  0  0  0  0  0  0  0
  2  1  1  6
  2  3  1  0
  4  5  1  0
  4  3  1  0
  6  5  1  0
  7  6  1  0
  8  9  2  0
  8  2  1  0
 10  8  1  0
 11 10  1  0
 11 12  1  6
 13 12  1  0
 13 14  1  0
 14 15  2  0
 16 11  1  0
 16 19  1  0
 17 16  2  0
 18 14  1  0
 20 19  1  0
 20 28  1  0
 20 21  1  6
 21 22  1  0
 22 27  2  0
 23 22  1  0
 23 24  2  0
 24 25  1  0
 25 26  2  0
 27 26  1  0
 28 29  1  0
 30 28  2  0
M  END
$$$$
