KEF.pdb
     RDKit          3D

 30 30  0  0  1  0  0  0  0  0999 V2000
   25.9792  -18.6426  -15.5482 N   0  0  0  0  0  0  0  0  0  0  0  0
   26.7981  -19.3081  -14.6070 C   0  0  1  0  0  0  0  0  0  0  0  0
   28.2563  -18.8813  -14.5867 C   0  0  0  0  0  0  0  0  0  0  0  0
   29.0743  -19.4143  -15.7008 C   0  0  0  0  0  0  0  0  0  0  0  0
   28.9650  -20.8513  -16.0303 C   0  0  0  0  0  0  0  0  0  0  0  0
   29.8879  -21.2552  -17.1434 C   0  0  0  0  0  0  0  0  0  0  0  0
   29.7488  -22.6166  -17.4978 N   0  0  0  0  0  0  0  0  0  0  0  0
   26.2670  -19.3073  -13.2082 C   0  0  0  0  0  0  0  0  0  0  0  0
   26.5424  -18.3096  -12.4828 O   0  0  0  0  0  0  0  0  0  0  0  0
   25.4899  -20.3156  -12.6282 N   0  0  0  0  0  0  0  0  0  0  0  0
   24.9273  -20.1740  -11.2598 C   0  0  1  0  0  0  0  0  0  0  0  0
   23.5486  -20.7234  -11.4003 C   0  0  0  0  0  0  0  0  0  0  0  0
   22.5701  -20.0444  -12.2533 C   0  0  0  0  0  0  0  0  0  0  0  0
   21.2720  -20.7503  -12.2806 C   0  0  0  0  0  0  0  0  0  0  0  0
   20.4355  -20.6735  -11.3121 O   0  0  0  0  0  0  0  0  0  0  0  0
   25.8137  -20.7698  -10.2643 C   0  0  0  0  0  0  0  0  0  0  0  0
   26.5073  -21.7627  -10.6022 O   0  0  0  0  0  0  0  0  0  0  0  0
   20.8569  -21.5436  -13.3504 O   0  0  0  0  0  0  0  0  0  0  0  0
   25.9534  -20.3105   -8.9372 N   0  0  0  0  0  0  0  0  0  0  0  0
   26.7719  -20.9814   -7.9596 C   0  0  1  0  0  0  0  0  0  0  0  0
   28.1308  -20.3125   -7.8285 C   0  0  0  0  0  0  0  0  0  0  0  0
   28.4049  -19.8466   -6.4420 C   0  0  0  0  0  0  0  0  0  0  0  0
   27.9200  -18.6503   -5.9579 C   0  0  0  0  0  0  0  0  0  0  0  0
   28.1856  -18.2787   -4.6605 C   0  0  0  0  0  0  0  0  0  0  0  0
   28.9317  -19.0558   -3.7876 C   0  0  0  0  0  0  0  0  0  0  0  0
   29.3990  -20.2508   -4.3194 C   0  0  0  0  0  0  0  0  0  0  0  0
   29.1492  -20.6426   -5.6045 C   0  0  0  0  0  0  0  0  0  0  0  0
   26.0289  -21.0751   -6.7035 C   0  0  0  0  0  0  0  0  0  0  0  0
   24.9460  -20.2933   -6.3640 O   0  0  0  0  0  0  0  0  0  0  0  0
   26.4177  -21.9485   -5.8618 O   0  0  0  0  0  0  0  0  0  0  0  0
  2  1  1  6
  2  3  1  0
  4  5  1  0
  4  3  1  0
  6  5  1  0
  7  6  1  0
  8  9  2  0
  8  2  1  0
 10  8  1  0
 11 10  1  0
 11 12  1  6
 13 12  1  0
 13 14  1  0
 14 15  2  0
 16 11  1  0
 16 19  1  0
 17 16  2  0
 18 14  1  0
 20 19  1  0
 20 28  1  0
 20 21  1  1
 21 22  1  0
 22 27  2  0
 23 22  1  0
 23 24  2  0
 24 25  1  0
 25 26  2  0
 27 26  1  0
 28 29  1  0
 30 28  2  0
M  END
$$$$
