KEF.pdb
     RDKit          3D

 30 30  0  0  1  0  0  0  0  0999 V2000
   27.7686  -20.2728  -15.3055 N   0  0  0  0  0  0  0  0  0  0  0  0
   27.6209  -19.1146  -14.5079 C   0  0  1  0  0  0  0  0  0  0  0  0
   27.2193  -17.8516  -15.2513 C   0  0  0  0  0  0  0  0  0  0  0  0
   27.7698  -17.7368  -16.6217 C   0  0  0  0  0  0  0  0  0  0  0  0
   29.2359  -17.8020  -16.7999 C   0  0  0  0  0  0  0  0  0  0  0  0
   29.6589  -17.4528  -18.1974 C   0  0  0  0  0  0  0  0  0  0  0  0
   31.0413  -17.6545  -18.4133 N   0  0  0  0  0  0  0  0  0  0  0  0
   26.7312  -19.2872  -13.3173 C   0  0  0  0  0  0  0  0  0  0  0  0
   26.3276  -18.2394  -12.7371 O   0  0  0  0  0  0  0  0  0  0  0  0
   26.3041  -20.5087  -12.7861 N   0  0  0  0  0  0  0  0  0  0  0  0
   25.4851  -20.5745  -11.5476 C   0  0  1  0  0  0  0  0  0  0  0  0
   24.4814  -21.6318  -11.8592 C   0  0  0  0  0  0  0  0  0  0  0  0
   23.4406  -21.3853  -12.8602 C   0  0  0  0  0  0  0  0  0  0  0  0
   22.4433  -20.3993  -12.3937 C   0  0  0  0  0  0  0  0  0  0  0  0
   21.9143  -20.4664  -11.2277 O   0  0  0  0  0  0  0  0  0  0  0  0
   26.3297  -20.7451  -10.3689 C   0  0  0  0  0  0  0  0  0  0  0  0
   27.5769  -20.7644  -10.5273 O   0  0  0  0  0  0  0  0  0  0  0  0
   22.0061  -19.3285  -13.1735 O   0  0  0  0  0  0  0  0  0  0  0  0
   25.8474  -20.8907   -9.0507 N   0  0  0  0  0  0  0  0  0  0  0  0
   26.7138  -20.9230   -7.9001 C   0  0  1  0  0  0  0  0  0  0  0  0
   27.6049  -19.6922   -7.8487 C   0  0  0  0  0  0  0  0  0  0  0  0
   28.3750  -19.5992   -6.5787 C   0  0  0  0  0  0  0  0  0  0  0  0
   28.0698  -18.6792   -5.5984 C   0  0  0  0  0  0  0  0  0  0  0  0
   28.8012  -18.6516   -4.4338 C   0  0  0  0  0  0  0  0  0  0  0  0
   29.8548  -19.5165   -4.1804 C   0  0  0  0  0  0  0  0  0  0  0  0
   30.1254  -20.4246   -5.1959 C   0  0  0  0  0  0  0  0  0  0  0  0
   29.4140  -20.4723   -6.3617 C   0  0  0  0  0  0  0  0  0  0  0  0
   25.9015  -21.1223   -6.7005 C   0  0  0  0  0  0  0  0  0  0  0  0
   26.3421  -21.7106   -5.5347 O   0  0  0  0  0  0  0  0  0  0  0  0
   24.6940  -20.7193   -6.7425 O   0  0  0  0  0  0  0  0  0  0  0  0
  2  1  1  6
  2  3  1  0
  4  5  1  0
  4  3  1  0
  6  5  1  0
  7  6  1  0
  8  9  2  0
  8  2  1  0
 10  8  1  0
 11 10  1  0
 11 12  1  6
 13 12  1  0
 13 14  1  0
 14 15  2  0
 16 11  1  0
 16 19  1  0
 17 16  2  0
 18 14  1  0
 20 19  1  0
 20 28  1  0
 20 21  1  1
 21 22  1  0
 22 27  2  0
 23 22  1  0
 23 24  2  0
 24 25  1  0
 25 26  2  0
 27 26  1  0
 28 29  1  0
 30 28  2  0
M  END
$$$$
