TVT.pdb
     RDKit          3D

 22 21  0  0  1  0  0  0  0  0999 V2000
    7.0579  -18.9567   18.8622 C   0  0  0  0  0  0  0  0  0  0  0  0
    7.8195  -18.6615   17.5791 C   0  0  1  0  0  0  0  0  0  0  0  0
    7.1969  -19.3399   16.5371 O   0  0  0  0  0  0  0  0  0  0  0  0
    7.7814  -17.1699   17.3785 C   0  0  2  0  0  0  0  0  0  0  0  0
    8.3298  -16.8134   16.0830 N   0  0  0  0  0  0  0  0  0  0  0  0
    8.5821  -16.4450   18.4016 C   0  0  0  0  0  0  0  0  0  0  0  0
    9.8382  -16.4400   18.3887 O   0  0  0  0  0  0  0  0  0  0  0  0
    6.8235  -13.9785   21.8599 C   0  0  0  0  0  0  0  0  0  0  0  0
    8.0710  -13.7573   21.0015 C   0  0  2  0  0  0  0  0  0  0  0  0
    7.6996  -12.7592   19.9596 C   0  0  0  0  0  0  0  0  0  0  0  0
    8.6493  -15.0367   20.5185 C   0  0  2  0  0  0  0  0  0  0  0  0
    7.9671  -15.7047   19.4690 N   0  0  0  0  0  0  0  0  0  0  0  0
    9.1511  -15.9332   21.6118 C   0  0  0  0  0  0  0  0  0  0  0  0
    8.4436  -16.8671   22.0701 O   0  0  0  0  0  0  0  0  0  0  0  0
   12.6404  -17.1410   21.2341 C   0  0  0  0  0  0  0  0  0  0  0  0
   11.6275  -17.8775   22.0866 C   0  0  1  0  0  0  0  0  0  0  0  0
   12.3036  -18.8839   22.7786 O   0  0  0  0  0  0  0  0  0  0  0  0
   11.0004  -16.8777   23.0292 C   0  0  2  0  0  0  0  0  0  0  0  0
   10.4355  -15.7983   22.2044 N   0  0  0  0  0  0  0  0  0  0  0  0
   12.0909  -16.2679   23.8314 C   0  0  0  0  0  0  0  0  0  0  0  0
   12.4117  -15.0702   23.6085 O   0  0  0  0  0  0  0  0  0  0  0  0
   12.7652  -16.9610   24.8095 O   0  0  0  0  0  0  0  0  0  0  0  0
  2  1  1  1
  2  3  1  0
  2  4  1  0
  4  5  1  6
  6  4  1  0
  6 12  1  0
  7  6  2  0
  9 11  1  0
  9  8  1  6
 10  9  1  0
 11 12  1  1
 11 13  1  0
 13 19  1  0
 14 13  2  0
 16 15  1  6
 17 16  1  0
 18 16  1  0
 18 19  1  6
 20 18  1  0
 20 22  1  0
 21 20  2  0
M  END
$$$$
