TVT.pdb
     RDKit          3D

 22 21  0  0  1  0  0  0  0  0999 V2000
    6.1152  -16.6627   21.8329 C   0  0  0  0  0  0  0  0  0  0  0  0
    7.2923  -16.1624   21.0096 C   0  0  1  0  0  0  0  0  0  0  0  0
    6.9925  -16.3466   19.6643 O   0  0  0  0  0  0  0  0  0  0  0  0
    7.4786  -14.7072   21.3480 C   0  0  2  0  0  0  0  0  0  0  0  0
    8.3650  -14.0689   20.3925 N   0  0  0  0  0  0  0  0  0  0  0  0
    8.0834  -14.5165   22.6937 C   0  0  0  0  0  0  0  0  0  0  0  0
    9.3245  -14.5617   22.8826 O   0  0  0  0  0  0  0  0  0  0  0  0
    7.0183  -11.7801   25.5384 C   0  0  0  0  0  0  0  0  0  0  0  0
    7.0468  -13.2068   26.0911 C   0  0  2  0  0  0  0  0  0  0  0  0
    7.5487  -13.1116   27.4907 C   0  0  0  0  0  0  0  0  0  0  0  0
    7.7688  -14.1396   25.1893 C   0  0  2  0  0  0  0  0  0  0  0  0
    7.2840  -14.2685   23.8621 N   0  0  0  0  0  0  0  0  0  0  0  0
    8.1714  -15.4307   25.8389 C   0  0  0  0  0  0  0  0  0  0  0  0
    7.3226  -16.3162   26.1187 O   0  0  0  0  0  0  0  0  0  0  0  0
   11.4822  -18.8991   26.4900 C   0  0  0  0  0  0  0  0  0  0  0  0
   11.0750  -17.5502   25.9332 C   0  0  1  0  0  0  0  0  0  0  0  0
   10.7914  -17.7167   24.5765 O   0  0  0  0  0  0  0  0  0  0  0  0
    9.8636  -17.0779   26.7017 C   0  0  2  0  0  0  0  0  0  0  0  0
    9.5131  -15.7460   26.1843 N   0  0  0  0  0  0  0  0  0  0  0  0
   10.2727  -16.8859   28.1160 C   0  0  0  0  0  0  0  0  0  0  0  0
   10.5825  -15.7290   28.5067 O   0  0  0  0  0  0  0  0  0  0  0  0
   10.3265  -17.9237   29.0172 O   0  0  0  0  0  0  0  0  0  0  0  0
  2  1  1  1
  2  3  1  0
  2  4  1  0
  4  5  1  6
  6  4  1  0
  6 12  1  0
  7  6  2  0
  9 11  1  0
  9  8  1  6
 10  9  1  0
 11 12  1  6
 11 13  1  0
 13 19  1  0
 14 13  2  0
 16 15  1  1
 17 16  1  0
 18 16  1  0
 18 19  1  6
 20 18  1  0
 20 22  1  0
 21 20  2  0
M  END
$$$$
