TVT.pdb
     RDKit          3D

 22 21  0  0  1  0  0  0  0  0999 V2000
    7.0298  -18.8101   18.8446 C   0  0  0  0  0  0  0  0  0  0  0  0
    7.9840  -18.9226   17.6655 C   0  0  1  0  0  0  0  0  0  0  0  0
    7.4241  -19.7893   16.7333 O   0  0  0  0  0  0  0  0  0  0  0  0
    8.1582  -17.5354   17.1069 C   0  0  2  0  0  0  0  0  0  0  0  0
    9.0282  -17.5567   15.9455 N   0  0  0  0  0  0  0  0  0  0  0  0
    8.7746  -16.6066   18.0922 C   0  0  0  0  0  0  0  0  0  0  0  0
   10.0025  -16.6286   18.3559 O   0  0  0  0  0  0  0  0  0  0  0  0
    8.4385  -12.7218   21.2326 C   0  0  0  0  0  0  0  0  0  0  0  0
    7.8167  -13.5024   20.0725 C   0  0  2  0  0  0  0  0  0  0  0  0
    6.3448  -13.5081   20.3033 C   0  0  0  0  0  0  0  0  0  0  0  0
    8.4634  -14.8252   19.8806 C   0  0  2  0  0  0  0  0  0  0  0  0
    8.0020  -15.6256   18.8039 N   0  0  0  0  0  0  0  0  0  0  0  0
    8.7166  -15.5737   21.1559 C   0  0  0  0  0  0  0  0  0  0  0  0
    7.7726  -15.9124   21.9155 O   0  0  0  0  0  0  0  0  0  0  0  0
    9.8541  -18.8456   21.5533 C   0  0  0  0  0  0  0  0  0  0  0  0
   10.8549  -18.0570   22.3729 C   0  0  1  0  0  0  0  0  0  0  0  0
   11.9698  -17.8159   21.5681 O   0  0  0  0  0  0  0  0  0  0  0  0
   10.1903  -16.7709   22.8040 C   0  0  2  0  0  0  0  0  0  0  0  0
   10.0144  -15.9474   21.5976 N   0  0  0  0  0  0  0  0  0  0  0  0
   11.1436  -16.0406   23.6770 C   0  0  0  0  0  0  0  0  0  0  0  0
   11.3056  -16.4348   24.8625 O   0  0  0  0  0  0  0  0  0  0  0  0
   11.8577  -14.9489   23.2408 O   0  0  0  0  0  0  0  0  0  0  0  0
  2  1  1  1
  2  3  1  0
  2  4  1  0
  4  5  1  6
  6  4  1  0
  6 12  1  0
  7  6  2  0
  9 11  1  0
  9  8  1  1
 10  9  1  0
 11 12  1  6
 11 13  1  0
 13 19  1  0
 14 13  2  0
 16 15  1  6
 17 16  1  0
 18 16  1  0
 18 19  1  6
 20 18  1  0
 20 22  1  0
 21 20  2  0
M  END
$$$$
