TVT.pdb
     RDKit          3D

 22 21  0  0  1  0  0  0  0  0999 V2000
    6.8050  -19.3234   16.5528 C   0  0  0  0  0  0  0  0  0  0  0  0
    7.3987  -18.5667   17.7311 C   0  0  1  0  0  0  0  0  0  0  0  0
    8.4330  -19.3295   18.2621 O   0  0  0  0  0  0  0  0  0  0  0  0
    7.8911  -17.2459   17.2023 C   0  0  2  0  0  0  0  0  0  0  0  0
    8.9131  -17.4480   16.1919 N   0  0  0  0  0  0  0  0  0  0  0  0
    8.4975  -16.4047   18.2690 C   0  0  0  0  0  0  0  0  0  0  0  0
    9.7394  -16.3408   18.4464 O   0  0  0  0  0  0  0  0  0  0  0  0
    7.4988  -12.6248   19.6226 C   0  0  0  0  0  0  0  0  0  0  0  0
    7.4525  -13.6941   20.7164 C   0  0  2  0  0  0  0  0  0  0  0  0
    7.9091  -13.0376   21.9734 C   0  0  0  0  0  0  0  0  0  0  0  0
    8.1685  -14.9320   20.3163 C   0  0  2  0  0  0  0  0  0  0  0  0
    7.6988  -15.6122   19.1633 N   0  0  0  0  0  0  0  0  0  0  0  0
    8.5379  -15.8239   21.4647 C   0  0  0  0  0  0  0  0  0  0  0  0
    7.6847  -16.5610   22.0229 O   0  0  0  0  0  0  0  0  0  0  0  0
   12.4468  -15.9861   22.8587 C   0  0  0  0  0  0  0  0  0  0  0  0
   11.6337  -17.2644   22.8523 C   0  0  1  0  0  0  0  0  0  0  0  0
   12.0966  -18.0697   23.8944 O   0  0  0  0  0  0  0  0  0  0  0  0
   10.1820  -16.8914   23.0391 C   0  0  2  0  0  0  0  0  0  0  0  0
    9.8510  -15.9017   22.0021 N   0  0  0  0  0  0  0  0  0  0  0  0
   10.0596  -16.1920   24.3430 C   0  0  0  0  0  0  0  0  0  0  0  0
   10.0274  -14.9327   24.3558 O   0  0  0  0  0  0  0  0  0  0  0  0
    9.9801  -16.8667   25.5390 O   0  0  0  0  0  0  0  0  0  0  0  0
  2  1  1  6
  2  3  1  0
  2  4  1  0
  4  5  1  6
  6  4  1  0
  6 12  1  0
  7  6  2  0
  9 11  1  0
  9  8  1  6
 10  9  1  0
 11 12  1  6
 11 13  1  0
 13 19  1  0
 14 13  2  0
 16 15  1  1
 17 16  1  0
 18 16  1  0
 18 19  1  6
 20 18  1  0
 20 22  1  0
 21 20  2  0
M  END
$$$$
