TVT.pdb
     RDKit          3D

 22 21  0  0  1  0  0  0  0  0999 V2000
    6.3045  -16.7726   21.7173 C   0  0  0  0  0  0  0  0  0  0  0  0
    7.3944  -16.2115   20.8169 C   0  0  1  0  0  0  0  0  0  0  0  0
    6.9747  -16.3338   19.4968 O   0  0  0  0  0  0  0  0  0  0  0  0
    7.5921  -14.7719   21.2107 C   0  0  2  0  0  0  0  0  0  0  0  0
    8.4481  -14.0928   20.2556 N   0  0  0  0  0  0  0  0  0  0  0  0
    8.2397  -14.6382   22.5435 C   0  0  0  0  0  0  0  0  0  0  0  0
    9.4717  -14.8174   22.7104 O   0  0  0  0  0  0  0  0  0  0  0  0
    6.0002  -13.5776   26.3793 C   0  0  0  0  0  0  0  0  0  0  0  0
    7.4513  -13.2875   25.9896 C   0  0  2  0  0  0  0  0  0  0  0  0
    7.4939  -11.8708   25.5304 C   0  0  0  0  0  0  0  0  0  0  0  0
    7.9910  -14.3052   25.0526 C   0  0  2  0  0  0  0  0  0  0  0  0
    7.4945  -14.2952   23.7236 N   0  0  0  0  0  0  0  0  0  0  0  0
    8.1459  -15.6707   25.6548 C   0  0  0  0  0  0  0  0  0  0  0  0
    7.1592  -16.4368   25.8042 O   0  0  0  0  0  0  0  0  0  0  0  0
    9.6736  -18.5191   24.4289 C   0  0  0  0  0  0  0  0  0  0  0  0
   10.3812  -18.3520   25.7580 C   0  0  1  0  0  0  0  0  0  0  0  0
   11.5900  -17.6963   25.5183 O   0  0  0  0  0  0  0  0  0  0  0  0
    9.4807  -17.5467   26.6647 C   0  0  2  0  0  0  0  0  0  0  0  0
    9.3914  -16.1925   26.0966 N   0  0  0  0  0  0  0  0  0  0  0  0
   10.1653  -17.4094   27.9750 C   0  0  0  0  0  0  0  0  0  0  0  0
   10.5539  -16.2681   28.3403 O   0  0  0  0  0  0  0  0  0  0  0  0
   10.3919  -18.4815   28.8063 O   0  0  0  0  0  0  0  0  0  0  0  0
  2  1  1  1
  2  3  1  0
  2  4  1  0
  4  5  1  6
  6  4  1  0
  6 12  1  0
  7  6  2  0
  9 11  1  0
  9  8  1  6
 10  9  1  0
 11 12  1  6
 11 13  1  0
 13 19  1  0
 14 13  2  0
 16 15  1  6
 17 16  1  0
 18 16  1  0
 18 19  1  6
 20 18  1  0
 20 22  1  0
 21 20  2  0
M  END
$$$$
