TVT.pdb
     RDKit          3D

 22 21  0  0  1  0  0  0  0  0999 V2000
    6.1500  -16.0650   21.3794 C   0  0  0  0  0  0  0  0  0  0  0  0
    7.1529  -15.2751   20.5524 C   0  0  1  0  0  0  0  0  0  0  0  0
    6.7046  -15.2452   19.2364 O   0  0  0  0  0  0  0  0  0  0  0  0
    7.2264  -13.8955   21.1507 C   0  0  2  0  0  0  0  0  0  0  0  0
    7.9244  -12.9875   20.2593 N   0  0  0  0  0  0  0  0  0  0  0  0
    7.9616  -13.8827   22.4440 C   0  0  0  0  0  0  0  0  0  0  0  0
    9.2165  -13.8769   22.5009 O   0  0  0  0  0  0  0  0  0  0  0  0
    5.9792  -13.4286   26.4973 C   0  0  0  0  0  0  0  0  0  0  0  0
    7.3975  -13.0663   26.0510 C   0  0  2  0  0  0  0  0  0  0  0  0
    7.3859  -11.6103   25.7356 C   0  0  0  0  0  0  0  0  0  0  0  0
    7.8949  -13.9723   24.9849 C   0  0  2  0  0  0  0  0  0  0  0  0
    7.2806  -13.8762   23.7096 N   0  0  0  0  0  0  0  0  0  0  0  0
    8.1637  -15.3736   25.4484 C   0  0  0  0  0  0  0  0  0  0  0  0
    7.2506  -16.2383   25.4851 O   0  0  0  0  0  0  0  0  0  0  0  0
   11.1267  -19.1469   25.7069 C   0  0  0  0  0  0  0  0  0  0  0  0
   10.8825  -17.6829   25.4031 C   0  0  1  0  0  0  0  0  0  0  0  0
   10.6714  -17.5620   24.0285 O   0  0  0  0  0  0  0  0  0  0  0  0
    9.6737  -17.2408   26.1934 C   0  0  2  0  0  0  0  0  0  0  0  0
    9.4421  -15.8230   25.8760 N   0  0  0  0  0  0  0  0  0  0  0  0
   10.0304  -17.2970   27.6335 C   0  0  0  0  0  0  0  0  0  0  0  0
   10.3378  -16.2281   28.2251 O   0  0  0  0  0  0  0  0  0  0  0  0
   10.0383  -18.4726   28.3476 O   0  0  0  0  0  0  0  0  0  0  0  0
  2  1  1  1
  2  3  1  0
  2  4  1  0
  4  5  1  6
  6  4  1  0
  6 12  1  0
  7  6  2  0
  9 11  1  0
  9  8  1  6
 10  9  1  0
 11 12  1  6
 11 13  1  0
 13 19  1  0
 14 13  2  0
 16 15  1  6
 17 16  1  0
 18 16  1  0
 18 19  1  6
 20 18  1  0
 20 22  1  0
 21 20  2  0
M  END
$$$$
