TVT.pdb
     RDKit          3D

 22 21  0  0  1  0  0  0  0  0999 V2000
    6.0987  -16.6432   21.8023 C   0  0  0  0  0  0  0  0  0  0  0  0
    7.1860  -16.1394   20.8656 C   0  0  1  0  0  0  0  0  0  0  0  0
    6.7291  -16.2683   19.5586 O   0  0  0  0  0  0  0  0  0  0  0  0
    7.4475  -14.7018   21.2284 C   0  0  2  0  0  0  0  0  0  0  0  0
    8.2680  -14.0599   20.2179 N   0  0  0  0  0  0  0  0  0  0  0  0
    8.1725  -14.5718   22.5210 C   0  0  0  0  0  0  0  0  0  0  0  0
    9.4209  -14.6842   22.6029 O   0  0  0  0  0  0  0  0  0  0  0  0
    6.1416  -13.6774   26.5050 C   0  0  0  0  0  0  0  0  0  0  0  0
    7.5407  -13.2925   26.0191 C   0  0  2  0  0  0  0  0  0  0  0  0
    7.4583  -11.8769   25.5617 C   0  0  0  0  0  0  0  0  0  0  0  0
    8.0823  -14.2740   25.0453 C   0  0  2  0  0  0  0  0  0  0  0  0
    7.4882  -14.3092   23.7574 N   0  0  0  0  0  0  0  0  0  0  0  0
    8.3822  -15.6203   25.6355 C   0  0  0  0  0  0  0  0  0  0  0  0
    7.4947  -16.5070   25.7298 O   0  0  0  0  0  0  0  0  0  0  0  0
   11.5180  -19.2220   26.2913 C   0  0  0  0  0  0  0  0  0  0  0  0
   11.1977  -17.8122   25.8385 C   0  0  1  0  0  0  0  0  0  0  0  0
   11.0278  -17.8374   24.4531 O   0  0  0  0  0  0  0  0  0  0  0  0
    9.9378  -17.3729   26.5464 C   0  0  2  0  0  0  0  0  0  0  0  0
    9.6634  -15.9899   26.1264 N   0  0  0  0  0  0  0  0  0  0  0  0
   10.2317  -17.3208   28.0008 C   0  0  0  0  0  0  0  0  0  0  0  0
   10.3992  -16.1978   28.5465 O   0  0  0  0  0  0  0  0  0  0  0  0
   10.3284  -18.4528   28.7762 O   0  0  0  0  0  0  0  0  0  0  0  0
  2  1  1  1
  2  3  1  0
  2  4  1  0
  4  5  1  6
  6  4  1  0
  6 12  1  0
  7  6  2  0
  9 11  1  0
  9  8  1  6
 10  9  1  0
 11 12  1  6
 11 13  1  0
 13 19  1  0
 14 13  2  0
 16 15  1  1
 17 16  1  0
 18 16  1  0
 18 19  1  6
 20 18  1  0
 20 22  1  0
 21 20  2  0
M  END
$$$$
