TVT.pdb
     RDKit          3D

 22 21  0  0  1  0  0  0  0  0999 V2000
    6.6579  -18.8583   20.6616 C   0  0  0  0  0  0  0  0  0  0  0  0
    7.5745  -18.6024   19.4750 C   0  0  1  0  0  0  0  0  0  0  0  0
    6.9325  -19.0476   18.3247 O   0  0  0  0  0  0  0  0  0  0  0  0
    7.8356  -17.1203   19.4329 C   0  0  2  0  0  0  0  0  0  0  0  0
    8.5776  -16.7649   18.2373 N   0  0  0  0  0  0  0  0  0  0  0  0
    8.6412  -16.6586   20.5953 C   0  0  0  0  0  0  0  0  0  0  0  0
    9.8743  -16.8803   20.6857 O   0  0  0  0  0  0  0  0  0  0  0  0
    7.6687  -14.0666   24.6096 C   0  0  0  0  0  0  0  0  0  0  0  0
    8.4630  -14.0904   23.3017 C   0  0  2  0  0  0  0  0  0  0  0  0
    7.7369  -13.2074   22.3463 C   0  0  0  0  0  0  0  0  0  0  0  0
    8.7423  -15.4752   22.8443 C   0  0  2  0  0  0  0  0  0  0  0  0
    8.0575  -15.9297   21.6878 N   0  0  0  0  0  0  0  0  0  0  0  0
    8.8348  -16.4798   23.9547 C   0  0  0  0  0  0  0  0  0  0  0  0
    7.8069  -16.8984   24.5471 O   0  0  0  0  0  0  0  0  0  0  0  0
    9.7577  -19.9067   23.9863 C   0  0  0  0  0  0  0  0  0  0  0  0
   10.7343  -19.2641   24.9499 C   0  0  1  0  0  0  0  0  0  0  0  0
   11.9010  -18.9700   24.2421 O   0  0  0  0  0  0  0  0  0  0  0  0
   10.0877  -18.0156   25.5016 C   0  0  2  0  0  0  0  0  0  0  0  0
   10.0641  -17.0228   24.4162 N   0  0  0  0  0  0  0  0  0  0  0  0
   10.9835  -17.4696   26.5523 C   0  0  0  0  0  0  0  0  0  0  0  0
   11.5913  -16.3888   26.3303 O   0  0  0  0  0  0  0  0  0  0  0  0
   11.1755  -18.0992   27.7601 O   0  0  0  0  0  0  0  0  0  0  0  0
  2  1  1  1
  2  3  1  0
  2  4  1  0
  4  5  1  6
  6  4  1  0
  6 12  1  0
  7  6  2  0
  9 11  1  0
  9  8  1  1
 10  9  1  0
 11 12  1  6
 11 13  1  0
 13 19  1  0
 14 13  2  0
 16 15  1  6
 17 16  1  0
 18 16  1  0
 18 19  1  6
 20 18  1  0
 20 22  1  0
 21 20  2  0
M  END
$$$$
