TVT.pdb
     RDKit          3D

 22 21  0  0  1  0  0  0  0  0999 V2000
    5.9576  -19.1685   17.2916 C   0  0  0  0  0  0  0  0  0  0  0  0
    6.8311  -18.4974   18.3406 C   0  0  1  0  0  0  0  0  0  0  0  0
    7.7869  -19.4148   18.7631 O   0  0  0  0  0  0  0  0  0  0  0  0
    7.4588  -17.2955   17.6864 C   0  0  2  0  0  0  0  0  0  0  0  0
    8.2939  -17.6981   16.5698 N   0  0  0  0  0  0  0  0  0  0  0  0
    8.3279  -16.5353   18.6246 C   0  0  0  0  0  0  0  0  0  0  0  0
    9.5704  -16.7119   18.6786 O   0  0  0  0  0  0  0  0  0  0  0  0
    6.8546  -13.4073   21.6762 C   0  0  0  0  0  0  0  0  0  0  0  0
    8.0961  -13.4314   20.7819 C   0  0  2  0  0  0  0  0  0  0  0  0
    7.7926  -12.5653   19.6082 C   0  0  0  0  0  0  0  0  0  0  0  0
    8.5435  -14.8162   20.4866 C   0  0  2  0  0  0  0  0  0  0  0  0
    7.7987  -15.5507   19.5281 N   0  0  0  0  0  0  0  0  0  0  0  0
    8.9515  -15.5995   21.6993 C   0  0  0  0  0  0  0  0  0  0  0  0
    8.1078  -15.9647   22.5581 O   0  0  0  0  0  0  0  0  0  0  0  0
    9.8843  -18.9109   22.0275 C   0  0  0  0  0  0  0  0  0  0  0  0
   11.0930  -18.1646   22.5541 C   0  0  1  0  0  0  0  0  0  0  0  0
   11.9788  -17.9829   21.4905 O   0  0  0  0  0  0  0  0  0  0  0  0
   10.6158  -16.8452   23.1134 C   0  0  2  0  0  0  0  0  0  0  0  0
   10.2941  -15.9791   21.9685 N   0  0  0  0  0  0  0  0  0  0  0  0
   11.7614  -16.2104   23.8127 C   0  0  0  0  0  0  0  0  0  0  0  0
   12.3327  -15.2261   23.2725 O   0  0  0  0  0  0  0  0  0  0  0  0
   12.2236  -16.6561   25.0292 O   0  0  0  0  0  0  0  0  0  0  0  0
  2  1  1  6
  2  3  1  0
  2  4  1  0
  4  5  1  6
  6  4  1  0
  6 12  1  0
  7  6  2  0
  9 11  1  0
  9  8  1  1
 10  9  1  0
 11 12  1  1
 11 13  1  0
 13 19  1  0
 14 13  2  0
 16 15  1  6
 17 16  1  0
 18 16  1  0
 18 19  1  6
 20 18  1  0
 20 22  1  0
 21 20  2  0
M  END
$$$$
