TVT.pdb
     RDKit          3D

 22 21  0  0  1  0  0  0  0  0999 V2000
    6.2770  -18.7317   19.6206 C   0  0  0  0  0  0  0  0  0  0  0  0
    7.4744  -18.8561   18.6910 C   0  0  1  0  0  0  0  0  0  0  0  0
    7.1012  -19.6360   17.6019 O   0  0  0  0  0  0  0  0  0  0  0  0
    7.8557  -17.4601   18.2760 C   0  0  2  0  0  0  0  0  0  0  0  0
    8.8979  -17.4927   17.2665 N   0  0  0  0  0  0  0  0  0  0  0  0
    8.3812  -16.6595   19.4145 C   0  0  0  0  0  0  0  0  0  0  0  0
    9.5131  -16.8715   19.9162 O   0  0  0  0  0  0  0  0  0  0  0  0
    7.6897  -12.6354   19.9585 C   0  0  0  0  0  0  0  0  0  0  0  0
    7.4713  -13.4435   21.2396 C   0  0  2  0  0  0  0  0  0  0  0  0
    7.9818  -12.6079   22.3625 C   0  0  0  0  0  0  0  0  0  0  0  0
    8.0217  -14.8184   21.1321 C   0  0  2  0  0  0  0  0  0  0  0  0
    7.6251  -15.5928   20.0114 N   0  0  0  0  0  0  0  0  0  0  0  0
    8.0573  -15.5670   22.4317 C   0  0  0  0  0  0  0  0  0  0  0  0
    7.0035  -15.8244   23.0690 O   0  0  0  0  0  0  0  0  0  0  0  0
    8.5633  -18.8396   23.2873 C   0  0  0  0  0  0  0  0  0  0  0  0
    9.6614  -18.1546   24.0748 C   0  0  1  0  0  0  0  0  0  0  0  0
   10.8309  -18.2119   23.3147 O   0  0  0  0  0  0  0  0  0  0  0  0
    9.2305  -16.7292   24.3277 C   0  0  2  0  0  0  0  0  0  0  0  0
    9.2583  -16.0309   23.0330 N   0  0  0  0  0  0  0  0  0  0  0  0
   10.2675  -16.0874   25.1745 C   0  0  0  0  0  0  0  0  0  0  0  0
   11.0311  -15.2307   24.6548 O   0  0  0  0  0  0  0  0  0  0  0  0
   10.4268  -16.3925   26.5062 O   0  0  0  0  0  0  0  0  0  0  0  0
  2  1  1  1
  2  3  1  0
  2  4  1  0
  4  5  1  6
  6  4  1  0
  6 12  1  0
  7  6  2  0
  9 11  1  0
  9  8  1  6
 10  9  1  0
 11 12  1  6
 11 13  1  0
 13 19  1  0
 14 13  2  0
 16 15  1  6
 17 16  1  0
 18 16  1  0
 18 19  1  6
 20 18  1  0
 20 22  1  0
 21 20  2  0
M  END
$$$$
