IHP.pdb
     RDKit          3D

 26 27  0  0  1  0  0  0  0  0999 V2000
    7.8246  -12.2256   18.2685 C   0  0  0  0  0  0  0  0  0  0  0  0
    7.8911  -13.6706   18.6519 C   0  0  0  0  0  0  0  0  0  0  0  0
    7.4199  -13.8892   20.0798 C   0  0  2  0  0  0  0  0  0  0  0  0
    8.3381  -13.1315   20.9915 C   0  0  0  0  0  0  0  0  0  0  0  0
    7.4500  -15.3837   20.3438 C   0  0  2  0  0  0  0  0  0  0  0  0
    6.4430  -16.0036   19.4902 N   0  0  0  0  0  0  0  0  0  0  0  0
    7.1198  -15.6874   21.7585 C   0  0  0  0  0  0  0  0  0  0  0  0
    5.9321  -15.6398   22.1609 O   0  0  0  0  0  0  0  0  0  0  0  0
    8.1238  -16.0393   22.6978 N   0  0  0  0  0  0  0  0  0  0  0  0
    7.8081  -16.3294   24.1092 C   0  0  1  0  0  0  0  0  0  0  0  0
    7.7737  -17.8338   24.2992 C   0  0  0  0  0  0  0  0  0  0  0  0
    7.5646  -18.2598   25.6830 C   0  0  0  0  0  0  0  0  0  0  0  0
    7.2845  -17.4609   26.7586 C   0  0  0  0  0  0  0  0  0  0  0  0
    7.1645  -18.2825   27.8413 N   0  0  0  0  0  0  0  0  0  0  0  0
    7.3612  -19.5558   27.4658 C   0  0  0  0  0  0  0  0  0  0  0  0
    7.6032  -19.5224   26.1501 N   0  0  0  0  0  0  0  0  0  0  0  0
    8.6964  -15.6080   25.0171 C   0  0  0  0  0  0  0  0  0  0  0  0
    9.9701  -15.5675   24.8174 O   0  0  0  0  0  0  0  0  0  0  0  0
    8.2818  -14.8937   26.1714 N   0  0  0  0  0  0  0  0  0  0  0  0
    6.9341  -14.8169   26.6740 C   0  0  0  0  0  0  0  0  0  0  0  0
    6.7857  -13.3773   27.0830 C   0  0  0  0  0  0  0  0  0  0  0  0
    8.1604  -12.9133   27.4301 C   0  0  0  0  0  0  0  0  0  0  0  0
    9.0733  -14.0831   27.0901 C   0  0  1  0  0  0  0  0  0  0  0  0
    9.3561  -14.7624   28.3751 C   0  0  0  0  0  0  0  0  0  0  0  0
    8.9073  -16.0202   28.7191 O   0  0  0  0  0  0  0  0  0  0  0  0
   10.0579  -14.1384   29.2103 O   0  0  0  0  0  0  0  0  0  0  0  0
  1  2  1  0
  3  5  1  0
  3  2  1  0
  3  4  1  1
  5  7  1  0
  5  6  1  6
  7  9  1  0
  8  7  2  0
 10  9  1  0
 10 11  1  6
 11 12  1  0
 12 16  1  0
 13 12  2  0
 13 14  1  0
 14 15  1  0
 16 15  2  0
 17 18  2  0
 17 10  1  0
 19 17  1  0
 20 19  1  0
 21 20  1  0
 22 21  1  0
 22 23  1  0
 23 19  1  0
 23 24  1  1
 25 24  1  0
 26 24  2  0
M  END
$$$$
