IHP.pdb
     RDKit          3D

 26 27  0  0  1  0  0  0  0  0999 V2000
    8.0754  -12.3476   18.2658 C   0  0  0  0  0  0  0  0  0  0  0  0
    8.4052  -13.7011   18.8123 C   0  0  0  0  0  0  0  0  0  0  0  0
    7.8341  -13.8916   20.2074 C   0  0  2  0  0  0  0  0  0  0  0  0
    8.4493  -12.8594   21.1044 C   0  0  0  0  0  0  0  0  0  0  0  0
    8.1664  -15.3067   20.6445 C   0  0  2  0  0  0  0  0  0  0  0  0
    7.5032  -16.2213   19.7222 N   0  0  0  0  0  0  0  0  0  0  0  0
    7.6683  -15.5778   22.0160 C   0  0  0  0  0  0  0  0  0  0  0  0
    6.4810  -15.3161   22.3270 O   0  0  0  0  0  0  0  0  0  0  0  0
    8.5068  -16.1369   23.0151 N   0  0  0  0  0  0  0  0  0  0  0  0
    8.0818  -16.2444   24.4236 C   0  0  1  0  0  0  0  0  0  0  0  0
    7.7657  -17.6969   24.7253 C   0  0  0  0  0  0  0  0  0  0  0  0
    6.7033  -18.2652   23.8955 C   0  0  0  0  0  0  0  0  0  0  0  0
    6.8216  -18.7465   22.6195 C   0  0  0  0  0  0  0  0  0  0  0  0
    5.5839  -19.1810   22.2442 N   0  0  0  0  0  0  0  0  0  0  0  0
    4.7128  -18.9826   23.2456 C   0  0  0  0  0  0  0  0  0  0  0  0
    5.4116  -18.4249   24.2413 N   0  0  0  0  0  0  0  0  0  0  0  0
    9.0457  -15.6175   25.3245 C   0  0  0  0  0  0  0  0  0  0  0  0
   10.3120  -15.6533   25.0816 O   0  0  0  0  0  0  0  0  0  0  0  0
    8.7179  -14.9212   26.5171 N   0  0  0  0  0  0  0  0  0  0  0  0
    7.3874  -14.6956   27.0207 C   0  0  0  0  0  0  0  0  0  0  0  0
    7.4263  -13.2745   27.5114 C   0  0  0  0  0  0  0  0  0  0  0  0
    8.8468  -13.0169   27.8873 C   0  0  0  0  0  0  0  0  0  0  0  0
    9.6006  -14.2760   27.4825 C   0  0  1  0  0  0  0  0  0  0  0  0
    9.7790  -15.0584   28.7269 C   0  0  0  0  0  0  0  0  0  0  0  0
   10.6802  -14.7579   29.7265 O   0  0  0  0  0  0  0  0  0  0  0  0
    9.0510  -16.0721   28.8752 O   0  0  0  0  0  0  0  0  0  0  0  0
  1  2  1  0
  3  5  1  0
  3  2  1  0
  3  4  1  1
  5  7  1  0
  5  6  1  6
  7  9  1  0
  8  7  2  0
 10  9  1  0
 10 11  1  1
 11 12  1  0
 12 16  1  0
 13 12  2  0
 13 14  1  0
 14 15  1  0
 16 15  2  0
 17 18  2  0
 17 10  1  0
 19 17  1  0
 20 19  1  0
 21 20  1  0
 22 21  1  0
 22 23  1  0
 23 19  1  0
 23 24  1  1
 25 24  1  0
 26 24  2  0
M  END
$$$$
