IHP.pdb
     RDKit          3D

 26 27  0  0  1  0  0  0  0  0999 V2000
    7.6294  -11.6738   19.8560 C   0  0  0  0  0  0  0  0  0  0  0  0
    7.3085  -13.1334   19.9345 C   0  0  0  0  0  0  0  0  0  0  0  0
    8.5634  -13.9845   19.8372 C   0  0  2  0  0  0  0  0  0  0  0  0
    9.1707  -13.7610   18.4845 C   0  0  0  0  0  0  0  0  0  0  0  0
    8.1497  -15.4291   20.0516 C   0  0  2  0  0  0  0  0  0  0  0  0
    7.0830  -15.7286   19.1033 N   0  0  0  0  0  0  0  0  0  0  0  0
    7.6318  -15.6428   21.4259 C   0  0  0  0  0  0  0  0  0  0  0  0
    6.5001  -15.2122   21.7554 O   0  0  0  0  0  0  0  0  0  0  0  0
    8.3887  -16.3345   22.4070 N   0  0  0  0  0  0  0  0  0  0  0  0
    7.9231  -16.4748   23.7997 C   0  0  1  0  0  0  0  0  0  0  0  0
    7.9124  -17.9478   24.1614 C   0  0  0  0  0  0  0  0  0  0  0  0
    7.6306  -18.2179   25.5713 C   0  0  0  0  0  0  0  0  0  0  0  0
    8.3849  -18.9657   26.4347 C   0  0  0  0  0  0  0  0  0  0  0  0
    7.7482  -18.9396   27.6411 N   0  0  0  0  0  0  0  0  0  0  0  0
    6.6311  -18.2021   27.5461 C   0  0  0  0  0  0  0  0  0  0  0  0
    6.5762  -17.7714   26.2803 N   0  0  0  0  0  0  0  0  0  0  0  0
    8.6800  -15.6167   24.7078 C   0  0  0  0  0  0  0  0  0  0  0  0
    9.9348  -15.3838   24.5202 O   0  0  0  0  0  0  0  0  0  0  0  0
    8.1476  -14.9626   25.8493 N   0  0  0  0  0  0  0  0  0  0  0  0
    6.7914  -15.0679   26.3229 C   0  0  0  0  0  0  0  0  0  0  0  0
    6.4407  -13.6607   26.7213 C   0  0  0  0  0  0  0  0  0  0  0  0
    7.7321  -13.0141   27.0950 C   0  0  0  0  0  0  0  0  0  0  0  0
    8.8021  -14.0503   26.7804 C   0  0  1  0  0  0  0  0  0  0  0  0
    9.1463  -14.6822   28.0746 C   0  0  0  0  0  0  0  0  0  0  0  0
    9.8796  -14.0818   29.0763 O   0  0  0  0  0  0  0  0  0  0  0  0
    8.7362  -15.8546   28.2663 O   0  0  0  0  0  0  0  0  0  0  0  0
  1  2  1  0
  3  5  1  0
  3  2  1  0
  3  4  1  6
  5  7  1  0
  5  6  1  6
  7  9  1  0
  8  7  2  0
 10  9  1  0
 10 11  1  1
 11 12  1  0
 12 16  1  0
 13 12  2  0
 13 14  1  0
 14 15  1  0
 16 15  2  0
 17 18  2  0
 17 10  1  0
 19 17  1  0
 20 19  1  0
 21 20  1  0
 22 21  1  0
 22 23  1  0
 23 19  1  0
 23 24  1  1
 25 24  1  0
 26 24  2  0
M  END
$$$$
