IHP.pdb
     RDKit          3D

 26 27  0  0  1  0  0  0  0  0999 V2000
    8.1637  -12.1633   18.4023 C   0  0  0  0  0  0  0  0  0  0  0  0
    8.3334  -13.5901   18.8205 C   0  0  0  0  0  0  0  0  0  0  0  0
    7.7143  -13.8471   20.1841 C   0  0  2  0  0  0  0  0  0  0  0  0
    8.3334  -12.8928   21.1610 C   0  0  0  0  0  0  0  0  0  0  0  0
    7.9892  -15.2966   20.5414 C   0  0  2  0  0  0  0  0  0  0  0  0
    7.2553  -16.1312   19.5971 N   0  0  0  0  0  0  0  0  0  0  0  0
    7.5185  -15.6118   21.9132 C   0  0  0  0  0  0  0  0  0  0  0  0
    6.2970  -15.5602   22.1962 O   0  0  0  0  0  0  0  0  0  0  0  0
    8.4223  -15.9793   22.9437 N   0  0  0  0  0  0  0  0  0  0  0  0
    7.9836  -16.1662   24.3397 C   0  0  1  0  0  0  0  0  0  0  0  0
    7.9065  -17.6531   24.6288 C   0  0  0  0  0  0  0  0  0  0  0  0
    6.9161  -18.3705   23.8258 C   0  0  0  0  0  0  0  0  0  0  0  0
    7.0768  -18.8514   22.5544 C   0  0  0  0  0  0  0  0  0  0  0  0
    5.9022  -19.4525   22.2071 N   0  0  0  0  0  0  0  0  0  0  0  0
    5.0287  -19.3562   23.2213 C   0  0  0  0  0  0  0  0  0  0  0  0
    5.6629  -18.6952   24.1969 N   0  0  0  0  0  0  0  0  0  0  0  0
    8.8050  -15.3938   25.2684 C   0  0  0  0  0  0  0  0  0  0  0  0
   10.0707  -15.2383   25.0742 O   0  0  0  0  0  0  0  0  0  0  0  0
    8.3286  -14.7471   26.4386 N   0  0  0  0  0  0  0  0  0  0  0  0
    6.9593  -14.7172   26.8848 C   0  0  0  0  0  0  0  0  0  0  0  0
    6.7684  -13.3034   27.3606 C   0  0  0  0  0  0  0  0  0  0  0  0
    8.1185  -12.8374   27.7913 C   0  0  0  0  0  0  0  0  0  0  0  0
    9.0655  -13.9739   27.4319 C   0  0  1  0  0  0  0  0  0  0  0  0
    9.3043  -14.7151   28.6913 C   0  0  0  0  0  0  0  0  0  0  0  0
   10.1134  -14.2827   29.7209 O   0  0  0  0  0  0  0  0  0  0  0  0
    8.7228  -15.8213   28.8237 O   0  0  0  0  0  0  0  0  0  0  0  0
  1  2  1  0
  3  5  1  0
  3  2  1  0
  3  4  1  1
  5  7  1  0
  5  6  1  6
  7  9  1  0
  8  7  2  0
 10  9  1  0
 10 11  1  1
 11 12  1  0
 12 16  1  0
 13 12  2  0
 13 14  1  0
 14 15  1  0
 16 15  2  0
 17 18  2  0
 17 10  1  0
 19 17  1  0
 20 19  1  0
 21 20  1  0
 22 21  1  0
 22 23  1  0
 23 19  1  0
 23 24  1  1
 25 24  1  0
 26 24  2  0
M  END
$$$$
