IHP.pdb
     RDKit          3D

 26 27  0  0  1  0  0  0  0  0999 V2000
    8.2378  -12.5646   18.3901 C   0  0  0  0  0  0  0  0  0  0  0  0
    8.3400  -13.9723   18.8874 C   0  0  0  0  0  0  0  0  0  0  0  0
    7.7797  -14.1073   20.2933 C   0  0  2  0  0  0  0  0  0  0  0  0
    8.5515  -13.1858   21.1897 C   0  0  0  0  0  0  0  0  0  0  0  0
    7.9236  -15.5623   20.7013 C   0  0  2  0  0  0  0  0  0  0  0  0
    7.0874  -16.3563   19.8084 N   0  0  0  0  0  0  0  0  0  0  0  0
    7.4622  -15.7789   22.0952 C   0  0  0  0  0  0  0  0  0  0  0  0
    6.2734  -15.5398   22.4182 O   0  0  0  0  0  0  0  0  0  0  0  0
    8.3386  -16.2593   23.1027 N   0  0  0  0  0  0  0  0  0  0  0  0
    7.9638  -16.2631   24.5295 C   0  0  1  0  0  0  0  0  0  0  0  0
    7.9493  -17.6971   25.0233 C   0  0  0  0  0  0  0  0  0  0  0  0
    6.9734  -18.5543   24.3501 C   0  0  0  0  0  0  0  0  0  0  0  0
    6.0328  -18.1705   23.4326 C   0  0  0  0  0  0  0  0  0  0  0  0
    5.3515  -19.2957   23.0700 N   0  0  0  0  0  0  0  0  0  0  0  0
    5.8423  -20.3541   23.7333 C   0  0  0  0  0  0  0  0  0  0  0  0
    6.8278  -19.8839   24.5068 N   0  0  0  0  0  0  0  0  0  0  0  0
    8.7955  -15.3465   25.3053 C   0  0  0  0  0  0  0  0  0  0  0  0
   10.0409  -15.1676   25.0212 O   0  0  0  0  0  0  0  0  0  0  0  0
    8.3508  -14.5746   26.4103 N   0  0  0  0  0  0  0  0  0  0  0  0
    6.9861  -14.4490   26.8537 C   0  0  0  0  0  0  0  0  0  0  0  0
    6.8531  -12.9903   27.1948 C   0  0  0  0  0  0  0  0  0  0  0  0
    8.2226  -12.5396   27.5777 C   0  0  0  0  0  0  0  0  0  0  0  0
    9.1225  -13.7412   27.3254 C   0  0  1  0  0  0  0  0  0  0  0  0
    9.3387  -14.3697   28.6485 C   0  0  0  0  0  0  0  0  0  0  0  0
    8.8389  -15.5966   29.0312 O   0  0  0  0  0  0  0  0  0  0  0  0
   10.0304  -13.7298   29.4802 O   0  0  0  0  0  0  0  0  0  0  0  0
  1  2  1  0
  3  5  1  0
  3  2  1  0
  3  4  1  1
  5  7  1  0
  5  6  1  6
  7  9  1  0
  8  7  2  0
 10  9  1  0
 10 11  1  1
 11 12  1  0
 12 16  1  0
 13 12  2  0
 13 14  1  0
 14 15  1  0
 16 15  2  0
 17 18  2  0
 17 10  1  0
 19 17  1  0
 20 19  1  0
 21 20  1  0
 22 21  1  0
 22 23  1  0
 23 19  1  0
 23 24  1  1
 25 24  1  0
 26 24  2  0
M  END
$$$$
