IHP.pdb
     RDKit          3D

 26 27  0  0  1  0  0  0  0  0999 V2000
    7.6154  -12.4341   18.4214 C   0  0  0  0  0  0  0  0  0  0  0  0
    7.8473  -13.8272   18.9163 C   0  0  0  0  0  0  0  0  0  0  0  0
    7.4740  -13.9656   20.3827 C   0  0  2  0  0  0  0  0  0  0  0  0
    8.3513  -13.0413   21.1730 C   0  0  0  0  0  0  0  0  0  0  0  0
    7.6755  -15.4202   20.7669 C   0  0  2  0  0  0  0  0  0  0  0  0
    6.7259  -16.2160   19.9977 N   0  0  0  0  0  0  0  0  0  0  0  0
    7.4109  -15.6374   22.2110 C   0  0  0  0  0  0  0  0  0  0  0  0
    6.2808  -15.3892   22.6971 O   0  0  0  0  0  0  0  0  0  0  0  0
    8.4147  -16.1286   23.0857 N   0  0  0  0  0  0  0  0  0  0  0  0
    8.1759  -16.3054   24.5306 C   0  0  1  0  0  0  0  0  0  0  0  0
    8.1500  -17.7901   24.8397 C   0  0  0  0  0  0  0  0  0  0  0  0
    7.1010  -18.5311   24.1392 C   0  0  0  0  0  0  0  0  0  0  0  0
    5.7669  -18.2284   24.0943 C   0  0  0  0  0  0  0  0  0  0  0  0
    5.1700  -19.1838   23.3244 N   0  0  0  0  0  0  0  0  0  0  0  0
    6.0921  -20.0601   22.8968 C   0  0  0  0  0  0  0  0  0  0  0  0
    7.2603  -19.6470   23.4022 N   0  0  0  0  0  0  0  0  0  0  0  0
    9.1132  -15.5199   25.3296 C   0  0  0  0  0  0  0  0  0  0  0  0
   10.3615  -15.4418   25.0141 O   0  0  0  0  0  0  0  0  0  0  0  0
    8.7760  -14.7785   26.4919 N   0  0  0  0  0  0  0  0  0  0  0  0
    7.4437  -14.5648   26.9961 C   0  0  0  0  0  0  0  0  0  0  0  0
    7.4486  -13.1222   27.4211 C   0  0  0  0  0  0  0  0  0  0  0  0
    8.8645  -12.8106   27.7726 C   0  0  0  0  0  0  0  0  0  0  0  0
    9.6484  -14.0668   27.4192 C   0  0  1  0  0  0  0  0  0  0  0  0
    9.8566  -14.7864   28.6964 C   0  0  0  0  0  0  0  0  0  0  0  0
    9.2742  -15.9917   29.0279 O   0  0  0  0  0  0  0  0  0  0  0  0
   10.6226  -14.2513   29.5368 O   0  0  0  0  0  0  0  0  0  0  0  0
  1  2  1  0
  3  5  1  0
  3  2  1  0
  3  4  1  1
  5  7  1  0
  5  6  1  6
  7  9  1  0
  8  7  2  0
 10  9  1  0
 10 11  1  1
 11 12  1  0
 12 16  1  0
 13 12  2  0
 13 14  1  0
 14 15  1  0
 16 15  2  0
 17 18  2  0
 17 10  1  0
 19 17  1  0
 20 19  1  0
 21 20  1  0
 22 21  1  0
 22 23  1  0
 23 19  1  0
 23 24  1  1
 25 24  1  0
 26 24  2  0
M  END
$$$$
