IHP.pdb
     RDKit          3D

 26 27  0  0  1  0  0  0  0  0999 V2000
    6.7561  -11.8533   28.4974 C   0  0  0  0  0  0  0  0  0  0  0  0
    8.0736  -12.1171   27.8387 C   0  0  0  0  0  0  0  0  0  0  0  0
    7.9913  -13.2954   26.8829 C   0  0  2  0  0  0  0  0  0  0  0  0
    9.3328  -13.4592   26.2332 C   0  0  0  0  0  0  0  0  0  0  0  0
    6.8974  -12.9877   25.8765 C   0  0  2  0  0  0  0  0  0  0  0  0
    5.6247  -13.3724   26.4758 N   0  0  0  0  0  0  0  0  0  0  0  0
    7.0826  -13.7643   24.6254 C   0  0  0  0  0  0  0  0  0  0  0  0
    6.8852  -15.0035   24.6085 O   0  0  0  0  0  0  0  0  0  0  0  0
    7.4849  -13.1411   23.4155 N   0  0  0  0  0  0  0  0  0  0  0  0
    7.6927  -13.9069   22.1720 C   0  0  1  0  0  0  0  0  0  0  0  0
    7.9813  -12.9332   21.0454 C   0  0  0  0  0  0  0  0  0  0  0  0
    8.1970  -13.5668   19.7445 C   0  0  0  0  0  0  0  0  0  0  0  0
    7.4630  -13.3803   18.6043 C   0  0  0  0  0  0  0  0  0  0  0  0
    8.0250  -14.1639   17.6391 N   0  0  0  0  0  0  0  0  0  0  0  0
    9.0770  -14.8231   18.1487 C   0  0  0  0  0  0  0  0  0  0  0  0
    9.1663  -14.4474   19.4300 N   0  0  0  0  0  0  0  0  0  0  0  0
    8.6862  -14.9627   22.3514 C   0  0  0  0  0  0  0  0  0  0  0  0
    9.6884  -14.8115   23.1492 O   0  0  0  0  0  0  0  0  0  0  0  0
    8.6646  -16.2250   21.7030 N   0  0  0  0  0  0  0  0  0  0  0  0
    7.6537  -16.6813   20.7839 C   0  0  0  0  0  0  0  0  0  0  0  0
    7.4343  -18.1165   21.1763 C   0  0  0  0  0  0  0  0  0  0  0  0
    8.7237  -18.5729   21.7720 C   0  0  0  0  0  0  0  0  0  0  0  0
    9.6069  -17.3335   21.8073 C   0  0  1  0  0  0  0  0  0  0  0  0
   10.5096  -17.4464   20.6390 C   0  0  0  0  0  0  0  0  0  0  0  0
   11.5421  -18.3533   20.5235 O   0  0  0  0  0  0  0  0  0  0  0  0
   10.3140  -16.6516   19.6854 O   0  0  0  0  0  0  0  0  0  0  0  0
  1  2  1  0
  3  5  1  0
  3  2  1  0
  3  4  1  6
  5  7  1  0
  5  6  1  1
  7  9  1  0
  8  7  2  0
 10  9  1  0
 10 11  1  6
 11 12  1  0
 12 16  1  0
 13 12  2  0
 13 14  1  0
 14 15  1  0
 16 15  2  0
 17 18  2  0
 17 10  1  0
 19 17  1  0
 20 19  1  0
 21 20  1  0
 22 21  1  0
 22 23  1  0
 23 19  1  0
 23 24  1  6
 25 24  1  0
 26 24  2  0
M  END
$$$$
