HEA.pdb
     RDKit          3D

 25 25  0  0  1  0  0  0  0  0999 V2000
    9.3221  -15.7342   20.7296 N   0  0  0  0  0  0  0  0  0  0  0  0
    8.6631  -14.7613   21.5739 C   0  0  1  0  0  0  0  0  0  0  0  0
    7.2740  -14.5549   21.0296 C   0  0  0  0  0  0  0  0  0  0  0  0
    7.4098  -14.1685   19.6039 C   0  0  0  0  0  0  0  0  0  0  0  0
    8.0109  -13.0261   19.0842 C   0  0  0  0  0  0  0  0  0  0  0  0
    7.9250  -13.0514   17.7494 N   0  0  0  0  0  0  0  0  0  0  0  0
    7.2894  -14.1704   17.3896 C   0  0  0  0  0  0  0  0  0  0  0  0
    6.9808  -14.8418   18.5226 N   0  0  0  0  0  0  0  0  0  0  0  0
    8.6976  -15.2100   22.9643 C   0  0  0  0  0  0  0  0  0  0  0  0
    7.9977  -14.7134   23.8880 O   0  0  0  0  0  0  0  0  0  0  0  0
    9.5595  -16.2698   23.3429 N   0  0  0  0  0  0  0  0  0  0  0  0
    9.5858  -16.8389   24.6910 C   0  0  1  0  0  0  0  0  0  0  0  0
   10.2352  -18.1702   24.7209 C   0  0  0  0  0  0  0  0  0  0  0  0
   10.2914  -18.6949   26.1316 C   0  0  0  0  0  0  0  0  0  0  0  0
   10.9508  -20.0320   26.1827 C   0  0  0  0  0  0  0  0  0  0  0  0
   11.9191  -20.1990   26.9486 O   0  0  0  0  0  0  0  0  0  0  0  0
   10.1777  -15.8088   25.5610 C   0  0  0  0  0  0  0  0  0  0  0  0
   11.3253  -15.3488   25.3905 O   0  0  0  0  0  0  0  0  0  0  0  0
   10.5033  -21.0710   25.3995 O   0  0  0  0  0  0  0  0  0  0  0  0
    9.0363  -13.1799   27.7681 C   0  0  0  0  0  0  0  0  0  0  0  0
   10.0639  -14.2973   27.5826 C   0  0  2  0  0  0  0  0  0  0  0  0
    9.4641  -15.2551   26.6818 N   0  0  0  0  0  0  0  0  0  0  0  0
   10.3045  -14.8880   28.9190 C   0  0  0  0  0  0  0  0  0  0  0  0
   11.0182  -14.2576   29.9279 O   0  0  0  0  0  0  0  0  0  0  0  0
    9.8341  -16.0293   29.1540 O   0  0  0  0  0  0  0  0  0  0  0  0
  2  1  1  6
  3  2  1  0
  4  8  1  0
  4  3  1  0
  5  4  2  0
  6  5  1  0
  6  7  1  0
  7  8  2  0
  9  2  1  0
 10  9  2  0
 11  9  1  0
 12 11  1  0
 12 13  1  6
 13 14  1  0
 15 19  1  0
 15 14  1  0
 16 15  2  0
 17 22  1  0
 17 12  1  0
 18 17  2  0
 21 20  1  1
 21 22  1  0
 21 23  1  0
 23 24  1  0
 25 23  2  0
M  END
$$$$
