HEA.pdb
     RDKit          3D

 25 25  0  0  1  0  0  0  0  0999 V2000
    8.7171  -16.2446   19.9080 N   0  0  0  0  0  0  0  0  0  0  0  0
    8.2715  -15.0735   20.6314 C   0  0  1  0  0  0  0  0  0  0  0  0
    7.0752  -14.5184   19.9039 C   0  0  0  0  0  0  0  0  0  0  0  0
    7.5107  -14.1840   18.5260 C   0  0  0  0  0  0  0  0  0  0  0  0
    8.2602  -13.0871   18.1118 C   0  0  0  0  0  0  0  0  0  0  0  0
    8.4397  -13.1508   16.7877 N   0  0  0  0  0  0  0  0  0  0  0  0
    7.8322  -14.2506   16.3328 C   0  0  0  0  0  0  0  0  0  0  0  0
    7.2712  -14.8711   17.3958 N   0  0  0  0  0  0  0  0  0  0  0  0
    8.0108  -15.4240   22.0260 C   0  0  0  0  0  0  0  0  0  0  0  0
    6.8774  -15.3584   22.5745 O   0  0  0  0  0  0  0  0  0  0  0  0
    9.0726  -15.8716   22.8518 N   0  0  0  0  0  0  0  0  0  0  0  0
    8.9019  -16.2045   24.2667 C   0  0  1  0  0  0  0  0  0  0  0  0
    9.8531  -17.2497   24.7114 C   0  0  0  0  0  0  0  0  0  0  0  0
    9.6750  -17.5302   26.1805 C   0  0  0  0  0  0  0  0  0  0  0  0
   10.7067  -18.4877   26.6746 C   0  0  0  0  0  0  0  0  0  0  0  0
   10.9165  -18.5702   27.8999 O   0  0  0  0  0  0  0  0  0  0  0  0
    8.9523  -14.9278   24.9987 C   0  0  0  0  0  0  0  0  0  0  0  0
    9.9929  -14.2487   25.1153 O   0  0  0  0  0  0  0  0  0  0  0  0
   11.4206  -19.2719   25.7979 O   0  0  0  0  0  0  0  0  0  0  0  0
    6.4089  -12.6790   26.5900 C   0  0  0  0  0  0  0  0  0  0  0  0
    7.8508  -13.1646   26.4347 C   0  0  2  0  0  0  0  0  0  0  0  0
    7.7900  -14.3688   25.6380 N   0  0  0  0  0  0  0  0  0  0  0  0
    8.3615  -13.4417   27.7967 C   0  0  0  0  0  0  0  0  0  0  0  0
    8.6969  -14.7071   28.2560 O   0  0  0  0  0  0  0  0  0  0  0  0
    8.4997  -12.4726   28.5845 O   0  0  0  0  0  0  0  0  0  0  0  0
  2  1  1  6
  3  2  1  0
  4  8  1  0
  4  3  1  0
  5  4  2  0
  6  5  1  0
  6  7  1  0
  7  8  2  0
  9  2  1  0
 10  9  2  0
 11  9  1  0
 12 11  1  0
 12 13  1  1
 13 14  1  0
 15 19  1  0
 15 14  1  0
 16 15  2  0
 17 22  1  0
 17 12  1  0
 18 17  2  0
 21 20  1  1
 21 22  1  0
 21 23  1  0
 23 24  1  0
 25 23  2  0
M  END
$$$$
