HEA.pdb
     RDKit          3D

 25 25  0  0  1  0  0  0  0  0999 V2000
    8.6931  -17.1368   19.9380 N   0  0  0  0  0  0  0  0  0  0  0  0
    9.3856  -16.2739   20.8703 C   0  0  1  0  0  0  0  0  0  0  0  0
    8.4147  -15.2102   21.3114 C   0  0  0  0  0  0  0  0  0  0  0  0
    8.1073  -14.3724   20.1266 C   0  0  0  0  0  0  0  0  0  0  0  0
    8.6073  -14.5069   18.8349 C   0  0  0  0  0  0  0  0  0  0  0  0
    8.0829  -13.5525   18.0579 N   0  0  0  0  0  0  0  0  0  0  0  0
    7.2618  -12.8068   18.8030 C   0  0  0  0  0  0  0  0  0  0  0  0
    7.2835  -13.3126   20.0574 N   0  0  0  0  0  0  0  0  0  0  0  0
    9.9350  -17.0702   21.9657 C   0  0  0  0  0  0  0  0  0  0  0  0
    9.3041  -17.9816   22.5666 O   0  0  0  0  0  0  0  0  0  0  0  0
   11.2594  -16.8360   22.4136 N   0  0  0  0  0  0  0  0  0  0  0  0
   11.8986  -17.6209   23.4705 C   0  0  1  0  0  0  0  0  0  0  0  0
   13.3381  -17.8473   23.2029 C   0  0  0  0  0  0  0  0  0  0  0  0
   14.0729  -16.5341   23.1405 C   0  0  0  0  0  0  0  0  0  0  0  0
   15.5233  -16.7416   22.8598 C   0  0  0  0  0  0  0  0  0  0  0  0
   16.3354  -16.6816   23.8026 O   0  0  0  0  0  0  0  0  0  0  0  0
   11.5728  -16.9462   24.7382 C   0  0  0  0  0  0  0  0  0  0  0  0
   11.8682  -15.7567   24.9736 O   0  0  0  0  0  0  0  0  0  0  0  0
   15.9665  -16.9960   21.5823 O   0  0  0  0  0  0  0  0  0  0  0  0
    9.1524  -16.8432   27.2449 C   0  0  0  0  0  0  0  0  0  0  0  0
   10.6657  -17.0062   27.0958 C   0  0  2  0  0  0  0  0  0  0  0  0
   10.8826  -17.6211   25.8060 N   0  0  0  0  0  0  0  0  0  0  0  0
   11.1151  -17.8870   28.1980 C   0  0  0  0  0  0  0  0  0  0  0  0
   11.2329  -17.4777   29.5183 O   0  0  0  0  0  0  0  0  0  0  0  0
   11.4078  -19.0773   27.9213 O   0  0  0  0  0  0  0  0  0  0  0  0
  2  1  1  6
  3  2  1  0
  4  8  1  0
  4  3  1  0
  5  4  2  0
  6  5  1  0
  6  7  1  0
  7  8  2  0
  9  2  1  0
 10  9  2  0
 11  9  1  0
 12 11  1  0
 12 13  1  6
 13 14  1  0
 15 19  1  0
 15 14  1  0
 16 15  2  0
 17 22  1  0
 17 12  1  0
 18 17  2  0
 21 20  1  1
 21 22  1  0
 21 23  1  0
 23 24  1  0
 25 23  2  0
M  END
$$$$
