HEA.pdb
     RDKit          3D

 25 25  0  0  1  0  0  0  0  0999 V2000
    7.0406  -16.7194   20.6165 N   0  0  0  0  0  0  0  0  0  0  0  0
    7.4272  -15.5835   21.4251 C   0  0  1  0  0  0  0  0  0  0  0  0
    6.7352  -14.3696   20.8629 C   0  0  0  0  0  0  0  0  0  0  0  0
    7.5032  -13.9342   19.6709 C   0  0  0  0  0  0  0  0  0  0  0  0
    8.6423  -14.5224   19.1297 C   0  0  0  0  0  0  0  0  0  0  0  0
    9.0295  -13.8262   18.0550 N   0  0  0  0  0  0  0  0  0  0  0  0
    8.1799  -12.8091   17.8838 C   0  0  0  0  0  0  0  0  0  0  0  0
    7.2570  -12.8833   18.8698 N   0  0  0  0  0  0  0  0  0  0  0  0
    7.1186  -15.8485   22.8287 C   0  0  0  0  0  0  0  0  0  0  0  0
    5.9627  -15.7773   23.3271 O   0  0  0  0  0  0  0  0  0  0  0  0
    8.1565  -16.2124   23.7232 N   0  0  0  0  0  0  0  0  0  0  0  0
    7.9233  -16.5422   25.1298 C   0  0  1  0  0  0  0  0  0  0  0  0
    7.6704  -17.9885   25.3281 C   0  0  0  0  0  0  0  0  0  0  0  0
    7.5221  -18.2988   26.7945 C   0  0  0  0  0  0  0  0  0  0  0  0
    7.3961  -19.7675   27.0238 C   0  0  0  0  0  0  0  0  0  0  0  0
    7.4134  -20.5355   26.0431 O   0  0  0  0  0  0  0  0  0  0  0  0
    9.0560  -15.9731   25.8791 C   0  0  0  0  0  0  0  0  0  0  0  0
   10.2474  -16.2443   25.6250 O   0  0  0  0  0  0  0  0  0  0  0  0
    7.2626  -20.2752   28.2957 O   0  0  0  0  0  0  0  0  0  0  0  0
    9.5135  -13.2516   28.3843 C   0  0  0  0  0  0  0  0  0  0  0  0
    9.9593  -14.5884   27.7899 C   0  0  2  0  0  0  0  0  0  0  0  0
    8.8640  -15.0534   26.9696 N   0  0  0  0  0  0  0  0  0  0  0  0
   10.2107  -15.5033   28.9267 C   0  0  0  0  0  0  0  0  0  0  0  0
   11.3193  -15.4216   29.7568 O   0  0  0  0  0  0  0  0  0  0  0  0
    9.3695  -16.4088   29.1537 O   0  0  0  0  0  0  0  0  0  0  0  0
  2  1  1  6
  3  2  1  0
  4  8  1  0
  4  3  1  0
  5  4  2  0
  6  5  1  0
  6  7  1  0
  7  8  2  0
  9  2  1  0
 10  9  2  0
 11  9  1  0
 12 11  1  0
 12 13  1  6
 13 14  1  0
 15 19  1  0
 15 14  1  0
 16 15  2  0
 17 22  1  0
 17 12  1  0
 18 17  2  0
 21 20  1  1
 21 22  1  0
 21 23  1  0
 23 24  1  0
 25 23  2  0
M  END
$$$$
