HEA.pdb
     RDKit          3D

 25 25  0  0  1  0  0  0  0  0999 V2000
    8.2981  -16.8630   20.0205 N   0  0  0  0  0  0  0  0  0  0  0  0
    8.5566  -15.7409   20.8967 C   0  0  1  0  0  0  0  0  0  0  0  0
    7.4945  -14.7058   20.6339 C   0  0  0  0  0  0  0  0  0  0  0  0
    7.7463  -14.1458   19.2836 C   0  0  0  0  0  0  0  0  0  0  0  0
    8.7694  -14.4778   18.4007 C   0  0  0  0  0  0  0  0  0  0  0  0
    8.6453  -13.7463   17.2875 N   0  0  0  0  0  0  0  0  0  0  0  0
    7.5778  -12.9539   17.4212 C   0  0  0  0  0  0  0  0  0  0  0  0
    7.0388  -13.2039   18.6364 N   0  0  0  0  0  0  0  0  0  0  0  0
    8.6115  -16.1994   22.2832 C   0  0  0  0  0  0  0  0  0  0  0  0
    7.5969  -16.4233   22.9975 O   0  0  0  0  0  0  0  0  0  0  0  0
    9.8663  -16.4194   22.9049 N   0  0  0  0  0  0  0  0  0  0  0  0
   10.0062  -16.9081   24.2773 C   0  0  1  0  0  0  0  0  0  0  0  0
   11.0270  -17.9762   24.3867 C   0  0  0  0  0  0  0  0  0  0  0  0
   11.1771  -18.4134   25.8202 C   0  0  0  0  0  0  0  0  0  0  0  0
   12.2546  -19.4354   25.9612 C   0  0  0  0  0  0  0  0  0  0  0  0
   13.3615  -19.0873   26.4147 O   0  0  0  0  0  0  0  0  0  0  0  0
   10.2199  -15.7181   25.1179 C   0  0  0  0  0  0  0  0  0  0  0  0
   11.2576  -15.0264   25.0703 O   0  0  0  0  0  0  0  0  0  0  0  0
   12.0383  -20.7450   25.5985 O   0  0  0  0  0  0  0  0  0  0  0  0
    8.1325  -13.4832   27.1951 C   0  0  0  0  0  0  0  0  0  0  0  0
    9.4812  -14.1693   26.9726 C   0  0  2  0  0  0  0  0  0  0  0  0
    9.2339  -15.2657   26.0641 N   0  0  0  0  0  0  0  0  0  0  0  0
    9.9413  -14.6543   28.2939 C   0  0  0  0  0  0  0  0  0  0  0  0
   10.1036  -15.9944   28.6140 O   0  0  0  0  0  0  0  0  0  0  0  0
   10.2007  -13.8009   29.1790 O   0  0  0  0  0  0  0  0  0  0  0  0
  2  1  1  6
  3  2  1  0
  4  8  1  0
  4  3  1  0
  5  4  2  0
  6  5  1  0
  6  7  1  0
  7  8  2  0
  9  2  1  0
 10  9  2  0
 11  9  1  0
 12 11  1  0
 12 13  1  6
 13 14  1  0
 15 19  1  0
 15 14  1  0
 16 15  2  0
 17 22  1  0
 17 12  1  0
 18 17  2  0
 21 20  1  1
 21 22  1  0
 21 23  1  0
 23 24  1  0
 25 23  2  0
M  END
$$$$
