HEA.pdb
     RDKit          3D

 25 25  0  0  1  0  0  0  0  0999 V2000
    9.4969  -15.5652   18.8201 N   0  0  0  0  0  0  0  0  0  0  0  0
    8.4424  -14.9744   19.6153 C   0  0  1  0  0  0  0  0  0  0  0  0
    7.1516  -15.1489   18.8591 C   0  0  0  0  0  0  0  0  0  0  0  0
    7.3209  -14.4970   17.5376 C   0  0  0  0  0  0  0  0  0  0  0  0
    7.4169  -13.1357   17.2650 C   0  0  0  0  0  0  0  0  0  0  0  0
    7.5622  -12.9595   15.9468 N   0  0  0  0  0  0  0  0  0  0  0  0
    7.5633  -14.1596   15.3592 C   0  0  0  0  0  0  0  0  0  0  0  0
    7.4163  -15.0865   16.3334 N   0  0  0  0  0  0  0  0  0  0  0  0
    8.4366  -15.5710   20.9494 C   0  0  0  0  0  0  0  0  0  0  0  0
    7.4351  -15.5878   21.7152 O   0  0  0  0  0  0  0  0  0  0  0  0
    9.6120  -16.1813   21.4550 N   0  0  0  0  0  0  0  0  0  0  0  0
    9.6965  -16.7740   22.7904 C   0  0  1  0  0  0  0  0  0  0  0  0
   10.6845  -17.8765   22.8488 C   0  0  0  0  0  0  0  0  0  0  0  0
   10.7841  -18.4178   24.2508 C   0  0  0  0  0  0  0  0  0  0  0  0
   11.8804  -19.4233   24.3629 C   0  0  0  0  0  0  0  0  0  0  0  0
   13.0632  -19.0351   24.3131 O   0  0  0  0  0  0  0  0  0  0  0  0
    9.9160  -15.6562   23.7235 C   0  0  0  0  0  0  0  0  0  0  0  0
   10.9196  -14.9157   23.6771 O   0  0  0  0  0  0  0  0  0  0  0  0
   11.5991  -20.7610   24.5192 O   0  0  0  0  0  0  0  0  0  0  0  0
    7.8192  -13.5419   25.8186 C   0  0  0  0  0  0  0  0  0  0  0  0
    9.1766  -14.2316   25.6750 C   0  0  2  0  0  0  0  0  0  0  0  0
    8.9762  -15.3372   24.7661 N   0  0  0  0  0  0  0  0  0  0  0  0
    9.5655  -14.7032   27.0237 C   0  0  0  0  0  0  0  0  0  0  0  0
    9.9498  -13.8621   28.0579 O   0  0  0  0  0  0  0  0  0  0  0  0
    9.5464  -15.9399   27.2456 O   0  0  0  0  0  0  0  0  0  0  0  0
  2  1  1  6
  3  2  1  0
  4  8  1  0
  4  3  1  0
  5  4  2  0
  6  5  1  0
  6  7  1  0
  7  8  2  0
  9  2  1  0
 10  9  2  0
 11  9  1  0
 12 11  1  0
 12 13  1  6
 13 14  1  0
 15 19  1  0
 15 14  1  0
 16 15  2  0
 17 22  1  0
 17 12  1  0
 18 17  2  0
 21 20  1  1
 21 22  1  0
 21 23  1  0
 23 24  1  0
 25 23  2  0
M  END
$$$$
