HEA.pdb
     RDKit          3D

 25 25  0  0  1  0  0  0  0  0999 V2000
    7.6531  -17.4418   20.3666 N   0  0  0  0  0  0  0  0  0  0  0  0
    8.5303  -16.4445   20.9406 C   0  0  1  0  0  0  0  0  0  0  0  0
    7.6705  -15.3020   21.4139 C   0  0  0  0  0  0  0  0  0  0  0  0
    7.7603  -14.2282   20.3945 C   0  0  0  0  0  0  0  0  0  0  0  0
    8.4904  -14.2368   19.2099 C   0  0  0  0  0  0  0  0  0  0  0  0
    8.3050  -13.0769   18.5697 N   0  0  0  0  0  0  0  0  0  0  0  0
    7.4808  -12.3200   19.2999 C   0  0  0  0  0  0  0  0  0  0  0  0
    7.1557  -13.0278   20.4058 N   0  0  0  0  0  0  0  0  0  0  0  0
    9.3468  -17.0503   21.9903 C   0  0  0  0  0  0  0  0  0  0  0  0
    8.9870  -18.0358   22.6897 O   0  0  0  0  0  0  0  0  0  0  0  0
   10.6336  -16.5276   22.2740 N   0  0  0  0  0  0  0  0  0  0  0  0
   11.5330  -17.1093   23.2712 C   0  0  1  0  0  0  0  0  0  0  0  0
   12.9293  -16.6441   23.1005 C   0  0  0  0  0  0  0  0  0  0  0  0
   13.8252  -17.2859   24.1271 C   0  0  0  0  0  0  0  0  0  0  0  0
   15.2461  -16.8746   23.9338 C   0  0  0  0  0  0  0  0  0  0  0  0
   15.4905  -15.7337   23.4971 O   0  0  0  0  0  0  0  0  0  0  0  0
   10.9178  -16.8468   24.5830 C   0  0  0  0  0  0  0  0  0  0  0  0
   10.7768  -15.6993   25.0532 O   0  0  0  0  0  0  0  0  0  0  0  0
   16.2776  -17.7354   24.2307 O   0  0  0  0  0  0  0  0  0  0  0  0
    8.4498  -18.1094   26.7291 C   0  0  0  0  0  0  0  0  0  0  0  0
    9.9140  -17.6685   26.7514 C   0  0  2  0  0  0  0  0  0  0  0  0
   10.4307  -17.9091   25.4234 N   0  0  0  0  0  0  0  0  0  0  0  0
   10.6015  -18.5069   27.7599 C   0  0  0  0  0  0  0  0  0  0  0  0
   10.4856  -18.3225   29.1301 O   0  0  0  0  0  0  0  0  0  0  0  0
   11.3343  -19.4420   27.3507 O   0  0  0  0  0  0  0  0  0  0  0  0
  2  1  1  1
  3  2  1  0
  4  8  1  0
  4  3  1  0
  5  4  2  0
  6  5  1  0
  6  7  1  0
  7  8  2  0
  9  2  1  0
 10  9  2  0
 11  9  1  0
 12 11  1  0
 12 13  1  1
 13 14  1  0
 15 19  1  0
 15 14  1  0
 16 15  2  0
 17 22  1  0
 17 12  1  0
 18 17  2  0
 21 20  1  6
 21 22  1  0
 21 23  1  0
 23 24  1  0
 25 23  2  0
M  END
$$$$
