HEA.pdb
     RDKit          3D

 25 25  0  0  1  0  0  0  0  0999 V2000
    8.0061  -17.1316   20.7860 N   0  0  0  0  0  0  0  0  0  0  0  0
    8.3760  -16.0033   21.6127 C   0  0  1  0  0  0  0  0  0  0  0  0
    7.3690  -14.9107   21.3665 C   0  0  0  0  0  0  0  0  0  0  0  0
    7.8976  -14.0595   20.2727 C   0  0  0  0  0  0  0  0  0  0  0  0
    9.0844  -14.2216   19.5645 C   0  0  0  0  0  0  0  0  0  0  0  0
    9.1951  -13.2422   18.6601 N   0  0  0  0  0  0  0  0  0  0  0  0
    8.1211  -12.4535   18.7599 C   0  0  0  0  0  0  0  0  0  0  0  0
    7.3393  -12.9581   19.7417 N   0  0  0  0  0  0  0  0  0  0  0  0
    8.4693  -16.4238   23.0092 C   0  0  0  0  0  0  0  0  0  0  0  0
    7.4793  -16.5539   23.7791 O   0  0  0  0  0  0  0  0  0  0  0  0
    9.7358  -16.7144   23.5759 N   0  0  0  0  0  0  0  0  0  0  0  0
    9.9124  -17.1551   24.9602 C   0  0  1  0  0  0  0  0  0  0  0  0
   10.8492  -18.2980   25.0657 C   0  0  0  0  0  0  0  0  0  0  0  0
   11.0427  -18.6863   26.5080 C   0  0  0  0  0  0  0  0  0  0  0  0
   12.0243  -19.8021   26.6380 C   0  0  0  0  0  0  0  0  0  0  0  0
   13.2354  -19.5313   26.7470 O   0  0  0  0  0  0  0  0  0  0  0  0
   10.2667  -15.9526   25.7327 C   0  0  0  0  0  0  0  0  0  0  0  0
   11.2710  -15.2541   25.4853 O   0  0  0  0  0  0  0  0  0  0  0  0
   11.6076  -21.1134   26.6385 O   0  0  0  0  0  0  0  0  0  0  0  0
    8.6433  -13.5684   27.9700 C   0  0  0  0  0  0  0  0  0  0  0  0
    9.8899  -14.4122   27.6999 C   0  0  2  0  0  0  0  0  0  0  0  0
    9.4690  -15.4947   26.8399 N   0  0  0  0  0  0  0  0  0  0  0  0
   10.3629  -14.9144   29.0102 C   0  0  0  0  0  0  0  0  0  0  0  0
   11.0087  -14.1289   29.9540 O   0  0  0  0  0  0  0  0  0  0  0  0
   10.1680  -16.1251   29.2844 O   0  0  0  0  0  0  0  0  0  0  0  0
  2  1  1  6
  3  2  1  0
  4  8  1  0
  4  3  1  0
  5  4  2  0
  6  5  1  0
  6  7  1  0
  7  8  2  0
  9  2  1  0
 10  9  2  0
 11  9  1  0
 12 11  1  0
 12 13  1  6
 13 14  1  0
 15 19  1  0
 15 14  1  0
 16 15  2  0
 17 22  1  0
 17 12  1  0
 18 17  2  0
 21 20  1  1
 21 22  1  0
 21 23  1  0
 23 24  1  0
 25 23  2  0
M  END
$$$$
