RWQ.pdb
     RDKit          3D

 35 36  0  0  1  0  0  0  0  0999 V2000
   25.8566  -17.8122  -17.0706 N   0  0  0  0  0  0  0  0  0  0  0  0
   27.1155  -17.3749  -17.5729 C   0  0  0  0  0  0  0  0  0  0  0  0
   27.2419  -17.1463  -18.8309 N   0  0  0  0  0  0  0  0  0  0  0  0
   28.2193  -17.1882  -16.7190 N   0  0  0  0  0  0  0  0  0  0  0  0
   28.0711  -17.3371  -15.2936 C   0  0  0  0  0  0  0  0  0  0  0  0
   28.7336  -18.6398  -14.8393 C   0  0  0  0  0  0  0  0  0  0  0  0
   27.7527  -19.4000  -14.0125 C   0  0  0  0  0  0  0  0  0  0  0  0
   28.2871  -20.6789  -13.4183 C   0  0  2  0  0  0  0  0  0  0  0  0
   28.8243  -21.6012  -14.3681 N   0  0  0  0  0  0  0  0  0  0  0  0
   27.1846  -21.2548  -12.5830 C   0  0  0  0  0  0  0  0  0  0  0  0
   26.3719  -22.0298  -13.1247 O   0  0  0  0  0  0  0  0  0  0  0  0
   28.1033  -16.7545  -19.2624 N   0  0  0  0  0  0  0  0  0  0  0  0
   27.1298  -20.8818  -11.2189 C   0  0  2  0  0  0  0  0  0  0  0  0
   26.0785  -21.4359  -10.4165 C   0  0  0  0  0  0  0  0  0  0  0  0
   26.4312  -21.7549   -9.0136 C   0  0  0  0  0  0  0  0  0  0  0  0
   26.7329  -20.6072   -8.1569 C   0  0  0  0  0  0  0  0  0  0  0  0
   26.4072  -19.2934   -8.3792 N   0  0  0  0  0  0  0  0  0  0  0  0
   26.8369  -18.5093   -7.3745 C   0  0  0  0  0  0  0  0  0  0  0  0
   27.4519  -19.3115   -6.4819 C   0  0  0  0  0  0  0  0  0  0  0  0
   28.0602  -18.9757   -5.2866 C   0  0  0  0  0  0  0  0  0  0  0  0
   28.6258  -19.9866   -4.5482 C   0  0  0  0  0  0  0  0  0  0  0  0
   28.5797  -21.2890   -4.9996 C   0  0  0  0  0  0  0  0  0  0  0  0
   27.9700  -21.6050   -6.1933 C   0  0  0  0  0  0  0  0  0  0  0  0
   27.4001  -20.6240   -6.9475 C   0  0  0  0  0  0  0  0  0  0  0  0
   24.9866  -20.3810  -10.3589 O   0  0  0  0  0  0  0  0  0  0  0  0
   25.2815  -19.1575  -10.3679 N   0  0  0  0  0  0  0  0  0  0  0  0
   24.3398  -22.4081  -14.8047 C   0  0  0  0  0  0  0  0  0  0  0  0
   22.9807  -22.0198  -14.9588 O   0  0  0  0  0  0  0  0  0  0  0  0
   22.4516  -22.1012  -16.0848 C   0  0  0  0  0  0  0  0  0  0  0  0
   22.2511  -21.5285  -13.7513 C   0  0  0  0  0  0  0  0  0  0  0  0
   23.1357  -21.5611  -12.5346 C   0  0  1  0  0  0  0  0  0  0  0  0
   22.7687  -20.5824  -11.4694 N   0  0  0  0  0  0  0  0  0  0  0  0
   23.6189  -20.7066  -10.2959 C   0  0  0  0  0  0  0  0  0  0  0  0
   21.3424  -20.6384  -11.0619 O   0  0  0  0  0  0  0  0  0  0  0  0
   20.8985  -21.1951  -10.0352 O   0  0  0  0  0  0  0  0  0  0  0  0
  2  1  1  0
  3  2  2  0
  4  2  1  0
  5  4  1  0
  6  5  1  0
  7  6  1  0
  8 10  1  0
  8  7  1  0
  8  9  1  6
 10 11  2  0
 10 12  1  0
 12 13  1  0
 13 24  1  0
 13 14  1  6
 15 16  2  0
 15 14  1  0
 17 16  1  0
 18 23  2  0
 18 17  1  0
 19 18  1  0
 20 21  1  0
 20 19  2  0
 21 22  2  0
 22 23  1  0
 23 15  1  0
 24 25  2  0
 24 32  1  0
 27 29  1  0
 27 26  1  0
 28 27  2  0
 31 30  1  6
 30 29  1  0
 31 33  1  0
 32 31  1  0
 33 34  2  0
 33 35  1  0
M  END
$$$$
