RWQ.pdb
     RDKit          3D

 35 36  0  0  1  0  0  0  0  0999 V2000
   25.7123  -25.1915  -18.0106 N   0  0  0  0  0  0  0  0  0  0  0  0
   25.3695  -24.9872  -19.3778 C   0  0  0  0  0  0  0  0  0  0  0  0
   24.7660  -25.9235  -20.0180 N   0  0  0  0  0  0  0  0  0  0  0  0
   25.6776  -23.7821  -20.0375 N   0  0  0  0  0  0  0  0  0  0  0  0
   26.1859  -22.6555  -19.2968 C   0  0  0  0  0  0  0  0  0  0  0  0
   27.0489  -23.1497  -18.1336 C   0  0  0  0  0  0  0  0  0  0  0  0
   26.4217  -22.6949  -16.8595 C   0  0  0  0  0  0  0  0  0  0  0  0
   27.3860  -22.5033  -15.7160 C   0  0  2  0  0  0  0  0  0  0  0  0
   28.4993  -23.3989  -15.7156 N   0  0  0  0  0  0  0  0  0  0  0  0
   26.5734  -22.5587  -14.4584 C   0  0  0  0  0  0  0  0  0  0  0  0
   26.0076  -23.6300  -14.1636 O   0  0  0  0  0  0  0  0  0  0  0  0
   24.4149  -25.8230  -20.9918 N   0  0  0  0  0  0  0  0  0  0  0  0
   26.4946  -21.3832  -13.6742 C   0  0  1  0  0  0  0  0  0  0  0  0
   25.7239  -21.4365  -12.4662 C   0  0  0  0  0  0  0  0  0  0  0  0
   26.1449  -20.5148  -11.3858 C   0  0  0  0  0  0  0  0  0  0  0  0
   27.3801  -20.8749  -10.6879 C   0  0  0  0  0  0  0  0  0  0  0  0
   28.5290  -21.3845  -11.2372 N   0  0  0  0  0  0  0  0  0  0  0  0
   29.4684  -21.5890  -10.2967 C   0  0  0  0  0  0  0  0  0  0  0  0
   28.9354  -21.2122   -9.1167 C   0  0  0  0  0  0  0  0  0  0  0  0
   29.5069  -21.2361   -7.8580 C   0  0  0  0  0  0  0  0  0  0  0  0
   28.7482  -20.7970   -6.8003 C   0  0  0  0  0  0  0  0  0  0  0  0
   27.4595  -20.3503   -7.0051 C   0  0  0  0  0  0  0  0  0  0  0  0
   26.9062  -20.3344   -8.2661 C   0  0  0  0  0  0  0  0  0  0  0  0
   27.6341  -20.7634   -9.3346 C   0  0  0  0  0  0  0  0  0  0  0  0
   24.3081  -21.0383  -12.8473 O   0  0  0  0  0  0  0  0  0  0  0  0
   24.1024  -20.0247  -13.5645 N   0  0  0  0  0  0  0  0  0  0  0  0
   19.1915  -24.6378  -12.7771 C   0  0  0  0  0  0  0  0  0  0  0  0
   18.6086  -23.4095  -13.1935 O   0  0  0  0  0  0  0  0  0  0  0  0
   17.3980  -23.3835  -13.4898 C   0  0  0  0  0  0  0  0  0  0  0  0
   19.4871  -22.2027  -13.2559 C   0  0  0  0  0  0  0  0  0  0  0  0
   20.8986  -22.5402  -12.8589 C   0  0  1  0  0  0  0  0  0  0  0  0
   21.8441  -21.3856  -12.8726 N   0  0  0  0  0  0  0  0  0  0  0  0
   23.1769  -21.7647  -12.4308 C   0  0  0  0  0  0  0  0  0  0  0  0
   21.3751  -20.2107  -12.0961 O   0  0  0  0  0  0  0  0  0  0  0  0
   20.5798  -19.3373  -12.5035 O   0  0  0  0  0  0  0  0  0  0  0  0
  2  1  1  0
  3  2  2  0
  4  2  1  0
  5  4  1  0
  6  5  1  0
  7  6  1  0
  8 10  1  0
  8  7  1  0
  8  9  1  1
 10 11  2  0
 10 12  1  0
 12 13  1  0
 13 24  1  0
 13 14  1  1
 15 16  2  0
 15 14  1  0
 17 16  1  0
 18 23  2  0
 18 17  1  0
 19 18  1  0
 20 21  1  0
 20 19  2  0
 21 22  2  0
 22 23  1  0
 23 15  1  0
 24 25  2  0
 24 32  1  0
 27 29  1  0
 27 26  1  0
 28 27  2  0
 31 30  1  6
 30 29  1  0
 31 33  1  0
 32 31  1  0
 33 34  2  0
 33 35  1  0
M  END
$$$$
