RWQ.pdb
     RDKit          3D

 35 36  0  0  1  0  0  0  0  0999 V2000
   27.2030  -20.6147  -20.4032 N   0  0  0  0  0  0  0  0  0  0  0  0
   26.7966  -21.8796  -20.9164 C   0  0  0  0  0  0  0  0  0  0  0  0
   27.0466  -22.1665  -22.1435 N   0  0  0  0  0  0  0  0  0  0  0  0
   26.1296  -22.8182  -20.1060 N   0  0  0  0  0  0  0  0  0  0  0  0
   25.8603  -22.5242  -18.7214 C   0  0  0  0  0  0  0  0  0  0  0  0
   26.8652  -23.2607  -17.8327 C   0  0  0  0  0  0  0  0  0  0  0  0
   26.3708  -23.2109  -16.4267 C   0  0  0  0  0  0  0  0  0  0  0  0
   25.1082  -23.9960  -16.1748 C   0  0  2  0  0  0  0  0  0  0  0  0
   24.1793  -23.9998  -17.2603 N   0  0  0  0  0  0  0  0  0  0  0  0
   24.5298  -23.4751  -14.8945 C   0  0  0  0  0  0  0  0  0  0  0  0
   25.2084  -23.5732  -13.8530 O   0  0  0  0  0  0  0  0  0  0  0  0
   26.7574  -23.0558  -22.5986 N   0  0  0  0  0  0  0  0  0  0  0  0
   23.2380  -22.8991  -14.9429 C   0  0  2  0  0  0  0  0  0  0  0  0
   22.7773  -22.1935  -13.7829 C   0  0  0  0  0  0  0  0  0  0  0  0
   23.3312  -20.8337  -13.5870 C   0  0  0  0  0  0  0  0  0  0  0  0
   24.4974  -20.7426  -12.7073 C   0  0  0  0  0  0  0  0  0  0  0  0
   25.8188  -20.7244  -13.0749 N   0  0  0  0  0  0  0  0  0  0  0  0
   26.6210  -20.6236  -12.0002 C   0  0  0  0  0  0  0  0  0  0  0  0
   25.8232  -20.5755  -10.9141 C   0  0  0  0  0  0  0  0  0  0  0  0
   26.1756  -20.4754   -9.5809 C   0  0  0  0  0  0  0  0  0  0  0  0
   25.1654  -20.4476   -8.6504 C   0  0  0  0  0  0  0  0  0  0  0  0
   23.8474  -20.5184   -9.0505 C   0  0  0  0  0  0  0  0  0  0  0  0
   23.5150  -20.6185  -10.3832 C   0  0  0  0  0  0  0  0  0  0  0  0
   24.4949  -20.6482  -11.3291 C   0  0  0  0  0  0  0  0  0  0  0  0
   21.2766  -22.0288  -13.9536 O   0  0  0  0  0  0  0  0  0  0  0  0
   20.7995  -21.6316  -15.0485 N   0  0  0  0  0  0  0  0  0  0  0  0
   16.8046  -24.1264  -10.1107 C   0  0  0  0  0  0  0  0  0  0  0  0
   17.5072  -24.9819  -11.0031 O   0  0  0  0  0  0  0  0  0  0  0  0
   17.4577  -26.2148  -10.8250 C   0  0  0  0  0  0  0  0  0  0  0  0
   18.2768  -24.3516  -12.1177 C   0  0  0  0  0  0  0  0  0  0  0  0
   18.1237  -22.8549  -12.1019 C   0  0  2  0  0  0  0  0  0  0  0  0
   18.9309  -22.1338  -13.1294 N   0  0  0  0  0  0  0  0  0  0  0  0
   20.3600  -22.3065  -12.9223 C   0  0  0  0  0  0  0  0  0  0  0  0
   18.6130  -20.6883  -13.2431 O   0  0  0  0  0  0  0  0  0  0  0  0
   19.0578  -19.7834  -12.5052 O   0  0  0  0  0  0  0  0  0  0  0  0
  2  1  1  0
  3  2  2  0
  4  2  1  0
  5  4  1  0
  6  5  1  0
  7  6  1  0
  8 10  1  0
  8  7  1  0
  8  9  1  6
 10 11  2  0
 10 12  1  0
 12 13  1  0
 13 24  1  0
 13 14  1  1
 15 16  2  0
 15 14  1  0
 17 16  1  0
 18 23  2  0
 18 17  1  0
 19 18  1  0
 20 21  1  0
 20 19  2  0
 21 22  2  0
 22 23  1  0
 23 15  1  0
 24 25  2  0
 24 32  1  0
 27 29  1  0
 27 26  1  0
 28 27  2  0
 31 30  1  6
 30 29  1  0
 31 33  1  0
 32 31  1  0
 33 34  2  0
 33 35  1  0
M  END
$$$$
