LEF.pdb
     RDKit          3D

 29 29  0  0  1  0  0  0  0  0999 V2000
    8.6998  -13.1840   19.0750 C   0  0  0  0  0  0  0  0  0  0  0  0
    7.5239  -13.3681   20.0484 C   0  0  2  0  0  0  0  0  0  0  0  0
    7.0897  -11.9861   20.4316 C   0  0  0  0  0  0  0  0  0  0  0  0
    8.0436  -14.1920   21.1658 C   0  0  0  0  0  0  0  0  0  0  0  0
    8.4828  -15.5774   20.8348 C   0  0  2  0  0  0  0  0  0  0  0  0
    7.4020  -16.3082   20.2162 N   0  0  0  0  0  0  0  0  0  0  0  0
    8.7883  -16.2436   22.1461 C   0  0  0  0  0  0  0  0  0  0  0  0
    7.9183  -16.8117   22.8516 O   0  0  0  0  0  0  0  0  0  0  0  0
   10.1221  -16.2395   22.6267 N   0  0  0  0  0  0  0  0  0  0  0  0
   10.5592  -17.1325   23.7360 C   0  0  1  0  0  0  0  0  0  0  0  0
   11.8784  -17.6662   23.2993 C   0  0  0  0  0  0  0  0  0  0  0  0
   11.9143  -18.5156   22.0865 C   0  0  0  0  0  0  0  0  0  0  0  0
   13.0053  -19.5177   22.1549 C   0  0  0  0  0  0  0  0  0  0  0  0
   14.1558  -19.2744   22.5857 O   0  0  0  0  0  0  0  0  0  0  0  0
   10.5777  -16.3109   24.9609 C   0  0  0  0  0  0  0  0  0  0  0  0
   11.3227  -15.2905   25.0681 O   0  0  0  0  0  0  0  0  0  0  0  0
   12.7992  -20.8409   21.7243 O   0  0  0  0  0  0  0  0  0  0  0  0
    9.7504  -16.6485   26.0525 N   0  0  0  0  0  0  0  0  0  0  0  0
    9.9585  -15.9900   27.3505 C   0  0  1  0  0  0  0  0  0  0  0  0
    8.6431  -15.4715   27.8561 C   0  0  0  0  0  0  0  0  0  0  0  0
    8.2080  -14.3166   27.0578 C   0  0  0  0  0  0  0  0  0  0  0  0
    7.1253  -14.4132   26.1839 C   0  0  0  0  0  0  0  0  0  0  0  0
    6.6879  -13.3353   25.4496 C   0  0  0  0  0  0  0  0  0  0  0  0
    7.3172  -12.1191   25.5611 C   0  0  0  0  0  0  0  0  0  0  0  0
    8.3925  -11.9864   26.4166 C   0  0  0  0  0  0  0  0  0  0  0  0
    8.8191  -13.0896   27.1509 C   0  0  0  0  0  0  0  0  0  0  0  0
   10.5879  -16.9219   28.3011 C   0  0  0  0  0  0  0  0  0  0  0  0
   10.7557  -18.1574   28.0134 O   0  0  0  0  0  0  0  0  0  0  0  0
   11.0209  -16.4877   29.5365 O   0  0  0  0  0  0  0  0  0  0  0  0
  2  3  1  1
  2  1  1  0
  4  2  1  0
  5  4  1  0
  5  6  1  1
  7  8  2  0
  7  5  1  0
  9  7  1  0
 10  9  1  0
 10 11  1  6
 12 13  1  0
 12 11  1  0
 13 14  2  0
 15 16  2  0
 15 10  1  0
 17 13  1  0
 18 15  1  0
 19 20  1  1
 19 18  1  0
 21 20  1  0
 21 22  2  0
 23 22  1  0
 24 23  2  0
 25 26  2  0
 25 24  1  0
 26 21  1  0
 27 19  1  0
 28 27  2  0
 29 27  1  0
M  END
$$$$
