LEF.pdb
     RDKit          3D

 29 29  0  0  1  0  0  0  0  0999 V2000
    8.8938  -13.4374   18.9255 C   0  0  0  0  0  0  0  0  0  0  0  0
    7.8396  -13.4310   20.0450 C   0  0  2  0  0  0  0  0  0  0  0  0
    7.6759  -11.9962   20.4446 C   0  0  0  0  0  0  0  0  0  0  0  0
    8.3673  -14.3193   21.1080 C   0  0  0  0  0  0  0  0  0  0  0  0
    8.4528  -15.7733   20.7911 C   0  0  2  0  0  0  0  0  0  0  0  0
    7.1425  -16.2929   20.4786 N   0  0  0  0  0  0  0  0  0  0  0  0
    8.9200  -16.4485   22.0491 C   0  0  0  0  0  0  0  0  0  0  0  0
    8.1417  -16.8346   22.9560 O   0  0  0  0  0  0  0  0  0  0  0  0
   10.3078  -16.6684   22.2384 N   0  0  0  0  0  0  0  0  0  0  0  0
   10.8350  -17.3584   23.4488 C   0  0  1  0  0  0  0  0  0  0  0  0
   12.0678  -18.0527   22.9859 C   0  0  0  0  0  0  0  0  0  0  0  0
   11.9230  -19.1073   21.9561 C   0  0  0  0  0  0  0  0  0  0  0  0
   13.1573  -19.2523   21.1470 C   0  0  0  0  0  0  0  0  0  0  0  0
   13.2432  -18.9430   19.9364 O   0  0  0  0  0  0  0  0  0  0  0  0
   11.0361  -16.3196   24.4764 C   0  0  0  0  0  0  0  0  0  0  0  0
   11.7202  -15.2773   24.2459 O   0  0  0  0  0  0  0  0  0  0  0  0
   14.3383  -19.7629   21.7155 O   0  0  0  0  0  0  0  0  0  0  0  0
   10.4583  -16.4671   25.7548 N   0  0  0  0  0  0  0  0  0  0  0  0
   10.9058  -15.6025   26.8567 C   0  0  1  0  0  0  0  0  0  0  0  0
   10.6887  -14.1665   26.4749 C   0  0  0  0  0  0  0  0  0  0  0  0
    9.2512  -13.8696   26.3980 C   0  0  0  0  0  0  0  0  0  0  0  0
    8.6318  -13.0615   27.3511 C   0  0  0  0  0  0  0  0  0  0  0  0
    7.2934  -12.7515   27.2793 C   0  0  0  0  0  0  0  0  0  0  0  0
    6.5231  -13.2385   26.2511 C   0  0  0  0  0  0  0  0  0  0  0  0
    7.1027  -14.0416   25.2894 C   0  0  0  0  0  0  0  0  0  0  0  0
    8.4588  -14.3431   25.3804 C   0  0  0  0  0  0  0  0  0  0  0  0
   10.2032  -15.9561   28.1014 C   0  0  0  0  0  0  0  0  0  0  0  0
   10.4207  -15.3256   29.1934 O   0  0  0  0  0  0  0  0  0  0  0  0
    9.2815  -16.9819   28.1271 O   0  0  0  0  0  0  0  0  0  0  0  0
  2  3  1  1
  2  1  1  0
  4  2  1  0
  5  4  1  0
  5  6  1  1
  7  8  2  0
  7  5  1  0
  9  7  1  0
 10  9  1  0
 10 11  1  6
 12 13  1  0
 12 11  1  0
 13 14  2  0
 15 16  2  0
 15 10  1  0
 17 13  1  0
 18 15  1  0
 19 20  1  6
 19 18  1  0
 21 20  1  0
 21 22  2  0
 23 22  1  0
 24 23  2  0
 25 26  2  0
 25 24  1  0
 26 21  1  0
 27 19  1  0
 28 27  2  0
 29 27  1  0
M  END
$$$$
