LEF.pdb
     RDKit          3D

 29 29  0  0  1  0  0  0  0  0999 V2000
    8.4765  -12.2179   19.2512 C   0  0  0  0  0  0  0  0  0  0  0  0
    7.7089  -13.5426   19.1084 C   0  0  2  0  0  0  0  0  0  0  0  0
    6.3232  -13.1682   18.6784 C   0  0  0  0  0  0  0  0  0  0  0  0
    7.7945  -14.2088   20.4298 C   0  0  0  0  0  0  0  0  0  0  0  0
    9.1585  -14.4137   20.9948 C   0  0  2  0  0  0  0  0  0  0  0  0
    9.9899  -15.1172   20.0469 N   0  0  0  0  0  0  0  0  0  0  0  0
    8.9854  -15.3028   22.1933 C   0  0  0  0  0  0  0  0  0  0  0  0
    7.9876  -15.2502   22.9541 O   0  0  0  0  0  0  0  0  0  0  0  0
    9.9911  -16.2553   22.4955 N   0  0  0  0  0  0  0  0  0  0  0  0
    9.8330  -17.2385   23.6033 C   0  0  1  0  0  0  0  0  0  0  0  0
   10.7949  -18.3294   23.2858 C   0  0  0  0  0  0  0  0  0  0  0  0
   10.8782  -19.4733   24.2229 C   0  0  0  0  0  0  0  0  0  0  0  0
   11.8966  -20.4602   23.7894 C   0  0  0  0  0  0  0  0  0  0  0  0
   12.2333  -21.4624   24.4609 O   0  0  0  0  0  0  0  0  0  0  0  0
   10.0889  -16.5086   24.8592 C   0  0  0  0  0  0  0  0  0  0  0  0
   11.0547  -15.6949   24.9726 O   0  0  0  0  0  0  0  0  0  0  0  0
   12.5623  -20.3185   22.5584 O   0  0  0  0  0  0  0  0  0  0  0  0
    9.2475  -16.7024   25.9748 N   0  0  0  0  0  0  0  0  0  0  0  0
    9.6171  -16.1166   27.2718 C   0  0  1  0  0  0  0  0  0  0  0  0
    8.4017  -15.4913   27.8937 C   0  0  0  0  0  0  0  0  0  0  0  0
    8.0442  -14.2540   27.1855 C   0  0  0  0  0  0  0  0  0  0  0  0
    8.8980  -13.1511   27.1888 C   0  0  0  0  0  0  0  0  0  0  0  0
    8.5915  -11.9951   26.5091 C   0  0  0  0  0  0  0  0  0  0  0  0
    7.4188  -11.8978   25.8000 C   0  0  0  0  0  0  0  0  0  0  0  0
    6.5494  -12.9698   25.7742 C   0  0  0  0  0  0  0  0  0  0  0  0
    6.8786  -14.1308   26.4687 C   0  0  0  0  0  0  0  0  0  0  0  0
   10.2190  -17.1405   28.1420 C   0  0  0  0  0  0  0  0  0  0  0  0
   10.2414  -18.3746   27.8046 O   0  0  0  0  0  0  0  0  0  0  0  0
   10.7832  -16.7975   29.3530 O   0  0  0  0  0  0  0  0  0  0  0  0
  2  3  1  1
  2  1  1  0
  4  2  1  0
  5  4  1  0
  5  6  1  6
  7  8  2  0
  7  5  1  0
  9  7  1  0
 10  9  1  0
 10 11  1  6
 12 13  1  0
 12 11  1  0
 13 14  2  0
 15 16  2  0
 15 10  1  0
 17 13  1  0
 18 15  1  0
 19 20  1  1
 19 18  1  0
 21 20  1  0
 21 22  2  0
 23 22  1  0
 24 23  2  0
 25 26  2  0
 25 24  1  0
 26 21  1  0
 27 19  1  0
 28 27  2  0
 29 27  1  0
M  END
$$$$
