LEF.pdb
     RDKit          3D

 29 29  0  0  1  0  0  0  0  0999 V2000
    9.4571  -13.3350   17.9811 C   0  0  0  0  0  0  0  0  0  0  0  0
    8.0687  -13.6632   18.5549 C   0  0  2  0  0  0  0  0  0  0  0  0
    7.4853  -12.3532   18.9890 C   0  0  0  0  0  0  0  0  0  0  0  0
    8.2984  -14.6378   19.6479 C   0  0  0  0  0  0  0  0  0  0  0  0
    8.9040  -15.9460   19.2690 C   0  0  2  0  0  0  0  0  0  0  0  0
    7.9798  -16.7080   18.4629 N   0  0  0  0  0  0  0  0  0  0  0  0
    9.1123  -16.6977   20.5529 C   0  0  0  0  0  0  0  0  0  0  0  0
    8.1759  -17.2174   21.2088 O   0  0  0  0  0  0  0  0  0  0  0  0
   10.4273  -16.8365   21.0644 N   0  0  0  0  0  0  0  0  0  0  0  0
   10.6912  -17.4602   22.3912 C   0  0  1  0  0  0  0  0  0  0  0  0
   12.1186  -17.8796   22.3387 C   0  0  0  0  0  0  0  0  0  0  0  0
   12.7376  -18.3859   23.5854 C   0  0  0  0  0  0  0  0  0  0  0  0
   14.1273  -18.8493   23.3549 C   0  0  0  0  0  0  0  0  0  0  0  0
   14.5423  -19.9949   23.6450 O   0  0  0  0  0  0  0  0  0  0  0  0
   10.3618  -16.4464   23.4106 C   0  0  0  0  0  0  0  0  0  0  0  0
   10.7747  -15.2510   23.3199 O   0  0  0  0  0  0  0  0  0  0  0  0
   15.0870  -17.9976   22.7786 O   0  0  0  0  0  0  0  0  0  0  0  0
    9.5648  -16.7926   24.5218 N   0  0  0  0  0  0  0  0  0  0  0  0
    9.1245  -15.7434   25.4531 C   0  0  1  0  0  0  0  0  0  0  0  0
    7.9691  -15.0003   24.8467 C   0  0  0  0  0  0  0  0  0  0  0  0
    7.4920  -13.9581   25.7670 C   0  0  0  0  0  0  0  0  0  0  0  0
    8.3735  -13.0312   26.3229 C   0  0  0  0  0  0  0  0  0  0  0  0
    7.9402  -12.0330   27.1645 C   0  0  0  0  0  0  0  0  0  0  0  0
    6.6081  -11.9239   27.4825 C   0  0  0  0  0  0  0  0  0  0  0  0
    5.7066  -12.8240   26.9505 C   0  0  0  0  0  0  0  0  0  0  0  0
    6.1658  -13.8266   26.1007 C   0  0  0  0  0  0  0  0  0  0  0  0
    8.7804  -16.3306   26.7588 C   0  0  0  0  0  0  0  0  0  0  0  0
    7.9980  -17.3388   26.8524 O   0  0  0  0  0  0  0  0  0  0  0  0
    9.2967  -15.8102   27.9271 O   0  0  0  0  0  0  0  0  0  0  0  0
  2  3  1  1
  2  1  1  0
  4  2  1  0
  5  4  1  0
  5  6  1  6
  7  8  2  0
  7  5  1  0
  9  7  1  0
 10  9  1  0
 10 11  1  6
 12 13  1  0
 12 11  1  0
 13 14  2  0
 15 16  2  0
 15 10  1  0
 17 13  1  0
 18 15  1  0
 19 20  1  6
 19 18  1  0
 21 20  1  0
 21 22  2  0
 23 22  1  0
 24 23  2  0
 25 26  2  0
 25 24  1  0
 26 21  1  0
 27 19  1  0
 28 27  2  0
 29 27  1  0
M  END
$$$$
