LEF.pdb
     RDKit          3D

 29 29  0  0  1  0  0  0  0  0999 V2000
    8.7016  -13.3834   18.3041 C   0  0  0  0  0  0  0  0  0  0  0  0
    7.5504  -13.3907   19.3235 C   0  0  2  0  0  0  0  0  0  0  0  0
    7.3685  -11.9646   19.7454 C   0  0  0  0  0  0  0  0  0  0  0  0
    7.9687  -14.3139   20.4053 C   0  0  0  0  0  0  0  0  0  0  0  0
    8.1064  -15.7542   20.0473 C   0  0  2  0  0  0  0  0  0  0  0  0
    6.8205  -16.3032   19.6872 N   0  0  0  0  0  0  0  0  0  0  0  0
    8.5643  -16.4534   21.2956 C   0  0  0  0  0  0  0  0  0  0  0  0
    7.7760  -16.9412   22.1429 O   0  0  0  0  0  0  0  0  0  0  0  0
    9.9544  -16.5771   21.5455 N   0  0  0  0  0  0  0  0  0  0  0  0
   10.4779  -17.3738   22.6901 C   0  0  1  0  0  0  0  0  0  0  0  0
   11.9253  -17.5596   22.3956 C   0  0  0  0  0  0  0  0  0  0  0  0
   12.7433  -18.2999   23.3838 C   0  0  0  0  0  0  0  0  0  0  0  0
   14.1645  -18.3763   22.9674 C   0  0  0  0  0  0  0  0  0  0  0  0
   15.1226  -17.9678   23.6630 O   0  0  0  0  0  0  0  0  0  0  0  0
   10.1692  -16.6121   23.9148 C   0  0  0  0  0  0  0  0  0  0  0  0
   10.5728  -15.4214   24.0789 O   0  0  0  0  0  0  0  0  0  0  0  0
   14.5250  -18.9304   21.7258 O   0  0  0  0  0  0  0  0  0  0  0  0
    9.4032  -17.2026   24.9417 N   0  0  0  0  0  0  0  0  0  0  0  0
    9.1589  -16.4559   26.1845 C   0  0  1  0  0  0  0  0  0  0  0  0
    7.7732  -15.8786   26.1478 C   0  0  0  0  0  0  0  0  0  0  0  0
    7.8236  -14.4179   26.3033 C   0  0  0  0  0  0  0  0  0  0  0  0
    6.6863  -13.6343   26.1085 C   0  0  0  0  0  0  0  0  0  0  0  0
    6.7092  -12.2691   26.2761 C   0  0  0  0  0  0  0  0  0  0  0  0
    7.8710  -11.6351   26.6449 C   0  0  0  0  0  0  0  0  0  0  0  0
    9.0163  -12.3790   26.8466 C   0  0  0  0  0  0  0  0  0  0  0  0
    8.9717  -13.7595   26.6718 C   0  0  0  0  0  0  0  0  0  0  0  0
    9.3640  -17.3278   27.3532 C   0  0  0  0  0  0  0  0  0  0  0  0
    9.3034  -18.6021   27.2545 O   0  0  0  0  0  0  0  0  0  0  0  0
    9.6325  -16.7939   28.5962 O   0  0  0  0  0  0  0  0  0  0  0  0
  2  3  1  1
  2  1  1  0
  4  2  1  0
  5  4  1  0
  5  6  1  1
  7  8  2  0
  7  5  1  0
  9  7  1  0
 10  9  1  0
 10 11  1  6
 12 13  1  0
 12 11  1  0
 13 14  2  0
 15 16  2  0
 15 10  1  0
 17 13  1  0
 18 15  1  0
 19 20  1  6
 19 18  1  0
 21 20  1  0
 21 22  2  0
 23 22  1  0
 24 23  2  0
 25 26  2  0
 25 24  1  0
 26 21  1  0
 27 19  1  0
 28 27  2  0
 29 27  1  0
M  END
$$$$
