LEF.pdb
     RDKit          3D

 29 29  0  0  1  0  0  0  0  0999 V2000
    9.0222  -12.5915   19.0934 C   0  0  0  0  0  0  0  0  0  0  0  0
    7.7633  -13.3904   19.4697 C   0  0  2  0  0  0  0  0  0  0  0  0
    6.9146  -12.4587   20.2801 C   0  0  0  0  0  0  0  0  0  0  0  0
    8.2429  -14.5903   20.1961 C   0  0  0  0  0  0  0  0  0  0  0  0
    9.0034  -15.5987   19.4047 C   0  0  2  0  0  0  0  0  0  0  0  0
    8.1167  -16.2970   18.5042 N   0  0  0  0  0  0  0  0  0  0  0  0
    9.5248  -16.6007   20.3951 C   0  0  0  0  0  0  0  0  0  0  0  0
    8.7928  -17.4314   20.9879 O   0  0  0  0  0  0  0  0  0  0  0  0
   10.9119  -16.6228   20.6875 N   0  0  0  0  0  0  0  0  0  0  0  0
   11.4830  -17.5396   21.7134 C   0  0  1  0  0  0  0  0  0  0  0  0
   12.7676  -18.0136   21.1291 C   0  0  0  0  0  0  0  0  0  0  0  0
   12.7087  -19.0721   20.0948 C   0  0  0  0  0  0  0  0  0  0  0  0
   14.0582  -19.4044   19.5774 C   0  0  0  0  0  0  0  0  0  0  0  0
   14.7709  -20.3336   20.0216 O   0  0  0  0  0  0  0  0  0  0  0  0
   11.5989  -16.7618   22.9612 C   0  0  0  0  0  0  0  0  0  0  0  0
   12.3186  -15.7204   23.0334 O   0  0  0  0  0  0  0  0  0  0  0  0
   14.6298  -18.6682   18.5239 O   0  0  0  0  0  0  0  0  0  0  0  0
   10.8963  -17.1665   24.1156 N   0  0  0  0  0  0  0  0  0  0  0  0
   11.0677  -16.4165   25.3686 C   0  0  1  0  0  0  0  0  0  0  0  0
    9.7246  -15.9479   25.8495 C   0  0  0  0  0  0  0  0  0  0  0  0
    9.8666  -15.1816   27.0957 C   0  0  0  0  0  0  0  0  0  0  0  0
   10.0289  -15.8263   28.3219 C   0  0  0  0  0  0  0  0  0  0  0  0
   10.1902  -15.1247   29.4941 C   0  0  0  0  0  0  0  0  0  0  0  0
   10.1951  -13.7508   29.4848 C   0  0  0  0  0  0  0  0  0  0  0  0
   10.0372  -13.0789   28.2892 C   0  0  0  0  0  0  0  0  0  0  0  0
    9.8756  -13.8079   27.1141 C   0  0  0  0  0  0  0  0  0  0  0  0
   11.7554  -17.2470   26.3713 C   0  0  0  0  0  0  0  0  0  0  0  0
   11.4237  -18.4670   26.5690 O   0  0  0  0  0  0  0  0  0  0  0  0
   12.7860  -16.7327   27.1300 O   0  0  0  0  0  0  0  0  0  0  0  0
  2  3  1  1
  2  1  1  0
  4  2  1  0
  5  4  1  0
  5  6  1  6
  7  8  2  0
  7  5  1  0
  9  7  1  0
 10  9  1  0
 10 11  1  6
 12 13  1  0
 12 11  1  0
 13 14  2  0
 15 16  2  0
 15 10  1  0
 17 13  1  0
 18 15  1  0
 19 20  1  1
 19 18  1  0
 21 20  1  0
 21 22  2  0
 23 22  1  0
 24 23  2  0
 25 26  2  0
 25 24  1  0
 26 21  1  0
 27 19  1  0
 28 27  2  0
 29 27  1  0
M  END
$$$$
