LEF.pdb
     RDKit          3D

 29 29  0  0  1  0  0  0  0  0999 V2000
    7.9561  -13.0149   18.8686 C   0  0  0  0  0  0  0  0  0  0  0  0
    7.6960  -13.1163   20.3807 C   0  0  2  0  0  0  0  0  0  0  0  0
    7.7708  -11.7141   20.9036 C   0  0  0  0  0  0  0  0  0  0  0  0
    8.7289  -14.0372   20.9121 C   0  0  0  0  0  0  0  0  0  0  0  0
    8.5767  -15.4832   20.5837 C   0  0  2  0  0  0  0  0  0  0  0  0
    7.2148  -15.7652   20.1958 N   0  0  0  0  0  0  0  0  0  0  0  0
    8.8496  -16.2320   21.8571 C   0  0  0  0  0  0  0  0  0  0  0  0
    7.9535  -16.7959   22.5325 O   0  0  0  0  0  0  0  0  0  0  0  0
   10.1817  -16.3157   22.3352 N   0  0  0  0  0  0  0  0  0  0  0  0
   10.5572  -17.2203   23.4575 C   0  0  1  0  0  0  0  0  0  0  0  0
   11.8956  -17.7552   23.0854 C   0  0  0  0  0  0  0  0  0  0  0  0
   12.5478  -18.7004   24.0208 C   0  0  0  0  0  0  0  0  0  0  0  0
   12.0863  -20.0922   23.7993 C   0  0  0  0  0  0  0  0  0  0  0  0
   11.9928  -20.6296   22.6719 O   0  0  0  0  0  0  0  0  0  0  0  0
   10.5145  -16.4099   24.6892 C   0  0  0  0  0  0  0  0  0  0  0  0
   11.0408  -15.2578   24.7478 O   0  0  0  0  0  0  0  0  0  0  0  0
   11.7159  -20.9115   24.8811 O   0  0  0  0  0  0  0  0  0  0  0  0
    9.8734  -16.9081   25.8427 N   0  0  0  0  0  0  0  0  0  0  0  0
    9.9596  -16.1546   27.1024 C   0  0  1  0  0  0  0  0  0  0  0  0
    8.5723  -15.8651   27.5988 C   0  0  0  0  0  0  0  0  0  0  0  0
    8.0495  -14.6430   26.9715 C   0  0  0  0  0  0  0  0  0  0  0  0
    8.6418  -13.4028   27.2091 C   0  0  0  0  0  0  0  0  0  0  0  0
    8.1823  -12.2532   26.6093 C   0  0  0  0  0  0  0  0  0  0  0  0
    7.1122  -12.3001   25.7488 C   0  0  0  0  0  0  0  0  0  0  0  0
    6.5011  -13.5105   25.4899 C   0  0  0  0  0  0  0  0  0  0  0  0
    6.9818  -14.6623   26.1071 C   0  0  0  0  0  0  0  0  0  0  0  0
   10.7561  -16.9008   28.0907 C   0  0  0  0  0  0  0  0  0  0  0  0
   11.1492  -18.0975   27.8654 O   0  0  0  0  0  0  0  0  0  0  0  0
   11.1073  -16.3276   29.2951 O   0  0  0  0  0  0  0  0  0  0  0  0
  2  3  1  1
  2  1  1  0
  4  2  1  0
  5  4  1  0
  5  6  1  1
  7  8  2  0
  7  5  1  0
  9  7  1  0
 10  9  1  0
 10 11  1  6
 12 13  1  0
 12 11  1  0
 13 14  2  0
 15 16  2  0
 15 10  1  0
 17 13  1  0
 18 15  1  0
 19 20  1  1
 19 18  1  0
 21 20  1  0
 21 22  2  0
 23 22  1  0
 24 23  2  0
 25 26  2  0
 25 24  1  0
 26 21  1  0
 27 19  1  0
 28 27  2  0
 29 27  1  0
M  END
$$$$
