LEF.pdb
     RDKit          3D

 29 29  0  0  1  0  0  0  0  0999 V2000
    9.4640  -13.2571   18.6926 C   0  0  0  0  0  0  0  0  0  0  0  0
    8.0651  -13.4689   19.2947 C   0  0  2  0  0  0  0  0  0  0  0  0
    7.5500  -12.1010   19.6242 C   0  0  0  0  0  0  0  0  0  0  0  0
    8.2538  -14.3633   20.4618 C   0  0  0  0  0  0  0  0  0  0  0  0
    8.7625  -15.7365   20.1839 C   0  0  2  0  0  0  0  0  0  0  0  0
    7.8224  -16.4588   19.3598 N   0  0  0  0  0  0  0  0  0  0  0  0
    8.8299  -16.4342   21.5126 C   0  0  0  0  0  0  0  0  0  0  0  0
    7.8250  -16.9156   22.0919 O   0  0  0  0  0  0  0  0  0  0  0  0
   10.0847  -16.5639   22.1597 N   0  0  0  0  0  0  0  0  0  0  0  0
   10.2359  -17.3206   23.4339 C   0  0  1  0  0  0  0  0  0  0  0  0
   11.2007  -18.4097   23.1191 C   0  0  0  0  0  0  0  0  0  0  0  0
   10.7014  -19.5781   22.3580 C   0  0  0  0  0  0  0  0  0  0  0  0
   11.7910  -20.5371   22.0545 C   0  0  0  0  0  0  0  0  0  0  0  0
   12.6024  -20.4017   21.1100 O   0  0  0  0  0  0  0  0  0  0  0  0
   10.6790  -16.3516   24.4538 C   0  0  0  0  0  0  0  0  0  0  0  0
   11.6082  -15.5200   24.2242 O   0  0  0  0  0  0  0  0  0  0  0  0
   11.9779  -21.6903   22.8381 O   0  0  0  0  0  0  0  0  0  0  0  0
   10.0644  -16.3290   25.7233 N   0  0  0  0  0  0  0  0  0  0  0  0
   10.7091  -15.6036   26.8279 C   0  0  1  0  0  0  0  0  0  0  0  0
   10.5340  -14.1274   26.6160 C   0  0  0  0  0  0  0  0  0  0  0  0
    9.1064  -13.7775   26.6101 C   0  0  0  0  0  0  0  0  0  0  0  0
    8.2709  -14.1831   25.5695 C   0  0  0  0  0  0  0  0  0  0  0  0
    6.9274  -13.8876   25.5615 C   0  0  0  0  0  0  0  0  0  0  0  0
    6.3680  -13.1747   26.5942 C   0  0  0  0  0  0  0  0  0  0  0  0
    7.1648  -12.7569   27.6412 C   0  0  0  0  0  0  0  0  0  0  0  0
    8.5222  -13.0665   27.6302 C   0  0  0  0  0  0  0  0  0  0  0  0
   10.1586  -16.0460   28.1199 C   0  0  0  0  0  0  0  0  0  0  0  0
    9.2617  -16.9561   28.1873 O   0  0  0  0  0  0  0  0  0  0  0  0
   10.5981  -15.4914   29.3038 O   0  0  0  0  0  0  0  0  0  0  0  0
  2  3  1  1
  2  1  1  0
  4  2  1  0
  5  4  1  0
  5  6  1  6
  7  8  2  0
  7  5  1  0
  9  7  1  0
 10  9  1  0
 10 11  1  6
 12 13  1  0
 12 11  1  0
 13 14  2  0
 15 16  2  0
 15 10  1  0
 17 13  1  0
 18 15  1  0
 19 20  1  6
 19 18  1  0
 21 20  1  0
 21 22  2  0
 23 22  1  0
 24 23  2  0
 25 26  2  0
 25 24  1  0
 26 21  1  0
 27 19  1  0
 28 27  2  0
 29 27  1  0
M  END
$$$$
