LEF.pdb
     RDKit          3D

 29 29  0  0  1  0  0  0  0  0999 V2000
    9.4024  -12.9851   18.8751 C   0  0  0  0  0  0  0  0  0  0  0  0
    7.9830  -13.4613   19.2259 C   0  0  2  0  0  0  0  0  0  0  0  0
    7.2110  -12.2252   19.5738 C   0  0  0  0  0  0  0  0  0  0  0  0
    8.1405  -14.4325   20.3346 C   0  0  0  0  0  0  0  0  0  0  0  0
    8.9010  -15.6792   20.0364 C   0  0  2  0  0  0  0  0  0  0  0  0
    8.1769  -16.4891   19.0854 N   0  0  0  0  0  0  0  0  0  0  0  0
    8.9687  -16.4463   21.3263 C   0  0  0  0  0  0  0  0  0  0  0  0
    7.9720  -16.9980   21.8551 O   0  0  0  0  0  0  0  0  0  0  0  0
   10.2138  -16.5626   21.9942 N   0  0  0  0  0  0  0  0  0  0  0  0
   10.3704  -17.3886   23.2240 C   0  0  1  0  0  0  0  0  0  0  0  0
   11.3756  -18.4253   22.8622 C   0  0  0  0  0  0  0  0  0  0  0  0
   11.0683  -19.3192   21.7220 C   0  0  0  0  0  0  0  0  0  0  0  0
   12.1548  -20.3018   21.4914 C   0  0  0  0  0  0  0  0  0  0  0  0
   13.1888  -20.3825   22.1935 O   0  0  0  0  0  0  0  0  0  0  0  0
   10.7653  -16.4682   24.3068 C   0  0  0  0  0  0  0  0  0  0  0  0
   11.6137  -15.5445   24.1204 O   0  0  0  0  0  0  0  0  0  0  0  0
   12.0797  -21.2277   20.4351 O   0  0  0  0  0  0  0  0  0  0  0  0
   10.1941  -16.5981   25.5901 N   0  0  0  0  0  0  0  0  0  0  0  0
   10.6788  -15.7492   26.6885 C   0  0  1  0  0  0  0  0  0  0  0  0
   10.6116  -14.3102   26.2650 C   0  0  0  0  0  0  0  0  0  0  0  0
    9.2451  -13.7932   26.4258 C   0  0  0  0  0  0  0  0  0  0  0  0
    8.9410  -12.8606   27.4174 C   0  0  0  0  0  0  0  0  0  0  0  0
    7.6737  -12.3462   27.5647 C   0  0  0  0  0  0  0  0  0  0  0  0
    6.6615  -12.7453   26.7257 C   0  0  0  0  0  0  0  0  0  0  0  0
    6.9259  -13.6670   25.7325 C   0  0  0  0  0  0  0  0  0  0  0  0
    8.2154  -14.1751   25.6003 C   0  0  0  0  0  0  0  0  0  0  0  0
    9.8998  -16.0027   27.9120 C   0  0  0  0  0  0  0  0  0  0  0  0
   10.1806  -15.4190   29.0155 O   0  0  0  0  0  0  0  0  0  0  0  0
    8.8355  -16.8799   27.9046 O   0  0  0  0  0  0  0  0  0  0  0  0
  2  3  1  1
  2  1  1  0
  4  2  1  0
  5  4  1  0
  5  6  1  6
  7  8  2  0
  7  5  1  0
  9  7  1  0
 10  9  1  0
 10 11  1  6
 12 13  1  0
 12 11  1  0
 13 14  2  0
 15 16  2  0
 15 10  1  0
 17 13  1  0
 18 15  1  0
 19 20  1  6
 19 18  1  0
 21 20  1  0
 21 22  2  0
 23 22  1  0
 24 23  2  0
 25 26  2  0
 25 24  1  0
 26 21  1  0
 27 19  1  0
 28 27  2  0
 29 27  1  0
M  END
$$$$
