MWV.pdb
     RDKit          3D

 30 31  0  0  1  0  0  0  0  0999 V2000
    8.3191  -11.6393   19.3072 C   0  0  0  0  0  0  0  0  0  0  0  0
    7.8379  -12.9839   18.1971 S   0  0  0  0  0  0  0  0  0  0  0  0
    7.5868  -14.5299   19.0890 C   0  0  0  0  0  0  0  0  0  0  0  0
    7.1333  -14.2614   20.5212 C   0  0  0  0  0  0  0  0  0  0  0  0
    7.1669  -15.5421   21.3356 C   0  0  2  0  0  0  0  0  0  0  0  0
    5.7905  -15.9009   21.6131 N   0  0  0  0  0  0  0  0  0  0  0  0
    7.9431  -15.3817   22.5775 C   0  0  0  0  0  0  0  0  0  0  0  0
    8.1405  -14.2013   23.0256 O   0  0  0  0  0  0  0  0  0  0  0  0
    8.4770  -16.4873   23.2915 N   0  0  0  0  0  0  0  0  0  0  0  0
    9.4268  -16.2370   24.3376 C   0  0  1  0  0  0  0  0  0  0  0  0
    8.7385  -16.5254   25.6605 C   0  0  0  0  0  0  0  0  0  0  0  0
    7.6287  -15.5903   25.9157 C   0  0  0  0  0  0  0  0  0  0  0  0
    6.2929  -15.9002   25.8001 C   0  0  0  0  0  0  0  0  0  0  0  0
    5.5582  -14.7948   26.1135 N   0  0  0  0  0  0  0  0  0  0  0  0
    6.3848  -13.7743   26.4298 C   0  0  0  0  0  0  0  0  0  0  0  0
    6.1492  -12.4766   26.8091 C   0  0  0  0  0  0  0  0  0  0  0  0
    7.2269  -11.6526   27.0722 C   0  0  0  0  0  0  0  0  0  0  0  0
    8.5094  -12.1266   26.9552 C   0  0  0  0  0  0  0  0  0  0  0  0
    8.7233  -13.4302   26.5738 C   0  0  0  0  0  0  0  0  0  0  0  0
    7.6681  -14.2703   26.3062 C   0  0  0  0  0  0  0  0  0  0  0  0
   10.6743  -17.0195   24.1934 C   0  0  0  0  0  0  0  0  0  0  0  0
   10.5616  -18.2500   23.9548 O   0  0  0  0  0  0  0  0  0  0  0  0
   13.9048  -16.0056   22.1565 C   0  0  0  0  0  0  0  0  0  0  0  0
   14.2951  -16.5852   23.5113 C   0  0  2  0  0  0  0  0  0  0  0  0
   15.4900  -17.4842   23.2982 C   0  0  0  0  0  0  0  0  0  0  0  0
   13.1309  -17.3504   24.1171 C   0  0  2  0  0  0  0  0  0  0  0  0
   11.9796  -16.4907   24.3029 N   0  0  0  0  0  0  0  0  0  0  0  0
   13.5576  -17.9789   25.3917 C   0  0  0  0  0  0  0  0  0  0  0  0
   13.2294  -17.4850   26.4913 O   0  0  0  0  0  0  0  0  0  0  0  0
   14.3347  -19.1352   25.3682 O   0  0  0  0  0  0  0  0  0  0  0  0
  1  2  1  0
  3  2  1  0
  4  3  1  0
  5  7  1  0
  5  6  1  1
  5  4  1  0
  7  8  2  0
  9 10  1  0
  9  7  1  0
 10 11  1  1
 12 11  1  0
 12 13  2  0
 14 13  1  0
 15 14  1  0
 16 15  2  0
 17 16  1  0
 18 17  2  0
 18 19  1  0
 19 20  2  0
 20 15  1  0
 20 12  1  0
 21 10  1  0
 21 22  2  0
 24 23  1  6
 24 26  1  0
 25 24  1  0
 26 27  1  1
 26 28  1  0
 27 21  1  0
 28 29  2  0
 28 30  1  0
M  END
$$$$
