MWV.pdb
     RDKit          3D

 30 31  0  0  1  0  0  0  0  0999 V2000
    8.0897  -11.4781   20.0221 C   0  0  0  0  0  0  0  0  0  0  0  0
    7.1009  -12.6305   19.0391 S   0  0  0  0  0  0  0  0  0  0  0  0
    7.4557  -14.3460   19.4631 C   0  0  0  0  0  0  0  0  0  0  0  0
    8.2481  -14.4295   20.7646 C   0  0  0  0  0  0  0  0  0  0  0  0
    8.5204  -15.8785   21.1262 C   0  0  2  0  0  0  0  0  0  0  0  0
    7.2349  -16.5443   21.1937 N   0  0  0  0  0  0  0  0  0  0  0  0
    9.2565  -15.9974   22.3970 C   0  0  0  0  0  0  0  0  0  0  0  0
   10.4146  -15.4641   22.4835 O   0  0  0  0  0  0  0  0  0  0  0  0
    8.7269  -16.6800   23.5242 N   0  0  0  0  0  0  0  0  0  0  0  0
    9.4919  -16.7004   24.7381 C   0  0  1  0  0  0  0  0  0  0  0  0
    8.5113  -16.7364   25.8975 C   0  0  0  0  0  0  0  0  0  0  0  0
    7.5247  -15.6452   25.8144 C   0  0  0  0  0  0  0  0  0  0  0  0
    6.2072  -15.7984   25.4476 C   0  0  0  0  0  0  0  0  0  0  0  0
    5.5978  -14.5789   25.4840 N   0  0  0  0  0  0  0  0  0  0  0  0
    6.4879  -13.6372   25.8657 C   0  0  0  0  0  0  0  0  0  0  0  0
    6.3776  -12.2823   26.0537 C   0  0  0  0  0  0  0  0  0  0  0  0
    7.4924  -11.5721   26.4571 C   0  0  0  0  0  0  0  0  0  0  0  0
    8.6876  -12.2134   26.6652 C   0  0  0  0  0  0  0  0  0  0  0  0
    8.7763  -13.5717   26.4711 C   0  0  0  0  0  0  0  0  0  0  0  0
    7.6820  -14.3012   26.0698 C   0  0  0  0  0  0  0  0  0  0  0  0
   10.4519  -17.8243   24.8047 C   0  0  0  0  0  0  0  0  0  0  0  0
   10.0714  -18.9381   24.3589 O   0  0  0  0  0  0  0  0  0  0  0  0
   14.0859  -17.9694   23.5342 C   0  0  0  0  0  0  0  0  0  0  0  0
   14.0436  -18.5413   24.9466 C   0  0  2  0  0  0  0  0  0  0  0  0
   14.9487  -19.7501   24.9790 C   0  0  0  0  0  0  0  0  0  0  0  0
   12.6199  -18.9085   25.3288 C   0  0  2  0  0  0  0  0  0  0  0  0
   11.7608  -17.7418   25.3295 N   0  0  0  0  0  0  0  0  0  0  0  0
   12.6184  -19.5916   26.6460 C   0  0  0  0  0  0  0  0  0  0  0  0
   13.0308  -20.7653   26.7598 O   0  0  0  0  0  0  0  0  0  0  0  0
   12.1521  -18.9202   27.7743 O   0  0  0  0  0  0  0  0  0  0  0  0
  1  2  1  0
  3  2  1  0
  4  3  1  0
  5  7  1  0
  5  6  1  1
  5  4  1  0
  7  8  2  0
  9 10  1  0
  9  7  1  0
 10 11  1  1
 12 11  1  0
 12 13  2  0
 14 13  1  0
 15 14  1  0
 16 15  2  0
 17 16  1  0
 18 17  2  0
 18 19  1  0
 19 20  2  0
 20 15  1  0
 20 12  1  0
 21 10  1  0
 21 22  2  0
 24 23  1  6
 24 26  1  0
 25 24  1  0
 26 27  1  1
 26 28  1  0
 27 21  1  0
 28 29  2  0
 28 30  1  0
M  END
$$$$
