MWV.pdb
     RDKit          3D

 30 31  0  0  1  0  0  0  0  0999 V2000
    8.0333  -11.6694   19.2843 C   0  0  0  0  0  0  0  0  0  0  0  0
    7.9737  -13.1605   18.2621 S   0  0  0  0  0  0  0  0  0  0  0  0
    7.2041  -14.5379   19.1331 C   0  0  0  0  0  0  0  0  0  0  0  0
    7.2947  -14.3420   20.6438 C   0  0  0  0  0  0  0  0  0  0  0  0
    7.6178  -15.6573   21.3295 C   0  0  2  0  0  0  0  0  0  0  0  0
    6.3529  -16.2973   21.6301 N   0  0  0  0  0  0  0  0  0  0  0  0
    8.4236  -15.4574   22.5467 C   0  0  0  0  0  0  0  0  0  0  0  0
    8.8292  -14.2775   22.8231 O   0  0  0  0  0  0  0  0  0  0  0  0
    8.7637  -16.5246   23.4200 N   0  0  0  0  0  0  0  0  0  0  0  0
    9.7116  -16.2796   24.4692 C   0  0  1  0  0  0  0  0  0  0  0  0
    9.0111  -16.5438   25.7908 C   0  0  0  0  0  0  0  0  0  0  0  0
    7.8201  -15.6928   25.9590 C   0  0  0  0  0  0  0  0  0  0  0  0
    6.5212  -16.1066   25.7703 C   0  0  0  0  0  0  0  0  0  0  0  0
    5.6869  -15.0560   26.0153 N   0  0  0  0  0  0  0  0  0  0  0  0
    6.4127  -13.9696   26.3585 C   0  0  0  0  0  0  0  0  0  0  0  0
    6.0565  -12.6878   26.6952 C   0  0  0  0  0  0  0  0  0  0  0  0
    7.0504  -11.7788   27.0045 C   0  0  0  0  0  0  0  0  0  0  0  0
    8.3700  -12.1545   26.9747 C   0  0  0  0  0  0  0  0  0  0  0  0
    8.7051  -13.4440   26.6348 C   0  0  0  0  0  0  0  0  0  0  0  0
    7.7352  -14.3673   26.3227 C   0  0  0  0  0  0  0  0  0  0  0  0
   10.9468  -17.0839   24.3397 C   0  0  0  0  0  0  0  0  0  0  0  0
   10.8151  -18.3218   24.1548 O   0  0  0  0  0  0  0  0  0  0  0  0
   15.0013  -15.5281   24.2888 C   0  0  0  0  0  0  0  0  0  0  0  0
   14.5207  -16.7271   23.4796 C   0  0  2  0  0  0  0  0  0  0  0  0
   14.0631  -16.2178   22.1332 C   0  0  0  0  0  0  0  0  0  0  0  0
   13.3970  -17.4441   24.2083 C   0  0  2  0  0  0  0  0  0  0  0  0
   12.2601  -16.5683   24.4078 N   0  0  0  0  0  0  0  0  0  0  0  0
   13.9033  -17.9868   25.4931 C   0  0  0  0  0  0  0  0  0  0  0  0
   13.5142  -17.5193   26.5843 O   0  0  0  0  0  0  0  0  0  0  0  0
   14.8251  -19.0317   25.4888 O   0  0  0  0  0  0  0  0  0  0  0  0
  1  2  1  0
  3  2  1  0
  4  3  1  0
  5  7  1  0
  5  6  1  1
  5  4  1  0
  7  8  2  0
  9 10  1  0
  9  7  1  0
 10 11  1  1
 12 11  1  0
 12 13  2  0
 14 13  1  0
 15 14  1  0
 16 15  2  0
 17 16  1  0
 18 17  2  0
 18 19  1  0
 19 20  2  0
 20 15  1  0
 20 12  1  0
 21 10  1  0
 21 22  2  0
 24 23  1  1
 24 26  1  0
 25 24  1  0
 26 27  1  1
 26 28  1  0
 27 21  1  0
 28 29  2  0
 28 30  1  0
M  END
$$$$
