MWV.pdb
     RDKit          3D

 30 31  0  0  1  0  0  0  0  0999 V2000
    8.1935  -11.6223   19.6408 C   0  0  0  0  0  0  0  0  0  0  0  0
    7.1849  -12.7917   18.6987 S   0  0  0  0  0  0  0  0  0  0  0  0
    7.1872  -14.4311   19.4475 C   0  0  0  0  0  0  0  0  0  0  0  0
    8.3811  -14.5975   20.3834 C   0  0  0  0  0  0  0  0  0  0  0  0
    8.4051  -15.9990   20.9662 C   0  0  2  0  0  0  0  0  0  0  0  0
    7.0260  -16.3904   21.1787 N   0  0  0  0  0  0  0  0  0  0  0  0
    9.1814  -16.0592   22.2171 C   0  0  0  0  0  0  0  0  0  0  0  0
   10.3782  -15.6110   22.2147 O   0  0  0  0  0  0  0  0  0  0  0  0
    8.6492  -16.5947   23.4200 N   0  0  0  0  0  0  0  0  0  0  0  0
    9.4609  -16.5685   24.6031 C   0  0  1  0  0  0  0  0  0  0  0  0
    8.5283  -16.6286   25.8005 C   0  0  0  0  0  0  0  0  0  0  0  0
    7.5299  -15.5453   25.7719 C   0  0  0  0  0  0  0  0  0  0  0  0
    6.2029  -15.7033   25.4433 C   0  0  0  0  0  0  0  0  0  0  0  0
    5.5841  -14.4907   25.5251 N   0  0  0  0  0  0  0  0  0  0  0  0
    6.4774  -13.5489   25.8989 C   0  0  0  0  0  0  0  0  0  0  0  0
    6.3611  -12.1994   26.1195 C   0  0  0  0  0  0  0  0  0  0  0  0
    7.4817  -11.4873   26.5029 C   0  0  0  0  0  0  0  0  0  0  0  0
    8.6885  -12.1214   26.6595 C   0  0  0  0  0  0  0  0  0  0  0  0
    8.7832  -13.4744   26.4335 C   0  0  0  0  0  0  0  0  0  0  0  0
    7.6832  -14.2056   26.0511 C   0  0  0  0  0  0  0  0  0  0  0  0
   10.4675  -17.6521   24.6448 C   0  0  0  0  0  0  0  0  0  0  0  0
   10.0772  -18.8160   24.3677 O   0  0  0  0  0  0  0  0  0  0  0  0
   14.9639  -19.4257   24.1036 C   0  0  0  0  0  0  0  0  0  0  0  0
   14.0067  -18.2400   24.1442 C   0  0  2  0  0  0  0  0  0  0  0  0
   14.7306  -17.0888   24.8015 C   0  0  0  0  0  0  0  0  0  0  0  0
   12.7431  -18.6030   24.9054 C   0  0  2  0  0  0  0  0  0  0  0  0
   11.8310  -17.4793   24.9714 N   0  0  0  0  0  0  0  0  0  0  0  0
   13.1013  -19.0988   26.2573 C   0  0  0  0  0  0  0  0  0  0  0  0
   12.9184  -18.3897   27.2694 O   0  0  0  0  0  0  0  0  0  0  0  0
   13.6493  -20.3712   26.4061 O   0  0  0  0  0  0  0  0  0  0  0  0
  1  2  1  0
  3  2  1  0
  4  3  1  0
  5  7  1  0
  5  6  1  1
  5  4  1  0
  7  8  2  0
  9 10  1  0
  9  7  1  0
 10 11  1  1
 12 11  1  0
 12 13  2  0
 14 13  1  0
 15 14  1  0
 16 15  2  0
 17 16  1  0
 18 17  2  0
 18 19  1  0
 19 20  2  0
 20 15  1  0
 20 12  1  0
 21 10  1  0
 21 22  2  0
 24 23  1  1
 24 26  1  0
 25 24  1  0
 26 27  1  1
 26 28  1  0
 27 21  1  0
 28 29  2  0
 28 30  1  0
M  END
$$$$
