MWV.pdb
     RDKit          3D

 30 31  0  0  1  0  0  0  0  0999 V2000
    9.2156  -21.0382   18.1452 C   0  0  0  0  0  0  0  0  0  0  0  0
   10.8059  -20.3195   18.6212 S   0  0  0  0  0  0  0  0  0  0  0  0
   10.7484  -18.5181   18.6345 C   0  0  0  0  0  0  0  0  0  0  0  0
    9.3144  -18.0232   18.8005 C   0  0  0  0  0  0  0  0  0  0  0  0
    9.2827  -16.5070   18.8693 C   0  0  2  0  0  0  0  0  0  0  0  0
   10.4356  -16.0279   18.1334 N   0  0  0  0  0  0  0  0  0  0  0  0
    9.2911  -16.0212   20.2603 C   0  0  0  0  0  0  0  0  0  0  0  0
   10.3757  -15.5360   20.7307 O   0  0  0  0  0  0  0  0  0  0  0  0
    8.1417  -16.0724   21.0930 N   0  0  0  0  0  0  0  0  0  0  0  0
    8.2671  -15.6691   22.4644 C   0  0  1  0  0  0  0  0  0  0  0  0
    6.8675  -15.4165   22.9979 C   0  0  0  0  0  0  0  0  0  0  0  0
    6.8840  -15.0415   24.4227 C   0  0  0  0  0  0  0  0  0  0  0  0
    6.5991  -15.8923   25.4663 C   0  0  0  0  0  0  0  0  0  0  0  0
    6.7144  -15.2028   26.6373 N   0  0  0  0  0  0  0  0  0  0  0  0
    7.0673  -13.9247   26.3794 C   0  0  0  0  0  0  0  0  0  0  0  0
    7.3056  -12.8481   27.1964 C   0  0  0  0  0  0  0  0  0  0  0  0
    7.6582  -11.6411   26.6233 C   0  0  0  0  0  0  0  0  0  0  0  0
    7.7672  -11.5241   25.2603 C   0  0  0  0  0  0  0  0  0  0  0  0
    7.5241  -12.6154   24.4599 C   0  0  0  0  0  0  0  0  0  0  0  0
    7.1718  -13.8274   25.0054 C   0  0  0  0  0  0  0  0  0  0  0  0
    8.9960  -16.6509   23.2976 C   0  0  0  0  0  0  0  0  0  0  0  0
    8.7294  -17.8686   23.1243 O   0  0  0  0  0  0  0  0  0  0  0  0
   12.4100  -17.5362   23.1457 C   0  0  0  0  0  0  0  0  0  0  0  0
   12.1760  -17.3168   24.6359 C   0  0  2  0  0  0  0  0  0  0  0  0
   12.9402  -18.3848   25.3821 C   0  0  0  0  0  0  0  0  0  0  0  0
   10.6920  -17.3764   24.9552 C   0  0  2  0  0  0  0  0  0  0  0  0
    9.9668  -16.3254   24.2707 N   0  0  0  0  0  0  0  0  0  0  0  0
   10.4957  -17.3111   26.4245 C   0  0  0  0  0  0  0  0  0  0  0  0
   10.8813  -18.2407   27.1647 O   0  0  0  0  0  0  0  0  0  0  0  0
    9.8738  -16.2008   26.9919 O   0  0  0  0  0  0  0  0  0  0  0  0
  1  2  1  0
  3  2  1  0
  4  3  1  0
  5  7  1  0
  5  6  1  6
  5  4  1  0
  7  8  2  0
  9 10  1  0
  9  7  1  0
 10 11  1  1
 12 11  1  0
 12 13  2  0
 14 13  1  0
 15 14  1  0
 16 15  2  0
 17 16  1  0
 18 17  2  0
 18 19  1  0
 19 20  2  0
 20 15  1  0
 20 12  1  0
 21 10  1  0
 21 22  2  0
 24 23  1  6
 24 26  1  0
 25 24  1  0
 26 27  1  6
 26 28  1  0
 27 21  1  0
 28 29  2  0
 28 30  1  0
M  END
$$$$
