MWV.pdb
     RDKit          3D

 30 31  0  0  1  0  0  0  0  0999 V2000
    5.0511  -19.1054   18.2111 C   0  0  0  0  0  0  0  0  0  0  0  0
    6.2988  -18.3985   19.3136 S   0  0  0  0  0  0  0  0  0  0  0  0
    7.2174  -17.0676   18.5177 C   0  0  0  0  0  0  0  0  0  0  0  0
    8.1950  -16.4235   19.4966 C   0  0  0  0  0  0  0  0  0  0  0  0
    7.4419  -15.7420   20.6249 C   0  0  2  0  0  0  0  0  0  0  0  0
    6.9547  -14.4804   20.1043 N   0  0  0  0  0  0  0  0  0  0  0  0
    8.2936  -15.5431   21.8107 C   0  0  0  0  0  0  0  0  0  0  0  0
    9.1940  -14.6372   21.7702 O   0  0  0  0  0  0  0  0  0  0  0  0
    8.1497  -16.3185   22.9919 N   0  0  0  0  0  0  0  0  0  0  0  0
    9.0689  -16.1031   24.0726 C   0  0  1  0  0  0  0  0  0  0  0  0
    8.3014  -16.2857   25.3705 C   0  0  0  0  0  0  0  0  0  0  0  0
    7.3468  -15.1873   25.6014 C   0  0  0  0  0  0  0  0  0  0  0  0
    5.9786  -15.2966   25.5017 C   0  0  0  0  0  0  0  0  0  0  0  0
    5.4207  -14.0845   25.7836 N   0  0  0  0  0  0  0  0  0  0  0  0
    6.3938  -13.1905   26.0640 C   0  0  0  0  0  0  0  0  0  0  0  0
    6.3589  -11.8613   26.4037 C   0  0  0  0  0  0  0  0  0  0  0  0
    7.5503  -11.2008   26.6359 C   0  0  0  0  0  0  0  0  0  0  0  0
    8.7462  -11.8652   26.5280 C   0  0  0  0  0  0  0  0  0  0  0  0
    8.7587  -13.1970   26.1866 C   0  0  0  0  0  0  0  0  0  0  0  0
    7.5872  -13.8771   25.9502 C   0  0  0  0  0  0  0  0  0  0  0  0
   10.2550  -16.9858   24.0150 C   0  0  0  0  0  0  0  0  0  0  0  0
   10.0518  -18.2214   23.8894 O   0  0  0  0  0  0  0  0  0  0  0  0
   13.7224  -16.1044   22.1469 C   0  0  0  0  0  0  0  0  0  0  0  0
   13.9530  -16.8074   23.4797 C   0  0  2  0  0  0  0  0  0  0  0  0
   15.0741  -17.8008   23.2859 C   0  0  0  0  0  0  0  0  0  0  0  0
   12.6810  -17.4959   23.9443 C   0  0  2  0  0  0  0  0  0  0  0  0
   11.5957  -16.5471   24.0901 N   0  0  0  0  0  0  0  0  0  0  0  0
   12.9438  -18.2270   25.2084 C   0  0  0  0  0  0  0  0  0  0  0  0
   12.7271  -17.6911   26.3159 O   0  0  0  0  0  0  0  0  0  0  0  0
   13.4390  -19.5288   25.1660 O   0  0  0  0  0  0  0  0  0  0  0  0
  1  2  1  0
  3  2  1  0
  4  3  1  0
  5  7  1  0
  5  6  1  6
  5  4  1  0
  7  8  2  0
  9 10  1  0
  9  7  1  0
 10 11  1  1
 12 11  1  0
 12 13  2  0
 14 13  1  0
 15 14  1  0
 16 15  2  0
 17 16  1  0
 18 17  2  0
 18 19  1  0
 19 20  2  0
 20 15  1  0
 20 12  1  0
 21 10  1  0
 21 22  2  0
 24 23  1  6
 24 26  1  0
 25 24  1  0
 26 27  1  1
 26 28  1  0
 27 21  1  0
 28 29  2  0
 28 30  1  0
M  END
$$$$
