MWV.pdb
     RDKit          3D

 30 31  0  0  1  0  0  0  0  0999 V2000
    5.5712  -18.9128   16.8176 C   0  0  0  0  0  0  0  0  0  0  0  0
    6.9512  -18.5002   17.9118 S   0  0  0  0  0  0  0  0  0  0  0  0
    7.1522  -16.7182   18.0917 C   0  0  0  0  0  0  0  0  0  0  0  0
    8.1643  -16.3951   19.1872 C   0  0  0  0  0  0  0  0  0  0  0  0
    7.4915  -15.6504   20.3262 C   0  0  2  0  0  0  0  0  0  0  0  0
    7.1152  -14.3481   19.8136 N   0  0  0  0  0  0  0  0  0  0  0  0
    8.3730  -15.5333   21.5009 C   0  0  0  0  0  0  0  0  0  0  0  0
    9.3852  -14.7565   21.4293 O   0  0  0  0  0  0  0  0  0  0  0  0
    8.1386  -16.2494   22.7048 N   0  0  0  0  0  0  0  0  0  0  0  0
    9.0542  -16.0784   23.7965 C   0  0  1  0  0  0  0  0  0  0  0  0
    8.2780  -16.2951   25.0840 C   0  0  0  0  0  0  0  0  0  0  0  0
    7.2878  -15.2282   25.3126 C   0  0  0  0  0  0  0  0  0  0  0  0
    5.9344  -15.3472   25.0933 C   0  0  0  0  0  0  0  0  0  0  0  0
    5.3334  -14.1655   25.4134 N   0  0  0  0  0  0  0  0  0  0  0  0
    6.2639  -13.2819   25.8352 C   0  0  0  0  0  0  0  0  0  0  0  0
    6.1771  -11.9811   26.2638 C   0  0  0  0  0  0  0  0  0  0  0  0
    7.3334  -11.3240   26.6392 C   0  0  0  0  0  0  0  0  0  0  0  0
    8.5461  -11.9640   26.5833 C   0  0  0  0  0  0  0  0  0  0  0  0
    8.6108  -13.2675   26.1509 C   0  0  0  0  0  0  0  0  0  0  0  0
    7.4749  -13.9435   25.7717 C   0  0  0  0  0  0  0  0  0  0  0  0
   10.2317  -16.9708   23.7163 C   0  0  0  0  0  0  0  0  0  0  0  0
   10.0352  -18.1570   23.3450 O   0  0  0  0  0  0  0  0  0  0  0  0
   13.7926  -16.1977   22.1754 C   0  0  0  0  0  0  0  0  0  0  0  0
   13.9368  -16.8885   23.5265 C   0  0  2  0  0  0  0  0  0  0  0  0
   15.0564  -17.8956   23.4093 C   0  0  0  0  0  0  0  0  0  0  0  0
   12.6322  -17.5586   23.9226 C   0  0  2  0  0  0  0  0  0  0  0  0
   11.5574  -16.5924   24.0244 N   0  0  0  0  0  0  0  0  0  0  0  0
   12.8209  -18.3049   25.1911 C   0  0  0  0  0  0  0  0  0  0  0  0
   13.2434  -19.4805   25.1865 O   0  0  0  0  0  0  0  0  0  0  0  0
   12.5245  -17.6916   26.4066 O   0  0  0  0  0  0  0  0  0  0  0  0
  1  2  1  0
  3  2  1  0
  4  3  1  0
  5  7  1  0
  5  6  1  6
  5  4  1  0
  7  8  2  0
  9 10  1  0
  9  7  1  0
 10 11  1  1
 12 11  1  0
 12 13  2  0
 14 13  1  0
 15 14  1  0
 16 15  2  0
 17 16  1  0
 18 17  2  0
 18 19  1  0
 19 20  2  0
 20 15  1  0
 20 12  1  0
 21 10  1  0
 21 22  2  0
 24 23  1  6
 24 26  1  0
 25 24  1  0
 26 27  1  1
 26 28  1  0
 27 21  1  0
 28 29  2  0
 28 30  1  0
M  END
$$$$
