HTT.pdb
     RDKit          3D

 25 25  0  0  1  0  0  0  0  0999 V2000
    8.0965  -16.7350   19.0240 N   0  0  0  0  0  0  0  0  0  0  0  0
    8.1729  -15.5617   19.8370 C   0  0  1  0  0  0  0  0  0  0  0  0
    7.3839  -14.4605   19.1275 C   0  0  0  0  0  0  0  0  0  0  0  0
    7.9589  -14.1903   17.7734 C   0  0  0  0  0  0  0  0  0  0  0  0
    7.2026  -13.7922   16.6748 C   0  0  0  0  0  0  0  0  0  0  0  0
    8.0022  -13.6341   15.6242 N   0  0  0  0  0  0  0  0  0  0  0  0
    9.2432  -13.9264   16.0482 C   0  0  0  0  0  0  0  0  0  0  0  0
    9.2197  -14.2637   17.3501 N   0  0  0  0  0  0  0  0  0  0  0  0
    7.5398  -15.7418   21.1681 C   0  0  0  0  0  0  0  0  0  0  0  0
    6.4945  -16.4324   21.3121 O   0  0  0  0  0  0  0  0  0  0  0  0
    7.1738  -17.8944   22.8227 C   0  0  0  0  0  0  0  0  0  0  0  0
    7.8269  -17.0518   23.9011 C   0  0  1  0  0  0  0  0  0  0  0  0
    9.1826  -17.3216   23.8596 O   0  0  0  0  0  0  0  0  0  0  0  0
    7.6185  -15.5849   23.6844 C   0  0  2  0  0  0  0  0  0  0  0  0
    8.0471  -15.1653   22.3579 N   0  0  0  0  0  0  0  0  0  0  0  0
    8.2960  -14.8218   24.7379 C   0  0  0  0  0  0  0  0  0  0  0  0
    9.5020  -14.4341   24.6365 O   0  0  0  0  0  0  0  0  0  0  0  0
    7.0123  -11.5424   26.0389 C   0  0  0  0  0  0  0  0  0  0  0  0
    7.2556  -12.4063   27.2618 C   0  0  1  0  0  0  0  0  0  0  0  0
    6.0104  -12.9580   27.6076 O   0  0  0  0  0  0  0  0  0  0  0  0
    8.2318  -13.4730   26.8627 C   0  0  2  0  0  0  0  0  0  0  0  0
    7.6779  -14.4459   25.9530 N   0  0  0  0  0  0  0  0  0  0  0  0
    8.7492  -14.1346   28.0685 C   0  0  0  0  0  0  0  0  0  0  0  0
    8.6687  -15.4876   28.2931 O   0  0  0  0  0  0  0  0  0  0  0  0
    9.3089  -13.4406   28.9740 O   0  0  0  0  0  0  0  0  0  0  0  0
  2  9  1  0
  2  1  1  6
  3  2  1  0
  4  3  1  0
  5  4  2  0
  6  5  1  0
  7  6  1  0
  7  8  2  0
  8  4  1  0
  9 10  2  0
 12 11  1  6
 12 13  1  0
 12 14  1  0
 14 15  1  6
 15  9  1  0
 16 14  1  0
 16 17  2  0
 19 18  1  6
 19 21  1  0
 20 19  1  0
 21 22  1  6
 21 23  1  0
 22 16  1  0
 23 24  1  0
 25 23  2  0
M  END
$$$$
