HTT.pdb
     RDKit          3D

 25 25  0  0  1  0  0  0  0  0999 V2000
    8.0887  -13.1232   17.0384 N   0  0  0  0  0  0  0  0  0  0  0  0
    8.1095  -14.3959   17.6888 C   0  0  1  0  0  0  0  0  0  0  0  0
    9.0944  -15.2838   16.9271 C   0  0  0  0  0  0  0  0  0  0  0  0
    8.5393  -15.6584   15.5897 C   0  0  0  0  0  0  0  0  0  0  0  0
    7.4972  -16.5631   15.4080 C   0  0  0  0  0  0  0  0  0  0  0  0
    7.2374  -16.6799   14.1092 N   0  0  0  0  0  0  0  0  0  0  0  0
    8.0987  -15.8644   13.4781 C   0  0  0  0  0  0  0  0  0  0  0  0
    8.8887  -15.2443   14.3729 N   0  0  0  0  0  0  0  0  0  0  0  0
    8.6059  -14.3199   19.0863 C   0  0  0  0  0  0  0  0  0  0  0  0
    9.5749  -13.5770   19.4015 O   0  0  0  0  0  0  0  0  0  0  0  0
    7.8889  -14.4269   23.8986 C   0  0  0  0  0  0  0  0  0  0  0  0
    7.4165  -14.5328   22.4615 C   0  0  1  0  0  0  0  0  0  0  0  0
    6.9614  -13.2803   22.0920 O   0  0  0  0  0  0  0  0  0  0  0  0
    8.5132  -14.9440   21.5286 C   0  0  2  0  0  0  0  0  0  0  0  0
    8.0439  -15.0593   20.1554 N   0  0  0  0  0  0  0  0  0  0  0  0
    9.1274  -16.1910   21.9964 C   0  0  0  0  0  0  0  0  0  0  0  0
    8.5945  -17.3297   21.8110 O   0  0  0  0  0  0  0  0  0  0  0  0
   13.1498  -16.4375   23.3452 C   0  0  0  0  0  0  0  0  0  0  0  0
   12.4014  -17.6156   22.7510 C   0  0  1  0  0  0  0  0  0  0  0  0
   12.9738  -18.7691   23.3131 O   0  0  0  0  0  0  0  0  0  0  0  0
   10.9624  -17.4721   23.1496 C   0  0  2  0  0  0  0  0  0  0  0  0
   10.3593  -16.2453   22.6886 N   0  0  0  0  0  0  0  0  0  0  0  0
   10.8492  -17.5819   24.6106 C   0  0  0  0  0  0  0  0  0  0  0  0
   11.1611  -18.7169   25.3190 O   0  0  0  0  0  0  0  0  0  0  0  0
   10.4417  -16.5850   25.2851 O   0  0  0  0  0  0  0  0  0  0  0  0
  2  9  1  0
  2  1  1  6
  3  2  1  0
  4  3  1  0
  5  4  2  0
  6  5  1  0
  7  6  1  0
  7  8  2  0
  8  4  1  0
  9 10  2  0
 12 11  1  1
 12 13  1  0
 12 14  1  0
 14 15  1  6
 15  9  1  0
 16 14  1  0
 16 17  2  0
 19 18  1  1
 19 21  1  0
 20 19  1  0
 21 22  1  1
 21 23  1  0
 22 16  1  0
 23 24  1  0
 25 23  2  0
M  END
$$$$
