HTT.pdb
     RDKit          3D

 25 25  0  0  1  0  0  0  0  0999 V2000
   10.6980  -16.3817   18.6261 N   0  0  0  0  0  0  0  0  0  0  0  0
   11.0166  -15.6728   19.8258 C   0  0  1  0  0  0  0  0  0  0  0  0
   11.6214  -14.3290   19.4171 C   0  0  0  0  0  0  0  0  0  0  0  0
   13.1130  -14.4206   19.3548 C   0  0  0  0  0  0  0  0  0  0  0  0
   13.8373  -15.5488   19.7289 C   0  0  0  0  0  0  0  0  0  0  0  0
   15.1352  -15.3152   19.5576 N   0  0  0  0  0  0  0  0  0  0  0  0
   15.2327  -14.0618   19.0835 C   0  0  0  0  0  0  0  0  0  0  0  0
   14.0089  -13.5175   18.9597 N   0  0  0  0  0  0  0  0  0  0  0  0
    9.8184  -15.3625   20.6462 C   0  0  0  0  0  0  0  0  0  0  0  0
    8.7056  -15.1005   20.1139 O   0  0  0  0  0  0  0  0  0  0  0  0
    7.5519  -17.1534   21.6101 C   0  0  0  0  0  0  0  0  0  0  0  0
    7.9273  -16.5859   22.9653 C   0  0  1  0  0  0  0  0  0  0  0  0
    8.7922  -17.4886   23.5564 O   0  0  0  0  0  0  0  0  0  0  0  0
    8.6117  -15.2583   22.8589 C   0  0  2  0  0  0  0  0  0  0  0  0
    9.8276  -15.3361   22.0621 N   0  0  0  0  0  0  0  0  0  0  0  0
    8.8766  -14.7227   24.1983 C   0  0  0  0  0  0  0  0  0  0  0  0
   10.0446  -14.6664   24.6959 O   0  0  0  0  0  0  0  0  0  0  0  0
    6.9031  -11.7011   26.3011 C   0  0  0  0  0  0  0  0  0  0  0  0
    6.9698  -13.0380   27.0148 C   0  0  1  0  0  0  0  0  0  0  0  0
    5.7422  -13.6762   26.7701 O   0  0  0  0  0  0  0  0  0  0  0  0
    8.1110  -13.8038   26.4137 C   0  0  2  0  0  0  0  0  0  0  0  0
    7.8689  -14.2203   25.0539 N   0  0  0  0  0  0  0  0  0  0  0  0
    8.4158  -14.9662   27.2596 C   0  0  0  0  0  0  0  0  0  0  0  0
    8.8221  -14.8742   28.5688 O   0  0  0  0  0  0  0  0  0  0  0  0
    8.3062  -16.1376   26.7795 O   0  0  0  0  0  0  0  0  0  0  0  0
  2  9  1  0
  2  1  1  6
  3  2  1  0
  4  3  1  0
  5  4  2  0
  6  5  1  0
  7  6  1  0
  7  8  2  0
  8  4  1  0
  9 10  2  0
 12 11  1  6
 12 13  1  0
 12 14  1  0
 14 15  1  1
 15  9  1  0
 16 14  1  0
 16 17  2  0
 19 18  1  6
 19 21  1  0
 20 19  1  0
 21 22  1  6
 21 23  1  0
 22 16  1  0
 23 24  1  0
 25 23  2  0
M  END
$$$$
