HTT.pdb
     RDKit          3D

 25 25  0  0  1  0  0  0  0  0999 V2000
    8.6855  -16.4001   16.0298 N   0  0  0  0  0  0  0  0  0  0  0  0
    8.0068  -16.4822   17.2851 C   0  0  1  0  0  0  0  0  0  0  0  0
    8.0614  -17.9409   17.7410 C   0  0  0  0  0  0  0  0  0  0  0  0
    7.1325  -18.7823   16.9247 C   0  0  0  0  0  0  0  0  0  0  0  0
    6.3538  -18.2897   15.8816 C   0  0  0  0  0  0  0  0  0  0  0  0
    5.6405  -19.2824   15.3581 N   0  0  0  0  0  0  0  0  0  0  0  0
    5.9607  -20.3848   16.0563 C   0  0  0  0  0  0  0  0  0  0  0  0
    6.8645  -20.0845   17.0061 N   0  0  0  0  0  0  0  0  0  0  0  0
    8.6669  -15.6841   18.3494 C   0  0  0  0  0  0  0  0  0  0  0  0
    9.2463  -14.5940   18.0915 O   0  0  0  0  0  0  0  0  0  0  0  0
    7.6947  -13.3730   19.5180 C   0  0  0  0  0  0  0  0  0  0  0  0
    7.8866  -14.0672   20.8525 C   0  0  1  0  0  0  0  0  0  0  0  0
    6.6765  -14.6491   21.1834 O   0  0  0  0  0  0  0  0  0  0  0  0
    8.9368  -15.1331   20.7960 C   0  0  2  0  0  0  0  0  0  0  0  0
    8.6988  -16.0735   19.7105 N   0  0  0  0  0  0  0  0  0  0  0  0
    9.0285  -15.8149   22.0914 C   0  0  0  0  0  0  0  0  0  0  0  0
    8.1733  -16.6718   22.4776 O   0  0  0  0  0  0  0  0  0  0  0  0
   12.3745  -17.7365   25.0447 C   0  0  0  0  0  0  0  0  0  0  0  0
   12.0179  -16.5414   24.1812 C   0  0  1  0  0  0  0  0  0  0  0  0
   12.7227  -16.7025   22.9763 O   0  0  0  0  0  0  0  0  0  0  0  0
   10.5356  -16.5857   23.9550 C   0  0  2  0  0  0  0  0  0  0  0  0
   10.0678  -15.5885   23.0233 N   0  0  0  0  0  0  0  0  0  0  0  0
    9.8427  -16.4488   25.2436 C   0  0  0  0  0  0  0  0  0  0  0  0
    9.8333  -17.4210   26.2143 O   0  0  0  0  0  0  0  0  0  0  0  0
    9.2066  -15.3800   25.5036 O   0  0  0  0  0  0  0  0  0  0  0  0
  2  9  1  0
  2  1  1  6
  3  2  1  0
  4  3  1  0
  5  4  2  0
  6  5  1  0
  7  6  1  0
  7  8  2  0
  8  4  1  0
  9 10  2  0
 12 11  1  6
 12 13  1  0
 12 14  1  0
 14 15  1  6
 15  9  1  0
 16 14  1  0
 16 17  2  0
 19 18  1  1
 19 21  1  0
 20 19  1  0
 21 22  1  6
 21 23  1  0
 22 16  1  0
 23 24  1  0
 25 23  2  0
M  END
$$$$
