HYI.pdb
     RDKit          3D

 31 32  0  0  1  0  0  0  0  0999 V2000
   20.7169  -10.2758  -18.0230 N   0  0  0  0  0  0  0  0  0  0  0  0
   20.9519   -9.0128  -18.6907 C   0  0  1  0  0  0  0  0  0  0  0  0
   20.0709   -8.9821  -19.9126 C   0  0  0  0  0  0  0  0  0  0  0  0
   20.5447  -10.0265  -20.8570 C   0  0  0  0  0  0  0  0  0  0  0  0
   21.6561  -10.0283  -21.6809 C   0  0  0  0  0  0  0  0  0  0  0  0
   21.7295  -11.1667  -22.3834 N   0  0  0  0  0  0  0  0  0  0  0  0
   20.6618  -11.9119  -22.0172 C   0  0  0  0  0  0  0  0  0  0  0  0
   19.9550  -11.2329  -21.1074 N   0  0  0  0  0  0  0  0  0  0  0  0
   20.6841   -7.8638  -17.7859 C   0  0  0  0  0  0  0  0  0  0  0  0
   19.5864   -7.8176  -17.2056 O   0  0  0  0  0  0  0  0  0  0  0  0
   20.4941   -9.5472  -11.5998 O   0  0  0  0  0  0  0  0  0  0  0  0
   20.9041   -8.6171  -12.5217 C   0  0  0  0  0  0  0  0  0  0  0  0
   20.2945   -7.3826  -12.5854 C   0  0  0  0  0  0  0  0  0  0  0  0
   20.7701   -6.5014  -13.5464 C   0  0  0  0  0  0  0  0  0  0  0  0
   21.7837   -6.8131  -14.3947 C   0  0  0  0  0  0  0  0  0  0  0  0
   22.2744   -5.8600  -15.4119 C   0  0  0  0  0  0  0  0  0  0  0  0
   21.3754   -5.7464  -16.6171 C   0  0  2  0  0  0  0  0  0  0  0  0
   21.6131   -6.8293  -17.5568 N   0  0  0  0  0  0  0  0  0  0  0  0
   21.4272   -4.4275  -17.2835 C   0  0  0  0  0  0  0  0  0  0  0  0
   22.3506   -4.1575  -18.0898 O   0  0  0  0  0  0  0  0  0  0  0  0
   22.3797   -8.0772  -14.3013 C   0  0  0  0  0  0  0  0  0  0  0  0
   21.9478   -8.9797  -13.3723 C   0  0  0  0  0  0  0  0  0  0  0  0
   17.8728   -0.7653  -20.2584 C   0  0  0  0  0  0  0  0  0  0  0  0
   19.0665   -0.7724  -19.3336 C   0  0  0  0  0  0  0  0  0  0  0  0
   19.2491   -2.0658  -18.6178 C   0  0  2  0  0  0  0  0  0  0  0  0
   18.0116   -2.4270  -17.8632 C   0  0  0  0  0  0  0  0  0  0  0  0
   20.4768   -2.1228  -17.7610 C   0  0  2  0  0  0  0  0  0  0  0  0
   20.4598   -3.4102  -17.0585 N   0  0  0  0  0  0  0  0  0  0  0  0
   20.4786   -1.0611  -16.7236 C   0  0  0  0  0  0  0  0  0  0  0  0
   20.0518   -1.2744  -15.5446 O   0  0  0  0  0  0  0  0  0  0  0  0
   20.9403    0.2300  -16.9566 O   0  0  0  0  0  0  0  0  0  0  0  0
  2  1  1  1
  2  3  1  0
  3  4  1  0
  4  8  1  0
  4  5  2  0
  5  6  1  0
  7  6  1  0
  8  7  2  0
  9  2  1  0
  9 10  2  0
 11 12  1  0
 12 13  2  0
 13 14  1  0
 15 16  1  0
 15 14  2  0
 17 18  1  0
 17 16  1  1
 18  9  1  0
 19 17  1  0
 20 19  2  0
 21 15  1  0
 22 21  2  0
 22 12  1  0
 23 24  1  0
 25 24  1  0
 25 27  1  0
 25 26  1  1
 27 28  1  1
 28 19  1  0
 29 27  1  0
 29 31  1  0
 30 29  2  0
M  END
$$$$
