HYI.pdb
     RDKit          3D

 31 32  0  0  1  0  0  0  0  0999 V2000
   26.5664  -19.6700  -15.1108 N   0  0  0  0  0  0  0  0  0  0  0  0
   27.4579  -19.4160  -13.9987 C   0  0  1  0  0  0  0  0  0  0  0  0
   28.1019  -18.0752  -14.2387 C   0  0  0  0  0  0  0  0  0  0  0  0
   28.8224  -18.1282  -15.5367 C   0  0  0  0  0  0  0  0  0  0  0  0
   28.7349  -17.2803  -16.6265 C   0  0  0  0  0  0  0  0  0  0  0  0
   29.5554  -17.6766  -17.6087 N   0  0  0  0  0  0  0  0  0  0  0  0
   30.1816  -18.7880  -17.1590 C   0  0  0  0  0  0  0  0  0  0  0  0
   29.7453  -19.0578  -15.9240 N   0  0  0  0  0  0  0  0  0  0  0  0
   26.7315  -19.4573  -12.7020 C   0  0  0  0  0  0  0  0  0  0  0  0
   26.0932  -18.4494  -12.3549 O   0  0  0  0  0  0  0  0  0  0  0  0
   20.7384  -19.7677  -14.0834 O   0  0  0  0  0  0  0  0  0  0  0  0
   21.7528  -20.2363  -13.2869 C   0  0  0  0  0  0  0  0  0  0  0  0
   22.6706  -21.1367  -13.7840 C   0  0  0  0  0  0  0  0  0  0  0  0
   23.6640  -21.5597  -12.9120 C   0  0  0  0  0  0  0  0  0  0  0  0
   23.7517  -21.1251  -11.6283 C   0  0  0  0  0  0  0  0  0  0  0  0
   24.8174  -21.5892  -10.7158 C   0  0  0  0  0  0  0  0  0  0  0  0
   25.9803  -20.6352  -10.6102 C   0  0  2  0  0  0  0  0  0  0  0  0
   26.7333  -20.5813  -11.8521 N   0  0  0  0  0  0  0  0  0  0  0  0
   26.8622  -20.8884   -9.4506 C   0  0  0  0  0  0  0  0  0  0  0  0
   27.8618  -21.6393   -9.5631 O   0  0  0  0  0  0  0  0  0  0  0  0
   22.8016  -20.2101  -11.1573 C   0  0  0  0  0  0  0  0  0  0  0  0
   21.8046  -19.7635  -11.9762 C   0  0  0  0  0  0  0  0  0  0  0  0
   29.2976  -18.5671   -4.4555 C   0  0  0  0  0  0  0  0  0  0  0  0
   28.6776  -19.8037   -5.0609 C   0  0  0  0  0  0  0  0  0  0  0  0
   27.9015  -19.5261   -6.3016 C   0  0  2  0  0  0  0  0  0  0  0  0
   26.8530  -18.4938   -6.0444 C   0  0  0  0  0  0  0  0  0  0  0  0
   27.3465  -20.7506   -6.9628 C   0  0  2  0  0  0  0  0  0  0  0  0
   26.6386  -20.3121   -8.1703 N   0  0  0  0  0  0  0  0  0  0  0  0
   26.3535  -21.4427   -6.1036 C   0  0  0  0  0  0  0  0  0  0  0  0
   26.6950  -22.0530   -5.0412 O   0  0  0  0  0  0  0  0  0  0  0  0
   24.9927  -21.4770   -6.3889 O   0  0  0  0  0  0  0  0  0  0  0  0
  2  1  1  6
  2  3  1  0
  3  4  1  0
  4  8  1  0
  4  5  2  0
  5  6  1  0
  7  6  1  0
  8  7  2  0
  9  2  1  0
  9 10  2  0
 11 12  1  0
 12 13  2  0
 13 14  1  0
 15 16  1  0
 15 14  2  0
 17 18  1  0
 17 16  1  6
 18  9  1  0
 19 17  1  0
 20 19  2  0
 21 15  1  0
 22 21  2  0
 22 12  1  0
 23 24  1  0
 25 24  1  0
 25 27  1  0
 25 26  1  1
 27 28  1  6
 28 19  1  0
 29 27  1  0
 29 31  1  0
 30 29  2  0
M  END
$$$$
