HYI.pdb
     RDKit          3D

 31 32  0  0  1  0  0  0  0  0999 V2000
   27.6604  -19.9614  -16.4511 N   0  0  0  0  0  0  0  0  0  0  0  0
   27.7880  -18.8733  -15.5046 C   0  0  1  0  0  0  0  0  0  0  0  0
   27.4148  -17.6052  -16.2278 C   0  0  0  0  0  0  0  0  0  0  0  0
   28.2404  -17.5089  -17.4590 C   0  0  0  0  0  0  0  0  0  0  0  0
   27.8432  -17.4730  -18.7838 C   0  0  0  0  0  0  0  0  0  0  0  0
   28.9024  -17.3830  -19.5991 N   0  0  0  0  0  0  0  0  0  0  0  0
   29.9964  -17.3599  -18.8040 C   0  0  0  0  0  0  0  0  0  0  0  0
   29.6027  -17.4349  -17.5282 N   0  0  0  0  0  0  0  0  0  0  0  0
   26.9389  -19.0969  -14.3047 C   0  0  0  0  0  0  0  0  0  0  0  0
   26.7610  -18.1450  -13.5263 O   0  0  0  0  0  0  0  0  0  0  0  0
   20.8522  -18.2889  -16.7841 O   0  0  0  0  0  0  0  0  0  0  0  0
   21.6428  -19.0023  -15.9186 C   0  0  0  0  0  0  0  0  0  0  0  0
   21.4481  -18.9080  -14.5573 C   0  0  0  0  0  0  0  0  0  0  0  0
   22.2911  -19.6627  -13.7534 C   0  0  0  0  0  0  0  0  0  0  0  0
   23.2672  -20.4623  -14.2555 C   0  0  0  0  0  0  0  0  0  0  0  0
   24.1549  -21.2571  -13.3813 C   0  0  0  0  0  0  0  0  0  0  0  0
   25.3806  -20.5079  -12.9233 C   0  0  2  0  0  0  0  0  0  0  0  0
   26.3290  -20.3327  -14.0105 N   0  0  0  0  0  0  0  0  0  0  0  0
   26.0271  -21.0874  -11.7264 C   0  0  0  0  0  0  0  0  0  0  0  0
   26.7277  -22.1246  -11.8206 O   0  0  0  0  0  0  0  0  0  0  0  0
   23.4361  -20.5335  -15.6441 C   0  0  0  0  0  0  0  0  0  0  0  0
   22.6321  -19.8104  -16.4777 C   0  0  0  0  0  0  0  0  0  0  0  0
   29.3692  -19.5353   -8.1589 C   0  0  0  0  0  0  0  0  0  0  0  0
   28.4300  -20.3959   -8.9697 C   0  0  0  0  0  0  0  0  0  0  0  0
   27.0812  -20.5372   -8.3538 C   0  0  2  0  0  0  0  0  0  0  0  0
   27.1912  -21.0951   -6.9725 C   0  0  0  0  0  0  0  0  0  0  0  0
   26.0996  -21.2917   -9.1973 C   0  0  2  0  0  0  0  0  0  0  0  0
   25.8986  -20.5206  -10.4288 N   0  0  0  0  0  0  0  0  0  0  0  0
   24.7755  -21.4086   -8.5364 C   0  0  0  0  0  0  0  0  0  0  0  0
   24.5025  -22.3668   -7.7459 O   0  0  0  0  0  0  0  0  0  0  0  0
   23.7461  -20.4930   -8.7272 O   0  0  0  0  0  0  0  0  0  0  0  0
  2  1  1  6
  2  3  1  0
  3  4  1  0
  4  8  1  0
  4  5  2  0
  5  6  1  0
  7  6  1  0
  8  7  2  0
  9  2  1  0
  9 10  2  0
 11 12  1  0
 12 13  2  0
 13 14  1  0
 15 16  1  0
 15 14  2  0
 17 18  1  0
 17 16  1  6
 18  9  1  0
 19 17  1  0
 20 19  2  0
 21 15  1  0
 22 21  2  0
 22 12  1  0
 23 24  1  0
 25 24  1  0
 25 27  1  0
 25 26  1  1
 27 28  1  6
 28 19  1  0
 29 27  1  0
 29 31  1  0
 30 29  2  0
M  END
$$$$
