HYI.pdb
     RDKit          3D

 31 32  0  0  1  0  0  0  0  0999 V2000
   25.5971  -15.5832  -17.8035 N   0  0  0  0  0  0  0  0  0  0  0  0
   26.2222  -16.7129  -17.1482 C   0  0  1  0  0  0  0  0  0  0  0  0
   27.5797  -16.2610  -16.6757 C   0  0  0  0  0  0  0  0  0  0  0  0
   28.4871  -16.1998  -17.8503 C   0  0  0  0  0  0  0  0  0  0  0  0
   28.9512  -15.0982  -18.5468 C   0  0  0  0  0  0  0  0  0  0  0  0
   29.7557  -15.4706  -19.5511 N   0  0  0  0  0  0  0  0  0  0  0  0
   29.8178  -16.8211  -19.5110 C   0  0  0  0  0  0  0  0  0  0  0  0
   29.0619  -17.2567  -18.4974 N   0  0  0  0  0  0  0  0  0  0  0  0
   25.3863  -17.2197  -16.0279 C   0  0  0  0  0  0  0  0  0  0  0  0
   25.0489  -16.4196  -15.1393 O   0  0  0  0  0  0  0  0  0  0  0  0
   19.6608  -21.4902  -11.0649 O   0  0  0  0  0  0  0  0  0  0  0  0
   20.4277  -20.9799  -12.0821 C   0  0  0  0  0  0  0  0  0  0  0  0
   20.4411  -19.6247  -12.3329 C   0  0  0  0  0  0  0  0  0  0  0  0
   21.2435  -19.1924  -13.3795 C   0  0  0  0  0  0  0  0  0  0  0  0
   21.9885  -20.0397  -14.1354 C   0  0  0  0  0  0  0  0  0  0  0  0
   22.8358  -19.5584  -15.2463 C   0  0  0  0  0  0  0  0  0  0  0  0
   24.1888  -19.0619  -14.8033 C   0  0  2  0  0  0  0  0  0  0  0  0
   24.9606  -18.5593  -15.9275 N   0  0  0  0  0  0  0  0  0  0  0  0
   24.9596  -20.0438  -14.0108 C   0  0  0  0  0  0  0  0  0  0  0  0
   25.6996  -20.8821  -14.5813 O   0  0  0  0  0  0  0  0  0  0  0  0
   21.9503  -21.4108  -13.8517 C   0  0  0  0  0  0  0  0  0  0  0  0
   21.1765  -21.8860  -12.8322 C   0  0  0  0  0  0  0  0  0  0  0  0
   26.1869  -18.8476   -8.6937 C   0  0  0  0  0  0  0  0  0  0  0  0
   26.3076  -19.3176  -10.1236 C   0  0  0  0  0  0  0  0  0  0  0  0
   25.6309  -20.6207  -10.3741 C   0  0  2  0  0  0  0  0  0  0  0  0
   26.1376  -21.6643   -9.4332 C   0  0  0  0  0  0  0  0  0  0  0  0
   25.6775  -21.0695  -11.8027 C   0  0  2  0  0  0  0  0  0  0  0  0
   24.9117  -20.0980  -12.5909 N   0  0  0  0  0  0  0  0  0  0  0  0
   25.0274  -22.3907  -11.9901 C   0  0  0  0  0  0  0  0  0  0  0  0
   23.7624  -22.5164  -12.0304 O   0  0  0  0  0  0  0  0  0  0  0  0
   25.7404  -23.5762  -12.1344 O   0  0  0  0  0  0  0  0  0  0  0  0
  2  1  1  1
  2  3  1  0
  3  4  1  0
  4  8  1  0
  4  5  2  0
  5  6  1  0
  7  6  1  0
  8  7  2  0
  9  2  1  0
  9 10  2  0
 11 12  1  0
 12 13  2  0
 13 14  1  0
 15 16  1  0
 15 14  2  0
 17 18  1  0
 17 16  1  6
 18  9  1  0
 19 17  1  0
 20 19  2  0
 21 15  1  0
 22 21  2  0
 22 12  1  0
 23 24  1  0
 25 24  1  0
 25 27  1  0
 25 26  1  1
 27 28  1  6
 28 19  1  0
 29 27  1  0
 29 31  1  0
 30 29  2  0
M  END
$$$$
