HYI.pdb
     RDKit          3D

 31 32  0  0  1  0  0  0  0  0999 V2000
   20.5418  -12.1459  -17.4149 N   0  0  0  0  0  0  0  0  0  0  0  0
   21.3603  -10.9516  -17.4184 C   0  0  1  0  0  0  0  0  0  0  0  0
   21.4475  -10.4732  -18.8444 C   0  0  0  0  0  0  0  0  0  0  0  0
   22.1777  -11.4958  -19.6368 C   0  0  0  0  0  0  0  0  0  0  0  0
   23.4787  -11.9474  -19.5040 C   0  0  0  0  0  0  0  0  0  0  0  0
   23.7571  -12.8826  -20.4219 N   0  0  0  0  0  0  0  0  0  0  0  0
   22.6336  -13.0429  -21.1578 C   0  0  0  0  0  0  0  0  0  0  0  0
   21.6916  -12.2166  -20.6904 N   0  0  0  0  0  0  0  0  0  0  0  0
   20.8009   -9.9091  -16.5177 C   0  0  0  0  0  0  0  0  0  0  0  0
   19.5768   -9.6993  -16.5525 O   0  0  0  0  0  0  0  0  0  0  0  0
   18.7582   -5.2963   -9.5196 O   0  0  0  0  0  0  0  0  0  0  0  0
   19.4188   -6.0625  -10.4469 C   0  0  0  0  0  0  0  0  0  0  0  0
   20.5430   -5.5767  -11.0794 C   0  0  0  0  0  0  0  0  0  0  0  0
   21.1502   -6.4160  -12.0030 C   0  0  0  0  0  0  0  0  0  0  0  0
   20.6820   -7.6582  -12.2892 C   0  0  0  0  0  0  0  0  0  0  0  0
   21.3434   -8.5357  -13.2773 C   0  0  0  0  0  0  0  0  0  0  0  0
   21.0317   -8.1770  -14.7083 C   0  0  2  0  0  0  0  0  0  0  0  0
   21.5909   -9.1513  -15.6304 N   0  0  0  0  0  0  0  0  0  0  0  0
   21.4125   -6.7972  -15.0789 C   0  0  0  0  0  0  0  0  0  0  0  0
   22.6106   -6.5104  -15.3197 O   0  0  0  0  0  0  0  0  0  0  0  0
   19.5370   -8.1189  -11.6270 C   0  0  0  0  0  0  0  0  0  0  0  0
   18.9033   -7.3311  -10.7095 C   0  0  0  0  0  0  0  0  0  0  0  0
   19.0379   -4.2069  -18.9231 C   0  0  0  0  0  0  0  0  0  0  0  0
   20.0611   -4.6164  -17.8910 C   0  0  0  0  0  0  0  0  0  0  0  0
   19.9128   -3.8949  -16.5963 C   0  0  2  0  0  0  0  0  0  0  0  0
   19.9827   -2.4179  -16.8079 C   0  0  0  0  0  0  0  0  0  0  0  0
   20.8493   -4.3626  -15.5246 C   0  0  2  0  0  0  0  0  0  0  0  0
   20.4701   -5.7377  -15.1829 N   0  0  0  0  0  0  0  0  0  0  0  0
   20.7211   -3.5554  -14.2854 C   0  0  0  0  0  0  0  0  0  0  0  0
   19.6946   -3.6314  -13.5383 O   0  0  0  0  0  0  0  0  0  0  0  0
   21.6990   -2.6667  -13.8514 O   0  0  0  0  0  0  0  0  0  0  0  0
  2  1  1  6
  2  3  1  0
  3  4  1  0
  4  8  1  0
  4  5  2  0
  5  6  1  0
  7  6  1  0
  8  7  2  0
  9  2  1  0
  9 10  2  0
 11 12  1  0
 12 13  2  0
 13 14  1  0
 15 16  1  0
 15 14  2  0
 17 18  1  0
 17 16  1  1
 18  9  1  0
 19 17  1  0
 20 19  2  0
 21 15  1  0
 22 21  2  0
 22 12  1  0
 23 24  1  0
 25 24  1  0
 25 27  1  0
 25 26  1  6
 27 28  1  1
 28 19  1  0
 29 27  1  0
 29 31  1  0
 30 29  2  0
M  END
$$$$
