HYI.pdb
     RDKit          3D

 31 32  0  0  1  0  0  0  0  0999 V2000
   28.1567  -22.5212  -17.1890 N   0  0  0  0  0  0  0  0  0  0  0  0
   27.6329  -21.3133  -16.5865 C   0  0  1  0  0  0  0  0  0  0  0  0
   26.2601  -21.0845  -17.1637 C   0  0  0  0  0  0  0  0  0  0  0  0
   26.4136  -20.6362  -18.5716 C   0  0  0  0  0  0  0  0  0  0  0  0
   25.7691  -21.0819  -19.7118 C   0  0  0  0  0  0  0  0  0  0  0  0
   26.1940  -20.4156  -20.7936 N   0  0  0  0  0  0  0  0  0  0  0  0
   27.1201  -19.5308  -20.3588 C   0  0  0  0  0  0  0  0  0  0  0  0
   27.2516  -19.6617  -19.0344 N   0  0  0  0  0  0  0  0  0  0  0  0
   27.5999  -21.4181  -15.1038 C   0  0  0  0  0  0  0  0  0  0  0  0
   27.0718  -22.4228  -14.5983 O   0  0  0  0  0  0  0  0  0  0  0  0
   33.5332  -23.6897  -11.9380 O   0  0  0  0  0  0  0  0  0  0  0  0
   32.5066  -22.7793  -11.9573 C   0  0  0  0  0  0  0  0  0  0  0  0
   31.9617  -22.3178  -10.7783 C   0  0  0  0  0  0  0  0  0  0  0  0
   30.9273  -21.3988  -10.8875 C   0  0  0  0  0  0  0  0  0  0  0  0
   30.4556  -20.9589  -12.0826 C   0  0  0  0  0  0  0  0  0  0  0  0
   29.3522  -19.9804  -12.1764 C   0  0  0  0  0  0  0  0  0  0  0  0
   28.0988  -20.5408  -12.7996 C   0  0  2  0  0  0  0  0  0  0  0  0
   28.1373  -20.4354  -14.2486 N   0  0  0  0  0  0  0  0  0  0  0  0
   26.8486  -19.9771  -12.2468 C   0  0  0  0  0  0  0  0  0  0  0  0
   26.2708  -19.0235  -12.8233 O   0  0  0  0  0  0  0  0  0  0  0  0
   31.0335  -21.4497  -13.2603 C   0  0  0  0  0  0  0  0  0  0  0  0
   32.0539  -22.3552  -13.2060 C   0  0  0  0  0  0  0  0  0  0  0  0
   23.1537  -20.6576  -14.0595 C   0  0  0  0  0  0  0  0  0  0  0  0
   24.1011  -20.0754  -13.0380 C   0  0  0  0  0  0  0  0  0  0  0  0
   23.9425  -20.6700  -11.6816 C   0  0  2  0  0  0  0  0  0  0  0  0
   22.5149  -20.6097  -11.2462 C   0  0  0  0  0  0  0  0  0  0  0  0
   24.8766  -20.1076  -10.6541 C   0  0  2  0  0  0  0  0  0  0  0  0
   26.2395  -20.4674  -11.0594 N   0  0  0  0  0  0  0  0  0  0  0  0
   24.6497  -20.7035   -9.3136 C   0  0  0  0  0  0  0  0  0  0  0  0
   23.9485  -20.1178   -8.4289 O   0  0  0  0  0  0  0  0  0  0  0  0
   25.1783  -21.9305   -8.9267 O   0  0  0  0  0  0  0  0  0  0  0  0
  2  1  1  6
  2  3  1  0
  3  4  1  0
  4  8  1  0
  4  5  2  0
  5  6  1  0
  7  6  1  0
  8  7  2  0
  9  2  1  0
  9 10  2  0
 11 12  1  0
 12 13  2  0
 13 14  1  0
 15 16  1  0
 15 14  2  0
 17 18  1  0
 17 16  1  1
 18  9  1  0
 19 17  1  0
 20 19  2  0
 21 15  1  0
 22 21  2  0
 22 12  1  0
 23 24  1  0
 25 24  1  0
 25 27  1  0
 25 26  1  1
 27 28  1  6
 28 19  1  0
 29 27  1  0
 29 31  1  0
 30 29  2  0
M  END
$$$$
