HYI.pdb
     RDKit          3D

 31 32  0  0  1  0  0  0  0  0999 V2000
   24.6853  -17.2053  -18.3617 N   0  0  0  0  0  0  0  0  0  0  0  0
   23.5438  -17.1724  -17.4717 C   0  0  1  0  0  0  0  0  0  0  0  0
   22.3282  -16.8834  -18.3137 C   0  0  0  0  0  0  0  0  0  0  0  0
   22.3565  -15.4489  -18.6988 C   0  0  0  0  0  0  0  0  0  0  0  0
   21.5353  -14.4126  -18.2916 C   0  0  0  0  0  0  0  0  0  0  0  0
   21.8929  -13.2607  -18.8747 N   0  0  0  0  0  0  0  0  0  0  0  0
   22.9521  -13.5452  -19.6662 C   0  0  0  0  0  0  0  0  0  0  0  0
   23.2291  -14.8494  -19.5620 N   0  0  0  0  0  0  0  0  0  0  0  0
   23.4063  -18.4477  -16.7199 C   0  0  0  0  0  0  0  0  0  0  0  0
   23.3129  -19.5036  -17.3681 O   0  0  0  0  0  0  0  0  0  0  0  0
   29.1011  -21.2923  -16.5666 O   0  0  0  0  0  0  0  0  0  0  0  0
   27.9779  -20.9368  -15.8630 C   0  0  0  0  0  0  0  0  0  0  0  0
   27.7922  -19.6323  -15.4582 C   0  0  0  0  0  0  0  0  0  0  0  0
   26.6295  -19.3584  -14.7517 C   0  0  0  0  0  0  0  0  0  0  0  0
   25.7038  -20.3082  -14.4595 C   0  0  0  0  0  0  0  0  0  0  0  0
   24.4724  -19.9952  -13.7048 C   0  0  0  0  0  0  0  0  0  0  0  0
   23.2677  -19.7662  -14.5821 C   0  0  2  0  0  0  0  0  0  0  0  0
   23.3770  -18.5145  -15.3126 N   0  0  0  0  0  0  0  0  0  0  0  0
   21.9765  -19.8681  -13.8688 C   0  0  0  0  0  0  0  0  0  0  0  0
   21.6043  -18.9546  -13.0925 O   0  0  0  0  0  0  0  0  0  0  0  0
   25.9257  -21.6234  -14.8868 C   0  0  0  0  0  0  0  0  0  0  0  0
   27.0542  -21.9438  -15.5853 C   0  0  0  0  0  0  0  0  0  0  0  0
   16.3061  -21.5792  -14.7702 C   0  0  0  0  0  0  0  0  0  0  0  0
   17.3896  -21.4646  -13.7248 C   0  0  0  0  0  0  0  0  0  0  0  0
   18.7551  -21.3301  -14.3044 C   0  0  2  0  0  0  0  0  0  0  0  0
   19.0622  -22.4874  -15.1974 C   0  0  0  0  0  0  0  0  0  0  0  0
   19.8302  -21.0926  -13.2884 C   0  0  2  0  0  0  0  0  0  0  0  0
   21.0995  -20.9776  -14.0144 N   0  0  0  0  0  0  0  0  0  0  0  0
   19.9679  -22.2342  -12.3497 C   0  0  0  0  0  0  0  0  0  0  0  0
   19.1623  -22.4071  -11.3808 O   0  0  0  0  0  0  0  0  0  0  0  0
   20.9732  -23.1895  -12.4553 O   0  0  0  0  0  0  0  0  0  0  0  0
  2  1  1  6
  2  3  1  0
  3  4  1  0
  4  8  1  0
  4  5  2  0
  5  6  1  0
  7  6  1  0
  8  7  2  0
  9  2  1  0
  9 10  2  0
 11 12  1  0
 12 13  2  0
 13 14  1  0
 15 16  1  0
 15 14  2  0
 17 18  1  0
 17 16  1  1
 18  9  1  0
 19 17  1  0
 20 19  2  0
 21 15  1  0
 22 21  2  0
 22 12  1  0
 23 24  1  0
 25 24  1  0
 25 27  1  0
 25 26  1  1
 27 28  1  6
 28 19  1  0
 29 27  1  0
 29 31  1  0
 30 29  2  0
M  END
$$$$
