HYI.pdb
     RDKit          3D

 31 32  0  0  1  0  0  0  0  0999 V2000
   21.2760  -17.4738  -15.7506 N   0  0  0  0  0  0  0  0  0  0  0  0
   21.2433  -16.3696  -16.6865 C   0  0  1  0  0  0  0  0  0  0  0  0
   19.7956  -16.0227  -16.9188 C   0  0  0  0  0  0  0  0  0  0  0  0
   19.1301  -17.1916  -17.5493 C   0  0  0  0  0  0  0  0  0  0  0  0
   18.1449  -18.0211  -17.0438 C   0  0  0  0  0  0  0  0  0  0  0  0
   17.8119  -18.9663  -17.9330 N   0  0  0  0  0  0  0  0  0  0  0  0
   18.5827  -18.7538  -19.0240 C   0  0  0  0  0  0  0  0  0  0  0  0
   19.3687  -17.6961  -18.7961 N   0  0  0  0  0  0  0  0  0  0  0  0
   22.0170  -15.2060  -16.1784 C   0  0  0  0  0  0  0  0  0  0  0  0
   21.7929  -14.8128  -15.0213 O   0  0  0  0  0  0  0  0  0  0  0  0
   27.9087   -8.6150  -16.0174 O   0  0  0  0  0  0  0  0  0  0  0  0
   27.2389   -9.7994  -16.1960 C   0  0  0  0  0  0  0  0  0  0  0  0
   27.0605  -10.6658  -15.1390 C   0  0  0  0  0  0  0  0  0  0  0  0
   26.3722  -11.8412  -15.4058 C   0  0  0  0  0  0  0  0  0  0  0  0
   25.8878  -12.1481  -16.6368 C   0  0  0  0  0  0  0  0  0  0  0  0
   25.1583  -13.4061  -16.8997 C   0  0  0  0  0  0  0  0  0  0  0  0
   23.7178  -13.3735  -16.4552 C   0  0  2  0  0  0  0  0  0  0  0  0
   22.9882  -14.5312  -16.9446 N   0  0  0  0  0  0  0  0  0  0  0  0
   23.0169  -12.1126  -16.7795 C   0  0  0  0  0  0  0  0  0  0  0  0
   22.7146  -11.8396  -17.9669 O   0  0  0  0  0  0  0  0  0  0  0  0
   26.0878  -11.2437  -17.6875 C   0  0  0  0  0  0  0  0  0  0  0  0
   26.7588  -10.0736  -17.4760 C   0  0  0  0  0  0  0  0  0  0  0  0
   18.3659  -10.7901  -16.1840 C   0  0  0  0  0  0  0  0  0  0  0  0
   19.8038  -10.7028  -16.6367 C   0  0  0  0  0  0  0  0  0  0  0  0
   20.6495   -9.8548  -15.7512 C   0  0  2  0  0  0  0  0  0  0  0  0
   20.0757   -8.4804  -15.6372 C   0  0  0  0  0  0  0  0  0  0  0  0
   22.1005   -9.8382  -16.1238 C   0  0  2  0  0  0  0  0  0  0  0  0
   22.6516  -11.1565  -15.7927 N   0  0  0  0  0  0  0  0  0  0  0  0
   22.8635   -8.8375  -15.3365 C   0  0  0  0  0  0  0  0  0  0  0  0
   23.0122   -7.6398  -15.7378 O   0  0  0  0  0  0  0  0  0  0  0  0
   23.4660   -9.1274  -14.1170 O   0  0  0  0  0  0  0  0  0  0  0  0
  2  1  1  1
  2  3  1  0
  3  4  1  0
  4  8  1  0
  4  5  2  0
  5  6  1  0
  7  6  1  0
  8  7  2  0
  9  2  1  0
  9 10  2  0
 11 12  1  0
 12 13  2  0
 13 14  1  0
 15 16  1  0
 15 14  2  0
 17 18  1  0
 17 16  1  6
 18  9  1  0
 19 17  1  0
 20 19  2  0
 21 15  1  0
 22 21  2  0
 22 12  1  0
 23 24  1  0
 25 24  1  0
 25 27  1  0
 25 26  1  6
 27 28  1  1
 28 19  1  0
 29 27  1  0
 29 31  1  0
 30 29  2  0
M  END
$$$$
