NVG.pdb
     RDKit          3D

 20 19  0  0  1  0  0  0  0  0999 V2000
    5.3144  -16.7738   20.4036 N   0  0  0  0  0  0  0  0  0  0  0  0
    6.1629  -17.5830   21.2227 C   0  0  0  0  0  0  0  0  0  0  0  0
    6.1897  -18.8256   21.0419 O   0  0  0  0  0  0  0  0  0  0  0  0
    7.0241  -17.0089   22.2909 C   0  0  0  0  0  0  0  0  0  0  0  0
    6.8179  -15.5020   22.2701 C   0  0  2  0  0  0  0  0  0  0  0  0
    7.2982  -15.0056   20.9888 N   0  0  0  0  0  0  0  0  0  0  0  0
    7.5546  -14.8582   23.3889 C   0  0  0  0  0  0  0  0  0  0  0  0
    8.7865  -14.6895   23.2724 O   0  0  0  0  0  0  0  0  0  0  0  0
    7.8613  -12.1843   27.4068 C   0  0  0  0  0  0  0  0  0  0  0  0
    6.8870  -12.8602   26.4682 C   0  0  1  0  0  0  0  0  0  0  0  0
    6.1474  -11.8045   25.7206 C   0  0  0  0  0  0  0  0  0  0  0  0
    7.6853  -13.7769   25.5794 C   0  0  2  0  0  0  0  0  0  0  0  0
    6.9176  -14.4300   24.5778 N   0  0  0  0  0  0  0  0  0  0  0  0
    8.3017  -14.8316   26.4541 C   0  0  0  0  0  0  0  0  0  0  0  0
    7.5879  -15.4569   27.2630 O   0  0  0  0  0  0  0  0  0  0  0  0
    9.6750  -15.1311   26.3802 N   0  0  0  0  0  0  0  0  0  0  0  0
   10.2404  -16.1051   27.2968 C   0  0  0  0  0  0  0  0  0  0  0  0
   11.6765  -16.2985   26.9893 C   0  0  0  0  0  0  0  0  0  0  0  0
   12.4576  -17.0900   27.7930 O   0  0  0  0  0  0  0  0  0  0  0  0
   12.1905  -15.7355   25.9849 O   0  0  0  0  0  0  0  0  0  0  0  0
  2  3  2  0
  2  1  1  0
  4  2  1  0
  5  4  1  0
  5  7  1  0
  5  6  1  6
  7  8  2  0
 10 12  1  0
 10  9  1  1
 11 10  1  0
 12 13  1  6
 13  7  1  0
 14 16  1  0
 14 12  1  0
 15 14  2  0
 17 18  1  0
 17 16  1  0
 18 19  1  0
 20 18  2  0
M  END
$$$$
