NVG.pdb
     RDKit          3D

 20 19  0  0  1  0  0  0  0  0999 V2000
    6.4735  -20.1126   17.2797 N   0  0  0  0  0  0  0  0  0  0  0  0
    7.8621  -19.9130   17.0015 C   0  0  0  0  0  0  0  0  0  0  0  0
    8.3882  -20.5143   16.0324 O   0  0  0  0  0  0  0  0  0  0  0  0
    8.7187  -19.0137   17.8200 C   0  0  0  0  0  0  0  0  0  0  0  0
    8.2887  -17.5868   17.5150 C   0  0  2  0  0  0  0  0  0  0  0  0
    8.7954  -17.2428   16.1945 N   0  0  0  0  0  0  0  0  0  0  0  0
    8.8211  -16.6504   18.5390 C   0  0  0  0  0  0  0  0  0  0  0  0
   10.0401  -16.3793   18.5223 O   0  0  0  0  0  0  0  0  0  0  0  0
    8.2894  -13.0747   21.7593 C   0  0  0  0  0  0  0  0  0  0  0  0
    7.5683  -14.0013   20.8060 C   0  0  1  0  0  0  0  0  0  0  0  0
    7.0330  -13.1885   19.6777 C   0  0  0  0  0  0  0  0  0  0  0  0
    8.5552  -15.0527   20.3723 C   0  0  2  0  0  0  0  0  0  0  0  0
    8.0042  -16.0553   19.5295 N   0  0  0  0  0  0  0  0  0  0  0  0
    9.0767  -15.7226   21.6120 C   0  0  0  0  0  0  0  0  0  0  0  0
    8.3081  -16.4132   22.3100 O   0  0  0  0  0  0  0  0  0  0  0  0
   10.4214  -15.5870   22.0051 N   0  0  0  0  0  0  0  0  0  0  0  0
   10.8923  -16.2940   23.1828 C   0  0  0  0  0  0  0  0  0  0  0  0
   12.2910  -15.8996   23.4703 C   0  0  0  0  0  0  0  0  0  0  0  0
   12.8979  -16.2954   24.6354 O   0  0  0  0  0  0  0  0  0  0  0  0
   12.9332  -15.1963   22.6440 O   0  0  0  0  0  0  0  0  0  0  0  0
  2  3  2  0
  2  1  1  0
  4  2  1  0
  5  4  1  0
  5  7  1  0
  5  6  1  6
  7  8  2  0
 10 12  1  0
 10  9  1  1
 11 10  1  0
 12 13  1  6
 13  7  1  0
 14 16  1  0
 14 12  1  0
 15 14  2  0
 17 18  1  0
 17 16  1  0
 18 19  1  0
 20 18  2  0
M  END
$$$$
