NVG.pdb
     RDKit          3D

 20 19  0  0  1  0  0  0  0  0999 V2000
    7.3758  -21.2311   17.5931 N   0  0  0  0  0  0  0  0  0  0  0  0
    6.9687  -19.8680   17.7401 C   0  0  0  0  0  0  0  0  0  0  0  0
    5.9835  -19.4459   17.0854 O   0  0  0  0  0  0  0  0  0  0  0  0
    7.6704  -18.9189   18.6452 C   0  0  0  0  0  0  0  0  0  0  0  0
    7.6806  -17.5647   17.9523 C   0  0  2  0  0  0  0  0  0  0  0  0
    8.4276  -17.7064   16.7111 N   0  0  0  0  0  0  0  0  0  0  0  0
    8.3063  -16.5364   18.8240 C   0  0  0  0  0  0  0  0  0  0  0  0
    9.5455  -16.3887   18.7764 O   0  0  0  0  0  0  0  0  0  0  0  0
    8.2658  -12.6415   21.6932 C   0  0  0  0  0  0  0  0  0  0  0  0
    7.4376  -13.5114   20.7741 C   0  0  1  0  0  0  0  0  0  0  0  0
    7.1280  -12.7309   19.5433 C   0  0  0  0  0  0  0  0  0  0  0  0
    8.2318  -14.7625   20.5070 C   0  0  2  0  0  0  0  0  0  0  0  0
    7.5561  -15.7200   19.7034 N   0  0  0  0  0  0  0  0  0  0  0  0
    8.5333  -15.3992   21.8342 C   0  0  0  0  0  0  0  0  0  0  0  0
    7.5971  -15.8075   22.5494 O   0  0  0  0  0  0  0  0  0  0  0  0
    9.8567  -15.5458   22.2904 N   0  0  0  0  0  0  0  0  0  0  0  0
   10.0996  -16.1761   23.5758 C   0  0  0  0  0  0  0  0  0  0  0  0
   11.5480  -16.1302   23.8834 C   0  0  0  0  0  0  0  0  0  0  0  0
   12.0045  -16.4860   25.1274 O   0  0  0  0  0  0  0  0  0  0  0  0
   12.3713  -15.7632   23.0018 O   0  0  0  0  0  0  0  0  0  0  0  0
  2  3  2  0
  2  1  1  0
  4  2  1  0
  5  4  1  0
  5  7  1  0
  5  6  1  6
  7  8  2  0
 10 12  1  0
 10  9  1  1
 11 10  1  0
 12 13  1  6
 13  7  1  0
 14 16  1  0
 14 12  1  0
 15 14  2  0
 17 18  1  0
 17 16  1  0
 18 19  1  0
 20 18  2  0
M  END
$$$$
