NVG.pdb
     RDKit          3D

 20 19  0  0  1  0  0  0  0  0999 V2000
    9.6049  -20.1905   29.2011 N   0  0  0  0  0  0  0  0  0  0  0  0
    9.3292  -18.8524   28.7778 C   0  0  0  0  0  0  0  0  0  0  0  0
    9.2538  -17.9386   29.6362 O   0  0  0  0  0  0  0  0  0  0  0  0
    9.1259  -18.4935   27.3487 C   0  0  0  0  0  0  0  0  0  0  0  0
    7.6721  -18.0729   27.1958 C   0  0  2  0  0  0  0  0  0  0  0  0
    6.8842  -19.2744   26.9621 N   0  0  0  0  0  0  0  0  0  0  0  0
    7.5198  -17.1205   26.0651 C   0  0  0  0  0  0  0  0  0  0  0  0
    7.4132  -17.5802   24.9088 O   0  0  0  0  0  0  0  0  0  0  0  0
    6.9724  -12.7012   24.1060 C   0  0  0  0  0  0  0  0  0  0  0  0
    7.0505  -13.4448   25.4207 C   0  0  1  0  0  0  0  0  0  0  0  0
    5.7413  -13.3027   26.1179 C   0  0  0  0  0  0  0  0  0  0  0  0
    7.4105  -14.8727   25.1059 C   0  0  2  0  0  0  0  0  0  0  0  0
    7.4908  -15.7172   26.2458 N   0  0  0  0  0  0  0  0  0  0  0  0
    8.7566  -14.8634   24.4384 C   0  0  0  0  0  0  0  0  0  0  0  0
    9.7536  -14.4545   25.0659 O   0  0  0  0  0  0  0  0  0  0  0  0
    8.9180  -15.3086   23.1130 N   0  0  0  0  0  0  0  0  0  0  0  0
   10.2349  -15.2621   22.5030 C   0  0  0  0  0  0  0  0  0  0  0  0
   10.1893  -15.9202   21.1766 C   0  0  0  0  0  0  0  0  0  0  0  0
   11.1184  -15.6100   20.2159 O   0  0  0  0  0  0  0  0  0  0  0  0
    9.2943  -16.7713   20.9224 O   0  0  0  0  0  0  0  0  0  0  0  0
  2  3  2  0
  2  1  1  0
  4  2  1  0
  5  4  1  0
  5  7  1  0
  5  6  1  6
  7  8  2  0
 10 12  1  0
 10  9  1  6
 11 10  1  0
 12 13  1  1
 13  7  1  0
 14 16  1  0
 14 12  1  0
 15 14  2  0
 17 18  1  0
 17 16  1  0
 18 19  1  0
 20 18  2  0
M  END
$$$$
