NVG.pdb
     RDKit          3D

 20 19  0  0  1  0  0  0  0  0999 V2000
    5.8744  -16.8868   19.7605 N   0  0  0  0  0  0  0  0  0  0  0  0
    7.2568  -16.6511   20.0411 C   0  0  0  0  0  0  0  0  0  0  0  0
    8.0768  -16.5953   19.0914 O   0  0  0  0  0  0  0  0  0  0  0  0
    7.7701  -16.4673   21.4251 C   0  0  0  0  0  0  0  0  0  0  0  0
    7.8729  -14.9694   21.6687 C   0  0  2  0  0  0  0  0  0  0  0  0
    8.9308  -14.4518   20.8132 N   0  0  0  0  0  0  0  0  0  0  0  0
    8.1740  -14.6918   23.0974 C   0  0  0  0  0  0  0  0  0  0  0  0
    9.3305  -14.9087   23.5159 O   0  0  0  0  0  0  0  0  0  0  0  0
    7.2312  -12.7207   27.4315 C   0  0  0  0  0  0  0  0  0  0  0  0
    6.6535  -12.9633   26.0550 C   0  0  1  0  0  0  0  0  0  0  0  0
    6.4945  -11.6470   25.3750 C   0  0  0  0  0  0  0  0  0  0  0  0
    7.5882  -13.9003   25.3369 C   0  0  2  0  0  0  0  0  0  0  0  0
    7.2051  -14.1928   24.0001 N   0  0  0  0  0  0  0  0  0  0  0  0
    7.6143  -15.1909   26.1059 C   0  0  0  0  0  0  0  0  0  0  0  0
    6.5597  -15.8375   26.2619 O   0  0  0  0  0  0  0  0  0  0  0  0
    8.8098  -15.6888   26.6571 N   0  0  0  0  0  0  0  0  0  0  0  0
    8.7786  -16.9184   27.4288 C   0  0  0  0  0  0  0  0  0  0  0  0
   10.1391  -17.2231   27.9295 C   0  0  0  0  0  0  0  0  0  0  0  0
   10.3232  -18.1680   28.9071 O   0  0  0  0  0  0  0  0  0  0  0  0
   11.1381  -16.6143   27.4590 O   0  0  0  0  0  0  0  0  0  0  0  0
  2  3  2  0
  2  1  1  0
  4  2  1  0
  5  4  1  0
  5  7  1  0
  5  6  1  6
  7  8  2  0
 10 12  1  0
 10  9  1  1
 11 10  1  0
 12 13  1  6
 13  7  1  0
 14 16  1  0
 14 12  1  0
 15 14  2  0
 17 18  1  0
 17 16  1  0
 18 19  1  0
 20 18  2  0
M  END
$$$$
