NVG.pdb
     RDKit          3D

 20 19  0  0  1  0  0  0  0  0999 V2000
    9.1656  -18.1017   16.4564 N   0  0  0  0  0  0  0  0  0  0  0  0
   10.2678  -17.8476   17.3317 C   0  0  0  0  0  0  0  0  0  0  0  0
   11.3476  -18.4648   17.1568 O   0  0  0  0  0  0  0  0  0  0  0  0
   10.1884  -16.8728   18.4525 C   0  0  0  0  0  0  0  0  0  0  0  0
   10.0330  -17.6769   19.7343 C   0  0  2  0  0  0  0  0  0  0  0  0
    8.7456  -18.3541   19.6806 N   0  0  0  0  0  0  0  0  0  0  0  0
   10.1053  -16.7862   20.9219 C   0  0  0  0  0  0  0  0  0  0  0  0
   11.0651  -15.9925   21.0141 O   0  0  0  0  0  0  0  0  0  0  0  0
    8.4438  -14.2688   24.6052 C   0  0  0  0  0  0  0  0  0  0  0  0
    8.0738  -15.1599   23.4406 C   0  0  1  0  0  0  0  0  0  0  0  0
    7.5735  -14.2987   22.3322 C   0  0  0  0  0  0  0  0  0  0  0  0
    9.3012  -15.9527   23.0768 C   0  0  2  0  0  0  0  0  0  0  0  0
    9.1326  -16.8014   21.9496 N   0  0  0  0  0  0  0  0  0  0  0  0
    9.6510  -16.8128   24.2581 C   0  0  0  0  0  0  0  0  0  0  0  0
    8.9075  -17.7637   24.5706 O   0  0  0  0  0  0  0  0  0  0  0  0
   10.8060  -16.5673   25.0240 N   0  0  0  0  0  0  0  0  0  0  0  0
   11.2446  -17.5615   25.9873 C   0  0  0  0  0  0  0  0  0  0  0  0
   10.7840  -17.1755   27.3412 C   0  0  0  0  0  0  0  0  0  0  0  0
   11.1384  -17.9250   28.4345 O   0  0  0  0  0  0  0  0  0  0  0  0
   10.0620  -16.1536   27.4972 O   0  0  0  0  0  0  0  0  0  0  0  0
  2  3  2  0
  2  1  1  0
  4  2  1  0
  5  4  1  0
  5  7  1  0
  5  6  1  6
  7  8  2  0
 10 12  1  0
 10  9  1  1
 11 10  1  0
 12 13  1  6
 13  7  1  0
 14 16  1  0
 14 12  1  0
 15 14  2  0
 17 18  1  0
 17 16  1  0
 18 19  1  0
 20 18  2  0
M  END
$$$$
