NVG.pdb
     RDKit          3D

 20 19  0  0  1  0  0  0  0  0999 V2000
    6.5459  -20.0913   17.5796 N   0  0  0  0  0  0  0  0  0  0  0  0
    7.5008  -19.3899   16.7786 C   0  0  0  0  0  0  0  0  0  0  0  0
    7.3868  -19.4081   15.5279 O   0  0  0  0  0  0  0  0  0  0  0  0
    8.6353  -18.6316   17.3704 C   0  0  0  0  0  0  0  0  0  0  0  0
    8.4737  -17.1802   16.9446 C   0  0  2  0  0  0  0  0  0  0  0  0
    9.2616  -16.9811   15.7370 N   0  0  0  0  0  0  0  0  0  0  0  0
    8.9306  -16.2653   18.0230 C   0  0  0  0  0  0  0  0  0  0  0  0
   10.1572  -16.0804   18.1680 O   0  0  0  0  0  0  0  0  0  0  0  0
    8.2608  -12.8438   21.4013 C   0  0  0  0  0  0  0  0  0  0  0  0
    7.5899  -13.6340   20.3001 C   0  0  1  0  0  0  0  0  0  0  0  0
    7.2295  -12.6939   19.2016 C   0  0  0  0  0  0  0  0  0  0  0  0
    8.5504  -14.7130   19.8752 C   0  0  2  0  0  0  0  0  0  0  0  0
    8.0336  -15.5968   18.8899 N   0  0  0  0  0  0  0  0  0  0  0  0
    8.8892  -15.5230   21.0945 C   0  0  0  0  0  0  0  0  0  0  0  0
    8.0240  -16.2621   21.6042 O   0  0  0  0  0  0  0  0  0  0  0  0
   10.1692  -15.4656   21.6773 N   0  0  0  0  0  0  0  0  0  0  0  0
   10.4698  -16.3136   22.8170 C   0  0  0  0  0  0  0  0  0  0  0  0
   11.8763  -16.1041   23.2322 C   0  0  0  0  0  0  0  0  0  0  0  0
   12.2093  -16.0716   24.5628 O   0  0  0  0  0  0  0  0  0  0  0  0
   12.7775  -15.9542   22.3632 O   0  0  0  0  0  0  0  0  0  0  0  0
  2  3  2  0
  2  1  1  0
  4  2  1  0
  5  4  1  0
  5  7  1  0
  5  6  1  6
  7  8  2  0
 10 12  1  0
 10  9  1  1
 11 10  1  0
 12 13  1  6
 13  7  1  0
 14 16  1  0
 14 12  1  0
 15 14  2  0
 17 18  1  0
 17 16  1  0
 18 19  1  0
 20 18  2  0
M  END
$$$$
