NVG.pdb
     RDKit          3D

 20 19  0  0  1  0  0  0  0  0999 V2000
    6.2826  -17.9462   20.9147 N   0  0  0  0  0  0  0  0  0  0  0  0
    7.6272  -17.8494   21.3923 C   0  0  0  0  0  0  0  0  0  0  0  0
    8.5559  -18.3707   20.7265 O   0  0  0  0  0  0  0  0  0  0  0  0
    7.9761  -17.1498   22.6578 C   0  0  0  0  0  0  0  0  0  0  0  0
    7.7093  -15.6684   22.4380 C   0  0  2  0  0  0  0  0  0  0  0  0
    8.3940  -15.2701   21.2168 N   0  0  0  0  0  0  0  0  0  0  0  0
    8.1979  -14.8724   23.5941 C   0  0  0  0  0  0  0  0  0  0  0  0
    9.3600  -14.4166   23.5554 O   0  0  0  0  0  0  0  0  0  0  0  0
    7.4030  -12.1218   27.5116 C   0  0  0  0  0  0  0  0  0  0  0  0
    6.7638  -12.9135   26.3927 C   0  0  1  0  0  0  0  0  0  0  0  0
    6.0492  -11.9629   25.4950 C   0  0  0  0  0  0  0  0  0  0  0  0
    7.8617  -13.6795   25.7033 C   0  0  2  0  0  0  0  0  0  0  0  0
    7.4010  -14.6108   24.7339 N   0  0  0  0  0  0  0  0  0  0  0  0
    8.6139  -14.4404   26.7582 C   0  0  0  0  0  0  0  0  0  0  0  0
    9.1719  -13.8214   27.6856 O   0  0  0  0  0  0  0  0  0  0  0  0
    8.7031  -15.8447   26.7223 N   0  0  0  0  0  0  0  0  0  0  0  0
    9.3469  -16.5442   27.8199 C   0  0  0  0  0  0  0  0  0  0  0  0
   10.5439  -17.2577   27.3175 C   0  0  0  0  0  0  0  0  0  0  0  0
   11.2518  -18.0928   28.1446 O   0  0  0  0  0  0  0  0  0  0  0  0
   10.9200  -17.1014   26.1242 O   0  0  0  0  0  0  0  0  0  0  0  0
  2  3  2  0
  2  1  1  0
  4  2  1  0
  5  4  1  0
  5  7  1  0
  5  6  1  6
  7  8  2  0
 10 12  1  0
 10  9  1  1
 11 10  1  0
 12 13  1  6
 13  7  1  0
 14 16  1  0
 14 12  1  0
 15 14  2  0
 17 18  1  0
 17 16  1  0
 18 19  1  0
 20 18  2  0
M  END
$$$$
