NVG.pdb
     RDKit          3D

 20 19  0  0  1  0  0  0  0  0999 V2000
   10.2977  -20.6338   18.6120 N   0  0  0  0  0  0  0  0  0  0  0  0
    9.6400  -19.5383   17.9693 C   0  0  0  0  0  0  0  0  0  0  0  0
   10.1904  -18.9801   16.9880 O   0  0  0  0  0  0  0  0  0  0  0  0
    8.3176  -19.0267   18.4188 C   0  0  0  0  0  0  0  0  0  0  0  0
    8.1524  -17.6346   17.8283 C   0  0  2  0  0  0  0  0  0  0  0  0
    8.8795  -17.5976   16.5678 N   0  0  0  0  0  0  0  0  0  0  0  0
    8.6758  -16.6049   18.7635 C   0  0  0  0  0  0  0  0  0  0  0  0
    9.9068  -16.3963   18.7921 O   0  0  0  0  0  0  0  0  0  0  0  0
    8.2529  -12.8760   21.8358 C   0  0  0  0  0  0  0  0  0  0  0  0
    7.4875  -13.7847   20.9001 C   0  0  1  0  0  0  0  0  0  0  0  0
    7.0007  -12.9709   19.7507 C   0  0  0  0  0  0  0  0  0  0  0  0
    8.4187  -14.8968   20.4959 C   0  0  2  0  0  0  0  0  0  0  0  0
    7.8372  -15.8532   19.6205 N   0  0  0  0  0  0  0  0  0  0  0  0
    8.8422  -15.6102   21.7486 C   0  0  0  0  0  0  0  0  0  0  0  0
    7.9868  -16.1843   22.4509 O   0  0  0  0  0  0  0  0  0  0  0  0
   10.1911  -15.6449   22.1490 N   0  0  0  0  0  0  0  0  0  0  0  0
   10.5346  -16.2122   23.4408 C   0  0  0  0  0  0  0  0  0  0  0  0
   11.9970  -16.1091   23.6534 C   0  0  0  0  0  0  0  0  0  0  0  0
   12.5398  -16.3786   24.8843 O   0  0  0  0  0  0  0  0  0  0  0  0
   12.7531  -15.7725   22.7021 O   0  0  0  0  0  0  0  0  0  0  0  0
  2  3  2  0
  2  1  1  0
  4  2  1  0
  5  4  1  0
  5  7  1  0
  5  6  1  6
  7  8  2  0
 10 12  1  0
 10  9  1  1
 11 10  1  0
 12 13  1  6
 13  7  1  0
 14 16  1  0
 14 12  1  0
 15 14  2  0
 17 18  1  0
 17 16  1  0
 18 19  1  0
 20 18  2  0
M  END
$$$$
