SHL.pdb
     RDKit          3D

 25 25  0  0  1  0  0  0  0  0999 V2000
   21.8560  -12.8004  -18.2577 O   0  0  0  0  0  0  0  0  0  0  0  0
   21.0765  -11.8033  -18.8530 C   0  0  0  0  0  0  0  0  0  0  0  0
   19.7710  -11.7279  -18.0974 C   0  0  2  0  0  0  0  0  0  0  0  0
   18.6708  -12.2667  -18.8714 N   0  0  0  0  0  0  0  0  0  0  0  0
   19.4876  -10.3696  -17.5923 C   0  0  0  0  0  0  0  0  0  0  0  0
   19.0606   -9.4737  -18.3711 O   0  0  0  0  0  0  0  0  0  0  0  0
   19.6714   -9.9916  -16.2360 N   0  0  0  0  0  0  0  0  0  0  0  0
   19.3644   -8.7093  -15.6890 C   0  0  1  0  0  0  0  0  0  0  0  0
   18.3364   -8.7350  -14.6073 C   0  0  0  0  0  0  0  0  0  0  0  0
   16.9546   -8.8676  -15.1314 C   0  0  0  0  0  0  0  0  0  0  0  0
   16.5768   -8.8811  -16.4557 C   0  0  0  0  0  0  0  0  0  0  0  0
   15.2458   -9.0183  -16.5020 N   0  0  0  0  0  0  0  0  0  0  0  0
   14.7643   -9.0925  -15.2487 C   0  0  0  0  0  0  0  0  0  0  0  0
   15.8136   -8.9997  -14.4154 N   0  0  0  0  0  0  0  0  0  0  0  0
   20.5473   -7.9490  -15.2611 C   0  0  0  0  0  0  0  0  0  0  0  0
   21.4278   -8.5124  -14.5664 O   0  0  0  0  0  0  0  0  0  0  0  0
   23.7524   -3.0278  -16.9723 C   0  0  0  0  0  0  0  0  0  0  0  0
   23.6824   -4.2534  -16.0762 C   0  0  2  0  0  0  0  0  0  0  0  0
   24.9943   -4.9377  -16.0162 C   0  0  0  0  0  0  0  0  0  0  0  0
   22.4715   -5.0751  -16.2759 C   0  0  0  0  0  0  0  0  0  0  0  0
   21.9389   -5.8743  -15.1502 C   0  0  2  0  0  0  0  0  0  0  0  0
   20.7265   -6.5855  -15.6117 N   0  0  0  0  0  0  0  0  0  0  0  0
   21.6045   -5.1755  -13.9127 C   0  0  0  0  0  0  0  0  0  0  0  0
   22.5971   -4.9705  -12.9547 O   0  0  0  0  0  0  0  0  0  0  0  0
   20.4661   -4.7563  -13.6816 O   0  0  0  0  0  0  0  0  0  0  0  0
  2  1  1  0
  3  2  1  0
  3  5  1  0
  3  4  1  6
  5  6  2  0
  5  7  1  0
  7  8  1  0
  8 15  1  0
  8  9  1  1
  9 10  1  0
 10 11  2  0
 10 14  1  0
 11 12  1  0
 12 13  1  0
 14 13  2  0
 15 22  1  0
 15 16  2  0
 18 17  1  6
 18 19  1  0
 18 20  1  0
 21 20  1  6
 21 23  1  0
 22 21  1  0
 23 24  1  0
 25 23  2  0
M  END
$$$$
