SHL.pdb
     RDKit          3D

 25 25  0  0  1  0  0  0  0  0999 V2000
   23.2535  -13.1527  -20.5077 O   0  0  0  0  0  0  0  0  0  0  0  0
   22.6169  -11.9074  -20.5111 C   0  0  0  0  0  0  0  0  0  0  0  0
   21.3574  -12.0327  -19.6870 C   0  0  2  0  0  0  0  0  0  0  0  0
   20.3911  -12.9122  -20.3136 N   0  0  0  0  0  0  0  0  0  0  0  0
   20.7766  -10.7205  -19.3389 C   0  0  0  0  0  0  0  0  0  0  0  0
   20.3112   -9.9681  -20.2382 O   0  0  0  0  0  0  0  0  0  0  0  0
   20.7051  -10.2317  -18.0077 N   0  0  0  0  0  0  0  0  0  0  0  0
   20.1815   -8.9605  -17.6235 C   0  0  1  0  0  0  0  0  0  0  0  0
   18.7424   -8.9849  -17.2284 C   0  0  0  0  0  0  0  0  0  0  0  0
   18.4562   -9.9770  -16.1629 C   0  0  0  0  0  0  0  0  0  0  0  0
   19.3665  -10.8096  -15.5505 C   0  0  0  0  0  0  0  0  0  0  0  0
   18.7071  -11.5469  -14.6484 N   0  0  0  0  0  0  0  0  0  0  0  0
   17.4055  -11.2101  -14.6671 C   0  0  0  0  0  0  0  0  0  0  0  0
   17.2584  -10.2501  -15.5950 N   0  0  0  0  0  0  0  0  0  0  0  0
   20.9864   -8.2713  -16.6049 C   0  0  0  0  0  0  0  0  0  0  0  0
   22.0708   -8.7769  -16.2260 O   0  0  0  0  0  0  0  0  0  0  0  0
   24.6462   -4.7697  -17.5182 C   0  0  0  0  0  0  0  0  0  0  0  0
   23.7633   -5.0084  -16.3043 C   0  0  2  0  0  0  0  0  0  0  0  0
   24.5835   -5.2158  -15.0890 C   0  0  0  0  0  0  0  0  0  0  0  0
   22.6347   -5.9280  -16.5539 C   0  0  0  0  0  0  0  0  0  0  0  0
   21.5941   -6.1034  -15.5167 C   0  0  2  0  0  0  0  0  0  0  0  0
   20.5720   -7.0412  -16.0312 N   0  0  0  0  0  0  0  0  0  0  0  0
   20.9046   -4.9119  -15.0307 C   0  0  0  0  0  0  0  0  0  0  0  0
   21.4359   -4.2088  -13.9497 O   0  0  0  0  0  0  0  0  0  0  0  0
   19.8601   -4.5009  -15.5457 O   0  0  0  0  0  0  0  0  0  0  0  0
  2  1  1  0
  3  2  1  0
  3  5  1  0
  3  4  1  6
  5  6  2  0
  5  7  1  0
  7  8  1  0
  8 15  1  0
  8  9  1  1
  9 10  1  0
 10 11  2  0
 10 14  1  0
 11 12  1  0
 12 13  1  0
 14 13  2  0
 15 22  1  0
 15 16  2  0
 18 17  1  6
 18 19  1  0
 18 20  1  0
 21 20  1  6
 21 23  1  0
 22 21  1  0
 23 24  1  0
 25 23  2  0
M  END
$$$$
