SHL.pdb
     RDKit          3D

 25 25  0  0  1  0  0  0  0  0999 V2000
   17.4351  -12.8577  -17.1188 O   0  0  0  0  0  0  0  0  0  0  0  0
   18.2640  -11.9959  -16.3934 C   0  0  0  0  0  0  0  0  0  0  0  0
   19.5783  -11.8935  -17.1304 C   0  0  2  0  0  0  0  0  0  0  0  0
   20.2383  -13.1796  -17.2324 N   0  0  0  0  0  0  0  0  0  0  0  0
   20.4628  -10.8538  -16.5674 C   0  0  0  0  0  0  0  0  0  0  0  0
   21.0042  -11.0165  -15.4396 O   0  0  0  0  0  0  0  0  0  0  0  0
   20.7548   -9.6366  -17.2378 N   0  0  0  0  0  0  0  0  0  0  0  0
   21.6518   -8.6309  -16.7669 C   0  0  1  0  0  0  0  0  0  0  0  0
   22.4440   -7.9646  -17.8421 C   0  0  0  0  0  0  0  0  0  0  0  0
   23.2864   -8.9161  -18.6081 C   0  0  0  0  0  0  0  0  0  0  0  0
   23.9597  -10.0063  -18.1034 C   0  0  0  0  0  0  0  0  0  0  0  0
   24.5986  -10.6009  -19.1186 N   0  0  0  0  0  0  0  0  0  0  0  0
   24.3534   -9.9234  -20.2539 C   0  0  0  0  0  0  0  0  0  0  0  0
   23.5508   -8.8946  -19.9353 N   0  0  0  0  0  0  0  0  0  0  0  0
   21.0170   -7.6311  -15.8965 C   0  0  0  0  0  0  0  0  0  0  0  0
   19.8730   -7.1999  -16.1802 O   0  0  0  0  0  0  0  0  0  0  0  0
   20.3390   -4.9794  -11.1150 C   0  0  0  0  0  0  0  0  0  0  0  0
   19.7455   -6.3030  -11.5686 C   0  0  2  0  0  0  0  0  0  0  0  0
   19.2944   -7.1036  -10.4074 C   0  0  0  0  0  0  0  0  0  0  0  0
   20.5234   -6.9790  -12.6266 C   0  0  0  0  0  0  0  0  0  0  0  0
   20.9253   -6.2219  -13.8327 C   0  0  2  0  0  0  0  0  0  0  0  0
   21.6629   -7.1333  -14.7349 N   0  0  0  0  0  0  0  0  0  0  0  0
   21.7355   -5.0214  -13.6487 C   0  0  0  0  0  0  0  0  0  0  0  0
   21.1132   -3.7734  -13.6336 O   0  0  0  0  0  0  0  0  0  0  0  0
   22.9611   -5.0712  -13.5049 O   0  0  0  0  0  0  0  0  0  0  0  0
  2  1  1  0
  3  2  1  0
  3  5  1  0
  3  4  1  1
  5  6  2  0
  5  7  1  0
  7  8  1  0
  8 15  1  0
  8  9  1  6
  9 10  1  0
 10 11  2  0
 10 14  1  0
 11 12  1  0
 12 13  1  0
 14 13  2  0
 15 22  1  0
 15 16  2  0
 18 17  1  1
 18 19  1  0
 18 20  1  0
 21 20  1  1
 21 23  1  0
 22 21  1  0
 23 24  1  0
 25 23  2  0
M  END
$$$$
