SHL.pdb
     RDKit          3D

 25 25  0  0  1  0  0  0  0  0999 V2000
   11.2510  -16.7182    1.2815 O   0  0  0  0  0  0  0  0  0  0  0  0
   12.3034  -17.6129    1.0620 C   0  0  0  0  0  0  0  0  0  0  0  0
   12.3482  -18.5662    2.2326 C   0  0  2  0  0  0  0  0  0  0  0  0
   11.0731  -19.2231    2.4391 N   0  0  0  0  0  0  0  0  0  0  0  0
   12.8541  -17.9267    3.4636 C   0  0  0  0  0  0  0  0  0  0  0  0
   12.0842  -17.2422    4.1917 O   0  0  0  0  0  0  0  0  0  0  0  0
   14.2016  -18.0360    3.8977 N   0  0  0  0  0  0  0  0  0  0  0  0
   14.7155  -17.5241    5.1272 C   0  0  1  0  0  0  0  0  0  0  0  0
   14.8165  -18.5376    6.2182 C   0  0  0  0  0  0  0  0  0  0  0  0
   15.5221  -19.7714    5.7922 C   0  0  0  0  0  0  0  0  0  0  0  0
   16.0765  -20.0144    4.5552 C   0  0  0  0  0  0  0  0  0  0  0  0
   16.6165  -21.2393    4.5802 N   0  0  0  0  0  0  0  0  0  0  0  0
   16.4232  -21.7838    5.7943 C   0  0  0  0  0  0  0  0  0  0  0  0
   15.7537  -20.8818    6.5306 N   0  0  0  0  0  0  0  0  0  0  0  0
   15.9820  -16.7926    4.9813 C   0  0  0  0  0  0  0  0  0  0  0  0
   16.7501  -17.0680    4.0278 O   0  0  0  0  0  0  0  0  0  0  0  0
   18.5337  -11.4868    5.5850 C   0  0  0  0  0  0  0  0  0  0  0  0
   18.7179  -12.9102    5.0849 C   0  0  2  0  0  0  0  0  0  0  0  0
   19.3973  -12.9225    3.7692 C   0  0  0  0  0  0  0  0  0  0  0  0
   17.5312  -13.7699    5.2692 C   0  0  0  0  0  0  0  0  0  0  0  0
   17.7035  -15.1549    5.7609 C   0  0  2  0  0  0  0  0  0  0  0  0
   16.3671  -15.7756    5.8933 N   0  0  0  0  0  0  0  0  0  0  0  0
   18.4148  -15.3502    7.0208 C   0  0  0  0  0  0  0  0  0  0  0  0
   17.6877  -15.4565    8.2060 O   0  0  0  0  0  0  0  0  0  0  0  0
   19.6463  -15.4252    7.0755 O   0  0  0  0  0  0  0  0  0  0  0  0
  2  1  1  0
  3  2  1  0
  3  5  1  0
  3  4  1  1
  5  6  2  0
  5  7  1  0
  7  8  1  0
  8 15  1  0
  8  9  1  1
  9 10  1  0
 10 11  2  0
 10 14  1  0
 11 12  1  0
 12 13  1  0
 14 13  2  0
 15 22  1  0
 15 16  2  0
 18 17  1  6
 18 19  1  0
 18 20  1  0
 21 20  1  1
 21 23  1  0
 22 21  1  0
 23 24  1  0
 25 23  2  0
M  END
$$$$
