SHL.pdb
     RDKit          3D

 25 25  0  0  1  0  0  0  0  0999 V2000
   28.5263  -23.5809  -18.8055 O   0  0  0  0  0  0  0  0  0  0  0  0
   27.4437  -22.9089  -18.2288 C   0  0  0  0  0  0  0  0  0  0  0  0
   27.9566  -21.6007  -17.6752 C   0  0  2  0  0  0  0  0  0  0  0  0
   29.1672  -21.7835  -16.8999 N   0  0  0  0  0  0  0  0  0  0  0  0
   26.9213  -20.8575  -16.9294 C   0  0  0  0  0  0  0  0  0  0  0  0
   27.2122  -20.2543  -15.8603 O   0  0  0  0  0  0  0  0  0  0  0  0
   25.5686  -20.7745  -17.3530 N   0  0  0  0  0  0  0  0  0  0  0  0
   24.5275  -20.0893  -16.6568 C   0  0  1  0  0  0  0  0  0  0  0  0
   23.3308  -19.7812  -17.4938 C   0  0  0  0  0  0  0  0  0  0  0  0
   22.2902  -19.0270  -16.7522 C   0  0  0  0  0  0  0  0  0  0  0  0
   22.3412  -18.6405  -15.4314 C   0  0  0  0  0  0  0  0  0  0  0  0
   21.2088  -17.9834  -15.1514 N   0  0  0  0  0  0  0  0  0  0  0  0
   20.4384  -17.9394  -16.2526 C   0  0  0  0  0  0  0  0  0  0  0  0
   21.1048  -18.5790  -17.2277 N   0  0  0  0  0  0  0  0  0  0  0  0
   24.1274  -20.7391  -15.4006 C   0  0  0  0  0  0  0  0  0  0  0  0
   23.9680  -21.9836  -15.3703 O   0  0  0  0  0  0  0  0  0  0  0  0
   25.3794  -19.7872   -9.5532 C   0  0  0  0  0  0  0  0  0  0  0  0
   24.8738  -20.7455  -10.6190 C   0  0  2  0  0  0  0  0  0  0  0  0
   25.5529  -22.0571  -10.5132 C   0  0  0  0  0  0  0  0  0  0  0  0
   24.7317  -20.1355  -11.9567 C   0  0  0  0  0  0  0  0  0  0  0  0
   23.7754  -20.7162  -12.9250 C   0  0  2  0  0  0  0  0  0  0  0  0
   23.9134  -19.9965  -14.2102 N   0  0  0  0  0  0  0  0  0  0  0  0
   22.3600  -20.7260  -12.5670 C   0  0  0  0  0  0  0  0  0  0  0  0
   21.8213  -21.8512  -11.9434 O   0  0  0  0  0  0  0  0  0  0  0  0
   21.6169  -19.7671  -12.7980 O   0  0  0  0  0  0  0  0  0  0  0  0
  2  1  1  0
  3  2  1  0
  3  5  1  0
  3  4  1  1
  5  6  2  0
  5  7  1  0
  7  8  1  0
  8 15  1  0
  8  9  1  6
  9 10  1  0
 10 11  2  0
 10 14  1  0
 11 12  1  0
 12 13  1  0
 14 13  2  0
 15 22  1  0
 15 16  2  0
 18 17  1  1
 18 19  1  0
 18 20  1  0
 21 20  1  1
 21 23  1  0
 22 21  1  0
 23 24  1  0
 25 23  2  0
M  END
$$$$
