SHL.pdb
     RDKit          3D

 25 25  0  0  1  0  0  0  0  0999 V2000
   15.7607  -14.8849  -18.1640 O   0  0  0  0  0  0  0  0  0  0  0  0
   17.0485  -15.3273  -17.8446 C   0  0  0  0  0  0  0  0  0  0  0  0
   17.4821  -14.6114  -16.5874 C   0  0  2  0  0  0  0  0  0  0  0  0
   16.5194  -14.7758  -15.5168 N   0  0  0  0  0  0  0  0  0  0  0  0
   17.8125  -13.1928  -16.8299 C   0  0  0  0  0  0  0  0  0  0  0  0
   18.7746  -12.8799  -17.5835 O   0  0  0  0  0  0  0  0  0  0  0  0
   17.0908  -12.1172  -16.2482 N   0  0  0  0  0  0  0  0  0  0  0  0
   17.3836  -10.7323  -16.4338 C   0  0  1  0  0  0  0  0  0  0  0  0
   16.1865   -9.8420  -16.3890 C   0  0  0  0  0  0  0  0  0  0  0  0
   16.5223   -8.4161  -16.6252 C   0  0  0  0  0  0  0  0  0  0  0  0
   16.5544   -7.4132  -15.6819 C   0  0  0  0  0  0  0  0  0  0  0  0
   16.9017   -6.2779  -16.3006 N   0  0  0  0  0  0  0  0  0  0  0  0
   17.0917   -6.5264  -17.6083 C   0  0  0  0  0  0  0  0  0  0  0  0
   16.8582   -7.8351  -17.8005 N   0  0  0  0  0  0  0  0  0  0  0  0
   18.4393  -10.2256  -15.5457 C   0  0  0  0  0  0  0  0  0  0  0  0
   18.4457  -10.5617  -14.3365 O   0  0  0  0  0  0  0  0  0  0  0  0
   24.0811  -10.6697  -15.0503 C   0  0  0  0  0  0  0  0  0  0  0  0
   22.9641   -9.7372  -14.6113 C   0  0  2  0  0  0  0  0  0  0  0  0
   22.8918   -9.6606  -13.1342 C   0  0  0  0  0  0  0  0  0  0  0  0
   21.7067   -9.9087  -15.3669 C   0  0  0  0  0  0  0  0  0  0  0  0
   20.5719   -8.9941  -15.1111 C   0  0  2  0  0  0  0  0  0  0  0  0
   19.4608   -9.3601  -16.0167 N   0  0  0  0  0  0  0  0  0  0  0  0
   20.8056   -7.5593  -15.2461 C   0  0  0  0  0  0  0  0  0  0  0  0
   20.4995   -6.9282  -16.4515 O   0  0  0  0  0  0  0  0  0  0  0  0
   21.2678   -6.8791  -14.3248 O   0  0  0  0  0  0  0  0  0  0  0  0
  2  1  1  0
  3  2  1  0
  3  5  1  0
  3  4  1  1
  5  6  2  0
  5  7  1  0
  7  8  1  0
  8 15  1  0
  8  9  1  1
  9 10  1  0
 10 11  2  0
 10 14  1  0
 11 12  1  0
 12 13  1  0
 14 13  2  0
 15 22  1  0
 15 16  2  0
 18 17  1  1
 18 19  1  0
 18 20  1  0
 21 20  1  6
 21 23  1  0
 22 21  1  0
 23 24  1  0
 25 23  2  0
M  END
$$$$
