SHL.pdb
     RDKit          3D

 25 25  0  0  1  0  0  0  0  0999 V2000
   18.6946  -13.2743    2.6496 O   0  0  0  0  0  0  0  0  0  0  0  0
   18.7126  -14.1869    3.7093 C   0  0  0  0  0  0  0  0  0  0  0  0
   17.4347  -14.9894    3.6467 C   0  0  2  0  0  0  0  0  0  0  0  0
   16.2731  -14.1727    3.9361 N   0  0  0  0  0  0  0  0  0  0  0  0
   17.4879  -16.2037    4.4852 C   0  0  0  0  0  0  0  0  0  0  0  0
   17.1063  -16.1684    5.6871 O   0  0  0  0  0  0  0  0  0  0  0  0
   17.9584  -17.4559    4.0090 N   0  0  0  0  0  0  0  0  0  0  0  0
   18.1245  -18.6303    4.8034 C   0  0  1  0  0  0  0  0  0  0  0  0
   17.9948  -19.9078    4.0426 C   0  0  0  0  0  0  0  0  0  0  0  0
   16.6296  -20.1172    3.5005 C   0  0  0  0  0  0  0  0  0  0  0  0
   15.5306  -19.3143    3.7112 C   0  0  0  0  0  0  0  0  0  0  0  0
   14.4975  -19.8496    3.0490 N   0  0  0  0  0  0  0  0  0  0  0  0
   14.9041  -20.9682    2.4233 C   0  0  0  0  0  0  0  0  0  0  0  0
   16.2082  -21.1264    2.7032 N   0  0  0  0  0  0  0  0  0  0  0  0
   19.3527  -18.6308    5.6107 C   0  0  0  0  0  0  0  0  0  0  0  0
   20.4571  -18.4070    5.0583 O   0  0  0  0  0  0  0  0  0  0  0  0
   21.8456  -15.6770    9.7052 C   0  0  0  0  0  0  0  0  0  0  0  0
   21.9104  -17.0786    9.1210 C   0  0  2  0  0  0  0  0  0  0  0  0
   23.2864  -17.4025    8.6800 C   0  0  0  0  0  0  0  0  0  0  0  0
   20.7892  -17.4048    8.2164 C   0  0  0  0  0  0  0  0  0  0  0  0
   20.5904  -18.8036    7.7767 C   0  0  2  0  0  0  0  0  0  0  0  0
   19.3287  -18.8791    7.0079 N   0  0  0  0  0  0  0  0  0  0  0  0
   20.5542  -19.8440    8.8002 C   0  0  0  0  0  0  0  0  0  0  0  0
   21.7488  -20.4220    9.2288 O   0  0  0  0  0  0  0  0  0  0  0  0
   19.4961  -20.2340    9.3040 O   0  0  0  0  0  0  0  0  0  0  0  0
  2  1  1  0
  3  2  1  0
  3  5  1  0
  3  4  1  1
  5  6  2  0
  5  7  1  0
  7  8  1  0
  8 15  1  0
  8  9  1  6
  9 10  1  0
 10 11  2  0
 10 14  1  0
 11 12  1  0
 12 13  1  0
 14 13  2  0
 15 22  1  0
 15 16  2  0
 18 17  1  6
 18 19  1  0
 18 20  1  0
 21 20  1  1
 21 23  1  0
 22 21  1  0
 23 24  1  0
 25 23  2  0
M  END
$$$$
