SHL.pdb
     RDKit          3D

 25 25  0  0  1  0  0  0  0  0999 V2000
   15.3220  -12.7181  -13.9753 O   0  0  0  0  0  0  0  0  0  0  0  0
   14.5364  -11.6246  -14.3539 C   0  0  0  0  0  0  0  0  0  0  0  0
   14.6179  -11.4982  -15.8567 C   0  0  2  0  0  0  0  0  0  0  0  0
   14.3020  -12.7480  -16.5186 N   0  0  0  0  0  0  0  0  0  0  0  0
   15.9068  -10.9363  -16.3078 C   0  0  0  0  0  0  0  0  0  0  0  0
   16.8417  -11.6977  -16.6789 O   0  0  0  0  0  0  0  0  0  0  0  0
   16.1727   -9.5422  -16.3527 N   0  0  0  0  0  0  0  0  0  0  0  0
   17.3604   -8.9461  -16.8740 C   0  0  1  0  0  0  0  0  0  0  0  0
   17.1474   -7.6148  -17.5143 C   0  0  0  0  0  0  0  0  0  0  0  0
   16.5130   -7.7160  -18.8519 C   0  0  0  0  0  0  0  0  0  0  0  0
   15.9258   -8.8350  -19.3993 C   0  0  0  0  0  0  0  0  0  0  0  0
   15.4748   -8.5084  -20.6169 N   0  0  0  0  0  0  0  0  0  0  0  0
   15.7565   -7.2167  -20.8619 C   0  0  0  0  0  0  0  0  0  0  0  0
   16.3912   -6.7378  -19.7793 N   0  0  0  0  0  0  0  0  0  0  0  0
   18.4660   -8.8846  -15.9074 C   0  0  0  0  0  0  0  0  0  0  0  0
   18.2218   -8.6343  -14.7021 O   0  0  0  0  0  0  0  0  0  0  0  0
   24.3786  -10.6596  -15.4872 C   0  0  0  0  0  0  0  0  0  0  0  0
   23.2467   -9.8521  -14.8733 C   0  0  2  0  0  0  0  0  0  0  0  0
   23.1540  -10.0982  -13.4160 C   0  0  0  0  0  0  0  0  0  0  0  0
   22.0011   -9.8642  -15.6670 C   0  0  0  0  0  0  0  0  0  0  0  0
   20.8881   -8.9647  -15.2906 C   0  0  2  0  0  0  0  0  0  0  0  0
   19.8131   -9.1012  -16.2979 N   0  0  0  0  0  0  0  0  0  0  0  0
   21.1797   -7.5425  -15.1368 C   0  0  0  0  0  0  0  0  0  0  0  0
   21.0518   -6.6963  -16.2380 O   0  0  0  0  0  0  0  0  0  0  0  0
   21.5382   -7.0578  -14.0589 O   0  0  0  0  0  0  0  0  0  0  0  0
  2  1  1  0
  3  2  1  0
  3  5  1  0
  3  4  1  6
  5  6  2  0
  5  7  1  0
  7  8  1  0
  8 15  1  0
  8  9  1  1
  9 10  1  0
 10 11  2  0
 10 14  1  0
 11 12  1  0
 12 13  1  0
 14 13  2  0
 15 22  1  0
 15 16  2  0
 18 17  1  6
 18 19  1  0
 18 20  1  0
 21 20  1  6
 21 23  1  0
 22 21  1  0
 23 24  1  0
 25 23  2  0
M  END
$$$$
