SHL.pdb
     RDKit          3D

 25 25  0  0  1  0  0  0  0  0999 V2000
   15.2238  -10.6395  -16.6197 O   0  0  0  0  0  0  0  0  0  0  0  0
   16.5874  -10.4891  -16.3476 C   0  0  0  0  0  0  0  0  0  0  0  0
   17.2868  -10.1922  -17.6529 C   0  0  2  0  0  0  0  0  0  0  0  0
   17.3980  -11.3745  -18.4834 N   0  0  0  0  0  0  0  0  0  0  0  0
   18.5875   -9.5212  -17.4576 C   0  0  0  0  0  0  0  0  0  0  0  0
   19.6216  -10.1944  -17.1952 O   0  0  0  0  0  0  0  0  0  0  0  0
   18.7567   -8.1143  -17.5493 N   0  0  0  0  0  0  0  0  0  0  0  0
   19.9600   -7.4076  -17.2485 C   0  0  1  0  0  0  0  0  0  0  0  0
   20.1630   -6.1710  -18.0592 C   0  0  0  0  0  0  0  0  0  0  0  0
   20.5868   -6.4602  -19.4514 C   0  0  0  0  0  0  0  0  0  0  0  0
   20.8918   -7.6962  -19.9766 C   0  0  0  0  0  0  0  0  0  0  0  0
   21.2259   -7.5256  -21.2618 N   0  0  0  0  0  0  0  0  0  0  0  0
   21.1434   -6.2198  -21.5714 C   0  0  0  0  0  0  0  0  0  0  0  0
   20.7523   -5.5737  -20.4606 N   0  0  0  0  0  0  0  0  0  0  0  0
   20.1386   -7.1237  -15.8175 C   0  0  0  0  0  0  0  0  0  0  0  0
   19.1522   -6.7649  -15.1294 O   0  0  0  0  0  0  0  0  0  0  0  0
   23.1901   -9.4896  -11.2389 C   0  0  0  0  0  0  0  0  0  0  0  0
   22.2487   -8.3744  -11.6631 C   0  0  2  0  0  0  0  0  0  0  0  0
   21.0789   -8.2996  -10.7582 C   0  0  0  0  0  0  0  0  0  0  0  0
   22.0135   -8.3084  -13.1198 C   0  0  0  0  0  0  0  0  0  0  0  0
   21.4970   -7.0579  -13.7190 C   0  0  2  0  0  0  0  0  0  0  0  0
   21.4028   -7.2433  -15.1838 N   0  0  0  0  0  0  0  0  0  0  0  0
   22.2362   -5.8237  -13.4705 C   0  0  0  0  0  0  0  0  0  0  0  0
   23.1027   -5.3379  -14.4494 O   0  0  0  0  0  0  0  0  0  0  0  0
   22.1214   -5.1895  -12.4170 O   0  0  0  0  0  0  0  0  0  0  0  0
  2  1  1  0
  3  2  1  0
  3  5  1  0
  3  4  1  1
  5  6  2  0
  5  7  1  0
  7  8  1  0
  8 15  1  0
  8  9  1  6
  9 10  1  0
 10 11  2  0
 10 14  1  0
 11 12  1  0
 12 13  1  0
 14 13  2  0
 15 22  1  0
 15 16  2  0
 18 17  1  6
 18 19  1  0
 18 20  1  0
 21 20  1  1
 21 23  1  0
 22 21  1  0
 23 24  1  0
 25 23  2  0
M  END
$$$$
