DWM.pdb
     RDKit          3D

 31 32  0  0  1  0  0  0  0  0999 V2000
   10.0777  -18.3005   19.6390 N   0  0  0  0  0  0  0  0  0  0  0  0
   10.7790  -17.0474   19.6477 C   0  0  1  0  0  0  0  0  0  0  0  0
   10.6270  -16.2950   18.3489 C   0  0  0  0  0  0  0  0  0  0  0  0
   11.3455  -17.0427   17.2948 C   0  0  0  0  0  0  0  0  0  0  0  0
   11.2297  -18.3028   17.2221 O   0  0  0  0  0  0  0  0  0  0  0  0
   10.3371  -16.2590   20.8182 C   0  0  0  0  0  0  0  0  0  0  0  0
   10.8312  -15.1360   21.0649 O   0  0  0  0  0  0  0  0  0  0  0  0
   12.1457  -16.4016   16.3797 O   0  0  0  0  0  0  0  0  0  0  0  0
    9.3466  -16.7777   21.6681 N   0  0  0  0  0  0  0  0  0  0  0  0
    8.9311  -16.2007   22.9058 C   0  0  1  0  0  0  0  0  0  0  0  0
    7.6345  -16.7912   23.3594 C   0  0  0  0  0  0  0  0  0  0  0  0
    6.9195  -15.9860   24.3725 C   0  0  0  0  0  0  0  0  0  0  0  0
    5.8988  -16.4058   25.2095 C   0  0  0  0  0  0  0  0  0  0  0  0
    5.5474  -15.3983   26.0015 N   0  0  0  0  0  0  0  0  0  0  0  0
    6.3020  -14.3390   25.7091 C   0  0  0  0  0  0  0  0  0  0  0  0
    6.3173  -13.0697   26.2370 C   0  0  0  0  0  0  0  0  0  0  0  0
    7.2003  -12.1261   25.7520 C   0  0  0  0  0  0  0  0  0  0  0  0
    8.0771  -12.4133   24.7458 C   0  0  0  0  0  0  0  0  0  0  0  0
    8.0581  -13.6949   24.2168 C   0  0  0  0  0  0  0  0  0  0  0  0
    7.1856  -14.6735   24.6783 C   0  0  0  0  0  0  0  0  0  0  0  0
    9.9667  -16.4681   23.9297 C   0  0  0  0  0  0  0  0  0  0  0  0
   11.0086  -17.0836   23.6289 O   0  0  0  0  0  0  0  0  0  0  0  0
   10.0506  -13.2850   29.6305 C   0  0  0  0  0  0  0  0  0  0  0  0
   11.1816  -14.6340   30.0750 S   0  0  0  0  0  0  0  0  0  0  0  0
   11.4615  -15.7101   28.6696 C   0  0  0  0  0  0  0  0  0  0  0  0
   10.6037  -15.4184   27.4966 C   0  0  0  0  0  0  0  0  0  0  0  0
   10.7782  -16.2699   26.2893 C   0  0  2  0  0  0  0  0  0  0  0  0
    9.7813  -16.0188   25.2875 N   0  0  0  0  0  0  0  0  0  0  0  0
   10.8141  -17.7141   26.6132 C   0  0  0  0  0  0  0  0  0  0  0  0
   12.0123  -18.3312   26.9360 O   0  0  0  0  0  0  0  0  0  0  0  0
    9.7520  -18.3775   26.5939 O   0  0  0  0  0  0  0  0  0  0  0  0
  2  1  1  6
  3  4  1  0
  3  2  1  0
  4  5  2  0
  6  2  1  0
  6  7  2  0
  8  4  1  0
  9  6  1  0
 10  9  1  0
 10 11  1  1
 12 20  1  0
 12 11  1  0
 13 12  2  0
 14 13  1  0
 14 15  1  0
 15 16  1  0
 15 20  2  0
 16 17  2  0
 17 18  1  0
 19 18  2  0
 20 19  1  0
 21 10  1  0
 22 21  2  0
 23 24  1  0
 24 25  1  0
 25 26  1  0
 27 26  1  1
 27 28  1  0
 27 29  1  0
 28 21  1  0
 29 30  1  0
 31 29  2  0
M  END
$$$$
