DWM.pdb
     RDKit          3D

 31 32  0  0  1  0  0  0  0  0999 V2000
    8.4755  -18.6996   19.8212 N   0  0  0  0  0  0  0  0  0  0  0  0
    9.5302  -17.8087   19.4263 C   0  0  1  0  0  0  0  0  0  0  0  0
    9.4191  -17.3920   17.9805 C   0  0  0  0  0  0  0  0  0  0  0  0
   10.5069  -18.0497   17.2252 C   0  0  0  0  0  0  0  0  0  0  0  0
   11.6685  -18.1269   17.7266 O   0  0  0  0  0  0  0  0  0  0  0  0
    9.5549  -16.6552   20.3514 C   0  0  0  0  0  0  0  0  0  0  0  0
    9.7448  -15.4923   19.9297 O   0  0  0  0  0  0  0  0  0  0  0  0
   10.2914  -18.5866   15.9786 O   0  0  0  0  0  0  0  0  0  0  0  0
    9.3624  -16.8666   21.7265 N   0  0  0  0  0  0  0  0  0  0  0  0
    9.7882  -15.9881   22.7678 C   0  0  1  0  0  0  0  0  0  0  0  0
    8.9445  -14.7542   22.8012 C   0  0  0  0  0  0  0  0  0  0  0  0
    7.9264  -14.7409   23.8732 C   0  0  0  0  0  0  0  0  0  0  0  0
    7.2631  -15.8303   24.4133 C   0  0  0  0  0  0  0  0  0  0  0  0
    6.4551  -15.4086   25.3802 N   0  0  0  0  0  0  0  0  0  0  0  0
    6.5685  -14.0848   25.4876 C   0  0  0  0  0  0  0  0  0  0  0  0
    5.9429  -13.1912   26.3243 C   0  0  0  0  0  0  0  0  0  0  0  0
    6.2245  -11.8428   26.2365 C   0  0  0  0  0  0  0  0  0  0  0  0
    7.1202  -11.3538   25.3297 C   0  0  0  0  0  0  0  0  0  0  0  0
    7.7489  -12.2589   24.4881 C   0  0  0  0  0  0  0  0  0  0  0  0
    7.4939  -13.6240   24.5459 C   0  0  0  0  0  0  0  0  0  0  0  0
    9.6664  -16.6903   24.0657 C   0  0  0  0  0  0  0  0  0  0  0  0
    9.1299  -17.8142   24.1281 O   0  0  0  0  0  0  0  0  0  0  0  0
   10.0997  -12.8500   29.1296 C   0  0  0  0  0  0  0  0  0  0  0  0
   11.0779  -14.3473   29.4422 S   0  0  0  0  0  0  0  0  0  0  0  0
   10.6019  -15.6573   28.3158 C   0  0  0  0  0  0  0  0  0  0  0  0
   11.5873  -15.9278   27.2423 C   0  0  0  0  0  0  0  0  0  0  0  0
   11.1379  -16.7538   26.0895 C   0  0  2  0  0  0  0  0  0  0  0  0
   10.1677  -16.0812   25.2730 N   0  0  0  0  0  0  0  0  0  0  0  0
   10.6159  -18.0750   26.5067 C   0  0  0  0  0  0  0  0  0  0  0  0
   11.3925  -19.2136   26.3621 O   0  0  0  0  0  0  0  0  0  0  0  0
    9.4647  -18.1583   26.9927 O   0  0  0  0  0  0  0  0  0  0  0  0
  2  1  1  1
  3  4  1  0
  3  2  1  0
  4  5  2  0
  6  2  1  0
  6  7  2  0
  8  4  1  0
  9  6  1  0
 10  9  1  0
 10 11  1  1
 12 20  1  0
 12 11  1  0
 13 12  2  0
 14 13  1  0
 14 15  1  0
 15 16  1  0
 15 20  2  0
 16 17  2  0
 17 18  1  0
 19 18  2  0
 20 19  1  0
 21 10  1  0
 22 21  2  0
 23 24  1  0
 24 25  1  0
 25 26  1  0
 27 26  1  1
 27 28  1  0
 27 29  1  0
 28 21  1  0
 29 30  1  0
 31 29  2  0
M  END
$$$$
