DWM.pdb
     RDKit          3D

 31 32  0  0  1  0  0  0  0  0999 V2000
   10.0671  -18.3369   19.3702 N   0  0  0  0  0  0  0  0  0  0  0  0
   11.2074  -17.5251   19.6905 C   0  0  1  0  0  0  0  0  0  0  0  0
   11.6243  -16.6410   18.5412 C   0  0  0  0  0  0  0  0  0  0  0  0
   11.9782  -17.5074   17.3964 C   0  0  0  0  0  0  0  0  0  0  0  0
   12.4340  -18.6722   17.6016 O   0  0  0  0  0  0  0  0  0  0  0  0
   10.9202  -16.7600   20.9230 C   0  0  0  0  0  0  0  0  0  0  0  0
   11.6874  -15.8517   21.3135 O   0  0  0  0  0  0  0  0  0  0  0  0
   11.8247  -17.0799   16.0993 O   0  0  0  0  0  0  0  0  0  0  0  0
    9.7676  -17.0564   21.6688 N   0  0  0  0  0  0  0  0  0  0  0  0
    9.3150  -16.3377   22.8160 C   0  0  1  0  0  0  0  0  0  0  0  0
    7.8224  -16.3570   22.9012 C   0  0  0  0  0  0  0  0  0  0  0  0
    7.2728  -15.7130   24.1133 C   0  0  0  0  0  0  0  0  0  0  0  0
    6.4892  -16.3004   25.0928 C   0  0  0  0  0  0  0  0  0  0  0  0
    6.2306  -15.4012   26.0364 N   0  0  0  0  0  0  0  0  0  0  0  0
    6.8170  -14.2508   25.7053 C   0  0  0  0  0  0  0  0  0  0  0  0
    6.8387  -13.0334   26.3437 C   0  0  0  0  0  0  0  0  0  0  0  0
    7.5191  -11.9691   25.7874 C   0  0  0  0  0  0  0  0  0  0  0  0
    8.1851  -12.0835   24.6012 C   0  0  0  0  0  0  0  0  0  0  0  0
    8.1607  -13.3134   23.9612 C   0  0  0  0  0  0  0  0  0  0  0  0
    7.4884  -14.4094   24.4890 C   0  0  0  0  0  0  0  0  0  0  0  0
    9.8752  -16.9731   24.0303 C   0  0  0  0  0  0  0  0  0  0  0  0
    9.4348  -18.0689   24.4305 O   0  0  0  0  0  0  0  0  0  0  0  0
    8.8747  -12.2043   28.5545 C   0  0  0  0  0  0  0  0  0  0  0  0
    9.1875  -13.9852   28.7190 S   0  0  0  0  0  0  0  0  0  0  0  0
   10.2995  -14.5508   27.4325 C   0  0  0  0  0  0  0  0  0  0  0  0
   10.0800  -15.9541   27.0090 C   0  0  0  0  0  0  0  0  0  0  0  0
   11.1269  -16.5883   26.1635 C   0  0  2  0  0  0  0  0  0  0  0  0
   10.9377  -16.3308   24.7641 N   0  0  0  0  0  0  0  0  0  0  0  0
   11.2393  -18.0461   26.3966 C   0  0  0  0  0  0  0  0  0  0  0  0
   12.4742  -18.6236   26.6456 O   0  0  0  0  0  0  0  0  0  0  0  0
   10.2086  -18.7569   26.3676 O   0  0  0  0  0  0  0  0  0  0  0  0
  2  1  1  6
  3  4  1  0
  3  2  1  0
  4  5  2  0
  6  2  1  0
  6  7  2  0
  8  4  1  0
  9  6  1  0
 10  9  1  0
 10 11  1  1
 12 20  1  0
 12 11  1  0
 13 12  2  0
 14 13  1  0
 14 15  1  0
 15 16  1  0
 15 20  2  0
 16 17  2  0
 17 18  1  0
 19 18  2  0
 20 19  1  0
 21 10  1  0
 22 21  2  0
 23 24  1  0
 24 25  1  0
 25 26  1  0
 27 26  1  1
 27 28  1  0
 27 29  1  0
 28 21  1  0
 29 30  1  0
 31 29  2  0
M  END
$$$$
