DWM.pdb
     RDKit          3D

 31 32  0  0  1  0  0  0  0  0999 V2000
   10.4222  -18.0858   19.3495 N   0  0  0  0  0  0  0  0  0  0  0  0
   11.4787  -17.1919   19.7327 C   0  0  1  0  0  0  0  0  0  0  0  0
   11.9324  -16.3159   18.5912 C   0  0  0  0  0  0  0  0  0  0  0  0
   12.4939  -17.1861   17.5359 C   0  0  0  0  0  0  0  0  0  0  0  0
   13.4252  -17.9993   17.8153 O   0  0  0  0  0  0  0  0  0  0  0  0
   11.0429  -16.4120   20.9112 C   0  0  0  0  0  0  0  0  0  0  0  0
   11.7575  -15.4990   21.3823 O   0  0  0  0  0  0  0  0  0  0  0  0
   12.0287  -17.1375   16.2436 O   0  0  0  0  0  0  0  0  0  0  0  0
    9.8069  -16.6996   21.5129 N   0  0  0  0  0  0  0  0  0  0  0  0
    9.3235  -16.1275   22.7281 C   0  0  1  0  0  0  0  0  0  0  0  0
    7.8350  -16.2396   22.8136 C   0  0  0  0  0  0  0  0  0  0  0  0
    7.2477  -15.6407   24.0312 C   0  0  0  0  0  0  0  0  0  0  0  0
    6.6562  -16.3068   25.0918 C   0  0  0  0  0  0  0  0  0  0  0  0
    6.2874  -15.4185   26.0086 N   0  0  0  0  0  0  0  0  0  0  0  0
    6.6171  -14.1993   25.5821 C   0  0  0  0  0  0  0  0  0  0  0  0
    6.4417  -12.9640   26.1595 C   0  0  0  0  0  0  0  0  0  0  0  0
    6.8661  -11.8249   25.5058 C   0  0  0  0  0  0  0  0  0  0  0  0
    7.4660  -11.8812   24.2808 C   0  0  0  0  0  0  0  0  0  0  0  0
    7.6410  -13.1293   23.7025 C   0  0  0  0  0  0  0  0  0  0  0  0
    7.2290  -14.2997   24.3287 C   0  0  0  0  0  0  0  0  0  0  0  0
    9.9275  -16.8501   23.8705 C   0  0  0  0  0  0  0  0  0  0  0  0
   10.2608  -18.0463   23.7566 O   0  0  0  0  0  0  0  0  0  0  0  0
    9.5983  -12.7714   28.8717 C   0  0  0  0  0  0  0  0  0  0  0  0
   10.6110  -14.1963   29.3624 S   0  0  0  0  0  0  0  0  0  0  0  0
   10.3139  -15.5860   28.2705 C   0  0  0  0  0  0  0  0  0  0  0  0
   11.3310  -15.7544   27.2056 C   0  0  0  0  0  0  0  0  0  0  0  0
   11.0296  -16.7191   26.1141 C   0  0  2  0  0  0  0  0  0  0  0  0
   10.1375  -16.1773   25.1287 N   0  0  0  0  0  0  0  0  0  0  0  0
   10.4979  -18.0040   26.6225 C   0  0  0  0  0  0  0  0  0  0  0  0
    9.2120  -18.4079   26.3002 O   0  0  0  0  0  0  0  0  0  0  0  0
   11.2190  -18.7264   27.3481 O   0  0  0  0  0  0  0  0  0  0  0  0
  2  1  1  6
  3  4  1  0
  3  2  1  0
  4  5  2  0
  6  2  1  0
  6  7  2  0
  8  4  1  0
  9  6  1  0
 10  9  1  0
 10 11  1  6
 12 20  1  0
 12 11  1  0
 13 12  2  0
 14 13  1  0
 14 15  1  0
 15 16  1  0
 15 20  2  0
 16 17  2  0
 17 18  1  0
 19 18  2  0
 20 19  1  0
 21 10  1  0
 22 21  2  0
 23 24  1  0
 24 25  1  0
 25 26  1  0
 27 26  1  1
 27 28  1  0
 27 29  1  0
 28 21  1  0
 29 30  1  0
 31 29  2  0
M  END
$$$$
