DWM.pdb
     RDKit          3D

 31 32  0  0  1  0  0  0  0  0999 V2000
    9.2313  -16.5894   19.0147 N   0  0  0  0  0  0  0  0  0  0  0  0
    9.5610  -17.4777   20.0937 C   0  0  1  0  0  0  0  0  0  0  0  0
   10.4152  -18.6368   19.6430 C   0  0  0  0  0  0  0  0  0  0  0  0
    9.8320  -19.1845   18.3995 C   0  0  0  0  0  0  0  0  0  0  0  0
    8.7686  -19.8724   18.4488 O   0  0  0  0  0  0  0  0  0  0  0  0
   10.1879  -16.6974   21.1824 C   0  0  0  0  0  0  0  0  0  0  0  0
   11.2423  -16.0514   20.9903 O   0  0  0  0  0  0  0  0  0  0  0  0
   10.4180  -18.9659   17.1758 O   0  0  0  0  0  0  0  0  0  0  0  0
    9.5913  -16.6803   22.4537 N   0  0  0  0  0  0  0  0  0  0  0  0
   10.2521  -16.3501   23.6752 C   0  0  1  0  0  0  0  0  0  0  0  0
    9.8537  -14.9875   24.1442 C   0  0  0  0  0  0  0  0  0  0  0  0
    8.5333  -14.9332   24.8074 C   0  0  0  0  0  0  0  0  0  0  0  0
    7.7674  -16.0033   25.2395 C   0  0  0  0  0  0  0  0  0  0  0  0
    6.6650  -15.5398   25.8189 N   0  0  0  0  0  0  0  0  0  0  0  0
    6.6864  -14.2075   25.7784 C   0  0  0  0  0  0  0  0  0  0  0  0
    5.7823  -13.2771   26.2330 C   0  0  0  0  0  0  0  0  0  0  0  0
    6.0268  -11.9294   26.0624 C   0  0  0  0  0  0  0  0  0  0  0  0
    7.1576  -11.4772   25.4454 C   0  0  0  0  0  0  0  0  0  0  0  0
    8.0667  -12.4194   24.9889 C   0  0  0  0  0  0  0  0  0  0  0  0
    7.8579  -13.7849   25.1425 C   0  0  0  0  0  0  0  0  0  0  0  0
    9.8758  -17.3438   24.7063 C   0  0  0  0  0  0  0  0  0  0  0  0
    9.3709  -18.4355   24.3774 O   0  0  0  0  0  0  0  0  0  0  0  0
   10.6086  -13.4456   30.3442 C   0  0  0  0  0  0  0  0  0  0  0  0
   11.6558  -14.0645   28.9962 S   0  0  0  0  0  0  0  0  0  0  0  0
   11.3138  -15.7943   28.6764 C   0  0  0  0  0  0  0  0  0  0  0  0
   11.9721  -16.3328   27.4625 C   0  0  0  0  0  0  0  0  0  0  0  0
   11.3017  -17.4600   26.7602 C   0  0  2  0  0  0  0  0  0  0  0  0
   10.0897  -17.0594   26.1039 N   0  0  0  0  0  0  0  0  0  0  0  0
   11.0337  -18.6081   27.6559 C   0  0  0  0  0  0  0  0  0  0  0  0
   12.0818  -19.3053   28.2355 O   0  0  0  0  0  0  0  0  0  0  0  0
    9.8506  -18.9469   27.8876 O   0  0  0  0  0  0  0  0  0  0  0  0
  2  1  1  6
  3  4  1  0
  3  2  1  0
  4  5  2  0
  6  2  1  0
  6  7  2  0
  8  4  1  0
  9  6  1  0
 10  9  1  0
 10 11  1  1
 12 20  1  0
 12 11  1  0
 13 12  2  0
 14 13  1  0
 14 15  1  0
 15 16  1  0
 15 20  2  0
 16 17  2  0
 17 18  1  0
 19 18  2  0
 20 19  1  0
 21 10  1  0
 22 21  2  0
 23 24  1  0
 24 25  1  0
 25 26  1  0
 27 26  1  1
 27 28  1  0
 27 29  1  0
 28 21  1  0
 29 30  1  0
 31 29  2  0
M  END
$$$$
