DWM.pdb
     RDKit          3D

 31 32  0  0  1  0  0  0  0  0999 V2000
   11.5547  -16.1017   18.9935 N   0  0  0  0  0  0  0  0  0  0  0  0
   11.5253  -16.9884   20.1226 C   0  0  1  0  0  0  0  0  0  0  0  0
   12.8801  -17.5798   20.4242 C   0  0  0  0  0  0  0  0  0  0  0  0
   13.3842  -18.2302   19.1957 C   0  0  0  0  0  0  0  0  0  0  0  0
   12.7935  -19.2515   18.7324 O   0  0  0  0  0  0  0  0  0  0  0  0
   10.9458  -16.2722   21.2795 C   0  0  0  0  0  0  0  0  0  0  0  0
   11.2642  -15.0887   21.5326 O   0  0  0  0  0  0  0  0  0  0  0  0
   14.4895  -17.7524   18.5333 O   0  0  0  0  0  0  0  0  0  0  0  0
   10.0229  -16.9298   22.1090 N   0  0  0  0  0  0  0  0  0  0  0  0
    9.4048  -16.3708   23.2680 C   0  0  1  0  0  0  0  0  0  0  0  0
    7.9151  -16.4452   23.1647 C   0  0  0  0  0  0  0  0  0  0  0  0
    7.1940  -15.8203   24.2941 C   0  0  0  0  0  0  0  0  0  0  0  0
    6.4190  -16.4570   25.2493 C   0  0  0  0  0  0  0  0  0  0  0  0
    5.9735  -15.5542   26.1166 N   0  0  0  0  0  0  0  0  0  0  0  0
    6.4303  -14.3539   25.7593 C   0  0  0  0  0  0  0  0  0  0  0  0
    6.2444  -13.1140   26.3233 C   0  0  0  0  0  0  0  0  0  0  0  0
    6.8228  -11.9976   25.7537 C   0  0  0  0  0  0  0  0  0  0  0  0
    7.5884  -12.0816   24.6265 C   0  0  0  0  0  0  0  0  0  0  0  0
    7.7732  -13.3343   24.0614 C   0  0  0  0  0  0  0  0  0  0  0  0
    7.2093  -14.4823   24.6052 C   0  0  0  0  0  0  0  0  0  0  0  0
    9.8439  -17.1332   24.4589 C   0  0  0  0  0  0  0  0  0  0  0  0
   10.1313  -18.3428   24.3643 O   0  0  0  0  0  0  0  0  0  0  0  0
   11.6253  -12.1556   27.7691 C   0  0  0  0  0  0  0  0  0  0  0  0
   10.4918  -13.5712   27.8591 S   0  0  0  0  0  0  0  0  0  0  0  0
   11.4087  -15.1038   28.0069 C   0  0  0  0  0  0  0  0  0  0  0  0
   10.5613  -16.3170   28.0898 C   0  0  0  0  0  0  0  0  0  0  0  0
   10.4759  -17.1791   26.8805 C   0  0  2  0  0  0  0  0  0  0  0  0
    9.9441  -16.4839   25.7428 N   0  0  0  0  0  0  0  0  0  0  0  0
    9.7022  -18.4185   27.1201 C   0  0  0  0  0  0  0  0  0  0  0  0
   10.1281  -19.3400   28.0635 O   0  0  0  0  0  0  0  0  0  0  0  0
    8.6572  -18.6304   26.4633 O   0  0  0  0  0  0  0  0  0  0  0  0
  2  1  1  6
  3  4  1  0
  3  2  1  0
  4  5  2  0
  6  2  1  0
  6  7  2  0
  8  4  1  0
  9  6  1  0
 10  9  1  0
 10 11  1  6
 12 20  1  0
 12 11  1  0
 13 12  2  0
 14 13  1  0
 14 15  1  0
 15 16  1  0
 15 20  2  0
 16 17  2  0
 17 18  1  0
 19 18  2  0
 20 19  1  0
 21 10  1  0
 22 21  2  0
 23 24  1  0
 24 25  1  0
 25 26  1  0
 27 26  1  1
 27 28  1  0
 27 29  1  0
 28 21  1  0
 29 30  1  0
 31 29  2  0
M  END
$$$$
