QVL.pdb
     RDKit          3D

 25 24  0  0  1  0  0  0  0  0999 V2000
   29.4886  -21.4512  -15.8822 N   0  0  0  0  0  0  0  0  0  0  0  0
   29.5482  -20.1571  -16.4687 C   0  0  0  0  0  0  0  0  0  0  0  0
   30.1624  -19.9883  -17.5316 O   0  0  0  0  0  0  0  0  0  0  0  0
   28.8720  -19.0611  -15.7851 C   0  0  0  0  0  0  0  0  0  0  0  0
   28.1888  -19.3893  -14.5087 C   0  0  0  0  0  0  0  0  0  0  0  0
   26.7834  -19.8789  -14.6846 C   0  0  2  0  0  0  0  0  0  0  0  0
   26.1365  -19.3062  -15.8493 N   0  0  0  0  0  0  0  0  0  0  0  0
   25.9616  -19.5216  -13.5042 C   0  0  0  0  0  0  0  0  0  0  0  0
   25.5286  -18.3710  -13.4164 O   0  0  0  0  0  0  0  0  0  0  0  0
   22.8054  -20.0645  -12.9378 C   0  0  0  0  0  0  0  0  0  0  0  0
   23.3757  -20.7442  -11.7256 C   0  0  2  0  0  0  0  0  0  0  0  0
   22.3555  -20.5411  -10.6272 C   0  0  0  0  0  0  0  0  0  0  0  0
   24.7314  -20.2396  -11.4075 C   0  0  2  0  0  0  0  0  0  0  0  0
   25.6736  -20.4393  -12.5116 N   0  0  0  0  0  0  0  0  0  0  0  0
   25.4098  -20.8283  -10.2451 C   0  0  0  0  0  0  0  0  0  0  0  0
   25.8064  -22.0223  -10.3039 O   0  0  0  0  0  0  0  0  0  0  0  0
   28.1268  -18.3249   -6.1640 C   0  0  0  0  0  0  0  0  0  0  0  0
   27.7120  -19.3585   -7.1937 C   0  0  1  0  0  0  0  0  0  0  0  0
   28.7731  -20.4562   -7.1403 C   0  0  0  0  0  0  0  0  0  0  0  0
   26.4200  -19.9815   -6.7738 C   0  0  0  0  0  0  0  0  0  0  0  0
   25.8689  -20.9530   -7.8006 C   0  0  2  0  0  0  0  0  0  0  0  0
   25.6690  -20.1524   -9.0301 N   0  0  0  0  0  0  0  0  0  0  0  0
   24.5551  -21.5082   -7.4001 C   0  0  0  0  0  0  0  0  0  0  0  0
   24.4777  -22.6421   -6.6120 O   0  0  0  0  0  0  0  0  0  0  0  0
   23.4817  -20.9678   -7.7631 O   0  0  0  0  0  0  0  0  0  0  0  0
  2  4  1  0
  2  1  1  0
  3  2  2  0
  5  6  1  0
  5  4  1  0
  6  7  1  6
  8  9  2  0
  8  6  1  0
 11 10  1  6
 11 13  1  0
 11 12  1  0
 13 14  1  6
 14  8  1  0
 15 22  1  0
 15 13  1  0
 16 15  2  0
 18 17  1  1
 19 18  1  0
 20 18  1  0
 21 20  1  1
 21 23  1  0
 21 22  1  0
 23 24  1  0
 25 23  2  0
M  END
$$$$
