QVL.pdb
     RDKit          3D

 25 24  0  0  1  0  0  0  0  0999 V2000
   23.7152  -19.9342  -15.2531 N   0  0  0  0  0  0  0  0  0  0  0  0
   22.3127  -20.0885  -15.0759 C   0  0  0  0  0  0  0  0  0  0  0  0
   21.5260  -19.4380  -15.7784 O   0  0  0  0  0  0  0  0  0  0  0  0
   21.8474  -21.0225  -14.0575 C   0  0  0  0  0  0  0  0  0  0  0  0
   22.8902  -21.7383  -13.2804 C   0  0  0  0  0  0  0  0  0  0  0  0
   23.0761  -21.2106  -11.8902 C   0  0  2  0  0  0  0  0  0  0  0  0
   22.9878  -19.7644  -11.8277 N   0  0  0  0  0  0  0  0  0  0  0  0
   24.4090  -21.5934  -11.3674 C   0  0  0  0  0  0  0  0  0  0  0  0
   24.7236  -22.7850  -11.3773 O   0  0  0  0  0  0  0  0  0  0  0  0
   27.6186  -21.1617  -12.6539 C   0  0  0  0  0  0  0  0  0  0  0  0
   27.6905  -20.4432  -11.3366 C   0  0  2  0  0  0  0  0  0  0  0  0
   29.1123  -20.6230  -10.8519 C   0  0  0  0  0  0  0  0  0  0  0  0
   26.6537  -20.9277  -10.3963 C   0  0  2  0  0  0  0  0  0  0  0  0
   25.2961  -20.6549  -10.8751 N   0  0  0  0  0  0  0  0  0  0  0  0
   26.6726  -20.3753   -9.0353 C   0  0  0  0  0  0  0  0  0  0  0  0
   25.8216  -19.5047   -8.7128 O   0  0  0  0  0  0  0  0  0  0  0  0
   29.0961  -22.1851   -4.0051 C   0  0  0  0  0  0  0  0  0  0  0  0
   28.0014  -21.5311   -4.8264 C   0  0  1  0  0  0  0  0  0  0  0  0
   27.2552  -20.6019   -3.8707 C   0  0  0  0  0  0  0  0  0  0  0  0
   28.6225  -20.6676   -5.8765 C   0  0  0  0  0  0  0  0  0  0  0  0
   27.5987  -19.9772   -6.7580 C   0  0  2  0  0  0  0  0  0  0  0  0
   27.5866  -20.7479   -8.0223 N   0  0  0  0  0  0  0  0  0  0  0  0
   27.9826  -18.5828   -7.0785 C   0  0  0  0  0  0  0  0  0  0  0  0
   27.4249  -17.5204   -6.3905 O   0  0  0  0  0  0  0  0  0  0  0  0
   28.8201  -18.3282   -7.9784 O   0  0  0  0  0  0  0  0  0  0  0  0
  2  4  1  0
  2  1  1  0
  3  2  2  0
  5  6  1  0
  5  4  1  0
  6  7  1  6
  8  9  2  0
  8  6  1  0
 11 10  1  6
 11 13  1  0
 11 12  1  0
 13 14  1  6
 14  8  1  0
 15 22  1  0
 15 13  1  0
 16 15  2  0
 18 17  1  1
 19 18  1  0
 20 18  1  0
 21 20  1  1
 21 23  1  0
 21 22  1  0
 23 24  1  0
 25 23  2  0
M  END
$$$$
