QVL.pdb
     RDKit          3D

 25 24  0  0  1  0  0  0  0  0999 V2000
   24.0262  -25.2690  -12.1140 N   0  0  0  0  0  0  0  0  0  0  0  0
   23.3562  -25.5396  -13.3388 C   0  0  0  0  0  0  0  0  0  0  0  0
   23.0226  -26.7001  -13.6172 O   0  0  0  0  0  0  0  0  0  0  0  0
   23.0828  -24.4217  -14.2341 C   0  0  0  0  0  0  0  0  0  0  0  0
   23.4434  -23.0681  -13.7428 C   0  0  0  0  0  0  0  0  0  0  0  0
   24.9116  -22.7742  -13.8054 C   0  0  2  0  0  0  0  0  0  0  0  0
   25.6155  -23.2000  -12.6111 N   0  0  0  0  0  0  0  0  0  0  0  0
   25.1398  -21.3176  -13.9554 C   0  0  0  0  0  0  0  0  0  0  0  0
   25.1378  -20.6154  -12.9425 O   0  0  0  0  0  0  0  0  0  0  0  0
   28.1523  -19.6773  -14.9921 C   0  0  0  0  0  0  0  0  0  0  0  0
   27.1152  -19.2353  -15.9849 C   0  0  2  0  0  0  0  0  0  0  0  0
   27.5158  -17.8356  -16.3960 C   0  0  0  0  0  0  0  0  0  0  0  0
   25.7475  -19.3454  -15.4271 C   0  0  2  0  0  0  0  0  0  0  0  0
   25.3523  -20.7363  -15.1912 N   0  0  0  0  0  0  0  0  0  0  0  0
   24.6497  -18.7911  -16.2304 C   0  0  0  0  0  0  0  0  0  0  0  0
   24.3106  -19.3740  -17.2942 O   0  0  0  0  0  0  0  0  0  0  0  0
   20.0578  -16.7739  -14.2390 C   0  0  0  0  0  0  0  0  0  0  0  0
   21.1354  -17.4947  -15.0264 C   0  0  1  0  0  0  0  0  0  0  0  0
   20.4083  -18.5166  -15.8984 C   0  0  0  0  0  0  0  0  0  0  0  0
   21.7998  -16.5272  -15.9519 C   0  0  0  0  0  0  0  0  0  0  0  0
   22.8521  -17.1758  -16.8317 C   0  0  2  0  0  0  0  0  0  0  0  0
   23.9141  -17.6279  -15.9042 N   0  0  0  0  0  0  0  0  0  0  0  0
   23.4575  -16.2158  -17.7838 C   0  0  0  0  0  0  0  0  0  0  0  0
   24.6487  -15.5799  -17.4848 O   0  0  0  0  0  0  0  0  0  0  0  0
   22.9089  -15.9543  -18.8824 O   0  0  0  0  0  0  0  0  0  0  0  0
  2  4  1  0
  2  1  1  0
  3  2  2  0
  5  6  1  0
  5  4  1  0
  6  7  1  1
  8  9  2  0
  8  6  1  0
 11 10  1  1
 11 13  1  0
 11 12  1  0
 13 14  1  6
 14  8  1  0
 15 22  1  0
 15 13  1  0
 16 15  2  0
 18 17  1  1
 19 18  1  0
 20 18  1  0
 21 20  1  1
 21 23  1  0
 21 22  1  0
 23 24  1  0
 25 23  2  0
M  END
$$$$
