QVL.pdb
     RDKit          3D

 25 24  0  0  1  0  0  0  0  0999 V2000
   19.8846  -17.2588  -15.3793 N   0  0  0  0  0  0  0  0  0  0  0  0
   20.4532  -16.4263  -16.3824 C   0  0  0  0  0  0  0  0  0  0  0  0
   19.8642  -15.3950  -16.7361 O   0  0  0  0  0  0  0  0  0  0  0  0
   21.7288  -16.8254  -16.9647 C   0  0  0  0  0  0  0  0  0  0  0  0
   22.3873  -18.0194  -16.3780 C   0  0  0  0  0  0  0  0  0  0  0  0
   23.7487  -18.2957  -16.9402 C   0  0  2  0  0  0  0  0  0  0  0  0
   23.7043  -18.6973  -18.3329 N   0  0  0  0  0  0  0  0  0  0  0  0
   24.4050  -19.3904  -16.1869 C   0  0  0  0  0  0  0  0  0  0  0  0
   23.9427  -20.5289  -16.2829 O   0  0  0  0  0  0  0  0  0  0  0  0
   27.8848  -20.8468  -16.1848 C   0  0  0  0  0  0  0  0  0  0  0  0
   27.6259  -20.2609  -14.8260 C   0  0  2  0  0  0  0  0  0  0  0  0
   28.3967  -21.1281  -13.8552 C   0  0  0  0  0  0  0  0  0  0  0  0
   26.1750  -20.1618  -14.5447 C   0  0  2  0  0  0  0  0  0  0  0  0
   25.5107  -19.1654  -15.3887 N   0  0  0  0  0  0  0  0  0  0  0  0
   25.7810  -19.7952  -13.1779 C   0  0  0  0  0  0  0  0  0  0  0  0
   25.9453  -18.6090  -12.7875 O   0  0  0  0  0  0  0  0  0  0  0  0
   21.8887  -20.5636   -8.7242 C   0  0  0  0  0  0  0  0  0  0  0  0
   23.3665  -20.3471   -8.9886 C   0  0  1  0  0  0  0  0  0  0  0  0
   24.0984  -21.4389   -8.2104 C   0  0  0  0  0  0  0  0  0  0  0  0
   23.6475  -20.5826  -10.4375 C   0  0  0  0  0  0  0  0  0  0  0  0
   25.0693  -20.2280  -10.8309 C   0  0  2  0  0  0  0  0  0  0  0  0
   25.2126  -20.6812  -12.2333 N   0  0  0  0  0  0  0  0  0  0  0  0
   26.0741  -20.9481  -10.0147 C   0  0  0  0  0  0  0  0  0  0  0  0
   26.6297  -20.3569   -8.8946 O   0  0  0  0  0  0  0  0  0  0  0  0
   26.4470  -22.1085  -10.3154 O   0  0  0  0  0  0  0  0  0  0  0  0
  2  4  1  0
  2  1  1  0
  3  2  2  0
  5  6  1  0
  5  4  1  0
  6  7  1  6
  8  9  2  0
  8  6  1  0
 11 10  1  6
 11 13  1  0
 11 12  1  0
 13 14  1  6
 14  8  1  0
 15 22  1  0
 15 13  1  0
 16 15  2  0
 18 17  1  6
 19 18  1  0
 20 18  1  0
 21 20  1  1
 21 23  1  0
 21 22  1  0
 23 24  1  0
 25 23  2  0
M  END
$$$$
