QVL.pdb
     RDKit          3D

 25 24  0  0  1  0  0  0  0  0999 V2000
   20.2903  -19.8273  -16.0063 N   0  0  0  0  0  0  0  0  0  0  0  0
   20.5414  -18.8243  -16.9826 C   0  0  0  0  0  0  0  0  0  0  0  0
   19.6321  -18.4592  -17.7412 O   0  0  0  0  0  0  0  0  0  0  0  0
   21.8816  -18.2546  -17.0534 C   0  0  0  0  0  0  0  0  0  0  0  0
   22.8418  -18.6716  -16.0010 C   0  0  0  0  0  0  0  0  0  0  0  0
   24.1112  -19.2583  -16.5397 C   0  0  2  0  0  0  0  0  0  0  0  0
   23.9037  -19.9990  -17.7691 N   0  0  0  0  0  0  0  0  0  0  0  0
   24.7043  -20.1949  -15.5561 C   0  0  0  0  0  0  0  0  0  0  0  0
   24.2456  -21.3364  -15.4814 O   0  0  0  0  0  0  0  0  0  0  0  0
   28.5825  -19.5063  -13.9054 C   0  0  0  0  0  0  0  0  0  0  0  0
   27.8690  -20.8222  -14.0313 C   0  0  2  0  0  0  0  0  0  0  0  0
   28.1992  -21.3334  -15.4163 C   0  0  0  0  0  0  0  0  0  0  0  0
   26.4204  -20.6831  -13.7557 C   0  0  2  0  0  0  0  0  0  0  0  0
   25.7479  -19.8208  -14.7308 N   0  0  0  0  0  0  0  0  0  0  0  0
   26.0370  -20.1208  -12.4539 C   0  0  0  0  0  0  0  0  0  0  0  0
   25.9736  -18.8702  -12.3186 O   0  0  0  0  0  0  0  0  0  0  0  0
   21.7653  -21.4669  -10.0328 C   0  0  0  0  0  0  0  0  0  0  0  0
   22.9770  -20.7278  -10.5677 C   0  0  1  0  0  0  0  0  0  0  0  0
   22.5692  -19.2583  -10.6567 C   0  0  0  0  0  0  0  0  0  0  0  0
   24.0859  -20.8118   -9.5691 C   0  0  0  0  0  0  0  0  0  0  0  0
   25.3710  -20.1679  -10.0547 C   0  0  2  0  0  0  0  0  0  0  0  0
   25.7190  -20.8814  -11.3047 N   0  0  0  0  0  0  0  0  0  0  0  0
   26.4878  -20.3526   -9.0990 C   0  0  0  0  0  0  0  0  0  0  0  0
   26.5260  -19.6447   -7.9115 O   0  0  0  0  0  0  0  0  0  0  0  0
   27.4251  -21.1525   -9.3392 O   0  0  0  0  0  0  0  0  0  0  0  0
  2  4  1  0
  2  1  1  0
  3  2  2  0
  5  6  1  0
  5  4  1  0
  6  7  1  6
  8  9  2  0
  8  6  1  0
 11 10  1  6
 11 13  1  0
 11 12  1  0
 13 14  1  6
 14  8  1  0
 15 22  1  0
 15 13  1  0
 16 15  2  0
 18 17  1  1
 19 18  1  0
 20 18  1  0
 21 20  1  1
 21 23  1  0
 21 22  1  0
 23 24  1  0
 25 23  2  0
M  END
$$$$
