QVL.pdb
     RDKit          3D

 25 24  0  0  1  0  0  0  0  0999 V2000
   17.5545  -14.5905  -14.9653 N   0  0  0  0  0  0  0  0  0  0  0  0
   16.3341  -14.9608  -15.5945 C   0  0  0  0  0  0  0  0  0  0  0  0
   15.7085  -15.9524  -15.1937 O   0  0  0  0  0  0  0  0  0  0  0  0
   15.8586  -14.1447  -16.7053 C   0  0  0  0  0  0  0  0  0  0  0  0
   16.5982  -12.8863  -16.9750 C   0  0  0  0  0  0  0  0  0  0  0  0
   15.9792  -12.0395  -18.0453 C   0  0  2  0  0  0  0  0  0  0  0  0
   15.8196  -12.7541  -19.2971 N   0  0  0  0  0  0  0  0  0  0  0  0
   16.8263  -10.8547  -18.3196 C   0  0  0  0  0  0  0  0  0  0  0  0
   17.5899  -10.8897  -19.2863 O   0  0  0  0  0  0  0  0  0  0  0  0
   16.2223   -7.1978  -19.1794 C   0  0  0  0  0  0  0  0  0  0  0  0
   16.8449   -7.2957  -17.8158 C   0  0  2  0  0  0  0  0  0  0  0  0
   17.6440   -6.0230  -17.6410 C   0  0  0  0  0  0  0  0  0  0  0  0
   17.6315   -8.5418  -17.6661 C   0  0  2  0  0  0  0  0  0  0  0  0
   16.7791   -9.7250  -17.5246 N   0  0  0  0  0  0  0  0  0  0  0  0
   18.5495   -8.6213  -16.5221 C   0  0  0  0  0  0  0  0  0  0  0  0
   18.0807   -8.5879  -15.3536 O   0  0  0  0  0  0  0  0  0  0  0  0
   22.1394  -10.3608  -13.1675 C   0  0  0  0  0  0  0  0  0  0  0  0
   22.7944   -9.8463  -14.4352 C   0  0  1  0  0  0  0  0  0  0  0  0
   23.8450  -10.8868  -14.8191 C   0  0  0  0  0  0  0  0  0  0  0  0
   21.7843   -9.8210  -15.5365 C   0  0  0  0  0  0  0  0  0  0  0  0
   20.7572   -8.7163  -15.3735 C   0  0  2  0  0  0  0  0  0  0  0  0
   19.9556   -8.7396  -16.6183 N   0  0  0  0  0  0  0  0  0  0  0  0
   21.3840   -7.3789  -15.2605 C   0  0  0  0  0  0  0  0  0  0  0  0
   21.6634   -6.8319  -14.0213 O   0  0  0  0  0  0  0  0  0  0  0  0
   21.6771   -6.7086  -16.2807 O   0  0  0  0  0  0  0  0  0  0  0  0
  2  4  1  0
  2  1  1  0
  3  2  2  0
  5  6  1  0
  5  4  1  0
  6  7  1  6
  8  9  2  0
  8  6  1  0
 11 10  1  6
 11 13  1  0
 11 12  1  0
 13 14  1  1
 14  8  1  0
 15 22  1  0
 15 13  1  0
 16 15  2  0
 18 17  1  1
 19 18  1  0
 20 18  1  0
 21 20  1  6
 21 23  1  0
 21 22  1  0
 23 24  1  0
 25 23  2  0
M  END
$$$$
