QVL.pdb
     RDKit          3D

 25 24  0  0  1  0  0  0  0  0999 V2000
   17.5262  -14.5107  -14.8066 N   0  0  0  0  0  0  0  0  0  0  0  0
   16.1765  -14.6669  -15.2264 C   0  0  0  0  0  0  0  0  0  0  0  0
   15.5180  -15.6424  -14.8390 O   0  0  0  0  0  0  0  0  0  0  0  0
   15.6107  -13.6553  -16.1110 C   0  0  0  0  0  0  0  0  0  0  0  0
   16.5065  -12.5420  -16.5129 C   0  0  0  0  0  0  0  0  0  0  0  0
   15.8976  -11.6085  -17.5148 C   0  0  2  0  0  0  0  0  0  0  0  0
   15.5724  -12.2688  -18.7643 N   0  0  0  0  0  0  0  0  0  0  0  0
   16.8373  -10.5068  -17.8305 C   0  0  0  0  0  0  0  0  0  0  0  0
   17.5803  -10.6299  -18.8061 O   0  0  0  0  0  0  0  0  0  0  0  0
   16.0771   -6.6612  -16.4543 C   0  0  0  0  0  0  0  0  0  0  0  0
   17.0521   -6.9655  -17.5559 C   0  0  2  0  0  0  0  0  0  0  0  0
   16.2374   -6.9702  -18.8307 C   0  0  0  0  0  0  0  0  0  0  0  0
   17.7928   -8.2211  -17.2941 C   0  0  2  0  0  0  0  0  0  0  0  0
   16.8981   -9.3583  -17.0640 N   0  0  0  0  0  0  0  0  0  0  0  0
   18.6981   -8.2363  -16.1374 C   0  0  0  0  0  0  0  0  0  0  0  0
   18.2392   -8.5259  -15.0008 O   0  0  0  0  0  0  0  0  0  0  0  0
   23.4181  -10.7986  -14.1558 C   0  0  0  0  0  0  0  0  0  0  0  0
   22.7121   -9.4667  -13.9873 C   0  0  1  0  0  0  0  0  0  0  0  0
   23.7897   -8.3954  -14.1445 C   0  0  0  0  0  0  0  0  0  0  0  0
   21.7432   -9.2772  -15.1094 C   0  0  0  0  0  0  0  0  0  0  0  0
   20.8734   -8.0457  -14.9399 C   0  0  2  0  0  0  0  0  0  0  0  0
   20.0822   -7.9498  -16.1879 N   0  0  0  0  0  0  0  0  0  0  0  0
   21.6740   -6.8059  -14.8120 C   0  0  0  0  0  0  0  0  0  0  0  0
   22.0582   -6.3380  -13.5685 O   0  0  0  0  0  0  0  0  0  0  0  0
   22.0240   -6.1493  -15.8232 O   0  0  0  0  0  0  0  0  0  0  0  0
  2  4  1  0
  2  1  1  0
  3  2  2  0
  5  6  1  0
  5  4  1  0
  6  7  1  6
  8  9  2  0
  8  6  1  0
 11 10  1  1
 11 13  1  0
 11 12  1  0
 13 14  1  1
 14  8  1  0
 15 22  1  0
 15 13  1  0
 16 15  2  0
 18 17  1  6
 19 18  1  0
 20 18  1  0
 21 20  1  6
 21 23  1  0
 21 22  1  0
 23 24  1  0
 25 23  2  0
M  END
$$$$
