GLY.pdb
     RDKit          3D

 25 25  0  0  1  0  0  0  0  0999 V2000
   20.2620  -11.3785  -20.3103 N   0  0  0  0  0  0  0  0  0  0  0  0
   21.0170  -10.1658  -20.1426 C   0  0  0  0  0  0  0  0  0  0  0  0
   21.3485  -10.0164  -18.6770 C   0  0  0  0  0  0  0  0  0  0  0  0
   20.4163   -9.9100  -17.8499 O   0  0  0  0  0  0  0  0  0  0  0  0
   24.1783  -10.9986  -14.2481 C   0  0  0  0  0  0  0  0  0  0  0  0
   24.9594  -10.1847  -15.2273 C   0  0  1  0  0  0  0  0  0  0  0  0
   26.3865  -10.7873  -15.3203 C   0  0  0  0  0  0  0  0  0  0  0  0
   24.4197  -10.2813  -16.6209 C   0  0  0  0  0  0  0  0  0  0  0  0
   23.0577   -9.6728  -16.8599 C   0  0  2  0  0  0  0  0  0  0  0  0
   22.6780   -9.9957  -18.2360 N   0  0  0  0  0  0  0  0  0  0  0  0
   23.0647   -8.2407  -16.6401 C   0  0  0  0  0  0  0  0  0  0  0  0
   23.8573   -7.5337  -17.3545 O   0  0  0  0  0  0  0  0  0  0  0  0
   21.0498   -5.0281  -21.7629 O   0  0  0  0  0  0  0  0  0  0  0  0
   21.0496   -5.1845  -20.3808 C   0  0  0  0  0  0  0  0  0  0  0  0
   21.6874   -4.2376  -19.5909 C   0  0  0  0  0  0  0  0  0  0  0  0
   21.7003   -4.3712  -18.2207 C   0  0  0  0  0  0  0  0  0  0  0  0
   21.0873   -5.4389  -17.5823 C   0  0  0  0  0  0  0  0  0  0  0  0
   21.1238   -5.5489  -16.1226 C   0  0  0  0  0  0  0  0  0  0  0  0
   22.4341   -6.1131  -15.5841 C   0  0  2  0  0  0  0  0  0  0  0  0
   22.2705   -7.5700  -15.7153 N   0  0  0  0  0  0  0  0  0  0  0  0
   22.6197   -5.7783  -14.1656 C   0  0  0  0  0  0  0  0  0  0  0  0
   22.8718   -4.5990  -13.8374 O   0  0  0  0  0  0  0  0  0  0  0  0
   20.4510   -6.3852  -18.3567 C   0  0  0  0  0  0  0  0  0  0  0  0
   20.4427   -6.2427  -19.7398 C   0  0  0  0  0  0  0  0  0  0  0  0
   22.5196   -6.7422  -13.1947 O   0  0  0  0  0  0  0  0  0  0  0  0
  1  2  1  0
  3  4  2  0
  3  2  1  0
  6  5  1  1
  6  8  1  0
  7  6  1  0
  9  8  1  6
  9 10  1  0
 10  3  1  0
 11  9  1  0
 12 11  2  0
 13 14  1  0
 14 15  2  0
 15 16  1  0
 17 18  1  0
 17 16  2  0
 19 18  1  1
 19 21  1  0
 19 20  1  0
 20 11  1  0
 21 25  1  0
 22 21  2  0
 23 17  1  0
 24 23  2  0
 24 14  1  0
M  END
$$$$
