GLY.pdb
     RDKit          3D

 25 25  0  0  1  0  0  0  0  0999 V2000
   28.3572  -20.6033  -16.1871 N   0  0  0  0  0  0  0  0  0  0  0  0
   27.5484  -19.6845  -15.4317 C   0  0  0  0  0  0  0  0  0  0  0  0
   26.4013  -20.4564  -14.8246 C   0  0  0  0  0  0  0  0  0  0  0  0
   26.0771  -21.5570  -15.3225 O   0  0  0  0  0  0  0  0  0  0  0  0
   25.9765  -20.3456   -9.4551 C   0  0  0  0  0  0  0  0  0  0  0  0
   25.9548  -20.7713  -10.8867 C   0  0  1  0  0  0  0  0  0  0  0  0
   25.9503  -22.3227  -10.9249 C   0  0  0  0  0  0  0  0  0  0  0  0
   24.6929  -20.3751  -11.5891 C   0  0  0  0  0  0  0  0  0  0  0  0
   24.6154  -20.6902  -13.0646 C   0  0  2  0  0  0  0  0  0  0  0  0
   25.7011  -19.9580  -13.7183 N   0  0  0  0  0  0  0  0  0  0  0  0
   23.3283  -20.3282  -13.6229 C   0  0  0  0  0  0  0  0  0  0  0  0
   23.0078  -19.0890  -13.6230 O   0  0  0  0  0  0  0  0  0  0  0  0
   15.9107  -20.3087  -18.3918 O   0  0  0  0  0  0  0  0  0  0  0  0
   17.1168  -20.6258  -17.7758 C   0  0  0  0  0  0  0  0  0  0  0  0
   18.2114  -19.7914  -17.9578 C   0  0  0  0  0  0  0  0  0  0  0  0
   19.4154  -20.0848  -17.3580 C   0  0  0  0  0  0  0  0  0  0  0  0
   19.5833  -21.2067  -16.5604 C   0  0  0  0  0  0  0  0  0  0  0  0
   20.8799  -21.4876  -15.9407 C   0  0  0  0  0  0  0  0  0  0  0  0
   21.1322  -20.6941  -14.6632 C   0  0  2  0  0  0  0  0  0  0  0  0
   22.4127  -21.2235  -14.1668 N   0  0  0  0  0  0  0  0  0  0  0  0
   20.0888  -20.9465  -13.6600 C   0  0  0  0  0  0  0  0  0  0  0  0
   20.1947  -21.9270  -12.8923 O   0  0  0  0  0  0  0  0  0  0  0  0
   18.5032  -22.0424  -16.3728 C   0  0  0  0  0  0  0  0  0  0  0  0
   17.2908  -21.7388  -16.9821 C   0  0  0  0  0  0  0  0  0  0  0  0
   18.9989  -20.1204  -13.5532 O   0  0  0  0  0  0  0  0  0  0  0  0
  1  2  1  0
  3  4  2  0
  3  2  1  0
  6  5  1  1
  6  8  1  0
  7  6  1  0
  9  8  1  1
  9 10  1  0
 10  3  1  0
 11  9  1  0
 12 11  2  0
 13 14  1  0
 14 15  2  0
 15 16  1  0
 17 18  1  0
 17 16  2  0
 19 18  1  6
 19 21  1  0
 19 20  1  0
 20 11  1  0
 21 25  1  0
 22 21  2  0
 23 17  1  0
 24 23  2  0
 24 14  1  0
M  END
$$$$
