GLY.pdb
     RDKit          3D

 25 25  0  0  1  0  0  0  0  0999 V2000
   22.5250  -14.6659  -17.5988 N   0  0  0  0  0  0  0  0  0  0  0  0
   22.9237  -13.4397  -18.2362 C   0  0  0  0  0  0  0  0  0  0  0  0
   23.1079  -12.3908  -17.1656 C   0  0  0  0  0  0  0  0  0  0  0  0
   22.3302  -12.3777  -16.1862 O   0  0  0  0  0  0  0  0  0  0  0  0
   28.1117  -10.2179  -16.7109 C   0  0  0  0  0  0  0  0  0  0  0  0
   26.7706  -10.8045  -16.4135 C   0  0  1  0  0  0  0  0  0  0  0  0
   26.7797  -11.2985  -14.9423 C   0  0  0  0  0  0  0  0  0  0  0  0
   25.6712   -9.7889  -16.4614 C   0  0  0  0  0  0  0  0  0  0  0  0
   24.2613  -10.3150  -16.3276 C   0  0  2  0  0  0  0  0  0  0  0  0
   24.1320  -11.4391  -17.2559 N   0  0  0  0  0  0  0  0  0  0  0  0
   23.2776   -9.2885  -16.6069 C   0  0  0  0  0  0  0  0  0  0  0  0
   22.9117   -9.1312  -17.8233 O   0  0  0  0  0  0  0  0  0  0  0  0
   15.5949   -5.7431  -17.4210 O   0  0  0  0  0  0  0  0  0  0  0  0
   16.8023   -6.3999  -17.2075 C   0  0  0  0  0  0  0  0  0  0  0  0
   16.9791   -7.1325  -16.0416 C   0  0  0  0  0  0  0  0  0  0  0  0
   18.1654   -7.7910  -15.8084 C   0  0  0  0  0  0  0  0  0  0  0  0
   19.2162   -7.7512  -16.7126 C   0  0  0  0  0  0  0  0  0  0  0  0
   20.4644   -8.4624  -16.4293 C   0  0  0  0  0  0  0  0  0  0  0  0
   21.6301   -7.5404  -16.0883 C   0  0  2  0  0  0  0  0  0  0  0  0
   22.6923   -8.4617  -15.6532 N   0  0  0  0  0  0  0  0  0  0  0  0
   21.2940   -6.6389  -14.9779 C   0  0  0  0  0  0  0  0  0  0  0  0
   20.7202   -5.5542  -15.2150 O   0  0  0  0  0  0  0  0  0  0  0  0
   19.0518   -7.0267  -17.8738 C   0  0  0  0  0  0  0  0  0  0  0  0
   17.8505   -6.3647  -18.1014 C   0  0  0  0  0  0  0  0  0  0  0  0
   21.6006   -6.9710  -13.6826 O   0  0  0  0  0  0  0  0  0  0  0  0
  1  2  1  0
  3  4  2  0
  3  2  1  0
  6  5  1  1
  6  8  1  0
  7  6  1  0
  9  8  1  6
  9 10  1  0
 10  3  1  0
 11  9  1  0
 12 11  2  0
 13 14  1  0
 14 15  2  0
 15 16  1  0
 17 18  1  0
 17 16  2  0
 19 18  1  1
 19 21  1  0
 19 20  1  0
 20 11  1  0
 21 25  1  0
 22 21  2  0
 23 17  1  0
 24 23  2  0
 24 14  1  0
M  END
$$$$
