GLY.pdb
     RDKit          3D

 25 25  0  0  1  0  0  0  0  0999 V2000
   21.9086  -21.7468   -6.7610 N   0  0  0  0  0  0  0  0  0  0  0  0
   23.2802  -22.1728   -6.8394 C   0  0  0  0  0  0  0  0  0  0  0  0
   24.0745  -21.0805   -7.5149 C   0  0  0  0  0  0  0  0  0  0  0  0
   23.4669  -20.1206   -8.0379 O   0  0  0  0  0  0  0  0  0  0  0  0
   29.0333  -19.8536   -5.6608 C   0  0  0  0  0  0  0  0  0  0  0  0
   27.6785  -19.7049   -6.2721 C   0  0  1  0  0  0  0  0  0  0  0  0
   27.3309  -18.1928   -6.3040 C   0  0  0  0  0  0  0  0  0  0  0  0
   27.6419  -20.1286   -7.7080 C   0  0  0  0  0  0  0  0  0  0  0  0
   26.2787  -20.1992   -8.3553 C   0  0  2  0  0  0  0  0  0  0  0  0
   25.4738  -21.1295   -7.5624 N   0  0  0  0  0  0  0  0  0  0  0  0
   26.3633  -20.6254   -9.7375 C   0  0  0  0  0  0  0  0  0  0  0  0
   27.1154  -21.6257  -10.0060 O   0  0  0  0  0  0  0  0  0  0  0  0
   23.4590  -24.8547  -16.5042 O   0  0  0  0  0  0  0  0  0  0  0  0
   23.8519  -24.1701  -15.3589 C   0  0  0  0  0  0  0  0  0  0  0  0
   22.9059  -23.4524  -14.6396 C   0  0  0  0  0  0  0  0  0  0  0  0
   23.2711  -22.7670  -13.5029 C   0  0  0  0  0  0  0  0  0  0  0  0
   24.5770  -22.7644  -13.0359 C   0  0  0  0  0  0  0  0  0  0  0  0
   24.9286  -22.0216  -11.8240 C   0  0  0  0  0  0  0  0  0  0  0  0
   25.6873  -20.7276  -12.0980 C   0  0  2  0  0  0  0  0  0  0  0  0
   25.6842  -20.0356  -10.7989 N   0  0  0  0  0  0  0  0  0  0  0  0
   24.9879  -19.8945  -13.0857 C   0  0  0  0  0  0  0  0  0  0  0  0
   24.0250  -19.1848  -12.7238 O   0  0  0  0  0  0  0  0  0  0  0  0
   25.5247  -23.4737  -13.7422 C   0  0  0  0  0  0  0  0  0  0  0  0
   25.1474  -24.1631  -14.8891 C   0  0  0  0  0  0  0  0  0  0  0  0
   25.3772  -19.8839  -14.4011 O   0  0  0  0  0  0  0  0  0  0  0  0
  1  2  1  0
  3  4  2  0
  3  2  1  0
  6  5  1  6
  6  8  1  0
  7  6  1  0
  9  8  1  1
  9 10  1  0
 10  3  1  0
 11  9  1  0
 12 11  2  0
 13 14  1  0
 14 15  2  0
 15 16  1  0
 17 18  1  0
 17 16  2  0
 19 18  1  1
 19 21  1  0
 19 20  1  0
 20 11  1  0
 21 25  1  0
 22 21  2  0
 23 17  1  0
 24 23  2  0
 24 14  1  0
M  END
$$$$
