HNF.pdb
     RDKit          3D

 30 31  0  0  1  0  0  0  0  0999 V2000
    8.8004  -17.6031   19.9705 N   0  0  0  0  0  0  0  0  0  0  0  0
    9.3235  -16.4617   20.7011 C   0  0  1  0  0  0  0  0  0  0  0  0
    8.1351  -15.5753   21.0281 C   0  0  0  0  0  0  0  0  0  0  0  0
    7.7928  -14.6384   19.9557 C   0  0  0  0  0  0  0  0  0  0  0  0
    8.4538  -14.4977   18.7461 C   0  0  0  0  0  0  0  0  0  0  0  0
    7.8733  -13.5328   18.0121 N   0  0  0  0  0  0  0  0  0  0  0  0
    6.8598  -13.0750   18.7547 C   0  0  0  0  0  0  0  0  0  0  0  0
    6.7968  -13.7298   19.9285 N   0  0  0  0  0  0  0  0  0  0  0  0
    9.9607  -16.9801   21.9385 C   0  0  0  0  0  0  0  0  0  0  0  0
    9.9820  -18.2077   22.2528 O   0  0  0  0  0  0  0  0  0  0  0  0
   14.2449  -16.8225   23.3821 N   0  0  0  0  0  0  0  0  0  0  0  0
   13.3898  -15.7089   23.5384 C   0  0  0  0  0  0  0  0  0  0  0  0
   13.5323  -14.7218   22.7990 O   0  0  0  0  0  0  0  0  0  0  0  0
   12.3421  -15.7401   24.5776 C   0  0  0  0  0  0  0  0  0  0  0  0
   11.1862  -16.5758   24.0952 C   0  0  2  0  0  0  0  0  0  0  0  0
   10.6050  -16.1238   22.8791 N   0  0  0  0  0  0  0  0  0  0  0  0
   10.1911  -16.7705   25.1833 C   0  0  0  0  0  0  0  0  0  0  0  0
   10.6496  -17.0640   26.3403 O   0  0  0  0  0  0  0  0  0  0  0  0
    8.8090  -16.6524   25.0140 N   0  0  0  0  0  0  0  0  0  0  0  0
    7.9145  -16.8814   26.1290 C   0  0  1  0  0  0  0  0  0  0  0  0
    6.6618  -16.0322   25.9980 C   0  0  0  0  0  0  0  0  0  0  0  0
    6.9153  -14.5853   26.0275 C   0  0  0  0  0  0  0  0  0  0  0  0
    7.1144  -13.8867   27.2220 C   0  0  0  0  0  0  0  0  0  0  0  0
    7.3641  -12.5348   27.2411 C   0  0  0  0  0  0  0  0  0  0  0  0
    7.4283  -11.8118   26.0740 C   0  0  0  0  0  0  0  0  0  0  0  0
    7.2356  -12.4752   24.8841 C   0  0  0  0  0  0  0  0  0  0  0  0
    6.9863  -13.8292   24.8744 C   0  0  0  0  0  0  0  0  0  0  0  0
    7.6517  -18.3022   26.3633 C   0  0  0  0  0  0  0  0  0  0  0  0
    7.0070  -18.6511   27.3751 O   0  0  0  0  0  0  0  0  0  0  0  0
    8.0851  -19.3085   25.5097 O   0  0  0  0  0  0  0  0  0  0  0  0
  2  1  1  6
  2  3  1  0
  4  3  1  0
  4  8  1  0
  5  6  1  0
  5  4  2  0
  6  7  1  0
  7  8  2  0
  9 10  2  0
  9  2  1  0
 11 12  1  0
 12 14  1  0
 13 12  2  0
 15 14  1  1
 15 16  1  0
 16  9  1  0
 17 19  1  0
 17 15  1  0
 18 17  2  0
 20 19  1  0
 20 28  1  0
 20 21  1  6
 22 23  2  0
 22 21  1  0
 24 23  1  0
 25 24  2  0
 26 25  1  0
 26 27  2  0
 27 22  1  0
 28 30  1  0
 29 28  2  0
M  END
$$$$
