HNF.pdb
     RDKit          3D

 30 31  0  0  1  0  0  0  0  0999 V2000
    8.9423  -17.1942   17.9483 N   0  0  0  0  0  0  0  0  0  0  0  0
    9.3799  -16.2350   18.9477 C   0  0  1  0  0  0  0  0  0  0  0  0
    8.3395  -15.1296   18.9718 C   0  0  0  0  0  0  0  0  0  0  0  0
    8.2150  -14.4172   17.6982 C   0  0  0  0  0  0  0  0  0  0  0  0
    8.7657  -13.1838   17.3899 C   0  0  0  0  0  0  0  0  0  0  0  0
    8.4351  -12.8308   16.1357 N   0  0  0  0  0  0  0  0  0  0  0  0
    7.6858  -13.8332   15.6645 C   0  0  0  0  0  0  0  0  0  0  0  0
    7.5431  -14.7970   16.5924 N   0  0  0  0  0  0  0  0  0  0  0  0
    9.4358  -16.9454   20.2510 C   0  0  0  0  0  0  0  0  0  0  0  0
    8.5006  -17.6812   20.6872 O   0  0  0  0  0  0  0  0  0  0  0  0
   11.2229  -20.1295   24.2666 N   0  0  0  0  0  0  0  0  0  0  0  0
   11.8264  -18.8864   23.9728 C   0  0  0  0  0  0  0  0  0  0  0  0
   12.3614  -18.2370   24.8857 O   0  0  0  0  0  0  0  0  0  0  0  0
   11.8103  -18.3831   22.5854 C   0  0  0  0  0  0  0  0  0  0  0  0
   10.6286  -17.4683   22.4005 C   0  0  2  0  0  0  0  0  0  0  0  0
   10.5611  -16.8514   21.1215 N   0  0  0  0  0  0  0  0  0  0  0  0
   10.5365  -16.4986   23.5243 C   0  0  0  0  0  0  0  0  0  0  0  0
   11.0144  -15.3302   23.3204 O   0  0  0  0  0  0  0  0  0  0  0  0
    9.9671  -16.7885   24.7671 N   0  0  0  0  0  0  0  0  0  0  0  0
    9.4151  -15.7275   25.5828 C   0  0  1  0  0  0  0  0  0  0  0  0
    8.3945  -14.9206   24.7988 C   0  0  0  0  0  0  0  0  0  0  0  0
    7.7110  -13.8900   25.5921 C   0  0  0  0  0  0  0  0  0  0  0  0
    6.3304  -13.9110   25.8121 C   0  0  0  0  0  0  0  0  0  0  0  0
    5.6994  -12.9503   26.5665 C   0  0  0  0  0  0  0  0  0  0  0  0
    6.4097  -11.9224   27.1389 C   0  0  0  0  0  0  0  0  0  0  0  0
    7.7701  -11.8780   26.9377 C   0  0  0  0  0  0  0  0  0  0  0  0
    8.3937  -12.8444   26.1810 C   0  0  0  0  0  0  0  0  0  0  0  0
    8.9325  -16.2019   26.8808 C   0  0  0  0  0  0  0  0  0  0  0  0
    8.1068  -17.1384   26.9265 O   0  0  0  0  0  0  0  0  0  0  0  0
    9.3463  -15.6619   28.0917 O   0  0  0  0  0  0  0  0  0  0  0  0
  2  1  1  6
  2  3  1  0
  4  3  1  0
  4  8  1  0
  5  6  1  0
  5  4  2  0
  6  7  1  0
  7  8  2  0
  9 10  2  0
  9  2  1  0
 11 12  1  0
 12 14  1  0
 13 12  2  0
 15 14  1  6
 15 16  1  0
 16  9  1  0
 17 19  1  0
 17 15  1  0
 18 17  2  0
 20 19  1  0
 20 28  1  0
 20 21  1  6
 22 23  2  0
 22 21  1  0
 24 23  1  0
 25 24  2  0
 26 25  1  0
 26 27  2  0
 27 22  1  0
 28 30  1  0
 29 28  2  0
M  END
$$$$
