HNF.pdb
     RDKit          3D

 30 31  0  0  1  0  0  0  0  0999 V2000
    9.2018  -15.3759   20.6667 N   0  0  0  0  0  0  0  0  0  0  0  0
    8.1231  -14.6976   21.3641 C   0  0  1  0  0  0  0  0  0  0  0  0
    6.9477  -14.6525   20.4042 C   0  0  0  0  0  0  0  0  0  0  0  0
    7.2875  -14.1011   19.0905 C   0  0  0  0  0  0  0  0  0  0  0  0
    7.6706  -12.7971   18.8213 C   0  0  0  0  0  0  0  0  0  0  0  0
    7.8915  -12.6432   17.5045 N   0  0  0  0  0  0  0  0  0  0  0  0
    7.6493  -13.8385   16.9558 C   0  0  0  0  0  0  0  0  0  0  0  0
    7.2844  -14.7283   17.8968 N   0  0  0  0  0  0  0  0  0  0  0  0
    7.7984  -15.5019   22.5699 C   0  0  0  0  0  0  0  0  0  0  0  0
    6.7442  -15.3413   23.2548 O   0  0  0  0  0  0  0  0  0  0  0  0
    6.8520  -18.9052   22.9046 N   0  0  0  0  0  0  0  0  0  0  0  0
    8.0238  -19.4879   23.4368 C   0  0  0  0  0  0  0  0  0  0  0  0
    8.2651  -20.6852   23.2141 O   0  0  0  0  0  0  0  0  0  0  0  0
    8.9399  -18.6618   24.2472 C   0  0  0  0  0  0  0  0  0  0  0  0
    8.4444  -17.2401   24.2663 C   0  0  2  0  0  0  0  0  0  0  0  0
    8.6605  -16.5290   23.0545 N   0  0  0  0  0  0  0  0  0  0  0  0
    8.9557  -16.5237   25.4651 C   0  0  0  0  0  0  0  0  0  0  0  0
    8.8141  -15.2529   25.4834 O   0  0  0  0  0  0  0  0  0  0  0  0
    9.5706  -17.1509   26.5521 N   0  0  0  0  0  0  0  0  0  0  0  0
    9.8820  -16.3983   27.7489 C   0  0  1  0  0  0  0  0  0  0  0  0
    8.6547  -15.6609   28.2564 C   0  0  0  0  0  0  0  0  0  0  0  0
    8.3731  -14.4080   27.5425 C   0  0  0  0  0  0  0  0  0  0  0  0
    9.2083  -13.2909   27.6377 C   0  0  0  0  0  0  0  0  0  0  0  0
    8.9455  -12.1260   26.9564 C   0  0  0  0  0  0  0  0  0  0  0  0
    7.8400  -12.0149   26.1474 C   0  0  0  0  0  0  0  0  0  0  0  0
    7.0011  -13.0999   26.0362 C   0  0  0  0  0  0  0  0  0  0  0  0
    7.2723  -14.2625   26.7219 C   0  0  0  0  0  0  0  0  0  0  0  0
   10.5581  -17.2046   28.7666 C   0  0  0  0  0  0  0  0  0  0  0  0
   10.3818  -18.4413   28.7904 O   0  0  0  0  0  0  0  0  0  0  0  0
   11.4026  -16.6660   29.7288 O   0  0  0  0  0  0  0  0  0  0  0  0
  2  1  1  6
  2  3  1  0
  4  3  1  0
  4  8  1  0
  5  6  1  0
  5  4  2  0
  6  7  1  0
  7  8  2  0
  9 10  2  0
  9  2  1  0
 11 12  1  0
 12 14  1  0
 13 12  2  0
 15 14  1  6
 15 16  1  0
 16  9  1  0
 17 19  1  0
 17 15  1  0
 18 17  2  0
 20 19  1  0
 20 28  1  0
 20 21  1  1
 22 23  2  0
 22 21  1  0
 24 23  1  0
 25 24  2  0
 26 25  1  0
 26 27  2  0
 27 22  1  0
 28 30  1  0
 29 28  2  0
M  END
$$$$
