HNF.pdb
     RDKit          3D

 30 31  0  0  1  0  0  0  0  0999 V2000
    8.2778  -14.1881   21.1731 N   0  0  0  0  0  0  0  0  0  0  0  0
    6.9964  -14.8720   21.1499 C   0  0  1  0  0  0  0  0  0  0  0  0
    6.8786  -15.5247   19.7842 C   0  0  0  0  0  0  0  0  0  0  0  0
    7.8134  -14.9827   18.7955 C   0  0  0  0  0  0  0  0  0  0  0  0
    8.0020  -13.6443   18.4909 C   0  0  0  0  0  0  0  0  0  0  0  0
    8.9286  -13.5163   17.5258 N   0  0  0  0  0  0  0  0  0  0  0  0
    9.3158  -14.7617   17.2299 C   0  0  0  0  0  0  0  0  0  0  0  0
    8.6542  -15.6573   17.9853 N   0  0  0  0  0  0  0  0  0  0  0  0
    7.0172  -15.8915   22.2299 C   0  0  0  0  0  0  0  0  0  0  0  0
    6.2902  -16.9296   22.2259 O   0  0  0  0  0  0  0  0  0  0  0  0
    7.1940  -19.3086   25.7860 N   0  0  0  0  0  0  0  0  0  0  0  0
    8.3450  -19.0945   24.9954 C   0  0  0  0  0  0  0  0  0  0  0  0
    9.3926  -19.7036   25.2654 O   0  0  0  0  0  0  0  0  0  0  0  0
    8.2804  -18.1510   23.8622 C   0  0  0  0  0  0  0  0  0  0  0  0
    7.9776  -16.7699   24.3800 C   0  0  2  0  0  0  0  0  0  0  0  0
    7.8680  -15.7771   23.3684 N   0  0  0  0  0  0  0  0  0  0  0  0
    8.9242  -16.3985   25.4652 C   0  0  0  0  0  0  0  0  0  0  0  0
   10.1513  -16.2518   25.1369 O   0  0  0  0  0  0  0  0  0  0  0  0
    8.5535  -16.2047   26.7986 N   0  0  0  0  0  0  0  0  0  0  0  0
    9.4765  -15.5939   27.7318 C   0  0  1  0  0  0  0  0  0  0  0  0
    8.8624  -14.3579   28.3661 C   0  0  0  0  0  0  0  0  0  0  0  0
    8.1365  -13.4991   27.4204 C   0  0  0  0  0  0  0  0  0  0  0  0
    8.7864  -12.5563   26.6183 C   0  0  0  0  0  0  0  0  0  0  0  0
    8.1022  -11.7652   25.7259 C   0  0  0  0  0  0  0  0  0  0  0  0
    6.7391  -11.8729   25.5874 C   0  0  0  0  0  0  0  0  0  0  0  0
    6.0749  -12.7931   26.3653 C   0  0  0  0  0  0  0  0  0  0  0  0
    6.7682  -13.5813   27.2561 C   0  0  0  0  0  0  0  0  0  0  0  0
   10.0256  -16.5499   28.6949 C   0  0  0  0  0  0  0  0  0  0  0  0
   10.8531  -16.1607   29.5462 O   0  0  0  0  0  0  0  0  0  0  0  0
    9.6743  -17.8934   28.7202 O   0  0  0  0  0  0  0  0  0  0  0  0
  2  1  1  6
  2  3  1  0
  4  3  1  0
  4  8  1  0
  5  6  1  0
  5  4  2  0
  6  7  1  0
  7  8  2  0
  9 10  2  0
  9  2  1  0
 11 12  1  0
 12 14  1  0
 13 12  2  0
 15 14  1  6
 15 16  1  0
 16  9  1  0
 17 19  1  0
 17 15  1  0
 18 17  2  0
 20 19  1  0
 20 28  1  0
 20 21  1  1
 22 23  2  0
 22 21  1  0
 24 23  1  0
 25 24  2  0
 26 25  1  0
 26 27  2  0
 27 22  1  0
 28 30  1  0
 29 28  2  0
M  END
$$$$
