HNF.pdb
     RDKit          3D

 30 31  0  0  1  0  0  0  0  0999 V2000
    7.2894  -16.6229   19.5609 N   0  0  0  0  0  0  0  0  0  0  0  0
    8.1131  -15.8935   20.5094 C   0  0  1  0  0  0  0  0  0  0  0  0
    7.7417  -14.4282   20.3683 C   0  0  0  0  0  0  0  0  0  0  0  0
    7.9960  -13.8876   19.0310 C   0  0  0  0  0  0  0  0  0  0  0  0
    7.0829  -13.2273   18.2248 C   0  0  0  0  0  0  0  0  0  0  0  0
    7.6589  -12.8838   17.0600 N   0  0  0  0  0  0  0  0  0  0  0  0
    8.9192  -13.3245   17.1369 C   0  0  0  0  0  0  0  0  0  0  0  0
    9.1393  -13.9315   18.3174 N   0  0  0  0  0  0  0  0  0  0  0  0
    7.7835  -16.4006   21.8661 C   0  0  0  0  0  0  0  0  0  0  0  0
    6.6881  -16.9697   22.1530 O   0  0  0  0  0  0  0  0  0  0  0  0
   11.2487  -20.2400   23.7669 N   0  0  0  0  0  0  0  0  0  0  0  0
    9.9447  -19.6975   23.7364 C   0  0  0  0  0  0  0  0  0  0  0  0
    9.0570  -20.2029   24.4422 O   0  0  0  0  0  0  0  0  0  0  0  0
    9.6620  -18.5391   22.8666 C   0  0  0  0  0  0  0  0  0  0  0  0
    9.1769  -17.3894   23.7092 C   0  0  2  0  0  0  0  0  0  0  0  0
    8.6870  -16.2831   22.9628 N   0  0  0  0  0  0  0  0  0  0  0  0
   10.2034  -17.0086   24.7158 C   0  0  0  0  0  0  0  0  0  0  0  0
   10.6617  -17.9445   25.4567 O   0  0  0  0  0  0  0  0  0  0  0  0
   10.6856  -15.7089   24.8929 N   0  0  0  0  0  0  0  0  0  0  0  0
    9.9388  -14.7547   25.6850 C   0  0  1  0  0  0  0  0  0  0  0  0
    8.7673  -14.1979   24.8945 C   0  0  0  0  0  0  0  0  0  0  0  0
    7.9181  -13.2725   25.6570 C   0  0  0  0  0  0  0  0  0  0  0  0
    6.5764  -13.5489   25.9362 C   0  0  0  0  0  0  0  0  0  0  0  0
    5.7913  -12.6842   26.6617 C   0  0  0  0  0  0  0  0  0  0  0  0
    6.3016  -11.5031   27.1449 C   0  0  0  0  0  0  0  0  0  0  0  0
    7.6196  -11.2066   26.8839 C   0  0  0  0  0  0  0  0  0  0  0  0
    8.3985  -12.0785   26.1569 C   0  0  0  0  0  0  0  0  0  0  0  0
    9.5765  -15.2730   27.0053 C   0  0  0  0  0  0  0  0  0  0  0  0
    9.8681  -14.6154   28.0268 O   0  0  0  0  0  0  0  0  0  0  0  0
    8.9133  -16.4785   27.1952 O   0  0  0  0  0  0  0  0  0  0  0  0
  2  1  1  6
  2  3  1  0
  4  3  1  0
  4  8  1  0
  5  6  1  0
  5  4  2  0
  6  7  1  0
  7  8  2  0
  9 10  2  0
  9  2  1  0
 11 12  1  0
 12 14  1  0
 13 12  2  0
 15 14  1  6
 15 16  1  0
 16  9  1  0
 17 19  1  0
 17 15  1  0
 18 17  2  0
 20 19  1  0
 20 28  1  0
 20 21  1  6
 22 23  2  0
 22 21  1  0
 24 23  1  0
 25 24  2  0
 26 25  1  0
 26 27  2  0
 27 22  1  0
 28 30  1  0
 29 28  2  0
M  END
$$$$
