HNF.pdb
     RDKit          3D

 30 31  0  0  1  0  0  0  0  0999 V2000
    7.1840  -17.0961   19.9066 N   0  0  0  0  0  0  0  0  0  0  0  0
    8.2941  -16.2993   20.3996 C   0  0  1  0  0  0  0  0  0  0  0  0
    7.7468  -14.9068   20.6574 C   0  0  0  0  0  0  0  0  0  0  0  0
    7.7386  -14.0531   19.4673 C   0  0  0  0  0  0  0  0  0  0  0  0
    8.2083  -14.3937   18.2091 C   0  0  0  0  0  0  0  0  0  0  0  0
    8.0540  -13.3605   17.3633 N   0  0  0  0  0  0  0  0  0  0  0  0
    7.4935  -12.3841   18.0849 C   0  0  0  0  0  0  0  0  0  0  0  0
    7.2966  -12.7841   19.3543 N   0  0  0  0  0  0  0  0  0  0  0  0
    8.7686  -16.9290   21.6584 C   0  0  0  0  0  0  0  0  0  0  0  0
    8.0018  -17.5164   22.4789 O   0  0  0  0  0  0  0  0  0  0  0  0
   13.2474  -18.3472   20.9961 N   0  0  0  0  0  0  0  0  0  0  0  0
   12.3845  -18.7727   22.0306 C   0  0  0  0  0  0  0  0  0  0  0  0
   11.8683  -19.9002   21.9694 O   0  0  0  0  0  0  0  0  0  0  0  0
   12.1135  -17.8690   23.1657 C   0  0  0  0  0  0  0  0  0  0  0  0
   10.6416  -17.5553   23.2128 C   0  0  2  0  0  0  0  0  0  0  0  0
   10.1413  -16.9195   22.0438 N   0  0  0  0  0  0  0  0  0  0  0  0
   10.3009  -16.8299   24.4656 C   0  0  0  0  0  0  0  0  0  0  0  0
   10.8371  -15.6811   24.6326 O   0  0  0  0  0  0  0  0  0  0  0  0
    9.4431  -17.3251   25.4515 N   0  0  0  0  0  0  0  0  0  0  0  0
    9.2408  -16.5878   26.6808 C   0  0  1  0  0  0  0  0  0  0  0  0
    7.8289  -16.0319   26.7495 C   0  0  0  0  0  0  0  0  0  0  0  0
    7.7618  -14.5648   26.7059 C   0  0  0  0  0  0  0  0  0  0  0  0
    6.7859  -13.8838   25.9721 C   0  0  0  0  0  0  0  0  0  0  0  0
    6.7212  -12.5107   25.9464 C   0  0  0  0  0  0  0  0  0  0  0  0
    7.6232  -11.7479   26.6489 C   0  0  0  0  0  0  0  0  0  0  0  0
    8.5944  -12.3932   27.3793 C   0  0  0  0  0  0  0  0  0  0  0  0
    8.6514  -13.7687   27.3995 C   0  0  0  0  0  0  0  0  0  0  0  0
    9.6444  -17.3426   27.8684 C   0  0  0  0  0  0  0  0  0  0  0  0
    9.7002  -18.5896   27.8165 O   0  0  0  0  0  0  0  0  0  0  0  0
    9.9767  -16.7428   29.0763 O   0  0  0  0  0  0  0  0  0  0  0  0
  2  1  1  1
  2  3  1  0
  4  3  1  0
  4  8  1  0
  5  6  1  0
  5  4  2  0
  6  7  1  0
  7  8  2  0
  9 10  2  0
  9  2  1  0
 11 12  1  0
 12 14  1  0
 13 12  2  0
 15 14  1  6
 15 16  1  0
 16  9  1  0
 17 19  1  0
 17 15  1  0
 18 17  2  0
 20 19  1  0
 20 28  1  0
 20 21  1  1
 22 23  2  0
 22 21  1  0
 24 23  1  0
 25 24  2  0
 26 25  1  0
 26 27  2  0
 27 22  1  0
 28 30  1  0
 29 28  2  0
M  END
$$$$
