HNF.pdb
     RDKit          3D

 30 31  0  0  1  0  0  0  0  0999 V2000
    6.5473  -16.1701   20.9982 N   0  0  0  0  0  0  0  0  0  0  0  0
    7.9258  -15.8702   21.3446 C   0  0  1  0  0  0  0  0  0  0  0  0
    8.0473  -14.3570   21.3673 C   0  0  0  0  0  0  0  0  0  0  0  0
    8.1256  -13.7575   20.0333 C   0  0  0  0  0  0  0  0  0  0  0  0
    8.1440  -14.4384   18.8268 C   0  0  0  0  0  0  0  0  0  0  0  0
    8.2357  -13.5680   17.8066 N   0  0  0  0  0  0  0  0  0  0  0  0
    8.2740  -12.3554   18.3693 C   0  0  0  0  0  0  0  0  0  0  0  0
    8.2087  -12.4511   19.7098 N   0  0  0  0  0  0  0  0  0  0  0  0
    8.1818  -16.4476   22.6890 C   0  0  0  0  0  0  0  0  0  0  0  0
    7.2614  -16.7782   23.4950 O   0  0  0  0  0  0  0  0  0  0  0  0
    9.3306  -20.4669   23.9638 N   0  0  0  0  0  0  0  0  0  0  0  0
   10.2114  -19.5023   23.4256 C   0  0  0  0  0  0  0  0  0  0  0  0
   10.5027  -19.5478   22.2195 O   0  0  0  0  0  0  0  0  0  0  0  0
   10.7681  -18.4577   24.3071 C   0  0  0  0  0  0  0  0  0  0  0  0
    9.7865  -17.3210   24.4150 C   0  0  2  0  0  0  0  0  0  0  0  0
    9.5006  -16.6760   23.1808 N   0  0  0  0  0  0  0  0  0  0  0  0
   10.1951  -16.3765   25.4886 C   0  0  0  0  0  0  0  0  0  0  0  0
   11.3509  -15.8407   25.3782 O   0  0  0  0  0  0  0  0  0  0  0  0
    9.4006  -16.0486   26.5905 N   0  0  0  0  0  0  0  0  0  0  0  0
    9.9465  -15.2615   27.6760 C   0  0  1  0  0  0  0  0  0  0  0  0
    8.9021  -14.3059   28.2268 C   0  0  0  0  0  0  0  0  0  0  0  0
    8.1753  -13.5554   27.1938 C   0  0  0  0  0  0  0  0  0  0  0  0
    8.6754  -12.3735   26.6392 C   0  0  0  0  0  0  0  0  0  0  0  0
    7.9958  -11.6834   25.6633 C   0  0  0  0  0  0  0  0  0  0  0  0
    6.7864  -12.1345   25.1914 C   0  0  0  0  0  0  0  0  0  0  0  0
    6.2714  -13.2955   25.7207 C   0  0  0  0  0  0  0  0  0  0  0  0
    6.9590  -13.9802   26.6974 C   0  0  0  0  0  0  0  0  0  0  0  0
   10.6047  -16.0800   28.6956 C   0  0  0  0  0  0  0  0  0  0  0  0
   11.2094  -15.5237   29.6368 O   0  0  0  0  0  0  0  0  0  0  0  0
   10.5972  -17.4689   28.6798 O   0  0  0  0  0  0  0  0  0  0  0  0
  2  1  1  1
  2  3  1  0
  4  3  1  0
  4  8  1  0
  5  6  1  0
  5  4  2  0
  6  7  1  0
  7  8  2  0
  9 10  2  0
  9  2  1  0
 11 12  1  0
 12 14  1  0
 13 12  2  0
 15 14  1  6
 15 16  1  0
 16  9  1  0
 17 19  1  0
 17 15  1  0
 18 17  2  0
 20 19  1  0
 20 28  1  0
 20 21  1  1
 22 23  2  0
 22 21  1  0
 24 23  1  0
 25 24  2  0
 26 25  1  0
 26 27  2  0
 27 22  1  0
 28 30  1  0
 29 28  2  0
M  END
$$$$
