FEK.pdb
     RDKit          3D

 30 30  0  0  1  0  0  0  0  0999 V2000
   24.9053  -20.7569   -9.9882 N   0  0  0  0  0  0  0  0  0  0  0  0
   25.5219  -20.5225  -11.2631 C   0  0  1  0  0  0  0  0  0  0  0  0
   26.3610  -21.7025  -11.7166 C   0  0  0  0  0  0  0  0  0  0  0  0
   27.7866  -21.2755  -11.6002 C   0  0  0  0  0  0  0  0  0  0  0  0
   28.3383  -20.3973  -12.4941 C   0  0  0  0  0  0  0  0  0  0  0  0
   29.6605  -20.0141  -12.3677 C   0  0  0  0  0  0  0  0  0  0  0  0
   30.4037  -20.5234  -11.3418 C   0  0  0  0  0  0  0  0  0  0  0  0
   29.8762  -21.3999  -10.4388 C   0  0  0  0  0  0  0  0  0  0  0  0
   28.5525  -21.7809  -10.5687 C   0  0  0  0  0  0  0  0  0  0  0  0
   24.4820  -20.1816  -12.2531 C   0  0  0  0  0  0  0  0  0  0  0  0
   23.2623  -20.1740  -11.8921 O   0  0  0  0  0  0  0  0  0  0  0  0
   24.8618  -19.8709  -13.5799 N   0  0  0  0  0  0  0  0  0  0  0  0
   23.8777  -19.1069  -14.3989 C   0  0  1  0  0  0  0  0  0  0  0  0
   24.6915  -18.2305  -15.3226 C   0  0  0  0  0  0  0  0  0  0  0  0
   23.9424  -17.3725  -16.2600 C   0  0  0  0  0  0  0  0  0  0  0  0
   24.8080  -16.5543  -17.1007 C   0  0  0  0  0  0  0  0  0  0  0  0
   25.9252  -16.9582  -17.4816 O   0  0  0  0  0  0  0  0  0  0  0  0
   23.0877  -20.0856  -15.1873 C   0  0  0  0  0  0  0  0  0  0  0  0
   23.6983  -21.1195  -15.6446 O   0  0  0  0  0  0  0  0  0  0  0  0
   24.3867  -15.2955  -17.4905 O   0  0  0  0  0  0  0  0  0  0  0  0
   21.7197  -20.0032  -15.4871 N   0  0  0  0  0  0  0  0  0  0  0  0
   21.0551  -21.0331  -16.3168 C   0  0  1  0  0  0  0  0  0  0  0  0
   19.6433  -21.2191  -15.8713 C   0  0  0  0  0  0  0  0  0  0  0  0
   19.2429  -22.6288  -15.5526 C   0  0  0  0  0  0  0  0  0  0  0  0
   19.7668  -22.9440  -14.1396 C   0  0  0  0  0  0  0  0  0  0  0  0
   19.4209  -24.3758  -13.7682 C   0  0  0  0  0  0  0  0  0  0  0  0
   20.0619  -24.6074  -12.4670 N   0  0  0  0  0  0  0  0  0  0  0  0
   21.1360  -20.6200  -17.7269 C   0  0  0  0  0  0  0  0  0  0  0  0
   21.0416  -19.3908  -18.0591 O   0  0  0  0  0  0  0  0  0  0  0  0
   21.3169  -21.4926  -18.7881 O   0  0  0  0  0  0  0  0  0  0  0  0
  2 10  1  0
  2  1  1  1
  3  2  1  0
  4  3  1  0
  4  9  2  0
  5  4  1  0
  6  5  2  0
  6  7  1  0
  7  8  2  0
  8  9  1  0
 10 11  2  0
 12 13  1  0
 12 10  1  0
 13 14  1  6
 14 15  1  0
 15 16  1  0
 16 20  1  0
 17 16  2  0
 18 13  1  0
 19 18  2  0
 21 18  1  0
 22 23  1  1
 22 21  1  0
 24 25  1  0
 24 23  1  0
 25 26  1  0
 26 27  1  0
 28 22  1  0
 28 30  1  0
 29 28  2  0
M  END
$$$$
