FEK.pdb
     RDKit          3D

 30 30  0  0  1  0  0  0  0  0999 V2000
   23.5472  -14.1919  -17.7501 N   0  0  0  0  0  0  0  0  0  0  0  0
   23.7134  -13.1346  -16.7937 C   0  0  1  0  0  0  0  0  0  0  0  0
   25.1388  -12.6155  -16.7589 C   0  0  0  0  0  0  0  0  0  0  0  0
   26.0040  -13.7821  -16.4148 C   0  0  0  0  0  0  0  0  0  0  0  0
   26.8379  -14.3441  -17.3440 C   0  0  0  0  0  0  0  0  0  0  0  0
   27.6317  -15.4237  -17.0043 C   0  0  0  0  0  0  0  0  0  0  0  0
   27.5707  -15.9182  -15.7331 C   0  0  0  0  0  0  0  0  0  0  0  0
   26.7475  -15.3751  -14.7899 C   0  0  0  0  0  0  0  0  0  0  0  0
   25.9547  -14.2947  -15.1339 C   0  0  0  0  0  0  0  0  0  0  0  0
   22.7484  -12.0567  -17.0848 C   0  0  0  0  0  0  0  0  0  0  0  0
   22.3703  -11.8718  -18.2851 O   0  0  0  0  0  0  0  0  0  0  0  0
   22.2648  -11.2531  -16.0257 N   0  0  0  0  0  0  0  0  0  0  0  0
   21.2187  -10.2478  -16.3690 C   0  0  1  0  0  0  0  0  0  0  0  0
   19.9272  -10.7701  -15.7837 C   0  0  0  0  0  0  0  0  0  0  0  0
   18.7235   -9.9390  -15.9754 C   0  0  0  0  0  0  0  0  0  0  0  0
   17.5438  -10.4819  -15.3130 C   0  0  0  0  0  0  0  0  0  0  0  0
   17.1684  -10.0677  -14.1976 O   0  0  0  0  0  0  0  0  0  0  0  0
   21.5922   -8.9658  -15.7204 C   0  0  0  0  0  0  0  0  0  0  0  0
   22.1289   -9.0180  -14.5542 O   0  0  0  0  0  0  0  0  0  0  0  0
   16.8159  -11.4832  -15.9308 O   0  0  0  0  0  0  0  0  0  0  0  0
   21.4235   -7.6807  -16.2571 N   0  0  0  0  0  0  0  0  0  0  0  0
   21.9351   -6.4841  -15.5520 C   0  0  1  0  0  0  0  0  0  0  0  0
   21.7805   -5.2754  -16.4129 C   0  0  0  0  0  0  0  0  0  0  0  0
   22.3050   -3.9947  -15.8351 C   0  0  0  0  0  0  0  0  0  0  0  0
   21.9435   -2.8676  -16.8197 C   0  0  0  0  0  0  0  0  0  0  0  0
   22.5216   -1.5504  -16.3314 C   0  0  0  0  0  0  0  0  0  0  0  0
   22.0359   -0.5365  -17.2768 N   0  0  0  0  0  0  0  0  0  0  0  0
   21.2105   -6.3475  -14.2785 C   0  0  0  0  0  0  0  0  0  0  0  0
   21.7499   -5.7758  -13.2723 O   0  0  0  0  0  0  0  0  0  0  0  0
   19.9219   -6.8076  -14.0588 O   0  0  0  0  0  0  0  0  0  0  0  0
  2 10  1  0
  2  1  1  6
  3  2  1  0
  4  3  1  0
  4  9  2  0
  5  4  1  0
  6  5  2  0
  6  7  1  0
  7  8  2  0
  8  9  1  0
 10 11  2  0
 12 13  1  0
 12 10  1  0
 13 14  1  1
 14 15  1  0
 15 16  1  0
 16 20  1  0
 17 16  2  0
 18 13  1  0
 19 18  2  0
 21 18  1  0
 22 23  1  6
 22 21  1  0
 24 25  1  0
 24 23  1  0
 25 26  1  0
 26 27  1  0
 28 22  1  0
 28 30  1  0
 29 28  2  0
M  END
$$$$
