FEK.pdb
     RDKit          3D

 30 30  0  0  1  0  0  0  0  0999 V2000
   19.5208  -12.1909  -15.8965 N   0  0  0  0  0  0  0  0  0  0  0  0
   19.6092  -11.1024  -16.8280 C   0  0  1  0  0  0  0  0  0  0  0  0
   18.7313  -11.3212  -18.0461 C   0  0  0  0  0  0  0  0  0  0  0  0
   19.3587  -12.4298  -18.8243 C   0  0  0  0  0  0  0  0  0  0  0  0
   20.5210  -12.2364  -19.5217 C   0  0  0  0  0  0  0  0  0  0  0  0
   21.0860  -13.2768  -20.2352 C   0  0  0  0  0  0  0  0  0  0  0  0
   20.4689  -14.4947  -20.2333 C   0  0  0  0  0  0  0  0  0  0  0  0
   19.3101  -14.7117  -19.5461 C   0  0  0  0  0  0  0  0  0  0  0  0
   18.7479  -13.6679  -18.8331 C   0  0  0  0  0  0  0  0  0  0  0  0
   19.2779   -9.8409  -16.1377 C   0  0  0  0  0  0  0  0  0  0  0  0
   18.3144   -9.8241  -15.3074 O   0  0  0  0  0  0  0  0  0  0  0  0
   20.0365   -8.6790  -16.4128 N   0  0  0  0  0  0  0  0  0  0  0  0
   19.6791   -7.4476  -15.6520 C   0  0  1  0  0  0  0  0  0  0  0  0
   20.9694   -6.9331  -15.0570 C   0  0  0  0  0  0  0  0  0  0  0  0
   20.8984   -5.6669  -14.3034 C   0  0  0  0  0  0  0  0  0  0  0  0
   22.1975   -5.2190  -13.8164 C   0  0  0  0  0  0  0  0  0  0  0  0
   23.1971   -5.9653  -13.8323 O   0  0  0  0  0  0  0  0  0  0  0  0
   19.1322   -6.4614  -16.6172 C   0  0  0  0  0  0  0  0  0  0  0  0
   19.6885   -6.3815  -17.7727 O   0  0  0  0  0  0  0  0  0  0  0  0
   22.3336   -3.9341  -13.3220 O   0  0  0  0  0  0  0  0  0  0  0  0
   18.0499   -5.5956  -16.4003 N   0  0  0  0  0  0  0  0  0  0  0  0
   17.6356   -4.6162  -17.4298 C   0  0  1  0  0  0  0  0  0  0  0  0
   16.1535   -4.4453  -17.4092 C   0  0  0  0  0  0  0  0  0  0  0  0
   15.6039   -3.4247  -18.3607 C   0  0  0  0  0  0  0  0  0  0  0  0
   14.0756   -3.4038  -18.1754 C   0  0  0  0  0  0  0  0  0  0  0  0
   13.4406   -2.5068  -19.2240 C   0  0  0  0  0  0  0  0  0  0  0  0
   11.9934   -2.7264  -19.1011 N   0  0  0  0  0  0  0  0  0  0  0  0
   18.3382   -3.3481  -17.1770 C   0  0  0  0  0  0  0  0  0  0  0  0
   18.3960   -2.4381  -18.0707 O   0  0  0  0  0  0  0  0  0  0  0  0
   18.9785   -3.0323  -15.9893 O   0  0  0  0  0  0  0  0  0  0  0  0
  2 10  1  0
  2  1  1  1
  3  2  1  0
  4  3  1  0
  4  9  2  0
  5  4  1  0
  6  5  2  0
  6  7  1  0
  7  8  2  0
  8  9  1  0
 10 11  2  0
 12 13  1  0
 12 10  1  0
 13 14  1  6
 14 15  1  0
 15 16  1  0
 16 20  1  0
 17 16  2  0
 18 13  1  0
 19 18  2  0
 21 18  1  0
 22 23  1  1
 22 21  1  0
 24 25  1  0
 24 23  1  0
 25 26  1  0
 26 27  1  0
 28 22  1  0
 28 30  1  0
 29 28  2  0
M  END
$$$$
