FEK.pdb
     RDKit          3D

 30 30  0  0  1  0  0  0  0  0999 V2000
   27.8812  -21.7449  -15.7676 N   0  0  0  0  0  0  0  0  0  0  0  0
   27.5524  -20.6361  -14.9175 C   0  0  1  0  0  0  0  0  0  0  0  0
   26.8828  -19.5096  -15.6823 C   0  0  0  0  0  0  0  0  0  0  0  0
   27.9412  -18.8908  -16.5337 C   0  0  0  0  0  0  0  0  0  0  0  0
   28.8726  -18.0408  -16.0002 C   0  0  0  0  0  0  0  0  0  0  0  0
   29.8450  -17.4790  -16.8063 C   0  0  0  0  0  0  0  0  0  0  0  0
   29.8614  -17.7842  -18.1369 C   0  0  0  0  0  0  0  0  0  0  0  0
   28.9439  -18.6285  -18.6916 C   0  0  0  0  0  0  0  0  0  0  0  0
   27.9723  -19.1886  -17.8815 C   0  0  0  0  0  0  0  0  0  0  0  0
   26.7128  -21.1098  -13.8001 C   0  0  0  0  0  0  0  0  0  0  0  0
   25.7971  -21.9618  -14.0317 O   0  0  0  0  0  0  0  0  0  0  0  0
   26.9428  -20.6079  -12.4976 N   0  0  0  0  0  0  0  0  0  0  0  0
   25.9941  -21.0429  -11.4329 C   0  0  1  0  0  0  0  0  0  0  0  0
   26.4786  -20.4030  -10.1526 C   0  0  0  0  0  0  0  0  0  0  0  0
   25.6625  -20.6268   -8.9443 C   0  0  0  0  0  0  0  0  0  0  0  0
   26.2025  -19.9685   -7.7609 C   0  0  0  0  0  0  0  0  0  0  0  0
   27.0636  -19.0698   -7.8454 O   0  0  0  0  0  0  0  0  0  0  0  0
   24.6485  -20.5250  -11.7859 C   0  0  0  0  0  0  0  0  0  0  0  0
   24.5470  -19.2825  -12.0969 O   0  0  0  0  0  0  0  0  0  0  0  0
   25.7533  -20.3447   -6.5076 O   0  0  0  0  0  0  0  0  0  0  0  0
   23.4554  -21.2621  -11.8219 N   0  0  0  0  0  0  0  0  0  0  0  0
   22.1688  -20.6182  -12.1695 C   0  0  1  0  0  0  0  0  0  0  0  0
   21.8851  -20.7899  -13.6242 C   0  0  0  0  0  0  0  0  0  0  0  0
   21.0577  -19.7107  -14.2566 C   0  0  0  0  0  0  0  0  0  0  0  0
   20.8778  -20.0830  -15.7397 C   0  0  0  0  0  0  0  0  0  0  0  0
   20.1249  -18.9787  -16.4616 C   0  0  0  0  0  0  0  0  0  0  0  0
   20.0664  -19.4005  -17.8674 N   0  0  0  0  0  0  0  0  0  0  0  0
   21.1116  -21.2053  -11.3309 C   0  0  0  0  0  0  0  0  0  0  0  0
   19.9069  -20.7884  -11.4026 O   0  0  0  0  0  0  0  0  0  0  0  0
   21.3150  -22.2287  -10.4189 O   0  0  0  0  0  0  0  0  0  0  0  0
  2 10  1  0
  2  1  1  6
  3  2  1  0
  4  3  1  0
  4  9  2  0
  5  4  1  0
  6  5  2  0
  6  7  1  0
  7  8  2  0
  8  9  1  0
 10 11  2  0
 12 13  1  0
 12 10  1  0
 13 14  1  1
 14 15  1  0
 15 16  1  0
 16 20  1  0
 17 16  2  0
 18 13  1  0
 19 18  2  0
 21 18  1  0
 22 23  1  6
 22 21  1  0
 24 25  1  0
 24 23  1  0
 25 26  1  0
 26 27  1  0
 28 22  1  0
 28 30  1  0
 29 28  2  0
M  END
$$$$
