FEK.pdb
     RDKit          3D

 30 30  0  0  1  0  0  0  0  0999 V2000
   27.8461  -20.7607  -16.8273 N   0  0  0  0  0  0  0  0  0  0  0  0
   27.5725  -19.8838  -15.7244 C   0  0  1  0  0  0  0  0  0  0  0  0
   27.0022  -18.5538  -16.1808 C   0  0  0  0  0  0  0  0  0  0  0  0
   28.0837  -17.8743  -16.9533 C   0  0  0  0  0  0  0  0  0  0  0  0
   29.2922  -17.5870  -16.3775 C   0  0  0  0  0  0  0  0  0  0  0  0
   30.2807  -16.9579  -17.1110 C   0  0  0  0  0  0  0  0  0  0  0  0
   30.0333  -16.6291  -18.4128 C   0  0  0  0  0  0  0  0  0  0  0  0
   28.8368  -16.9049  -19.0084 C   0  0  0  0  0  0  0  0  0  0  0  0
   27.8502  -17.5347  -18.2709 C   0  0  0  0  0  0  0  0  0  0  0  0
   26.6735  -20.5633  -14.7716 C   0  0  0  0  0  0  0  0  0  0  0  0
   25.8557  -21.4353  -15.2062 O   0  0  0  0  0  0  0  0  0  0  0  0
   26.7395  -20.2321  -13.3979 N   0  0  0  0  0  0  0  0  0  0  0  0
   25.7833  -20.9304  -12.4918 C   0  0  1  0  0  0  0  0  0  0  0  0
   26.1628  -20.5227  -11.0871 C   0  0  0  0  0  0  0  0  0  0  0  0
   25.3672  -21.0996   -9.9869 C   0  0  0  0  0  0  0  0  0  0  0  0
   25.7974  -20.6426   -8.6711 C   0  0  0  0  0  0  0  0  0  0  0  0
   26.6311  -19.7245   -8.5354 O   0  0  0  0  0  0  0  0  0  0  0  0
   24.4177  -20.4453  -12.8136 C   0  0  0  0  0  0  0  0  0  0  0  0
   24.2720  -19.1963  -13.0776 O   0  0  0  0  0  0  0  0  0  0  0  0
   25.2719  -21.2376   -7.5380 O   0  0  0  0  0  0  0  0  0  0  0  0
   23.2495  -21.2201  -12.8663 N   0  0  0  0  0  0  0  0  0  0  0  0
   21.9493  -20.6192  -13.2392 C   0  0  1  0  0  0  0  0  0  0  0  0
   21.5295  -21.0995  -14.5880 C   0  0  0  0  0  0  0  0  0  0  0  0
   20.2279  -20.5545  -15.0957 C   0  0  0  0  0  0  0  0  0  0  0  0
   19.9708  -21.1942  -16.4724 C   0  0  0  0  0  0  0  0  0  0  0  0
   18.6971  -20.6272  -17.0755 C   0  0  0  0  0  0  0  0  0  0  0  0
   18.6202  -21.1931  -18.4288 N   0  0  0  0  0  0  0  0  0  0  0  0
   20.9625  -20.9618  -12.2027 C   0  0  0  0  0  0  0  0  0  0  0  0
   21.0250  -22.0721  -11.5755 O   0  0  0  0  0  0  0  0  0  0  0  0
   19.9118  -20.1422  -11.8220 O   0  0  0  0  0  0  0  0  0  0  0  0
  2 10  1  0
  2  1  1  6
  3  2  1  0
  4  3  1  0
  4  9  2  0
  5  4  1  0
  6  5  2  0
  6  7  1  0
  7  8  2  0
  8  9  1  0
 10 11  2  0
 12 13  1  0
 12 10  1  0
 13 14  1  1
 14 15  1  0
 15 16  1  0
 16 20  1  0
 17 16  2  0
 18 13  1  0
 19 18  2  0
 21 18  1  0
 22 23  1  6
 22 21  1  0
 24 25  1  0
 24 23  1  0
 25 26  1  0
 26 27  1  0
 28 22  1  0
 28 30  1  0
 29 28  2  0
M  END
$$$$
