FEK.pdb
     RDKit          3D

 30 30  0  0  1  0  0  0  0  0999 V2000
   28.3399  -21.2207   -9.1051 N   0  0  0  0  0  0  0  0  0  0  0  0
   27.0253  -20.6463   -9.0597 C   0  0  1  0  0  0  0  0  0  0  0  0
   27.0127  -19.3054   -8.3496 C   0  0  0  0  0  0  0  0  0  0  0  0
   27.4198  -19.5719   -6.9384 C   0  0  0  0  0  0  0  0  0  0  0  0
   28.6870  -19.2923   -6.5017 C   0  0  0  0  0  0  0  0  0  0  0  0
   29.0432  -19.5461   -5.1904 C   0  0  0  0  0  0  0  0  0  0  0  0
   28.1151  -20.0776   -4.3418 C   0  0  0  0  0  0  0  0  0  0  0  0
   26.8462  -20.3647   -4.7537 C   0  0  0  0  0  0  0  0  0  0  0  0
   26.4936  -20.1092   -6.0669 C   0  0  0  0  0  0  0  0  0  0  0  0
   26.4908  -20.5409  -10.4312 C   0  0  0  0  0  0  0  0  0  0  0  0
   27.0832  -19.7908  -11.2705 O   0  0  0  0  0  0  0  0  0  0  0  0
   25.3337  -21.2744  -10.7836 N   0  0  0  0  0  0  0  0  0  0  0  0
   24.8156  -21.0870  -12.1690 C   0  0  1  0  0  0  0  0  0  0  0  0
   24.8209  -22.4566  -12.8075 C   0  0  0  0  0  0  0  0  0  0  0  0
   26.0840  -22.8984  -13.4284 C   0  0  0  0  0  0  0  0  0  0  0  0
   26.5514  -21.9971  -14.4747 C   0  0  0  0  0  0  0  0  0  0  0  0
   25.7605  -21.3012  -15.1429 O   0  0  0  0  0  0  0  0  0  0  0  0
   23.4257  -20.5756  -12.0677 C   0  0  0  0  0  0  0  0  0  0  0  0
   22.7700  -20.8307  -10.9926 O   0  0  0  0  0  0  0  0  0  0  0  0
   27.9062  -21.9053  -14.7395 O   0  0  0  0  0  0  0  0  0  0  0  0
   22.7416  -19.8255  -13.0357 N   0  0  0  0  0  0  0  0  0  0  0  0
   21.3850  -19.2946  -12.7740 C   0  0  1  0  0  0  0  0  0  0  0  0
   21.0151  -18.2936  -13.8168 C   0  0  0  0  0  0  0  0  0  0  0  0
   20.1810  -18.8134  -14.9496 C   0  0  0  0  0  0  0  0  0  0  0  0
   19.9767  -17.6504  -15.9375 C   0  0  0  0  0  0  0  0  0  0  0  0
   19.1706  -18.1251  -17.1344 C   0  0  0  0  0  0  0  0  0  0  0  0
   18.9597  -16.9300  -17.9619 N   0  0  0  0  0  0  0  0  0  0  0  0
   20.4413  -20.4232  -12.7370 C   0  0  0  0  0  0  0  0  0  0  0  0
   20.6666  -21.4915  -13.3989 O   0  0  0  0  0  0  0  0  0  0  0  0
   19.2636  -20.4341  -12.0067 O   0  0  0  0  0  0  0  0  0  0  0  0
  2 10  1  0
  2  1  1  6
  3  2  1  0
  4  3  1  0
  4  9  2  0
  5  4  1  0
  6  5  2  0
  6  7  1  0
  7  8  2  0
  8  9  1  0
 10 11  2  0
 12 13  1  0
 12 10  1  0
 13 14  1  1
 14 15  1  0
 15 16  1  0
 16 20  1  0
 17 16  2  0
 18 13  1  0
 19 18  2  0
 21 18  1  0
 22 23  1  6
 22 21  1  0
 24 25  1  0
 24 23  1  0
 25 26  1  0
 26 27  1  0
 28 22  1  0
 28 30  1  0
 29 28  2  0
M  END
$$$$
