HVS.pdb
     RDKit          3D

 24 24  0  0  1  0  0  0  0  0999 V2000
   17.1649  -18.4375    2.8852 N   0  0  0  0  0  0  0  0  0  0  0  0
   16.8319  -17.7679    4.1256 C   0  0  1  0  0  0  0  0  0  0  0  0
   16.2611  -18.7702    5.0731 C   0  0  0  0  0  0  0  0  0  0  0  0
   15.0155  -19.3316    4.4670 C   0  0  0  0  0  0  0  0  0  0  0  0
   14.8640  -20.1522    3.3690 C   0  0  0  0  0  0  0  0  0  0  0  0
   13.5737  -20.4337    3.1460 N   0  0  0  0  0  0  0  0  0  0  0  0
   12.8944  -19.7873    4.1095 C   0  0  0  0  0  0  0  0  0  0  0  0
   13.7406  -19.1206    4.9119 N   0  0  0  0  0  0  0  0  0  0  0  0
   17.9439  -16.9936    4.6675 C   0  0  0  0  0  0  0  0  0  0  0  0
   19.1145  -17.4047    4.5421 O   0  0  0  0  0  0  0  0  0  0  0  0
   19.4518  -12.5582    6.1969 C   0  0  0  0  0  0  0  0  0  0  0  0
   18.4783  -13.4957    5.5629 C   0  0  1  0  0  0  0  0  0  0  0  0
   18.4093  -13.2679    4.0709 C   0  0  0  0  0  0  0  0  0  0  0  0
   18.7808  -14.9498    5.8161 C   0  0  2  0  0  0  0  0  0  0  0  0
   17.7066  -15.7742    5.3374 N   0  0  0  0  0  0  0  0  0  0  0  0
   19.1038  -15.2154    7.2421 C   0  0  0  0  0  0  0  0  0  0  0  0
   18.1874  -15.1301    8.0993 O   0  0  0  0  0  0  0  0  0  0  0  0
   22.4266  -17.2811    8.3925 O   0  0  0  0  0  0  0  0  0  0  0  0
   21.3332  -17.2016    9.2544 C   0  0  0  0  0  0  0  0  0  0  0  0
   20.7159  -15.8080    9.0770 C   0  0  2  0  0  0  0  0  0  0  0  0
   20.4031  -15.5628    7.6884 N   0  0  0  0  0  0  0  0  0  0  0  0
   21.5960  -14.7718    9.6496 C   0  0  0  0  0  0  0  0  0  0  0  0
   22.0613  -13.8621    8.9233 O   0  0  0  0  0  0  0  0  0  0  0  0
   21.9363  -14.7647   10.9909 O   0  0  0  0  0  0  0  0  0  0  0  0
  2  9  1  0
  2  1  1  6
  3  2  1  0
  4  5  2  0
  4  3  1  0
  6  5  1  0
  7  8  2  0
  7  6  1  0
  8  4  1  0
  9 10  2  0
 12 11  1  6
 12 13  1  0
 14 15  1  1
 14 12  1  0
 15  9  1  0
 16 14  1  0
 17 16  2  0
 18 19  1  0
 20 19  1  6
 20 21  1  0
 21 16  1  0
 22 20  1  0
 22 24  1  0
 23 22  2  0
M  END
$$$$
