HVS.pdb
     RDKit          3D

 24 24  0  0  1  0  0  0  0  0999 V2000
   18.9441  -11.8105  -17.2358 N   0  0  0  0  0  0  0  0  0  0  0  0
   19.6526  -10.5773  -17.5103 C   0  0  1  0  0  0  0  0  0  0  0  0
   19.0202   -9.9132  -18.6881 C   0  0  0  0  0  0  0  0  0  0  0  0
   19.1588  -10.8204  -19.8679 C   0  0  0  0  0  0  0  0  0  0  0  0
   18.2002  -11.5652  -20.5223 C   0  0  0  0  0  0  0  0  0  0  0  0
   18.7310  -12.2550  -21.5404 N   0  0  0  0  0  0  0  0  0  0  0  0
   20.0401  -11.9486  -21.5367 C   0  0  0  0  0  0  0  0  0  0  0  0
   20.3169  -11.0899  -20.5416 N   0  0  0  0  0  0  0  0  0  0  0  0
   19.7787   -9.7226  -16.3341 C   0  0  0  0  0  0  0  0  0  0  0  0
   18.7862   -9.4966  -15.6137 O   0  0  0  0  0  0  0  0  0  0  0  0
   21.4207  -10.4019  -13.3722 C   0  0  0  0  0  0  0  0  0  0  0  0
   22.0251   -9.1066  -13.8026 C   0  0  1  0  0  0  0  0  0  0  0  0
   23.4072   -9.3237  -14.3726 C   0  0  0  0  0  0  0  0  0  0  0  0
   21.1981   -8.3554  -14.8135 C   0  0  2  0  0  0  0  0  0  0  0  0
   21.0221   -9.1444  -16.0005 N   0  0  0  0  0  0  0  0  0  0  0  0
   21.7575   -7.0104  -15.1075 C   0  0  0  0  0  0  0  0  0  0  0  0
   22.5101   -6.8696  -16.1054 O   0  0  0  0  0  0  0  0  0  0  0  0
   21.6056   -2.9650  -16.5012 O   0  0  0  0  0  0  0  0  0  0  0  0
   21.2396   -4.2635  -16.1483 C   0  0  0  0  0  0  0  0  0  0  0  0
   21.7922   -4.5241  -14.7407 C   0  0  2  0  0  0  0  0  0  0  0  0
   21.4835   -5.8689  -14.3137 N   0  0  0  0  0  0  0  0  0  0  0  0
   21.3050   -3.5043  -13.7928 C   0  0  0  0  0  0  0  0  0  0  0  0
   20.2694   -3.7093  -13.1168 O   0  0  0  0  0  0  0  0  0  0  0  0
   21.9633   -2.2999  -13.6162 O   0  0  0  0  0  0  0  0  0  0  0  0
  2  9  1  0
  2  1  1  1
  3  2  1  0
  4  5  2  0
  4  3  1  0
  6  5  1  0
  7  8  2  0
  7  6  1  0
  8  4  1  0
  9 10  2  0
 12 11  1  6
 12 13  1  0
 14 15  1  6
 14 12  1  0
 15  9  1  0
 16 14  1  0
 17 16  2  0
 18 19  1  0
 20 19  1  6
 20 21  1  0
 21 16  1  0
 22 20  1  0
 22 24  1  0
 23 22  2  0
M  END
$$$$
