HVS.pdb
     RDKit          3D

 24 24  0  0  1  0  0  0  0  0999 V2000
   19.4528  -11.7222  -15.8566 N   0  0  0  0  0  0  0  0  0  0  0  0
   19.0887  -10.3323  -16.0397 C   0  0  1  0  0  0  0  0  0  0  0  0
   17.6623  -10.1535  -15.6380 C   0  0  0  0  0  0  0  0  0  0  0  0
   16.8115  -10.9742  -16.5529 C   0  0  0  0  0  0  0  0  0  0  0  0
   15.8794  -11.9451  -16.2524 C   0  0  0  0  0  0  0  0  0  0  0  0
   15.3283  -12.4513  -17.3633 N   0  0  0  0  0  0  0  0  0  0  0  0
   15.9132  -11.7983  -18.3827 C   0  0  0  0  0  0  0  0  0  0  0  0
   16.8056  -10.9084  -17.9179 N   0  0  0  0  0  0  0  0  0  0  0  0
   20.0164   -9.4132  -15.3882 C   0  0  0  0  0  0  0  0  0  0  0  0
   20.2067   -9.4815  -14.1577 O   0  0  0  0  0  0  0  0  0  0  0  0
   24.1158   -6.9211  -15.6745 C   0  0  0  0  0  0  0  0  0  0  0  0
   23.0494   -7.8498  -16.1527 C   0  0  1  0  0  0  0  0  0  0  0  0
   23.4267   -9.2864  -15.8761 C   0  0  0  0  0  0  0  0  0  0  0  0
   21.6944   -7.5817  -15.5508 C   0  0  2  0  0  0  0  0  0  0  0  0
   20.7064   -8.4400  -16.1423 N   0  0  0  0  0  0  0  0  0  0  0  0
   21.3179   -6.1465  -15.6339 C   0  0  0  0  0  0  0  0  0  0  0  0
   21.2123   -5.6101  -16.7666 O   0  0  0  0  0  0  0  0  0  0  0  0
   19.7703   -2.1171  -13.4314 O   0  0  0  0  0  0  0  0  0  0  0  0
   20.0760   -3.4681  -13.2705 C   0  0  0  0  0  0  0  0  0  0  0  0
   20.7272   -3.9446  -14.5756 C   0  0  2  0  0  0  0  0  0  0  0  0
   21.0698   -5.3453  -14.4917 N   0  0  0  0  0  0  0  0  0  0  0  0
   21.8861   -3.0989  -14.9186 C   0  0  0  0  0  0  0  0  0  0  0  0
   21.7749   -2.1842  -15.7686 O   0  0  0  0  0  0  0  0  0  0  0  0
   23.1222   -3.2804  -14.3235 O   0  0  0  0  0  0  0  0  0  0  0  0
  2  9  1  0
  2  1  1  1
  3  2  1  0
  4  5  2  0
  4  3  1  0
  6  5  1  0
  7  8  2  0
  7  6  1  0
  8  4  1  0
  9 10  2  0
 12 11  1  1
 12 13  1  0
 14 15  1  6
 14 12  1  0
 15  9  1  0
 16 14  1  0
 17 16  2  0
 18 19  1  0
 20 19  1  1
 20 21  1  0
 21 16  1  0
 22 20  1  0
 22 24  1  0
 23 22  2  0
M  END
$$$$
