HVS.pdb
     RDKit          3D

 24 24  0  0  1  0  0  0  0  0999 V2000
   18.3338  -11.8734  -16.3340 N   0  0  0  0  0  0  0  0  0  0  0  0
   18.5222  -10.4679  -16.6290 C   0  0  1  0  0  0  0  0  0  0  0  0
   17.1950   -9.8623  -16.9447 C   0  0  0  0  0  0  0  0  0  0  0  0
   16.6722  -10.5025  -18.1901 C   0  0  0  0  0  0  0  0  0  0  0  0
   17.2299  -10.5609  -19.4500 C   0  0  0  0  0  0  0  0  0  0  0  0
   16.4411  -11.2299  -20.3010 N   0  0  0  0  0  0  0  0  0  0  0  0
   15.3698  -11.6023  -19.5789 C   0  0  0  0  0  0  0  0  0  0  0  0
   15.4891  -11.1759  -18.3107 N   0  0  0  0  0  0  0  0  0  0  0  0
   19.2714   -9.7668  -15.5912 C   0  0  0  0  0  0  0  0  0  0  0  0
   18.6937   -9.3712  -14.5592 O   0  0  0  0  0  0  0  0  0  0  0  0
   22.4637  -10.8906  -13.8773 C   0  0  0  0  0  0  0  0  0  0  0  0
   22.6833   -9.5223  -14.4324 C   0  0  1  0  0  0  0  0  0  0  0  0
   23.5529   -9.5781  -15.6665 C   0  0  0  0  0  0  0  0  0  0  0  0
   21.4100   -8.7917  -14.7713 C   0  0  2  0  0  0  0  0  0  0  0  0
   20.6542   -9.5297  -15.7443 N   0  0  0  0  0  0  0  0  0  0  0  0
   21.6637   -7.3909  -15.1977 C   0  0  0  0  0  0  0  0  0  0  0  0
   22.1615   -7.1817  -16.3337 O   0  0  0  0  0  0  0  0  0  0  0  0
   19.5120   -4.6634  -15.7975 O   0  0  0  0  0  0  0  0  0  0  0  0
   20.3334   -4.0944  -14.8249 C   0  0  0  0  0  0  0  0  0  0  0  0
   21.6327   -4.9103  -14.7942 C   0  0  2  0  0  0  0  0  0  0  0  0
   21.3705   -6.2696  -14.3823 N   0  0  0  0  0  0  0  0  0  0  0  0
   22.6435   -4.2483  -13.9481 C   0  0  0  0  0  0  0  0  0  0  0  0
   23.0391   -4.7910  -12.8895 O   0  0  0  0  0  0  0  0  0  0  0  0
   23.1858   -3.0207  -14.2859 O   0  0  0  0  0  0  0  0  0  0  0  0
  2  9  1  0
  2  1  1  1
  3  2  1  0
  4  5  2  0
  4  3  1  0
  6  5  1  0
  7  8  2  0
  7  6  1  0
  8  4  1  0
  9 10  2  0
 12 11  1  6
 12 13  1  0
 14 15  1  6
 14 12  1  0
 15  9  1  0
 16 14  1  0
 17 16  2  0
 18 19  1  0
 20 19  1  1
 20 21  1  0
 21 16  1  0
 22 20  1  0
 22 24  1  0
 23 22  2  0
M  END
$$$$
