HVS.pdb
     RDKit          3D

 24 24  0  0  1  0  0  0  0  0999 V2000
   23.2223  -36.2785   -7.8884 N   0  0  0  0  0  0  0  0  0  0  0  0
   23.0330  -36.2071   -6.4541 C   0  0  1  0  0  0  0  0  0  0  0  0
   22.3278  -37.4423   -6.0016 C   0  0  0  0  0  0  0  0  0  0  0  0
   20.9353  -37.4121   -6.5442 C   0  0  0  0  0  0  0  0  0  0  0  0
   19.8858  -36.5753   -6.2276 C   0  0  0  0  0  0  0  0  0  0  0  0
   18.7919  -36.8757   -6.9396 N   0  0  0  0  0  0  0  0  0  0  0  0
   19.1450  -37.9135   -7.7180 C   0  0  0  0  0  0  0  0  0  0  0  0
   20.4262  -38.2504   -7.4960 N   0  0  0  0  0  0  0  0  0  0  0  0
   24.2696  -35.9225   -5.7331 C   0  0  0  0  0  0  0  0  0  0  0  0
   25.3288  -36.4975   -6.0531 O   0  0  0  0  0  0  0  0  0  0  0  0
   26.6719  -32.6048   -3.0221 C   0  0  0  0  0  0  0  0  0  0  0  0
   25.4843  -33.0996   -3.7792 C   0  0  1  0  0  0  0  0  0  0  0  0
   25.3578  -32.3844   -5.1040 C   0  0  0  0  0  0  0  0  0  0  0  0
   25.4992  -34.5849   -4.0315 C   0  0  2  0  0  0  0  0  0  0  0  0
   24.2795  -34.9957   -4.6688 N   0  0  0  0  0  0  0  0  0  0  0  0
   25.7794  -35.3609   -2.7955 C   0  0  0  0  0  0  0  0  0  0  0  0
   24.8650  -35.4975   -1.9428 O   0  0  0  0  0  0  0  0  0  0  0  0
   28.8414  -38.1288   -0.2455 O   0  0  0  0  0  0  0  0  0  0  0  0
   28.7300  -37.2722   -1.3402 C   0  0  0  0  0  0  0  0  0  0  0  0
   27.3221  -36.6633   -1.2986 C   0  0  2  0  0  0  0  0  0  0  0  0
   27.0353  -35.9599   -2.5270 N   0  0  0  0  0  0  0  0  0  0  0  0
   27.1591  -35.8092   -0.1069 C   0  0  0  0  0  0  0  0  0  0  0  0
   27.5582  -34.6209   -0.1183 O   0  0  0  0  0  0  0  0  0  0  0  0
   26.5677  -36.2806    1.0521 O   0  0  0  0  0  0  0  0  0  0  0  0
  2  9  1  0
  2  1  1  6
  3  2  1  0
  4  5  2  0
  4  3  1  0
  6  5  1  0
  7  8  2  0
  7  6  1  0
  8  4  1  0
  9 10  2  0
 12 11  1  6
 12 13  1  0
 14 15  1  1
 14 12  1  0
 15  9  1  0
 16 14  1  0
 17 16  2  0
 18 19  1  0
 20 19  1  6
 20 21  1  0
 21 16  1  0
 22 20  1  0
 22 24  1  0
 23 22  2  0
M  END
$$$$
