HVS.pdb
     RDKit          3D

 24 24  0  0  1  0  0  0  0  0999 V2000
   18.3741  -12.3364  -18.2579 N   0  0  0  0  0  0  0  0  0  0  0  0
   18.8169  -11.7082  -17.0302 C   0  0  1  0  0  0  0  0  0  0  0  0
   19.6258  -12.6927  -16.2527 C   0  0  0  0  0  0  0  0  0  0  0  0
   18.7332  -13.8251  -15.8586 C   0  0  0  0  0  0  0  0  0  0  0  0
   17.5732  -13.8123  -15.1129 C   0  0  0  0  0  0  0  0  0  0  0  0
   17.0667  -15.0451  -14.9795 N   0  0  0  0  0  0  0  0  0  0  0  0
   17.9102  -15.8529  -15.6456 C   0  0  0  0  0  0  0  0  0  0  0  0
   18.9161  -15.1408  -16.1800 N   0  0  0  0  0  0  0  0  0  0  0  0
   19.4820  -10.4290  -17.2564 C   0  0  0  0  0  0  0  0  0  0  0  0
   20.5356  -10.3787  -17.9217 O   0  0  0  0  0  0  0  0  0  0  0  0
   18.0729   -7.6415  -19.0829 C   0  0  0  0  0  0  0  0  0  0  0  0
   18.4788   -7.1002  -17.7522 C   0  0  1  0  0  0  0  0  0  0  0  0
   17.2753   -6.9235  -16.8562 C   0  0  0  0  0  0  0  0  0  0  0  0
   19.4951   -7.9497  -17.0341 C   0  0  2  0  0  0  0  0  0  0  0  0
   18.9410   -9.2383  -16.7259 N   0  0  0  0  0  0  0  0  0  0  0  0
   20.0458   -7.2700  -15.8328 C   0  0  0  0  0  0  0  0  0  0  0  0
   19.5235   -7.4987  -14.7117 O   0  0  0  0  0  0  0  0  0  0  0  0
   23.2999   -4.2197  -13.9040 O   0  0  0  0  0  0  0  0  0  0  0  0
   22.8708   -4.8371  -15.0785 C   0  0  0  0  0  0  0  0  0  0  0  0
   21.5964   -5.6215  -14.7394 C   0  0  2  0  0  0  0  0  0  0  0  0
   21.1387   -6.3696  -15.8871 N   0  0  0  0  0  0  0  0  0  0  0  0
   20.5588   -4.7219  -14.2008 C   0  0  0  0  0  0  0  0  0  0  0  0
   19.8602   -4.0243  -14.9734 O   0  0  0  0  0  0  0  0  0  0  0  0
   20.3207   -4.6154  -12.8417 O   0  0  0  0  0  0  0  0  0  0  0  0
  2  9  1  0
  2  1  1  6
  3  2  1  0
  4  5  2  0
  4  3  1  0
  6  5  1  0
  7  8  2  0
  7  6  1  0
  8  4  1  0
  9 10  2  0
 12 11  1  6
 12 13  1  0
 14 15  1  1
 14 12  1  0
 15  9  1  0
 16 14  1  0
 17 16  2  0
 18 19  1  0
 20 19  1  6
 20 21  1  0
 21 16  1  0
 22 20  1  0
 22 24  1  0
 23 22  2  0
M  END
$$$$
