HVS.pdb
     RDKit          3D

 24 24  0  0  1  0  0  0  0  0999 V2000
   17.6401  -12.2141  -17.0371 N   0  0  0  0  0  0  0  0  0  0  0  0
   18.3434  -10.9916  -17.3675 C   0  0  1  0  0  0  0  0  0  0  0  0
   17.3599  -10.0003  -17.8947 C   0  0  0  0  0  0  0  0  0  0  0  0
   16.8172  -10.5205  -19.1867 C   0  0  0  0  0  0  0  0  0  0  0  0
   17.3638  -10.4757  -20.4521 C   0  0  0  0  0  0  0  0  0  0  0  0
   16.5579  -11.0555  -21.3512 N   0  0  0  0  0  0  0  0  0  0  0  0
   15.4869  -11.4744  -20.6547 C   0  0  0  0  0  0  0  0  0  0  0  0
   15.6230  -11.1633  -19.3550 N   0  0  0  0  0  0  0  0  0  0  0  0
   19.1655  -10.4964  -16.2680 C   0  0  0  0  0  0  0  0  0  0  0  0
   18.6611  -10.3076  -15.1432 O   0  0  0  0  0  0  0  0  0  0  0  0
   23.5745   -9.9739  -14.2593 C   0  0  0  0  0  0  0  0  0  0  0  0
   22.6343  -10.4925  -15.2963 C   0  0  1  0  0  0  0  0  0  0  0  0
   22.2746  -11.9336  -15.0205 C   0  0  0  0  0  0  0  0  0  0  0  0
   21.3635   -9.6925  -15.4201 C   0  0  2  0  0  0  0  0  0  0  0  0
   20.5366  -10.2267  -16.4658 N   0  0  0  0  0  0  0  0  0  0  0  0
   21.6294   -8.2411  -15.5966 C   0  0  0  0  0  0  0  0  0  0  0  0
   22.3166   -7.8640  -16.5803 O   0  0  0  0  0  0  0  0  0  0  0  0
   19.1593   -5.3527  -14.5671 O   0  0  0  0  0  0  0  0  0  0  0  0
   20.2386   -5.0873  -15.4093 C   0  0  0  0  0  0  0  0  0  0  0  0
   21.4483   -5.8479  -14.8503 C   0  0  2  0  0  0  0  0  0  0  0  0
   21.1438   -7.2524  -14.7052 N   0  0  0  0  0  0  0  0  0  0  0  0
   21.9109   -5.2368  -13.5899 C   0  0  0  0  0  0  0  0  0  0  0  0
   21.8465   -5.8761  -12.5135 O   0  0  0  0  0  0  0  0  0  0  0  0
   22.4261   -3.9531  -13.5486 O   0  0  0  0  0  0  0  0  0  0  0  0
  2  9  1  0
  2  1  1  1
  3  2  1  0
  4  5  2  0
  4  3  1  0
  6  5  1  0
  7  8  2  0
  7  6  1  0
  8  4  1  0
  9 10  2  0
 12 11  1  1
 12 13  1  0
 14 15  1  6
 14 12  1  0
 15  9  1  0
 16 14  1  0
 17 16  2  0
 18 19  1  0
 20 19  1  1
 20 21  1  0
 21 16  1  0
 22 20  1  0
 22 24  1  0
 23 22  2  0
M  END
$$$$
