HVS.pdb
     RDKit          3D

 24 24  0  0  1  0  0  0  0  0999 V2000
   26.1861  -11.7525  -18.6119 N   0  0  0  0  0  0  0  0  0  0  0  0
   25.8653  -10.4966  -17.9656 C   0  0  1  0  0  0  0  0  0  0  0  0
   26.5089   -9.3868  -18.7286 C   0  0  0  0  0  0  0  0  0  0  0  0
   27.9914   -9.5265  -18.5979 C   0  0  0  0  0  0  0  0  0  0  0  0
   28.9377   -9.7996  -19.5632 C   0  0  0  0  0  0  0  0  0  0  0  0
   30.1692   -9.8449  -19.0384 N   0  0  0  0  0  0  0  0  0  0  0  0
   30.0088   -9.5989  -17.7264 C   0  0  0  0  0  0  0  0  0  0  0  0
   28.7103   -9.4053  -17.4420 N   0  0  0  0  0  0  0  0  0  0  0  0
   24.4332  -10.3228  -17.7447 C   0  0  0  0  0  0  0  0  0  0  0  0
   23.6163  -10.6787  -18.6171 O   0  0  0  0  0  0  0  0  0  0  0  0
   23.0393  -10.2325  -13.8588 C   0  0  0  0  0  0  0  0  0  0  0  0
   22.2027  -10.5036  -15.0651 C   0  0  1  0  0  0  0  0  0  0  0  0
   20.7364  -10.3167  -14.7530 C   0  0  0  0  0  0  0  0  0  0  0  0
   22.5561   -9.6495  -16.2550 C   0  0  2  0  0  0  0  0  0  0  0  0
   23.9591   -9.7517  -16.5444 N   0  0  0  0  0  0  0  0  0  0  0  0
   22.1162   -8.2403  -16.0842 C   0  0  0  0  0  0  0  0  0  0  0  0
   22.7940   -7.4764  -15.3500 O   0  0  0  0  0  0  0  0  0  0  0  0
   19.4770   -4.5153  -17.6176 O   0  0  0  0  0  0  0  0  0  0  0  0
   19.7673   -5.8671  -17.7989 C   0  0  0  0  0  0  0  0  0  0  0  0
   20.5530   -6.3320  -16.5656 C   0  0  2  0  0  0  0  0  0  0  0  0
   20.9621   -7.7094  -16.7121 N   0  0  0  0  0  0  0  0  0  0  0  0
   19.7738   -6.1017  -15.3344 C   0  0  0  0  0  0  0  0  0  0  0  0
   18.9815   -6.9765  -14.9118 O   0  0  0  0  0  0  0  0  0  0  0  0
   19.8862   -4.9283  -14.6096 O   0  0  0  0  0  0  0  0  0  0  0  0
  2  9  1  0
  2  1  1  6
  3  2  1  0
  4  5  2  0
  4  3  1  0
  6  5  1  0
  7  8  2  0
  7  6  1  0
  8  4  1  0
  9 10  2  0
 12 11  1  1
 12 13  1  0
 14 15  1  1
 14 12  1  0
 15  9  1  0
 16 14  1  0
 17 16  2  0
 18 19  1  0
 20 19  1  6
 20 21  1  0
 21 16  1  0
 22 20  1  0
 22 24  1  0
 23 22  2  0
M  END
$$$$
