HVS.pdb
     RDKit          3D

 24 24  0  0  1  0  0  0  0  0999 V2000
   24.8402  -16.5900  -17.9194 N   0  0  0  0  0  0  0  0  0  0  0  0
   24.6818  -17.7126  -17.0179 C   0  0  1  0  0  0  0  0  0  0  0  0
   25.8011  -17.6959  -16.0305 C   0  0  0  0  0  0  0  0  0  0  0  0
   27.0773  -17.9543  -16.7645 C   0  0  0  0  0  0  0  0  0  0  0  0
   27.2914  -18.1591  -18.1114 C   0  0  0  0  0  0  0  0  0  0  0  0
   28.5896  -18.3602  -18.3727 N   0  0  0  0  0  0  0  0  0  0  0  0
   29.2107  -18.2832  -17.1828 C   0  0  0  0  0  0  0  0  0  0  0  0
   28.3215  -18.0405  -16.2057 N   0  0  0  0  0  0  0  0  0  0  0  0
   23.3525  -17.7748  -16.4189 C   0  0  0  0  0  0  0  0  0  0  0  0
   22.8236  -16.7441  -15.9572 O   0  0  0  0  0  0  0  0  0  0  0  0
   18.9397  -19.6010  -16.3360 C   0  0  0  0  0  0  0  0  0  0  0  0
   20.3215  -19.3857  -16.8582 C   0  0  1  0  0  0  0  0  0  0  0  0
   20.3440  -18.2605  -17.8661 C   0  0  0  0  0  0  0  0  0  0  0  0
   21.3386  -19.0938  -15.7856 C   0  0  2  0  0  0  0  0  0  0  0  0
   22.6532  -18.9991  -16.3560 N   0  0  0  0  0  0  0  0  0  0  0  0
   21.2762  -20.0753  -14.6715 C   0  0  0  0  0  0  0  0  0  0  0  0
   21.4611  -21.2937  -14.9233 O   0  0  0  0  0  0  0  0  0  0  0  0
   20.2036  -19.1149  -10.6568 O   0  0  0  0  0  0  0  0  0  0  0  0
   21.3198  -19.9127  -10.9063 C   0  0  0  0  0  0  0  0  0  0  0  0
   21.0682  -20.6433  -12.2319 C   0  0  2  0  0  0  0  0  0  0  0  0
   21.0166  -19.7048  -13.3286 N   0  0  0  0  0  0  0  0  0  0  0  0
   19.8550  -21.4778  -12.1447 C   0  0  0  0  0  0  0  0  0  0  0  0
   18.7911  -21.1107  -12.6967 O   0  0  0  0  0  0  0  0  0  0  0  0
   19.8455  -22.6804  -11.4600 O   0  0  0  0  0  0  0  0  0  0  0  0
  2  9  1  0
  2  1  1  1
  3  2  1  0
  4  5  2  0
  4  3  1  0
  6  5  1  0
  7  8  2  0
  7  6  1  0
  8  4  1  0
  9 10  2  0
 12 11  1  1
 12 13  1  0
 14 15  1  6
 14 12  1  0
 15  9  1  0
 16 14  1  0
 17 16  2  0
 18 19  1  0
 20 19  1  1
 20 21  1  0
 21 16  1  0
 22 20  1  0
 22 24  1  0
 23 22  2  0
M  END
$$$$
