HVS.pdb
     RDKit          3D

 24 24  0  0  1  0  0  0  0  0999 V2000
   19.0694  -12.0211  -18.6153 N   0  0  0  0  0  0  0  0  0  0  0  0
   19.7735  -10.7559  -18.6527 C   0  0  1  0  0  0  0  0  0  0  0  0
   19.1491   -9.8905  -19.6964 C   0  0  0  0  0  0  0  0  0  0  0  0
   19.4182  -10.5014  -21.0339 C   0  0  0  0  0  0  0  0  0  0  0  0
   20.6002  -10.9765  -21.5622 C   0  0  0  0  0  0  0  0  0  0  0  0
   20.4237  -11.4483  -22.8033 N   0  0  0  0  0  0  0  0  0  0  0  0
   19.1177  -11.2734  -23.0706 C   0  0  0  0  0  0  0  0  0  0  0  0
   18.4973  -10.7070  -22.0225 N   0  0  0  0  0  0  0  0  0  0  0  0
   19.8829  -10.1295  -17.3391 C   0  0  0  0  0  0  0  0  0  0  0  0
   18.8692   -9.9824  -16.6279 O   0  0  0  0  0  0  0  0  0  0  0  0
   23.7140   -9.8880  -15.4850 C   0  0  0  0  0  0  0  0  0  0  0  0
   22.3838   -9.9510  -14.8103 C   0  0  1  0  0  0  0  0  0  0  0  0
   22.4790   -9.4440  -13.3903 C   0  0  0  0  0  0  0  0  0  0  0  0
   21.3020   -9.1841  -15.5256 C   0  0  2  0  0  0  0  0  0  0  0  0
   21.1342   -9.6848  -16.8611 N   0  0  0  0  0  0  0  0  0  0  0  0
   21.5424   -7.7178  -15.4986 C   0  0  0  0  0  0  0  0  0  0  0  0
   22.4306   -7.2334  -16.2457 O   0  0  0  0  0  0  0  0  0  0  0  0
   20.1433   -3.2731  -14.3147 O   0  0  0  0  0  0  0  0  0  0  0  0
   19.8066   -4.6263  -14.3112 C   0  0  0  0  0  0  0  0  0  0  0  0
   21.0912   -5.4144  -14.5998 C   0  0  2  0  0  0  0  0  0  0  0  0
   20.8153   -6.8306  -14.6665 N   0  0  0  0  0  0  0  0  0  0  0  0
   22.1357   -5.0881  -13.6106 C   0  0  0  0  0  0  0  0  0  0  0  0
   22.1848   -5.6959  -12.5154 O   0  0  0  0  0  0  0  0  0  0  0  0
   23.0875   -4.1126  -13.8508 O   0  0  0  0  0  0  0  0  0  0  0  0
  2  9  1  0
  2  1  1  1
  3  2  1  0
  4  5  2  0
  4  3  1  0
  6  5  1  0
  7  8  2  0
  7  6  1  0
  8  4  1  0
  9 10  2  0
 12 11  1  6
 12 13  1  0
 14 15  1  6
 14 12  1  0
 15  9  1  0
 16 14  1  0
 17 16  2  0
 18 19  1  0
 20 19  1  1
 20 21  1  0
 21 16  1  0
 22 20  1  0
 22 24  1  0
 23 22  2  0
M  END
$$$$
