HVS.pdb
     RDKit          3D

 24 24  0  0  1  0  0  0  0  0999 V2000
   19.9659  -13.2154  -17.6207 N   0  0  0  0  0  0  0  0  0  0  0  0
   19.4892  -12.1441  -16.7702 C   0  0  1  0  0  0  0  0  0  0  0  0
   19.4314  -12.6389  -15.3632 C   0  0  0  0  0  0  0  0  0  0  0  0
   18.3688  -13.6866  -15.2782 C   0  0  0  0  0  0  0  0  0  0  0  0
   17.0092  -13.5477  -15.0938 C   0  0  0  0  0  0  0  0  0  0  0  0
   16.3966  -14.7386  -15.0727 N   0  0  0  0  0  0  0  0  0  0  0  0
   17.3730  -15.6467  -15.2450 C   0  0  0  0  0  0  0  0  0  0  0  0
   18.5630  -15.0363  -15.3702 N   0  0  0  0  0  0  0  0  0  0  0  0
   20.2432  -10.9065  -16.9419 C   0  0  0  0  0  0  0  0  0  0  0  0
   21.4901  -10.9260  -16.9386 O   0  0  0  0  0  0  0  0  0  0  0  0
   20.2701   -6.4567  -18.9149 C   0  0  0  0  0  0  0  0  0  0  0  0
   19.7576   -7.8367  -18.6669 C   0  0  1  0  0  0  0  0  0  0  0  0
   20.0912   -8.7481  -19.8247 C   0  0  0  0  0  0  0  0  0  0  0  0
   20.2765   -8.4594  -17.3968 C   0  0  2  0  0  0  0  0  0  0  0  0
   19.5708   -9.6775  -17.1130 N   0  0  0  0  0  0  0  0  0  0  0  0
   20.2464   -7.5101  -16.2538 C   0  0  0  0  0  0  0  0  0  0  0  0
   19.1370   -7.2053  -15.7456 O   0  0  0  0  0  0  0  0  0  0  0  0
   22.6941   -4.9491  -12.9309 O   0  0  0  0  0  0  0  0  0  0  0  0
   22.8075   -5.7691  -14.0531 C   0  0  0  0  0  0  0  0  0  0  0  0
   21.3855   -6.0429  -14.5606 C   0  0  2  0  0  0  0  0  0  0  0  0
   21.4142   -6.9261  -15.7031 N   0  0  0  0  0  0  0  0  0  0  0  0
   20.6801   -4.7782  -14.8415 C   0  0  0  0  0  0  0  0  0  0  0  0
   20.9555   -4.1121  -15.8671 O   0  0  0  0  0  0  0  0  0  0  0  0
   19.7016   -4.2862  -13.9956 O   0  0  0  0  0  0  0  0  0  0  0  0
  2  9  1  0
  2  1  1  6
  3  2  1  0
  4  5  2  0
  4  3  1  0
  6  5  1  0
  7  8  2  0
  7  6  1  0
  8  4  1  0
  9 10  2  0
 12 11  1  6
 12 13  1  0
 14 15  1  1
 14 12  1  0
 15  9  1  0
 16 14  1  0
 17 16  2  0
 18 19  1  0
 20 19  1  6
 20 21  1  0
 21 16  1  0
 22 20  1  0
 22 24  1  0
 23 22  2  0
M  END
$$$$
