TPC.pdb
     RDKit          3D

 21 21  0  0  1  0  0  0  0  0999 V2000
   16.4324  -11.1477  -14.4283 C   0  0  0  0  0  0  0  0  0  0  0  0
   17.5492  -12.1073  -14.7506 C   0  0  1  0  0  0  0  0  0  0  0  0
   16.9732  -13.3988  -14.6853 O   0  0  0  0  0  0  0  0  0  0  0  0
   18.1017  -11.8855  -16.1726 C   0  0  2  0  0  0  0  0  0  0  0  0
   18.7632  -13.0822  -16.5275 N   0  0  0  0  0  0  0  0  0  0  0  0
   18.8548  -10.6328  -16.2153 C   0  0  0  0  0  0  0  0  0  0  0  0
   19.8674  -10.6264  -15.4287 O   0  0  0  0  0  0  0  0  0  0  0  0
   18.6302   -9.4820  -16.9703 N   0  0  0  0  0  0  0  0  0  0  0  0
   18.1635   -9.4315  -18.3923 C   0  0  0  0  0  0  0  0  0  0  0  0
   17.0707   -8.3521  -18.2928 C   0  0  0  0  0  0  0  0  0  0  0  0
   17.2736   -7.6853  -16.9321 C   0  0  0  0  0  0  0  0  0  0  0  0
   18.7482   -8.0763  -16.7180 C   0  0  1  0  0  0  0  0  0  0  0  0
   19.3082   -7.5557  -15.5238 C   0  0  0  0  0  0  0  0  0  0  0  0
   19.0153   -7.8576  -14.3721 O   0  0  0  0  0  0  0  0  0  0  0  0
   20.3462   -6.5511  -15.6540 N   0  0  0  0  0  0  0  0  0  0  0  0
   20.8954   -5.9148  -14.5009 C   0  0  1  0  0  0  0  0  0  0  0  0
   22.3090   -6.4027  -14.1927 C   0  0  0  0  0  0  0  0  0  0  0  0
   22.8876   -5.4276  -12.7541 S   0  0  0  0  0  0  0  0  0  0  0  0
   20.9839   -4.4625  -14.7290 C   0  0  0  0  0  0  0  0  0  0  0  0
   20.5582   -3.6708  -13.8803 O   0  0  0  0  0  0  0  0  0  0  0  0
   21.5537   -4.0188  -15.9131 O   0  0  0  0  0  0  0  0  0  0  0  0
  2  1  1  6
  2  3  1  0
  4  2  1  0
  4  5  1  1
  6  4  1  0
  6  7  2  0
  8  6  1  0
  9  8  1  0
 10 11  1  0
 10  9  1  0
 11 12  1  0
 12  8  1  0
 12 13  1  1
 13 15  1  0
 14 13  2  0
 15 16  1  0
 16 19  1  0
 16 17  1  6
 17 18  1  0
 19 20  2  0
 19 21  1  0
M  END
$$$$
