TPC.pdb
     RDKit          3D

 21 21  0  0  1  0  0  0  0  0999 V2000
   24.6179  -12.5935  -19.7721 C   0  0  0  0  0  0  0  0  0  0  0  0
   24.4826  -13.7247  -18.7852 C   0  0  1  0  0  0  0  0  0  0  0  0
   24.9444  -14.8789  -19.4621 O   0  0  0  0  0  0  0  0  0  0  0  0
   25.3586  -13.5023  -17.5363 C   0  0  2  0  0  0  0  0  0  0  0  0
   25.5015  -14.7687  -16.9269 N   0  0  0  0  0  0  0  0  0  0  0  0
   24.8095  -12.4038  -16.7424 C   0  0  0  0  0  0  0  0  0  0  0  0
   23.5402  -12.4849  -16.5800 O   0  0  0  0  0  0  0  0  0  0  0  0
   25.4563  -11.3162  -16.1564 N   0  0  0  0  0  0  0  0  0  0  0  0
   26.7710  -11.3472  -15.4400 C   0  0  0  0  0  0  0  0  0  0  0  0
   27.4626  -10.1226  -16.0658 C   0  0  0  0  0  0  0  0  0  0  0  0
   26.3596   -9.3549  -16.7947 C   0  0  0  0  0  0  0  0  0  0  0  0
   25.1544   -9.9220  -16.0207 C   0  0  1  0  0  0  0  0  0  0  0  0
   23.9112   -9.3645  -16.4139 C   0  0  0  0  0  0  0  0  0  0  0  0
   23.3360   -9.5129  -17.4865 O   0  0  0  0  0  0  0  0  0  0  0  0
   23.2237   -8.5198  -15.4560 N   0  0  0  0  0  0  0  0  0  0  0  0
   22.0027   -7.8675  -15.8018 C   0  0  1  0  0  0  0  0  0  0  0  0
   21.0993   -7.6567  -14.5890 C   0  0  0  0  0  0  0  0  0  0  0  0
   20.5047   -9.3174  -14.0957 S   0  0  0  0  0  0  0  0  0  0  0  0
   22.2911   -6.5346  -16.3579 C   0  0  0  0  0  0  0  0  0  0  0  0
   23.4383   -6.0760  -16.3154 O   0  0  0  0  0  0  0  0  0  0  0  0
   21.2453   -5.8204  -16.9235 O   0  0  0  0  0  0  0  0  0  0  0  0
  2  1  1  6
  2  3  1  0
  4  2  1  0
  4  5  1  1
  6  4  1  0
  6  7  2  0
  8  6  1  0
  9  8  1  0
 10 11  1  0
 10  9  1  0
 11 12  1  0
 12  8  1  0
 12 13  1  6
 13 15  1  0
 14 13  2  0
 15 16  1  0
 16 19  1  0
 16 17  1  1
 17 18  1  0
 19 20  2  0
 19 21  1  0
M  END
$$$$
