TPC.pdb
     RDKit          3D

 21 21  0  0  1  0  0  0  0  0999 V2000
   21.6574  -11.1189  -19.6159 C   0  0  0  0  0  0  0  0  0  0  0  0
   20.6720  -12.0663  -18.9809 C   0  0  1  0  0  0  0  0  0  0  0  0
   20.5690  -13.1625  -19.8707 O   0  0  0  0  0  0  0  0  0  0  0  0
   21.1725  -12.5836  -17.6177 C   0  0  2  0  0  0  0  0  0  0  0  0
   20.4052  -13.7340  -17.3289 N   0  0  0  0  0  0  0  0  0  0  0  0
   21.1777  -11.4872  -16.6500 C   0  0  0  0  0  0  0  0  0  0  0  0
   20.1482  -10.7284  -16.7426 O   0  0  0  0  0  0  0  0  0  0  0  0
   22.1179  -11.1650  -15.6717 N   0  0  0  0  0  0  0  0  0  0  0  0
   22.8001  -12.1253  -14.7471 C   0  0  0  0  0  0  0  0  0  0  0  0
   24.2570  -11.6420  -14.8626 C   0  0  0  0  0  0  0  0  0  0  0  0
   24.1853  -10.2807  -15.5545 C   0  0  0  0  0  0  0  0  0  0  0  0
   22.7194   -9.9454  -15.2198 C   0  0  1  0  0  0  0  0  0  0  0  0
   22.3069   -8.6696  -15.6814 C   0  0  0  0  0  0  0  0  0  0  0  0
   22.2083   -8.2962  -16.8451 O   0  0  0  0  0  0  0  0  0  0  0  0
   21.9572   -7.6776  -14.6827 N   0  0  0  0  0  0  0  0  0  0  0  0
   21.6512   -6.3363  -15.0615 C   0  0  1  0  0  0  0  0  0  0  0  0
   20.1542   -6.0451  -14.9886 C   0  0  0  0  0  0  0  0  0  0  0  0
   19.9480   -4.2890  -15.4668 S   0  0  0  0  0  0  0  0  0  0  0  0
   22.3156   -5.3962  -14.1429 C   0  0  0  0  0  0  0  0  0  0  0  0
   22.3685   -5.6398  -12.9321 O   0  0  0  0  0  0  0  0  0  0  0  0
   22.8728   -4.2432  -14.6756 O   0  0  0  0  0  0  0  0  0  0  0  0
  2  1  1  6
  2  3  1  0
  4  2  1  0
  4  5  1  1
  6  4  1  0
  6  7  2  0
  8  6  1  0
  9  8  1  0
 10 11  1  0
 10  9  1  0
 11 12  1  0
 12  8  1  0
 12 13  1  6
 13 15  1  0
 14 13  2  0
 15 16  1  0
 16 19  1  0
 16 17  1  1
 17 18  1  0
 19 20  2  0
 19 21  1  0
M  END
$$$$
