TPC.pdb
     RDKit          3D

 21 21  0  0  1  0  0  0  0  0999 V2000
   16.7073   -8.3741  -16.1594 C   0  0  0  0  0  0  0  0  0  0  0  0
   17.0605   -9.8353  -16.0489 C   0  0  1  0  0  0  0  0  0  0  0  0
   17.1704  -10.3029  -17.3805 O   0  0  0  0  0  0  0  0  0  0  0  0
   18.4131  -10.0450  -15.3398 C   0  0  2  0  0  0  0  0  0  0  0  0
   18.8139  -11.3655  -15.6421 N   0  0  0  0  0  0  0  0  0  0  0  0
   18.2951   -9.6559  -13.9352 C   0  0  0  0  0  0  0  0  0  0  0  0
   17.1656   -9.9731  -13.4176 O   0  0  0  0  0  0  0  0  0  0  0  0
   19.2129   -9.0088  -13.1083 N   0  0  0  0  0  0  0  0  0  0  0  0
   20.6869   -9.2661  -13.0479 C   0  0  0  0  0  0  0  0  0  0  0  0
   21.2262   -7.8245  -13.0664 C   0  0  0  0  0  0  0  0  0  0  0  0
   20.0171   -6.9293  -12.7943 C   0  0  0  0  0  0  0  0  0  0  0  0
   19.1190   -7.9804  -12.1149 C   0  0  1  0  0  0  0  0  0  0  0  0
   17.8790   -7.4630  -11.6614 C   0  0  0  0  0  0  0  0  0  0  0  0
   17.0588   -6.8228  -12.3100 O   0  0  0  0  0  0  0  0  0  0  0  0
   17.5187   -7.7055  -10.2775 N   0  0  0  0  0  0  0  0  0  0  0  0
   16.3030   -7.1887   -9.7381 C   0  0  1  0  0  0  0  0  0  0  0  0
   15.6387   -8.1689   -8.7740 C   0  0  0  0  0  0  0  0  0  0  0  0
   14.0905   -7.3677   -8.2116 S   0  0  0  0  0  0  0  0  0  0  0  0
   16.5800   -5.9595   -8.9756 C   0  0  0  0  0  0  0  0  0  0  0  0
   17.5692   -5.8933   -8.2372 O   0  0  0  0  0  0  0  0  0  0  0  0
   15.7047   -4.8924   -9.1124 O   0  0  0  0  0  0  0  0  0  0  0  0
  2  1  1  6
  2  3  1  0
  4  2  1  0
  4  5  1  1
  6  4  1  0
  6  7  2  0
  8  6  1  0
  9  8  1  0
 10 11  1  0
 10  9  1  0
 11 12  1  0
 12  8  1  0
 12 13  1  6
 13 15  1  0
 14 13  2  0
 15 16  1  0
 16 19  1  0
 16 17  1  1
 17 18  1  0
 19 20  2  0
 19 21  1  0
M  END
$$$$
