TPC.pdb
     RDKit          3D

 21 21  0  0  1  0  0  0  0  0999 V2000
   22.2137  -16.0422  -17.8106 C   0  0  0  0  0  0  0  0  0  0  0  0
   22.5472  -16.9803  -16.6789 C   0  0  1  0  0  0  0  0  0  0  0  0
   22.4828  -18.2822  -17.2309 O   0  0  0  0  0  0  0  0  0  0  0  0
   23.9721  -16.7434  -16.1403 C   0  0  2  0  0  0  0  0  0  0  0  0
   24.3289  -17.9197  -15.4441 N   0  0  0  0  0  0  0  0  0  0  0  0
   24.0198  -15.4682  -15.4262 C   0  0  0  0  0  0  0  0  0  0  0  0
   22.9464  -15.2168  -14.7713 O   0  0  0  0  0  0  0  0  0  0  0  0
   25.0399  -14.5194  -15.3613 N   0  0  0  0  0  0  0  0  0  0  0  0
   26.4961  -14.7964  -15.1488 C   0  0  0  0  0  0  0  0  0  0  0  0
   27.1157  -13.8995  -16.2355 C   0  0  0  0  0  0  0  0  0  0  0  0
   25.9882  -12.9776  -16.7004 C   0  0  0  0  0  0  0  0  0  0  0  0
   25.0897  -13.0904  -15.4541 C   0  0  1  0  0  0  0  0  0  0  0  0
   23.9244  -12.2847  -15.5170 C   0  0  0  0  0  0  0  0  0  0  0  0
   22.9466  -12.4467  -16.2387 O   0  0  0  0  0  0  0  0  0  0  0  0
   23.8590  -11.1330  -14.6377 N   0  0  0  0  0  0  0  0  0  0  0  0
   22.7494  -10.2373  -14.6887 C   0  0  1  0  0  0  0  0  0  0  0  0
   22.7160   -9.2935  -13.4890 C   0  0  0  0  0  0  0  0  0  0  0  0
   21.2083   -8.2712  -13.6805 S   0  0  0  0  0  0  0  0  0  0  0  0
   22.8447   -9.3955  -15.8934 C   0  0  0  0  0  0  0  0  0  0  0  0
   23.9442   -9.1715  -16.4122 O   0  0  0  0  0  0  0  0  0  0  0  0
   21.6742   -8.8692  -16.4191 O   0  0  0  0  0  0  0  0  0  0  0  0
  2  1  1  6
  2  3  1  0
  4  2  1  0
  4  5  1  1
  6  4  1  0
  6  7  2  0
  8  6  1  0
  9  8  1  0
 10 11  1  0
 10  9  1  0
 11 12  1  0
 12  8  1  0
 12 13  1  6
 13 15  1  0
 14 13  2  0
 15 16  1  0
 16 19  1  0
 16 17  1  1
 17 18  1  0
 19 20  2  0
 19 21  1  0
M  END
$$$$
