TPC.pdb
     RDKit          3D

 21 21  0  0  1  0  0  0  0  0999 V2000
   24.2360  -12.7801  -15.0715 C   0  0  0  0  0  0  0  0  0  0  0  0
   24.3457  -13.0152  -16.5562 C   0  0  1  0  0  0  0  0  0  0  0  0
   24.7668  -14.3591  -16.6996 O   0  0  0  0  0  0  0  0  0  0  0  0
   22.9868  -12.8464  -17.2643 C   0  0  2  0  0  0  0  0  0  0  0  0
   23.1269  -13.4538  -18.5320 N   0  0  0  0  0  0  0  0  0  0  0  0
   22.5740  -11.4449  -17.2038 C   0  0  0  0  0  0  0  0  0  0  0  0
   23.5381  -10.6260  -17.4142 O   0  0  0  0  0  0  0  0  0  0  0  0
   21.3163  -10.8949  -16.9574 N   0  0  0  0  0  0  0  0  0  0  0  0
   20.0155  -11.3638  -17.5322 C   0  0  0  0  0  0  0  0  0  0  0  0
   19.1356  -11.3733  -16.2693 C   0  0  0  0  0  0  0  0  0  0  0  0
   19.9241  -10.5993  -15.2126 C   0  0  0  0  0  0  0  0  0  0  0  0
   20.8358   -9.8021  -16.1648 C   0  0  1  0  0  0  0  0  0  0  0  0
   21.7022   -8.8976  -15.4999 C   0  0  0  0  0  0  0  0  0  0  0  0
   22.6810   -9.1731  -14.8149 O   0  0  0  0  0  0  0  0  0  0  0  0
   21.4183   -7.4811  -15.6299 N   0  0  0  0  0  0  0  0  0  0  0  0
   22.2288   -6.5102  -14.9692 C   0  0  1  0  0  0  0  0  0  0  0  0
   23.0674   -5.6959  -15.9517 C   0  0  0  0  0  0  0  0  0  0  0  0
   23.9979   -4.4787  -14.9479 S   0  0  0  0  0  0  0  0  0  0  0  0
   21.3716   -5.5565  -14.2449 C   0  0  0  0  0  0  0  0  0  0  0  0
   20.2899   -5.2005  -14.7259 O   0  0  0  0  0  0  0  0  0  0  0  0
   21.8134   -5.0776  -13.0206 O   0  0  0  0  0  0  0  0  0  0  0  0
  2  1  1  1
  2  3  1  0
  4  2  1  0
  4  5  1  6
  6  4  1  0
  6  7  2  0
  8  6  1  0
  9  8  1  0
 10 11  1  0
 10  9  1  0
 11 12  1  0
 12  8  1  0
 12 13  1  1
 13 15  1  0
 14 13  2  0
 15 16  1  0
 16 19  1  0
 16 17  1  6
 17 18  1  0
 19 20  2  0
 19 21  1  0
M  END
$$$$
