TPC.pdb
     RDKit          3D

 21 21  0  0  1  0  0  0  0  0999 V2000
   14.2928   -7.2745  -11.8933 C   0  0  0  0  0  0  0  0  0  0  0  0
   14.5416   -8.2865  -10.8044 C   0  0  1  0  0  0  0  0  0  0  0  0
   13.2618   -8.6466  -10.3185 O   0  0  0  0  0  0  0  0  0  0  0  0
   15.2366   -9.5512  -11.3465 C   0  0  2  0  0  0  0  0  0  0  0  0
   15.1697  -10.5100  -10.3112 N   0  0  0  0  0  0  0  0  0  0  0  0
   16.5490   -9.1960  -11.8849 C   0  0  0  0  0  0  0  0  0  0  0  0
   17.2789   -8.5524  -11.0499 O   0  0  0  0  0  0  0  0  0  0  0  0
   17.0978   -9.4536  -13.1409 N   0  0  0  0  0  0  0  0  0  0  0  0
   16.8793  -10.6820  -13.9689 C   0  0  0  0  0  0  0  0  0  0  0  0
   16.6016  -10.0497  -15.3446 C   0  0  0  0  0  0  0  0  0  0  0  0
   17.0233   -8.5858  -15.2172 C   0  0  0  0  0  0  0  0  0  0  0  0
   17.9779   -8.7398  -14.0179 C   0  0  1  0  0  0  0  0  0  0  0  0
   18.6215   -7.5330  -13.6432 C   0  0  0  0  0  0  0  0  0  0  0  0
   18.1172   -6.5627  -13.0886 O   0  0  0  0  0  0  0  0  0  0  0  0
   20.0359   -7.4091  -13.9394 N   0  0  0  0  0  0  0  0  0  0  0  0
   20.7513   -6.2213  -13.6025 C   0  0  1  0  0  0  0  0  0  0  0  0
   22.1371   -6.5247  -13.0379 C   0  0  0  0  0  0  0  0  0  0  0  0
   22.9114   -4.9045  -12.6768 S   0  0  0  0  0  0  0  0  0  0  0  0
   20.9507   -5.4015  -14.8096 C   0  0  0  0  0  0  0  0  0  0  0  0
   21.3368   -5.9239  -15.8614 O   0  0  0  0  0  0  0  0  0  0  0  0
   20.6939   -4.0411  -14.7275 O   0  0  0  0  0  0  0  0  0  0  0  0
  2  1  1  6
  2  3  1  0
  4  2  1  0
  4  5  1  1
  6  4  1  0
  6  7  2  0
  8  6  1  0
  9  8  1  0
 10 11  1  0
 10  9  1  0
 11 12  1  0
 12  8  1  0
 12 13  1  1
 13 15  1  0
 14 13  2  0
 15 16  1  0
 16 19  1  0
 16 17  1  6
 17 18  1  0
 19 20  2  0
 19 21  1  0
M  END
$$$$
