TPC.pdb
     RDKit          3D

 21 21  0  0  1  0  0  0  0  0999 V2000
   17.2633   -8.1470  -16.2063 C   0  0  0  0  0  0  0  0  0  0  0  0
   17.6500   -9.5730  -15.9080 C   0  0  1  0  0  0  0  0  0  0  0  0
   17.8869  -10.1754  -17.1669 O   0  0  0  0  0  0  0  0  0  0  0  0
   18.9432   -9.6524  -15.0726 C   0  0  2  0  0  0  0  0  0  0  0  0
   19.4169  -10.9764  -15.2079 N   0  0  0  0  0  0  0  0  0  0  0  0
   18.6900   -9.1358  -13.7283 C   0  0  0  0  0  0  0  0  0  0  0  0
   17.5600   -9.5079  -13.2499 O   0  0  0  0  0  0  0  0  0  0  0  0
   19.4837   -8.3211  -12.9213 N   0  0  0  0  0  0  0  0  0  0  0  0
   20.9723   -8.3962  -12.7773 C   0  0  0  0  0  0  0  0  0  0  0  0
   21.3431   -6.9069  -12.8952 C   0  0  0  0  0  0  0  0  0  0  0  0
   20.0269   -6.1426  -12.7510 C   0  0  0  0  0  0  0  0  0  0  0  0
   19.2213   -7.2356  -12.0234 C   0  0  1  0  0  0  0  0  0  0  0  0
   17.9084   -6.8344  -11.6679 C   0  0  0  0  0  0  0  0  0  0  0  0
   17.0049   -6.4939  -12.4235 O   0  0  0  0  0  0  0  0  0  0  0  0
   17.5731   -6.8168  -10.2569 N   0  0  0  0  0  0  0  0  0  0  0  0
   16.2904   -6.3732   -9.8165 C   0  0  1  0  0  0  0  0  0  0  0  0
   15.9531   -6.8855   -8.4182 C   0  0  0  0  0  0  0  0  0  0  0  0
   15.7003   -8.6924   -8.5796 S   0  0  0  0  0  0  0  0  0  0  0  0
   16.2686   -4.9021   -9.7504 C   0  0  0  0  0  0  0  0  0  0  0  0
   17.3253   -4.2609   -9.7769 O   0  0  0  0  0  0  0  0  0  0  0  0
   15.0383   -4.2686   -9.6586 O   0  0  0  0  0  0  0  0  0  0  0  0
  2  1  1  6
  2  3  1  0
  4  2  1  0
  4  5  1  1
  6  4  1  0
  6  7  2  0
  8  6  1  0
  9  8  1  0
 10 11  1  0
 10  9  1  0
 11 12  1  0
 12  8  1  0
 12 13  1  6
 13 15  1  0
 14 13  2  0
 15 16  1  0
 16 19  1  0
 16 17  1  1
 17 18  1  0
 19 20  2  0
 19 21  1  0
M  END
$$$$
