DVP.pdb
     RDKit          3D

 23 23  0  0  1  0  0  0  0  0999 V2000
   23.4642  -14.6682  -18.4388 N   0  0  0  0  0  0  0  0  0  0  0  0
   23.4099  -13.2603  -18.6727 C   0  0  1  0  0  0  0  0  0  0  0  0
   22.2680  -12.8802  -19.5718 C   0  0  0  0  0  0  0  0  0  0  0  0
   22.4826  -13.4035  -20.9546 C   0  0  0  0  0  0  0  0  0  0  0  0
   23.5162  -14.0010  -21.2874 O   0  0  0  0  0  0  0  0  0  0  0  0
   23.2747  -12.4803  -17.4011 C   0  0  0  0  0  0  0  0  0  0  0  0
   22.5164  -12.9044  -16.4895 O   0  0  0  0  0  0  0  0  0  0  0  0
   21.4813  -13.2103  -21.9005 O   0  0  0  0  0  0  0  0  0  0  0  0
   25.9022  -11.6952  -15.1486 C   0  0  0  0  0  0  0  0  0  0  0  0
   25.2910  -10.3667  -15.4861 C   0  0  1  0  0  0  0  0  0  0  0  0
   26.1104   -9.4690  -16.3195 C   0  0  0  0  0  0  0  0  0  0  0  0
   23.8414  -10.5373  -15.8864 C   0  0  2  0  0  0  0  0  0  0  0  0
   23.9615  -11.2812  -17.1710 N   0  0  0  0  0  0  0  0  0  0  0  0
   23.1084   -9.3134  -16.1796 C   0  0  0  0  0  0  0  0  0  0  0  0
   23.7052   -8.4021  -16.8942 O   0  0  0  0  0  0  0  0  0  0  0  0
   21.7916   -8.9536  -15.7913 N   0  0  0  0  0  0  0  0  0  0  0  0
   20.9678   -9.9178  -15.0195 C   0  0  0  0  0  0  0  0  0  0  0  0
   19.9263   -9.0883  -14.3198 C   0  0  0  0  0  0  0  0  0  0  0  0
   19.7017   -7.9171  -15.2484 C   0  0  0  0  0  0  0  0  0  0  0  0
   21.0302   -7.7524  -15.9773 C   0  0  1  0  0  0  0  0  0  0  0  0
   21.6603   -6.5586  -15.3287 C   0  0  0  0  0  0  0  0  0  0  0  0
   21.2930   -5.3824  -15.5005 O   0  0  0  0  0  0  0  0  0  0  0  0
   22.7265   -6.8013  -14.4804 O   0  0  0  0  0  0  0  0  0  0  0  0
  2  1  1  1
  2  3  1  0
  3  4  1  0
  4  5  2  0
  6 13  1  0
  6  2  1  0
  7  6  2  0
  8  4  1  0
 10  9  1  6
 10 12  1  0
 11 10  1  0
 12 14  1  0
 12 13  1  6
 14 16  1  0
 15 14  2  0
 16 17  1  0
 16 20  1  0
 17 18  1  0
 18 19  1  0
 20 19  1  0
 20 21  1  1
 21 23  1  0
 22 21  2  0
M  END
$$$$
