DVP.pdb
     RDKit          3D

 23 23  0  0  1  0  0  0  0  0999 V2000
   28.5092  -23.5676  -17.9363 N   0  0  0  0  0  0  0  0  0  0  0  0
   27.4998  -23.7839  -16.9494 C   0  0  1  0  0  0  0  0  0  0  0  0
   27.6165  -25.1377  -16.3086 C   0  0  0  0  0  0  0  0  0  0  0  0
   26.8540  -26.1614  -17.0849 C   0  0  0  0  0  0  0  0  0  0  0  0
   27.0884  -26.4031  -18.2776 O   0  0  0  0  0  0  0  0  0  0  0  0
   27.5414  -22.7543  -15.8623 C   0  0  0  0  0  0  0  0  0  0  0  0
   28.6441  -22.4521  -15.3345 O   0  0  0  0  0  0  0  0  0  0  0  0
   25.8437  -26.8670  -16.4398 O   0  0  0  0  0  0  0  0  0  0  0  0
   25.3021  -19.8960  -16.2921 C   0  0  0  0  0  0  0  0  0  0  0  0
   26.4141  -19.7684  -15.2923 C   0  0  1  0  0  0  0  0  0  0  0  0
   26.5444  -18.4577  -14.6313 C   0  0  0  0  0  0  0  0  0  0  0  0
   26.4687  -20.9913  -14.4022 C   0  0  2  0  0  0  0  0  0  0  0  0
   26.3948  -22.0990  -15.3950 N   0  0  0  0  0  0  0  0  0  0  0  0
   25.3474  -21.1720  -13.4906 C   0  0  0  0  0  0  0  0  0  0  0  0
   24.2103  -21.5618  -13.9931 O   0  0  0  0  0  0  0  0  0  0  0  0
   25.3080  -20.9829  -12.0845 N   0  0  0  0  0  0  0  0  0  0  0  0
   26.5448  -20.5866  -11.3654 C   0  0  0  0  0  0  0  0  0  0  0  0
   26.0797  -19.9537  -10.0826 C   0  0  0  0  0  0  0  0  0  0  0  0
   24.7822  -20.6629   -9.7698 C   0  0  0  0  0  0  0  0  0  0  0  0
   24.2389  -21.0756  -11.1329 C   0  0  1  0  0  0  0  0  0  0  0  0
   23.1360  -20.0986  -11.4007 C   0  0  0  0  0  0  0  0  0  0  0  0
   23.2368  -19.1002  -12.1361 O   0  0  0  0  0  0  0  0  0  0  0  0
   21.9249  -20.3405  -10.7761 O   0  0  0  0  0  0  0  0  0  0  0  0
  2  1  1  6
  2  3  1  0
  3  4  1  0
  4  5  2  0
  6 13  1  0
  6  2  1  0
  7  6  2  0
  8  4  1  0
 10  9  1  1
 10 12  1  0
 11 10  1  0
 12 14  1  0
 12 13  1  6
 14 16  1  0
 15 14  2  0
 16 17  1  0
 16 20  1  0
 17 18  1  0
 18 19  1  0
 20 19  1  0
 20 21  1  6
 21 23  1  0
 22 21  2  0
M  END
$$$$
