DVP.pdb
     RDKit          3D

 23 23  0  0  1  0  0  0  0  0999 V2000
   28.8127  -22.0779  -18.1188 N   0  0  0  0  0  0  0  0  0  0  0  0
   27.7750  -22.5314  -17.2486 C   0  0  1  0  0  0  0  0  0  0  0  0
   27.9001  -23.9952  -16.9343 C   0  0  0  0  0  0  0  0  0  0  0  0
   26.6266  -24.5273  -16.3624 C   0  0  0  0  0  0  0  0  0  0  0  0
   25.5771  -23.8683  -16.3472 O   0  0  0  0  0  0  0  0  0  0  0  0
   27.7559  -21.7816  -15.9520 C   0  0  0  0  0  0  0  0  0  0  0  0
   28.7318  -21.8807  -15.1624 O   0  0  0  0  0  0  0  0  0  0  0  0
   26.6242  -25.8115  -15.8282 O   0  0  0  0  0  0  0  0  0  0  0  0
   27.9453  -18.3962  -15.4299 C   0  0  0  0  0  0  0  0  0  0  0  0
   26.6511  -18.7695  -14.7680 C   0  0  1  0  0  0  0  0  0  0  0  0
   25.4222  -18.3394  -15.4584 C   0  0  0  0  0  0  0  0  0  0  0  0
   26.6976  -20.2031  -14.2850 C   0  0  2  0  0  0  0  0  0  0  0  0
   26.6878  -20.9611  -15.5669 N   0  0  0  0  0  0  0  0  0  0  0  0
   25.5454  -20.6603  -13.5205 C   0  0  0  0  0  0  0  0  0  0  0  0
   24.4895  -21.0437  -14.1805 O   0  0  0  0  0  0  0  0  0  0  0  0
   25.3970  -20.7572  -12.1124 N   0  0  0  0  0  0  0  0  0  0  0  0
   26.5388  -20.4055  -11.2311 C   0  0  0  0  0  0  0  0  0  0  0  0
   25.9308  -20.0814   -9.8940 C   0  0  0  0  0  0  0  0  0  0  0  0
   24.6941  -20.9480   -9.8307 C   0  0  0  0  0  0  0  0  0  0  0  0
   24.2839  -21.1284  -11.2876 C   0  0  1  0  0  0  0  0  0  0  0  0
   23.1074  -20.2167  -11.4543 C   0  0  0  0  0  0  0  0  0  0  0  0
   23.1520  -19.0919  -11.9841 O   0  0  0  0  0  0  0  0  0  0  0  0
   21.8917  -20.6760  -10.9784 O   0  0  0  0  0  0  0  0  0  0  0  0
  2  1  1  6
  2  3  1  0
  3  4  1  0
  4  5  2  0
  6 13  1  0
  6  2  1  0
  7  6  2  0
  8  4  1  0
 10  9  1  6
 10 12  1  0
 11 10  1  0
 12 14  1  0
 12 13  1  6
 14 16  1  0
 15 14  2  0
 16 17  1  0
 16 20  1  0
 17 18  1  0
 18 19  1  0
 20 19  1  0
 20 21  1  6
 21 23  1  0
 22 21  2  0
M  END
$$$$
