DVP.pdb
     RDKit          3D

 23 23  0  0  1  0  0  0  0  0999 V2000
   19.6652  -11.9106  -18.4928 N   0  0  0  0  0  0  0  0  0  0  0  0
   20.2455  -10.6062  -18.4528 C   0  0  1  0  0  0  0  0  0  0  0  0
   19.4619   -9.6136  -19.2638 C   0  0  0  0  0  0  0  0  0  0  0  0
   19.9295   -9.5984  -20.6827 C   0  0  0  0  0  0  0  0  0  0  0  0
   19.9316  -10.6134  -21.3939 O   0  0  0  0  0  0  0  0  0  0  0  0
   20.3529  -10.0774  -17.0555 C   0  0  0  0  0  0  0  0  0  0  0  0
   19.4078  -10.2664  -16.2451 O   0  0  0  0  0  0  0  0  0  0  0  0
   20.3784   -8.3970  -21.2209 O   0  0  0  0  0  0  0  0  0  0  0  0
   22.4592  -11.1333  -14.6360 C   0  0  0  0  0  0  0  0  0  0  0  0
   22.7712   -9.6660  -14.6820 C   0  0  1  0  0  0  0  0  0  0  0  0
   24.0892   -9.3003  -15.2307 C   0  0  0  0  0  0  0  0  0  0  0  0
   21.5783   -8.8868  -15.1923 C   0  0  2  0  0  0  0  0  0  0  0  0
   21.4719   -9.3703  -16.5969 N   0  0  0  0  0  0  0  0  0  0  0  0
   21.7374   -7.4407  -15.2593 C   0  0  0  0  0  0  0  0  0  0  0  0
   22.8464   -6.9721  -15.7574 O   0  0  0  0  0  0  0  0  0  0  0  0
   20.8301   -6.4286  -14.8507 N   0  0  0  0  0  0  0  0  0  0  0  0
   19.5024   -6.8126  -14.3090 C   0  0  0  0  0  0  0  0  0  0  0  0
   19.0434   -5.6342  -13.4946 C   0  0  0  0  0  0  0  0  0  0  0  0
   19.6689   -4.4430  -14.1833 C   0  0  0  0  0  0  0  0  0  0  0  0
   20.9361   -4.9985  -14.8228 C   0  0  1  0  0  0  0  0  0  0  0  0
   22.0397   -4.5146  -13.9336 C   0  0  0  0  0  0  0  0  0  0  0  0
   22.5842   -5.1950  -13.0457 O   0  0  0  0  0  0  0  0  0  0  0  0
   22.4715   -3.2143  -14.1288 O   0  0  0  0  0  0  0  0  0  0  0  0
  2  1  1  1
  2  3  1  0
  3  4  1  0
  4  5  2  0
  6 13  1  0
  6  2  1  0
  7  6  2  0
  8  4  1  0
 10  9  1  6
 10 12  1  0
 11 10  1  0
 12 14  1  0
 12 13  1  6
 14 16  1  0
 15 14  2  0
 16 17  1  0
 16 20  1  0
 17 18  1  0
 18 19  1  0
 20 19  1  0
 20 21  1  1
 21 23  1  0
 22 21  2  0
M  END
$$$$
