MNM.pdb
     RDKit          3D

 25 24  0  0  1  0  0  0  0  0999 V2000
    7.8756  -11.7845   19.5501 C   0  0  0  0  0  0  0  0  0  0  0  0
    6.9905  -12.8006   18.3663 S   0  0  0  0  0  0  0  0  0  0  0  0
    7.6896  -14.4110   18.1546 C   0  0  0  0  0  0  0  0  0  0  0  0
    7.3530  -15.4527   19.1508 C   0  0  0  0  0  0  0  0  0  0  0  0
    7.6688  -15.1510   20.5447 C   0  0  2  0  0  0  0  0  0  0  0  0
    8.1945  -13.8732   20.8650 N   0  0  0  0  0  0  0  0  0  0  0  0
    8.6019  -16.1747   21.1583 C   0  0  0  0  0  0  0  0  0  0  0  0
    8.3350  -17.4018   21.0883 O   0  0  0  0  0  0  0  0  0  0  0  0
   12.3080  -14.3840   20.5682 N   0  0  0  0  0  0  0  0  0  0  0  0
   12.4455  -15.1247   21.7731 C   0  0  0  0  0  0  0  0  0  0  0  0
   12.9198  -14.5521   22.7718 O   0  0  0  0  0  0  0  0  0  0  0  0
   12.0304  -16.5348   21.8153 C   0  0  0  0  0  0  0  0  0  0  0  0
   10.6993  -16.7030   22.4924 C   0  0  2  0  0  0  0  0  0  0  0  0
    9.7848  -15.7753   21.8180 N   0  0  0  0  0  0  0  0  0  0  0  0
   10.7589  -16.3654   23.9286 C   0  0  0  0  0  0  0  0  0  0  0  0
   11.7388  -16.7983   24.6334 O   0  0  0  0  0  0  0  0  0  0  0  0
    7.1624  -10.9694   26.1505 C   0  0  0  0  0  0  0  0  0  0  0  0
    6.8903  -12.7129   26.5789 S   0  0  0  0  0  0  0  0  0  0  0  0
    8.3606  -13.6592   26.0384 C   0  0  0  0  0  0  0  0  0  0  0  0
    8.1679  -15.1254   26.3946 C   0  0  0  0  0  0  0  0  0  0  0  0
    9.4161  -15.8915   25.9994 C   0  0  2  0  0  0  0  0  0  0  0  0
    9.8133  -15.5782   24.6375 N   0  0  0  0  0  0  0  0  0  0  0  0
    9.2944  -17.3264   26.2799 C   0  0  0  0  0  0  0  0  0  0  0  0
    8.7774  -18.0945   25.4509 O   0  0  0  0  0  0  0  0  0  0  0  0
    9.7592  -17.8268   27.4763 O   0  0  0  0  0  0  0  0  0  0  0  0
  1  2  1  0
  3  2  1  0
  4  3  1  0
  5  4  1  0
  5  6  1  6
  7  8  2  0
  7  5  1  0
  9 10  1  0
 10 12  1  0
 11 10  2  0
 13 12  1  6
 13 14  1  0
 14  7  1  0
 15 13  1  0
 15 16  2  0
 18 17  1  0
 19 20  1  0
 19 18  1  0
 21 22  1  0
 21 20  1  6
 22 15  1  0
 23 21  1  0
 24 23  2  0
 25 23  1  0
M  END
$$$$
