MNM.pdb
     RDKit          3D

 25 24  0  0  1  0  0  0  0  0999 V2000
    8.7781  -11.6035   20.2374 C   0  0  0  0  0  0  0  0  0  0  0  0
    7.3803  -12.7145   20.0660 S   0  0  0  0  0  0  0  0  0  0  0  0
    7.7954  -14.4159   20.3103 C   0  0  0  0  0  0  0  0  0  0  0  0
    9.1748  -14.8487   19.9930 C   0  0  0  0  0  0  0  0  0  0  0  0
    9.4819  -16.2612   20.2035 C   0  0  2  0  0  0  0  0  0  0  0  0
    8.7612  -17.2344   19.4650 N   0  0  0  0  0  0  0  0  0  0  0  0
    9.3874  -16.6599   21.6620 C   0  0  0  0  0  0  0  0  0  0  0  0
    8.2826  -16.6225   22.2617 O   0  0  0  0  0  0  0  0  0  0  0  0
   10.7199  -20.4533   23.5115 N   0  0  0  0  0  0  0  0  0  0  0  0
   11.8032  -19.5536   23.3211 C   0  0  0  0  0  0  0  0  0  0  0  0
   12.7378  -19.8986   22.5744 O   0  0  0  0  0  0  0  0  0  0  0  0
   11.7985  -18.2500   24.0016 C   0  0  0  0  0  0  0  0  0  0  0  0
   10.5099  -17.5099   23.7776 C   0  0  2  0  0  0  0  0  0  0  0  0
   10.5315  -17.0800   22.3752 N   0  0  0  0  0  0  0  0  0  0  0  0
   10.3923  -16.3217   24.6462 C   0  0  0  0  0  0  0  0  0  0  0  0
   11.3091  -15.4259   24.6093 O   0  0  0  0  0  0  0  0  0  0  0  0
    5.7205  -12.1213   25.8804 C   0  0  0  0  0  0  0  0  0  0  0  0
    6.3866  -12.2896   27.5612 S   0  0  0  0  0  0  0  0  0  0  0  0
    8.0459  -13.0509   27.4332 C   0  0  0  0  0  0  0  0  0  0  0  0
    7.9796  -14.2324   26.4774 C   0  0  0  0  0  0  0  0  0  0  0  0
    9.3408  -14.9004   26.4324 C   0  0  2  0  0  0  0  0  0  0  0  0
    9.3290  -16.0533   25.5483 N   0  0  0  0  0  0  0  0  0  0  0  0
    9.8665  -15.1720   27.7749 C   0  0  0  0  0  0  0  0  0  0  0  0
   10.0823  -14.2439   28.5727 O   0  0  0  0  0  0  0  0  0  0  0  0
   10.1230  -16.4712   28.1543 O   0  0  0  0  0  0  0  0  0  0  0  0
  1  2  1  0
  3  2  1  0
  4  3  1  0
  5  4  1  0
  5  6  1  6
  7  8  2  0
  7  5  1  0
  9 10  1  0
 10 12  1  0
 11 10  2  0
 13 12  1  1
 13 14  1  0
 14  7  1  0
 15 13  1  0
 15 16  2  0
 18 17  1  0
 19 20  1  0
 19 18  1  0
 21 22  1  0
 21 20  1  1
 22 15  1  0
 23 21  1  0
 24 23  2  0
 25 23  1  0
M  END
$$$$
