MNM.pdb
     RDKit          3D

 25 24  0  0  1  0  0  0  0  0999 V2000
    6.6569  -11.9666   26.7780 C   0  0  0  0  0  0  0  0  0  0  0  0
    5.4596  -13.2275   27.2186 S   0  0  0  0  0  0  0  0  0  0  0  0
    5.6182  -14.7138   26.2740 C   0  0  0  0  0  0  0  0  0  0  0  0
    6.3084  -14.6380   24.9669 C   0  0  0  0  0  0  0  0  0  0  0  0
    6.2359  -15.8254   24.1191 C   0  0  2  0  0  0  0  0  0  0  0  0
    5.8438  -17.0578   24.7016 N   0  0  0  0  0  0  0  0  0  0  0  0
    7.5318  -16.0840   23.3782 C   0  0  0  0  0  0  0  0  0  0  0  0
    8.1437  -17.1726   23.5271 O   0  0  0  0  0  0  0  0  0  0  0  0
    7.5867  -12.6863   19.9713 N   0  0  0  0  0  0  0  0  0  0  0  0
    8.3192  -13.9039   19.9645 C   0  0  0  0  0  0  0  0  0  0  0  0
    7.9744  -14.8004   19.1723 O   0  0  0  0  0  0  0  0  0  0  0  0
    9.4553  -14.0782   20.8819 C   0  0  0  0  0  0  0  0  0  0  0  0
    9.3032  -15.3107   21.7282 C   0  0  2  0  0  0  0  0  0  0  0  0
    8.0771  -15.1137   22.5091 N   0  0  0  0  0  0  0  0  0  0  0  0
   10.4405  -15.4956   22.6515 C   0  0  0  0  0  0  0  0  0  0  0  0
   11.3048  -14.5565   22.7763 O   0  0  0  0  0  0  0  0  0  0  0  0
   10.1442  -13.4689   27.4160 C   0  0  0  0  0  0  0  0  0  0  0  0
   11.8354  -14.0245   27.7742 S   0  0  0  0  0  0  0  0  0  0  0  0
   12.1957  -15.4569   26.6935 C   0  0  0  0  0  0  0  0  0  0  0  0
   11.2523  -15.4307   25.5005 C   0  0  0  0  0  0  0  0  0  0  0  0
   11.5720  -16.6089   24.6000 C   0  0  2  0  0  0  0  0  0  0  0  0
   10.6850  -16.6442   23.4498 N   0  0  0  0  0  0  0  0  0  0  0  0
   11.6460  -17.8696   25.3467 C   0  0  0  0  0  0  0  0  0  0  0  0
   12.5531  -18.0665   26.1730 O   0  0  0  0  0  0  0  0  0  0  0  0
   10.6983  -18.8453   25.1285 O   0  0  0  0  0  0  0  0  0  0  0  0
  1  2  1  0
  3  2  1  0
  4  3  1  0
  5  4  1  0
  5  6  1  1
  7  8  2  0
  7  5  1  0
  9 10  1  0
 10 12  1  0
 11 10  2  0
 13 12  1  1
 13 14  1  0
 14  7  1  0
 15 13  1  0
 15 16  2  0
 18 17  1  0
 19 20  1  0
 19 18  1  0
 21 22  1  0
 21 20  1  1
 22 15  1  0
 23 21  1  0
 24 23  2  0
 25 23  1  0
M  END
$$$$
