MNM.pdb
     RDKit          3D

 25 24  0  0  1  0  0  0  0  0999 V2000
    7.7508  -11.6138   20.4392 C   0  0  0  0  0  0  0  0  0  0  0  0
    7.8941  -12.1553   18.7351 S   0  0  0  0  0  0  0  0  0  0  0  0
    8.0908  -13.9041   18.5632 C   0  0  0  0  0  0  0  0  0  0  0  0
    8.5114  -14.6779   19.7528 C   0  0  0  0  0  0  0  0  0  0  0  0
    8.6939  -16.1153   19.5671 C   0  0  2  0  0  0  0  0  0  0  0  0
    7.7120  -16.8409   18.8451 N   0  0  0  0  0  0  0  0  0  0  0  0
    8.8999  -16.8438   20.8793 C   0  0  0  0  0  0  0  0  0  0  0  0
    7.9154  -17.2990   21.5160 O   0  0  0  0  0  0  0  0  0  0  0  0
   12.9480  -19.3194   20.7669 N   0  0  0  0  0  0  0  0  0  0  0  0
   11.9480  -19.2930   21.7762 C   0  0  0  0  0  0  0  0  0  0  0  0
   11.1673  -20.2589   21.8644 O   0  0  0  0  0  0  0  0  0  0  0  0
   11.8568  -18.1400   22.6843 C   0  0  0  0  0  0  0  0  0  0  0  0
   10.4609  -17.5863   22.7422 C   0  0  2  0  0  0  0  0  0  0  0  0
   10.1946  -17.0268   21.4125 N   0  0  0  0  0  0  0  0  0  0  0  0
   10.3276  -16.5176   23.7524 C   0  0  0  0  0  0  0  0  0  0  0  0
   11.2997  -15.7008   23.9318 O   0  0  0  0  0  0  0  0  0  0  0  0
    5.8016  -12.4906   26.0480 C   0  0  0  0  0  0  0  0  0  0  0  0
    7.4882  -12.0724   26.5752 S   0  0  0  0  0  0  0  0  0  0  0  0
    8.3243  -13.6253   27.0635 C   0  0  0  0  0  0  0  0  0  0  0  0
    8.0252  -14.6990   26.0283 C   0  0  0  0  0  0  0  0  0  0  0  0
    9.2767  -15.5279   25.8096 C   0  0  2  0  0  0  0  0  0  0  0  0
    9.1924  -16.2869   24.5736 N   0  0  0  0  0  0  0  0  0  0  0  0
    9.6210  -16.3286   26.9897 C   0  0  0  0  0  0  0  0  0  0  0  0
    9.3778  -17.5469   27.0243 O   0  0  0  0  0  0  0  0  0  0  0  0
   10.2211  -15.7218   28.0712 O   0  0  0  0  0  0  0  0  0  0  0  0
  1  2  1  0
  3  2  1  0
  4  3  1  0
  5  4  1  0
  5  6  1  1
  7  8  2  0
  7  5  1  0
  9 10  1  0
 10 12  1  0
 11 10  2  0
 13 12  1  6
 13 14  1  0
 14  7  1  0
 15 13  1  0
 15 16  2  0
 18 17  1  0
 19 20  1  0
 19 18  1  0
 21 22  1  0
 21 20  1  1
 22 15  1  0
 23 21  1  0
 24 23  2  0
 25 23  1  0
M  END
$$$$
