MNM.pdb
     RDKit          3D

 25 24  0  0  1  0  0  0  0  0999 V2000
    9.1766  -12.0835   19.1337 C   0  0  0  0  0  0  0  0  0  0  0  0
    7.5623  -12.6066   19.7149 S   0  0  0  0  0  0  0  0  0  0  0  0
    7.5186  -14.2873   20.2629 C   0  0  0  0  0  0  0  0  0  0  0  0
    7.6942  -15.3541   19.2521 C   0  0  0  0  0  0  0  0  0  0  0  0
    7.7891  -16.7223   19.7549 C   0  0  2  0  0  0  0  0  0  0  0  0
    6.7390  -17.2272   20.5639 N   0  0  0  0  0  0  0  0  0  0  0  0
    9.0800  -16.9709   20.5077 C   0  0  0  0  0  0  0  0  0  0  0  0
    9.3953  -18.1353   20.8633 O   0  0  0  0  0  0  0  0  0  0  0  0
   12.7886  -16.9438   19.5802 N   0  0  0  0  0  0  0  0  0  0  0  0
   12.7614  -15.5512   19.8617 C   0  0  0  0  0  0  0  0  0  0  0  0
   13.2606  -14.7676   19.0330 O   0  0  0  0  0  0  0  0  0  0  0  0
   12.1519  -15.0701   21.1106 C   0  0  0  0  0  0  0  0  0  0  0  0
   11.1521  -16.0508   21.6558 C   0  0  2  0  0  0  0  0  0  0  0  0
    9.9524  -15.9065   20.8241 N   0  0  0  0  0  0  0  0  0  0  0  0
   10.8032  -15.7661   23.0620 C   0  0  0  0  0  0  0  0  0  0  0  0
   11.6786  -15.9671   23.9773 O   0  0  0  0  0  0  0  0  0  0  0  0
    5.5229  -12.6819   27.6639 C   0  0  0  0  0  0  0  0  0  0  0  0
    6.9041  -12.0892   26.6450 S   0  0  0  0  0  0  0  0  0  0  0  0
    8.1171  -13.4515   26.4974 C   0  0  0  0  0  0  0  0  0  0  0  0
    8.3383  -13.7644   25.0253 C   0  0  0  0  0  0  0  0  0  0  0  0
    9.3424  -14.8959   24.9126 C   0  0  2  0  0  0  0  0  0  0  0  0
    9.5560  -15.2698   23.5250 N   0  0  0  0  0  0  0  0  0  0  0  0
    9.0106  -16.0177   25.7980 C   0  0  0  0  0  0  0  0  0  0  0  0
    8.4199  -17.0197   25.3603 O   0  0  0  0  0  0  0  0  0  0  0  0
    9.3588  -15.9585   27.1295 O   0  0  0  0  0  0  0  0  0  0  0  0
  1  2  1  0
  3  2  1  0
  4  3  1  0
  5  4  1  0
  5  6  1  1
  7  8  2  0
  7  5  1  0
  9 10  1  0
 10 12  1  0
 11 10  2  0
 13 12  1  6
 13 14  1  0
 14  7  1  0
 15 13  1  0
 15 16  2  0
 18 17  1  0
 19 20  1  0
 19 18  1  0
 21 22  1  0
 21 20  1  6
 22 15  1  0
 23 21  1  0
 24 23  2  0
 25 23  1  0
M  END
$$$$
