MNM.pdb
     RDKit          3D

 25 24  0  0  1  0  0  0  0  0999 V2000
    8.3528  -11.6853   20.3853 C   0  0  0  0  0  0  0  0  0  0  0  0
    7.6809  -12.4596   18.9134 S   0  0  0  0  0  0  0  0  0  0  0  0
    7.4785  -14.2097   19.0649 C   0  0  0  0  0  0  0  0  0  0  0  0
    7.4449  -14.7917   20.4253 C   0  0  0  0  0  0  0  0  0  0  0  0
    8.7294  -15.1802   21.0024 C   0  0  2  0  0  0  0  0  0  0  0  0
    9.5641  -16.0678   20.2762 N   0  0  0  0  0  0  0  0  0  0  0  0
    8.5837  -15.7574   22.3956 C   0  0  0  0  0  0  0  0  0  0  0  0
    7.6549  -15.3712   23.1505 O   0  0  0  0  0  0  0  0  0  0  0  0
   10.3720  -20.1607   22.2673 N   0  0  0  0  0  0  0  0  0  0  0  0
    9.7016  -19.6454   23.4093 C   0  0  0  0  0  0  0  0  0  0  0  0
    8.6107  -20.1490   23.7356 O   0  0  0  0  0  0  0  0  0  0  0  0
   10.3022  -18.5413   24.1728 C   0  0  0  0  0  0  0  0  0  0  0  0
    9.4043  -17.3368   24.2094 C   0  0  2  0  0  0  0  0  0  0  0  0
    9.4826  -16.7361   22.8735 N   0  0  0  0  0  0  0  0  0  0  0  0
    9.8433  -16.3458   25.2121 C   0  0  0  0  0  0  0  0  0  0  0  0
   11.0373  -15.8817   25.1528 O   0  0  0  0  0  0  0  0  0  0  0  0
    6.0824  -12.0255   26.6219 C   0  0  0  0  0  0  0  0  0  0  0  0
    7.7650  -11.3983   26.3526 S   0  0  0  0  0  0  0  0  0  0  0  0
    8.8843  -12.8392   26.2094 C   0  0  0  0  0  0  0  0  0  0  0  0
    8.7433  -13.7049   27.4522 C   0  0  0  0  0  0  0  0  0  0  0  0
    9.6026  -14.9437   27.2839 C   0  0  2  0  0  0  0  0  0  0  0  0
    9.0521  -15.8289   26.2719 N   0  0  0  0  0  0  0  0  0  0  0  0
    9.8890  -15.5947   28.5671 C   0  0  0  0  0  0  0  0  0  0  0  0
    9.4297  -16.7202   28.8252 O   0  0  0  0  0  0  0  0  0  0  0  0
   10.6765  -14.9499   29.4954 O   0  0  0  0  0  0  0  0  0  0  0  0
  1  2  1  0
  3  2  1  0
  4  3  1  0
  5  4  1  0
  5  6  1  6
  7  8  2  0
  7  5  1  0
  9 10  1  0
 10 12  1  0
 11 10  2  0
 13 12  1  6
 13 14  1  0
 14  7  1  0
 15 13  1  0
 15 16  2  0
 18 17  1  0
 19 20  1  0
 19 18  1  0
 21 22  1  0
 21 20  1  1
 22 15  1  0
 23 21  1  0
 24 23  2  0
 25 23  1  0
M  END
$$$$
