MNM.pdb
     RDKit          3D

 25 24  0  0  1  0  0  0  0  0999 V2000
    7.8586  -11.9451   20.3298 C   0  0  0  0  0  0  0  0  0  0  0  0
    8.0801  -12.9040   18.8301 S   0  0  0  0  0  0  0  0  0  0  0  0
    8.1702  -14.6472   19.1124 C   0  0  0  0  0  0  0  0  0  0  0  0
    6.9312  -15.3536   19.5081 C   0  0  0  0  0  0  0  0  0  0  0  0
    6.9176  -15.9545   20.8394 C   0  0  2  0  0  0  0  0  0  0  0  0
    6.6244  -15.1319   21.9572 N   0  0  0  0  0  0  0  0  0  0  0  0
    8.2089  -16.6805   21.1568 C   0  0  0  0  0  0  0  0  0  0  0  0
    8.6797  -17.5234   20.3509 O   0  0  0  0  0  0  0  0  0  0  0  0
   13.0562  -18.0424   21.1664 N   0  0  0  0  0  0  0  0  0  0  0  0
   12.5428  -16.9029   21.8425 C   0  0  0  0  0  0  0  0  0  0  0  0
   13.2910  -16.2897   22.6262 O   0  0  0  0  0  0  0  0  0  0  0  0
   11.1554  -16.4765   21.6058 C   0  0  0  0  0  0  0  0  0  0  0  0
   10.2266  -16.9878   22.6709 C   0  0  2  0  0  0  0  0  0  0  0  0
    8.9078  -16.4273   22.3575 N   0  0  0  0  0  0  0  0  0  0  0  0
   10.6315  -16.5469   24.0207 C   0  0  0  0  0  0  0  0  0  0  0  0
   11.5664  -17.1775   24.6311 O   0  0  0  0  0  0  0  0  0  0  0  0
    6.6927  -11.4967   27.3758 C   0  0  0  0  0  0  0  0  0  0  0  0
    6.9814  -12.7734   26.1172 S   0  0  0  0  0  0  0  0  0  0  0  0
    7.5899  -14.2740   26.9699 C   0  0  0  0  0  0  0  0  0  0  0  0
    7.9419  -15.3287   25.9317 C   0  0  0  0  0  0  0  0  0  0  0  0
    9.4258  -15.6295   26.0258 C   0  0  2  0  0  0  0  0  0  0  0  0
   10.0779  -15.4545   24.7393 N   0  0  0  0  0  0  0  0  0  0  0  0
    9.6866  -16.9236   26.6660 C   0  0  0  0  0  0  0  0  0  0  0  0
    9.7544  -17.9646   25.9906 O   0  0  0  0  0  0  0  0  0  0  0  0
    9.8585  -16.9838   28.0315 O   0  0  0  0  0  0  0  0  0  0  0  0
  1  2  1  0
  3  2  1  0
  4  3  1  0
  5  4  1  0
  5  6  1  1
  7  8  2  0
  7  5  1  0
  9 10  1  0
 10 12  1  0
 11 10  2  0
 13 12  1  6
 13 14  1  0
 14  7  1  0
 15 13  1  0
 15 16  2  0
 18 17  1  0
 19 20  1  0
 19 18  1  0
 21 22  1  0
 21 20  1  6
 22 15  1  0
 23 21  1  0
 24 23  2  0
 25 23  1  0
M  END
$$$$
