MNM.pdb
     RDKit          3D

 25 24  0  0  1  0  0  0  0  0999 V2000
    7.7722  -12.3026   19.7568 C   0  0  0  0  0  0  0  0  0  0  0  0
    7.2387  -12.6347   21.4369 S   0  0  0  0  0  0  0  0  0  0  0  0
    7.4611  -14.3183   21.9295 C   0  0  0  0  0  0  0  0  0  0  0  0
    7.0864  -15.3803   20.9691 C   0  0  0  0  0  0  0  0  0  0  0  0
    7.1976  -16.7581   21.4413 C   0  0  2  0  0  0  0  0  0  0  0  0
    6.3944  -17.1725   22.5344 N   0  0  0  0  0  0  0  0  0  0  0  0
    8.6250  -17.1380   21.7779 C   0  0  0  0  0  0  0  0  0  0  0  0
    9.3231  -17.7830   20.9543 O   0  0  0  0  0  0  0  0  0  0  0  0
   13.5605  -16.7977   22.0003 N   0  0  0  0  0  0  0  0  0  0  0  0
   12.7321  -15.7768   22.5395 C   0  0  0  0  0  0  0  0  0  0  0  0
   13.2698  -14.8423   23.1621 O   0  0  0  0  0  0  0  0  0  0  0  0
   11.2748  -15.8442   22.3536 C   0  0  0  0  0  0  0  0  0  0  0  0
   10.6383  -16.8258   23.2969 C   0  0  2  0  0  0  0  0  0  0  0  0
    9.1992  -16.7776   23.0167 N   0  0  0  0  0  0  0  0  0  0  0  0
   10.8682  -16.4679   24.7109 C   0  0  0  0  0  0  0  0  0  0  0  0
   12.0630  -16.2273   25.1096 O   0  0  0  0  0  0  0  0  0  0  0  0
    7.3291  -11.6788   25.4988 C   0  0  0  0  0  0  0  0  0  0  0  0
    7.7796  -12.6798   26.9453 S   0  0  0  0  0  0  0  0  0  0  0  0
    8.8597  -14.0409   26.3709 C   0  0  0  0  0  0  0  0  0  0  0  0
    9.3137  -14.8572   27.5715 C   0  0  0  0  0  0  0  0  0  0  0  0
   10.1885  -15.9966   27.0841 C   0  0  2  0  0  0  0  0  0  0  0  0
    9.8682  -16.3526   25.7125 N   0  0  0  0  0  0  0  0  0  0  0  0
   10.1920  -17.1278   28.0184 C   0  0  0  0  0  0  0  0  0  0  0  0
    9.7600  -18.2402   27.6713 O   0  0  0  0  0  0  0  0  0  0  0  0
   10.6803  -16.9535   29.2947 O   0  0  0  0  0  0  0  0  0  0  0  0
  1  2  1  0
  3  2  1  0
  4  3  1  0
  5  4  1  0
  5  6  1  1
  7  8  2  0
  7  5  1  0
  9 10  1  0
 10 12  1  0
 11 10  2  0
 13 12  1  6
 13 14  1  0
 14  7  1  0
 15 13  1  0
 15 16  2  0
 18 17  1  0
 19 20  1  0
 19 18  1  0
 21 22  1  0
 21 20  1  1
 22 15  1  0
 23 21  1  0
 24 23  2  0
 25 23  1  0
M  END
$$$$
