MNM.pdb
     RDKit          3D

 25 24  0  0  1  0  0  0  0  0999 V2000
    8.4136  -11.6565   20.1770 C   0  0  0  0  0  0  0  0  0  0  0  0
    7.7523  -12.3633   18.6669 S   0  0  0  0  0  0  0  0  0  0  0  0
    7.8343  -14.1290   18.6176 C   0  0  0  0  0  0  0  0  0  0  0  0
    8.0242  -14.8532   19.8943 C   0  0  0  0  0  0  0  0  0  0  0  0
    8.1485  -16.3062   19.8099 C   0  0  2  0  0  0  0  0  0  0  0  0
    7.1356  -17.0408   19.1417 N   0  0  0  0  0  0  0  0  0  0  0  0
    8.3304  -16.9486   21.1698 C   0  0  0  0  0  0  0  0  0  0  0  0
    7.3347  -17.3661   21.8148 O   0  0  0  0  0  0  0  0  0  0  0  0
   11.3937  -20.2642   24.6942 N   0  0  0  0  0  0  0  0  0  0  0  0
   11.5659  -18.9097   24.3008 C   0  0  0  0  0  0  0  0  0  0  0  0
   12.1181  -18.1258   25.0950 O   0  0  0  0  0  0  0  0  0  0  0  0
   11.0941  -18.4668   22.9802 C   0  0  0  0  0  0  0  0  0  0  0  0
    9.8592  -17.6170   23.0866 C   0  0  2  0  0  0  0  0  0  0  0  0
    9.6148  -17.0919   21.7389 N   0  0  0  0  0  0  0  0  0  0  0  0
   10.0396  -16.4877   24.0206 C   0  0  0  0  0  0  0  0  0  0  0  0
   10.4351  -15.3559   23.5655 O   0  0  0  0  0  0  0  0  0  0  0  0
    6.5552  -10.9136   27.0411 C   0  0  0  0  0  0  0  0  0  0  0  0
    6.6875  -12.4291   26.0496 S   0  0  0  0  0  0  0  0  0  0  0  0
    8.1969  -13.3170   26.5813 C   0  0  0  0  0  0  0  0  0  0  0  0
    8.3644  -14.5678   25.7320 C   0  0  0  0  0  0  0  0  0  0  0  0
    9.6015  -15.3118   26.1981 C   0  0  2  0  0  0  0  0  0  0  0  0
    9.8081  -16.5220   25.4212 N   0  0  0  0  0  0  0  0  0  0  0  0
    9.6072  -15.5164   27.6509 C   0  0  0  0  0  0  0  0  0  0  0  0
    9.6793  -14.5497   28.4286 O   0  0  0  0  0  0  0  0  0  0  0  0
    9.5315  -16.7953   28.1574 O   0  0  0  0  0  0  0  0  0  0  0  0
  1  2  1  0
  3  2  1  0
  4  3  1  0
  5  4  1  0
  5  6  1  1
  7  8  2  0
  7  5  1  0
  9 10  1  0
 10 12  1  0
 11 10  2  0
 13 12  1  6
 13 14  1  0
 14  7  1  0
 15 13  1  0
 15 16  2  0
 18 17  1  0
 19 20  1  0
 19 18  1  0
 21 22  1  0
 21 20  1  6
 22 15  1  0
 23 21  1  0
 24 23  2  0
 25 23  1  0
M  END
$$$$
