MNM.pdb
     RDKit          3D

 25 24  0  0  1  0  0  0  0  0999 V2000
    8.8299  -11.6955   19.2785 C   0  0  0  0  0  0  0  0  0  0  0  0
    7.2325  -12.5081   19.2069 S   0  0  0  0  0  0  0  0  0  0  0  0
    7.2012  -14.0787   20.0188 C   0  0  0  0  0  0  0  0  0  0  0  0
    7.9303  -15.2026   19.3895 C   0  0  0  0  0  0  0  0  0  0  0  0
    8.0115  -16.4418   20.1585 C   0  0  2  0  0  0  0  0  0  0  0  0
    7.2112  -16.5777   21.3217 N   0  0  0  0  0  0  0  0  0  0  0  0
    9.4326  -16.7763   20.5633 C   0  0  0  0  0  0  0  0  0  0  0  0
    9.9572  -17.8621   20.2062 O   0  0  0  0  0  0  0  0  0  0  0  0
   12.3977  -14.3417   19.6788 N   0  0  0  0  0  0  0  0  0  0  0  0
   12.5580  -15.5938   20.3315 C   0  0  0  0  0  0  0  0  0  0  0  0
   12.7361  -16.6092   19.6335 O   0  0  0  0  0  0  0  0  0  0  0  0
   12.5108  -15.6637   21.7997 C   0  0  0  0  0  0  0  0  0  0  0  0
   11.2392  -16.3000   22.2859 C   0  0  2  0  0  0  0  0  0  0  0  0
   10.1944  -15.8808   21.3454 N   0  0  0  0  0  0  0  0  0  0  0  0
   10.8760  -15.8503   23.6446 C   0  0  0  0  0  0  0  0  0  0  0  0
   11.6077  -16.2024   24.6371 O   0  0  0  0  0  0  0  0  0  0  0  0
    7.6729  -11.6902   27.0548 C   0  0  0  0  0  0  0  0  0  0  0  0
    6.3338  -12.9107   26.9352 S   0  0  0  0  0  0  0  0  0  0  0  0
    7.0900  -14.5408   26.5883 C   0  0  0  0  0  0  0  0  0  0  0  0
    7.6988  -14.5210   25.1944 C   0  0  0  0  0  0  0  0  0  0  0  0
    9.0750  -15.1563   25.2542 C   0  0  2  0  0  0  0  0  0  0  0  0
    9.7635  -15.0344   23.9806 N   0  0  0  0  0  0  0  0  0  0  0  0
    9.0294  -16.5214   25.7898 C   0  0  0  0  0  0  0  0  0  0  0  0
    8.6755  -17.4736   25.0738 O   0  0  0  0  0  0  0  0  0  0  0  0
    9.3837  -16.7490   27.1015 O   0  0  0  0  0  0  0  0  0  0  0  0
  1  2  1  0
  3  2  1  0
  4  3  1  0
  5  4  1  0
  5  6  1  1
  7  8  2  0
  7  5  1  0
  9 10  1  0
 10 12  1  0
 11 10  2  0
 13 12  1  6
 13 14  1  0
 14  7  1  0
 15 13  1  0
 15 16  2  0
 18 17  1  0
 19 20  1  0
 19 18  1  0
 21 22  1  0
 21 20  1  6
 22 15  1  0
 23 21  1  0
 24 23  2  0
 25 23  1  0
M  END
$$$$
