THW.pdb
     RDKit          3D

 32 34  0  0  1  0  0  0  0  0999 V2000
   10.0006  -20.2232   21.5974 C   0  0  0  0  0  0  0  0  0  0  0  0
    9.8872  -19.8757   20.1343 C   0  0  1  0  0  0  0  0  0  0  0  0
    9.4086  -20.9500   19.3879 O   0  0  0  0  0  0  0  0  0  0  0  0
    8.9386  -18.7005   19.8994 C   0  0  2  0  0  0  0  0  0  0  0  0
    8.7134  -18.6396   18.4758 N   0  0  0  0  0  0  0  0  0  0  0  0
    9.4257  -17.4420   20.4769 C   0  0  0  0  0  0  0  0  0  0  0  0
   10.4375  -16.8957   19.9420 O   0  0  0  0  0  0  0  0  0  0  0  0
    8.8596  -16.7790   21.5870 N   0  0  0  0  0  0  0  0  0  0  0  0
    9.4022  -15.4878   22.0532 C   0  0  1  0  0  0  0  0  0  0  0  0
    8.3336  -14.4796   21.7018 C   0  0  0  0  0  0  0  0  0  0  0  0
    8.2248  -14.1710   20.2647 C   0  0  0  0  0  0  0  0  0  0  0  0
    8.9466  -14.6896   19.1821 C   0  0  0  0  0  0  0  0  0  0  0  0
    8.5238  -14.1263   18.0299 N   0  0  0  0  0  0  0  0  0  0  0  0
    7.5539  -13.2650   18.3568 C   0  0  0  0  0  0  0  0  0  0  0  0
    7.3649  -13.2820   19.6815 N   0  0  0  0  0  0  0  0  0  0  0  0
    9.7747  -15.5501   23.4572 C   0  0  0  0  0  0  0  0  0  0  0  0
   10.5261  -14.6075   23.8967 O   0  0  0  0  0  0  0  0  0  0  0  0
    9.4099  -16.5192   24.4006 N   0  0  0  0  0  0  0  0  0  0  0  0
    9.9965  -16.5655   25.7220 C   0  0  1  0  0  0  0  0  0  0  0  0
    8.9257  -16.4857   26.8055 C   0  0  0  0  0  0  0  0  0  0  0  0
    7.8065  -15.6234   26.3660 C   0  0  0  0  0  0  0  0  0  0  0  0
    6.6232  -16.0650   25.7655 C   0  0  0  0  0  0  0  0  0  0  0  0
    5.8424  -15.0065   25.4978 N   0  0  0  0  0  0  0  0  0  0  0  0
    6.4739  -13.8905   25.9022 C   0  0  0  0  0  0  0  0  0  0  0  0
    6.1197  -12.5367   25.8771 C   0  0  0  0  0  0  0  0  0  0  0  0
    6.9623  -11.5622   26.3812 C   0  0  0  0  0  0  0  0  0  0  0  0
    8.1564  -11.9674   26.9046 C   0  0  0  0  0  0  0  0  0  0  0  0
    8.5593  -13.2753   26.9564 C   0  0  0  0  0  0  0  0  0  0  0  0
    7.7086  -14.2503   26.4501 C   0  0  0  0  0  0  0  0  0  0  0  0
   10.9433  -17.6715   25.9263 C   0  0  0  0  0  0  0  0  0  0  0  0
   11.1883  -18.6470   24.9661 O   0  0  0  0  0  0  0  0  0  0  0  0
   11.6023  -17.8062   27.0014 O   0  0  0  0  0  0  0  0  0  0  0  0
  2  1  1  1
  2  4  1  0
  3  2  1  0
  4  5  1  6
  6  8  1  0
  6  4  1  0
  7  6  2  0
  9  8  1  0
  9 16  1  0
  9 10  1  1
 11 12  2  0
 11 10  1  0
 13 12  1  0
 14 15  2  0
 14 13  1  0
 15 11  1  0
 16 18  1  0
 17 16  2  0
 18 19  1  0
 19 20  1  1
 19 30  1  0
 21 20  1  0
 22 21  2  0
 23 22  1  0
 24 23  1  0
 24 29  2  0
 25 24  1  0
 26 25  2  0
 26 27  1  0
 27 28  2  0
 28 29  1  0
 29 21  1  0
 30 32  2  0
 30 31  1  0
M  END
$$$$
