THW.pdb
     RDKit          3D

 32 34  0  0  1  0  0  0  0  0999 V2000
    6.6912  -19.1996   26.2725 C   0  0  0  0  0  0  0  0  0  0  0  0
    7.3300  -18.4631   25.1219 C   0  0  1  0  0  0  0  0  0  0  0  0
    8.6660  -18.8231   24.9614 O   0  0  0  0  0  0  0  0  0  0  0  0
    6.6203  -18.7479   23.7985 C   0  0  2  0  0  0  0  0  0  0  0  0
    6.6241  -20.1814   23.6369 N   0  0  0  0  0  0  0  0  0  0  0  0
    7.2033  -18.0218   22.6637 C   0  0  0  0  0  0  0  0  0  0  0  0
    7.8618  -18.6873   21.8083 O   0  0  0  0  0  0  0  0  0  0  0  0
    7.0928  -16.6329   22.4385 N   0  0  0  0  0  0  0  0  0  0  0  0
    7.8177  -15.9877   21.3261 C   0  0  1  0  0  0  0  0  0  0  0  0
    6.9598  -14.8017   20.9531 C   0  0  0  0  0  0  0  0  0  0  0  0
    7.4862  -13.9829   19.8464 C   0  0  0  0  0  0  0  0  0  0  0  0
    7.9827  -12.6732   19.8614 C   0  0  0  0  0  0  0  0  0  0  0  0
    8.3614  -12.3062   18.6181 N   0  0  0  0  0  0  0  0  0  0  0  0
    8.1165  -13.3501   17.8183 C   0  0  0  0  0  0  0  0  0  0  0  0
    7.5973  -14.3539   18.5350 N   0  0  0  0  0  0  0  0  0  0  0  0
    9.1894  -15.6828   21.6991 C   0  0  0  0  0  0  0  0  0  0  0  0
   10.1132  -16.2332   20.9990 O   0  0  0  0  0  0  0  0  0  0  0  0
    9.6334  -14.8524   22.7362 N   0  0  0  0  0  0  0  0  0  0  0  0
   10.2600  -15.3793   23.9288 C   0  0  1  0  0  0  0  0  0  0  0  0
    9.2180  -15.8233   24.9507 C   0  0  0  0  0  0  0  0  0  0  0  0
    9.0559  -14.7980   26.0051 C   0  0  0  0  0  0  0  0  0  0  0  0
    9.8459  -14.6756   27.1525 C   0  0  0  0  0  0  0  0  0  0  0  0
    9.4056  -13.6388   27.8828 N   0  0  0  0  0  0  0  0  0  0  0  0
    8.3571  -13.0808   27.2528 C   0  0  0  0  0  0  0  0  0  0  0  0
    7.5399  -11.9858   27.5559 C   0  0  0  0  0  0  0  0  0  0  0  0
    6.5120  -11.5994   26.7145 C   0  0  0  0  0  0  0  0  0  0  0  0
    6.3202  -12.3262   25.5748 C   0  0  0  0  0  0  0  0  0  0  0  0
    7.0851  -13.4069   25.2244 C   0  0  0  0  0  0  0  0  0  0  0  0
    8.1171  -13.7900   26.0722 C   0  0  0  0  0  0  0  0  0  0  0  0
   11.2889  -16.3978   23.6734 C   0  0  0  0  0  0  0  0  0  0  0  0
   10.9898  -17.6883   23.2507 O   0  0  0  0  0  0  0  0  0  0  0  0
   12.5256  -16.1607   23.8240 O   0  0  0  0  0  0  0  0  0  0  0  0
  2  1  1  1
  2  4  1  0
  3  2  1  0
  4  5  1  6
  6  8  1  0
  6  4  1  0
  7  6  2  0
  9  8  1  0
  9 16  1  0
  9 10  1  1
 11 12  2  0
 11 10  1  0
 13 12  1  0
 14 15  2  0
 14 13  1  0
 15 11  1  0
 16 18  1  0
 17 16  2  0
 18 19  1  0
 19 20  1  1
 19 30  1  0
 21 20  1  0
 22 21  2  0
 23 22  1  0
 24 23  1  0
 24 29  2  0
 25 24  1  0
 26 25  2  0
 26 27  1  0
 27 28  2  0
 28 29  1  0
 29 21  1  0
 30 32  2  0
 30 31  1  0
M  END
$$$$
