THW.pdb
     RDKit          3D

 32 34  0  0  1  0  0  0  0  0999 V2000
    7.8644  -12.0499   20.1320 C   0  0  0  0  0  0  0  0  0  0  0  0
    8.2936  -13.2196   20.9817 C   0  0  1  0  0  0  0  0  0  0  0  0
    7.7423  -13.1548   22.2592 O   0  0  0  0  0  0  0  0  0  0  0  0
    7.8686  -14.5545   20.3705 C   0  0  2  0  0  0  0  0  0  0  0  0
    6.4549  -14.4466   20.1043 N   0  0  0  0  0  0  0  0  0  0  0  0
    8.2291  -15.7098   21.2012 C   0  0  0  0  0  0  0  0  0  0  0  0
    7.2977  -16.3135   21.8147 O   0  0  0  0  0  0  0  0  0  0  0  0
    9.5356  -16.2136   21.3778 N   0  0  0  0  0  0  0  0  0  0  0  0
    9.8063  -17.2860   22.3554 C   0  0  1  0  0  0  0  0  0  0  0  0
   10.9566  -18.0613   21.7575 C   0  0  0  0  0  0  0  0  0  0  0  0
   11.4550  -19.1686   22.5927 C   0  0  0  0  0  0  0  0  0  0  0  0
   12.5739  -19.2200   23.4338 C   0  0  0  0  0  0  0  0  0  0  0  0
   12.6631  -20.4364   24.0136 N   0  0  0  0  0  0  0  0  0  0  0  0
   11.6298  -21.1547   23.5601 C   0  0  0  0  0  0  0  0  0  0  0  0
   10.9028  -20.4135   22.7158 N   0  0  0  0  0  0  0  0  0  0  0  0
   10.0344  -16.7412   23.6839 C   0  0  0  0  0  0  0  0  0  0  0  0
   10.8269  -15.7354   23.7663 O   0  0  0  0  0  0  0  0  0  0  0  0
    9.4894  -17.1797   24.8975 N   0  0  0  0  0  0  0  0  0  0  0  0
    9.9236  -16.6501   26.1717 C   0  0  1  0  0  0  0  0  0  0  0  0
    8.7333  -16.2676   27.0459 C   0  0  0  0  0  0  0  0  0  0  0  0
    7.7711  -15.4443   26.2806 C   0  0  0  0  0  0  0  0  0  0  0  0
    6.6741  -15.9286   25.5612 C   0  0  0  0  0  0  0  0  0  0  0  0
    6.0309  -14.8979   24.9903 N   0  0  0  0  0  0  0  0  0  0  0  0
    6.6690  -13.7589   25.3118 C   0  0  0  0  0  0  0  0  0  0  0  0
    6.4273  -12.4153   25.0034 C   0  0  0  0  0  0  0  0  0  0  0  0
    7.2458  -11.4079   25.4820 C   0  0  0  0  0  0  0  0  0  0  0  0
    8.3022  -11.7705   26.2671 C   0  0  0  0  0  0  0  0  0  0  0  0
    8.5908  -13.0666   26.6025 C   0  0  0  0  0  0  0  0  0  0  0  0
    7.7648  -14.0745   26.1204 C   0  0  0  0  0  0  0  0  0  0  0  0
   10.9090  -17.4868   26.8718 C   0  0  0  0  0  0  0  0  0  0  0  0
   11.4907  -17.1219   28.0810 O   0  0  0  0  0  0  0  0  0  0  0  0
   11.2938  -18.6044   26.4123 O   0  0  0  0  0  0  0  0  0  0  0  0
  2  1  1  6
  2  4  1  0
  3  2  1  0
  4  5  1  1
  6  8  1  0
  6  4  1  0
  7  6  2  0
  9  8  1  0
  9 16  1  0
  9 10  1  6
 11 12  2  0
 11 10  1  0
 13 12  1  0
 14 15  2  0
 14 13  1  0
 15 11  1  0
 16 18  1  0
 17 16  2  0
 18 19  1  0
 19 20  1  1
 19 30  1  0
 21 20  1  0
 22 21  2  0
 23 22  1  0
 24 23  1  0
 24 29  2  0
 25 24  1  0
 26 25  2  0
 26 27  1  0
 27 28  2  0
 28 29  1  0
 29 21  1  0
 30 32  2  0
 30 31  1  0
M  END
$$$$
