THW.pdb
     RDKit          3D

 32 34  0  0  1  0  0  0  0  0999 V2000
    8.2482  -12.0224   19.4297 C   0  0  0  0  0  0  0  0  0  0  0  0
    8.4126  -13.1215   20.4491 C   0  0  1  0  0  0  0  0  0  0  0  0
    7.3162  -13.1950   21.3050 O   0  0  0  0  0  0  0  0  0  0  0  0
    8.5672  -14.4919   19.7899 C   0  0  2  0  0  0  0  0  0  0  0  0
    7.3735  -14.7024   19.0078 N   0  0  0  0  0  0  0  0  0  0  0  0
    8.8434  -15.5662   20.7513 C   0  0  0  0  0  0  0  0  0  0  0  0
    7.8806  -16.3159   21.0965 O   0  0  0  0  0  0  0  0  0  0  0  0
   10.1007  -15.8415   21.3305 N   0  0  0  0  0  0  0  0  0  0  0  0
   10.2898  -17.0173   22.2026 C   0  0  1  0  0  0  0  0  0  0  0  0
   11.5331  -17.6885   21.6682 C   0  0  0  0  0  0  0  0  0  0  0  0
   11.3022  -18.6055   20.5378 C   0  0  0  0  0  0  0  0  0  0  0  0
   10.0995  -18.9986   19.9372 C   0  0  0  0  0  0  0  0  0  0  0  0
   10.3452  -19.8601   18.9266 N   0  0  0  0  0  0  0  0  0  0  0  0
   11.6721  -20.0215   18.8737 C   0  0  0  0  0  0  0  0  0  0  0  0
   12.2536  -19.2810   19.8246 N   0  0  0  0  0  0  0  0  0  0  0  0
   10.3327  -16.6314   23.6036 C   0  0  0  0  0  0  0  0  0  0  0  0
   11.0291  -15.5938   23.8947 O   0  0  0  0  0  0  0  0  0  0  0  0
    9.7000  -17.2555   24.6864 N   0  0  0  0  0  0  0  0  0  0  0  0
    9.8793  -16.8014   26.0480 C   0  0  1  0  0  0  0  0  0  0  0  0
    8.5596  -16.8137   26.8132 C   0  0  0  0  0  0  0  0  0  0  0  0
    7.6001  -15.8641   26.2075 C   0  0  0  0  0  0  0  0  0  0  0  0
    6.5206  -16.2067   25.3871 C   0  0  0  0  0  0  0  0  0  0  0  0
    5.8744  -15.0893   25.0185 N   0  0  0  0  0  0  0  0  0  0  0  0
    6.4935  -14.0305   25.5693 C   0  0  0  0  0  0  0  0  0  0  0  0
    6.2407  -12.6547   25.5270 C   0  0  0  0  0  0  0  0  0  0  0  0
    7.0392  -11.7542   26.2092 C   0  0  0  0  0  0  0  0  0  0  0  0
    8.0871  -12.2552   26.9267 C   0  0  0  0  0  0  0  0  0  0  0  0
    8.3858  -13.5894   27.0057 C   0  0  0  0  0  0  0  0  0  0  0  0
    7.5798  -14.4897   26.3198 C   0  0  0  0  0  0  0  0  0  0  0  0
   10.9719  -17.4687   26.7706 C   0  0  0  0  0  0  0  0  0  0  0  0
   11.3820  -17.0888   28.0439 O   0  0  0  0  0  0  0  0  0  0  0  0
   11.6150  -18.4420   26.2731 O   0  0  0  0  0  0  0  0  0  0  0  0
  2  1  1  6
  2  4  1  0
  3  2  1  0
  4  5  1  1
  6  8  1  0
  6  4  1  0
  7  6  2  0
  9  8  1  0
  9 16  1  0
  9 10  1  6
 11 12  2  0
 11 10  1  0
 13 12  1  0
 14 15  2  0
 14 13  1  0
 15 11  1  0
 16 18  1  0
 17 16  2  0
 18 19  1  0
 19 20  1  1
 19 30  1  0
 21 20  1  0
 22 21  2  0
 23 22  1  0
 24 23  1  0
 24 29  2  0
 25 24  1  0
 26 25  2  0
 26 27  1  0
 27 28  2  0
 28 29  1  0
 29 21  1  0
 30 32  2  0
 30 31  1  0
M  END
$$$$
