THW.pdb
     RDKit          3D

 32 34  0  0  1  0  0  0  0  0999 V2000
   14.8602  -15.5456   18.8767 C   0  0  0  0  0  0  0  0  0  0  0  0
   13.6770  -15.7978   19.7771 C   0  0  1  0  0  0  0  0  0  0  0  0
   13.7987  -15.1170   20.9862 O   0  0  0  0  0  0  0  0  0  0  0  0
   12.3651  -15.3500   19.1333 C   0  0  2  0  0  0  0  0  0  0  0  0
   12.5153  -13.9451   18.8422 N   0  0  0  0  0  0  0  0  0  0  0  0
   11.1859  -15.6636   19.9494 C   0  0  0  0  0  0  0  0  0  0  0  0
   10.5924  -14.7041   20.5284 O   0  0  0  0  0  0  0  0  0  0  0  0
   10.6484  -16.9537   20.1471 N   0  0  0  0  0  0  0  0  0  0  0  0
    9.4996  -17.1633   21.0500 C   0  0  1  0  0  0  0  0  0  0  0  0
    8.7766  -18.3567   20.4711 C   0  0  0  0  0  0  0  0  0  0  0  0
    8.1577  -18.1241   19.1539 C   0  0  0  0  0  0  0  0  0  0  0  0
    8.1859  -16.9829   18.3422 C   0  0  0  0  0  0  0  0  0  0  0  0
    7.4811  -17.2005   17.2109 N   0  0  0  0  0  0  0  0  0  0  0  0
    7.0080  -18.4494   17.2875 C   0  0  0  0  0  0  0  0  0  0  0  0
    7.4033  -19.0105   18.4362 N   0  0  0  0  0  0  0  0  0  0  0  0
    9.9337  -17.2966   22.4311 C   0  0  0  0  0  0  0  0  0  0  0  0
   11.1305  -16.9191   22.6982 O   0  0  0  0  0  0  0  0  0  0  0  0
    9.2002  -17.7881   23.5185 N   0  0  0  0  0  0  0  0  0  0  0  0
    8.9861  -17.0079   24.7177 C   0  0  1  0  0  0  0  0  0  0  0  0
    8.5286  -15.5919   24.3817 C   0  0  0  0  0  0  0  0  0  0  0  0
    8.3507  -14.7975   25.6172 C   0  0  0  0  0  0  0  0  0  0  0  0
    8.9635  -15.0543   26.8478 C   0  0  0  0  0  0  0  0  0  0  0  0
    8.5652  -14.1336   27.7397 N   0  0  0  0  0  0  0  0  0  0  0  0
    7.7148  -13.2857   27.1351 C   0  0  0  0  0  0  0  0  0  0  0  0
    7.0218  -12.1553   27.5830 C   0  0  0  0  0  0  0  0  0  0  0  0
    6.2003  -11.4319   26.7371 C   0  0  0  0  0  0  0  0  0  0  0  0
    6.0869  -11.8607   25.4459 C   0  0  0  0  0  0  0  0  0  0  0  0
    6.7380  -12.9585   24.9494 C   0  0  0  0  0  0  0  0  0  0  0  0
    7.5631  -13.6807   25.8027 C   0  0  0  0  0  0  0  0  0  0  0  0
    8.1400  -17.6643   25.7249 C   0  0  0  0  0  0  0  0  0  0  0  0
    6.8586  -18.1300   25.4515 O   0  0  0  0  0  0  0  0  0  0  0  0
    8.5297  -17.8488   26.9175 O   0  0  0  0  0  0  0  0  0  0  0  0
  2  1  1  6
  2  4  1  0
  3  2  1  0
  4  5  1  1
  6  8  1  0
  6  4  1  0
  7  6  2  0
  9  8  1  0
  9 16  1  0
  9 10  1  6
 11 12  2  0
 11 10  1  0
 13 12  1  0
 14 15  2  0
 14 13  1  0
 15 11  1  0
 16 18  1  0
 17 16  2  0
 18 19  1  0
 19 20  1  6
 19 30  1  0
 21 20  1  0
 22 21  2  0
 23 22  1  0
 24 23  1  0
 24 29  2  0
 25 24  1  0
 26 25  2  0
 26 27  1  0
 27 28  2  0
 28 29  1  0
 29 21  1  0
 30 32  2  0
 30 31  1  0
M  END
$$$$
