QMI.pdb
     RDKit          3D

 26 25  0  0  1  0  0  0  0  0999 V2000
   21.2826  -18.1450  -20.3667 N   0  0  0  0  0  0  0  0  0  0  0  0
   20.5458  -17.1247  -19.6664 C   0  0  0  0  0  0  0  0  0  0  0  0
   19.4309  -16.8422  -20.1327 O   0  0  0  0  0  0  0  0  0  0  0  0
   21.1148  -16.4851  -18.4879 C   0  0  0  0  0  0  0  0  0  0  0  0
   20.1978  -15.5187  -17.8176 C   0  0  0  0  0  0  0  0  0  0  0  0
   20.5013  -14.1189  -18.1959 C   0  0  2  0  0  0  0  0  0  0  0  0
   21.3802  -13.9337  -19.3126 N   0  0  0  0  0  0  0  0  0  0  0  0
   21.1056  -13.3460  -17.0579 C   0  0  0  0  0  0  0  0  0  0  0  0
   20.5922  -13.3058  -15.9099 O   0  0  0  0  0  0  0  0  0  0  0  0
   27.3489  -11.9018  -15.9650 C   0  0  0  0  0  0  0  0  0  0  0  0
   26.5929  -13.4559  -15.4842 S   0  0  0  0  0  0  0  0  0  0  0  0
   24.7757  -13.2848  -15.3350 C   0  0  0  0  0  0  0  0  0  0  0  0
   24.3596  -12.1023  -16.1567 C   0  0  0  0  0  0  0  0  0  0  0  0
   22.8946  -11.8069  -16.1423 C   0  0  2  0  0  0  0  0  0  0  0  0
   22.3126  -12.6075  -17.2288 N   0  0  0  0  0  0  0  0  0  0  0  0
   22.5720  -10.3745  -16.4219 C   0  0  0  0  0  0  0  0  0  0  0  0
   22.7950   -9.9065  -17.5644 O   0  0  0  0  0  0  0  0  0  0  0  0
   18.7429   -6.6342  -17.6536 C   0  0  0  0  0  0  0  0  0  0  0  0
   20.0024   -6.7215  -16.8725 C   0  0  0  0  0  0  0  0  0  0  0  0
   20.4538   -8.0500  -16.4273 C   0  0  2  0  0  0  0  0  0  0  0  0
   19.4042   -8.9058  -15.7634 C   0  0  0  0  0  0  0  0  0  0  0  0
   21.7678   -8.1229  -15.7593 C   0  0  2  0  0  0  0  0  0  0  0  0
   22.0246   -9.5405  -15.4333 N   0  0  0  0  0  0  0  0  0  0  0  0
   21.9809   -7.3081  -14.5653 C   0  0  0  0  0  0  0  0  0  0  0  0
   22.1810   -7.8819  -13.3052 O   0  0  0  0  0  0  0  0  0  0  0  0
   21.9958   -6.0559  -14.6058 O   0  0  0  0  0  0  0  0  0  0  0  0
  2  3  2  0
  2  1  1  0
  4  2  1  0
  5  4  1  0
  6  5  1  0
  6  7  1  6
  8  9  2  0
  8  6  1  0
 10 11  1  0
 11 12  1  0
 13 12  1  0
 14 13  1  6
 14 15  1  0
 15  8  1  0
 16 14  1  0
 16 17  2  0
 19 20  1  0
 19 18  1  0
 20 21  1  1
 20 22  1  0
 22 23  1  1
 22 24  1  0
 23 16  1  0
 24 25  1  0
 26 24  2  0
M  END
$$$$
