QMI.pdb
     RDKit          3D

 26 25  0  0  1  0  0  0  0  0999 V2000
   20.1838  -21.3419  -17.9237 N   0  0  0  0  0  0  0  0  0  0  0  0
   19.1935  -22.1778  -17.2953 C   0  0  0  0  0  0  0  0  0  0  0  0
   18.1254  -22.3134  -17.9127 O   0  0  0  0  0  0  0  0  0  0  0  0
   19.4687  -22.8036  -16.0091 C   0  0  0  0  0  0  0  0  0  0  0  0
   20.8523  -22.5717  -15.5033 C   0  0  0  0  0  0  0  0  0  0  0  0
   20.8835  -22.4335  -14.0287 C   0  0  2  0  0  0  0  0  0  0  0  0
   19.6874  -21.9486  -13.4058 N   0  0  0  0  0  0  0  0  0  0  0  0
   21.9889  -21.5245  -13.5711 C   0  0  0  0  0  0  0  0  0  0  0  0
   21.8346  -20.2857  -13.4141 O   0  0  0  0  0  0  0  0  0  0  0  0
   26.7003  -19.2146   -9.0776 C   0  0  0  0  0  0  0  0  0  0  0  0
   25.7181  -20.6041   -9.6456 S   0  0  0  0  0  0  0  0  0  0  0  0
   26.3363  -21.2342  -11.2501 C   0  0  0  0  0  0  0  0  0  0  0  0
   25.2138  -21.9739  -11.9131 C   0  0  0  0  0  0  0  0  0  0  0  0
   24.3893  -21.1583  -12.8558 C   0  0  2  0  0  0  0  0  0  0  0  0
   23.2900  -22.0329  -13.2879 N   0  0  0  0  0  0  0  0  0  0  0  0
   25.1302  -20.7339  -14.0825 C   0  0  0  0  0  0  0  0  0  0  0  0
   25.4715  -21.5997  -14.9240 O   0  0  0  0  0  0  0  0  0  0  0  0
   24.0751  -17.0742  -18.4275 C   0  0  0  0  0  0  0  0  0  0  0  0
   25.1597  -17.7733  -17.6933 C   0  0  0  0  0  0  0  0  0  0  0  0
   24.8730  -18.2710  -16.3379 C   0  0  2  0  0  0  0  0  0  0  0  0
   24.1290  -17.3168  -15.4375 C   0  0  0  0  0  0  0  0  0  0  0  0
   25.9576  -18.9939  -15.6455 C   0  0  2  0  0  0  0  0  0  0  0  0
   25.4528  -19.3868  -14.3141 N   0  0  0  0  0  0  0  0  0  0  0  0
   27.2464  -18.3226  -15.4929 C   0  0  0  0  0  0  0  0  0  0  0  0
   28.2263  -18.3688  -16.4903 O   0  0  0  0  0  0  0  0  0  0  0  0
   27.5422  -17.6718  -14.4639 O   0  0  0  0  0  0  0  0  0  0  0  0
  2  3  2  0
  2  1  1  0
  4  2  1  0
  5  4  1  0
  6  5  1  0
  6  7  1  6
  8  9  2  0
  8  6  1  0
 10 11  1  0
 11 12  1  0
 13 12  1  0
 14 13  1  1
 14 15  1  0
 15  8  1  0
 16 14  1  0
 16 17  2  0
 19 20  1  0
 19 18  1  0
 20 21  1  1
 20 22  1  0
 22 23  1  1
 22 24  1  0
 23 16  1  0
 24 25  1  0
 26 24  2  0
M  END
$$$$
