QMI.pdb
     RDKit          3D

 26 25  0  0  1  0  0  0  0  0999 V2000
   19.8803  -23.4673  -13.0044 N   0  0  0  0  0  0  0  0  0  0  0  0
   18.6515  -22.8066  -12.6468 C   0  0  0  0  0  0  0  0  0  0  0  0
   17.6091  -23.4470  -12.8556 O   0  0  0  0  0  0  0  0  0  0  0  0
   18.6762  -21.4647  -12.0808 C   0  0  0  0  0  0  0  0  0  0  0  0
   20.0401  -20.8693  -11.9859 C   0  0  0  0  0  0  0  0  0  0  0  0
   20.9327  -21.3638  -13.0599 C   0  0  2  0  0  0  0  0  0  0  0  0
   21.3705  -22.7242  -12.9526 N   0  0  0  0  0  0  0  0  0  0  0  0
   22.1791  -20.5340  -13.1834 C   0  0  0  0  0  0  0  0  0  0  0  0
   22.1565  -19.2894  -13.3671 O   0  0  0  0  0  0  0  0  0  0  0  0
   28.1846  -21.2816  -10.5843 C   0  0  0  0  0  0  0  0  0  0  0  0
   26.6135  -21.1904   -9.7233 S   0  0  0  0  0  0  0  0  0  0  0  0
   25.3090  -20.4988  -10.8068 C   0  0  0  0  0  0  0  0  0  0  0  0
   25.6517  -20.8590  -12.2208 C   0  0  0  0  0  0  0  0  0  0  0  0
   24.7022  -20.3416  -13.2526 C   0  0  2  0  0  0  0  0  0  0  0  0
   23.4712  -21.1294  -13.0968 N   0  0  0  0  0  0  0  0  0  0  0  0
   25.1813  -20.5356  -14.6550 C   0  0  0  0  0  0  0  0  0  0  0  0
   25.3515  -21.7000  -15.0902 O   0  0  0  0  0  0  0  0  0  0  0  0
   22.5400  -18.1330  -17.6509 C   0  0  0  0  0  0  0  0  0  0  0  0
   23.4910  -19.2719  -17.5974 C   0  0  0  0  0  0  0  0  0  0  0  0
   24.9245  -18.9897  -17.7772 C   0  0  2  0  0  0  0  0  0  0  0  0
   25.4000  -18.9181  -19.2067 C   0  0  0  0  0  0  0  0  0  0  0  0
   25.8646  -19.7010  -16.8892 C   0  0  2  0  0  0  0  0  0  0  0  0
   25.4451  -19.4428  -15.4967 N   0  0  0  0  0  0  0  0  0  0  0  0
   27.2911  -19.4145  -17.0233 C   0  0  0  0  0  0  0  0  0  0  0  0
   28.2150  -20.4071  -17.3676 O   0  0  0  0  0  0  0  0  0  0  0  0
   27.7620  -18.2683  -16.8377 O   0  0  0  0  0  0  0  0  0  0  0  0
  2  3  2  0
  2  1  1  0
  4  2  1  0
  5  4  1  0
  6  5  1  0
  6  7  1  1
  8  9  2  0
  8  6  1  0
 10 11  1  0
 11 12  1  0
 13 12  1  0
 14 13  1  1
 14 15  1  0
 15  8  1  0
 16 14  1  0
 16 17  2  0
 19 20  1  0
 19 18  1  0
 20 21  1  6
 20 22  1  0
 22 23  1  1
 22 24  1  0
 23 16  1  0
 24 25  1  0
 26 24  2  0
M  END
$$$$
