QMI.pdb
     RDKit          3D

 26 25  0  0  1  0  0  0  0  0999 V2000
   26.3084  -16.3982  -15.7401 N   0  0  0  0  0  0  0  0  0  0  0  0
   27.6832  -16.6990  -16.0462 C   0  0  0  0  0  0  0  0  0  0  0  0
   28.3061  -15.8236  -16.6674 O   0  0  0  0  0  0  0  0  0  0  0  0
   28.2665  -17.9692  -15.6364 C   0  0  0  0  0  0  0  0  0  0  0  0
   27.3564  -18.8207  -14.8174 C   0  0  0  0  0  0  0  0  0  0  0  0
   27.9913  -20.1068  -14.4465 C   0  0  2  0  0  0  0  0  0  0  0  0
   28.3773  -20.9653  -15.5272 N   0  0  0  0  0  0  0  0  0  0  0  0
   27.1104  -20.9331  -13.5528 C   0  0  0  0  0  0  0  0  0  0  0  0
   26.4191  -21.8960  -13.9749 O   0  0  0  0  0  0  0  0  0  0  0  0
   27.0263  -19.4422   -7.3377 C   0  0  0  0  0  0  0  0  0  0  0  0
   25.9132  -20.8460   -7.2482 S   0  0  0  0  0  0  0  0  0  0  0  0
   25.2471  -21.2636   -8.9023 C   0  0  0  0  0  0  0  0  0  0  0  0
   26.2677  -20.8560   -9.9215 C   0  0  0  0  0  0  0  0  0  0  0  0
   25.9143  -21.1844  -11.3361 C   0  0  2  0  0  0  0  0  0  0  0  0
   27.0144  -20.6595  -12.1573 N   0  0  0  0  0  0  0  0  0  0  0  0
   24.6558  -20.5280  -11.8044 C   0  0  0  0  0  0  0  0  0  0  0  0
   24.6449  -19.2884  -11.9974 O   0  0  0  0  0  0  0  0  0  0  0  0
   21.2810  -20.2556  -16.3093 C   0  0  0  0  0  0  0  0  0  0  0  0
   21.2263  -20.1758  -14.8278 C   0  0  0  0  0  0  0  0  0  0  0  0
   22.3485  -20.7390  -14.0594 C   0  0  2  0  0  0  0  0  0  0  0  0
   22.8126  -22.1072  -14.4922 C   0  0  0  0  0  0  0  0  0  0  0  0
   22.3040  -20.5798  -12.5928 C   0  0  2  0  0  0  0  0  0  0  0  0
   23.4847  -21.2687  -12.0331 N   0  0  0  0  0  0  0  0  0  0  0  0
   21.1058  -21.0272  -11.8863 C   0  0  0  0  0  0  0  0  0  0  0  0
   21.1355  -22.0966  -10.9848 O   0  0  0  0  0  0  0  0  0  0  0  0
   19.9910  -20.4790  -12.0495 O   0  0  0  0  0  0  0  0  0  0  0  0
  2  3  2  0
  2  1  1  0
  4  2  1  0
  5  4  1  0
  6  5  1  0
  6  7  1  6
  8  9  2  0
  8  6  1  0
 10 11  1  0
 11 12  1  0
 13 12  1  0
 14 13  1  1
 14 15  1  0
 15  8  1  0
 16 14  1  0
 16 17  2  0
 19 20  1  0
 19 18  1  0
 20 21  1  1
 20 22  1  0
 22 23  1  1
 22 24  1  0
 23 16  1  0
 24 25  1  0
 26 24  2  0
M  END
$$$$
