QMI.pdb
     RDKit          3D

 26 25  0  0  1  0  0  0  0  0999 V2000
   21.4408  -23.0980  -13.7596 N   0  0  0  0  0  0  0  0  0  0  0  0
   20.3179  -22.5260  -13.0625 C   0  0  0  0  0  0  0  0  0  0  0  0
   19.3206  -23.2556  -12.9469 O   0  0  0  0  0  0  0  0  0  0  0  0
   20.3893  -21.1665  -12.5444 C   0  0  0  0  0  0  0  0  0  0  0  0
   21.7358  -20.5377  -12.6691 C   0  0  0  0  0  0  0  0  0  0  0  0
   22.6536  -20.9846  -11.5956 C   0  0  2  0  0  0  0  0  0  0  0  0
   22.2971  -20.6210  -10.2560 N   0  0  0  0  0  0  0  0  0  0  0  0
   24.0535  -20.4806  -11.8050 C   0  0  0  0  0  0  0  0  0  0  0  0
   24.3105  -19.2954  -12.1402 O   0  0  0  0  0  0  0  0  0  0  0  0
   30.3577  -19.8558  -10.1932 C   0  0  0  0  0  0  0  0  0  0  0  0
   29.8826  -21.5759  -10.3767 S   0  0  0  0  0  0  0  0  0  0  0  0
   28.8888  -21.8254  -11.8945 C   0  0  0  0  0  0  0  0  0  0  0  0
   27.4543  -21.9655  -11.4829 C   0  0  0  0  0  0  0  0  0  0  0  0
   26.5262  -20.9524  -12.0713 C   0  0  2  0  0  0  0  0  0  0  0  0
   25.1783  -21.3383  -11.6302 N   0  0  0  0  0  0  0  0  0  0  0  0
   26.5213  -20.9448  -13.5659 C   0  0  0  0  0  0  0  0  0  0  0  0
   25.8542  -21.8104  -14.1821 O   0  0  0  0  0  0  0  0  0  0  0  0
   25.6337  -17.6202  -18.1030 C   0  0  0  0  0  0  0  0  0  0  0  0
   26.9015  -18.1717  -17.5618 C   0  0  0  0  0  0  0  0  0  0  0  0
   26.9641  -18.4904  -16.1260 C   0  0  2  0  0  0  0  0  0  0  0  0
   27.8659  -17.6064  -15.3014 C   0  0  0  0  0  0  0  0  0  0  0  0
   27.0584  -19.9168  -15.7591 C   0  0  2  0  0  0  0  0  0  0  0  0
   27.2472  -19.9896  -14.2959 N   0  0  0  0  0  0  0  0  0  0  0  0
   28.0763  -20.7326  -16.4171 C   0  0  0  0  0  0  0  0  0  0  0  0
   29.3575  -20.8922  -15.8781 O   0  0  0  0  0  0  0  0  0  0  0  0
   27.8572  -21.3311  -17.4959 O   0  0  0  0  0  0  0  0  0  0  0  0
  2  3  2  0
  2  1  1  0
  4  2  1  0
  5  4  1  0
  6  5  1  0
  6  7  1  1
  8  9  2  0
  8  6  1  0
 10 11  1  0
 11 12  1  0
 13 12  1  0
 14 13  1  6
 14 15  1  0
 15  8  1  0
 16 14  1  0
 16 17  2  0
 19 20  1  0
 19 18  1  0
 20 21  1  6
 20 22  1  0
 22 23  1  1
 22 24  1  0
 23 16  1  0
 24 25  1  0
 26 24  2  0
M  END
$$$$
