QMI.pdb
     RDKit          3D

 26 25  0  0  1  0  0  0  0  0999 V2000
   25.5585  -17.9651  -15.7575 N   0  0  0  0  0  0  0  0  0  0  0  0
   26.6436  -17.9722  -16.7045 C   0  0  0  0  0  0  0  0  0  0  0  0
   26.3780  -17.5449  -17.8390 O   0  0  0  0  0  0  0  0  0  0  0  0
   27.9574  -18.4647  -16.3132 C   0  0  0  0  0  0  0  0  0  0  0  0
   28.0615  -18.8440  -14.8747 C   0  0  0  0  0  0  0  0  0  0  0  0
   28.1543  -20.3118  -14.6977 C   0  0  2  0  0  0  0  0  0  0  0  0
   28.2143  -21.0984  -15.8941 N   0  0  0  0  0  0  0  0  0  0  0  0
   27.0045  -20.8569  -13.8986 C   0  0  0  0  0  0  0  0  0  0  0  0
   26.1328  -21.6207  -14.3882 O   0  0  0  0  0  0  0  0  0  0  0  0
   27.0252  -19.5000   -7.7955 C   0  0  0  0  0  0  0  0  0  0  0  0
   25.4928  -20.4245   -7.6730 S   0  0  0  0  0  0  0  0  0  0  0  0
   24.9626  -21.0391   -9.3147 C   0  0  0  0  0  0  0  0  0  0  0  0
   26.0108  -20.6435  -10.3104 C   0  0  0  0  0  0  0  0  0  0  0  0
   25.7334  -21.0596  -11.7189 C   0  0  2  0  0  0  0  0  0  0  0  0
   26.8442  -20.5277  -12.5211 N   0  0  0  0  0  0  0  0  0  0  0  0
   24.4690  -20.4861  -12.2724 C   0  0  0  0  0  0  0  0  0  0  0  0
   24.3940  -19.2509  -12.4793 O   0  0  0  0  0  0  0  0  0  0  0  0
   22.9616  -21.2186  -16.8779 C   0  0  0  0  0  0  0  0  0  0  0  0
   23.0898  -20.7865  -15.4633 C   0  0  0  0  0  0  0  0  0  0  0  0
   22.0151  -21.1500  -14.5253 C   0  0  2  0  0  0  0  0  0  0  0  0
   20.6113  -21.0196  -15.0610 C   0  0  0  0  0  0  0  0  0  0  0  0
   22.1503  -20.6759  -13.1342 C   0  0  2  0  0  0  0  0  0  0  0  0
   23.3627  -21.2998  -12.5661 N   0  0  0  0  0  0  0  0  0  0  0  0
   21.0284  -20.8853  -12.2218 C   0  0  0  0  0  0  0  0  0  0  0  0
   20.0545  -19.9035  -12.0106 O   0  0  0  0  0  0  0  0  0  0  0  0
   20.8790  -21.9520  -11.5816 O   0  0  0  0  0  0  0  0  0  0  0  0
  2  3  2  0
  2  1  1  0
  4  2  1  0
  5  4  1  0
  6  5  1  0
  6  7  1  6
  8  9  2  0
  8  6  1  0
 10 11  1  0
 11 12  1  0
 13 12  1  0
 14 13  1  1
 14 15  1  0
 15  8  1  0
 16 14  1  0
 16 17  2  0
 19 20  1  0
 19 18  1  0
 20 21  1  6
 20 22  1  0
 22 23  1  1
 22 24  1  0
 23 16  1  0
 24 25  1  0
 26 24  2  0
M  END
$$$$
