ISW.pdb
     RDKit          3D

 29 30  0  0  1  0  0  0  0  0999 V2000
   20.8700  -13.7258  -22.2754 C   0  0  0  0  0  0  0  0  0  0  0  0
   21.5344  -14.0631  -20.9688 C   0  0  0  0  0  0  0  0  0  0  0  0
   21.2315  -13.0776  -19.8780 C   0  0  2  0  0  0  0  0  0  0  0  0
   21.6336  -11.7164  -20.3417 C   0  0  0  0  0  0  0  0  0  0  0  0
   21.8973  -13.4136  -18.5704 C   0  0  2  0  0  0  0  0  0  0  0  0
   21.5441  -14.7835  -18.2477 N   0  0  0  0  0  0  0  0  0  0  0  0
   21.5324  -12.5231  -17.4670 C   0  0  0  0  0  0  0  0  0  0  0  0
   20.3732  -12.4298  -16.9860 O   0  0  0  0  0  0  0  0  0  0  0  0
   23.0627  -10.0141  -13.7215 O   0  0  0  0  0  0  0  0  0  0  0  0
   23.2859  -10.9199  -14.7514 C   0  0  0  0  0  0  0  0  0  0  0  0
   22.1799  -10.7951  -15.7858 C   0  0  2  0  0  0  0  0  0  0  0  0
   22.5274  -11.6958  -16.8771 N   0  0  0  0  0  0  0  0  0  0  0  0
   22.1723   -9.3756  -16.2723 C   0  0  0  0  0  0  0  0  0  0  0  0
   23.1105   -9.0207  -17.0254 O   0  0  0  0  0  0  0  0  0  0  0  0
   21.1752   -8.4550  -15.9212 N   0  0  0  0  0  0  0  0  0  0  0  0
   21.2431   -7.0943  -16.4718 C   0  0  1  0  0  0  0  0  0  0  0  0
   20.2338   -6.9522  -17.5894 C   0  0  0  0  0  0  0  0  0  0  0  0
   18.8946   -7.2872  -17.0585 C   0  0  0  0  0  0  0  0  0  0  0  0
   18.2919   -6.8128  -15.9073 C   0  0  0  0  0  0  0  0  0  0  0  0
   17.0733   -7.3638  -15.7687 N   0  0  0  0  0  0  0  0  0  0  0  0
   16.8862   -8.1915  -16.8243 C   0  0  0  0  0  0  0  0  0  0  0  0
   15.8069   -8.9851  -17.1452 C   0  0  0  0  0  0  0  0  0  0  0  0
   15.8500   -9.7433  -18.2778 C   0  0  0  0  0  0  0  0  0  0  0  0
   16.9535   -9.7321  -19.1101 C   0  0  0  0  0  0  0  0  0  0  0  0
   18.0392   -8.9403  -18.7970 C   0  0  0  0  0  0  0  0  0  0  0  0
   17.9909   -8.1753  -17.6505 C   0  0  0  0  0  0  0  0  0  0  0  0
   20.9033   -6.1445  -15.4012 C   0  0  0  0  0  0  0  0  0  0  0  0
   20.5145   -6.5635  -14.2938 O   0  0  0  0  0  0  0  0  0  0  0  0
   21.0128   -4.7900  -15.6146 O   0  0  0  0  0  0  0  0  0  0  0  0
  2  1  1  0
  3  5  1  0
  3  2  1  0
  3  4  1  6
  5  7  1  0
  5  6  1  1
  7  8  2  0
  9 10  1  0
 11 10  1  1
 11 13  1  0
 12 11  1  0
 12  7  1  0
 13 15  1  0
 13 14  2  0
 15 16  1  0
 16 27  1  0
 16 17  1  6
 18 17  1  0
 19 18  2  0
 20 19  1  0
 21 20  1  0
 21 26  2  0
 22 21  1  0
 23 22  2  0
 23 24  1  0
 24 25  2  0
 25 26  1  0
 26 18  1  0
 27 28  2  0
 27 29  1  0
M  END
$$$$
