ISW.pdb
     RDKit          3D

 29 30  0  0  1  0  0  0  0  0999 V2000
   28.5682  -29.9692  -20.4367 C   0  0  0  0  0  0  0  0  0  0  0  0
   28.8791  -28.7138  -19.6689 C   0  0  0  0  0  0  0  0  0  0  0  0
   27.8525  -28.3888  -18.6233 C   0  0  2  0  0  0  0  0  0  0  0  0
   26.5732  -28.0344  -19.3068 C   0  0  0  0  0  0  0  0  0  0  0  0
   28.2810  -27.2881  -17.6900 C   0  0  2  0  0  0  0  0  0  0  0  0
   29.4897  -27.7359  -17.0236 N   0  0  0  0  0  0  0  0  0  0  0  0
   27.2675  -26.9126  -16.7025 C   0  0  0  0  0  0  0  0  0  0  0  0
   27.1492  -27.4489  -15.5701 O   0  0  0  0  0  0  0  0  0  0  0  0
   25.0117  -23.7898  -17.6698 O   0  0  0  0  0  0  0  0  0  0  0  0
   25.0171  -24.0238  -16.3000 C   0  0  0  0  0  0  0  0  0  0  0  0
   25.3294  -25.4873  -16.0363 C   0  0  2  0  0  0  0  0  0  0  0  0
   26.3403  -25.8789  -17.0096 N   0  0  0  0  0  0  0  0  0  0  0  0
   24.0677  -26.2679  -16.2617 C   0  0  0  0  0  0  0  0  0  0  0  0
   23.7750  -26.5582  -17.4464 O   0  0  0  0  0  0  0  0  0  0  0  0
   23.2255  -26.6735  -15.2171 N   0  0  0  0  0  0  0  0  0  0  0  0
   22.0291  -27.4636  -15.5392 C   0  0  1  0  0  0  0  0  0  0  0  0
   22.1375  -28.8274  -14.8941 C   0  0  0  0  0  0  0  0  0  0  0  0
   22.0831  -28.6583  -13.4258 C   0  0  0  0  0  0  0  0  0  0  0  0
   21.4813  -27.6407  -12.7075 C   0  0  0  0  0  0  0  0  0  0  0  0
   21.6596  -27.8433  -11.3903 N   0  0  0  0  0  0  0  0  0  0  0  0
   22.3735  -28.9863  -11.2544 C   0  0  0  0  0  0  0  0  0  0  0  0
   22.8137  -29.6237  -10.1153 C   0  0  0  0  0  0  0  0  0  0  0  0
   23.5257  -30.7809  -10.2316 C   0  0  0  0  0  0  0  0  0  0  0  0
   23.8148  -31.3271  -11.4680 C   0  0  0  0  0  0  0  0  0  0  0  0
   23.3781  -30.6959  -12.6144 C   0  0  0  0  0  0  0  0  0  0  0  0
   22.6583  -29.5259  -12.4918 C   0  0  0  0  0  0  0  0  0  0  0  0
   20.8546  -26.7697  -14.9890 C   0  0  0  0  0  0  0  0  0  0  0  0
   19.7063  -27.1489  -15.2901 O   0  0  0  0  0  0  0  0  0  0  0  0
   21.0155  -25.6998  -14.1394 O   0  0  0  0  0  0  0  0  0  0  0  0
  2  1  1  0
  3  5  1  0
  3  2  1  0
  3  4  1  6
  5  7  1  0
  5  6  1  1
  7  8  2  0
  9 10  1  0
 11 10  1  6
 11 13  1  0
 12 11  1  0
 12  7  1  0
 13 15  1  0
 13 14  2  0
 15 16  1  0
 16 27  1  0
 16 17  1  1
 18 17  1  0
 19 18  2  0
 20 19  1  0
 21 20  1  0
 21 26  2  0
 22 21  1  0
 23 22  2  0
 23 24  1  0
 24 25  2  0
 25 26  1  0
 26 18  1  0
 27 28  2  0
 27 29  1  0
M  END
$$$$
