ISW.pdb
     RDKit          3D

 29 30  0  0  1  0  0  0  0  0999 V2000
   26.8037  -17.0433  -18.6522 C   0  0  0  0  0  0  0  0  0  0  0  0
   26.8787  -18.0536  -17.5403 C   0  0  0  0  0  0  0  0  0  0  0  0
   28.1882  -18.0320  -16.8072 C   0  0  2  0  0  0  0  0  0  0  0  0
   29.2879  -18.2603  -17.7910 C   0  0  0  0  0  0  0  0  0  0  0  0
   28.2593  -19.0341  -15.6860 C   0  0  2  0  0  0  0  0  0  0  0  0
   28.0730  -20.3485  -16.2719 N   0  0  0  0  0  0  0  0  0  0  0  0
   27.2798  -18.8108  -14.6210 C   0  0  0  0  0  0  0  0  0  0  0  0
   27.1414  -17.7232  -14.0029 O   0  0  0  0  0  0  0  0  0  0  0  0
   23.4979  -19.4277  -14.6751 O   0  0  0  0  0  0  0  0  0  0  0  0
   24.1093  -20.2866  -13.7698 C   0  0  0  0  0  0  0  0  0  0  0  0
   25.3772  -19.6419  -13.2352 C   0  0  2  0  0  0  0  0  0  0  0  0
   26.4129  -19.8697  -14.2343 N   0  0  0  0  0  0  0  0  0  0  0  0
   25.7347  -20.3383  -11.9548 C   0  0  0  0  0  0  0  0  0  0  0  0
   26.3073  -21.4505  -12.0457 O   0  0  0  0  0  0  0  0  0  0  0  0
   25.4564  -19.7997  -10.6909 N   0  0  0  0  0  0  0  0  0  0  0  0
   25.9003  -20.5318   -9.4966 C   0  0  1  0  0  0  0  0  0  0  0  0
   26.8483  -19.6650   -8.6980 C   0  0  0  0  0  0  0  0  0  0  0  0
   27.1003  -20.3202   -7.3961 C   0  0  0  0  0  0  0  0  0  0  0  0
   26.5436  -21.4893   -6.9094 C   0  0  0  0  0  0  0  0  0  0  0  0
   27.0246  -21.7478   -5.6806 N   0  0  0  0  0  0  0  0  0  0  0  0
   27.8887  -20.7518   -5.3716 C   0  0  0  0  0  0  0  0  0  0  0  0
   28.6404  -20.5545   -4.2342 C   0  0  0  0  0  0  0  0  0  0  0  0
   29.4511  -19.4610   -4.1519 C   0  0  0  0  0  0  0  0  0  0  0  0
   29.5342  -18.5471   -5.1856 C   0  0  0  0  0  0  0  0  0  0  0  0
   28.7852  -18.7364   -6.3287 C   0  0  0  0  0  0  0  0  0  0  0  0
   27.9669  -19.8437   -6.4073 C   0  0  0  0  0  0  0  0  0  0  0  0
   24.7197  -20.8300   -8.6714 C   0  0  0  0  0  0  0  0  0  0  0  0
   23.6389  -20.2507   -8.8936 O   0  0  0  0  0  0  0  0  0  0  0  0
   24.8005  -21.7491   -7.6511 O   0  0  0  0  0  0  0  0  0  0  0  0
  2  1  1  0
  3  5  1  0
  3  2  1  0
  3  4  1  6
  5  7  1  0
  5  6  1  6
  7  8  2  0
  9 10  1  0
 11 10  1  6
 11 13  1  0
 12 11  1  0
 12  7  1  0
 13 15  1  0
 13 14  2  0
 15 16  1  0
 16 27  1  0
 16 17  1  1
 18 17  1  0
 19 18  2  0
 20 19  1  0
 21 20  1  0
 21 26  2  0
 22 21  1  0
 23 22  2  0
 23 24  1  0
 24 25  2  0
 25 26  1  0
 26 18  1  0
 27 28  2  0
 27 29  1  0
M  END
$$$$
