ISW.pdb
     RDKit          3D

 29 30  0  0  1  0  0  0  0  0999 V2000
   25.5204  -24.8300  -15.9871 C   0  0  0  0  0  0  0  0  0  0  0  0
   26.7475  -23.9662  -15.8846 C   0  0  0  0  0  0  0  0  0  0  0  0
   26.6745  -22.7298  -16.7325 C   0  0  2  0  0  0  0  0  0  0  0  0
   26.4031  -23.1361  -18.1434 C   0  0  0  0  0  0  0  0  0  0  0  0
   27.9136  -21.8787  -16.6518 C   0  0  2  0  0  0  0  0  0  0  0  0
   28.9949  -22.6355  -17.2547 N   0  0  0  0  0  0  0  0  0  0  0  0
   28.2747  -21.4752  -15.2915 C   0  0  0  0  0  0  0  0  0  0  0  0
   29.1580  -22.0409  -14.5960 O   0  0  0  0  0  0  0  0  0  0  0  0
   26.5282  -18.1429  -13.8714 O   0  0  0  0  0  0  0  0  0  0  0  0
   27.7147  -18.4859  -13.2344 C   0  0  0  0  0  0  0  0  0  0  0  0
   27.9192  -19.9893  -13.3174 C   0  0  2  0  0  0  0  0  0  0  0  0
   27.6039  -20.3771  -14.6859 N   0  0  0  0  0  0  0  0  0  0  0  0
   26.9538  -20.6314  -12.3647 C   0  0  0  0  0  0  0  0  0  0  0  0
   25.8874  -21.0844  -12.8450 O   0  0  0  0  0  0  0  0  0  0  0  0
   27.1986  -20.7389  -10.9887 N   0  0  0  0  0  0  0  0  0  0  0  0
   26.2147  -21.4343  -10.1474 C   0  0  1  0  0  0  0  0  0  0  0  0
   26.8348  -21.7516   -8.8047 C   0  0  0  0  0  0  0  0  0  0  0  0
   27.0199  -20.4861   -8.0619 C   0  0  0  0  0  0  0  0  0  0  0  0
   26.4015  -19.2691   -8.2856 C   0  0  0  0  0  0  0  0  0  0  0  0
   26.8450  -18.3608   -7.3989 N   0  0  0  0  0  0  0  0  0  0  0  0
   27.7465  -18.9851   -6.6039 C   0  0  0  0  0  0  0  0  0  0  0  0
   28.4821  -18.4954   -5.5471 C   0  0  0  0  0  0  0  0  0  0  0  0
   29.3387  -19.3273   -4.8886 C   0  0  0  0  0  0  0  0  0  0  0  0
   29.4842  -20.6510   -5.2592 C   0  0  0  0  0  0  0  0  0  0  0  0
   28.7516  -21.1504   -6.3163 C   0  0  0  0  0  0  0  0  0  0  0  0
   27.8865  -20.3052   -6.9792 C   0  0  0  0  0  0  0  0  0  0  0  0
   25.0669  -20.5379   -9.9407 C   0  0  0  0  0  0  0  0  0  0  0  0
   25.1713  -19.3210  -10.1885 O   0  0  0  0  0  0  0  0  0  0  0  0
   23.8726  -21.0360   -9.4740 O   0  0  0  0  0  0  0  0  0  0  0  0
  2  1  1  0
  3  5  1  0
  3  2  1  0
  3  4  1  6
  5  7  1  0
  5  6  1  1
  7  8  2  0
  9 10  1  0
 11 10  1  6
 11 13  1  0
 12 11  1  0
 12  7  1  0
 13 15  1  0
 13 14  2  0
 15 16  1  0
 16 27  1  0
 16 17  1  1
 18 17  1  0
 19 18  2  0
 20 19  1  0
 21 20  1  0
 21 26  2  0
 22 21  1  0
 23 22  2  0
 23 24  1  0
 24 25  2  0
 25 26  1  0
 26 18  1  0
 27 28  2  0
 27 29  1  0
M  END
$$$$
