ISW.pdb
     RDKit          3D

 29 30  0  0  1  0  0  0  0  0999 V2000
   27.5415  -17.1465  -16.9912 C   0  0  0  0  0  0  0  0  0  0  0  0
   28.0266  -18.3157  -16.1787 C   0  0  0  0  0  0  0  0  0  0  0  0
   26.9551  -18.9304  -15.3261 C   0  0  2  0  0  0  0  0  0  0  0  0
   26.3288  -17.8552  -14.5008 C   0  0  0  0  0  0  0  0  0  0  0  0
   27.4579  -20.0485  -14.4524 C   0  0  2  0  0  0  0  0  0  0  0  0
   28.2119  -20.9517  -15.3016 N   0  0  0  0  0  0  0  0  0  0  0  0
   26.4020  -20.7784  -13.7480 C   0  0  0  0  0  0  0  0  0  0  0  0
   25.5741  -21.5425  -14.3090 O   0  0  0  0  0  0  0  0  0  0  0  0
   26.1106  -20.2995   -9.6826 O   0  0  0  0  0  0  0  0  0  0  0  0
   25.7241  -21.5319  -10.1954 C   0  0  0  0  0  0  0  0  0  0  0  0
   25.2294  -21.3559  -11.6213 C   0  0  2  0  0  0  0  0  0  0  0  0
   26.2748  -20.6379  -12.3386 N   0  0  0  0  0  0  0  0  0  0  0  0
   23.9791  -20.5277  -11.5684 C   0  0  0  0  0  0  0  0  0  0  0  0
   24.0817  -19.3593  -11.1240 O   0  0  0  0  0  0  0  0  0  0  0  0
   22.7303  -21.0054  -11.9893 N   0  0  0  0  0  0  0  0  0  0  0  0
   21.5511  -20.1443  -11.8236 C   0  0  1  0  0  0  0  0  0  0  0  0
   21.6159  -19.0050  -12.8163 C   0  0  0  0  0  0  0  0  0  0  0  0
   21.6776  -19.5733  -14.1804 C   0  0  0  0  0  0  0  0  0  0  0  0
   20.6987  -20.2835  -14.8521 C   0  0  0  0  0  0  0  0  0  0  0  0
   21.1436  -20.6343  -16.0715 N   0  0  0  0  0  0  0  0  0  0  0  0
   22.4046  -20.1544  -16.1905 C   0  0  0  0  0  0  0  0  0  0  0  0
   23.2894  -20.2448  -17.2424 C   0  0  0  0  0  0  0  0  0  0  0  0
   24.5222  -19.6732  -17.1279 C   0  0  0  0  0  0  0  0  0  0  0  0
   24.9020  -19.0052  -15.9790 C   0  0  0  0  0  0  0  0  0  0  0  0
   24.0225  -18.9093  -14.9202 C   0  0  0  0  0  0  0  0  0  0  0  0
   22.7770  -19.4890  -15.0408 C   0  0  0  0  0  0  0  0  0  0  0  0
   20.3497  -20.9470  -12.0994 C   0  0  0  0  0  0  0  0  0  0  0  0
   20.4610  -22.1223  -12.4986 O   0  0  0  0  0  0  0  0  0  0  0  0
   19.0976  -20.4069  -11.9183 O   0  0  0  0  0  0  0  0  0  0  0  0
  2  1  1  0
  3  5  1  0
  3  2  1  0
  3  4  1  1
  5  7  1  0
  5  6  1  6
  7  8  2  0
  9 10  1  0
 11 10  1  1
 11 13  1  0
 12 11  1  0
 12  7  1  0
 13 15  1  0
 13 14  2  0
 15 16  1  0
 16 27  1  0
 16 17  1  6
 18 17  1  0
 19 18  2  0
 20 19  1  0
 21 20  1  0
 21 26  2  0
 22 21  1  0
 23 22  2  0
 23 24  1  0
 24 25  2  0
 25 26  1  0
 26 18  1  0
 27 28  2  0
 27 29  1  0
M  END
$$$$
