ISW.pdb
     RDKit          3D

 29 30  0  0  1  0  0  0  0  0999 V2000
   26.3801  -14.6934  -18.0050 C   0  0  0  0  0  0  0  0  0  0  0  0
   26.5469  -16.1585  -17.7081 C   0  0  0  0  0  0  0  0  0  0  0  0
   26.7644  -16.4471  -16.2513 C   0  0  2  0  0  0  0  0  0  0  0  0
   28.0333  -15.7885  -15.8203 C   0  0  0  0  0  0  0  0  0  0  0  0
   26.7929  -17.9183  -15.9336 C   0  0  2  0  0  0  0  0  0  0  0  0
   27.7472  -18.5346  -16.8364 N   0  0  0  0  0  0  0  0  0  0  0  0
   25.4912  -18.5794  -16.0441 C   0  0  0  0  0  0  0  0  0  0  0  0
   24.4607  -18.2238  -15.4152 O   0  0  0  0  0  0  0  0  0  0  0  0
   23.5326  -19.5957  -19.1861 O   0  0  0  0  0  0  0  0  0  0  0  0
   23.8763  -20.7391  -18.4751 C   0  0  0  0  0  0  0  0  0  0  0  0
   24.0660  -20.3875  -17.0091 C   0  0  2  0  0  0  0  0  0  0  0  0
   25.3463  -19.6992  -16.9086 N   0  0  0  0  0  0  0  0  0  0  0  0
   24.1106  -21.6733  -16.2366 C   0  0  0  0  0  0  0  0  0  0  0  0
   24.7786  -22.6153  -16.7260 O   0  0  0  0  0  0  0  0  0  0  0  0
   23.4460  -21.8520  -15.0153 N   0  0  0  0  0  0  0  0  0  0  0  0
   23.6280  -23.1166  -14.2894 C   0  0  1  0  0  0  0  0  0  0  0  0
   25.0269  -23.1719  -13.7169 C   0  0  0  0  0  0  0  0  0  0  0  0
   25.1732  -22.0819  -12.7278 C   0  0  0  0  0  0  0  0  0  0  0  0
   24.6447  -22.0138  -11.4513 C   0  0  0  0  0  0  0  0  0  0  0  0
   24.9996  -20.8542  -10.8706 N   0  0  0  0  0  0  0  0  0  0  0  0
   25.7545  -20.1733  -11.7656 C   0  0  0  0  0  0  0  0  0  0  0  0
   26.3576  -18.9396  -11.6565 C   0  0  0  0  0  0  0  0  0  0  0  0
   27.0786  -18.4544  -12.7073 C   0  0  0  0  0  0  0  0  0  0  0  0
   27.2167  -19.1745  -13.8791 C   0  0  0  0  0  0  0  0  0  0  0  0
   26.6164  -20.4111  -13.9977 C   0  0  0  0  0  0  0  0  0  0  0  0
   25.8884  -20.8975  -12.9322 C   0  0  0  0  0  0  0  0  0  0  0  0
   22.6597  -23.1583  -13.1829 C   0  0  0  0  0  0  0  0  0  0  0  0
   22.5122  -24.2033  -12.5201 O   0  0  0  0  0  0  0  0  0  0  0  0
   21.9123  -22.0459  -12.8725 O   0  0  0  0  0  0  0  0  0  0  0  0
  2  1  1  0
  3  5  1  0
  3  2  1  0
  3  4  1  6
  5  7  1  0
  5  6  1  6
  7  8  2  0
  9 10  1  0
 11 10  1  6
 11 13  1  0
 12 11  1  0
 12  7  1  0
 13 15  1  0
 13 14  2  0
 15 16  1  0
 16 27  1  0
 16 17  1  1
 18 17  1  0
 19 18  2  0
 20 19  1  0
 21 20  1  0
 21 26  2  0
 22 21  1  0
 23 22  2  0
 23 24  1  0
 24 25  2  0
 25 26  1  0
 26 18  1  0
 27 28  2  0
 27 29  1  0
M  END
$$$$
