ISW.pdb
     RDKit          3D

 29 30  0  0  1  0  0  0  0  0999 V2000
   21.2006  -19.0335  -20.2003 C   0  0  0  0  0  0  0  0  0  0  0  0
   21.8500  -18.5291  -18.9408 C   0  0  0  0  0  0  0  0  0  0  0  0
   22.4272  -19.6241  -18.0919 C   0  0  2  0  0  0  0  0  0  0  0  0
   21.5604  -19.8004  -16.8890 C   0  0  0  0  0  0  0  0  0  0  0  0
   23.8556  -19.3738  -17.6877 C   0  0  2  0  0  0  0  0  0  0  0  0
   24.6365  -19.2765  -18.9068 N   0  0  0  0  0  0  0  0  0  0  0  0
   24.4168  -20.4001  -16.8072 C   0  0  0  0  0  0  0  0  0  0  0  0
   23.9141  -21.5417  -16.6401 O   0  0  0  0  0  0  0  0  0  0  0  0
   28.2351  -20.4932  -15.8930 O   0  0  0  0  0  0  0  0  0  0  0  0
   27.4277  -21.5683  -15.5417 C   0  0  0  0  0  0  0  0  0  0  0  0
   26.0793  -21.0557  -15.0643 C   0  0  2  0  0  0  0  0  0  0  0  0
   25.6061  -20.1228  -16.0784 N   0  0  0  0  0  0  0  0  0  0  0  0
   26.3014  -20.3363  -13.7662 C   0  0  0  0  0  0  0  0  0  0  0  0
   26.4207  -19.0886  -13.8134 O   0  0  0  0  0  0  0  0  0  0  0  0
   26.3782  -20.9970  -12.5322 N   0  0  0  0  0  0  0  0  0  0  0  0
   26.6443  -20.2068  -11.3222 C   0  0  1  0  0  0  0  0  0  0  0  0
   25.4916  -19.2589  -11.0761 C   0  0  0  0  0  0  0  0  0  0  0  0
   24.2864  -20.0565  -10.7613 C   0  0  0  0  0  0  0  0  0  0  0  0
   23.9148  -20.5927   -9.5415 C   0  0  0  0  0  0  0  0  0  0  0  0
   22.7538  -21.2588   -9.6694 N   0  0  0  0  0  0  0  0  0  0  0  0
   22.3740  -21.1554  -10.9653 C   0  0  0  0  0  0  0  0  0  0  0  0
   21.2627  -21.6602  -11.6040 C   0  0  0  0  0  0  0  0  0  0  0  0
   21.0927  -21.4209  -12.9357 C   0  0  0  0  0  0  0  0  0  0  0  0
   22.0118  -20.6828  -13.6576 C   0  0  0  0  0  0  0  0  0  0  0  0
   23.1278  -20.1731  -13.0265 C   0  0  0  0  0  0  0  0  0  0  0  0
   23.2954  -20.4177  -11.6796 C   0  0  0  0  0  0  0  0  0  0  0  0
   26.7526  -21.1294  -10.1817 C   0  0  0  0  0  0  0  0  0  0  0  0
   26.5954  -22.3541  -10.3510 O   0  0  0  0  0  0  0  0  0  0  0  0
   27.0280  -20.6476   -8.9230 O   0  0  0  0  0  0  0  0  0  0  0  0
  2  1  1  0
  3  5  1  0
  3  2  1  0
  3  4  1  1
  5  7  1  0
  5  6  1  6
  7  8  2  0
  9 10  1  0
 11 10  1  6
 11 13  1  0
 12 11  1  0
 12  7  1  0
 13 15  1  0
 13 14  2  0
 15 16  1  0
 16 27  1  0
 16 17  1  1
 18 17  1  0
 19 18  2  0
 20 19  1  0
 21 20  1  0
 21 26  2  0
 22 21  1  0
 23 22  2  0
 23 24  1  0
 24 25  2  0
 25 26  1  0
 26 18  1  0
 27 28  2  0
 27 29  1  0
M  END
$$$$
