ISW.pdb
     RDKit          3D

 29 30  0  0  1  0  0  0  0  0999 V2000
   27.1653  -20.7116   -6.6004 C   0  0  0  0  0  0  0  0  0  0  0  0
   25.9868  -20.8682   -7.5218 C   0  0  0  0  0  0  0  0  0  0  0  0
   26.2220  -20.2929   -8.8880 C   0  0  2  0  0  0  0  0  0  0  0  0
   26.5118  -18.8350   -8.7467 C   0  0  0  0  0  0  0  0  0  0  0  0
   25.0737  -20.5189   -9.8349 C   0  0  2  0  0  0  0  0  0  0  0  0
   24.8393  -21.9497   -9.8925 N   0  0  0  0  0  0  0  0  0  0  0  0
   25.2947  -19.9872  -11.1810 C   0  0  0  0  0  0  0  0  0  0  0  0
   25.1092  -18.7858  -11.5071 O   0  0  0  0  0  0  0  0  0  0  0  0
   26.0803  -22.6595  -14.0866 O   0  0  0  0  0  0  0  0  0  0  0  0
   26.7010  -21.4384  -14.3204 C   0  0  0  0  0  0  0  0  0  0  0  0
   25.9737  -20.3447  -13.5564 C   0  0  2  0  0  0  0  0  0  0  0  0
   25.7481  -20.8565  -12.2111 N   0  0  0  0  0  0  0  0  0  0  0  0
   24.6611  -20.1075  -14.2440 C   0  0  0  0  0  0  0  0  0  0  0  0
   23.6666  -20.7432  -13.8198 O   0  0  0  0  0  0  0  0  0  0  0  0
   24.5134  -19.2201  -15.3191 N   0  0  0  0  0  0  0  0  0  0  0  0
   23.1849  -19.0593  -15.9261 C   0  0  1  0  0  0  0  0  0  0  0  0
   23.1531  -17.7832  -16.7377 C   0  0  0  0  0  0  0  0  0  0  0  0
   21.7626  -17.5424  -17.1803 C   0  0  0  0  0  0  0  0  0  0  0  0
   20.7618  -16.8612  -16.5110 C   0  0  0  0  0  0  0  0  0  0  0  0
   19.6348  -16.8677  -17.2443 N   0  0  0  0  0  0  0  0  0  0  0  0
   19.9027  -17.5496  -18.3835 C   0  0  0  0  0  0  0  0  0  0  0  0
   19.0865  -17.8354  -19.4557 C   0  0  0  0  0  0  0  0  0  0  0  0
   19.5883  -18.5478  -20.5047 C   0  0  0  0  0  0  0  0  0  0  0  0
   20.8982  -18.9888  -20.5143 C   0  0  0  0  0  0  0  0  0  0  0  0
   21.7233  -18.7074  -19.4449 C   0  0  0  0  0  0  0  0  0  0  0  0
   21.2113  -17.9866  -18.3864 C   0  0  0  0  0  0  0  0  0  0  0  0
   22.9455  -20.1995  -16.8240 C   0  0  0  0  0  0  0  0  0  0  0  0
   21.8138  -20.7174  -16.8890 O   0  0  0  0  0  0  0  0  0  0  0  0
   23.9671  -20.7005  -17.5971 O   0  0  0  0  0  0  0  0  0  0  0  0
  2  1  1  0
  3  5  1  0
  3  2  1  0
  3  4  1  1
  5  7  1  0
  5  6  1  6
  7  8  2  0
  9 10  1  0
 11 10  1  6
 11 13  1  0
 12 11  1  0
 12  7  1  0
 13 15  1  0
 13 14  2  0
 15 16  1  0
 16 27  1  0
 16 17  1  6
 18 17  1  0
 19 18  2  0
 20 19  1  0
 21 20  1  0
 21 26  2  0
 22 21  1  0
 23 22  2  0
 23 24  1  0
 24 25  2  0
 25 26  1  0
 26 18  1  0
 27 28  2  0
 27 29  1  0
M  END
$$$$
