ISW.pdb
     RDKit          3D

 29 30  0  0  1  0  0  0  0  0999 V2000
   27.3359  -21.3323  -19.9261 C   0  0  0  0  0  0  0  0  0  0  0  0
   27.6332  -22.3521  -18.8612 C   0  0  0  0  0  0  0  0  0  0  0  0
   28.0479  -21.7410  -17.5545 C   0  0  2  0  0  0  0  0  0  0  0  0
   29.3269  -22.3755  -17.1173 C   0  0  0  0  0  0  0  0  0  0  0  0
   26.9989  -21.8615  -16.4814 C   0  0  2  0  0  0  0  0  0  0  0  0
   25.7951  -21.2259  -16.9839 N   0  0  0  0  0  0  0  0  0  0  0  0
   27.3853  -21.2720  -15.1982 C   0  0  0  0  0  0  0  0  0  0  0  0
   28.5159  -21.4163  -14.6644 O   0  0  0  0  0  0  0  0  0  0  0  0
   24.7770  -18.6934  -13.5138 O   0  0  0  0  0  0  0  0  0  0  0  0
   26.1072  -18.5307  -13.1459 C   0  0  0  0  0  0  0  0  0  0  0  0
   26.8194  -19.8714  -13.2108 C   0  0  2  0  0  0  0  0  0  0  0  0
   26.4470  -20.4793  -14.4815 N   0  0  0  0  0  0  0  0  0  0  0  0
   26.3148  -20.7084  -12.0721 C   0  0  0  0  0  0  0  0  0  0  0  0
   25.4412  -21.5694  -12.3342 O   0  0  0  0  0  0  0  0  0  0  0  0
   26.7766  -20.5632  -10.7565 N   0  0  0  0  0  0  0  0  0  0  0  0
   26.2324  -21.4449   -9.7145 C   0  0  1  0  0  0  0  0  0  0  0  0
   27.2915  -21.6967   -8.6642 C   0  0  0  0  0  0  0  0  0  0  0  0
   27.4147  -20.4873   -7.8218 C   0  0  0  0  0  0  0  0  0  0  0  0
   26.9176  -19.2209   -8.0722 C   0  0  0  0  0  0  0  0  0  0  0  0
   27.2483  -18.3925   -7.0660 N   0  0  0  0  0  0  0  0  0  0  0  0
   27.9563  -19.1175   -6.1674 C   0  0  0  0  0  0  0  0  0  0  0  0
   28.5193  -18.7351   -4.9698 C   0  0  0  0  0  0  0  0  0  0  0  0
   29.1954  -19.6568   -4.2262 C   0  0  0  0  0  0  0  0  0  0  0  0
   29.3274  -20.9661   -4.6490 C   0  0  0  0  0  0  0  0  0  0  0  0
   28.7667  -21.3585   -5.8470 C   0  0  0  0  0  0  0  0  0  0  0  0
   28.0839  -20.4228   -6.5955 C   0  0  0  0  0  0  0  0  0  0  0  0
   25.0901  -20.7658   -9.0840 C   0  0  0  0  0  0  0  0  0  0  0  0
   24.3777  -21.3733   -8.2614 O   0  0  0  0  0  0  0  0  0  0  0  0
   24.8012  -19.4578   -9.3972 O   0  0  0  0  0  0  0  0  0  0  0  0
  2  1  1  0
  3  5  1  0
  3  2  1  0
  3  4  1  1
  5  7  1  0
  5  6  1  6
  7  8  2  0
  9 10  1  0
 11 10  1  1
 11 13  1  0
 12 11  1  0
 12  7  1  0
 13 15  1  0
 13 14  2  0
 15 16  1  0
 16 27  1  0
 16 17  1  1
 18 17  1  0
 19 18  2  0
 20 19  1  0
 21 20  1  0
 21 26  2  0
 22 21  1  0
 23 22  2  0
 23 24  1  0
 24 25  2  0
 25 26  1  0
 26 18  1  0
 27 28  2  0
 27 29  1  0
M  END
$$$$
