ISW.pdb
     RDKit          3D

 29 30  0  0  1  0  0  0  0  0999 V2000
   27.4044  -16.1111  -17.4827 C   0  0  0  0  0  0  0  0  0  0  0  0
   28.0042  -17.2753  -16.7427 C   0  0  0  0  0  0  0  0  0  0  0  0
   26.9762  -18.1857  -16.1367 C   0  0  2  0  0  0  0  0  0  0  0  0
   26.1041  -17.3814  -15.2301 C   0  0  0  0  0  0  0  0  0  0  0  0
   27.5756  -19.3545  -15.4013 C   0  0  2  0  0  0  0  0  0  0  0  0
   28.5313  -19.9807  -16.2958 N   0  0  0  0  0  0  0  0  0  0  0  0
   26.5942  -20.3379  -14.9397 C   0  0  0  0  0  0  0  0  0  0  0  0
   25.9103  -21.0680  -15.7033 O   0  0  0  0  0  0  0  0  0  0  0  0
   26.5627  -21.2723  -11.0047 O   0  0  0  0  0  0  0  0  0  0  0  0
   26.0449  -22.2016  -11.8987 C   0  0  0  0  0  0  0  0  0  0  0  0
   25.3987  -21.4765  -13.0673 C   0  0  2  0  0  0  0  0  0  0  0  0
   26.3739  -20.5050  -13.5447 N   0  0  0  0  0  0  0  0  0  0  0  0
   24.1815  -20.7706  -12.5456 C   0  0  0  0  0  0  0  0  0  0  0  0
   24.3665  -19.8004  -11.7726 O   0  0  0  0  0  0  0  0  0  0  0  0
   22.8758  -21.1507  -12.8857 N   0  0  0  0  0  0  0  0  0  0  0  0
   21.7502  -20.3745  -12.3473 C   0  0  1  0  0  0  0  0  0  0  0  0
   21.7217  -19.0100  -12.9994 C   0  0  0  0  0  0  0  0  0  0  0  0
   21.6450  -19.1914  -14.4653 C   0  0  0  0  0  0  0  0  0  0  0  0
   20.6038  -19.7239  -15.2041 C   0  0  0  0  0  0  0  0  0  0  0  0
   20.9229  -19.7235  -16.5103 N   0  0  0  0  0  0  0  0  0  0  0  0
   22.1646  -19.1935  -16.6186 C   0  0  0  0  0  0  0  0  0  0  0  0
   22.9380  -18.9745  -17.7373 C   0  0  0  0  0  0  0  0  0  0  0  0
   24.1753  -18.4193  -17.5943 C   0  0  0  0  0  0  0  0  0  0  0  0
   24.6692  -18.0720  -16.3509 C   0  0  0  0  0  0  0  0  0  0  0  0
   23.9018  -18.2875  -15.2248 C   0  0  0  0  0  0  0  0  0  0  0  0
   22.6511  -18.8491  -15.3744 C   0  0  0  0  0  0  0  0  0  0  0  0
   20.5025  -21.0826  -12.6723 C   0  0  0  0  0  0  0  0  0  0  0  0
   20.5311  -22.1054  -13.3837 O   0  0  0  0  0  0  0  0  0  0  0  0
   19.2981  -20.6217  -12.1934 O   0  0  0  0  0  0  0  0  0  0  0  0
  2  1  1  0
  3  5  1  0
  3  2  1  0
  3  4  1  1
  5  7  1  0
  5  6  1  6
  7  8  2  0
  9 10  1  0
 11 10  1  1
 11 13  1  0
 12 11  1  0
 12  7  1  0
 13 15  1  0
 13 14  2  0
 15 16  1  0
 16 27  1  0
 16 17  1  6
 18 17  1  0
 19 18  2  0
 20 19  1  0
 21 20  1  0
 21 26  2  0
 22 21  1  0
 23 22  2  0
 23 24  1  0
 24 25  2  0
 25 26  1  0
 26 18  1  0
 27 28  2  0
 27 29  1  0
M  END
$$$$
