ISW.pdb
     RDKit          3D

 29 30  0  0  1  0  0  0  0  0999 V2000
   29.5772  -23.0519  -20.9459 C   0  0  0  0  0  0  0  0  0  0  0  0
   28.4303  -22.6921  -20.0416 C   0  0  0  0  0  0  0  0  0  0  0  0
   28.8587  -22.3754  -18.6384 C   0  0  2  0  0  0  0  0  0  0  0  0
   29.4976  -23.5901  -18.0506 C   0  0  0  0  0  0  0  0  0  0  0  0
   27.7309  -21.8914  -17.7666 C   0  0  2  0  0  0  0  0  0  0  0  0
   27.1971  -20.6905  -18.3816 N   0  0  0  0  0  0  0  0  0  0  0  0
   28.1193  -21.6213  -16.3810 C   0  0  0  0  0  0  0  0  0  0  0  0
   28.6145  -22.4789  -15.6044 O   0  0  0  0  0  0  0  0  0  0  0  0
   27.0875  -18.0023  -14.8642 O   0  0  0  0  0  0  0  0  0  0  0  0
   28.2144  -18.5504  -14.2637 C   0  0  0  0  0  0  0  0  0  0  0  0
   28.1972  -20.0602  -14.4346 C   0  0  2  0  0  0  0  0  0  0  0  0
   27.9392  -20.3162  -15.8455 N   0  0  0  0  0  0  0  0  0  0  0  0
   27.0724  -20.5982  -13.5995 C   0  0  0  0  0  0  0  0  0  0  0  0
   25.9747  -20.7972  -14.1729 O   0  0  0  0  0  0  0  0  0  0  0  0
   27.2048  -20.8789  -12.2325 N   0  0  0  0  0  0  0  0  0  0  0  0
   26.0813  -21.5123  -11.5284 C   0  0  1  0  0  0  0  0  0  0  0  0
   26.5508  -22.0165  -10.1818 C   0  0  0  0  0  0  0  0  0  0  0  0
   26.6621  -20.8641   -9.2614 C   0  0  0  0  0  0  0  0  0  0  0  0
   25.7453  -19.8495   -9.0524 C   0  0  0  0  0  0  0  0  0  0  0  0
   26.2208  -18.9842   -8.1397 N   0  0  0  0  0  0  0  0  0  0  0  0
   27.4399  -19.4348   -7.7585 C   0  0  0  0  0  0  0  0  0  0  0  0
   28.3327  -18.9090   -6.8506 C   0  0  0  0  0  0  0  0  0  0  0  0
   29.5155  -19.5507   -6.6303 C   0  0  0  0  0  0  0  0  0  0  0  0
   29.8371  -20.7172   -7.2986 C   0  0  0  0  0  0  0  0  0  0  0  0
   28.9492  -21.2514   -8.2096 C   0  0  0  0  0  0  0  0  0  0  0  0
   27.7542  -20.5988   -8.4290 C   0  0  0  0  0  0  0  0  0  0  0  0
   25.0364  -20.4986  -11.3183 C   0  0  0  0  0  0  0  0  0  0  0  0
   25.3311  -19.2877  -11.3167 O   0  0  0  0  0  0  0  0  0  0  0  0
   23.7291  -20.8797  -11.1229 O   0  0  0  0  0  0  0  0  0  0  0  0
  2  1  1  0
  3  5  1  0
  3  2  1  0
  3  4  1  1
  5  7  1  0
  5  6  1  6
  7  8  2  0
  9 10  1  0
 11 10  1  6
 11 13  1  0
 12 11  1  0
 12  7  1  0
 13 15  1  0
 13 14  2  0
 15 16  1  0
 16 27  1  0
 16 17  1  1
 18 17  1  0
 19 18  2  0
 20 19  1  0
 21 20  1  0
 21 26  2  0
 22 21  1  0
 23 22  2  0
 23 24  1  0
 24 25  2  0
 25 26  1  0
 26 18  1  0
 27 28  2  0
 27 29  1  0
M  END
$$$$
