ISW.pdb
     RDKit          3D

 29 30  0  0  1  0  0  0  0  0999 V2000
   27.9153  -20.3898   -6.3071 C   0  0  0  0  0  0  0  0  0  0  0  0
   26.7636  -19.9519   -7.1699 C   0  0  0  0  0  0  0  0  0  0  0  0
   26.7015  -20.6717   -8.4856 C   0  0  2  0  0  0  0  0  0  0  0  0
   28.0414  -20.5850   -9.1388 C   0  0  0  0  0  0  0  0  0  0  0  0
   25.6274  -20.1475   -9.4008 C   0  0  2  0  0  0  0  0  0  0  0  0
   24.3560  -20.3495   -8.7312 N   0  0  0  0  0  0  0  0  0  0  0  0
   25.6090  -20.7757  -10.7231 C   0  0  0  0  0  0  0  0  0  0  0  0
   26.6323  -21.2028  -11.3184 O   0  0  0  0  0  0  0  0  0  0  0  0
   22.1156  -21.8757  -12.3625 O   0  0  0  0  0  0  0  0  0  0  0  0
   23.2622  -22.2665  -13.0435 C   0  0  0  0  0  0  0  0  0  0  0  0
   24.3552  -21.2322  -12.8328 C   0  0  2  0  0  0  0  0  0  0  0  0
   24.3720  -20.9292  -11.4078 N   0  0  0  0  0  0  0  0  0  0  0  0
   23.9780  -20.0084  -13.6151 C   0  0  0  0  0  0  0  0  0  0  0  0
   23.3300  -19.1186  -13.0138 O   0  0  0  0  0  0  0  0  0  0  0  0
   24.3180  -19.8311  -14.9634 N   0  0  0  0  0  0  0  0  0  0  0  0
   24.0572  -18.5293  -15.5934 C   0  0  1  0  0  0  0  0  0  0  0  0
   25.1462  -17.5543  -15.2044 C   0  0  0  0  0  0  0  0  0  0  0  0
   26.4561  -18.2181  -15.3809 C   0  0  0  0  0  0  0  0  0  0  0  0
   27.1360  -18.4599  -16.5611 C   0  0  0  0  0  0  0  0  0  0  0  0
   28.2927  -19.0940  -16.3008 N   0  0  0  0  0  0  0  0  0  0  0  0
   28.3631  -19.2628  -14.9588 C   0  0  0  0  0  0  0  0  0  0  0  0
   29.3435  -19.8534  -14.1921 C   0  0  0  0  0  0  0  0  0  0  0  0
   29.1904  -19.9054  -12.8381 C   0  0  0  0  0  0  0  0  0  0  0  0
   28.0725  -19.3781  -12.2193 C   0  0  0  0  0  0  0  0  0  0  0  0
   27.0854  -18.7846  -12.9788 C   0  0  0  0  0  0  0  0  0  0  0  0
   27.2448  -18.7344  -14.3478 C   0  0  0  0  0  0  0  0  0  0  0  0
   24.0797  -18.7091  -17.0532 C   0  0  0  0  0  0  0  0  0  0  0  0
   23.7996  -17.7554  -17.8050 O   0  0  0  0  0  0  0  0  0  0  0  0
   24.4099  -19.9286  -17.5972 O   0  0  0  0  0  0  0  0  0  0  0  0
  2  1  1  0
  3  5  1  0
  3  2  1  0
  3  4  1  6
  5  7  1  0
  5  6  1  1
  7  8  2  0
  9 10  1  0
 11 10  1  1
 11 13  1  0
 12 11  1  0
 12  7  1  0
 13 15  1  0
 13 14  2  0
 15 16  1  0
 16 27  1  0
 16 17  1  6
 18 17  1  0
 19 18  2  0
 20 19  1  0
 21 20  1  0
 21 26  2  0
 22 21  1  0
 23 22  2  0
 23 24  1  0
 24 25  2  0
 25 26  1  0
 26 18  1  0
 27 28  2  0
 27 29  1  0
M  END
$$$$
