ISW.pdb
     RDKit          3D

 29 30  0  0  1  0  0  0  0  0999 V2000
   28.7322  -18.5144  -17.5596 C   0  0  0  0  0  0  0  0  0  0  0  0
   27.5654  -17.5956  -17.3214 C   0  0  0  0  0  0  0  0  0  0  0  0
   27.1576  -17.5169  -15.8790 C   0  0  2  0  0  0  0  0  0  0  0  0
   28.0829  -16.5811  -15.1737 C   0  0  0  0  0  0  0  0  0  0  0  0
   27.1307  -18.8571  -15.1940 C   0  0  2  0  0  0  0  0  0  0  0  0
   26.2702  -19.7233  -15.9781 N   0  0  0  0  0  0  0  0  0  0  0  0
   26.6714  -18.8098  -13.8047 C   0  0  0  0  0  0  0  0  0  0  0  0
   27.1959  -18.0977  -12.9093 O   0  0  0  0  0  0  0  0  0  0  0  0
   23.7056  -21.4135  -12.5834 O   0  0  0  0  0  0  0  0  0  0  0  0
   23.6651  -20.1281  -12.0568 C   0  0  0  0  0  0  0  0  0  0  0  0
   25.0672  -19.5428  -12.0381 C   0  0  2  0  0  0  0  0  0  0  0  0
   25.5633  -19.6074  -13.4065 N   0  0  0  0  0  0  0  0  0  0  0  0
   25.9074  -20.4072  -11.1443 C   0  0  0  0  0  0  0  0  0  0  0  0
   26.7165  -21.1904  -11.6968 O   0  0  0  0  0  0  0  0  0  0  0  0
   25.8199  -20.3692   -9.7458 N   0  0  0  0  0  0  0  0  0  0  0  0
   26.4828  -21.4241   -8.9666 C   0  0  1  0  0  0  0  0  0  0  0  0
   27.8976  -20.9979   -8.6433 C   0  0  0  0  0  0  0  0  0  0  0  0
   27.8461  -19.9517   -7.5990 C   0  0  0  0  0  0  0  0  0  0  0  0
   27.2519  -18.7046   -7.6716 C   0  0  0  0  0  0  0  0  0  0  0  0
   27.4303  -18.0449   -6.5136 N   0  0  0  0  0  0  0  0  0  0  0  0
   28.1367  -18.8596   -5.6939 C   0  0  0  0  0  0  0  0  0  0  0  0
   28.5739  -18.6527   -4.4041 C   0  0  0  0  0  0  0  0  0  0  0  0
   29.2781  -19.6352   -3.7729 C   0  0  0  0  0  0  0  0  0  0  0  0
   29.5621  -20.8337   -4.4003 C   0  0  0  0  0  0  0  0  0  0  0  0
   29.1283  -21.0500   -5.6920 C   0  0  0  0  0  0  0  0  0  0  0  0
   28.4165  -20.0534   -6.3261 C   0  0  0  0  0  0  0  0  0  0  0  0
   25.7420  -21.6051   -7.7089 C   0  0  0  0  0  0  0  0  0  0  0  0
   24.7347  -20.9109   -7.4710 O   0  0  0  0  0  0  0  0  0  0  0  0
   26.1549  -22.5405   -6.7886 O   0  0  0  0  0  0  0  0  0  0  0  0
  2  1  1  0
  3  5  1  0
  3  2  1  0
  3  4  1  1
  5  7  1  0
  5  6  1  6
  7  8  2  0
  9 10  1  0
 11 10  1  6
 11 13  1  0
 12 11  1  0
 12  7  1  0
 13 15  1  0
 13 14  2  0
 15 16  1  0
 16 27  1  0
 16 17  1  1
 18 17  1  0
 19 18  2  0
 20 19  1  0
 21 20  1  0
 21 26  2  0
 22 21  1  0
 23 22  2  0
 23 24  1  0
 24 25  2  0
 25 26  1  0
 26 18  1  0
 27 28  2  0
 27 29  1  0
M  END
$$$$
