IMV.pdb
     RDKit          3D

 24 23  0  0  1  0  0  0  0  0999 V2000
   29.0310  -23.0550  -15.9870 C   0  0  0  0  0  0  0  0  0  0  0  0
   28.5004  -21.7184  -16.3828 C   0  0  0  0  0  0  0  0  0  0  0  0
   27.7137  -21.7360  -17.6766 C   0  0  2  0  0  0  0  0  0  0  0  0
   28.6275  -22.2903  -18.7422 C   0  0  0  0  0  0  0  0  0  0  0  0
   27.2181  -20.3531  -18.0118 C   0  0  2  0  0  0  0  0  0  0  0  0
   28.2515  -19.5123  -18.5543 N   0  0  0  0  0  0  0  0  0  0  0  0
   26.5153  -19.6927  -16.9214 C   0  0  0  0  0  0  0  0  0  0  0  0
   26.7567  -18.5116  -16.5625 O   0  0  0  0  0  0  0  0  0  0  0  0
   21.0493  -18.3596  -17.5035 C   0  0  0  0  0  0  0  0  0  0  0  0
   20.9091  -18.0985  -15.7133 S   0  0  0  0  0  0  0  0  0  0  0  0
   22.4750  -18.5325  -14.9146 C   0  0  0  0  0  0  0  0  0  0  0  0
   23.3785  -19.1969  -15.9305 C   0  0  0  0  0  0  0  0  0  0  0  0
   24.6334  -19.7277  -15.2695 C   0  0  2  0  0  0  0  0  0  0  0  0
   25.5014  -20.3898  -16.2079 N   0  0  0  0  0  0  0  0  0  0  0  0
   24.3328  -20.6023  -14.1272 C   0  0  0  0  0  0  0  0  0  0  0  0
   23.7413  -21.7019  -14.3608 O   0  0  0  0  0  0  0  0  0  0  0  0
   26.7141  -21.1595  -11.2120 C   0  0  0  0  0  0  0  0  0  0  0  0
   25.3206  -21.0174  -10.6258 C   0  0  1  0  0  0  0  0  0  0  0  0
   25.1712  -19.6884   -9.9174 C   0  0  0  0  0  0  0  0  0  0  0  0
   24.2854  -21.1667  -11.7316 C   0  0  2  0  0  0  0  0  0  0  0  0
   24.6670  -20.2839  -12.7890 N   0  0  0  0  0  0  0  0  0  0  0  0
   22.9190  -20.9240  -11.2328 C   0  0  0  0  0  0  0  0  0  0  0  0
   22.3221  -21.8640  -10.4131 O   0  0  0  0  0  0  0  0  0  0  0  0
   22.2789  -19.8889  -11.5294 O   0  0  0  0  0  0  0  0  0  0  0  0
  2  1  1  0
  3  2  1  0
  3  4  1  6
  5  6  1  1
  5  3  1  0
  7  5  1  0
  8  7  2  0
 10  9  1  0
 11 10  1  0
 12 11  1  0
 13 12  1  6
 13 14  1  0
 14  7  1  0
 15 13  1  0
 15 16  2  0
 18 17  1  6
 18 20  1  0
 19 18  1  0
 20 21  1  6
 21 15  1  0
 22 20  1  0
 23 22  1  0
 24 22  2  0
M  END
$$$$
