IMV.pdb
     RDKit          3D

 24 23  0  0  1  0  0  0  0  0999 V2000
   12.5943  -11.0729  -16.0591 C   0  0  0  0  0  0  0  0  0  0  0  0
   14.0703  -11.1271  -15.8517 C   0  0  0  0  0  0  0  0  0  0  0  0
   14.5135  -10.6036  -14.5016 C   0  0  2  0  0  0  0  0  0  0  0  0
   14.0084   -9.1859  -14.3895 C   0  0  0  0  0  0  0  0  0  0  0  0
   16.0120  -10.6883  -14.3687 C   0  0  2  0  0  0  0  0  0  0  0  0
   16.5055  -12.0304  -14.5253 N   0  0  0  0  0  0  0  0  0  0  0  0
   16.5380  -10.0677  -13.1615 C   0  0  0  0  0  0  0  0  0  0  0  0
   16.6894  -10.6889  -12.0783 O   0  0  0  0  0  0  0  0  0  0  0  0
   21.6005   -8.0592  -14.4681 C   0  0  0  0  0  0  0  0  0  0  0  0
   21.5493   -8.0783  -12.6544 S   0  0  0  0  0  0  0  0  0  0  0  0
   19.9247   -8.6556  -12.1015 C   0  0  0  0  0  0  0  0  0  0  0  0
   18.9081   -7.5584  -12.3302 C   0  0  0  0  0  0  0  0  0  0  0  0
   17.5072   -8.0521  -12.0348 C   0  0  2  0  0  0  0  0  0  0  0  0
   16.9074   -8.6943  -13.1752 N   0  0  0  0  0  0  0  0  0  0  0  0
   16.6388   -6.9848  -11.5182 C   0  0  0  0  0  0  0  0  0  0  0  0
   16.1764   -6.1416  -12.3483 O   0  0  0  0  0  0  0  0  0  0  0  0
   13.6708   -7.4948   -9.3537 C   0  0  0  0  0  0  0  0  0  0  0  0
   14.4624   -6.3657   -8.7181 C   0  0  1  0  0  0  0  0  0  0  0  0
   15.1953   -6.8531   -7.4869 C   0  0  0  0  0  0  0  0  0  0  0  0
   15.4323   -5.7867   -9.7381 C   0  0  2  0  0  0  0  0  0  0  0  0
   16.2938   -6.8496  -10.1521 N   0  0  0  0  0  0  0  0  0  0  0  0
   16.1590   -4.6231   -9.1972 C   0  0  0  0  0  0  0  0  0  0  0  0
   15.4711   -3.4474   -8.9600 O   0  0  0  0  0  0  0  0  0  0  0  0
   17.3852   -4.6660   -8.9445 O   0  0  0  0  0  0  0  0  0  0  0  0
  2  1  1  0
  3  2  1  0
  3  4  1  6
  5  6  1  1
  5  3  1  0
  7  5  1  0
  8  7  2  0
 10  9  1  0
 11 10  1  0
 12 11  1  0
 13 12  1  6
 13 14  1  0
 14  7  1  0
 15 13  1  0
 15 16  2  0
 18 17  1  6
 18 20  1  0
 19 18  1  0
 20 21  1  1
 21 15  1  0
 22 20  1  0
 23 22  1  0
 24 22  2  0
M  END
$$$$
