IMV.pdb
     RDKit          3D

 24 23  0  0  1  0  0  0  0  0999 V2000
   15.8620   -8.0317  -21.8124 C   0  0  0  0  0  0  0  0  0  0  0  0
   16.8019   -9.0860  -21.3328 C   0  0  0  0  0  0  0  0  0  0  0  0
   17.3365   -8.8344  -19.9386 C   0  0  2  0  0  0  0  0  0  0  0  0
   18.1383   -7.5571  -19.9961 C   0  0  0  0  0  0  0  0  0  0  0  0
   18.1605  -10.0056  -19.4699 C   0  0  2  0  0  0  0  0  0  0  0  0
   17.4466  -11.2517  -19.5525 N   0  0  0  0  0  0  0  0  0  0  0  0
   18.7591   -9.8236  -18.1555 C   0  0  0  0  0  0  0  0  0  0  0  0
   18.2347  -10.2518  -17.0954 O   0  0  0  0  0  0  0  0  0  0  0  0
   24.6781  -10.6851  -13.5051 C   0  0  0  0  0  0  0  0  0  0  0  0
   23.8001  -10.9683  -15.0677 S   0  0  0  0  0  0  0  0  0  0  0  0
   22.4671   -9.7552  -15.2406 C   0  0  0  0  0  0  0  0  0  0  0  0
   21.7562   -9.9887  -16.5558 C   0  0  0  0  0  0  0  0  0  0  0  0
   20.6560   -8.9687  -16.7618 C   0  0  2  0  0  0  0  0  0  0  0  0
   19.9959   -9.1326  -18.0307 N   0  0  0  0  0  0  0  0  0  0  0  0
   21.1377   -7.5901  -16.5964 C   0  0  0  0  0  0  0  0  0  0  0  0
   21.9332   -7.1299  -17.4734 O   0  0  0  0  0  0  0  0  0  0  0  0
   19.5053   -4.6894  -16.9918 C   0  0  0  0  0  0  0  0  0  0  0  0
   20.1223   -4.4691  -15.6220 C   0  0  1  0  0  0  0  0  0  0  0  0
   19.0860   -4.6470  -14.5335 C   0  0  0  0  0  0  0  0  0  0  0  0
   21.2882   -5.4282  -15.4286 C   0  0  2  0  0  0  0  0  0  0  0  0
   20.7627   -6.7546  -15.5170 N   0  0  0  0  0  0  0  0  0  0  0  0
   22.0033   -5.1664  -14.1658 C   0  0  0  0  0  0  0  0  0  0  0  0
   22.8006   -4.0416  -14.0615 O   0  0  0  0  0  0  0  0  0  0  0  0
   21.9111   -5.9339  -13.1801 O   0  0  0  0  0  0  0  0  0  0  0  0
  2  1  1  0
  3  2  1  0
  3  4  1  6
  5  6  1  1
  5  3  1  0
  7  5  1  0
  8  7  2  0
 10  9  1  0
 11 10  1  0
 12 11  1  0
 13 12  1  6
 13 14  1  0
 14  7  1  0
 15 13  1  0
 15 16  2  0
 18 17  1  6
 18 20  1  0
 19 18  1  0
 20 21  1  1
 21 15  1  0
 22 20  1  0
 23 22  1  0
 24 22  2  0
M  END
$$$$
