IMV.pdb
     RDKit          3D

 24 23  0  0  1  0  0  0  0  0999 V2000
   29.3616  -17.4756  -18.6976 C   0  0  0  0  0  0  0  0  0  0  0  0
   28.5505  -17.1344  -17.4933 C   0  0  0  0  0  0  0  0  0  0  0  0
   27.7784  -18.3082  -16.9285 C   0  0  2  0  0  0  0  0  0  0  0  0
   26.8827  -18.8196  -18.0303 C   0  0  0  0  0  0  0  0  0  0  0  0
   27.0005  -17.8900  -15.7077 C   0  0  2  0  0  0  0  0  0  0  0  0
   27.8059  -17.1668  -14.7604 N   0  0  0  0  0  0  0  0  0  0  0  0
   26.2729  -18.9752  -15.0657 C   0  0  0  0  0  0  0  0  0  0  0  0
   25.5788  -19.8092  -15.7018 O   0  0  0  0  0  0  0  0  0  0  0  0
   25.7166  -19.7961   -8.4123 C   0  0  0  0  0  0  0  0  0  0  0  0
   25.7524  -21.4771   -9.0948 S   0  0  0  0  0  0  0  0  0  0  0  0
   25.2891  -21.4292  -10.8444 C   0  0  0  0  0  0  0  0  0  0  0  0
   26.0072  -20.2770  -11.5127 C   0  0  0  0  0  0  0  0  0  0  0  0
   25.5881  -20.1493  -12.9623 C   0  0  2  0  0  0  0  0  0  0  0  0
   26.3297  -19.1264  -13.6526 N   0  0  0  0  0  0  0  0  0  0  0  0
   24.1413  -19.9343  -13.1061 C   0  0  0  0  0  0  0  0  0  0  0  0
   23.6809  -18.7847  -12.8233 O   0  0  0  0  0  0  0  0  0  0  0  0
   19.9116  -20.6692  -15.1747 C   0  0  0  0  0  0  0  0  0  0  0  0
   21.4122  -20.8687  -15.0559 C   0  0  1  0  0  0  0  0  0  0  0  0
   22.1517  -19.9338  -15.9884 C   0  0  0  0  0  0  0  0  0  0  0  0
   21.8418  -20.6529  -13.6118 C   0  0  2  0  0  0  0  0  0  0  0  0
   23.2411  -20.9364  -13.5410 N   0  0  0  0  0  0  0  0  0  0  0  0
   21.0345  -21.4602  -12.6785 C   0  0  0  0  0  0  0  0  0  0  0  0
   20.0374  -20.8467  -11.9429 O   0  0  0  0  0  0  0  0  0  0  0  0
   21.2240  -22.6895  -12.5300 O   0  0  0  0  0  0  0  0  0  0  0  0
  2  1  1  0
  3  2  1  0
  3  4  1  6
  5  6  1  1
  5  3  1  0
  7  5  1  0
  8  7  2  0
 10  9  1  0
 11 10  1  0
 12 11  1  0
 13 12  1  1
 13 14  1  0
 14  7  1  0
 15 13  1  0
 15 16  2  0
 18 17  1  1
 18 20  1  0
 19 18  1  0
 20 21  1  6
 21 15  1  0
 22 20  1  0
 23 22  1  0
 24 22  2  0
M  END
$$$$
