ETS.pdb
     RDKit          3D

 23 22  0  0  1  0  0  0  0  0999 V2000
    9.3213  -15.0813   14.6109 N   0  0  0  0  0  0  0  0  0  0  0  0
    9.1406  -16.0934   15.6323 C   0  0  1  0  0  0  0  0  0  0  0  0
   10.0731  -17.2545   15.2920 C   0  0  0  0  0  0  0  0  0  0  0  0
   11.0525  -16.8539   14.2111 C   0  0  0  0  0  0  0  0  0  0  0  0
   11.9531  -17.9992   13.9620 C   0  0  0  0  0  0  0  0  0  0  0  0
   11.7052  -18.8614   13.0961 O   0  0  0  0  0  0  0  0  0  0  0  0
    9.5366  -15.5148   16.9396 C   0  0  0  0  0  0  0  0  0  0  0  0
   10.6130  -14.8816   17.0628 O   0  0  0  0  0  0  0  0  0  0  0  0
   13.1100  -18.1162   14.7165 O   0  0  0  0  0  0  0  0  0  0  0  0
    7.7845  -12.9206   19.0491 C   0  0  0  0  0  0  0  0  0  0  0  0
    7.9284  -14.1668   19.8575 C   0  0  1  0  0  0  0  0  0  0  0  0
    6.7366  -14.8822   19.9603 O   0  0  0  0  0  0  0  0  0  0  0  0
    9.0671  -15.0463   19.3871 C   0  0  2  0  0  0  0  0  0  0  0  0
    8.7374  -15.6394   18.1101 N   0  0  0  0  0  0  0  0  0  0  0  0
    9.3090  -16.0972   20.4260 C   0  0  0  0  0  0  0  0  0  0  0  0
    8.8692  -17.2632   20.2544 O   0  0  0  0  0  0  0  0  0  0  0  0
   10.9183  -14.9047   23.9159 O   0  0  0  0  0  0  0  0  0  0  0  0
   11.1494  -16.2631   23.7607 C   0  0  0  0  0  0  0  0  0  0  0  0
   10.1561  -16.7795   22.7130 C   0  0  2  0  0  0  0  0  0  0  0  0
   10.0269  -15.8415   21.6263 N   0  0  0  0  0  0  0  0  0  0  0  0
    8.8716  -17.0484   23.3905 C   0  0  0  0  0  0  0  0  0  0  0  0
    7.8271  -16.4011   23.1381 O   0  0  0  0  0  0  0  0  0  0  0  0
    8.8085  -18.0441   24.3356 O   0  0  0  0  0  0  0  0  0  0  0  0
  2  1  1  6
  2  3  1  0
  3  4  1  0
  4  5  1  0
  5  9  1  0
  6  5  2  0
  7 14  1  0
  7  2  1  0
  8  7  2  0
 11 10  1  6
 11 13  1  0
 12 11  1  0
 13 15  1  0
 13 14  1  6
 15 20  1  0
 16 15  2  0
 18 17  1  0
 19 21  1  0
 19 18  1  1
 20 19  1  0
 21 22  2  0
 21 23  1  0
M  END
$$$$
