ETS.pdb
     RDKit          3D

 23 22  0  0  1  0  0  0  0  0999 V2000
    7.0568  -18.7653   16.9413 N   0  0  0  0  0  0  0  0  0  0  0  0
    6.4791  -18.0184   18.0407 C   0  0  1  0  0  0  0  0  0  0  0  0
    6.0736  -19.0278   19.1130 C   0  0  0  0  0  0  0  0  0  0  0  0
    7.0200  -20.2078   19.1211 C   0  0  0  0  0  0  0  0  0  0  0  0
    6.5213  -21.1879   20.1089 C   0  0  0  0  0  0  0  0  0  0  0  0
    5.4788  -20.9957   20.7652 O   0  0  0  0  0  0  0  0  0  0  0  0
    7.5188  -17.1134   18.5889 C   0  0  0  0  0  0  0  0  0  0  0  0
    8.7333  -17.4256   18.5406 O   0  0  0  0  0  0  0  0  0  0  0  0
    7.2372  -22.3577   20.3099 O   0  0  0  0  0  0  0  0  0  0  0  0
    8.5373  -12.5551   20.4003 C   0  0  0  0  0  0  0  0  0  0  0  0
    7.6123  -13.5425   19.7704 C   0  0  1  0  0  0  0  0  0  0  0  0
    7.1369  -13.1193   18.5302 O   0  0  0  0  0  0  0  0  0  0  0  0
    8.1994  -14.9357   19.6958 C   0  0  2  0  0  0  0  0  0  0  0  0
    7.2100  -15.8617   19.1909 N   0  0  0  0  0  0  0  0  0  0  0  0
    8.6570  -15.3266   21.0671 C   0  0  0  0  0  0  0  0  0  0  0  0
    7.8220  -15.7319   21.9162 O   0  0  0  0  0  0  0  0  0  0  0  0
   11.0138  -18.2664   23.2485 O   0  0  0  0  0  0  0  0  0  0  0  0
   10.4065  -17.5602   22.2212 C   0  0  0  0  0  0  0  0  0  0  0  0
   10.5959  -16.0677   22.5177 C   0  0  2  0  0  0  0  0  0  0  0  0
   10.0186  -15.2622   21.4710 N   0  0  0  0  0  0  0  0  0  0  0  0
   12.0394  -15.8152   22.7017 C   0  0  0  0  0  0  0  0  0  0  0  0
   12.7212  -15.1637   21.8745 O   0  0  0  0  0  0  0  0  0  0  0  0
   12.6686  -16.3091   23.8192 O   0  0  0  0  0  0  0  0  0  0  0  0
  2  1  1  6
  2  3  1  0
  3  4  1  0
  4  5  1  0
  5  9  1  0
  6  5  2  0
  7 14  1  0
  7  2  1  0
  8  7  2  0
 11 10  1  6
 11 13  1  0
 12 11  1  0
 13 15  1  0
 13 14  1  1
 15 20  1  0
 16 15  2  0
 18 17  1  0
 19 21  1  0
 19 18  1  6
 20 19  1  0
 21 22  2  0
 21 23  1  0
M  END
$$$$
