ETS.pdb
     RDKit          3D

 23 22  0  0  1  0  0  0  0  0999 V2000
    7.1521  -18.4616   18.0674 N   0  0  0  0  0  0  0  0  0  0  0  0
    8.5835  -18.3921   17.8515 C   0  0  1  0  0  0  0  0  0  0  0  0
    8.8053  -18.0384   16.3822 C   0  0  0  0  0  0  0  0  0  0  0  0
    8.1982  -16.6910   16.0595 C   0  0  0  0  0  0  0  0  0  0  0  0
    8.4068  -16.4278   14.6200 C   0  0  0  0  0  0  0  0  0  0  0  0
    9.4964  -16.0197   14.1718 O   0  0  0  0  0  0  0  0  0  0  0  0
    9.1331  -17.3092   18.7037 C   0  0  0  0  0  0  0  0  0  0  0  0
   10.3132  -16.9096   18.5541 O   0  0  0  0  0  0  0  0  0  0  0  0
    7.3560  -16.6426   13.7421 O   0  0  0  0  0  0  0  0  0  0  0  0
    7.4495  -13.8458   20.0332 C   0  0  0  0  0  0  0  0  0  0  0  0
    7.8689  -14.7640   21.1325 C   0  0  1  0  0  0  0  0  0  0  0  0
    6.7892  -15.3970   21.7463 O   0  0  0  0  0  0  0  0  0  0  0  0
    8.9246  -15.7585   20.6993 C   0  0  2  0  0  0  0  0  0  0  0  0
    8.3722  -16.6703   19.7222 N   0  0  0  0  0  0  0  0  0  0  0  0
    9.4056  -16.4917   21.9131 C   0  0  0  0  0  0  0  0  0  0  0  0
    8.8418  -17.5591   22.2667 O   0  0  0  0  0  0  0  0  0  0  0  0
   13.0438  -15.5870   23.6023 O   0  0  0  0  0  0  0  0  0  0  0  0
   12.5250  -16.8584   23.7953 C   0  0  0  0  0  0  0  0  0  0  0  0
   10.9993  -16.7239   23.8674 C   0  0  2  0  0  0  0  0  0  0  0  0
   10.4924  -16.0344   22.7075 N   0  0  0  0  0  0  0  0  0  0  0  0
   10.6572  -16.0415   25.1318 C   0  0  0  0  0  0  0  0  0  0  0  0
   10.0120  -14.9661   25.1649 O   0  0  0  0  0  0  0  0  0  0  0  0
   11.0570  -16.5983   26.3228 O   0  0  0  0  0  0  0  0  0  0  0  0
  2  1  1  6
  2  3  1  0
  3  4  1  0
  4  5  1  0
  5  9  1  0
  6  5  2  0
  7 14  1  0
  7  2  1  0
  8  7  2  0
 11 10  1  6
 11 13  1  0
 12 11  1  0
 13 15  1  0
 13 14  1  6
 15 20  1  0
 16 15  2  0
 18 17  1  0
 19 21  1  0
 19 18  1  6
 20 19  1  0
 21 22  2  0
 21 23  1  0
M  END
$$$$
