ETS.pdb
     RDKit          3D

 23 22  0  0  1  0  0  0  0  0999 V2000
   12.1910  -15.9211   15.6239 N   0  0  0  0  0  0  0  0  0  0  0  0
   11.1464  -16.5402   16.4151 C   0  0  1  0  0  0  0  0  0  0  0  0
   11.6580  -17.9122   16.8500 C   0  0  0  0  0  0  0  0  0  0  0  0
   13.1655  -17.9784   16.7442 C   0  0  0  0  0  0  0  0  0  0  0  0
   13.5927  -19.3378   17.1373 C   0  0  0  0  0  0  0  0  0  0  0  0
   13.6819  -20.2689   16.3129 O   0  0  0  0  0  0  0  0  0  0  0  0
   10.9109  -15.7024   17.6165 C   0  0  0  0  0  0  0  0  0  0  0  0
   11.8685  -15.3215   18.3325 O   0  0  0  0  0  0  0  0  0  0  0  0
   13.9039  -19.5827   18.4656 O   0  0  0  0  0  0  0  0  0  0  0  0
    7.7108  -12.9295   20.2585 C   0  0  0  0  0  0  0  0  0  0  0  0
    8.0502  -13.7502   19.0591 C   0  0  1  0  0  0  0  0  0  0  0  0
    8.0453  -13.0073   17.8797 O   0  0  0  0  0  0  0  0  0  0  0  0
    9.3389  -14.5275   19.2224 C   0  0  2  0  0  0  0  0  0  0  0  0
    9.6119  -15.2877   18.0229 N   0  0  0  0  0  0  0  0  0  0  0  0
    9.1983  -15.4254   20.4124 C   0  0  0  0  0  0  0  0  0  0  0  0
    8.6120  -16.5325   20.2983 O   0  0  0  0  0  0  0  0  0  0  0  0
   11.8647  -16.0443   23.0628 O   0  0  0  0  0  0  0  0  0  0  0  0
   10.7339  -15.7595   23.8132 C   0  0  0  0  0  0  0  0  0  0  0  0
    9.5227  -15.8859   22.8814 C   0  0  2  0  0  0  0  0  0  0  0  0
    9.7044  -15.0852   21.6967 N   0  0  0  0  0  0  0  0  0  0  0  0
    8.3149  -15.5108   23.6441 C   0  0  0  0  0  0  0  0  0  0  0  0
    7.6698  -14.4602   23.4123 O   0  0  0  0  0  0  0  0  0  0  0  0
    7.8731  -16.3382   24.6484 O   0  0  0  0  0  0  0  0  0  0  0  0
  2  1  1  6
  2  3  1  0
  3  4  1  0
  4  5  1  0
  5  9  1  0
  6  5  2  0
  7 14  1  0
  7  2  1  0
  8  7  2  0
 11 10  1  1
 11 13  1  0
 12 11  1  0
 13 15  1  0
 13 14  1  6
 15 20  1  0
 16 15  2  0
 18 17  1  0
 19 21  1  0
 19 18  1  1
 20 19  1  0
 21 22  2  0
 21 23  1  0
M  END
$$$$
