ETS.pdb
     RDKit          3D

 23 22  0  0  1  0  0  0  0  0999 V2000
    7.9927  -13.3484   16.1659 N   0  0  0  0  0  0  0  0  0  0  0  0
    7.7581  -14.5068   17.0046 C   0  0  1  0  0  0  0  0  0  0  0  0
    8.2418  -15.7328   16.2325 C   0  0  0  0  0  0  0  0  0  0  0  0
    9.4314  -15.3833   15.3660 C   0  0  0  0  0  0  0  0  0  0  0  0
    9.7921  -16.5814   14.5788 C   0  0  0  0  0  0  0  0  0  0  0  0
   10.9779  -16.9082   14.3747 O   0  0  0  0  0  0  0  0  0  0  0  0
    8.5628  -14.3591   18.2421 C   0  0  0  0  0  0  0  0  0  0  0  0
    9.6560  -13.7431   18.2284 O   0  0  0  0  0  0  0  0  0  0  0  0
    8.7776  -17.3652   14.0518 O   0  0  0  0  0  0  0  0  0  0  0  0
    7.4848  -12.7192   21.4175 C   0  0  0  0  0  0  0  0  0  0  0  0
    7.9402  -14.0953   21.7730 C   0  0  1  0  0  0  0  0  0  0  0  0
    6.8820  -14.9517   22.0727 O   0  0  0  0  0  0  0  0  0  0  0  0
    8.8663  -14.6957   20.7371 C   0  0  2  0  0  0  0  0  0  0  0  0
    8.1536  -14.8955   19.4947 N   0  0  0  0  0  0  0  0  0  0  0  0
    9.3940  -15.9906   21.2730 C   0  0  0  0  0  0  0  0  0  0  0  0
    8.8324  -17.0733   20.9652 O   0  0  0  0  0  0  0  0  0  0  0  0
   13.1920  -16.3476   22.8205 O   0  0  0  0  0  0  0  0  0  0  0  0
   12.5181  -17.4665   22.3550 C   0  0  0  0  0  0  0  0  0  0  0  0
   11.0356  -17.2851   22.7022 C   0  0  2  0  0  0  0  0  0  0  0  0
   10.5239  -16.0638   22.1328 N   0  0  0  0  0  0  0  0  0  0  0  0
   10.8988  -17.3307   24.1720 C   0  0  0  0  0  0  0  0  0  0  0  0
   10.3900  -16.3928   24.8317 O   0  0  0  0  0  0  0  0  0  0  0  0
   11.3432  -18.4392   24.8519 O   0  0  0  0  0  0  0  0  0  0  0  0
  2  1  1  6
  2  3  1  0
  3  4  1  0
  4  5  1  0
  5  9  1  0
  6  5  2  0
  7 14  1  0
  7  2  1  0
  8  7  2  0
 11 10  1  6
 11 13  1  0
 12 11  1  0
 13 15  1  0
 13 14  1  6
 15 20  1  0
 16 15  2  0
 18 17  1  0
 19 21  1  0
 19 18  1  1
 20 19  1  0
 21 22  2  0
 21 23  1  0
M  END
$$$$
