ETS.pdb
     RDKit          3D

 23 22  0  0  1  0  0  0  0  0999 V2000
    9.0111  -16.8976   15.0463 N   0  0  0  0  0  0  0  0  0  0  0  0
    8.1637  -17.0122   16.2164 C   0  0  1  0  0  0  0  0  0  0  0  0
    8.1179  -18.4895   16.6020 C   0  0  0  0  0  0  0  0  0  0  0  0
    6.7681  -19.0864   16.2706 C   0  0  0  0  0  0  0  0  0  0  0  0
    6.5041  -20.1811   17.2282 C   0  0  0  0  0  0  0  0  0  0  0  0
    7.3016  -20.4687   18.1425 O   0  0  0  0  0  0  0  0  0  0  0  0
    8.7827  -16.2375   17.3199 C   0  0  0  0  0  0  0  0  0  0  0  0
   10.0299  -16.1891   17.4506 O   0  0  0  0  0  0  0  0  0  0  0  0
    5.3316  -20.9098   17.1038 O   0  0  0  0  0  0  0  0  0  0  0  0
    8.0905  -12.8628   20.9386 C   0  0  0  0  0  0  0  0  0  0  0  0
    7.6795  -13.5796   19.6959 C   0  0  1  0  0  0  0  0  0  0  0  0
    7.5208  -12.7228   18.6079 O   0  0  0  0  0  0  0  0  0  0  0  0
    8.5862  -14.7442   19.3599 C   0  0  2  0  0  0  0  0  0  0  0  0
    8.0168  -15.5169   18.2782 N   0  0  0  0  0  0  0  0  0  0  0  0
    8.7545  -15.5790   20.5917 C   0  0  0  0  0  0  0  0  0  0  0  0
    7.7942  -16.2709   21.0176 O   0  0  0  0  0  0  0  0  0  0  0  0
   12.4370  -15.7659   22.4896 O   0  0  0  0  0  0  0  0  0  0  0  0
   11.6497  -16.9042   22.5738 C   0  0  0  0  0  0  0  0  0  0  0  0
   10.1859  -16.4556   22.4879 C   0  0  2  0  0  0  0  0  0  0  0  0
    9.9719  -15.6326   21.3241 N   0  0  0  0  0  0  0  0  0  0  0  0
    9.8425  -15.7642   23.7469 C   0  0  0  0  0  0  0  0  0  0  0  0
    9.4427  -14.5755   23.7765 O   0  0  0  0  0  0  0  0  0  0  0  0
    9.9623  -16.4409   24.9369 O   0  0  0  0  0  0  0  0  0  0  0  0
  2  1  1  6
  2  3  1  0
  3  4  1  0
  4  5  1  0
  5  9  1  0
  6  5  2  0
  7 14  1  0
  7  2  1  0
  8  7  2  0
 11 10  1  1
 11 13  1  0
 12 11  1  0
 13 15  1  0
 13 14  1  6
 15 20  1  0
 16 15  2  0
 18 17  1  0
 19 21  1  0
 19 18  1  1
 20 19  1  0
 21 22  2  0
 21 23  1  0
M  END
$$$$
