ETS.pdb
     RDKit          3D

 23 22  0  0  1  0  0  0  0  0999 V2000
    9.6558  -17.0863   17.1001 N   0  0  0  0  0  0  0  0  0  0  0  0
    9.0816  -17.6456   18.3074 C   0  0  1  0  0  0  0  0  0  0  0  0
    9.4315  -19.1324   18.3311 C   0  0  0  0  0  0  0  0  0  0  0  0
   10.7996  -19.3496   18.9386 C   0  0  0  0  0  0  0  0  0  0  0  0
   11.0871  -20.7994   18.9126 C   0  0  0  0  0  0  0  0  0  0  0  0
   10.9112  -21.5280   19.9089 O   0  0  0  0  0  0  0  0  0  0  0  0
    9.7061  -16.9775   19.4755 C   0  0  0  0  0  0  0  0  0  0  0  0
   10.9097  -16.6237   19.4462 O   0  0  0  0  0  0  0  0  0  0  0  0
   11.5673  -21.3646   17.7416 O   0  0  0  0  0  0  0  0  0  0  0  0
    8.0922  -13.9874   21.5073 C   0  0  0  0  0  0  0  0  0  0  0  0
    8.5076  -15.0916   22.4213 C   0  0  1  0  0  0  0  0  0  0  0  0
    7.4247  -15.8157   22.9174 O   0  0  0  0  0  0  0  0  0  0  0  0
    9.5526  -16.0006   21.8106 C   0  0  2  0  0  0  0  0  0  0  0  0
    8.9940  -16.7023   20.6761 N   0  0  0  0  0  0  0  0  0  0  0  0
   10.0163  -16.9579   22.8646 C   0  0  0  0  0  0  0  0  0  0  0  0
    9.5892  -18.1411   22.8704 O   0  0  0  0  0  0  0  0  0  0  0  0
   13.5653  -16.6412   24.6550 O   0  0  0  0  0  0  0  0  0  0  0  0
   12.8610  -17.8317   24.7523 C   0  0  0  0  0  0  0  0  0  0  0  0
   11.3810  -17.4743   24.9344 C   0  0  2  0  0  0  0  0  0  0  0  0
   10.9363  -16.5919   23.8849 N   0  0  0  0  0  0  0  0  0  0  0  0
   11.2114  -16.8910   26.2806 C   0  0  0  0  0  0  0  0  0  0  0  0
   11.5640  -17.4900   27.3248 O   0  0  0  0  0  0  0  0  0  0  0  0
   10.6463  -15.6444   26.4040 O   0  0  0  0  0  0  0  0  0  0  0  0
  2  1  1  6
  2  3  1  0
  3  4  1  0
  4  5  1  0
  5  9  1  0
  6  5  2  0
  7 14  1  0
  7  2  1  0
  8  7  2  0
 11 10  1  6
 11 13  1  0
 12 11  1  0
 13 15  1  0
 13 14  1  6
 15 20  1  0
 16 15  2  0
 18 17  1  0
 19 21  1  0
 19 18  1  6
 20 19  1  0
 21 22  2  0
 21 23  1  0
M  END
$$$$
