ETS.pdb
     RDKit          3D

 23 22  0  0  1  0  0  0  0  0999 V2000
    8.3781  -14.7343   14.9903 N   0  0  0  0  0  0  0  0  0  0  0  0
    8.3757  -15.6824   16.0864 C   0  0  1  0  0  0  0  0  0  0  0  0
    9.2157  -16.8820   15.6521 C   0  0  0  0  0  0  0  0  0  0  0  0
   10.3277  -16.4472   14.7233 C   0  0  0  0  0  0  0  0  0  0  0  0
   11.0650  -17.6548   14.2953 C   0  0  0  0  0  0  0  0  0  0  0  0
   11.9601  -17.6124   13.4284 O   0  0  0  0  0  0  0  0  0  0  0  0
    9.0120  -15.0395   17.2623 C   0  0  0  0  0  0  0  0  0  0  0  0
    9.9786  -14.2520   17.1198 O   0  0  0  0  0  0  0  0  0  0  0  0
   10.7496  -18.8722   14.8781 O   0  0  0  0  0  0  0  0  0  0  0  0
    7.6259  -12.6595   19.7785 C   0  0  0  0  0  0  0  0  0  0  0  0
    8.0938  -13.8702   20.5151 C   0  0  1  0  0  0  0  0  0  0  0  0
    7.0443  -14.6957   20.9152 O   0  0  0  0  0  0  0  0  0  0  0  0
    9.1554  -14.6441   19.7630 C   0  0  2  0  0  0  0  0  0  0  0  0
    8.5751  -15.2714   18.5963 N   0  0  0  0  0  0  0  0  0  0  0  0
    9.7402  -15.6630   20.6914 C   0  0  0  0  0  0  0  0  0  0  0  0
    9.3407  -16.8551   20.6478 O   0  0  0  0  0  0  0  0  0  0  0  0
   13.4788  -15.8544   21.9714 O   0  0  0  0  0  0  0  0  0  0  0  0
   12.6577  -15.8546   23.0887 C   0  0  0  0  0  0  0  0  0  0  0  0
   11.2562  -16.2710   22.6266 C   0  0  2  0  0  0  0  0  0  0  0  0
   10.7476  -15.3476   21.6437 N   0  0  0  0  0  0  0  0  0  0  0  0
   10.3898  -16.3703   23.8185 C   0  0  0  0  0  0  0  0  0  0  0  0
   10.6081  -17.1873   24.7452 O   0  0  0  0  0  0  0  0  0  0  0  0
    9.3000  -15.5400   23.9254 O   0  0  0  0  0  0  0  0  0  0  0  0
  2  1  1  6
  2  3  1  0
  3  4  1  0
  4  5  1  0
  5  9  1  0
  6  5  2  0
  7 14  1  0
  7  2  1  0
  8  7  2  0
 11 10  1  6
 11 13  1  0
 12 11  1  0
 13 15  1  0
 13 14  1  6
 15 20  1  0
 16 15  2  0
 18 17  1  0
 19 21  1  0
 19 18  1  1
 20 19  1  0
 21 22  2  0
 21 23  1  0
M  END
$$$$
