ETS.pdb
     RDKit          3D

 23 22  0  0  1  0  0  0  0  0999 V2000
    8.8092  -16.5653   15.8395 N   0  0  0  0  0  0  0  0  0  0  0  0
    8.4772  -17.1781   17.1102 C   0  0  1  0  0  0  0  0  0  0  0  0
    9.1334  -18.5572   17.1353 C   0  0  0  0  0  0  0  0  0  0  0  0
   10.6322  -18.4388   16.9685 C   0  0  0  0  0  0  0  0  0  0  0  0
   11.1975  -19.8040   16.9277 C   0  0  0  0  0  0  0  0  0  0  0  0
   12.4268  -20.0123   16.9159 O   0  0  0  0  0  0  0  0  0  0  0  0
    9.0496  -16.3442   18.1954 C   0  0  0  0  0  0  0  0  0  0  0  0
   10.1486  -15.7576   18.0439 O   0  0  0  0  0  0  0  0  0  0  0  0
   10.3312  -20.8857   16.9022 O   0  0  0  0  0  0  0  0  0  0  0  0
    7.3664  -13.4145   20.1663 C   0  0  0  0  0  0  0  0  0  0  0  0
    7.8188  -14.4863   21.1011 C   0  0  1  0  0  0  0  0  0  0  0  0
    6.7646  -15.2612   21.5820 O   0  0  0  0  0  0  0  0  0  0  0  0
    8.9228  -15.3454   20.5228 C   0  0  2  0  0  0  0  0  0  0  0  0
    8.4016  -16.1617   19.4489 N   0  0  0  0  0  0  0  0  0  0  0  0
    9.4844  -16.1919   21.6230 C   0  0  0  0  0  0  0  0  0  0  0  0
    9.1307  -17.3940   21.7336 O   0  0  0  0  0  0  0  0  0  0  0  0
   13.1498  -16.0554   23.0120 O   0  0  0  0  0  0  0  0  0  0  0  0
   12.3097  -15.9421   24.1094 C   0  0  0  0  0  0  0  0  0  0  0  0
   10.9301  -16.4596   23.6849 C   0  0  2  0  0  0  0  0  0  0  0  0
   10.4191  -15.6975   22.5732 N   0  0  0  0  0  0  0  0  0  0  0  0
   10.0407  -16.4169   24.8631 C   0  0  0  0  0  0  0  0  0  0  0  0
    9.0062  -15.7083   24.9022 O   0  0  0  0  0  0  0  0  0  0  0  0
   10.3501  -17.1792   25.9638 O   0  0  0  0  0  0  0  0  0  0  0  0
  2  1  1  6
  2  3  1  0
  3  4  1  0
  4  5  1  0
  5  9  1  0
  6  5  2  0
  7 14  1  0
  7  2  1  0
  8  7  2  0
 11 10  1  6
 11 13  1  0
 12 11  1  0
 13 15  1  0
 13 14  1  6
 15 20  1  0
 16 15  2  0
 18 17  1  0
 19 21  1  0
 19 18  1  1
 20 19  1  0
 21 22  2  0
 21 23  1  0
M  END
$$$$
