ETS.pdb
     RDKit          3D

 23 22  0  0  1  0  0  0  0  0999 V2000
   11.1121  -17.0233   17.7512 N   0  0  0  0  0  0  0  0  0  0  0  0
   10.6756  -17.6378   18.9890 C   0  0  1  0  0  0  0  0  0  0  0  0
   11.8506  -18.4477   19.5338 C   0  0  0  0  0  0  0  0  0  0  0  0
   13.0793  -18.2513   18.6737 C   0  0  0  0  0  0  0  0  0  0  0  0
   14.1951  -18.9981   19.2919 C   0  0  0  0  0  0  0  0  0  0  0  0
   14.7301  -18.6297   20.3561 O   0  0  0  0  0  0  0  0  0  0  0  0
   10.3355  -16.5612   19.9513 C   0  0  0  0  0  0  0  0  0  0  0  0
   11.1824  -15.6909   20.2681 O   0  0  0  0  0  0  0  0  0  0  0  0
   14.6594  -20.1448   18.6668 O   0  0  0  0  0  0  0  0  0  0  0  0
    6.9251  -14.3715   20.0162 C   0  0  0  0  0  0  0  0  0  0  0  0
    7.2143  -15.0611   21.3078 C   0  0  1  0  0  0  0  0  0  0  0  0
    6.4032  -16.1754   21.5163 O   0  0  0  0  0  0  0  0  0  0  0  0
    8.6798  -15.3989   21.4804 C   0  0  2  0  0  0  0  0  0  0  0  0
    9.0552  -16.4510   20.5619 N   0  0  0  0  0  0  0  0  0  0  0  0
    8.9015  -15.8159   22.9014 C   0  0  0  0  0  0  0  0  0  0  0  0
    9.1768  -17.0139   23.1688 O   0  0  0  0  0  0  0  0  0  0  0  0
    7.5921  -13.4338   25.8908 O   0  0  0  0  0  0  0  0  0  0  0  0
    8.7585  -14.0681   26.2909 C   0  0  0  0  0  0  0  0  0  0  0  0
    8.9553  -15.2831   25.3765 C   0  0  2  0  0  0  0  0  0  0  0  0
    8.8151  -14.9079   23.9919 N   0  0  0  0  0  0  0  0  0  0  0  0
    7.9933  -16.3265   25.7852 C   0  0  0  0  0  0  0  0  0  0  0  0
    7.0701  -16.7243   25.0348 O   0  0  0  0  0  0  0  0  0  0  0  0
    8.1059  -16.8892   27.0339 O   0  0  0  0  0  0  0  0  0  0  0  0
  2  1  1  6
  2  3  1  0
  3  4  1  0
  4  5  1  0
  5  9  1  0
  6  5  2  0
  7 14  1  0
  7  2  1  0
  8  7  2  0
 11 10  1  6
 11 13  1  0
 12 11  1  0
 13 15  1  0
 13 14  1  6
 15 20  1  0
 16 15  2  0
 18 17  1  0
 19 21  1  0
 19 18  1  1
 20 19  1  0
 21 22  2  0
 21 23  1  0
M  END
$$$$
