PCE.pdb
     RDKit          3D

 23 23  0  0  1  0  0  0  0  0999 V2000
    6.9837  -14.7261   20.7407 N   0  0  0  0  0  0  0  0  0  0  0  0
    6.5761  -13.3693   20.5620 C   0  0  0  0  0  0  0  0  0  0  0  0
    7.8592  -12.5469   20.3926 C   0  0  0  0  0  0  0  0  0  0  0  0
    8.7974  -13.6310   19.8775 C   0  0  0  0  0  0  0  0  0  0  0  0
    8.4289  -14.7494   20.8589 C   0  0  1  0  0  0  0  0  0  0  0  0
    8.7862  -14.3884   22.2383 C   0  0  0  0  0  0  0  0  0  0  0  0
    9.9809  -14.1588   22.5614 O   0  0  0  0  0  0  0  0  0  0  0  0
    7.8309  -14.2733   23.2900 N   0  0  0  0  0  0  0  0  0  0  0  0
    8.2393  -14.2776   24.6795 C   0  0  1  0  0  0  0  0  0  0  0  0
    7.1771  -13.5928   25.5024 C   0  0  0  0  0  0  0  0  0  0  0  0
    5.6235  -14.5034   25.5001 S   0  0  0  0  0  0  0  0  0  0  0  0
    8.3232  -15.7034   25.1538 C   0  0  0  0  0  0  0  0  0  0  0  0
    7.3999  -16.5143   24.8978 O   0  0  0  0  0  0  0  0  0  0  0  0
    9.4392  -16.1667   25.8971 N   0  0  0  0  0  0  0  0  0  0  0  0
    9.5497  -17.5610   26.3573 C   0  0  1  0  0  0  0  0  0  0  0  0
   10.5022  -18.2311   25.4267 C   0  0  0  0  0  0  0  0  0  0  0  0
   11.8164  -17.5538   25.2364 C   0  0  0  0  0  0  0  0  0  0  0  0
   12.6114  -18.3690   24.2933 C   0  0  0  0  0  0  0  0  0  0  0  0
   12.1301  -19.4143   23.8142 O   0  0  0  0  0  0  0  0  0  0  0  0
    9.9395  -17.6145   27.7708 C   0  0  0  0  0  0  0  0  0  0  0  0
   10.0440  -18.8151   28.4771 O   0  0  0  0  0  0  0  0  0  0  0  0
   13.8835  -17.9805   23.9393 O   0  0  0  0  0  0  0  0  0  0  0  0
   10.1950  -16.5564   28.3952 O   0  0  0  0  0  0  0  0  0  0  0  0
  1  2  1  0
  2  3  1  0
  4  3  1  0
  5  4  1  0
  5  6  1  1
  5  1  1  0
  6  7  2  0
  8  9  1  0
  8  6  1  0
  9 12  1  0
  9 10  1  1
 11 10  1  0
 12 13  2  0
 12 14  1  0
 14 15  1  0
 15 16  1  6
 16 17  1  0
 17 18  1  0
 18 22  1  0
 19 18  2  0
 20 21  1  0
 20 15  1  0
 23 20  2  0
M  END
$$$$
