PCE.pdb
     RDKit          3D

 23 23  0  0  1  0  0  0  0  0999 V2000
    6.9857  -15.0522   20.9268 N   0  0  0  0  0  0  0  0  0  0  0  0
    6.2550  -13.8517   20.6739 C   0  0  0  0  0  0  0  0  0  0  0  0
    7.2931  -12.7643   20.3717 C   0  0  0  0  0  0  0  0  0  0  0  0
    8.4454  -13.6328   19.8834 C   0  0  0  0  0  0  0  0  0  0  0  0
    8.3970  -14.7200   20.9629 C   0  0  1  0  0  0  0  0  0  0  0  0
    8.7089  -14.1693   22.2896 C   0  0  0  0  0  0  0  0  0  0  0  0
    9.8246  -13.6370   22.5264 O   0  0  0  0  0  0  0  0  0  0  0  0
    7.7944  -14.1951   23.3828 N   0  0  0  0  0  0  0  0  0  0  0  0
    8.1848  -13.7356   24.6996 C   0  0  1  0  0  0  0  0  0  0  0  0
    6.9562  -13.2642   25.4361 C   0  0  0  0  0  0  0  0  0  0  0  0
    7.3619  -12.5020   27.0165 S   0  0  0  0  0  0  0  0  0  0  0  0
    8.7494  -14.8990   25.4694 C   0  0  0  0  0  0  0  0  0  0  0  0
    8.0491  -15.9180   25.6867 O   0  0  0  0  0  0  0  0  0  0  0  0
   10.0778  -14.8768   25.9666 N   0  0  0  0  0  0  0  0  0  0  0  0
   10.6588  -16.0135   26.7005 C   0  0  1  0  0  0  0  0  0  0  0  0
   12.0680  -16.1350   26.2297 C   0  0  0  0  0  0  0  0  0  0  0  0
   12.2495  -16.5297   24.8038 C   0  0  0  0  0  0  0  0  0  0  0  0
   13.6777  -16.3519   24.4650 C   0  0  0  0  0  0  0  0  0  0  0  0
   14.4930  -16.0296   25.3512 O   0  0  0  0  0  0  0  0  0  0  0  0
   10.5142  -15.8281   28.1487 C   0  0  0  0  0  0  0  0  0  0  0  0
   10.7451  -16.8566   29.0653 O   0  0  0  0  0  0  0  0  0  0  0  0
   14.1149  -16.5404   23.1736 O   0  0  0  0  0  0  0  0  0  0  0  0
   10.1709  -14.7130   28.6109 O   0  0  0  0  0  0  0  0  0  0  0  0
  1  2  1  0
  2  3  1  0
  4  3  1  0
  5  4  1  0
  5  6  1  1
  5  1  1  0
  6  7  2  0
  8  9  1  0
  8  6  1  0
  9 12  1  0
  9 10  1  1
 11 10  1  0
 12 13  2  0
 12 14  1  0
 14 15  1  0
 15 16  1  1
 16 17  1  0
 17 18  1  0
 18 22  1  0
 19 18  2  0
 20 21  1  0
 20 15  1  0
 23 20  2  0
M  END
$$$$
