PCE.pdb
     RDKit          3D

 23 23  0  0  1  0  0  0  0  0999 V2000
    8.9618  -15.4805   20.7333 N   0  0  0  0  0  0  0  0  0  0  0  0
    9.5640  -16.7706   20.6228 C   0  0  0  0  0  0  0  0  0  0  0  0
    8.8523  -17.6729   21.6379 C   0  0  0  0  0  0  0  0  0  0  0  0
    7.5227  -16.9381   21.7523 C   0  0  0  0  0  0  0  0  0  0  0  0
    8.0530  -15.5042   21.8632 C   0  0  1  0  0  0  0  0  0  0  0  0
    8.8378  -15.3187   23.0922 C   0  0  0  0  0  0  0  0  0  0  0  0
   10.0701  -15.5736   23.1210 O   0  0  0  0  0  0  0  0  0  0  0  0
    8.2776  -14.8476   24.3154 N   0  0  0  0  0  0  0  0  0  0  0  0
    9.1115  -14.5756   25.4678 C   0  0  1  0  0  0  0  0  0  0  0  0
    8.3789  -13.6321   26.3884 C   0  0  0  0  0  0  0  0  0  0  0  0
    9.3145  -13.2815   27.8867 S   0  0  0  0  0  0  0  0  0  0  0  0
    9.3269  -15.8599   26.2220 C   0  0  0  0  0  0  0  0  0  0  0  0
    8.3614  -16.6243   26.4654 O   0  0  0  0  0  0  0  0  0  0  0  0
   10.6166  -16.2393   26.6750 N   0  0  0  0  0  0  0  0  0  0  0  0
   10.8450  -17.4741   27.4440 C   0  0  1  0  0  0  0  0  0  0  0  0
   12.1268  -18.0453   26.9411 C   0  0  0  0  0  0  0  0  0  0  0  0
   12.1884  -18.3264   25.4785 C   0  0  0  0  0  0  0  0  0  0  0  0
   13.5389  -18.8464   25.1757 C   0  0  0  0  0  0  0  0  0  0  0  0
   13.8957  -19.0021   23.9915 O   0  0  0  0  0  0  0  0  0  0  0  0
   10.8232  -17.2024   28.8857 C   0  0  0  0  0  0  0  0  0  0  0  0
   10.6843  -15.9135   29.4060 O   0  0  0  0  0  0  0  0  0  0  0  0
   14.4081  -19.1606   26.1956 O   0  0  0  0  0  0  0  0  0  0  0  0
   10.9315  -18.1450   29.7070 O   0  0  0  0  0  0  0  0  0  0  0  0
  1  2  1  0
  2  3  1  0
  4  3  1  0
  5  4  1  0
  5  6  1  1
  5  1  1  0
  6  7  2  0
  8  9  1  0
  8  6  1  0
  9 12  1  0
  9 10  1  1
 11 10  1  0
 12 13  2  0
 12 14  1  0
 14 15  1  0
 15 16  1  6
 16 17  1  0
 17 18  1  0
 18 22  1  0
 19 18  2  0
 20 21  1  0
 20 15  1  0
 23 20  2  0
M  END
$$$$
