PCE.pdb
     RDKit          3D

 23 23  0  0  1  0  0  0  0  0999 V2000
    6.5881  -14.5438   20.7197 N   0  0  0  0  0  0  0  0  0  0  0  0
    6.4001  -13.1501   20.4726 C   0  0  0  0  0  0  0  0  0  0  0  0
    7.7836  -12.5737   20.1485 C   0  0  0  0  0  0  0  0  0  0  0  0
    8.4790  -13.8325   19.6461 C   0  0  0  0  0  0  0  0  0  0  0  0
    8.0137  -14.8097   20.7316 C   0  0  1  0  0  0  0  0  0  0  0  0
    8.5434  -14.4345   22.0504 C   0  0  0  0  0  0  0  0  0  0  0  0
    9.7650  -14.1774   22.2109 O   0  0  0  0  0  0  0  0  0  0  0  0
    7.7343  -14.3351   23.2198 N   0  0  0  0  0  0  0  0  0  0  0  0
    8.3237  -14.3289   24.5427 C   0  0  1  0  0  0  0  0  0  0  0  0
    7.3104  -13.7992   25.5259 C   0  0  0  0  0  0  0  0  0  0  0  0
    5.7407  -14.6759   25.4226 S   0  0  0  0  0  0  0  0  0  0  0  0
    8.6342  -15.7468   24.9398 C   0  0  0  0  0  0  0  0  0  0  0  0
    7.9254  -16.6945   24.5209 O   0  0  0  0  0  0  0  0  0  0  0  0
    9.7277  -16.0495   25.7913 N   0  0  0  0  0  0  0  0  0  0  0  0
   10.1694  -17.4324   26.0377 C   0  0  1  0  0  0  0  0  0  0  0  0
   11.4111  -17.6210   25.2346 C   0  0  0  0  0  0  0  0  0  0  0  0
   12.0749  -18.9498   25.3589 C   0  0  0  0  0  0  0  0  0  0  0  0
   13.2893  -18.9278   24.5158 C   0  0  0  0  0  0  0  0  0  0  0  0
   13.2195  -18.5423   23.3324 O   0  0  0  0  0  0  0  0  0  0  0  0
   10.3299  -17.6805   27.4749 C   0  0  0  0  0  0  0  0  0  0  0  0
   10.5225  -18.9604   28.0002 O   0  0  0  0  0  0  0  0  0  0  0  0
   14.5006  -19.3311   25.0302 O   0  0  0  0  0  0  0  0  0  0  0  0
   10.2973  -16.7248   28.2876 O   0  0  0  0  0  0  0  0  0  0  0  0
  1  2  1  0
  2  3  1  0
  4  3  1  0
  5  4  1  0
  5  6  1  1
  5  1  1  0
  6  7  2  0
  8  9  1  0
  8  6  1  0
  9 12  1  0
  9 10  1  1
 11 10  1  0
 12 13  2  0
 12 14  1  0
 14 15  1  0
 15 16  1  6
 16 17  1  0
 17 18  1  0
 18 22  1  0
 19 18  2  0
 20 21  1  0
 20 15  1  0
 23 20  2  0
M  END
$$$$
