YKS.pdb
     RDKit          3D

 28 28  0  0  1  0  0  0  0  0999 V2000
    6.6026  -10.5669   27.7082 O   0  0  0  0  0  0  0  0  0  0  0  0
    6.7993  -11.8829   27.2842 C   0  0  0  0  0  0  0  0  0  0  0  0
    7.9162  -12.5223   27.7548 C   0  0  0  0  0  0  0  0  0  0  0  0
    8.1697  -13.8100   27.3803 C   0  0  0  0  0  0  0  0  0  0  0  0
    7.2816  -14.4489   26.5227 C   0  0  0  0  0  0  0  0  0  0  0  0
    7.6032  -15.8286   26.1320 C   0  0  0  0  0  0  0  0  0  0  0  0
    6.6248  -16.3184   25.0988 C   0  0  2  0  0  0  0  0  0  0  0  0
    6.2595  -17.6829   25.5329 N   0  0  0  0  0  0  0  0  0  0  0  0
    7.2764  -16.3509   23.7829 C   0  0  0  0  0  0  0  0  0  0  0  0
    7.9675  -17.3269   23.3968 O   0  0  0  0  0  0  0  0  0  0  0  0
    6.1534  -13.8242   26.0383 C   0  0  0  0  0  0  0  0  0  0  0  0
    5.9204  -12.5163   26.4349 C   0  0  0  0  0  0  0  0  0  0  0  0
    7.1748  -15.2739   22.8390 N   0  0  0  0  0  0  0  0  0  0  0  0
    7.9916  -15.2016   21.6459 C   0  0  1  0  0  0  0  0  0  0  0  0
    7.8274  -13.7956   21.0697 C   0  0  0  0  0  0  0  0  0  0  0  0
    8.7516  -13.5650   19.9123 C   0  0  0  0  0  0  0  0  0  0  0  0
    8.0329  -14.0262   18.6539 C   0  0  0  0  0  0  0  0  0  0  0  0
    8.9191  -13.8306   17.4310 C   0  0  0  0  0  0  0  0  0  0  0  0
    8.1635  -14.1933   16.2506 N   0  0  0  0  0  0  0  0  0  0  0  0
    9.4123  -15.4275   22.0126 C   0  0  0  0  0  0  0  0  0  0  0  0
    9.9517  -14.8601   23.0114 O   0  0  0  0  0  0  0  0  0  0  0  0
   11.3066  -18.5349   22.5609 O   0  0  0  0  0  0  0  0  0  0  0  0
   12.0702  -17.8737   21.6226 C   0  0  0  0  0  0  0  0  0  0  0  0
   11.6223  -16.4401   21.5189 C   0  0  2  0  0  0  0  0  0  0  0  0
   10.2277  -16.2943   21.2527 N   0  0  0  0  0  0  0  0  0  0  0  0
   12.4723  -15.7471   20.5020 C   0  0  0  0  0  0  0  0  0  0  0  0
   13.8398  -15.7561   20.7429 O   0  0  0  0  0  0  0  0  0  0  0  0
   12.0108  -15.1864   19.4896 O   0  0  0  0  0  0  0  0  0  0  0  0
  2  1  1  0
  3  2  2  0
  4  3  1  0
  5 11  1  0
  5  4  2  0
  6  5  1  0
  7  6  1  0
  7  8  1  1
  9  7  1  0
  9 10  2  0
 11 12  2  0
 12  2  1  0
 13  9  1  0
 14 13  1  0
 14 15  1  1
 16 15  1  0
 16 17  1  0
 18 17  1  0
 19 18  1  0
 20 14  1  0
 21 20  2  0
 23 22  1  0
 24 23  1  6
 24 25  1  0
 25 20  1  0
 26 24  1  0
 27 26  1  0
 28 26  2  0
M  END
$$$$
