YKS.pdb
     RDKit          3D

 28 28  0  0  1  0  0  0  0  0999 V2000
    6.4699  -10.4295   27.6201 O   0  0  0  0  0  0  0  0  0  0  0  0
    6.7245  -11.7222   27.1571 C   0  0  0  0  0  0  0  0  0  0  0  0
    7.0713  -11.8477   25.8374 C   0  0  0  0  0  0  0  0  0  0  0  0
    7.3339  -13.0825   25.3189 C   0  0  0  0  0  0  0  0  0  0  0  0
    7.2428  -14.1942   26.1485 C   0  0  0  0  0  0  0  0  0  0  0  0
    7.5169  -15.5053   25.5439 C   0  0  0  0  0  0  0  0  0  0  0  0
    6.4907  -15.8160   24.4877 C   0  0  2  0  0  0  0  0  0  0  0  0
    5.8497  -17.0707   24.9331 N   0  0  0  0  0  0  0  0  0  0  0  0
    7.1605  -16.0075   23.1946 C   0  0  0  0  0  0  0  0  0  0  0  0
    7.6787  -17.1021   22.8594 O   0  0  0  0  0  0  0  0  0  0  0  0
    6.8958  -14.0899   27.4776 C   0  0  0  0  0  0  0  0  0  0  0  0
    6.6345  -12.8236   27.9779 C   0  0  0  0  0  0  0  0  0  0  0  0
    7.2748  -14.9625   22.2168 N   0  0  0  0  0  0  0  0  0  0  0  0
    7.9555  -15.1472   20.9526 C   0  0  1  0  0  0  0  0  0  0  0  0
    7.9033  -13.8117   20.2113 C   0  0  0  0  0  0  0  0  0  0  0  0
    8.7876  -13.8205   19.0009 C   0  0  0  0  0  0  0  0  0  0  0  0
    7.8977  -14.0288   17.7855 C   0  0  0  0  0  0  0  0  0  0  0  0
    8.7234  -13.9912   16.5066 C   0  0  0  0  0  0  0  0  0  0  0  0
    7.8323  -14.1507   15.3768 N   0  0  0  0  0  0  0  0  0  0  0  0
    9.3693  -15.5202   21.2093 C   0  0  0  0  0  0  0  0  0  0  0  0
   10.0947  -14.8917   22.0397 O   0  0  0  0  0  0  0  0  0  0  0  0
   10.4529  -19.0996   20.7382 O   0  0  0  0  0  0  0  0  0  0  0  0
   11.6373  -18.3950   20.6992 C   0  0  0  0  0  0  0  0  0  0  0  0
   11.3514  -16.9169   20.6864 C   0  0  2  0  0  0  0  0  0  0  0  0
    9.9678  -16.6033   20.5294 N   0  0  0  0  0  0  0  0  0  0  0  0
   12.2038  -16.2752   19.6384 C   0  0  0  0  0  0  0  0  0  0  0  0
   13.5743  -16.4514   19.7758 O   0  0  0  0  0  0  0  0  0  0  0  0
   11.7418  -15.6161   18.6873 O   0  0  0  0  0  0  0  0  0  0  0  0
  2  1  1  0
  3  2  2  0
  4  3  1  0
  5 11  1  0
  5  4  2  0
  6  5  1  0
  7  6  1  0
  7  8  1  1
  9  7  1  0
  9 10  2  0
 11 12  2  0
 12  2  1  0
 13  9  1  0
 14 13  1  0
 14 15  1  6
 16 15  1  0
 16 17  1  0
 18 17  1  0
 19 18  1  0
 20 14  1  0
 21 20  2  0
 23 22  1  0
 24 23  1  6
 24 25  1  0
 25 20  1  0
 26 24  1  0
 27 26  1  0
 28 26  2  0
M  END
$$$$
