YKS.pdb
     RDKit          3D

 28 28  0  0  1  0  0  0  0  0999 V2000
    9.4603  -19.2458   30.6064 O   0  0  0  0  0  0  0  0  0  0  0  0
    9.4542  -18.7371   29.3058 C   0  0  0  0  0  0  0  0  0  0  0  0
    9.8890  -19.5759   28.3132 C   0  0  0  0  0  0  0  0  0  0  0  0
    9.9091  -19.1431   27.0191 C   0  0  0  0  0  0  0  0  0  0  0  0
    9.4846  -17.8502   26.7349 C   0  0  0  0  0  0  0  0  0  0  0  0
    9.5399  -17.4206   25.3307 C   0  0  0  0  0  0  0  0  0  0  0  0
    8.1522  -17.3526   24.7522 C   0  0  2  0  0  0  0  0  0  0  0  0
    7.6495  -18.7415   24.7969 N   0  0  0  0  0  0  0  0  0  0  0  0
    8.2218  -16.8716   23.3662 C   0  0  0  0  0  0  0  0  0  0  0  0
    8.6094  -17.6002   22.4184 O   0  0  0  0  0  0  0  0  0  0  0  0
    9.0441  -16.9912   27.7178 C   0  0  0  0  0  0  0  0  0  0  0  0
    9.0341  -17.4570   29.0236 C   0  0  0  0  0  0  0  0  0  0  0  0
    7.8538  -15.5364   22.9879 N   0  0  0  0  0  0  0  0  0  0  0  0
    8.1793  -14.9736   21.6945 C   0  0  1  0  0  0  0  0  0  0  0  0
    7.4888  -13.6130   21.6063 C   0  0  0  0  0  0  0  0  0  0  0  0
    7.8430  -12.8985   20.3371 C   0  0  0  0  0  0  0  0  0  0  0  0
    7.3864  -13.7706   19.1781 C   0  0  0  0  0  0  0  0  0  0  0  0
    7.7986  -13.1514   17.8494 C   0  0  0  0  0  0  0  0  0  0  0  0
    7.3300  -14.0043   16.7775 N   0  0  0  0  0  0  0  0  0  0  0  0
    9.6497  -14.7938   21.5964 C   0  0  0  0  0  0  0  0  0  0  0  0
   10.3631  -14.4931   22.6020 O   0  0  0  0  0  0  0  0  0  0  0  0
   13.0436  -17.3300   20.5240 O   0  0  0  0  0  0  0  0  0  0  0  0
   11.8644  -16.7640   20.9598 C   0  0  0  0  0  0  0  0  0  0  0  0
   11.6619  -15.4296   20.2926 C   0  0  2  0  0  0  0  0  0  0  0  0
   10.3184  -14.9529   20.3630 N   0  0  0  0  0  0  0  0  0  0  0  0
   12.1622  -15.5188   18.8860 C   0  0  0  0  0  0  0  0  0  0  0  0
   13.5300  -15.7050   18.7365 O   0  0  0  0  0  0  0  0  0  0  0  0
   11.4212  -15.4348   17.8878 O   0  0  0  0  0  0  0  0  0  0  0  0
  2  1  1  0
  3  2  2  0
  4  3  1  0
  5 11  1  0
  5  4  2  0
  6  5  1  0
  7  6  1  0
  7  8  1  6
  9  7  1  0
  9 10  2  0
 11 12  2  0
 12  2  1  0
 13  9  1  0
 14 13  1  0
 14 15  1  1
 16 15  1  0
 16 17  1  0
 18 17  1  0
 19 18  1  0
 20 14  1  0
 21 20  2  0
 23 22  1  0
 24 23  1  6
 24 25  1  0
 25 20  1  0
 26 24  1  0
 27 26  1  0
 28 26  2  0
M  END
$$$$
