YKS.pdb
     RDKit          3D

 28 28  0  0  1  0  0  0  0  0999 V2000
    5.5334  -10.3542   27.0458 O   0  0  0  0  0  0  0  0  0  0  0  0
    6.1308  -11.6020   26.8551 C   0  0  0  0  0  0  0  0  0  0  0  0
    6.4620  -11.9372   25.5684 C   0  0  0  0  0  0  0  0  0  0  0  0
    7.0491  -13.1420   25.3105 C   0  0  0  0  0  0  0  0  0  0  0  0
    7.2997  -14.0089   26.3679 C   0  0  0  0  0  0  0  0  0  0  0  0
    7.9169  -15.3020   26.0418 C   0  0  0  0  0  0  0  0  0  0  0  0
    7.0071  -16.1028   25.1497 C   0  0  2  0  0  0  0  0  0  0  0  0
    6.8210  -17.3912   25.8488 N   0  0  0  0  0  0  0  0  0  0  0  0
    7.6545  -16.3090   23.8475 C   0  0  0  0  0  0  0  0  0  0  0  0
    8.2965  -17.3536   23.5718 O   0  0  0  0  0  0  0  0  0  0  0  0
    6.9745  -13.6912   27.6683 C   0  0  0  0  0  0  0  0  0  0  0  0
    6.3793  -12.4610   27.9017 C   0  0  0  0  0  0  0  0  0  0  0  0
    7.6044  -15.3367   22.7923 N   0  0  0  0  0  0  0  0  0  0  0  0
    8.1874  -15.5694   21.4878 C   0  0  1  0  0  0  0  0  0  0  0  0
    7.9057  -14.3302   20.6388 C   0  0  0  0  0  0  0  0  0  0  0  0
    8.5120  -14.4506   19.2732 C   0  0  0  0  0  0  0  0  0  0  0  0
    8.0398  -13.2582   18.4560 C   0  0  0  0  0  0  0  0  0  0  0  0
    8.6710  -13.2772   17.0704 C   0  0  0  0  0  0  0  0  0  0  0  0
    8.0130  -14.2939   16.2772 N   0  0  0  0  0  0  0  0  0  0  0  0
    9.6535  -15.7512   21.6338 C   0  0  0  0  0  0  0  0  0  0  0  0
   10.3731  -14.9418   22.2952 O   0  0  0  0  0  0  0  0  0  0  0  0
   11.4572  -19.3414   21.3495 O   0  0  0  0  0  0  0  0  0  0  0  0
   12.1537  -18.2560   21.8370 C   0  0  0  0  0  0  0  0  0  0  0  0
   11.7271  -17.0082   21.1107 C   0  0  2  0  0  0  0  0  0  0  0  0
   10.3109  -16.8471   21.0334 N   0  0  0  0  0  0  0  0  0  0  0  0
   12.3767  -16.9945   19.7636 C   0  0  0  0  0  0  0  0  0  0  0  0
   13.7622  -17.0862   19.7545 O   0  0  0  0  0  0  0  0  0  0  0  0
   11.7402  -16.9072   18.6960 O   0  0  0  0  0  0  0  0  0  0  0  0
  2  1  1  0
  3  2  2  0
  4  3  1  0
  5 11  1  0
  5  4  2  0
  6  5  1  0
  7  6  1  0
  7  8  1  1
  9  7  1  0
  9 10  2  0
 11 12  2  0
 12  2  1  0
 13  9  1  0
 14 13  1  0
 14 15  1  6
 16 15  1  0
 16 17  1  0
 18 17  1  0
 19 18  1  0
 20 14  1  0
 21 20  2  0
 23 22  1  0
 24 23  1  6
 24 25  1  0
 25 20  1  0
 26 24  1  0
 27 26  1  0
 28 26  2  0
M  END
$$$$
