YKS.pdb
     RDKit          3D

 28 28  0  0  1  0  0  0  0  0999 V2000
    7.0025  -10.4493   27.5164 O   0  0  0  0  0  0  0  0  0  0  0  0
    7.1389  -11.7803   27.1163 C   0  0  0  0  0  0  0  0  0  0  0  0
    8.4036  -12.3070   27.1462 C   0  0  0  0  0  0  0  0  0  0  0  0
    8.6087  -13.6023   26.7682 C   0  0  0  0  0  0  0  0  0  0  0  0
    7.5207  -14.3642   26.3579 C   0  0  0  0  0  0  0  0  0  0  0  0
    7.7905  -15.7478   25.9431 C   0  0  0  0  0  0  0  0  0  0  0  0
    6.7308  -16.2197   24.9843 C   0  0  2  0  0  0  0  0  0  0  0  0
    6.2484  -17.4990   25.5449 N   0  0  0  0  0  0  0  0  0  0  0  0
    7.3269  -16.4276   23.6581 C   0  0  0  0  0  0  0  0  0  0  0  0
    7.8593  -17.5149   23.3213 O   0  0  0  0  0  0  0  0  0  0  0  0
    6.2416  -13.8539   26.3204 C   0  0  0  0  0  0  0  0  0  0  0  0
    6.0621  -12.5355   26.7098 C   0  0  0  0  0  0  0  0  0  0  0  0
    7.3475  -15.4083   22.6472 N   0  0  0  0  0  0  0  0  0  0  0  0
    7.9977  -15.5915   21.3668 C   0  0  1  0  0  0  0  0  0  0  0  0
    7.8503  -14.2818   20.5931 C   0  0  0  0  0  0  0  0  0  0  0  0
    8.6241  -14.3121   19.3096 C   0  0  0  0  0  0  0  0  0  0  0  0
    7.7043  -13.8077   18.2086 C   0  0  0  0  0  0  0  0  0  0  0  0
    8.3635  -13.9716   16.8457 C   0  0  0  0  0  0  0  0  0  0  0  0
    7.5476  -13.3018   15.8548 N   0  0  0  0  0  0  0  0  0  0  0  0
    9.4368  -15.8814   21.5871 C   0  0  0  0  0  0  0  0  0  0  0  0
   10.1045  -15.3272   22.5132 O   0  0  0  0  0  0  0  0  0  0  0  0
   11.2017  -19.3498   21.1728 O   0  0  0  0  0  0  0  0  0  0  0  0
   11.8604  -18.2596   21.7005 C   0  0  0  0  0  0  0  0  0  0  0  0
   11.5277  -17.0272   20.9024 C   0  0  2  0  0  0  0  0  0  0  0  0
   10.1259  -16.7974   20.7626 N   0  0  0  0  0  0  0  0  0  0  0  0
   12.2261  -17.1105   19.5825 C   0  0  0  0  0  0  0  0  0  0  0  0
   13.6114  -17.1913   19.6304 O   0  0  0  0  0  0  0  0  0  0  0  0
   11.6287  -17.1098   18.4891 O   0  0  0  0  0  0  0  0  0  0  0  0
  2  1  1  0
  3  2  2  0
  4  3  1  0
  5 11  1  0
  5  4  2  0
  6  5  1  0
  7  6  1  0
  7  8  1  1
  9  7  1  0
  9 10  2  0
 11 12  2  0
 12  2  1  0
 13  9  1  0
 14 13  1  0
 14 15  1  6
 16 15  1  0
 16 17  1  0
 18 17  1  0
 19 18  1  0
 20 14  1  0
 21 20  2  0
 23 22  1  0
 24 23  1  6
 24 25  1  0
 25 20  1  0
 26 24  1  0
 27 26  1  0
 28 26  2  0
M  END
$$$$
