YKS.pdb
     RDKit          3D

 28 28  0  0  1  0  0  0  0  0999 V2000
    6.1395  -10.6197   27.8128 O   0  0  0  0  0  0  0  0  0  0  0  0
    6.6401  -11.8255   27.3171 C   0  0  0  0  0  0  0  0  0  0  0  0
    5.9230  -12.4260   26.3156 C   0  0  0  0  0  0  0  0  0  0  0  0
    6.3554  -13.6067   25.7850 C   0  0  0  0  0  0  0  0  0  0  0  0
    7.5234  -14.1781   26.2768 C   0  0  0  0  0  0  0  0  0  0  0  0
    7.9419  -15.4580   25.6886 C   0  0  0  0  0  0  0  0  0  0  0  0
    6.8793  -15.9748   24.7565 C   0  0  2  0  0  0  0  0  0  0  0  0
    6.5922  -17.3465   25.2249 N   0  0  0  0  0  0  0  0  0  0  0  0
    7.3993  -15.9948   23.3830 C   0  0  0  0  0  0  0  0  0  0  0  0
    8.0451  -16.9688   22.9209 O   0  0  0  0  0  0  0  0  0  0  0  0
    8.2587  -13.5910   27.2830 C   0  0  0  0  0  0  0  0  0  0  0  0
    7.7965  -12.3921   27.8036 C   0  0  0  0  0  0  0  0  0  0  0  0
    7.2108  -14.9071   22.4650 N   0  0  0  0  0  0  0  0  0  0  0  0
    7.7614  -14.9110   21.1262 C   0  0  1  0  0  0  0  0  0  0  0  0
    7.6146  -13.4941   20.5725 C   0  0  0  0  0  0  0  0  0  0  0  0
    8.4076  -13.3115   19.3137 C   0  0  0  0  0  0  0  0  0  0  0  0
    7.7202  -14.1130   18.2194 C   0  0  0  0  0  0  0  0  0  0  0  0
    8.5143  -14.0360   16.9223 C   0  0  0  0  0  0  0  0  0  0  0  0
    7.8278  -14.8154   15.9137 N   0  0  0  0  0  0  0  0  0  0  0  0
    9.1992  -15.2748   21.1907 C   0  0  0  0  0  0  0  0  0  0  0  0
   10.0071  -14.7018   21.9841 O   0  0  0  0  0  0  0  0  0  0  0  0
   10.6052  -18.9437   20.3511 O   0  0  0  0  0  0  0  0  0  0  0  0
   11.3750  -17.9947   20.9896 C   0  0  0  0  0  0  0  0  0  0  0  0
   11.1116  -16.6381   20.3923 C   0  0  2  0  0  0  0  0  0  0  0  0
    9.7287  -16.2862   20.3598 N   0  0  0  0  0  0  0  0  0  0  0  0
   11.7462  -16.5811   19.0392 C   0  0  0  0  0  0  0  0  0  0  0  0
   13.1256  -16.7373   19.0063 O   0  0  0  0  0  0  0  0  0  0  0  0
   11.1030  -16.4054   17.9867 O   0  0  0  0  0  0  0  0  0  0  0  0
  2  1  1  0
  3  2  2  0
  4  3  1  0
  5 11  1  0
  5  4  2  0
  6  5  1  0
  7  6  1  0
  7  8  1  1
  9  7  1  0
  9 10  2  0
 11 12  2  0
 12  2  1  0
 13  9  1  0
 14 13  1  0
 14 15  1  1
 16 15  1  0
 16 17  1  0
 18 17  1  0
 19 18  1  0
 20 14  1  0
 21 20  2  0
 23 22  1  0
 24 23  1  6
 24 25  1  0
 25 20  1  0
 26 24  1  0
 27 26  1  0
 28 26  2  0
M  END
$$$$
