YKS.pdb
     RDKit          3D

 28 28  0  0  1  0  0  0  0  0999 V2000
    6.1092  -10.6503   28.5258 O   0  0  0  0  0  0  0  0  0  0  0  0
    6.5492  -11.6531   27.6592 C   0  0  0  0  0  0  0  0  0  0  0  0
    7.2747  -12.6742   28.2148 C   0  0  0  0  0  0  0  0  0  0  0  0
    7.7357  -13.6873   27.4252 C   0  0  0  0  0  0  0  0  0  0  0  0
    7.4564  -13.6601   26.0636 C   0  0  0  0  0  0  0  0  0  0  0  0
    7.9874  -14.7618   25.2490 C   0  0  0  0  0  0  0  0  0  0  0  0
    6.8809  -15.4018   24.4546 C   0  0  2  0  0  0  0  0  0  0  0  0
    6.5154  -16.6152   25.2146 N   0  0  0  0  0  0  0  0  0  0  0  0
    7.3785  -15.7576   23.1192 C   0  0  0  0  0  0  0  0  0  0  0  0
    7.7274  -16.9270   22.8193 O   0  0  0  0  0  0  0  0  0  0  0  0
    6.7291  -12.6430   25.4853 C   0  0  0  0  0  0  0  0  0  0  0  0
    6.2731  -11.6269   26.3108 C   0  0  0  0  0  0  0  0  0  0  0  0
    7.5045  -14.8003   22.0567 N   0  0  0  0  0  0  0  0  0  0  0  0
    7.9936  -15.1541   20.7409 C   0  0  1  0  0  0  0  0  0  0  0  0
    8.0096  -13.8747   19.9051 C   0  0  0  0  0  0  0  0  0  0  0  0
    8.7821  -14.0589   18.6337 C   0  0  0  0  0  0  0  0  0  0  0  0
    7.7851  -14.0397   17.4855 C   0  0  0  0  0  0  0  0  0  0  0  0
    8.4936  -14.2810   16.1593 C   0  0  0  0  0  0  0  0  0  0  0  0
    7.5035  -14.2972   15.1033 N   0  0  0  0  0  0  0  0  0  0  0  0
    9.3733  -15.6890   20.8605 C   0  0  0  0  0  0  0  0  0  0  0  0
   10.2647  -15.1117   21.5552 O   0  0  0  0  0  0  0  0  0  0  0  0
   10.3331  -19.5144   19.6464 O   0  0  0  0  0  0  0  0  0  0  0  0
   11.2078  -18.8333   20.4661 C   0  0  0  0  0  0  0  0  0  0  0  0
   11.0954  -17.3532   20.2141 C   0  0  2  0  0  0  0  0  0  0  0  0
    9.7501  -16.8766   20.1962 N   0  0  0  0  0  0  0  0  0  0  0  0
   11.8328  -17.0264   18.9547 C   0  0  0  0  0  0  0  0  0  0  0  0
   13.1833  -17.3489   18.9383 O   0  0  0  0  0  0  0  0  0  0  0  0
   11.2956  -16.4966   17.9631 O   0  0  0  0  0  0  0  0  0  0  0  0
  2  1  1  0
  3  2  2  0
  4  3  1  0
  5 11  1  0
  5  4  2  0
  6  5  1  0
  7  6  1  0
  7  8  1  1
  9  7  1  0
  9 10  2  0
 11 12  2  0
 12  2  1  0
 13  9  1  0
 14 13  1  0
 14 15  1  6
 16 15  1  0
 16 17  1  0
 18 17  1  0
 19 18  1  0
 20 14  1  0
 21 20  2  0
 23 22  1  0
 24 23  1  6
 24 25  1  0
 25 20  1  0
 26 24  1  0
 27 26  1  0
 28 26  2  0
M  END
$$$$
