YKS.pdb
     RDKit          3D

 28 28  0  0  1  0  0  0  0  0999 V2000
    5.6139  -10.4396   27.9547 O   0  0  0  0  0  0  0  0  0  0  0  0
    6.1189  -11.5593   27.2904 C   0  0  0  0  0  0  0  0  0  0  0  0
    7.1411  -12.2330   27.9059 C   0  0  0  0  0  0  0  0  0  0  0  0
    7.6816  -13.3365   27.3119 C   0  0  0  0  0  0  0  0  0  0  0  0
    7.1786  -13.7553   26.0855 C   0  0  0  0  0  0  0  0  0  0  0  0
    7.8021  -14.9373   25.4744 C   0  0  0  0  0  0  0  0  0  0  0  0
    6.7750  -15.7341   24.7160 C   0  0  2  0  0  0  0  0  0  0  0  0
    6.4445  -16.8725   25.5983 N   0  0  0  0  0  0  0  0  0  0  0  0
    7.3570  -16.2092   23.4539 C   0  0  0  0  0  0  0  0  0  0  0  0
    7.6676  -17.4122   23.2655 O   0  0  0  0  0  0  0  0  0  0  0  0
    6.1518  -13.0923   25.4500 C   0  0  0  0  0  0  0  0  0  0  0  0
    5.6214  -11.9747   26.0759 C   0  0  0  0  0  0  0  0  0  0  0  0
    7.6152  -15.3391   22.3414 N   0  0  0  0  0  0  0  0  0  0  0  0
    8.0910  -15.8256   21.0637 C   0  0  1  0  0  0  0  0  0  0  0  0
    8.0000  -14.6638   20.0749 C   0  0  0  0  0  0  0  0  0  0  0  0
    8.5157  -15.0524   18.7221 C   0  0  0  0  0  0  0  0  0  0  0  0
    8.1871  -13.9181   17.7639 C   0  0  0  0  0  0  0  0  0  0  0  0
    8.6115  -14.2772   16.3462 C   0  0  0  0  0  0  0  0  0  0  0  0
    8.3063  -13.1609   15.4763 N   0  0  0  0  0  0  0  0  0  0  0  0
    9.5056  -16.2545   21.2006 C   0  0  0  0  0  0  0  0  0  0  0  0
   10.3706  -15.5498   21.8055 O   0  0  0  0  0  0  0  0  0  0  0  0
   10.7826  -19.7709   19.4055 O   0  0  0  0  0  0  0  0  0  0  0  0
   11.5330  -19.3455   20.4810 C   0  0  0  0  0  0  0  0  0  0  0  0
   11.3190  -17.8716   20.7012 C   0  0  2  0  0  0  0  0  0  0  0  0
    9.9474  -17.4796   20.6552 N   0  0  0  0  0  0  0  0  0  0  0  0
   12.1610  -17.1160   19.7230 C   0  0  0  0  0  0  0  0  0  0  0  0
   13.5250  -17.3724   19.7675 O   0  0  0  0  0  0  0  0  0  0  0  0
   11.6961  -16.2990   18.9051 O   0  0  0  0  0  0  0  0  0  0  0  0
  2  1  1  0
  3  2  2  0
  4  3  1  0
  5 11  1  0
  5  4  2  0
  6  5  1  0
  7  6  1  0
  7  8  1  1
  9  7  1  0
  9 10  2  0
 11 12  2  0
 12  2  1  0
 13  9  1  0
 14 13  1  0
 14 15  1  6
 16 15  1  0
 16 17  1  0
 18 17  1  0
 19 18  1  0
 20 14  1  0
 21 20  2  0
 23 22  1  0
 24 23  1  6
 24 25  1  0
 25 20  1  0
 26 24  1  0
 27 26  1  0
 28 26  2  0
M  END
$$$$
