GCR.pdb
     RDKit          3D

 22 21  0  0  1  0  0  0  0  0999 V2000
    9.4025  -23.2927   25.3852 N   0  0  0  0  0  0  0  0  0  0  0  0
    9.7346  -22.1897   26.2656 C   0  0  0  0  0  0  0  0  0  0  0  0
   11.0436  -22.4621   26.9498 C   0  0  0  0  0  0  0  0  0  0  0  0
   11.5992  -23.5841   26.8430 O   0  0  0  0  0  0  0  0  0  0  0  0
   11.6370  -21.4353   27.7135 N   0  0  0  0  0  0  0  0  0  0  0  0
   12.9242  -21.6873   28.3950 C   0  0  1  0  0  0  0  0  0  0  0  0
   13.6790  -20.3696   28.3859 C   0  0  0  0  0  0  0  0  0  0  0  0
   12.6383  -19.0917   29.1144 S   0  0  0  0  0  0  0  0  0  0  0  0
   12.5757  -22.1458   29.7562 C   0  0  0  0  0  0  0  0  0  0  0  0
   11.4664  -21.7914   30.2858 O   0  0  0  0  0  0  0  0  0  0  0  0
    7.5648  -24.4964   34.1391 N   0  0  0  0  0  0  0  0  0  0  0  0
    8.2536  -25.7047   34.3825 C   0  0  0  0  0  0  0  0  0  0  0  0
    7.6580  -26.7215   34.9423 N   0  0  0  0  0  0  0  0  0  0  0  0
    9.6101  -25.8624   34.0240 N   0  0  0  0  0  0  0  0  0  0  0  0
   10.3911  -24.8069   33.4847 C   0  0  0  0  0  0  0  0  0  0  0  0
   11.7801  -25.2030   33.1223 C   0  0  0  0  0  0  0  0  0  0  0  0
   12.2158  -24.7361   31.7816 C   0  0  0  0  0  0  0  0  0  0  0  0
   12.9494  -23.4001   31.8957 C   0  0  2  0  0  0  0  0  0  0  0  0
   13.3843  -22.9772   30.5675 N   0  0  0  0  0  0  0  0  0  0  0  0
   14.0675  -23.5386   32.8455 C   0  0  0  0  0  0  0  0  0  0  0  0
   13.8544  -23.6164   34.1952 O   0  0  0  0  0  0  0  0  0  0  0  0
   15.2395  -23.5831   32.3552 O   0  0  0  0  0  0  0  0  0  0  0  0
  1  2  1  0
  2  3  1  0
  3  5  1  0
  4  3  2  0
  5  6  1  0
  6  9  1  0
  6  7  1  1
  8  7  1  0
  9 10  2  0
  9 19  1  0
 11 12  1  0
 12 13  2  0
 12 14  1  0
 14 15  1  0
 15 16  1  0
 17 16  1  0
 18 17  1  6
 18 20  1  0
 19 18  1  0
 20 22  2  0
 20 21  1  0
M  END
$$$$
