GCR.pdb
     RDKit          3D

 22 21  0  0  1  0  0  0  0  0999 V2000
    4.1510  -19.6007   22.6497 N   0  0  0  0  0  0  0  0  0  0  0  0
    5.0167  -19.4147   23.7978 C   0  0  0  0  0  0  0  0  0  0  0  0
    5.6853  -18.0723   23.7177 C   0  0  0  0  0  0  0  0  0  0  0  0
    5.5792  -17.3660   22.6838 O   0  0  0  0  0  0  0  0  0  0  0  0
    6.4338  -17.6196   24.8244 N   0  0  0  0  0  0  0  0  0  0  0  0
    7.4112  -16.5258   24.6427 C   0  0  1  0  0  0  0  0  0  0  0  0
    7.6998  -15.9747   26.0280 C   0  0  0  0  0  0  0  0  0  0  0  0
    8.5824  -17.2213   26.9837 S   0  0  0  0  0  0  0  0  0  0  0  0
    8.5936  -17.1443   24.0074 C   0  0  0  0  0  0  0  0  0  0  0  0
    8.5121  -18.3222   23.5151 O   0  0  0  0  0  0  0  0  0  0  0  0
    8.5859  -12.4844   18.4869 N   0  0  0  0  0  0  0  0  0  0  0  0
    8.3249  -13.7431   17.9030 C   0  0  0  0  0  0  0  0  0  0  0  0
    8.2901  -13.8935   16.6076 N   0  0  0  0  0  0  0  0  0  0  0  0
    8.0981  -14.8885   18.6968 N   0  0  0  0  0  0  0  0  0  0  0  0
    8.1204  -14.8580   20.1158 C   0  0  0  0  0  0  0  0  0  0  0  0
    9.4830  -14.7136   20.6989 C   0  0  0  0  0  0  0  0  0  0  0  0
    9.5265  -14.8260   22.1790 C   0  0  0  0  0  0  0  0  0  0  0  0
   10.3509  -16.0435   22.5964 C   0  0  2  0  0  0  0  0  0  0  0  0
    9.8643  -16.5334   23.8830 N   0  0  0  0  0  0  0  0  0  0  0  0
   11.7779  -15.6773   22.6273 C   0  0  0  0  0  0  0  0  0  0  0  0
   12.4559  -15.5394   23.8082 O   0  0  0  0  0  0  0  0  0  0  0  0
   12.3518  -15.4956   21.5076 O   0  0  0  0  0  0  0  0  0  0  0  0
  1  2  1  0
  2  3  1  0
  3  5  1  0
  4  3  2  0
  5  6  1  0
  6  9  1  0
  6  7  1  1
  8  7  1  0
  9 10  2  0
  9 19  1  0
 11 12  1  0
 12 13  2  0
 12 14  1  0
 14 15  1  0
 15 16  1  0
 17 16  1  0
 18 17  1  1
 18 20  1  0
 19 18  1  0
 20 22  2  0
 20 21  1  0
M  END
$$$$
