GCR.pdb
     RDKit          3D

 22 21  0  0  1  0  0  0  0  0999 V2000
    7.7420  -15.4849   20.4940 N   0  0  0  0  0  0  0  0  0  0  0  0
    6.8219  -15.1165   21.5522 C   0  0  0  0  0  0  0  0  0  0  0  0
    7.5743  -14.4588   22.6735 C   0  0  0  0  0  0  0  0  0  0  0  0
    8.8308  -14.4524   22.6827 O   0  0  0  0  0  0  0  0  0  0  0  0
    6.8441  -13.8488   23.7149 N   0  0  0  0  0  0  0  0  0  0  0  0
    7.5689  -13.2027   24.8294 C   0  0  1  0  0  0  0  0  0  0  0  0
    6.5553  -12.3340   25.5531 C   0  0  0  0  0  0  0  0  0  0  0  0
    7.2907  -11.7212   27.0797 S   0  0  0  0  0  0  0  0  0  0  0  0
    8.0878  -14.3059   25.6649 C   0  0  0  0  0  0  0  0  0  0  0  0
    7.3340  -15.2982   25.9539 O   0  0  0  0  0  0  0  0  0  0  0  0
   14.3478  -19.9878   25.9813 N   0  0  0  0  0  0  0  0  0  0  0  0
   13.2956  -20.4480   26.8026 C   0  0  0  0  0  0  0  0  0  0  0  0
   13.4032  -21.5568   27.4815 N   0  0  0  0  0  0  0  0  0  0  0  0
   12.0897  -19.7241   26.9266 N   0  0  0  0  0  0  0  0  0  0  0  0
   11.8184  -18.5474   26.1806 C   0  0  0  0  0  0  0  0  0  0  0  0
   11.5263  -17.3512   27.0180 C   0  0  0  0  0  0  0  0  0  0  0  0
   11.0358  -16.1772   26.2521 C   0  0  0  0  0  0  0  0  0  0  0  0
    9.8447  -15.5369   26.9644 C   0  0  2  0  0  0  0  0  0  0  0  0
    9.3964  -14.3765   26.1998 N   0  0  0  0  0  0  0  0  0  0  0  0
   10.2293  -15.1967   28.3457 C   0  0  0  0  0  0  0  0  0  0  0  0
   10.4416  -16.1657   29.2886 O   0  0  0  0  0  0  0  0  0  0  0  0
   10.3558  -13.9625   28.6225 O   0  0  0  0  0  0  0  0  0  0  0  0
  1  2  1  0
  2  3  1  0
  3  5  1  0
  4  3  2  0
  5  6  1  0
  6  9  1  0
  6  7  1  1
  8  7  1  0
  9 10  2  0
  9 19  1  0
 11 12  1  0
 12 13  2  0
 12 14  1  0
 14 15  1  0
 15 16  1  0
 17 16  1  0
 18 17  1  6
 18 20  1  0
 19 18  1  0
 20 22  2  0
 20 21  1  0
M  END
$$$$
