GCR.pdb
     RDKit          3D

 22 21  0  0  1  0  0  0  0  0999 V2000
    4.9117  -20.3525   23.4076 N   0  0  0  0  0  0  0  0  0  0  0  0
    5.6205  -19.7362   24.5121 C   0  0  0  0  0  0  0  0  0  0  0  0
    6.0713  -18.3580   24.1207 C   0  0  0  0  0  0  0  0  0  0  0  0
    5.8929  -17.9353   22.9509 O   0  0  0  0  0  0  0  0  0  0  0  0
    6.6980  -17.5478   25.0906 N   0  0  0  0  0  0  0  0  0  0  0  0
    7.2300  -16.2254   24.6995 C   0  0  1  0  0  0  0  0  0  0  0  0
    7.0238  -15.3104   25.8938 C   0  0  0  0  0  0  0  0  0  0  0  0
    7.5656  -13.6476   25.4600 S   0  0  0  0  0  0  0  0  0  0  0  0
    8.6557  -16.4447   24.3771 C   0  0  0  0  0  0  0  0  0  0  0  0
    9.5085  -16.5940   25.3188 O   0  0  0  0  0  0  0  0  0  0  0  0
    7.6707  -12.2187   19.0696 N   0  0  0  0  0  0  0  0  0  0  0  0
    7.9700  -13.4166   18.3848 C   0  0  0  0  0  0  0  0  0  0  0  0
    7.4810  -13.6583   17.1997 N   0  0  0  0  0  0  0  0  0  0  0  0
    8.8146  -14.3958   18.9517 N   0  0  0  0  0  0  0  0  0  0  0  0
    9.4594  -14.2238   20.2045 C   0  0  0  0  0  0  0  0  0  0  0  0
   10.2963  -15.3829   20.6211 C   0  0  0  0  0  0  0  0  0  0  0  0
   10.9355  -15.2247   21.9522 C   0  0  0  0  0  0  0  0  0  0  0  0
   10.6335  -16.4355   22.8349 C   0  0  2  0  0  0  0  0  0  0  0  0
    9.1943  -16.5102   23.0698 N   0  0  0  0  0  0  0  0  0  0  0  0
   11.4113  -16.3340   24.0825 C   0  0  0  0  0  0  0  0  0  0  0  0
   10.9048  -15.7155   25.1933 O   0  0  0  0  0  0  0  0  0  0  0  0
   12.5743  -16.8473   24.0811 O   0  0  0  0  0  0  0  0  0  0  0  0
  1  2  1  0
  2  3  1  0
  3  5  1  0
  4  3  2  0
  5  6  1  0
  6  9  1  0
  6  7  1  1
  8  7  1  0
  9 10  2  0
  9 19  1  0
 11 12  1  0
 12 13  2  0
 12 14  1  0
 14 15  1  0
 15 16  1  0
 17 16  1  0
 18 17  1  6
 18 20  1  0
 19 18  1  0
 20 22  2  0
 20 21  1  0
M  END
$$$$
