GCR.pdb
     RDKit          3D

 22 21  0  0  1  0  0  0  0  0999 V2000
    3.4569  -19.3088   22.0784 N   0  0  0  0  0  0  0  0  0  0  0  0
    4.6476  -19.6734   22.8209 C   0  0  0  0  0  0  0  0  0  0  0  0
    5.2799  -18.4420   23.4036 C   0  0  0  0  0  0  0  0  0  0  0  0
    4.8227  -17.3020   23.1381 O   0  0  0  0  0  0  0  0  0  0  0  0
    6.3957  -18.5893   24.2540 N   0  0  0  0  0  0  0  0  0  0  0  0
    7.0693  -17.3854   24.7848 C   0  0  1  0  0  0  0  0  0  0  0  0
    7.2447  -17.6150   26.2757 C   0  0  0  0  0  0  0  0  0  0  0  0
    8.1666  -16.2352   26.9778 S   0  0  0  0  0  0  0  0  0  0  0  0
    8.3529  -17.2895   24.0585 C   0  0  0  0  0  0  0  0  0  0  0  0
    9.1306  -18.3034   23.9979 O   0  0  0  0  0  0  0  0  0  0  0  0
    7.0982  -12.4209   18.4809 N   0  0  0  0  0  0  0  0  0  0  0  0
    7.7298  -13.5350   17.8864 C   0  0  0  0  0  0  0  0  0  0  0  0
    7.5213  -13.8428   16.6359 N   0  0  0  0  0  0  0  0  0  0  0  0
    8.6157  -14.3549   18.6188 N   0  0  0  0  0  0  0  0  0  0  0  0
    8.9737  -14.0893   19.9665 C   0  0  0  0  0  0  0  0  0  0  0  0
    9.9617  -15.0487   20.5329 C   0  0  0  0  0  0  0  0  0  0  0  0
   10.2896  -14.8120   21.9618 C   0  0  0  0  0  0  0  0  0  0  0  0
   10.1445  -16.1057   22.7627 C   0  0  2  0  0  0  0  0  0  0  0  0
    8.8273  -16.1344   23.3921 N   0  0  0  0  0  0  0  0  0  0  0  0
   11.2455  -16.2004   23.7376 C   0  0  0  0  0  0  0  0  0  0  0  0
   12.5280  -16.4715   23.3445 O   0  0  0  0  0  0  0  0  0  0  0  0
   10.9508  -16.0185   24.9607 O   0  0  0  0  0  0  0  0  0  0  0  0
  1  2  1  0
  2  3  1  0
  3  5  1  0
  4  3  2  0
  5  6  1  0
  6  9  1  0
  6  7  1  1
  8  7  1  0
  9 10  2  0
  9 19  1  0
 11 12  1  0
 12 13  2  0
 12 14  1  0
 14 15  1  0
 15 16  1  0
 17 16  1  0
 18 17  1  1
 18 20  1  0
 19 18  1  0
 20 22  2  0
 20 21  1  0
M  END
$$$$
