GCR.pdb
     RDKit          3D

 22 21  0  0  1  0  0  0  0  0999 V2000
   11.3710  -22.1620   27.0795 N   0  0  0  0  0  0  0  0  0  0  0  0
   11.7358  -22.9403   28.2470 C   0  0  0  0  0  0  0  0  0  0  0  0
   12.5165  -22.0854   29.2039 C   0  0  0  0  0  0  0  0  0  0  0  0
   12.9012  -20.9374   28.8676 O   0  0  0  0  0  0  0  0  0  0  0  0
   12.8090  -22.5952   30.4862 N   0  0  0  0  0  0  0  0  0  0  0  0
   13.5021  -21.7362   31.4693 C   0  0  1  0  0  0  0  0  0  0  0  0
   12.4184  -21.1033   32.3244 C   0  0  0  0  0  0  0  0  0  0  0  0
   13.1572  -20.4875   33.8480 S   0  0  0  0  0  0  0  0  0  0  0  0
   14.3912  -22.6361   32.2336 C   0  0  0  0  0  0  0  0  0  0  0  0
   13.9174  -23.6929   32.7770 O   0  0  0  0  0  0  0  0  0  0  0  0
   19.7775  -20.4441   28.8281 N   0  0  0  0  0  0  0  0  0  0  0  0
   19.0494  -19.7543   29.8219 C   0  0  0  0  0  0  0  0  0  0  0  0
   18.7450  -18.4932   29.6843 N   0  0  0  0  0  0  0  0  0  0  0  0
   18.6168  -20.4028   30.9991 N   0  0  0  0  0  0  0  0  0  0  0  0
   19.2703  -21.5440   31.5334 C   0  0  0  0  0  0  0  0  0  0  0  0
   18.6430  -22.0778   32.7740 C   0  0  0  0  0  0  0  0  0  0  0  0
   18.0043  -23.4083   32.6090 C   0  0  0  0  0  0  0  0  0  0  0  0
   16.5868  -23.3930   33.1806 C   0  0  2  0  0  0  0  0  0  0  0  0
   15.7783  -22.4354   32.4313 N   0  0  0  0  0  0  0  0  0  0  0  0
   16.6464  -23.0865   34.6208 C   0  0  0  0  0  0  0  0  0  0  0  0
   16.9461  -24.0497   35.5456 O   0  0  0  0  0  0  0  0  0  0  0  0
   16.4074  -21.8866   34.9661 O   0  0  0  0  0  0  0  0  0  0  0  0
  1  2  1  0
  2  3  1  0
  3  5  1  0
  4  3  2  0
  5  6  1  0
  6  9  1  0
  6  7  1  1
  8  7  1  0
  9 10  2  0
  9 19  1  0
 11 12  1  0
 12 13  2  0
 12 14  1  0
 14 15  1  0
 15 16  1  0
 17 16  1  0
 18 17  1  6
 18 20  1  0
 19 18  1  0
 20 22  2  0
 20 21  1  0
M  END
$$$$
