GCR.pdb
     RDKit          3D

 22 21  0  0  1  0  0  0  0  0999 V2000
    8.4692  -12.9546   18.6614 N   0  0  0  0  0  0  0  0  0  0  0  0
    7.4772  -13.2497   19.6767 C   0  0  0  0  0  0  0  0  0  0  0  0
    8.1354  -13.3197   21.0249 C   0  0  0  0  0  0  0  0  0  0  0  0
    9.3825  -13.2104   21.1338 O   0  0  0  0  0  0  0  0  0  0  0  0
    7.3277  -13.5101   22.1656 N   0  0  0  0  0  0  0  0  0  0  0  0
    7.9581  -13.5687   23.5013 C   0  0  1  0  0  0  0  0  0  0  0  0
    6.8807  -13.1859   24.5006 C   0  0  0  0  0  0  0  0  0  0  0  0
    7.5025  -13.4622   26.1691 S   0  0  0  0  0  0  0  0  0  0  0  0
    8.4298  -14.9601   23.6627 C   0  0  0  0  0  0  0  0  0  0  0  0
    7.6151  -15.9338   23.5056 O   0  0  0  0  0  0  0  0  0  0  0  0
   14.6311  -14.8260   19.5868 N   0  0  0  0  0  0  0  0  0  0  0  0
   13.3108  -15.0082   19.1209 C   0  0  0  0  0  0  0  0  0  0  0  0
   12.9336  -14.5470   17.9603 N   0  0  0  0  0  0  0  0  0  0  0  0
   12.3498  -15.7016   19.8884 N   0  0  0  0  0  0  0  0  0  0  0  0
   12.4622  -15.8689   21.2935 C   0  0  0  0  0  0  0  0  0  0  0  0
   11.3866  -16.7058   21.8936 C   0  0  0  0  0  0  0  0  0  0  0  0
   11.5145  -16.9015   23.3601 C   0  0  0  0  0  0  0  0  0  0  0  0
   10.1544  -16.7418   24.0390 C   0  0  2  0  0  0  0  0  0  0  0  0
    9.7546  -15.3384   23.9870 N   0  0  0  0  0  0  0  0  0  0  0  0
   10.2336  -17.2625   25.4154 C   0  0  0  0  0  0  0  0  0  0  0  0
   10.2022  -18.6058   25.6752 O   0  0  0  0  0  0  0  0  0  0  0  0
   10.3330  -16.4078   26.3511 O   0  0  0  0  0  0  0  0  0  0  0  0
  1  2  1  0
  2  3  1  0
  3  5  1  0
  4  3  2  0
  5  6  1  0
  6  9  1  0
  6  7  1  1
  8  7  1  0
  9 10  2  0
  9 19  1  0
 11 12  1  0
 12 13  2  0
 12 14  1  0
 14 15  1  0
 15 16  1  0
 17 16  1  0
 18 17  1  1
 18 20  1  0
 19 18  1  0
 20 22  2  0
 20 21  1  0
M  END
$$$$
