GCR.pdb
     RDKit          3D

 22 21  0  0  1  0  0  0  0  0999 V2000
   14.5462  -17.7115   17.7060 N   0  0  0  0  0  0  0  0  0  0  0  0
   13.5986  -18.7109   18.1592 C   0  0  0  0  0  0  0  0  0  0  0  0
   12.5519  -18.0647   19.0210 C   0  0  0  0  0  0  0  0  0  0  0  0
   12.6398  -16.8501   19.3310 O   0  0  0  0  0  0  0  0  0  0  0  0
   11.4690  -18.8464   19.4751 N   0  0  0  0  0  0  0  0  0  0  0  0
   10.5379  -18.2865   20.4772 C   0  0  1  0  0  0  0  0  0  0  0  0
    9.2458  -19.0738   20.3485 C   0  0  0  0  0  0  0  0  0  0  0  0
    8.1168  -18.5677   21.6583 S   0  0  0  0  0  0  0  0  0  0  0  0
   11.1991  -18.4684   21.7865 C   0  0  0  0  0  0  0  0  0  0  0  0
   11.8705  -19.5317   22.0215 O   0  0  0  0  0  0  0  0  0  0  0  0
   10.2180  -14.6743   29.8902 N   0  0  0  0  0  0  0  0  0  0  0  0
   10.0042  -14.6063   28.4962 C   0  0  0  0  0  0  0  0  0  0  0  0
    9.3636  -13.6051   27.9585 N   0  0  0  0  0  0  0  0  0  0  0  0
   10.4802  -15.6143   27.6297 N   0  0  0  0  0  0  0  0  0  0  0  0
   11.8625  -15.8709   27.4339 C   0  0  0  0  0  0  0  0  0  0  0  0
   12.1475  -16.9134   26.4095 C   0  0  0  0  0  0  0  0  0  0  0  0
   11.3763  -16.7561   25.1502 C   0  0  0  0  0  0  0  0  0  0  0  0
   11.7658  -17.8427   24.1482 C   0  0  2  0  0  0  0  0  0  0  0  0
   11.1622  -17.5394   22.8537 N   0  0  0  0  0  0  0  0  0  0  0  0
   11.3587  -19.1577   24.6741 C   0  0  0  0  0  0  0  0  0  0  0  0
   12.2666  -20.0192   25.2279 O   0  0  0  0  0  0  0  0  0  0  0  0
   10.1259  -19.4564   24.5909 O   0  0  0  0  0  0  0  0  0  0  0  0
  1  2  1  0
  2  3  1  0
  3  5  1  0
  4  3  2  0
  5  6  1  0
  6  9  1  0
  6  7  1  1
  8  7  1  0
  9 10  2  0
  9 19  1  0
 11 12  1  0
 12 13  2  0
 12 14  1  0
 14 15  1  0
 15 16  1  0
 17 16  1  0
 18 17  1  1
 18 20  1  0
 19 18  1  0
 20 22  2  0
 20 21  1  0
M  END
$$$$
