GCR.pdb
     RDKit          3D

 22 21  0  0  1  0  0  0  0  0999 V2000
    4.0422  -19.1478   20.7327 N   0  0  0  0  0  0  0  0  0  0  0  0
    4.2442  -17.7752   21.1537 C   0  0  0  0  0  0  0  0  0  0  0  0
    5.7083  -17.4423   21.1157 C   0  0  0  0  0  0  0  0  0  0  0  0
    6.5489  -18.2983   20.7420 O   0  0  0  0  0  0  0  0  0  0  0  0
    6.1214  -16.1515   21.5070 N   0  0  0  0  0  0  0  0  0  0  0  0
    7.5462  -15.7769   21.3878 C   0  0  1  0  0  0  0  0  0  0  0  0
    7.5733  -14.3766   20.8009 C   0  0  0  0  0  0  0  0  0  0  0  0
    7.1812  -13.1886   22.0975 S   0  0  0  0  0  0  0  0  0  0  0  0
    8.0950  -15.8410   22.7587 C   0  0  0  0  0  0  0  0  0  0  0  0
    7.3184  -16.0753   23.7479 O   0  0  0  0  0  0  0  0  0  0  0  0
   12.4675  -19.0302   28.7209 N   0  0  0  0  0  0  0  0  0  0  0  0
   11.4796  -19.9320   28.2688 C   0  0  0  0  0  0  0  0  0  0  0  0
   11.4777  -21.1797   28.6499 N   0  0  0  0  0  0  0  0  0  0  0  0
   10.4523  -19.5181   27.3931 N   0  0  0  0  0  0  0  0  0  0  0  0
   10.7092  -18.8577   26.1632 C   0  0  0  0  0  0  0  0  0  0  0  0
    9.4820  -18.4685   25.4149 C   0  0  0  0  0  0  0  0  0  0  0  0
    9.7463  -17.8732   24.0802 C   0  0  0  0  0  0  0  0  0  0  0  0
   10.0634  -16.3840   24.2149 C   0  0  2  0  0  0  0  0  0  0  0  0
    9.4569  -15.6622   23.1000 N   0  0  0  0  0  0  0  0  0  0  0  0
   11.5241  -16.2023   24.2860 C   0  0  0  0  0  0  0  0  0  0  0  0
   12.1572  -15.9522   25.4732 O   0  0  0  0  0  0  0  0  0  0  0  0
   12.1704  -16.2886   23.1947 O   0  0  0  0  0  0  0  0  0  0  0  0
  1  2  1  0
  2  3  1  0
  3  5  1  0
  4  3  2  0
  5  6  1  0
  6  9  1  0
  6  7  1  1
  8  7  1  0
  9 10  2  0
  9 19  1  0
 11 12  1  0
 12 13  2  0
 12 14  1  0
 14 15  1  0
 15 16  1  0
 17 16  1  0
 18 17  1  6
 18 20  1  0
 19 18  1  0
 20 22  2  0
 20 21  1  0
M  END
$$$$
