GCR.pdb
     RDKit          3D

 22 21  0  0  1  0  0  0  0  0999 V2000
    8.0875  -15.7977   20.2975 N   0  0  0  0  0  0  0  0  0  0  0  0
    7.1593  -15.5885   21.3914 C   0  0  0  0  0  0  0  0  0  0  0  0
    7.8884  -15.0190   22.5746 C   0  0  0  0  0  0  0  0  0  0  0  0
    9.1415  -14.9253   22.5685 O   0  0  0  0  0  0  0  0  0  0  0  0
    7.1405  -14.5915   23.6915 N   0  0  0  0  0  0  0  0  0  0  0  0
    7.8399  -14.0007   24.8519 C   0  0  1  0  0  0  0  0  0  0  0  0
    6.8503  -13.0583   25.5143 C   0  0  0  0  0  0  0  0  0  0  0  0
    5.3464  -13.9688   25.9091 S   0  0  0  0  0  0  0  0  0  0  0  0
    8.2216  -15.1391   25.7139 C   0  0  0  0  0  0  0  0  0  0  0  0
    8.8848  -14.9334   26.7882 O   0  0  0  0  0  0  0  0  0  0  0  0
    4.6633  -19.8455   22.1860 N   0  0  0  0  0  0  0  0  0  0  0  0
    5.1306  -20.9268   22.9644 C   0  0  0  0  0  0  0  0  0  0  0  0
    4.3898  -21.9804   23.1720 N   0  0  0  0  0  0  0  0  0  0  0  0
    6.4188  -20.9135   23.5423 N   0  0  0  0  0  0  0  0  0  0  0  0
    7.2703  -19.7787   23.4982 C   0  0  0  0  0  0  0  0  0  0  0  0
    7.1015  -18.8477   24.6481 C   0  0  0  0  0  0  0  0  0  0  0  0
    8.2004  -18.9068   25.6453 C   0  0  0  0  0  0  0  0  0  0  0  0
    8.3489  -17.5607   26.3540 C   0  0  2  0  0  0  0  0  0  0  0  0
    7.9101  -16.4957   25.4567 N   0  0  0  0  0  0  0  0  0  0  0  0
    9.7447  -17.3956   26.7968 C   0  0  0  0  0  0  0  0  0  0  0  0
   10.1422  -17.7500   28.0576 O   0  0  0  0  0  0  0  0  0  0  0  0
   10.5638  -16.9094   25.9550 O   0  0  0  0  0  0  0  0  0  0  0  0
  1  2  1  0
  2  3  1  0
  3  5  1  0
  4  3  2  0
  5  6  1  0
  6  9  1  0
  6  7  1  1
  8  7  1  0
  9 10  2  0
  9 19  1  0
 11 12  1  0
 12 13  2  0
 12 14  1  0
 14 15  1  0
 15 16  1  0
 17 16  1  0
 18 17  1  6
 18 20  1  0
 19 18  1  0
 20 22  2  0
 20 21  1  0
M  END
$$$$
