ADA.pdb
     RDKit          3D

 19 18  0  0  1  0  0  0  0  0999 V2000
    8.2991  -12.2651   19.7573 C   0  0  0  0  0  0  0  0  0  0  0  0
    8.3308  -13.3555   18.7002 C   0  0  2  0  0  0  0  0  0  0  0  0
    7.0690  -13.4186   17.9853 N   0  0  0  0  0  0  0  0  0  0  0  0
    8.6313  -14.6360   19.4049 C   0  0  0  0  0  0  0  0  0  0  0  0
    7.6510  -15.3662   19.6721 O   0  0  0  0  0  0  0  0  0  0  0  0
    9.9689  -14.9454   19.7234 N   0  0  0  0  0  0  0  0  0  0  0  0
   10.3437  -16.2713   20.3313 C   0  0  1  0  0  0  0  0  0  0  0  0
   11.4214  -16.8194   19.4863 C   0  0  0  0  0  0  0  0  0  0  0  0
   11.9989  -18.1050   19.7130 C   0  0  0  0  0  0  0  0  0  0  0  0
   13.1314  -18.4702   19.4246 O   0  0  0  0  0  0  0  0  0  0  0  0
   10.6346  -15.9814   21.7455 C   0  0  0  0  0  0  0  0  0  0  0  0
   11.5847  -15.1609   22.0662 O   0  0  0  0  0  0  0  0  0  0  0  0
   11.1901  -19.0807   20.3396 O   0  0  0  0  0  0  0  0  0  0  0  0
    9.1248  -16.1612   25.0781 C   0  0  0  0  0  0  0  0  0  0  0  0
   10.4147  -16.2215   24.2478 C   0  0  2  0  0  0  0  0  0  0  0  0
    9.9793  -16.4988   22.8857 N   0  0  0  0  0  0  0  0  0  0  0  0
   11.2420  -17.2917   24.8035 C   0  0  0  0  0  0  0  0  0  0  0  0
   11.8669  -17.1232   26.0335 O   0  0  0  0  0  0  0  0  0  0  0  0
   11.3941  -18.3616   24.1822 O   0  0  0  0  0  0  0  0  0  0  0  0
  2  3  1  0
  2  1  1  1
  4  5  2  0
  4  2  1  0
  6  4  1  0
  7 11  1  0
  7  6  1  0
  7  8  1  6
  9  8  1  0
 10  9  2  0
 11 12  2  0
 13  9  1  0
 15 14  1  1
 16 15  1  0
 16 11  1  0
 17 18  1  0
 17 15  1  0
 19 17  2  0
M  END
$$$$
