ADA.pdb
     RDKit          3D

 19 18  0  0  1  0  0  0  0  0999 V2000
    8.2511  -12.2964   19.7480 C   0  0  0  0  0  0  0  0  0  0  0  0
    8.0621  -13.3750   18.6953 C   0  0  2  0  0  0  0  0  0  0  0  0
    6.6951  -13.3860   18.2069 N   0  0  0  0  0  0  0  0  0  0  0  0
    8.4323  -14.6731   19.3311 C   0  0  0  0  0  0  0  0  0  0  0  0
    7.5006  -15.3158   19.8646 O   0  0  0  0  0  0  0  0  0  0  0  0
    9.7768  -15.0939   19.2974 N   0  0  0  0  0  0  0  0  0  0  0  0
   10.2082  -16.3926   19.9264 C   0  0  1  0  0  0  0  0  0  0  0  0
   11.2277  -16.9647   19.0268 C   0  0  0  0  0  0  0  0  0  0  0  0
   11.7928  -18.2599   19.2289 C   0  0  0  0  0  0  0  0  0  0  0  0
   11.5129  -19.0613   20.1113 O   0  0  0  0  0  0  0  0  0  0  0  0
   10.5973  -16.0462   21.3037 C   0  0  0  0  0  0  0  0  0  0  0  0
   11.4699  -15.1144   21.5255 O   0  0  0  0  0  0  0  0  0  0  0  0
   12.7887  -18.6848   18.3199 O   0  0  0  0  0  0  0  0  0  0  0  0
    9.3099  -15.9071   24.6242 C   0  0  0  0  0  0  0  0  0  0  0  0
   10.5852  -16.2027   23.8222 C   0  0  2  0  0  0  0  0  0  0  0  0
   10.1207  -16.6172   22.5053 N   0  0  0  0  0  0  0  0  0  0  0  0
   11.3065  -17.2634   24.5246 C   0  0  0  0  0  0  0  0  0  0  0  0
   11.9269  -16.9987   25.7398 O   0  0  0  0  0  0  0  0  0  0  0  0
   11.3716  -18.4111   24.0423 O   0  0  0  0  0  0  0  0  0  0  0  0
  2  3  1  0
  2  1  1  1
  4  5  2  0
  4  2  1  0
  6  4  1  0
  7 11  1  0
  7  6  1  0
  7  8  1  6
  9  8  1  0
 10  9  2  0
 11 12  2  0
 13  9  1  0
 15 14  1  1
 16 15  1  0
 16 11  1  0
 17 18  1  0
 17 15  1  0
 19 17  2  0
M  END
$$$$
