ADA.pdb
     RDKit          3D

 19 18  0  0  1  0  0  0  0  0999 V2000
    7.3278  -13.4456   18.5658 C   0  0  0  0  0  0  0  0  0  0  0  0
    8.3274  -13.1783   19.6778 C   0  0  2  0  0  0  0  0  0  0  0  0
    9.5349  -12.5684   19.1513 N   0  0  0  0  0  0  0  0  0  0  0  0
    8.6105  -14.4889   20.3326 C   0  0  0  0  0  0  0  0  0  0  0  0
    7.6161  -15.1893   20.6262 O   0  0  0  0  0  0  0  0  0  0  0  0
    9.9484  -14.8571   20.5788 N   0  0  0  0  0  0  0  0  0  0  0  0
   10.2891  -16.1001   21.3579 C   0  0  1  0  0  0  0  0  0  0  0  0
   11.5662  -16.5917   20.8071 C   0  0  0  0  0  0  0  0  0  0  0  0
   11.6933  -17.0715   19.4687 C   0  0  0  0  0  0  0  0  0  0  0  0
   12.4279  -16.6355   18.5916 O   0  0  0  0  0  0  0  0  0  0  0  0
   10.2401  -15.6965   22.7732 C   0  0  0  0  0  0  0  0  0  0  0  0
   11.3246  -15.6475   23.4805 O   0  0  0  0  0  0  0  0  0  0  0  0
   10.8902  -18.1727   19.0928 O   0  0  0  0  0  0  0  0  0  0  0  0
    7.7757  -14.4640   25.3006 C   0  0  0  0  0  0  0  0  0  0  0  0
    9.1505  -15.0546   24.9568 C   0  0  2  0  0  0  0  0  0  0  0  0
    9.1039  -15.3224   23.5258 N   0  0  0  0  0  0  0  0  0  0  0  0
    9.3144  -16.2706   25.7524 C   0  0  0  0  0  0  0  0  0  0  0  0
    9.3257  -17.5142   25.1317 O   0  0  0  0  0  0  0  0  0  0  0  0
    9.4456  -16.2042   26.9903 O   0  0  0  0  0  0  0  0  0  0  0  0
  2  3  1  0
  2  1  1  6
  4  5  2  0
  4  2  1  0
  6  4  1  0
  7 11  1  0
  7  6  1  0
  7  8  1  6
  9  8  1  0
 10  9  2  0
 11 12  2  0
 13  9  1  0
 15 14  1  1
 16 15  1  0
 16 11  1  0
 17 18  1  0
 17 15  1  0
 19 17  2  0
M  END
$$$$
