ADA.pdb
     RDKit          3D

 19 18  0  0  1  0  0  0  0  0999 V2000
    8.2454  -12.1305   19.2796 C   0  0  0  0  0  0  0  0  0  0  0  0
    8.2666  -13.4597   18.5447 C   0  0  2  0  0  0  0  0  0  0  0  0
    7.0796  -13.6146   17.7233 N   0  0  0  0  0  0  0  0  0  0  0  0
    8.3647  -14.5284   19.5813 C   0  0  0  0  0  0  0  0  0  0  0  0
    7.2829  -15.0023   19.9946 O   0  0  0  0  0  0  0  0  0  0  0  0
    9.6381  -14.9355   20.0274 N   0  0  0  0  0  0  0  0  0  0  0  0
    9.8112  -16.1470   20.9052 C   0  0  1  0  0  0  0  0  0  0  0  0
   11.0573  -16.7998   20.4614 C   0  0  0  0  0  0  0  0  0  0  0  0
   11.5445  -18.0071   21.0468 C   0  0  0  0  0  0  0  0  0  0  0  0
   10.9417  -18.7619   21.7992 O   0  0  0  0  0  0  0  0  0  0  0  0
    9.7333  -15.6403   22.2857 C   0  0  0  0  0  0  0  0  0  0  0  0
   10.6836  -14.9048   22.7703 O   0  0  0  0  0  0  0  0  0  0  0  0
   12.8687  -18.3931   20.7364 O   0  0  0  0  0  0  0  0  0  0  0  0
    7.2770  -15.0743   24.9664 C   0  0  0  0  0  0  0  0  0  0  0  0
    8.7421  -15.3295   24.5853 C   0  0  2  0  0  0  0  0  0  0  0  0
    8.6980  -15.8480   23.2248 N   0  0  0  0  0  0  0  0  0  0  0  0
    9.2790  -16.2984   25.5401 C   0  0  0  0  0  0  0  0  0  0  0  0
    9.7122  -17.5440   25.1012 O   0  0  0  0  0  0  0  0  0  0  0  0
    9.3535  -16.0177   26.7524 O   0  0  0  0  0  0  0  0  0  0  0  0
  2  3  1  0
  2  1  1  1
  4  5  2  0
  4  2  1  0
  6  4  1  0
  7 11  1  0
  7  6  1  0
  7  8  1  1
  9  8  1  0
 10  9  2  0
 11 12  2  0
 13  9  1  0
 15 14  1  1
 16 15  1  0
 16 11  1  0
 17 18  1  0
 17 15  1  0
 19 17  2  0
M  END
$$$$
