ADA.pdb
     RDKit          3D

 19 18  0  0  1  0  0  0  0  0999 V2000
    7.9855  -12.4378   19.4346 C   0  0  0  0  0  0  0  0  0  0  0  0
    8.3874  -13.4774   18.4026 C   0  0  2  0  0  0  0  0  0  0  0  0
    7.3193  -13.6926   17.4433 N   0  0  0  0  0  0  0  0  0  0  0  0
    8.7195  -14.7259   19.1493 C   0  0  0  0  0  0  0  0  0  0  0  0
    7.7831  -15.5389   19.3162 O   0  0  0  0  0  0  0  0  0  0  0  0
   10.0361  -14.9166   19.6143 N   0  0  0  0  0  0  0  0  0  0  0  0
   10.4307  -16.1623   20.3630 C   0  0  1  0  0  0  0  0  0  0  0  0
   11.6499  -16.6674   19.7040 C   0  0  0  0  0  0  0  0  0  0  0  0
   12.3507  -17.8231   20.1634 C   0  0  0  0  0  0  0  0  0  0  0  0
   11.9004  -18.9516   20.3145 O   0  0  0  0  0  0  0  0  0  0  0  0
   10.5092  -15.7570   21.7765 C   0  0  0  0  0  0  0  0  0  0  0  0
   11.3650  -14.8616   22.1569 O   0  0  0  0  0  0  0  0  0  0  0  0
   13.7187  -17.6698   20.4855 O   0  0  0  0  0  0  0  0  0  0  0  0
    8.5685  -15.6570   24.8493 C   0  0  0  0  0  0  0  0  0  0  0  0
    9.9651  -15.8418   24.2391 C   0  0  2  0  0  0  0  0  0  0  0  0
    9.7287  -16.2305   22.8553 N   0  0  0  0  0  0  0  0  0  0  0  0
   10.6433  -16.8839   25.0088 C   0  0  0  0  0  0  0  0  0  0  0  0
   11.1546  -16.5991   26.2694 O   0  0  0  0  0  0  0  0  0  0  0  0
   10.7690  -18.0338   24.5438 O   0  0  0  0  0  0  0  0  0  0  0  0
  2  3  1  0
  2  1  1  1
  4  5  2  0
  4  2  1  0
  6  4  1  0
  7 11  1  0
  7  6  1  0
  7  8  1  6
  9  8  1  0
 10  9  2  0
 11 12  2  0
 13  9  1  0
 15 14  1  1
 16 15  1  0
 16 11  1  0
 17 18  1  0
 17 15  1  0
 19 17  2  0
M  END
$$$$
