ADA.pdb
     RDKit          3D

 19 18  0  0  1  0  0  0  0  0999 V2000
    8.4231  -12.2296   19.6319 C   0  0  0  0  0  0  0  0  0  0  0  0
    8.3872  -13.4752   18.7632 C   0  0  2  0  0  0  0  0  0  0  0  0
    7.2211  -13.4684   17.8986 N   0  0  0  0  0  0  0  0  0  0  0  0
    8.3849  -14.6485   19.6850 C   0  0  0  0  0  0  0  0  0  0  0  0
    7.2686  -15.0134   20.1168 O   0  0  0  0  0  0  0  0  0  0  0  0
    9.6090  -15.2661   20.0112 N   0  0  0  0  0  0  0  0  0  0  0  0
    9.6692  -16.4378   20.9555 C   0  0  1  0  0  0  0  0  0  0  0  0
   10.7555  -17.3056   20.4629 C   0  0  0  0  0  0  0  0  0  0  0  0
   10.6476  -18.0659   19.2596 C   0  0  0  0  0  0  0  0  0  0  0  0
    9.8193  -18.9295   19.0002 O   0  0  0  0  0  0  0  0  0  0  0  0
    9.7922  -15.8474   22.2989 C   0  0  0  0  0  0  0  0  0  0  0  0
   10.8150  -15.1123   22.6026 O   0  0  0  0  0  0  0  0  0  0  0  0
   11.5929  -17.8089   18.2401 O   0  0  0  0  0  0  0  0  0  0  0  0
    7.7421  -14.9985   25.2222 C   0  0  0  0  0  0  0  0  0  0  0  0
    9.1323  -15.3700   24.6873 C   0  0  2  0  0  0  0  0  0  0  0  0
    8.8915  -15.9683   23.3812 N   0  0  0  0  0  0  0  0  0  0  0  0
    9.7282  -16.3098   25.6360 C   0  0  0  0  0  0  0  0  0  0  0  0
    9.9135  -17.6398   25.2776 O   0  0  0  0  0  0  0  0  0  0  0  0
   10.0749  -15.9288   26.7712 O   0  0  0  0  0  0  0  0  0  0  0  0
  2  3  1  0
  2  1  1  1
  4  5  2  0
  4  2  1  0
  6  4  1  0
  7 11  1  0
  7  6  1  0
  7  8  1  6
  9  8  1  0
 10  9  2  0
 11 12  2  0
 13  9  1  0
 15 14  1  1
 16 15  1  0
 16 11  1  0
 17 18  1  0
 17 15  1  0
 19 17  2  0
M  END
$$$$
