ADA.pdb
     RDKit          3D

 19 18  0  0  1  0  0  0  0  0999 V2000
    8.1019  -12.2404   19.8398 C   0  0  0  0  0  0  0  0  0  0  0  0
    8.2430  -13.7279   19.5662 C   0  0  2  0  0  0  0  0  0  0  0  0
    7.3763  -14.1370   18.4758 N   0  0  0  0  0  0  0  0  0  0  0  0
    7.9072  -14.4374   20.8352 C   0  0  0  0  0  0  0  0  0  0  0  0
    6.7072  -14.7547   20.9932 O   0  0  0  0  0  0  0  0  0  0  0  0
    8.9336  -14.7047   21.7631 N   0  0  0  0  0  0  0  0  0  0  0  0
    8.6715  -15.4994   23.0153 C   0  0  1  0  0  0  0  0  0  0  0  0
    9.6201  -16.6287   22.9899 C   0  0  0  0  0  0  0  0  0  0  0  0
    9.8702  -17.4496   24.1307 C   0  0  0  0  0  0  0  0  0  0  0  0
    9.0421  -18.0181   24.8306 O   0  0  0  0  0  0  0  0  0  0  0  0
    8.7614  -14.5273   24.1177 C   0  0  0  0  0  0  0  0  0  0  0  0
    9.8577  -13.8686   24.3254 O   0  0  0  0  0  0  0  0  0  0  0  0
   11.2180  -17.6407   24.5123 O   0  0  0  0  0  0  0  0  0  0  0  0
    6.6417  -12.6104   26.4443 C   0  0  0  0  0  0  0  0  0  0  0  0
    7.9895  -13.2968   26.1811 C   0  0  2  0  0  0  0  0  0  0  0  0
    7.7541  -14.1778   25.0453 N   0  0  0  0  0  0  0  0  0  0  0  0
    8.3517  -14.0274   27.3950 C   0  0  0  0  0  0  0  0  0  0  0  0
    8.7765  -13.3372   28.5242 O   0  0  0  0  0  0  0  0  0  0  0  0
    8.2829  -15.2716   27.4291 O   0  0  0  0  0  0  0  0  0  0  0  0
  2  3  1  0
  2  1  1  1
  4  5  2  0
  4  2  1  0
  6  4  1  0
  7 11  1  0
  7  6  1  0
  7  8  1  1
  9  8  1  0
 10  9  2  0
 11 12  2  0
 13  9  1  0
 15 14  1  1
 16 15  1  0
 16 11  1  0
 17 18  1  0
 17 15  1  0
 19 17  2  0
M  END
$$$$
