ADA.pdb
     RDKit          3D

 19 18  0  0  1  0  0  0  0  0999 V2000
    8.2745  -12.4866   19.9235 C   0  0  0  0  0  0  0  0  0  0  0  0
    8.7438  -13.2196   18.6786 C   0  0  2  0  0  0  0  0  0  0  0  0
    7.6132  -13.6971   17.9033 N   0  0  0  0  0  0  0  0  0  0  0  0
    9.6135  -14.3422   19.1367 C   0  0  0  0  0  0  0  0  0  0  0  0
    9.0655  -15.4621   19.2416 O   0  0  0  0  0  0  0  0  0  0  0  0
   10.9703  -14.0865   19.4193 N   0  0  0  0  0  0  0  0  0  0  0  0
   11.8849  -15.1725   19.9217 C   0  0  1  0  0  0  0  0  0  0  0  0
   13.2382  -14.8170   19.4547 C   0  0  0  0  0  0  0  0  0  0  0  0
   13.6441  -14.9565   18.0933 C   0  0  0  0  0  0  0  0  0  0  0  0
   13.2653  -15.7988   17.2895 O   0  0  0  0  0  0  0  0  0  0  0  0
   11.6363  -15.2494   21.3711 C   0  0  0  0  0  0  0  0  0  0  0  0
   12.4782  -14.7341   22.2105 O   0  0  0  0  0  0  0  0  0  0  0  0
   14.5882  -14.0286   17.5970 O   0  0  0  0  0  0  0  0  0  0  0  0
    8.8899  -16.0542   23.7325 C   0  0  0  0  0  0  0  0  0  0  0  0
   10.3923  -15.8681   23.4776 C   0  0  2  0  0  0  0  0  0  0  0  0
   10.5330  -15.8395   22.0280 N   0  0  0  0  0  0  0  0  0  0  0  0
   11.0826  -17.0035   24.0881 C   0  0  0  0  0  0  0  0  0  0  0  0
   11.7173  -17.9464   23.2880 O   0  0  0  0  0  0  0  0  0  0  0  0
   11.1088  -17.1365   25.3273 O   0  0  0  0  0  0  0  0  0  0  0  0
  2  3  1  0
  2  1  1  1
  4  5  2  0
  4  2  1  0
  6  4  1  0
  7 11  1  0
  7  6  1  0
  7  8  1  1
  9  8  1  0
 10  9  2  0
 11 12  2  0
 13  9  1  0
 15 14  1  6
 16 15  1  0
 16 11  1  0
 17 18  1  0
 17 15  1  0
 19 17  2  0
M  END
$$$$
