ADA.pdb
     RDKit          3D

 19 18  0  0  1  0  0  0  0  0999 V2000
    8.0933  -12.1929   20.1553 C   0  0  0  0  0  0  0  0  0  0  0  0
    8.2730  -13.6426   19.7390 C   0  0  2  0  0  0  0  0  0  0  0  0
    7.3845  -13.9786   18.6412 N   0  0  0  0  0  0  0  0  0  0  0  0
    8.0019  -14.4784   20.9450 C   0  0  0  0  0  0  0  0  0  0  0  0
    6.8352  -14.9135   21.0683 O   0  0  0  0  0  0  0  0  0  0  0  0
    9.0479  -14.7257   21.8566 N   0  0  0  0  0  0  0  0  0  0  0  0
    8.8634  -15.6525   23.0292 C   0  0  1  0  0  0  0  0  0  0  0  0
    9.7494  -16.8060   22.7832 C   0  0  0  0  0  0  0  0  0  0  0  0
    9.9643  -17.8319   23.7521 C   0  0  0  0  0  0  0  0  0  0  0  0
    9.1410  -18.3063   24.5243 O   0  0  0  0  0  0  0  0  0  0  0  0
    9.1017  -14.8218   24.2215 C   0  0  0  0  0  0  0  0  0  0  0  0
   10.2701  -14.3066   24.4408 O   0  0  0  0  0  0  0  0  0  0  0  0
   11.2660  -18.3751   23.8474 O   0  0  0  0  0  0  0  0  0  0  0  0
    7.2547  -12.9525   26.8082 C   0  0  0  0  0  0  0  0  0  0  0  0
    8.5370  -13.6959   26.4081 C   0  0  2  0  0  0  0  0  0  0  0  0
    8.1757  -14.4741   25.2309 N   0  0  0  0  0  0  0  0  0  0  0  0
    8.9263  -14.5354   27.5405 C   0  0  0  0  0  0  0  0  0  0  0  0
    9.5071  -13.9631   28.6661 O   0  0  0  0  0  0  0  0  0  0  0  0
    8.7414  -15.7677   27.5078 O   0  0  0  0  0  0  0  0  0  0  0  0
  2  3  1  0
  2  1  1  1
  4  5  2  0
  4  2  1  0
  6  4  1  0
  7 11  1  0
  7  6  1  0
  7  8  1  6
  9  8  1  0
 10  9  2  0
 11 12  2  0
 13  9  1  0
 15 14  1  1
 16 15  1  0
 16 11  1  0
 17 18  1  0
 17 15  1  0
 19 17  2  0
M  END
$$$$
