ADA.pdb
     RDKit          3D

 19 18  0  0  1  0  0  0  0  0999 V2000
    8.1891  -12.1844   19.5185 C   0  0  0  0  0  0  0  0  0  0  0  0
    8.3109  -13.3899   18.6023 C   0  0  2  0  0  0  0  0  0  0  0  0
    7.0840  -13.5958   17.8540 N   0  0  0  0  0  0  0  0  0  0  0  0
    8.6344  -14.5624   19.4667 C   0  0  0  0  0  0  0  0  0  0  0  0
    7.6615  -15.2262   19.8891 O   0  0  0  0  0  0  0  0  0  0  0  0
    9.9838  -14.8509   19.7532 N   0  0  0  0  0  0  0  0  0  0  0  0
   10.3828  -16.1270   20.4464 C   0  0  1  0  0  0  0  0  0  0  0  0
   11.6300  -16.5731   19.7973 C   0  0  0  0  0  0  0  0  0  0  0  0
   12.3193  -17.7603   20.1886 C   0  0  0  0  0  0  0  0  0  0  0  0
   13.4882  -17.8571   20.5399 O   0  0  0  0  0  0  0  0  0  0  0  0
   10.4136  -15.7959   21.8810 C   0  0  0  0  0  0  0  0  0  0  0  0
   11.2306  -14.8963   22.3304 O   0  0  0  0  0  0  0  0  0  0  0  0
   11.5893  -18.9710   20.1764 O   0  0  0  0  0  0  0  0  0  0  0  0
    8.4064  -16.1174   24.9417 C   0  0  0  0  0  0  0  0  0  0  0  0
    9.8068  -16.0230   24.3198 C   0  0  2  0  0  0  0  0  0  0  0  0
    9.6225  -16.3504   22.9124 N   0  0  0  0  0  0  0  0  0  0  0  0
   10.6591  -16.9865   25.0152 C   0  0  0  0  0  0  0  0  0  0  0  0
   11.0893  -16.7292   26.3116 O   0  0  0  0  0  0  0  0  0  0  0  0
   11.0067  -18.0443   24.4546 O   0  0  0  0  0  0  0  0  0  0  0  0
  2  3  1  0
  2  1  1  1
  4  5  2  0
  4  2  1  0
  6  4  1  0
  7 11  1  0
  7  6  1  0
  7  8  1  6
  9  8  1  0
 10  9  2  0
 11 12  2  0
 13  9  1  0
 15 14  1  1
 16 15  1  0
 16 11  1  0
 17 18  1  0
 17 15  1  0
 19 17  2  0
M  END
$$$$
