KVP.pdb
     RDKit          3D

 24 24  0  0  1  0  0  0  0  0999 V2000
   20.2882  -19.3256  -13.5216 N   0  0  0  0  0  0  0  0  0  0  0  0
   21.1963  -20.3602  -13.8604 C   0  0  1  0  0  0  0  0  0  0  0  0
   21.2077  -20.8233  -15.2772 C   0  0  0  0  0  0  0  0  0  0  0  0
   19.9748  -21.4564  -15.7841 C   0  0  0  0  0  0  0  0  0  0  0  0
   19.7309  -22.8775  -15.4870 C   0  0  0  0  0  0  0  0  0  0  0  0
   18.5432  -23.5026  -16.1226 C   0  0  0  0  0  0  0  0  0  0  0  0
   18.4299  -24.9146  -15.8762 N   0  0  0  0  0  0  0  0  0  0  0  0
   22.5704  -19.9444  -13.4071 C   0  0  0  0  0  0  0  0  0  0  0  0
   22.9075  -18.7491  -13.4753 O   0  0  0  0  0  0  0  0  0  0  0  0
   24.3854  -20.6070  -10.1715 C   0  0  0  0  0  0  0  0  0  0  0  0
   25.1913  -21.2329  -11.2887 C   0  0  2  0  0  0  0  0  0  0  0  0
   26.6492  -21.0577  -10.8862 C   0  0  0  0  0  0  0  0  0  0  0  0
   24.8904  -20.4727  -12.5672 C   0  0  2  0  0  0  0  0  0  0  0  0
   23.5064  -20.8689  -12.9003 N   0  0  0  0  0  0  0  0  0  0  0  0
   25.7604  -21.0157  -13.6446 C   0  0  0  0  0  0  0  0  0  0  0  0
   25.9123  -22.2671  -13.7702 O   0  0  0  0  0  0  0  0  0  0  0  0
   26.4560  -20.1920  -14.5760 N   0  0  0  0  0  0  0  0  0  0  0  0
   26.0922  -18.7629  -14.7428 C   0  0  0  0  0  0  0  0  0  0  0  0
   27.4315  -18.1165  -14.9446 C   0  0  0  0  0  0  0  0  0  0  0  0
   28.3323  -19.1702  -15.5026 C   0  0  0  0  0  0  0  0  0  0  0  0
   27.4554  -20.4149  -15.5560 C   0  0  1  0  0  0  0  0  0  0  0  0
   28.3067  -21.6155  -15.3794 C   0  0  0  0  0  0  0  0  0  0  0  0
   28.9445  -22.1673  -16.4586 O   0  0  0  0  0  0  0  0  0  0  0  0
   28.4542  -22.1526  -14.2311 O   0  0  0  0  0  0  0  0  0  0  0  0
  2  1  1  6
  2  3  1  0
  4  3  1  0
  4  5  1  0
  5  6  1  0
  7  6  1  0
  8  2  1  0
  8  9  2  0
 11 10  1  1
 11 13  1  0
 12 11  1  0
 13 14  1  6
 14  8  1  0
 15 13  1  0
 16 15  2  0
 17 15  1  0
 17 21  1  0
 18 19  1  0
 18 17  1  0
 19 20  1  0
 20 21  1  0
 21 22  1  1
 22 24  2  0
 22 23  1  0
M  END
$$$$
