KVP.pdb
     RDKit          3D

 24 24  0  0  1  0  0  0  0  0999 V2000
   22.4470  -15.5527  -22.0830 N   0  0  0  0  0  0  0  0  0  0  0  0
   22.4506  -14.8655  -20.8431 C   0  0  1  0  0  0  0  0  0  0  0  0
   23.7106  -14.1738  -20.4482 C   0  0  0  0  0  0  0  0  0  0  0  0
   24.9345  -14.5396  -21.1873 C   0  0  0  0  0  0  0  0  0  0  0  0
   26.0185  -15.2311  -20.4703 C   0  0  0  0  0  0  0  0  0  0  0  0
   27.2675  -15.4915  -21.2303 C   0  0  0  0  0  0  0  0  0  0  0  0
   28.3093  -16.0946  -20.4439 N   0  0  0  0  0  0  0  0  0  0  0  0
   21.2776  -13.9218  -20.8270 C   0  0  0  0  0  0  0  0  0  0  0  0
   20.9492  -13.3276  -21.8691 O   0  0  0  0  0  0  0  0  0  0  0  0
   17.9517  -14.9438  -19.7157 C   0  0  0  0  0  0  0  0  0  0  0  0
   18.2914  -13.7182  -18.8960 C   0  0  2  0  0  0  0  0  0  0  0  0
   16.9765  -12.9724  -18.7150 C   0  0  0  0  0  0  0  0  0  0  0  0
   19.2798  -12.8828  -19.6887 C   0  0  2  0  0  0  0  0  0  0  0  0
   20.5237  -13.6798  -19.6606 N   0  0  0  0  0  0  0  0  0  0  0  0
   19.5536  -11.6379  -18.9218 C   0  0  0  0  0  0  0  0  0  0  0  0
   19.8414  -11.6995  -17.6897 O   0  0  0  0  0  0  0  0  0  0  0  0
   19.5130  -10.3379  -19.5032 N   0  0  0  0  0  0  0  0  0  0  0  0
   19.6545  -10.1589  -20.9697 C   0  0  0  0  0  0  0  0  0  0  0  0
   18.6907   -9.0423  -21.2470 C   0  0  0  0  0  0  0  0  0  0  0  0
   18.5647   -8.2644  -19.9774 C   0  0  0  0  0  0  0  0  0  0  0  0
   19.4527   -9.0164  -18.9941 C   0  0  1  0  0  0  0  0  0  0  0  0
   18.9072   -8.8532  -17.6255 C   0  0  0  0  0  0  0  0  0  0  0  0
   19.7406   -8.5176  -16.5918 O   0  0  0  0  0  0  0  0  0  0  0  0
   17.6650   -9.0256  -17.3891 O   0  0  0  0  0  0  0  0  0  0  0  0
  2  1  1  6
  2  3  1  0
  4  3  1  0
  4  5  1  0
  5  6  1  0
  7  6  1  0
  8  2  1  0
  8  9  2  0
 11 10  1  6
 11 13  1  0
 12 11  1  0
 13 14  1  1
 14  8  1  0
 15 13  1  0
 16 15  2  0
 17 15  1  0
 17 21  1  0
 18 19  1  0
 18 17  1  0
 19 20  1  0
 20 21  1  0
 21 22  1  1
 22 24  2  0
 22 23  1  0
M  END
$$$$
