KVP.pdb
     RDKit          3D

 24 24  0  0  1  0  0  0  0  0999 V2000
   23.1001  -17.8243  -16.1984 N   0  0  0  0  0  0  0  0  0  0  0  0
   22.3804  -16.6300  -16.4538 C   0  0  1  0  0  0  0  0  0  0  0  0
   20.8923  -16.7057  -16.4106 C   0  0  0  0  0  0  0  0  0  0  0  0
   20.2586  -17.8303  -17.1259 C   0  0  0  0  0  0  0  0  0  0  0  0
   18.7998  -17.8157  -17.3240 C   0  0  0  0  0  0  0  0  0  0  0  0
   18.2095  -18.9658  -18.0548 C   0  0  0  0  0  0  0  0  0  0  0  0
   16.8140  -18.8035  -18.3607 N   0  0  0  0  0  0  0  0  0  0  0  0
   22.9032  -15.5614  -15.5310 C   0  0  0  0  0  0  0  0  0  0  0  0
   23.1545  -15.8390  -14.3450 O   0  0  0  0  0  0  0  0  0  0  0  0
   25.3012  -13.1300  -16.8882 C   0  0  0  0  0  0  0  0  0  0  0  0
   25.1526  -13.1816  -15.3834 C   0  0  2  0  0  0  0  0  0  0  0  0
   25.8201  -14.4806  -14.9529 C   0  0  0  0  0  0  0  0  0  0  0  0
   23.6703  -13.2045  -15.0588 C   0  0  2  0  0  0  0  0  0  0  0  0
   23.1232  -14.2375  -15.9626 N   0  0  0  0  0  0  0  0  0  0  0  0
   23.0822  -11.9074  -15.4883 C   0  0  0  0  0  0  0  0  0  0  0  0
   23.1167  -11.5653  -16.7075 O   0  0  0  0  0  0  0  0  0  0  0  0
   22.4610  -10.9953  -14.5871 N   0  0  0  0  0  0  0  0  0  0  0  0
   22.0616  -11.4293  -13.2253 C   0  0  0  0  0  0  0  0  0  0  0  0
   22.3796  -10.2166  -12.4003 C   0  0  0  0  0  0  0  0  0  0  0  0
   22.3125   -9.0442  -13.3244 C   0  0  0  0  0  0  0  0  0  0  0  0
   21.9923   -9.6608  -14.6802 C   0  0  1  0  0  0  0  0  0  0  0  0
   22.5838   -8.8190  -15.7474 C   0  0  0  0  0  0  0  0  0  0  0  0
   21.7780   -8.0222  -16.5164 O   0  0  0  0  0  0  0  0  0  0  0  0
   23.8407   -8.8264  -15.9684 O   0  0  0  0  0  0  0  0  0  0  0  0
  2  1  1  1
  2  3  1  0
  4  3  1  0
  4  5  1  0
  5  6  1  0
  7  6  1  0
  8  2  1  0
  8  9  2  0
 11 10  1  6
 11 13  1  0
 12 11  1  0
 13 14  1  6
 14  8  1  0
 15 13  1  0
 16 15  2  0
 17 15  1  0
 17 21  1  0
 18 19  1  0
 18 17  1  0
 19 20  1  0
 20 21  1  0
 21 22  1  6
 22 24  2  0
 22 23  1  0
M  END
$$$$
