KVP.pdb
     RDKit          3D

 24 24  0  0  1  0  0  0  0  0999 V2000
   22.2959  -21.2191  -17.1683 N   0  0  0  0  0  0  0  0  0  0  0  0
   22.5421  -20.1794  -16.2365 C   0  0  1  0  0  0  0  0  0  0  0  0
   21.4254  -19.7995  -15.3250 C   0  0  0  0  0  0  0  0  0  0  0  0
   20.1744  -20.5737  -15.4407 C   0  0  0  0  0  0  0  0  0  0  0  0
   20.2479  -22.0436  -15.4734 C   0  0  0  0  0  0  0  0  0  0  0  0
   18.9604  -22.7792  -15.5544 C   0  0  0  0  0  0  0  0  0  0  0  0
   17.8467  -22.0612  -14.9962 N   0  0  0  0  0  0  0  0  0  0  0  0
   23.7872  -20.5270  -15.4647 C   0  0  0  0  0  0  0  0  0  0  0  0
   24.0986  -21.7199  -15.3003 O   0  0  0  0  0  0  0  0  0  0  0  0
   27.1901  -19.2758  -16.1558 C   0  0  0  0  0  0  0  0  0  0  0  0
   26.8941  -18.9088  -14.7181 C   0  0  2  0  0  0  0  0  0  0  0  0
   28.2172  -19.0573  -13.9796 C   0  0  0  0  0  0  0  0  0  0  0  0
   25.8667  -19.8905  -14.1853 C   0  0  2  0  0  0  0  0  0  0  0  0
   24.6286  -19.5403  -14.9117 N   0  0  0  0  0  0  0  0  0  0  0  0
   25.6241  -19.5746  -12.7521 C   0  0  0  0  0  0  0  0  0  0  0  0
   25.4449  -18.3752  -12.3860 O   0  0  0  0  0  0  0  0  0  0  0  0
   25.5774  -20.5670  -11.7309 N   0  0  0  0  0  0  0  0  0  0  0  0
   25.4034  -22.0002  -12.0746 C   0  0  0  0  0  0  0  0  0  0  0  0
   26.2937  -22.6765  -11.0733 C   0  0  0  0  0  0  0  0  0  0  0  0
   26.3917  -21.7551   -9.9010 C   0  0  0  0  0  0  0  0  0  0  0  0
   25.5655  -20.5435  -10.3137 C   0  0  1  0  0  0  0  0  0  0  0  0
   26.1208  -19.3334   -9.6620 C   0  0  0  0  0  0  0  0  0  0  0  0
   25.6048  -18.9003   -8.4696 O   0  0  0  0  0  0  0  0  0  0  0  0
   27.0760  -18.6787  -10.1984 O   0  0  0  0  0  0  0  0  0  0  0  0
  2  1  1  1
  2  3  1  0
  4  3  1  0
  4  5  1  0
  5  6  1  0
  7  6  1  0
  8  2  1  0
  8  9  2  0
 11 10  1  6
 11 13  1  0
 12 11  1  0
 13 14  1  6
 14  8  1  0
 15 13  1  0
 16 15  2  0
 17 15  1  0
 17 21  1  0
 18 19  1  0
 18 17  1  0
 19 20  1  0
 20 21  1  0
 21 22  1  6
 22 24  2  0
 22 23  1  0
M  END
$$$$
