KVP.pdb
     RDKit          3D

 24 24  0  0  1  0  0  0  0  0999 V2000
   26.6379  -23.9172  -17.7773 N   0  0  0  0  0  0  0  0  0  0  0  0
   25.8209  -23.5304  -16.6852 C   0  0  1  0  0  0  0  0  0  0  0  0
   25.3090  -24.6126  -15.7971 C   0  0  0  0  0  0  0  0  0  0  0  0
   24.2029  -25.4389  -16.3186 C   0  0  0  0  0  0  0  0  0  0  0  0
   23.2113  -24.8180  -17.2122 C   0  0  0  0  0  0  0  0  0  0  0  0
   22.9690  -25.4874  -18.5155 C   0  0  0  0  0  0  0  0  0  0  0  0
   21.8854  -24.9158  -19.2680 N   0  0  0  0  0  0  0  0  0  0  0  0
   26.5562  -22.4771  -15.9000 C   0  0  0  0  0  0  0  0  0  0  0  0
   27.7971  -22.5164  -15.8258 O   0  0  0  0  0  0  0  0  0  0  0  0
   26.7301  -18.8265  -16.1363 C   0  0  0  0  0  0  0  0  0  0  0  0
   26.1132  -19.1250  -14.7873 C   0  0  2  0  0  0  0  0  0  0  0  0
   26.6300  -18.0386  -13.8541 C   0  0  0  0  0  0  0  0  0  0  0  0
   26.5976  -20.4926  -14.3422 C   0  0  2  0  0  0  0  0  0  0  0  0
   25.8855  -21.4309  -15.2343 N   0  0  0  0  0  0  0  0  0  0  0  0
   26.0861  -20.7402  -12.9674 C   0  0  0  0  0  0  0  0  0  0  0  0
   24.8566  -20.5809  -12.7073 O   0  0  0  0  0  0  0  0  0  0  0  0
   26.9172  -21.1599  -11.8890 N   0  0  0  0  0  0  0  0  0  0  0  0
   28.2828  -21.6821  -12.1437 C   0  0  0  0  0  0  0  0  0  0  0  0
   29.0584  -21.1172  -10.9896 C   0  0  0  0  0  0  0  0  0  0  0  0
   28.0757  -20.8922   -9.8866 C   0  0  0  0  0  0  0  0  0  0  0  0
   26.7409  -21.3099  -10.4906 C   0  0  1  0  0  0  0  0  0  0  0  0
   25.6564  -20.5153   -9.8661 C   0  0  0  0  0  0  0  0  0  0  0  0
   24.9846  -21.0091   -8.7796 O   0  0  0  0  0  0  0  0  0  0  0  0
   25.3308  -19.3714  -10.3289 O   0  0  0  0  0  0  0  0  0  0  0  0
  2  1  1  6
  2  3  1  0
  4  3  1  0
  4  5  1  0
  5  6  1  0
  7  6  1  0
  8  2  1  0
  8  9  2  0
 11 10  1  6
 11 13  1  0
 12 11  1  0
 13 14  1  6
 14  8  1  0
 15 13  1  0
 16 15  2  0
 17 15  1  0
 17 21  1  0
 18 19  1  0
 18 17  1  0
 19 20  1  0
 20 21  1  0
 21 22  1  1
 22 24  2  0
 22 23  1  0
M  END
$$$$
