KVP.pdb
     RDKit          3D

 24 24  0  0  1  0  0  0  0  0999 V2000
   21.1208  -20.6004  -11.4533 N   0  0  0  0  0  0  0  0  0  0  0  0
   21.8761  -21.0995  -12.5443 C   0  0  1  0  0  0  0  0  0  0  0  0
   21.2378  -21.0644  -13.8909 C   0  0  0  0  0  0  0  0  0  0  0  0
   20.2314  -22.1040  -14.1815 C   0  0  0  0  0  0  0  0  0  0  0  0
   20.6878  -23.4685  -14.4932 C   0  0  0  0  0  0  0  0  0  0  0  0
   21.0214  -23.7580  -15.9110 C   0  0  0  0  0  0  0  0  0  0  0  0
   21.8754  -24.9017  -16.0836 N   0  0  0  0  0  0  0  0  0  0  0  0
   23.2094  -20.4003  -12.5500 C   0  0  0  0  0  0  0  0  0  0  0  0
   23.3026  -19.2453  -12.0979 O   0  0  0  0  0  0  0  0  0  0  0  0
   26.2275  -21.4530  -10.9561 C   0  0  0  0  0  0  0  0  0  0  0  0
   26.6259  -21.3079  -12.4086 C   0  0  2  0  0  0  0  0  0  0  0  0
   28.0481  -20.7650  -12.3881 C   0  0  0  0  0  0  0  0  0  0  0  0
   25.6795  -20.3149  -13.0577 C   0  0  2  0  0  0  0  0  0  0  0  0
   24.3758  -21.0104  -13.0547 N   0  0  0  0  0  0  0  0  0  0  0  0
   26.0769  -20.1601  -14.4828 C   0  0  0  0  0  0  0  0  0  0  0  0
   26.2949  -21.1829  -15.1977 O   0  0  0  0  0  0  0  0  0  0  0  0
   26.2321  -18.8937  -15.1169 N   0  0  0  0  0  0  0  0  0  0  0  0
   25.7363  -17.6551  -14.4669 C   0  0  0  0  0  0  0  0  0  0  0  0
   26.8017  -16.6608  -14.8258 C   0  0  0  0  0  0  0  0  0  0  0  0
   27.4324  -17.1507  -16.0887 C   0  0  0  0  0  0  0  0  0  0  0  0
   26.7085  -18.4594  -16.3792 C   0  0  1  0  0  0  0  0  0  0  0  0
   27.6293  -19.3741  -17.0953 C   0  0  0  0  0  0  0  0  0  0  0  0
   27.6587  -19.3819  -18.4646 O   0  0  0  0  0  0  0  0  0  0  0  0
   28.3988  -20.1651  -16.4543 O   0  0  0  0  0  0  0  0  0  0  0  0
  2  1  1  1
  2  3  1  0
  4  3  1  0
  4  5  1  0
  5  6  1  0
  7  6  1  0
  8  2  1  0
  8  9  2  0
 11 10  1  1
 11 13  1  0
 12 11  1  0
 13 14  1  6
 14  8  1  0
 15 13  1  0
 16 15  2  0
 17 15  1  0
 17 21  1  0
 18 19  1  0
 18 17  1  0
 19 20  1  0
 20 21  1  0
 21 22  1  1
 22 24  2  0
 22 23  1  0
M  END
$$$$
