KVP.pdb
     RDKit          3D

 24 24  0  0  1  0  0  0  0  0999 V2000
   22.0067  -21.3453  -17.3927 N   0  0  0  0  0  0  0  0  0  0  0  0
   22.0041  -20.6041  -16.1843 C   0  0  1  0  0  0  0  0  0  0  0  0
   21.0376  -21.0206  -15.1286 C   0  0  0  0  0  0  0  0  0  0  0  0
   19.6123  -20.7253  -15.3723 C   0  0  0  0  0  0  0  0  0  0  0  0
   18.8691  -21.5529  -16.3366 C   0  0  0  0  0  0  0  0  0  0  0  0
   17.4198  -21.2676  -16.4902 C   0  0  0  0  0  0  0  0  0  0  0  0
   16.7522  -22.1413  -17.4166 N   0  0  0  0  0  0  0  0  0  0  0  0
   23.4130  -20.5658  -15.6551 C   0  0  0  0  0  0  0  0  0  0  0  0
   24.1848  -21.5136  -15.8853 O   0  0  0  0  0  0  0  0  0  0  0  0
   25.9194  -17.7206  -15.8979 C   0  0  0  0  0  0  0  0  0  0  0  0
   25.7087  -18.0369  -14.4334 C   0  0  2  0  0  0  0  0  0  0  0  0
   27.0667  -17.8379  -13.7745 C   0  0  0  0  0  0  0  0  0  0  0  0
   25.2644  -19.4840  -14.3252 C   0  0  2  0  0  0  0  0  0  0  0  0
   23.9019  -19.4825  -14.8969 N   0  0  0  0  0  0  0  0  0  0  0  0
   25.1211  -19.8178  -12.8827 C   0  0  0  0  0  0  0  0  0  0  0  0
   24.3333  -19.1493  -12.1497 O   0  0  0  0  0  0  0  0  0  0  0  0
   25.8354  -20.8767  -12.2516 N   0  0  0  0  0  0  0  0  0  0  0  0
   26.4896  -21.9361  -13.0592 C   0  0  0  0  0  0  0  0  0  0  0  0
   27.7544  -22.1849  -12.2905 C   0  0  0  0  0  0  0  0  0  0  0  0
   27.4761  -21.7923  -10.8757 C   0  0  0  0  0  0  0  0  0  0  0  0
   26.0404  -21.2837  -10.9094 C   0  0  1  0  0  0  0  0  0  0  0  0
   25.8690  -20.2465   -9.8644 C   0  0  0  0  0  0  0  0  0  0  0  0
   25.3453  -20.5837   -8.6447 O   0  0  0  0  0  0  0  0  0  0  0  0
   26.1987  -19.0332  -10.0834 O   0  0  0  0  0  0  0  0  0  0  0  0
  2  1  1  6
  2  3  1  0
  4  3  1  0
  4  5  1  0
  5  6  1  0
  7  6  1  0
  8  2  1  0
  8  9  2  0
 11 10  1  6
 11 13  1  0
 12 11  1  0
 13 14  1  6
 14  8  1  0
 15 13  1  0
 16 15  2  0
 17 15  1  0
 17 21  1  0
 18 19  1  0
 18 17  1  0
 19 20  1  0
 20 21  1  0
 21 22  1  1
 22 24  2  0
 22 23  1  0
M  END
$$$$
