KVP.pdb
     RDKit          3D

 24 24  0  0  1  0  0  0  0  0999 V2000
   24.6863  -20.8735  -14.2218 N   0  0  0  0  0  0  0  0  0  0  0  0
   25.5175  -21.4705  -13.2408 C   0  0  1  0  0  0  0  0  0  0  0  0
   26.8129  -22.0470  -13.7009 C   0  0  0  0  0  0  0  0  0  0  0  0
   26.7508  -23.0652  -14.7673 C   0  0  0  0  0  0  0  0  0  0  0  0
   25.7841  -24.1684  -14.6422 C   0  0  0  0  0  0  0  0  0  0  0  0
   25.7684  -25.1751  -15.7338 C   0  0  0  0  0  0  0  0  0  0  0  0
   26.1045  -24.6364  -17.0238 N   0  0  0  0  0  0  0  0  0  0  0  0
   25.7229  -20.4738  -12.1312 C   0  0  0  0  0  0  0  0  0  0  0  0
   25.7358  -19.2571  -12.3890 O   0  0  0  0  0  0  0  0  0  0  0  0
   23.5566  -19.2229  -10.8876 C   0  0  0  0  0  0  0  0  0  0  0  0
   24.0206  -19.9928   -9.6705 C   0  0  2  0  0  0  0  0  0  0  0  0
   23.4709  -19.2303   -8.4728 C   0  0  0  0  0  0  0  0  0  0  0  0
   25.5382  -19.9873   -9.6623 C   0  0  2  0  0  0  0  0  0  0  0  0
   25.9042  -20.8689  -10.7901 N   0  0  0  0  0  0  0  0  0  0  0  0
   25.9970  -20.6687   -8.4222 C   0  0  0  0  0  0  0  0  0  0  0  0
   25.3786  -21.6856   -7.9884 O   0  0  0  0  0  0  0  0  0  0  0  0
   27.1253  -20.2378   -7.6664 N   0  0  0  0  0  0  0  0  0  0  0  0
   28.1644  -19.3747   -8.2812 C   0  0  0  0  0  0  0  0  0  0  0  0
   28.5198  -18.4529   -7.1515 C   0  0  0  0  0  0  0  0  0  0  0  0
   28.2003  -19.1853   -5.8887 C   0  0  0  0  0  0  0  0  0  0  0  0
   27.6219  -20.5110   -6.3672 C   0  0  1  0  0  0  0  0  0  0  0  0
   26.6425  -21.0013   -5.3683 C   0  0  0  0  0  0  0  0  0  0  0  0
   27.0657  -21.7620   -4.3109 O   0  0  0  0  0  0  0  0  0  0  0  0
   25.4004  -20.7296   -5.4786 O   0  0  0  0  0  0  0  0  0  0  0  0
  2  1  1  6
  2  3  1  0
  4  3  1  0
  4  5  1  0
  5  6  1  0
  7  6  1  0
  8  2  1  0
  8  9  2  0
 11 10  1  6
 11 13  1  0
 12 11  1  0
 13 14  1  6
 14  8  1  0
 15 13  1  0
 16 15  2  0
 17 15  1  0
 17 21  1  0
 18 19  1  0
 18 17  1  0
 19 20  1  0
 20 21  1  0
 21 22  1  1
 22 24  2  0
 22 23  1  0
M  END
$$$$
