KIW.pdb
     RDKit          3D

 32 33  0  0  1  0  0  0  0  0999 V2000
   27.6922  -21.2519  -15.1442 N   0  0  0  0  0  0  0  0  0  0  0  0
   27.4289  -20.2775  -14.1023 C   0  0  1  0  0  0  0  0  0  0  0  0
   26.8831  -18.9848  -14.7014 C   0  0  0  0  0  0  0  0  0  0  0  0
   27.7897  -18.4340  -15.7449 C   0  0  0  0  0  0  0  0  0  0  0  0
   27.6510  -19.0616  -17.0954 C   0  0  0  0  0  0  0  0  0  0  0  0
   28.4083  -18.4258  -18.2068 C   0  0  0  0  0  0  0  0  0  0  0  0
   28.3075  -19.0636  -19.4861 N   0  0  0  0  0  0  0  0  0  0  0  0
   26.5267  -20.8245  -13.0574 C   0  0  0  0  0  0  0  0  0  0  0  0
   25.7219  -21.6971  -13.4273 O   0  0  0  0  0  0  0  0  0  0  0  0
   25.9930  -20.3503   -6.8019 C   0  0  0  0  0  0  0  0  0  0  0  0
   25.4607  -20.8540   -8.1177 C   0  0  0  0  0  0  0  0  0  0  0  0
   26.1921  -20.4439   -9.3232 C   0  0  2  0  0  0  0  0  0  0  0  0
   26.3972  -18.9284   -9.2591 C   0  0  0  0  0  0  0  0  0  0  0  0
   25.6524  -20.7670  -10.6551 C   0  0  2  0  0  0  0  0  0  0  0  0
   26.5573  -20.4017  -11.7239 N   0  0  0  0  0  0  0  0  0  0  0  0
   24.2313  -20.4235  -10.9053 C   0  0  0  0  0  0  0  0  0  0  0  0
   23.6019  -19.4802  -10.3936 O   0  0  0  0  0  0  0  0  0  0  0  0
   23.5018  -21.2356  -11.8199 N   0  0  0  0  0  0  0  0  0  0  0  0
   22.3793  -20.5823  -12.5282 C   0  0  1  0  0  0  0  0  0  0  0  0
   23.0781  -19.7976  -13.6364 C   0  0  0  0  0  0  0  0  0  0  0  0
   22.2003  -19.1092  -14.5683 C   0  0  0  0  0  0  0  0  0  0  0  0
   21.0599  -18.4085  -14.1682 C   0  0  0  0  0  0  0  0  0  0  0  0
   20.4326  -17.9135  -15.2676 N   0  0  0  0  0  0  0  0  0  0  0  0
   21.1316  -18.2723  -16.3535 C   0  0  0  0  0  0  0  0  0  0  0  0
   20.9404  -18.0212  -17.7027 C   0  0  0  0  0  0  0  0  0  0  0  0
   21.8172  -18.4855  -18.6748 C   0  0  0  0  0  0  0  0  0  0  0  0
   22.9124  -19.2223  -18.2496 C   0  0  0  0  0  0  0  0  0  0  0  0
   23.0828  -19.4597  -16.9152 C   0  0  0  0  0  0  0  0  0  0  0  0
   22.2164  -19.0053  -15.9300 C   0  0  0  0  0  0  0  0  0  0  0  0
   21.5534  -21.6265  -13.1130 C   0  0  0  0  0  0  0  0  0  0  0  0
   22.0580  -22.7202  -13.4436 O   0  0  0  0  0  0  0  0  0  0  0  0
   20.1731  -21.4900  -13.3368 O   0  0  0  0  0  0  0  0  0  0  0  0
  2  1  1  6
  2  3  1  0
  3  4  1  0
  5  4  1  0
  6  5  1  0
  7  6  1  0
  8  2  1  0
  9  8  2  0
 10 11  1  0
 11 12  1  0
 12 13  1  6
 12 14  1  0
 14 16  1  0
 14 15  1  6
 15  8  1  0
 16 17  2  0
 18 16  1  0
 18 19  1  0
 19 20  1  6
 20 21  1  0
 21 29  1  0
 22 21  2  0
 22 23  1  0
 23 24  1  0
 24 25  1  0
 25 26  2  0
 27 26  1  0
 28 27  2  0
 29 24  2  0
 29 28  1  0
 30 32  1  0
 30 19  1  0
 31 30  2  0
M  END
$$$$
