KIW.pdb
     RDKit          3D

 32 33  0  0  1  0  0  0  0  0999 V2000
   24.1547  -22.4950  -17.0447 N   0  0  0  0  0  0  0  0  0  0  0  0
   23.8140  -22.8777  -15.6875 C   0  0  1  0  0  0  0  0  0  0  0  0
   23.1333  -24.2431  -15.6695 C   0  0  0  0  0  0  0  0  0  0  0  0
   21.6563  -24.1255  -15.8066 C   0  0  0  0  0  0  0  0  0  0  0  0
   21.0139  -23.1413  -14.8816 C   0  0  0  0  0  0  0  0  0  0  0  0
   19.5354  -23.0056  -14.9752 C   0  0  0  0  0  0  0  0  0  0  0  0
   18.9282  -23.5172  -16.1682 N   0  0  0  0  0  0  0  0  0  0  0  0
   25.0002  -22.8416  -14.7951 C   0  0  0  0  0  0  0  0  0  0  0  0
   25.2818  -23.9025  -14.2110 O   0  0  0  0  0  0  0  0  0  0  0  0
   29.6305  -18.9529  -13.1531 C   0  0  0  0  0  0  0  0  0  0  0  0
   28.6232  -20.0011  -12.7597 C   0  0  0  0  0  0  0  0  0  0  0  0
   27.5740  -20.3058  -13.7407 C   0  0  2  0  0  0  0  0  0  0  0  0
   26.8263  -19.0070  -14.0520 C   0  0  0  0  0  0  0  0  0  0  0  0
   26.5691  -21.3411  -13.4438 C   0  0  2  0  0  0  0  0  0  0  0  0
   25.7766  -21.6935  -14.6024 N   0  0  0  0  0  0  0  0  0  0  0  0
   25.7927  -21.1833  -12.1899 C   0  0  0  0  0  0  0  0  0  0  0  0
   24.6274  -20.7579  -12.0953 O   0  0  0  0  0  0  0  0  0  0  0  0
   26.4215  -21.5541  -10.9671 N   0  0  0  0  0  0  0  0  0  0  0  0
   25.5959  -21.4462   -9.7442 C   0  0  1  0  0  0  0  0  0  0  0  0
   26.5925  -21.7424   -8.6256 C   0  0  0  0  0  0  0  0  0  0  0  0
   27.0568  -20.5871   -7.8756 C   0  0  0  0  0  0  0  0  0  0  0  0
   26.6031  -19.2878   -8.1155 C   0  0  0  0  0  0  0  0  0  0  0  0
   27.2504  -18.4293   -7.2841 N   0  0  0  0  0  0  0  0  0  0  0  0
   28.0994  -19.1337   -6.5227 C   0  0  0  0  0  0  0  0  0  0  0  0
   28.9758  -18.7546   -5.5188 C   0  0  0  0  0  0  0  0  0  0  0  0
   29.7640  -19.6728   -4.8369 C   0  0  0  0  0  0  0  0  0  0  0  0
   29.6474  -21.0073   -5.1952 C   0  0  0  0  0  0  0  0  0  0  0  0
   28.7783  -21.3607   -6.1881 C   0  0  0  0  0  0  0  0  0  0  0  0
   27.9841  -20.4572   -6.8814 C   0  0  0  0  0  0  0  0  0  0  0  0
   25.1345  -20.0714   -9.6382 C   0  0  0  0  0  0  0  0  0  0  0  0
   24.1020  -19.7997   -8.9898 O   0  0  0  0  0  0  0  0  0  0  0  0
   25.7956  -18.9830  -10.2319 O   0  0  0  0  0  0  0  0  0  0  0  0
  2  1  1  6
  2  3  1  0
  3  4  1  0
  5  4  1  0
  6  5  1  0
  7  6  1  0
  8  2  1  0
  9  8  2  0
 10 11  1  0
 11 12  1  0
 12 13  1  1
 12 14  1  0
 14 16  1  0
 14 15  1  6
 15  8  1  0
 16 17  2  0
 18 16  1  0
 18 19  1  0
 19 20  1  1
 20 21  1  0
 21 29  1  0
 22 21  2  0
 22 23  1  0
 23 24  1  0
 24 25  1  0
 25 26  2  0
 27 26  1  0
 28 27  2  0
 29 24  2  0
 29 28  1  0
 30 32  1  0
 30 19  1  0
 31 30  2  0
M  END
$$$$
