KIW.pdb
     RDKit          3D

 32 33  0  0  1  0  0  0  0  0999 V2000
   29.8785  -23.3179  -18.0225 N   0  0  0  0  0  0  0  0  0  0  0  0
   28.7975  -23.6137  -17.1014 C   0  0  1  0  0  0  0  0  0  0  0  0
   28.9749  -25.0018  -16.4933 C   0  0  0  0  0  0  0  0  0  0  0  0
   28.8384  -26.0741  -17.5158 C   0  0  0  0  0  0  0  0  0  0  0  0
   27.4659  -26.2259  -18.0904 C   0  0  0  0  0  0  0  0  0  0  0  0
   26.6749  -27.3972  -17.6263 C   0  0  0  0  0  0  0  0  0  0  0  0
   27.0899  -28.6763  -18.1218 N   0  0  0  0  0  0  0  0  0  0  0  0
   28.6675  -22.5668  -16.0565 C   0  0  0  0  0  0  0  0  0  0  0  0
   29.3841  -22.7027  -15.0494 O   0  0  0  0  0  0  0  0  0  0  0  0
   27.5079  -17.1518  -14.2461 C   0  0  0  0  0  0  0  0  0  0  0  0
   26.5380  -18.2238  -14.6685 C   0  0  0  0  0  0  0  0  0  0  0  0
   27.0453  -19.2396  -15.5997 C   0  0  2  0  0  0  0  0  0  0  0  0
   26.0566  -19.3504  -16.7630 C   0  0  0  0  0  0  0  0  0  0  0  0
   27.3250  -20.6032  -15.1181 C   0  0  2  0  0  0  0  0  0  0  0  0
   27.7968  -21.4774  -16.1706 N   0  0  0  0  0  0  0  0  0  0  0  0
   26.3225  -21.2140  -14.2116 C   0  0  0  0  0  0  0  0  0  0  0  0
   25.2983  -21.8305  -14.5566 O   0  0  0  0  0  0  0  0  0  0  0  0
   26.5376  -21.0999  -12.8084 N   0  0  0  0  0  0  0  0  0  0  0  0
   25.5217  -21.7266  -11.9345 C   0  0  1  0  0  0  0  0  0  0  0  0
   26.3163  -22.0853  -10.6806 C   0  0  0  0  0  0  0  0  0  0  0  0
   26.3693  -21.0568   -9.6548 C   0  0  0  0  0  0  0  0  0  0  0  0
   25.2800  -20.2446   -9.3302 C   0  0  0  0  0  0  0  0  0  0  0  0
   25.6543  -19.3612   -8.3675 N   0  0  0  0  0  0  0  0  0  0  0  0
   26.9417  -19.5811   -8.0661 C   0  0  0  0  0  0  0  0  0  0  0  0
   27.7957  -18.9787   -7.1564 C   0  0  0  0  0  0  0  0  0  0  0  0
   29.1138  -19.3863   -6.9947 C   0  0  0  0  0  0  0  0  0  0  0  0
   29.5610  -20.4347   -7.7845 C   0  0  0  0  0  0  0  0  0  0  0  0
   28.7038  -21.0148   -8.6760 C   0  0  0  0  0  0  0  0  0  0  0  0
   27.3845  -20.6199   -8.8525 C   0  0  0  0  0  0  0  0  0  0  0  0
   24.5271  -20.7161  -11.6120 C   0  0  0  0  0  0  0  0  0  0  0  0
   24.7804  -19.5044  -11.7789 O   0  0  0  0  0  0  0  0  0  0  0  0
   23.2492  -21.0169  -11.1113 O   0  0  0  0  0  0  0  0  0  0  0  0
  2  1  1  6
  2  3  1  0
  3  4  1  0
  5  4  1  0
  6  5  1  0
  7  6  1  0
  8  2  1  0
  9  8  2  0
 10 11  1  0
 11 12  1  0
 12 13  1  6
 12 14  1  0
 14 16  1  0
 14 15  1  6
 15  8  1  0
 16 17  2  0
 18 16  1  0
 18 19  1  0
 19 20  1  1
 20 21  1  0
 21 29  1  0
 22 21  2  0
 22 23  1  0
 23 24  1  0
 24 25  1  0
 25 26  2  0
 27 26  1  0
 28 27  2  0
 29 24  2  0
 29 28  1  0
 30 32  1  0
 30 19  1  0
 31 30  2  0
M  END
$$$$
