KIW.pdb
     RDKit          3D

 32 33  0  0  1  0  0  0  0  0999 V2000
   23.7029  -18.7251  -15.7502 N   0  0  0  0  0  0  0  0  0  0  0  0
   23.3935  -18.6460  -14.3351 C   0  0  1  0  0  0  0  0  0  0  0  0
   21.8962  -18.8243  -14.1020 C   0  0  0  0  0  0  0  0  0  0  0  0
   21.1859  -17.5178  -14.0516 C   0  0  0  0  0  0  0  0  0  0  0  0
   21.2505  -16.7163  -15.3127 C   0  0  0  0  0  0  0  0  0  0  0  0
   20.3327  -15.5495  -15.4085 C   0  0  0  0  0  0  0  0  0  0  0  0
   18.9367  -15.8284  -15.2434 N   0  0  0  0  0  0  0  0  0  0  0  0
   24.1935  -19.6163  -13.5454 C   0  0  0  0  0  0  0  0  0  0  0  0
   23.6255  -20.6802  -13.2427 O   0  0  0  0  0  0  0  0  0  0  0  0
   29.1025  -20.7889  -15.2464 C   0  0  0  0  0  0  0  0  0  0  0  0
   27.7431  -20.6241  -14.6195 C   0  0  0  0  0  0  0  0  0  0  0  0
   27.7104  -20.4110  -13.1669 C   0  0  2  0  0  0  0  0  0  0  0  0
   28.4809  -21.5554  -12.5038 C   0  0  0  0  0  0  0  0  0  0  0  0
   26.4178  -20.2799  -12.4728 C   0  0  2  0  0  0  0  0  0  0  0  0
   25.5138  -19.3750  -13.1498 N   0  0  0  0  0  0  0  0  0  0  0  0
   26.4603  -20.1213  -10.9986 C   0  0  0  0  0  0  0  0  0  0  0  0
   27.2006  -19.3491  -10.3632 O   0  0  0  0  0  0  0  0  0  0  0  0
   25.5726  -20.9159  -10.2183 N   0  0  0  0  0  0  0  0  0  0  0  0
   25.9298  -21.0941   -8.7938 C   0  0  1  0  0  0  0  0  0  0  0  0
   25.7782  -19.6872   -8.2194 C   0  0  0  0  0  0  0  0  0  0  0  0
   26.8867  -19.2187   -7.4042 C   0  0  0  0  0  0  0  0  0  0  0  0
   27.6369  -18.0821   -7.7151 C   0  0  0  0  0  0  0  0  0  0  0  0
   28.6206  -17.9306   -6.7895 N   0  0  0  0  0  0  0  0  0  0  0  0
   28.5245  -18.9286   -5.8998 C   0  0  0  0  0  0  0  0  0  0  0  0
   29.2613  -19.2331   -4.7666 C   0  0  0  0  0  0  0  0  0  0  0  0
   28.9697  -20.3295   -3.9652 C   0  0  0  0  0  0  0  0  0  0  0  0
   27.8985  -21.1276   -4.3375 C   0  0  0  0  0  0  0  0  0  0  0  0
   27.1851  -20.8110   -5.4586 C   0  0  0  0  0  0  0  0  0  0  0  0
   27.4628  -19.7208   -6.2722 C   0  0  0  0  0  0  0  0  0  0  0  0
   24.9426  -21.9773   -8.1941 C   0  0  0  0  0  0  0  0  0  0  0  0
   23.8839  -22.2457   -8.8003 O   0  0  0  0  0  0  0  0  0  0  0  0
   25.1026  -22.5785   -6.9343 O   0  0  0  0  0  0  0  0  0  0  0  0
  2  1  1  6
  2  3  1  0
  3  4  1  0
  5  4  1  0
  6  5  1  0
  7  6  1  0
  8  2  1  0
  9  8  2  0
 10 11  1  0
 11 12  1  0
 12 13  1  1
 12 14  1  0
 14 16  1  0
 14 15  1  6
 15  8  1  0
 16 17  2  0
 18 16  1  0
 18 19  1  0
 19 20  1  1
 20 21  1  0
 21 29  1  0
 22 21  2  0
 22 23  1  0
 23 24  1  0
 24 25  1  0
 25 26  2  0
 27 26  1  0
 28 27  2  0
 29 24  2  0
 29 28  1  0
 30 32  1  0
 30 19  1  0
 31 30  2  0
M  END
$$$$
