KIW.pdb
     RDKit          3D

 32 33  0  0  1  0  0  0  0  0999 V2000
   21.7811  -19.1167  -15.4055 N   0  0  0  0  0  0  0  0  0  0  0  0
   22.3801  -18.7074  -14.1493 C   0  0  1  0  0  0  0  0  0  0  0  0
   21.3891  -18.8760  -13.0016 C   0  0  0  0  0  0  0  0  0  0  0  0
   20.0014  -19.0845  -13.4966 C   0  0  0  0  0  0  0  0  0  0  0  0
   19.3749  -20.3800  -13.0891 C   0  0  0  0  0  0  0  0  0  0  0  0
   17.9431  -20.3309  -12.6883 C   0  0  0  0  0  0  0  0  0  0  0  0
   17.6839  -20.2005  -11.2848 N   0  0  0  0  0  0  0  0  0  0  0  0
   23.6520  -19.4283  -13.8895 C   0  0  0  0  0  0  0  0  0  0  0  0
   23.5737  -20.6657  -13.7958 O   0  0  0  0  0  0  0  0  0  0  0  0
   28.0971  -18.3366  -16.6823 C   0  0  0  0  0  0  0  0  0  0  0  0
   26.9976  -18.9038  -15.8233 C   0  0  0  0  0  0  0  0  0  0  0  0
   27.2290  -18.9023  -14.3733 C   0  0  2  0  0  0  0  0  0  0  0  0
   28.4857  -19.7304  -14.0942 C   0  0  0  0  0  0  0  0  0  0  0  0
   26.1721  -19.3705  -13.4603 C   0  0  2  0  0  0  0  0  0  0  0  0
   24.8841  -18.7792  -13.7532 N   0  0  0  0  0  0  0  0  0  0  0  0
   26.5096  -19.4310  -12.0172 C   0  0  0  0  0  0  0  0  0  0  0  0
   26.6967  -18.4582  -11.2645 O   0  0  0  0  0  0  0  0  0  0  0  0
   26.6298  -20.7163  -11.4156 N   0  0  0  0  0  0  0  0  0  0  0  0
   27.2735  -20.7613  -10.0844 C   0  0  1  0  0  0  0  0  0  0  0  0
   26.2346  -20.1095   -9.1744 C   0  0  0  0  0  0  0  0  0  0  0  0
   26.7680  -19.3234   -8.0743 C   0  0  0  0  0  0  0  0  0  0  0  0
   26.9724  -17.9435   -8.1498 C   0  0  0  0  0  0  0  0  0  0  0  0
   27.5153  -17.5090   -6.9820 N   0  0  0  0  0  0  0  0  0  0  0  0
   27.6638  -18.5611   -6.1648 C   0  0  0  0  0  0  0  0  0  0  0  0
   28.1502  -18.6680   -4.8719 C   0  0  0  0  0  0  0  0  0  0  0  0
   28.1980  -19.8804   -4.1956 C   0  0  0  0  0  0  0  0  0  0  0  0
   27.7356  -21.0044   -4.8632 C   0  0  0  0  0  0  0  0  0  0  0  0
   27.2606  -20.8782   -6.1379 C   0  0  0  0  0  0  0  0  0  0  0  0
   27.2068  -19.6757   -6.8298 C   0  0  0  0  0  0  0  0  0  0  0  0
   27.4394  -22.1583   -9.7169 C   0  0  0  0  0  0  0  0  0  0  0  0
   26.7298  -23.0395  -10.2462 O   0  0  0  0  0  0  0  0  0  0  0  0
   28.3815  -22.6065   -8.7757 O   0  0  0  0  0  0  0  0  0  0  0  0
  2  1  1  6
  2  3  1  0
  3  4  1  0
  5  4  1  0
  6  5  1  0
  7  6  1  0
  8  2  1  0
  9  8  2  0
 10 11  1  0
 11 12  1  0
 12 13  1  6
 12 14  1  0
 14 16  1  0
 14 15  1  1
 15  8  1  0
 16 17  2  0
 18 16  1  0
 18 19  1  0
 19 20  1  1
 20 21  1  0
 21 29  1  0
 22 21  2  0
 22 23  1  0
 23 24  1  0
 24 25  1  0
 25 26  2  0
 27 26  1  0
 28 27  2  0
 29 24  2  0
 29 28  1  0
 30 32  1  0
 30 19  1  0
 31 30  2  0
M  END
$$$$
