KIW.pdb
     RDKit          3D

 32 33  0  0  1  0  0  0  0  0999 V2000
   24.8702  -23.6621  -16.9349 N   0  0  0  0  0  0  0  0  0  0  0  0
   24.2179  -23.4658  -15.6541 C   0  0  1  0  0  0  0  0  0  0  0  0
   23.5597  -24.7591  -15.1828 C   0  0  0  0  0  0  0  0  0  0  0  0
   22.1339  -24.8373  -15.6012 C   0  0  0  0  0  0  0  0  0  0  0  0
   21.3898  -23.5410  -15.5489 C   0  0  0  0  0  0  0  0  0  0  0  0
   19.9846  -23.5983  -15.0640 C   0  0  0  0  0  0  0  0  0  0  0  0
   19.2266  -24.7489  -15.4581 N   0  0  0  0  0  0  0  0  0  0  0  0
   25.1571  -22.9240  -14.6396 C   0  0  0  0  0  0  0  0  0  0  0  0
   25.5476  -23.7220  -13.7697 O   0  0  0  0  0  0  0  0  0  0  0  0
   27.8440  -18.6939  -16.3488 C   0  0  0  0  0  0  0  0  0  0  0  0
   27.9419  -19.8138  -15.3465 C   0  0  0  0  0  0  0  0  0  0  0  0
   27.0683  -19.7213  -14.1698 C   0  0  2  0  0  0  0  0  0  0  0  0
   27.8758  -19.0965  -13.0294 C   0  0  0  0  0  0  0  0  0  0  0  0
   26.4134  -20.9316  -13.6444 C   0  0  2  0  0  0  0  0  0  0  0  0
   25.5955  -21.5952  -14.6369 N   0  0  0  0  0  0  0  0  0  0  0  0
   25.7926  -20.8297  -12.3011 C   0  0  0  0  0  0  0  0  0  0  0  0
   24.6078  -20.5375  -12.0590 O   0  0  0  0  0  0  0  0  0  0  0  0
   26.6132  -21.0936  -11.1674 N   0  0  0  0  0  0  0  0  0  0  0  0
   25.9528  -21.0166   -9.8458 C   0  0  1  0  0  0  0  0  0  0  0  0
   27.0936  -21.3006   -8.8709 C   0  0  0  0  0  0  0  0  0  0  0  0
   26.8727  -20.8656   -7.5017 C   0  0  0  0  0  0  0  0  0  0  0  0
   25.6332  -20.9517   -6.8631 C   0  0  0  0  0  0  0  0  0  0  0  0
   25.7395  -20.4313   -5.6120 N   0  0  0  0  0  0  0  0  0  0  0  0
   27.0013  -20.0175   -5.4295 C   0  0  0  0  0  0  0  0  0  0  0  0
   27.6368  -19.4338   -4.3455 C   0  0  0  0  0  0  0  0  0  0  0  0
   28.9838  -19.0952   -4.3699 C   0  0  0  0  0  0  0  0  0  0  0  0
   29.6902  -19.3631   -5.5327 C   0  0  0  0  0  0  0  0  0  0  0  0
   29.0453  -19.9382   -6.5907 C   0  0  0  0  0  0  0  0  0  0  0  0
   27.7001  -20.2818   -6.5851 C   0  0  0  0  0  0  0  0  0  0  0  0
   25.4796  -19.6539   -9.6630 C   0  0  0  0  0  0  0  0  0  0  0  0
   26.1618  -18.6887  -10.0669 O   0  0  0  0  0  0  0  0  0  0  0  0
   24.2595  -19.3325   -9.0448 O   0  0  0  0  0  0  0  0  0  0  0  0
  2  1  1  6
  2  3  1  0
  3  4  1  0
  5  4  1  0
  6  5  1  0
  7  6  1  0
  8  2  1  0
  9  8  2  0
 10 11  1  0
 11 12  1  0
 12 13  1  1
 12 14  1  0
 14 16  1  0
 14 15  1  6
 15  8  1  0
 16 17  2  0
 18 16  1  0
 18 19  1  0
 19 20  1  1
 20 21  1  0
 21 29  1  0
 22 21  2  0
 22 23  1  0
 23 24  1  0
 24 25  1  0
 25 26  2  0
 27 26  1  0
 28 27  2  0
 29 24  2  0
 29 28  1  0
 30 32  1  0
 30 19  1  0
 31 30  2  0
M  END
$$$$
