KIW.pdb
     RDKit          3D

 32 33  0  0  1  0  0  0  0  0999 V2000
   27.9714  -20.7538  -17.2417 N   0  0  0  0  0  0  0  0  0  0  0  0
   27.6080  -21.6311  -16.1450 C   0  0  1  0  0  0  0  0  0  0  0  0
   28.8217  -22.4208  -15.6643 C   0  0  0  0  0  0  0  0  0  0  0  0
   29.4054  -23.2523  -16.7515 C   0  0  0  0  0  0  0  0  0  0  0  0
   28.5972  -24.4526  -17.1299 C   0  0  0  0  0  0  0  0  0  0  0  0
   29.2144  -25.3912  -18.1052 C   0  0  0  0  0  0  0  0  0  0  0  0
   30.3105  -26.1764  -17.6196 N   0  0  0  0  0  0  0  0  0  0  0  0
   26.9633  -20.8825  -15.0365 C   0  0  0  0  0  0  0  0  0  0  0  0
   27.5472  -19.8532  -14.6551 O   0  0  0  0  0  0  0  0  0  0  0  0
   22.5485  -19.5456  -16.0205 C   0  0  0  0  0  0  0  0  0  0  0  0
   23.4895  -19.2082  -14.8939 C   0  0  0  0  0  0  0  0  0  0  0  0
   23.6603  -20.2287  -13.8519 C   0  0  2  0  0  0  0  0  0  0  0  0
   22.8711  -19.7819  -12.6188 C   0  0  0  0  0  0  0  0  0  0  0  0
   25.0131  -20.6041  -13.4062 C   0  0  2  0  0  0  0  0  0  0  0  0
   25.7665  -21.2879  -14.4354 N   0  0  0  0  0  0  0  0  0  0  0  0
   25.1329  -21.2015  -12.0538 C   0  0  0  0  0  0  0  0  0  0  0  0
   24.7762  -22.3461  -11.7214 O   0  0  0  0  0  0  0  0  0  0  0  0
   25.7146  -20.4070  -11.0249 N   0  0  0  0  0  0  0  0  0  0  0  0
   25.8150  -21.0331   -9.6883 C   0  0  1  0  0  0  0  0  0  0  0  0
   26.8966  -20.2052   -8.9978 C   0  0  0  0  0  0  0  0  0  0  0  0
   27.1112  -20.5004   -7.5908 C   0  0  0  0  0  0  0  0  0  0  0  0
   26.5789  -21.6254   -6.9563 C   0  0  0  0  0  0  0  0  0  0  0  0
   26.9216  -21.5991   -5.6413 N   0  0  0  0  0  0  0  0  0  0  0  0
   27.6533  -20.4991   -5.4146 C   0  0  0  0  0  0  0  0  0  0  0  0
   28.2555  -20.0076   -4.2677 C   0  0  0  0  0  0  0  0  0  0  0  0
   28.9962  -18.8325   -4.2645 C   0  0  0  0  0  0  0  0  0  0  0  0
   29.1197  -18.1505   -5.4656 C   0  0  0  0  0  0  0  0  0  0  0  0
   28.5177  -18.6511   -6.5851 C   0  0  0  0  0  0  0  0  0  0  0  0
   27.7725  -19.8224   -6.6068 C   0  0  0  0  0  0  0  0  0  0  0  0
   24.5432  -20.8416   -9.0100 C   0  0  0  0  0  0  0  0  0  0  0  0
   24.1513  -21.6664   -8.1577 O   0  0  0  0  0  0  0  0  0  0  0  0
   23.6924  -19.7496   -9.2501 O   0  0  0  0  0  0  0  0  0  0  0  0
  2  1  1  6
  2  3  1  0
  3  4  1  0
  5  4  1  0
  6  5  1  0
  7  6  1  0
  8  2  1  0
  9  8  2  0
 10 11  1  0
 11 12  1  0
 12 13  1  1
 12 14  1  0
 14 16  1  0
 14 15  1  6
 15  8  1  0
 16 17  2  0
 18 16  1  0
 18 19  1  0
 19 20  1  1
 20 21  1  0
 21 29  1  0
 22 21  2  0
 22 23  1  0
 23 24  1  0
 24 25  1  0
 25 26  2  0
 27 26  1  0
 28 27  2  0
 29 24  2  0
 29 28  1  0
 30 32  1  0
 30 19  1  0
 31 30  2  0
M  END
$$$$
