NDL.pdb
     RDKit          3D

 25 24  0  0  1  0  0  0  0  0999 V2000
    8.6418  -12.9354   17.0948 N   0  0  0  0  0  0  0  0  0  0  0  0
    7.4180  -13.5187   17.4947 C   0  0  0  0  0  0  0  0  0  0  0  0
    6.4627  -13.4738   16.6971 O   0  0  0  0  0  0  0  0  0  0  0  0
    7.2703  -14.1614   18.8129 C   0  0  0  0  0  0  0  0  0  0  0  0
    8.4839  -14.0237   19.6931 C   0  0  2  0  0  0  0  0  0  0  0  0
    9.7141  -14.4208   19.0557 N   0  0  0  0  0  0  0  0  0  0  0  0
    8.2818  -14.7635   20.9613 C   0  0  0  0  0  0  0  0  0  0  0  0
    7.2834  -14.4006   21.6723 O   0  0  0  0  0  0  0  0  0  0  0  0
    9.1307  -15.8199   21.3909 N   0  0  0  0  0  0  0  0  0  0  0  0
    8.8414  -16.4691   22.6271 C   0  0  1  0  0  0  0  0  0  0  0  0
    9.5295  -17.8049   22.7165 C   0  0  0  0  0  0  0  0  0  0  0  0
    9.0851  -18.6176   23.8729 C   0  0  0  0  0  0  0  0  0  0  0  0
    7.9282  -18.4250   24.3510 O   0  0  0  0  0  0  0  0  0  0  0  0
    9.1441  -15.6127   23.8121 C   0  0  0  0  0  0  0  0  0  0  0  0
    9.6860  -14.4925   23.6478 O   0  0  0  0  0  0  0  0  0  0  0  0
    9.8736  -19.5864   24.4664 O   0  0  0  0  0  0  0  0  0  0  0  0
    8.3721  -12.2720   26.6413 C   0  0  0  0  0  0  0  0  0  0  0  0
    7.5035  -13.1588   25.7381 C   0  0  2  0  0  0  0  0  0  0  0  0
    6.0955  -12.6164   25.8543 C   0  0  0  0  0  0  0  0  0  0  0  0
    7.5204  -14.5329   26.3365 C   0  0  0  0  0  0  0  0  0  0  0  0
    8.8731  -15.2095   26.2897 C   0  0  2  0  0  0  0  0  0  0  0  0
    8.8208  -16.0677   25.0941 N   0  0  0  0  0  0  0  0  0  0  0  0
    9.1722  -16.0027   27.4907 C   0  0  0  0  0  0  0  0  0  0  0  0
    9.5785  -15.4833   28.5499 O   0  0  0  0  0  0  0  0  0  0  0  0
    8.9967  -17.3757   27.4447 O   0  0  0  0  0  0  0  0  0  0  0  0
  1  2  1  0
  2  3  2  0
  4  2  1  0
  5  4  1  0
  5  6  1  6
  7  5  1  0
  7  8  2  0
  9  7  1  0
 10 14  1  0
 10  9  1  0
 10 11  1  1
 12 11  1  0
 12 16  1  0
 13 12  2  0
 14 22  1  0
 15 14  2  0
 18 19  1  1
 18 17  1  0
 20 18  1  0
 21 20  1  1
 22 21  1  0
 23 25  1  0
 23 21  1  0
 24 23  2  0
M  END
$$$$
