NDL.pdb
     RDKit          3D

 25 24  0  0  1  0  0  0  0  0999 V2000
    8.8213  -13.5113   16.9812 N   0  0  0  0  0  0  0  0  0  0  0  0
    7.5544  -13.6537   17.5915 C   0  0  0  0  0  0  0  0  0  0  0  0
    6.5752  -13.1251   17.0324 O   0  0  0  0  0  0  0  0  0  0  0  0
    7.3902  -14.4031   18.8501 C   0  0  0  0  0  0  0  0  0  0  0  0
    8.1847  -13.8398   19.9982 C   0  0  2  0  0  0  0  0  0  0  0  0
    9.4536  -13.2781   19.6085 N   0  0  0  0  0  0  0  0  0  0  0  0
    8.3618  -14.8685   21.0503 C   0  0  0  0  0  0  0  0  0  0  0  0
    7.2902  -15.3368   21.5663 O   0  0  0  0  0  0  0  0  0  0  0  0
    9.6352  -15.3292   21.4832 N   0  0  0  0  0  0  0  0  0  0  0  0
    9.6956  -16.2466   22.5731 C   0  0  1  0  0  0  0  0  0  0  0  0
   10.6046  -17.4053   22.2619 C   0  0  0  0  0  0  0  0  0  0  0  0
   10.7537  -18.3537   23.3904 C   0  0  0  0  0  0  0  0  0  0  0  0
    9.7151  -18.7779   23.9780 O   0  0  0  0  0  0  0  0  0  0  0  0
   10.0640  -15.5874   23.8611 C   0  0  0  0  0  0  0  0  0  0  0  0
   11.2509  -15.2305   24.0599 O   0  0  0  0  0  0  0  0  0  0  0  0
   11.9795  -18.8063   23.8433 O   0  0  0  0  0  0  0  0  0  0  0  0
    7.2373  -12.1744   24.9294 C   0  0  0  0  0  0  0  0  0  0  0  0
    7.3383  -13.5394   25.6247 C   0  0  2  0  0  0  0  0  0  0  0  0
    6.2624  -13.5434   26.6891 C   0  0  0  0  0  0  0  0  0  0  0  0
    8.6693  -13.5765   26.3128 C   0  0  0  0  0  0  0  0  0  0  0  0
    9.3875  -14.9033   26.1954 C   0  0  2  0  0  0  0  0  0  0  0  0
    9.0825  -15.3745   24.8339 N   0  0  0  0  0  0  0  0  0  0  0  0
    8.9614  -15.8898   27.1985 C   0  0  0  0  0  0  0  0  0  0  0  0
    9.1352  -15.7161   28.4218 O   0  0  0  0  0  0  0  0  0  0  0  0
    8.3449  -17.0537   26.7702 O   0  0  0  0  0  0  0  0  0  0  0  0
  1  2  1  0
  2  3  2  0
  4  2  1  0
  5  4  1  0
  5  6  1  6
  7  5  1  0
  7  8  2  0
  9  7  1  0
 10 14  1  0
 10  9  1  0
 10 11  1  6
 12 11  1  0
 12 16  1  0
 13 12  2  0
 14 22  1  0
 15 14  2  0
 18 19  1  1
 18 17  1  0
 20 18  1  0
 21 20  1  1
 22 21  1  0
 23 25  1  0
 23 21  1  0
 24 23  2  0
M  END
$$$$
