NDL.pdb
     RDKit          3D

 25 24  0  0  1  0  0  0  0  0999 V2000
    8.6147  -12.6906   17.5220 N   0  0  0  0  0  0  0  0  0  0  0  0
    7.4872  -13.4816   17.8395 C   0  0  0  0  0  0  0  0  0  0  0  0
    6.5680  -13.5492   17.0020 O   0  0  0  0  0  0  0  0  0  0  0  0
    7.3957  -14.2063   19.1197 C   0  0  0  0  0  0  0  0  0  0  0  0
    8.5746  -13.9807   20.0287 C   0  0  2  0  0  0  0  0  0  0  0  0
    9.8495  -14.2118   19.3975 N   0  0  0  0  0  0  0  0  0  0  0  0
    8.4361  -14.7981   21.2572 C   0  0  0  0  0  0  0  0  0  0  0  0
    7.3850  -14.5927   21.9551 O   0  0  0  0  0  0  0  0  0  0  0  0
    9.3981  -15.7627   21.6639 N   0  0  0  0  0  0  0  0  0  0  0  0
    9.1704  -16.4882   22.8701 C   0  0  1  0  0  0  0  0  0  0  0  0
    9.8793  -17.8159   22.8509 C   0  0  0  0  0  0  0  0  0  0  0  0
   11.2811  -17.7258   22.3795 C   0  0  0  0  0  0  0  0  0  0  0  0
   12.2130  -18.1129   23.1449 O   0  0  0  0  0  0  0  0  0  0  0  0
    9.5121  -15.6986   24.0904 C   0  0  0  0  0  0  0  0  0  0  0  0
   10.5453  -14.9860   24.1011 O   0  0  0  0  0  0  0  0  0  0  0  0
   11.6322  -17.2360   21.1348 O   0  0  0  0  0  0  0  0  0  0  0  0
    8.4907  -12.0768   26.0321 C   0  0  0  0  0  0  0  0  0  0  0  0
    7.4629  -13.1912   25.7900 C   0  0  2  0  0  0  0  0  0  0  0  0
    6.1140  -12.5910   26.1228 C   0  0  0  0  0  0  0  0  0  0  0  0
    7.7493  -14.2684   26.7919 C   0  0  0  0  0  0  0  0  0  0  0  0
    8.9845  -15.0861   26.4823 C   0  0  2  0  0  0  0  0  0  0  0  0
    8.6770  -15.7611   25.2101 N   0  0  0  0  0  0  0  0  0  0  0  0
    9.3150  -16.0651   27.5278 C   0  0  0  0  0  0  0  0  0  0  0  0
    9.7765  -15.7276   28.6369 O   0  0  0  0  0  0  0  0  0  0  0  0
    9.1067  -17.4103   27.2726 O   0  0  0  0  0  0  0  0  0  0  0  0
  1  2  1  0
  2  3  2  0
  4  2  1  0
  5  4  1  0
  5  6  1  6
  7  5  1  0
  7  8  2  0
  9  7  1  0
 10 14  1  0
 10  9  1  0
 10 11  1  6
 12 11  1  0
 12 16  1  0
 13 12  2  0
 14 22  1  0
 15 14  2  0
 18 19  1  1
 18 17  1  0
 20 18  1  0
 21 20  1  1
 22 21  1  0
 23 25  1  0
 23 21  1  0
 24 23  2  0
M  END
$$$$
