NDL.pdb
     RDKit          3D

 25 24  0  0  1  0  0  0  0  0999 V2000
    8.6841  -12.8970   17.2326 N   0  0  0  0  0  0  0  0  0  0  0  0
    7.5774  -13.7042   17.5813 C   0  0  0  0  0  0  0  0  0  0  0  0
    6.6925  -13.8823   16.7234 O   0  0  0  0  0  0  0  0  0  0  0  0
    7.4678  -14.3188   18.9164 C   0  0  0  0  0  0  0  0  0  0  0  0
    8.5463  -13.8849   19.8731 C   0  0  2  0  0  0  0  0  0  0  0  0
    9.8673  -13.8754   19.2966 N   0  0  0  0  0  0  0  0  0  0  0  0
    8.5091  -14.7190   21.0975 C   0  0  0  0  0  0  0  0  0  0  0  0
    7.4391  -14.6505   21.7936 O   0  0  0  0  0  0  0  0  0  0  0  0
    9.5837  -15.5572   21.5024 N   0  0  0  0  0  0  0  0  0  0  0  0
    9.4142  -16.3752   22.6580 C   0  0  1  0  0  0  0  0  0  0  0  0
   10.2885  -17.5988   22.5940 C   0  0  0  0  0  0  0  0  0  0  0  0
    9.9865  -18.4759   21.4386 C   0  0  0  0  0  0  0  0  0  0  0  0
    8.8630  -19.0582   21.3862 O   0  0  0  0  0  0  0  0  0  0  0  0
    9.6134  -15.6215   23.9314 C   0  0  0  0  0  0  0  0  0  0  0  0
   10.6582  -14.9459   24.0974 O   0  0  0  0  0  0  0  0  0  0  0  0
   10.8748  -18.6967   20.4019 O   0  0  0  0  0  0  0  0  0  0  0  0
    8.5829  -12.1377   26.4255 C   0  0  0  0  0  0  0  0  0  0  0  0
    7.4780  -13.0294   25.8416 C   0  0  2  0  0  0  0  0  0  0  0  0
    6.1693  -12.3709   26.2213 C   0  0  0  0  0  0  0  0  0  0  0  0
    7.5593  -14.3433   26.5583 C   0  0  0  0  0  0  0  0  0  0  0  0
    8.8264  -15.1215   26.2778 C   0  0  2  0  0  0  0  0  0  0  0  0
    8.6334  -15.6761   24.9273 N   0  0  0  0  0  0  0  0  0  0  0  0
    9.0828  -16.1924   27.2517 C   0  0  0  0  0  0  0  0  0  0  0  0
    9.4715  -15.9589   28.4141 O   0  0  0  0  0  0  0  0  0  0  0  0
    8.8858  -17.5076   26.8650 O   0  0  0  0  0  0  0  0  0  0  0  0
  1  2  1  0
  2  3  2  0
  4  2  1  0
  5  4  1  0
  5  6  1  6
  7  5  1  0
  7  8  2  0
  9  7  1  0
 10 14  1  0
 10  9  1  0
 10 11  1  6
 12 11  1  0
 12 16  1  0
 13 12  2  0
 14 22  1  0
 15 14  2  0
 18 19  1  1
 18 17  1  0
 20 18  1  0
 21 20  1  1
 22 21  1  0
 23 25  1  0
 23 21  1  0
 24 23  2  0
M  END
$$$$
