VAA.pdb
     RDKit          3D

 18 17  0  0  1  0  0  0  0  0999 V2000
   21.9221   -8.2163  -13.4223 C   0  0  0  0  0  0  0  0  0  0  0  0
   22.7682   -9.0337  -14.3386 C   0  0  1  0  0  0  0  0  0  0  0  0
   23.2390  -10.3230  -13.7014 C   0  0  0  0  0  0  0  0  0  0  0  0
   21.9941   -9.3767  -15.5936 C   0  0  2  0  0  0  0  0  0  0  0  0
   22.9606  -10.1103  -16.4446 N   0  0  0  0  0  0  0  0  0  0  0  0
   21.6259   -8.1326  -16.2880 C   0  0  0  0  0  0  0  0  0  0  0  0
   22.5633   -7.4895  -16.8819 O   0  0  0  0  0  0  0  0  0  0  0  0
   18.5796   -6.2808  -17.3114 C   0  0  0  0  0  0  0  0  0  0  0  0
   20.0976   -6.3899  -17.1040 C   0  0  2  0  0  0  0  0  0  0  0  0
   20.3175   -7.5930  -16.3521 N   0  0  0  0  0  0  0  0  0  0  0  0
   20.5546   -5.1783  -16.3887 C   0  0  0  0  0  0  0  0  0  0  0  0
   20.5725   -5.0732  -15.1311 O   0  0  0  0  0  0  0  0  0  0  0  0
   22.1558   -1.9308  -17.5119 C   0  0  0  0  0  0  0  0  0  0  0  0
   21.5037   -2.8480  -16.5039 C   0  0  2  0  0  0  0  0  0  0  0  0
   21.0009   -4.0626  -17.1408 N   0  0  0  0  0  0  0  0  0  0  0  0
   20.3585   -2.1969  -15.8224 C   0  0  0  0  0  0  0  0  0  0  0  0
   19.0535   -2.3051  -16.2862 O   0  0  0  0  0  0  0  0  0  0  0  0
   20.5354   -1.5214  -14.7955 O   0  0  0  0  0  0  0  0  0  0  0  0
  2  1  1  1
  2  4  1  0
  3  2  1  0
  4  5  1  6
  4  6  1  0
  6 10  1  0
  6  7  2  0
  9  8  1  1
 10  9  1  0
 11  9  1  0
 11 12  2  0
 14 13  1  6
 14 15  1  0
 15 11  1  0
 16 14  1  0
 17 16  1  0
 18 16  2  0
M  END
$$$$
