VAA.pdb
     RDKit          3D

 18 17  0  0  1  0  0  0  0  0999 V2000
   26.5965  -10.2901  -15.3214 C   0  0  0  0  0  0  0  0  0  0  0  0
   26.8371  -11.0211  -16.5987 C   0  0  1  0  0  0  0  0  0  0  0  0
   27.7801  -12.1926  -16.4306 C   0  0  0  0  0  0  0  0  0  0  0  0
   25.5281  -11.5385  -17.1562 C   0  0  2  0  0  0  0  0  0  0  0  0
   25.8761  -12.0893  -18.4873 N   0  0  0  0  0  0  0  0  0  0  0  0
   24.6084  -10.4072  -17.3558 C   0  0  0  0  0  0  0  0  0  0  0  0
   24.9912   -9.4676  -18.1404 O   0  0  0  0  0  0  0  0  0  0  0  0
   21.0913   -9.4969  -16.8975 C   0  0  0  0  0  0  0  0  0  0  0  0
   22.5686   -9.0868  -16.9889 C   0  0  2  0  0  0  0  0  0  0  0  0
   23.3342  -10.2776  -16.7500 N   0  0  0  0  0  0  0  0  0  0  0  0
   22.8195   -8.0349  -15.9794 C   0  0  0  0  0  0  0  0  0  0  0  0
   23.0385   -8.2738  -14.7596 O   0  0  0  0  0  0  0  0  0  0  0  0
   23.4948   -4.3256  -16.2158 C   0  0  0  0  0  0  0  0  0  0  0  0
   23.1483   -5.5909  -15.4666 C   0  0  2  0  0  0  0  0  0  0  0  0
   22.8178   -6.6769  -16.3860 N   0  0  0  0  0  0  0  0  0  0  0  0
   21.9846   -5.4007  -14.5669 C   0  0  0  0  0  0  0  0  0  0  0  0
   22.1060   -4.8612  -13.2925 O   0  0  0  0  0  0  0  0  0  0  0  0
   20.8432   -5.7246  -14.9334 O   0  0  0  0  0  0  0  0  0  0  0  0
  2  1  1  1
  2  4  1  0
  3  2  1  0
  4  5  1  6
  4  6  1  0
  6 10  1  0
  6  7  2  0
  9  8  1  1
 10  9  1  0
 11  9  1  0
 11 12  2  0
 14 13  1  6
 14 15  1  0
 15 11  1  0
 16 14  1  0
 17 16  1  0
 18 16  2  0
M  END
$$$$
