VAA.pdb
     RDKit          3D

 18 17  0  0  1  0  0  0  0  0999 V2000
   12.7772  -10.3766  -11.2758 C   0  0  0  0  0  0  0  0  0  0  0  0
   12.8940  -11.6021  -10.4343 C   0  0  1  0  0  0  0  0  0  0  0  0
   11.6829  -11.8218   -9.5541 C   0  0  0  0  0  0  0  0  0  0  0  0
   13.0723  -12.8215  -11.3137 C   0  0  2  0  0  0  0  0  0  0  0  0
   13.4997  -13.8961  -10.3868 N   0  0  0  0  0  0  0  0  0  0  0  0
   14.1685  -12.5746  -12.2638 C   0  0  0  0  0  0  0  0  0  0  0  0
   15.3675  -12.6718  -11.8188 O   0  0  0  0  0  0  0  0  0  0  0  0
   14.6636  -12.1360  -15.9134 C   0  0  0  0  0  0  0  0  0  0  0  0
   15.1643  -12.1090  -14.4616 C   0  0  2  0  0  0  0  0  0  0  0  0
   14.0011  -12.2401  -13.6304 N   0  0  0  0  0  0  0  0  0  0  0  0
   15.8808  -10.8333  -14.2436 C   0  0  0  0  0  0  0  0  0  0  0  0
   15.3235   -9.7800  -13.8278 O   0  0  0  0  0  0  0  0  0  0  0  0
   19.5231   -9.7980  -14.5093 C   0  0  0  0  0  0  0  0  0  0  0  0
   18.0460   -9.5481  -14.3141 C   0  0  2  0  0  0  0  0  0  0  0  0
   17.2715  -10.7710  -14.5112 N   0  0  0  0  0  0  0  0  0  0  0  0
   17.5256   -8.5347  -15.2638 C   0  0  0  0  0  0  0  0  0  0  0  0
   16.9959   -8.8741  -16.5024 O   0  0  0  0  0  0  0  0  0  0  0  0
   17.5482   -7.3273  -14.9744 O   0  0  0  0  0  0  0  0  0  0  0  0
  2  1  1  6
  2  4  1  0
  3  2  1  0
  4  5  1  1
  4  6  1  0
  6 10  1  0
  6  7  2  0
  9  8  1  6
 10  9  1  0
 11  9  1  0
 11 12  2  0
 14 13  1  6
 14 15  1  0
 15 11  1  0
 16 14  1  0
 17 16  1  0
 18 16  2  0
M  END
$$$$
