VAA.pdb
     RDKit          3D

 18 17  0  0  1  0  0  0  0  0999 V2000
   13.7060   -7.9501   -8.1394 C   0  0  0  0  0  0  0  0  0  0  0  0
   14.3674   -8.0910   -9.4685 C   0  0  1  0  0  0  0  0  0  0  0  0
   13.8281   -7.1171  -10.4934 C   0  0  0  0  0  0  0  0  0  0  0  0
   15.8583   -7.8650   -9.3337 C   0  0  2  0  0  0  0  0  0  0  0  0
   15.9828   -6.5152   -8.7346 N   0  0  0  0  0  0  0  0  0  0  0  0
   16.4634   -7.8275  -10.6746 C   0  0  0  0  0  0  0  0  0  0  0  0
   16.5600   -8.9381  -11.3090 O   0  0  0  0  0  0  0  0  0  0  0  0
   17.0329   -5.7508  -13.5148 C   0  0  0  0  0  0  0  0  0  0  0  0
   17.6434   -6.7923  -12.5652 C   0  0  2  0  0  0  0  0  0  0  0  0
   16.9448   -6.6606  -11.3179 N   0  0  0  0  0  0  0  0  0  0  0  0
   19.0907   -6.5123  -12.4412 C   0  0  0  0  0  0  0  0  0  0  0  0
   19.5742   -5.6732  -11.6318 O   0  0  0  0  0  0  0  0  0  0  0  0
   22.1946   -8.0043  -14.0325 C   0  0  0  0  0  0  0  0  0  0  0  0
   21.4419   -6.9828  -13.2126 C   0  0  2  0  0  0  0  0  0  0  0  0
   20.0009   -7.2161  -13.2692 N   0  0  0  0  0  0  0  0  0  0  0  0
   21.6872   -5.6001  -13.6897 C   0  0  0  0  0  0  0  0  0  0  0  0
   22.7138   -4.8086  -13.1902 O   0  0  0  0  0  0  0  0  0  0  0  0
   20.9674   -5.0979  -14.5683 O   0  0  0  0  0  0  0  0  0  0  0  0
  2  1  1  1
  2  4  1  0
  3  2  1  0
  4  5  1  6
  4  6  1  0
  6 10  1  0
  6  7  2  0
  9  8  1  6
 10  9  1  0
 11  9  1  0
 11 12  2  0
 14 13  1  6
 14 15  1  0
 15 11  1  0
 16 14  1  0
 17 16  1  0
 18 16  2  0
M  END
$$$$
