VAA.pdb
     RDKit          3D

 18 17  0  0  1  0  0  0  0  0999 V2000
   14.9772  -12.7836  -10.9033 C   0  0  0  0  0  0  0  0  0  0  0  0
   15.3771  -11.8585  -12.0024 C   0  0  1  0  0  0  0  0  0  0  0  0
   16.8427  -11.9774  -12.3595 C   0  0  0  0  0  0  0  0  0  0  0  0
   14.5589  -12.1423  -13.2442 C   0  0  2  0  0  0  0  0  0  0  0  0
   14.8845  -13.5440  -13.5986 N   0  0  0  0  0  0  0  0  0  0  0  0
   15.0248  -11.2743  -14.3374 C   0  0  0  0  0  0  0  0  0  0  0  0
   15.9972  -11.7020  -15.0561 O   0  0  0  0  0  0  0  0  0  0  0  0
   14.0195   -8.2266  -16.1685 C   0  0  0  0  0  0  0  0  0  0  0  0
   15.0816   -9.2376  -15.7113 C   0  0  2  0  0  0  0  0  0  0  0  0
   14.4814  -10.0055  -14.6571 N   0  0  0  0  0  0  0  0  0  0  0  0
   16.2731   -8.4848  -15.2618 C   0  0  0  0  0  0  0  0  0  0  0  0
   16.5155   -8.2154  -14.0528 O   0  0  0  0  0  0  0  0  0  0  0  0
   19.3696   -7.1913  -17.0205 C   0  0  0  0  0  0  0  0  0  0  0  0
   18.4088   -7.2904  -15.8589 C   0  0  2  0  0  0  0  0  0  0  0  0
   17.2059   -8.0323  -16.2285 N   0  0  0  0  0  0  0  0  0  0  0  0
   17.9775   -5.9541  -15.3815 C   0  0  0  0  0  0  0  0  0  0  0  0
   18.7199   -5.2097  -14.4735 O   0  0  0  0  0  0  0  0  0  0  0  0
   16.9177   -5.4499  -15.7876 O   0  0  0  0  0  0  0  0  0  0  0  0
  2  1  1  1
  2  4  1  0
  3  2  1  0
  4  5  1  6
  4  6  1  0
  6 10  1  0
  6  7  2  0
  9  8  1  1
 10  9  1  0
 11  9  1  0
 11 12  2  0
 14 13  1  6
 14 15  1  0
 15 11  1  0
 16 14  1  0
 17 16  1  0
 18 16  2  0
M  END
$$$$
