VAA.pdb
     RDKit          3D

 18 17  0  0  1  0  0  0  0  0999 V2000
   17.0711  -14.0454  -16.0075 C   0  0  0  0  0  0  0  0  0  0  0  0
   17.6397  -12.8009  -16.6007 C   0  0  1  0  0  0  0  0  0  0  0  0
   16.6034  -11.9812  -17.3383 C   0  0  0  0  0  0  0  0  0  0  0  0
   18.2464  -11.9377  -15.5149 C   0  0  2  0  0  0  0  0  0  0  0  0
   17.1154  -11.6148  -14.6134 N   0  0  0  0  0  0  0  0  0  0  0  0
   18.7290  -10.6818  -16.1109 C   0  0  0  0  0  0  0  0  0  0  0  0
   19.7413  -10.7523  -16.8954 O   0  0  0  0  0  0  0  0  0  0  0  0
   17.8130   -7.1236  -16.4722 C   0  0  0  0  0  0  0  0  0  0  0  0
   18.8612   -8.2399  -16.3523 C   0  0  2  0  0  0  0  0  0  0  0  0
   18.1610   -9.4034  -15.8863 N   0  0  0  0  0  0  0  0  0  0  0  0
   19.9100   -7.7898  -15.4112 C   0  0  0  0  0  0  0  0  0  0  0  0
   19.8851   -8.0246  -14.1713 O   0  0  0  0  0  0  0  0  0  0  0  0
   23.3313   -6.2533  -15.8854 C   0  0  0  0  0  0  0  0  0  0  0  0
   22.1317   -6.6561  -15.0602 C   0  0  2  0  0  0  0  0  0  0  0  0
   21.0125   -7.0523  -15.9113 N   0  0  0  0  0  0  0  0  0  0  0  0
   21.6599   -5.5497  -14.1923 C   0  0  0  0  0  0  0  0  0  0  0  0
   22.2270   -5.2783  -12.9535 O   0  0  0  0  0  0  0  0  0  0  0  0
   20.7244   -4.8177  -14.5543 O   0  0  0  0  0  0  0  0  0  0  0  0
  2  1  1  1
  2  4  1  0
  3  2  1  0
  4  5  1  1
  4  6  1  0
  6 10  1  0
  6  7  2  0
  9  8  1  1
 10  9  1  0
 11  9  1  0
 11 12  2  0
 14 13  1  6
 14 15  1  0
 15 11  1  0
 16 14  1  0
 17 16  1  0
 18 16  2  0
M  END
$$$$
