VAA.pdb
     RDKit          3D

 18 17  0  0  1  0  0  0  0  0999 V2000
   26.8513  -17.4916  -14.5804 C   0  0  0  0  0  0  0  0  0  0  0  0
   27.2006  -18.4045  -15.7066 C   0  0  1  0  0  0  0  0  0  0  0  0
   28.3010  -17.8507  -16.5854 C   0  0  0  0  0  0  0  0  0  0  0  0
   27.6500  -19.7462  -15.1680 C   0  0  2  0  0  0  0  0  0  0  0  0
   27.8612  -20.5846  -16.3717 N   0  0  0  0  0  0  0  0  0  0  0  0
   26.5568  -20.3410  -14.3826 C   0  0  0  0  0  0  0  0  0  0  0  0
   25.5132  -20.7252  -15.0216 O   0  0  0  0  0  0  0  0  0  0  0  0
   25.7748  -21.2354  -10.8510 C   0  0  0  0  0  0  0  0  0  0  0  0
   25.4328  -21.1296  -12.3446 C   0  0  2  0  0  0  0  0  0  0  0  0
   26.5697  -20.5231  -12.9776 N   0  0  0  0  0  0  0  0  0  0  0  0
   24.2034  -20.3183  -12.4809 C   0  0  0  0  0  0  0  0  0  0  0  0
   24.1743  -19.0638  -12.3455 O   0  0  0  0  0  0  0  0  0  0  0  0
   21.8522  -19.3378  -14.2242 C   0  0  0  0  0  0  0  0  0  0  0  0
   21.7420  -20.2269  -13.0077 C   0  0  2  0  0  0  0  0  0  0  0  0
   22.9797  -20.9685  -12.7800 N   0  0  0  0  0  0  0  0  0  0  0  0
   20.6482  -21.2192  -13.1444 C   0  0  0  0  0  0  0  0  0  0  0  0
   19.3103  -20.8516  -13.2129 O   0  0  0  0  0  0  0  0  0  0  0  0
   20.9007  -22.4337  -13.2029 O   0  0  0  0  0  0  0  0  0  0  0  0
  2  1  1  1
  2  4  1  0
  3  2  1  0
  4  5  1  6
  4  6  1  0
  6 10  1  0
  6  7  2  0
  9  8  1  1
 10  9  1  0
 11  9  1  0
 11 12  2  0
 14 13  1  6
 14 15  1  0
 15 11  1  0
 16 14  1  0
 17 16  1  0
 18 16  2  0
M  END
$$$$
