PWK.pdb
     RDKit          3D

 31 33  0  0  1  0  0  0  0  0999 V2000
   28.0994  -20.2229  -15.4615 N   0  0  0  0  0  0  0  0  0  0  0  0
   29.2008  -20.2936  -16.4328 C   0  0  0  0  0  0  0  0  0  0  0  0
   29.8497  -21.6448  -16.1903 C   0  0  0  0  0  0  0  0  0  0  0  0
   28.9596  -22.3223  -15.1410 C   0  0  0  0  0  0  0  0  0  0  0  0
   27.6574  -21.5820  -15.3291 C   0  0  1  0  0  0  0  0  0  0  0  0
   26.7294  -21.7478  -14.2073 C   0  0  0  0  0  0  0  0  0  0  0  0
   26.1603  -22.8377  -14.0277 O   0  0  0  0  0  0  0  0  0  0  0  0
   26.4881  -20.6640  -13.3351 N   0  0  0  0  0  0  0  0  0  0  0  0
   25.6096  -20.8090  -12.2141 C   0  0  1  0  0  0  0  0  0  0  0  0
   26.0595  -19.9637  -11.0712 C   0  0  0  0  0  0  0  0  0  0  0  0
   27.2768  -20.5039  -10.4179 C   0  0  0  0  0  0  0  0  0  0  0  0
   28.3051  -21.2010  -11.0338 C   0  0  0  0  0  0  0  0  0  0  0  0
   29.2435  -21.5291  -10.1161 N   0  0  0  0  0  0  0  0  0  0  0  0
   28.8500  -21.0624   -8.9202 C   0  0  0  0  0  0  0  0  0  0  0  0
   29.4734  -21.1515   -7.6920 C   0  0  0  0  0  0  0  0  0  0  0  0
   28.8631  -20.5843   -6.5888 C   0  0  0  0  0  0  0  0  0  0  0  0
   27.6456  -19.9432   -6.7437 C   0  0  0  0  0  0  0  0  0  0  0  0
   27.0424  -19.8670   -7.9800 C   0  0  0  0  0  0  0  0  0  0  0  0
   27.6434  -20.4284   -9.0803 C   0  0  0  0  0  0  0  0  0  0  0  0
   24.1786  -20.5715  -12.5427 C   0  0  0  0  0  0  0  0  0  0  0  0
   23.8648  -19.5275  -13.1508 O   0  0  0  0  0  0  0  0  0  0  0  0
   23.2201  -21.5248  -12.1612 N   0  0  0  0  0  0  0  0  0  0  0  0
   21.8006  -21.2122  -12.5896 C   0  0  1  0  0  0  0  0  0  0  0  0
   21.3225  -22.4458  -13.2776 C   0  0  0  0  0  0  0  0  0  0  0  0
   20.4487  -22.4079  -14.4312 C   0  0  0  0  0  0  0  0  0  0  0  0
   20.6197  -21.4116  -15.5219 C   0  0  0  0  0  0  0  0  0  0  0  0
   19.5464  -21.6864  -16.6160 C   0  0  0  0  0  0  0  0  0  0  0  0
   19.5032  -20.5931  -17.5595 N   0  0  0  0  0  0  0  0  0  0  0  0
   21.1573  -20.9447  -11.2855 C   0  0  0  0  0  0  0  0  0  0  0  0
   21.5698  -21.3915  -10.0859 O   0  0  0  0  0  0  0  0  0  0  0  0
   20.0952  -20.2204  -11.2717 O   0  0  0  0  0  0  0  0  0  0  0  0
  1  2  1  0
  2  3  1  0
  4  3  1  0
  5  1  1  0
  5  4  1  0
  5  6  1  1
  7  6  2  0
  8  6  1  0
  9  8  1  0
  9 10  1  1
 10 11  1  0
 11 19  1  0
 12 11  2  0
 12 13  1  0
 13 14  1  0
 14 15  1  0
 15 16  2  0
 17 16  1  0
 18 17  2  0
 19 14  2  0
 19 18  1  0
 20  9  1  0
 21 20  2  0
 22 20  1  0
 23 22  1  0
 24 25  1  0
 23 24  1  1
 26 27  1  0
 26 25  1  0
 28 27  1  0
 29 23  1  0
 29 30  1  0
 31 29  2  0
M  END
$$$$
