PWK.pdb
     RDKit          3D

 31 33  0  0  1  0  0  0  0  0999 V2000
   27.6657  -19.0547  -14.5234 N   0  0  0  0  0  0  0  0  0  0  0  0
   28.7469  -18.6922  -15.4512 C   0  0  0  0  0  0  0  0  0  0  0  0
   29.6281  -19.9266  -15.5258 C   0  0  0  0  0  0  0  0  0  0  0  0
   28.8884  -20.9847  -14.6980 C   0  0  0  0  0  0  0  0  0  0  0  0
   27.4730  -20.4608  -14.7374 C   0  0  1  0  0  0  0  0  0  0  0  0
   26.6066  -21.0552  -13.7161 C   0  0  0  0  0  0  0  0  0  0  0  0
   26.2330  -22.2350  -13.8283 O   0  0  0  0  0  0  0  0  0  0  0  0
   26.2012  -20.2802  -12.6076 N   0  0  0  0  0  0  0  0  0  0  0  0
   25.2802  -20.8054  -11.6457 C   0  0  1  0  0  0  0  0  0  0  0  0
   25.5799  -20.2848  -10.2810 C   0  0  0  0  0  0  0  0  0  0  0  0
   26.9079  -20.7272   -9.7899 C   0  0  0  0  0  0  0  0  0  0  0  0
   27.8131  -21.5313  -10.4657 C   0  0  0  0  0  0  0  0  0  0  0  0
   28.9135  -21.7167   -9.7009 N   0  0  0  0  0  0  0  0  0  0  0  0
   28.7452  -21.0533   -8.5458 C   0  0  0  0  0  0  0  0  0  0  0  0
   29.5910  -20.9472   -7.4602 C   0  0  0  0  0  0  0  0  0  0  0  0
   29.1906  -20.1967   -6.3705 C   0  0  0  0  0  0  0  0  0  0  0  0
   27.9548  -19.5725   -6.3957 C   0  0  0  0  0  0  0  0  0  0  0  0
   27.1275  -19.6929   -7.4908 C   0  0  0  0  0  0  0  0  0  0  0  0
   27.5193  -20.4370   -8.5770 C   0  0  0  0  0  0  0  0  0  0  0  0
   23.8534  -20.5990  -12.0109 C   0  0  0  0  0  0  0  0  0  0  0  0
   23.4667  -19.4493  -12.3060 O   0  0  0  0  0  0  0  0  0  0  0  0
   22.9802  -21.6994  -12.0142 N   0  0  0  0  0  0  0  0  0  0  0  0
   21.5951  -21.4158  -12.5593 C   0  0  1  0  0  0  0  0  0  0  0  0
   21.0562  -22.7472  -12.9605 C   0  0  0  0  0  0  0  0  0  0  0  0
   19.7083  -22.9267  -13.4572 C   0  0  0  0  0  0  0  0  0  0  0  0
   19.4150  -23.1087  -14.9036 C   0  0  0  0  0  0  0  0  0  0  0  0
   17.8718  -23.2054  -15.0873 C   0  0  0  0  0  0  0  0  0  0  0  0
   17.5393  -23.2791  -16.4914 N   0  0  0  0  0  0  0  0  0  0  0  0
   20.9376  -20.8144  -11.3795 C   0  0  0  0  0  0  0  0  0  0  0  0
   19.9246  -19.9298  -11.3954 O   0  0  0  0  0  0  0  0  0  0  0  0
   21.3613  -21.1507  -10.2133 O   0  0  0  0  0  0  0  0  0  0  0  0
  1  2  1  0
  2  3  1  0
  4  3  1  0
  5  1  1  0
  5  4  1  0
  5  6  1  1
  7  6  2  0
  8  6  1  0
  9  8  1  0
  9 10  1  1
 10 11  1  0
 11 19  1  0
 12 11  2  0
 12 13  1  0
 13 14  1  0
 14 15  1  0
 15 16  2  0
 17 16  1  0
 18 17  2  0
 19 14  2  0
 19 18  1  0
 20  9  1  0
 21 20  2  0
 22 20  1  0
 23 22  1  0
 24 25  1  0
 23 24  1  1
 26 27  1  0
 26 25  1  0
 28 27  1  0
 29 23  1  0
 29 30  1  0
 31 29  2  0
M  END
$$$$
