PWK.pdb
     RDKit          3D

 31 33  0  0  1  0  0  0  0  0999 V2000
   27.7316  -18.6915  -13.7203 N   0  0  0  0  0  0  0  0  0  0  0  0
   28.6433  -17.9349  -14.5908 C   0  0  0  0  0  0  0  0  0  0  0  0
   29.8593  -18.8294  -14.7548 C   0  0  0  0  0  0  0  0  0  0  0  0
   29.4847  -20.1324  -14.0377 C   0  0  0  0  0  0  0  0  0  0  0  0
   27.9767  -20.0643  -14.0601 C   0  0  1  0  0  0  0  0  0  0  0  0
   27.3411  -20.9835  -13.1125 C   0  0  0  0  0  0  0  0  0  0  0  0
   26.9664  -22.1059  -13.4919 O   0  0  0  0  0  0  0  0  0  0  0  0
   27.1587  -20.5860  -11.7700 N   0  0  0  0  0  0  0  0  0  0  0  0
   26.2836  -21.3160  -10.9035 C   0  0  1  0  0  0  0  0  0  0  0  0
   26.9888  -21.7254   -9.6552 C   0  0  0  0  0  0  0  0  0  0  0  0
   27.0201  -20.6392   -8.6455 C   0  0  0  0  0  0  0  0  0  0  0  0
   26.3841  -19.4102   -8.7337 C   0  0  0  0  0  0  0  0  0  0  0  0
   26.6417  -18.6857   -7.6206 N   0  0  0  0  0  0  0  0  0  0  0  0
   27.4289  -19.4134   -6.8123 C   0  0  0  0  0  0  0  0  0  0  0  0
   27.9502  -19.0981   -5.5738 C   0  0  0  0  0  0  0  0  0  0  0  0
   28.7455  -20.0253   -4.9265 C   0  0  0  0  0  0  0  0  0  0  0  0
   28.9980  -21.2430   -5.5353 C   0  0  0  0  0  0  0  0  0  0  0  0
   28.4664  -21.5353   -6.7723 C   0  0  0  0  0  0  0  0  0  0  0  0
   27.6753  -20.6186   -7.4210 C   0  0  0  0  0  0  0  0  0  0  0  0
   25.0097  -20.6078  -10.6074 C   0  0  0  0  0  0  0  0  0  0  0  0
   25.0558  -19.4277  -10.2030 O   0  0  0  0  0  0  0  0  0  0  0  0
   23.7915  -21.2829  -10.7894 N   0  0  0  0  0  0  0  0  0  0  0  0
   22.6953  -20.4620  -11.4379 C   0  0  1  0  0  0  0  0  0  0  0  0
   22.5331  -21.0409  -12.8027 C   0  0  0  0  0  0  0  0  0  0  0  0
   21.8195  -20.3579  -13.8610 C   0  0  0  0  0  0  0  0  0  0  0  0
   22.3231  -19.0989  -14.4714 C   0  0  0  0  0  0  0  0  0  0  0  0
   21.2499  -18.5677  -15.4668 C   0  0  0  0  0  0  0  0  0  0  0  0
   21.5935  -17.2355  -15.9079 N   0  0  0  0  0  0  0  0  0  0  0  0
   21.5631  -20.7161  -10.5217 C   0  0  0  0  0  0  0  0  0  0  0  0
   20.5139  -19.9029  -10.3055 O   0  0  0  0  0  0  0  0  0  0  0  0
   21.5613  -21.8130   -9.8512 O   0  0  0  0  0  0  0  0  0  0  0  0
  1  2  1  0
  2  3  1  0
  4  3  1  0
  5  1  1  0
  5  4  1  0
  5  6  1  1
  7  6  2  0
  8  6  1  0
  9  8  1  0
  9 10  1  1
 10 11  1  0
 11 19  1  0
 12 11  2  0
 12 13  1  0
 13 14  1  0
 14 15  1  0
 15 16  2  0
 17 16  1  0
 18 17  2  0
 19 14  2  0
 19 18  1  0
 20  9  1  0
 21 20  2  0
 22 20  1  0
 23 22  1  0
 24 25  1  0
 23 24  1  6
 26 27  1  0
 26 25  1  0
 28 27  1  0
 29 23  1  0
 29 30  1  0
 31 29  2  0
M  END
$$$$
