PWK.pdb
     RDKit          3D

 31 33  0  0  1  0  0  0  0  0999 V2000
   27.5825  -19.8969  -15.0140 N   0  0  0  0  0  0  0  0  0  0  0  0
   28.2854  -19.9681  -16.3032 C   0  0  0  0  0  0  0  0  0  0  0  0
   28.9276  -21.3439  -16.3228 C   0  0  0  0  0  0  0  0  0  0  0  0
   28.4222  -22.0286  -15.0469 C   0  0  0  0  0  0  0  0  0  0  0  0
   27.1617  -21.2465  -14.7660 C   0  0  1  0  0  0  0  0  0  0  0  0
   26.6641  -21.4212  -13.3990 C   0  0  0  0  0  0  0  0  0  0  0  0
   25.6850  -22.1554  -13.1832 O   0  0  0  0  0  0  0  0  0  0  0  0
   27.3033  -20.7519  -12.3327 N   0  0  0  0  0  0  0  0  0  0  0  0
   26.7716  -20.8161  -11.0051 C   0  0  1  0  0  0  0  0  0  0  0  0
   27.8192  -20.4923   -9.9948 C   0  0  0  0  0  0  0  0  0  0  0  0
   27.3074  -20.5838   -8.6055 C   0  0  0  0  0  0  0  0  0  0  0  0
   26.0773  -21.0864   -8.2093 C   0  0  0  0  0  0  0  0  0  0  0  0
   25.9679  -21.0079   -6.8631 N   0  0  0  0  0  0  0  0  0  0  0  0
   27.0960  -20.4669   -6.3757 C   0  0  0  0  0  0  0  0  0  0  0  0
   27.4469  -20.1902   -5.0699 C   0  0  0  0  0  0  0  0  0  0  0  0
   28.6818  -19.6240   -4.8141 C   0  0  0  0  0  0  0  0  0  0  0  0
   29.5327  -19.3497   -5.8715 C   0  0  0  0  0  0  0  0  0  0  0  0
   29.1605  -19.6348   -7.1670 C   0  0  0  0  0  0  0  0  0  0  0  0
   27.9348  -20.1975   -7.4281 C   0  0  0  0  0  0  0  0  0  0  0  0
   25.5487  -19.9921  -10.8114 C   0  0  0  0  0  0  0  0  0  0  0  0
   25.6293  -18.7534  -10.9433 O   0  0  0  0  0  0  0  0  0  0  0  0
   24.3386  -20.6267  -10.4859 N   0  0  0  0  0  0  0  0  0  0  0  0
   23.0931  -19.9298  -10.9950 C   0  0  1  0  0  0  0  0  0  0  0  0
   23.1288  -20.1045  -12.4756 C   0  0  0  0  0  0  0  0  0  0  0  0
   22.2335  -19.3980  -13.3673 C   0  0  0  0  0  0  0  0  0  0  0  0
   21.4044  -20.1041  -14.3799 C   0  0  0  0  0  0  0  0  0  0  0  0
   20.5582  -19.0479  -15.1502 C   0  0  0  0  0  0  0  0  0  0  0  0
   19.6391  -19.7046  -16.0511 N   0  0  0  0  0  0  0  0  0  0  0  0
   22.0315  -20.6968  -10.3090 C   0  0  0  0  0  0  0  0  0  0  0  0
   20.8181  -20.2378   -9.9543 O   0  0  0  0  0  0  0  0  0  0  0  0
   22.2699  -21.9236  -10.0072 O   0  0  0  0  0  0  0  0  0  0  0  0
  1  2  1  0
  2  3  1  0
  4  3  1  0
  5  1  1  0
  5  4  1  0
  5  6  1  1
  7  6  2  0
  8  6  1  0
  9  8  1  0
  9 10  1  1
 10 11  1  0
 11 19  1  0
 12 11  2  0
 12 13  1  0
 13 14  1  0
 14 15  1  0
 15 16  2  0
 17 16  1  0
 18 17  2  0
 19 14  2  0
 19 18  1  0
 20  9  1  0
 21 20  2  0
 22 20  1  0
 23 22  1  0
 24 25  1  0
 23 24  1  6
 26 27  1  0
 26 25  1  0
 28 27  1  0
 29 23  1  0
 29 30  1  0
 31 29  2  0
M  END
$$$$
