PWK.pdb
     RDKit          3D

 31 33  0  0  1  0  0  0  0  0999 V2000
   27.8330  -20.8243  -16.3367 N   0  0  0  0  0  0  0  0  0  0  0  0
   28.8604  -21.0149  -17.3709 C   0  0  0  0  0  0  0  0  0  0  0  0
   29.6193  -22.2587  -16.9434 C   0  0  0  0  0  0  0  0  0  0  0  0
   28.8608  -22.7755  -15.7147 C   0  0  0  0  0  0  0  0  0  0  0  0
   27.4991  -22.1568  -15.9205 C   0  0  1  0  0  0  0  0  0  0  0  0
   26.6722  -22.1603  -14.7109 C   0  0  0  0  0  0  0  0  0  0  0  0
   26.3641  -23.2367  -14.1720 O   0  0  0  0  0  0  0  0  0  0  0  0
   26.2302  -20.9358  -14.1641 N   0  0  0  0  0  0  0  0  0  0  0  0
   25.5527  -20.9000  -12.9035 C   0  0  1  0  0  0  0  0  0  0  0  0
   26.1185  -19.8371  -12.0241 C   0  0  0  0  0  0  0  0  0  0  0  0
   27.1973  -20.3505  -11.1449 C   0  0  0  0  0  0  0  0  0  0  0  0
   28.3978  -20.9125  -11.5518 C   0  0  0  0  0  0  0  0  0  0  0  0
   29.1266  -21.2599  -10.4662 N   0  0  0  0  0  0  0  0  0  0  0  0
   28.4293  -20.9375   -9.3650 C   0  0  0  0  0  0  0  0  0  0  0  0
   28.7601  -21.0989   -8.0348 C   0  0  0  0  0  0  0  0  0  0  0  0
   27.8648  -20.6830   -7.0671 C   0  0  0  0  0  0  0  0  0  0  0  0
   26.6625  -20.1167   -7.4558 C   0  0  0  0  0  0  0  0  0  0  0  0
   26.3542  -19.9658   -8.7901 C   0  0  0  0  0  0  0  0  0  0  0  0
   27.2393  -20.3768   -9.7568 C   0  0  0  0  0  0  0  0  0  0  0  0
   24.0749  -20.7844  -13.0233 C   0  0  0  0  0  0  0  0  0  0  0  0
   23.5963  -20.1280  -13.9712 O   0  0  0  0  0  0  0  0  0  0  0  0
   23.2581  -21.4143  -12.0698 N   0  0  0  0  0  0  0  0  0  0  0  0
   21.7738  -21.3751  -12.3723 C   0  0  1  0  0  0  0  0  0  0  0  0
   21.1827  -22.4749  -11.5569 C   0  0  0  0  0  0  0  0  0  0  0  0
   19.7940  -22.8688  -11.6664 C   0  0  0  0  0  0  0  0  0  0  0  0
   19.3641  -24.0382  -12.4784 C   0  0  0  0  0  0  0  0  0  0  0  0
   17.8189  -24.1852  -12.3549 C   0  0  0  0  0  0  0  0  0  0  0  0
   17.3364  -25.1843  -13.2804 N   0  0  0  0  0  0  0  0  0  0  0  0
   21.4220  -20.0129  -11.9179 C   0  0  0  0  0  0  0  0  0  0  0  0
   20.3941  -19.2657  -12.3584 O   0  0  0  0  0  0  0  0  0  0  0  0
   22.1588  -19.4659  -11.0175 O   0  0  0  0  0  0  0  0  0  0  0  0
  1  2  1  0
  2  3  1  0
  4  3  1  0
  5  1  1  0
  5  4  1  0
  5  6  1  1
  7  6  2  0
  8  6  1  0
  9  8  1  0
  9 10  1  1
 10 11  1  0
 11 19  1  0
 12 11  2  0
 12 13  1  0
 13 14  1  0
 14 15  1  0
 15 16  2  0
 17 16  1  0
 18 17  2  0
 19 14  2  0
 19 18  1  0
 20  9  1  0
 21 20  2  0
 22 20  1  0
 23 22  1  0
 24 25  1  0
 23 24  1  1
 26 27  1  0
 26 25  1  0
 28 27  1  0
 29 23  1  0
 29 30  1  0
 31 29  2  0
M  END
$$$$
