PWK.pdb
     RDKit          3D

 31 33  0  0  1  0  0  0  0  0999 V2000
   28.3593  -20.8864  -16.4368 N   0  0  0  0  0  0  0  0  0  0  0  0
   29.4647  -21.1881  -17.3579 C   0  0  0  0  0  0  0  0  0  0  0  0
   30.0014  -22.5319  -16.8975 C   0  0  0  0  0  0  0  0  0  0  0  0
   29.0466  -22.9715  -15.7808 C   0  0  0  0  0  0  0  0  0  0  0  0
   27.8095  -22.1718  -16.1116 C   0  0  1  0  0  0  0  0  0  0  0  0
   26.8562  -22.0933  -15.0017 C   0  0  0  0  0  0  0  0  0  0  0  0
   26.3238  -23.1279  -14.5656 O   0  0  0  0  0  0  0  0  0  0  0  0
   26.5488  -20.8380  -14.4331 N   0  0  0  0  0  0  0  0  0  0  0  0
   25.6638  -20.7397  -13.3122 C   0  0  1  0  0  0  0  0  0  0  0  0
   26.2000  -19.7954  -12.2906 C   0  0  0  0  0  0  0  0  0  0  0  0
   27.2821  -20.4022  -11.4775 C   0  0  0  0  0  0  0  0  0  0  0  0
   28.4669  -20.9448  -11.9515 C   0  0  0  0  0  0  0  0  0  0  0  0
   29.2049  -21.3991  -10.9126 N   0  0  0  0  0  0  0  0  0  0  0  0
   28.5289  -21.1650   -9.7764 C   0  0  0  0  0  0  0  0  0  0  0  0
   28.8758  -21.4496   -8.4711 C   0  0  0  0  0  0  0  0  0  0  0  0
   28.0016  -21.1074   -7.4563 C   0  0  0  0  0  0  0  0  0  0  0  0
   26.8039  -20.4896   -7.7743 C   0  0  0  0  0  0  0  0  0  0  0  0
   26.4793  -20.2155   -9.0849 C   0  0  0  0  0  0  0  0  0  0  0  0
   27.3434  -20.5528  -10.0981 C   0  0  0  0  0  0  0  0  0  0  0  0
   24.2629  -20.4077  -13.6852 C   0  0  0  0  0  0  0  0  0  0  0  0
   24.0467  -19.3838  -14.3659 O   0  0  0  0  0  0  0  0  0  0  0  0
   23.2224  -21.2516  -13.2630 N   0  0  0  0  0  0  0  0  0  0  0  0
   21.8414  -20.8553  -13.7444 C   0  0  1  0  0  0  0  0  0  0  0  0
   21.1520  -22.1424  -14.0476 C   0  0  0  0  0  0  0  0  0  0  0  0
   20.7779  -23.0894  -13.0186 C   0  0  0  0  0  0  0  0  0  0  0  0
   20.0491  -24.3482  -13.3278 C   0  0  0  0  0  0  0  0  0  0  0  0
   19.6543  -25.0337  -11.9866 C   0  0  0  0  0  0  0  0  0  0  0  0
   18.9922  -26.2918  -12.2444 N   0  0  0  0  0  0  0  0  0  0  0  0
   21.3175  -20.1388  -12.5620 C   0  0  0  0  0  0  0  0  0  0  0  0
   20.2022  -19.3886  -12.5132 O   0  0  0  0  0  0  0  0  0  0  0  0
   21.9779  -20.2219  -11.4621 O   0  0  0  0  0  0  0  0  0  0  0  0
  1  2  1  0
  2  3  1  0
  4  3  1  0
  5  1  1  0
  5  4  1  0
  5  6  1  1
  7  6  2  0
  8  6  1  0
  9  8  1  0
  9 10  1  1
 10 11  1  0
 11 19  1  0
 12 11  2  0
 12 13  1  0
 13 14  1  0
 14 15  1  0
 15 16  2  0
 17 16  1  0
 18 17  2  0
 19 14  2  0
 19 18  1  0
 20  9  1  0
 21 20  2  0
 22 20  1  0
 23 22  1  0
 24 25  1  0
 23 24  1  1
 26 27  1  0
 26 25  1  0
 28 27  1  0
 29 23  1  0
 29 30  1  0
 31 29  2  0
M  END
$$$$
