PWK.pdb
     RDKit          3D

 31 33  0  0  1  0  0  0  0  0999 V2000
   27.5169  -18.5825  -14.2588 N   0  0  0  0  0  0  0  0  0  0  0  0
   28.3292  -17.6026  -14.9944 C   0  0  0  0  0  0  0  0  0  0  0  0
   29.6325  -18.3218  -15.2944 C   0  0  0  0  0  0  0  0  0  0  0  0
   29.4111  -19.7549  -14.7952 C   0  0  0  0  0  0  0  0  0  0  0  0
   27.9044  -19.8491  -14.8120 C   0  0  1  0  0  0  0  0  0  0  0  0
   27.3851  -20.9707  -14.0251 C   0  0  0  0  0  0  0  0  0  0  0  0
   27.4556  -22.1282  -14.4717 O   0  0  0  0  0  0  0  0  0  0  0  0
   26.8068  -20.7274  -12.7603 N   0  0  0  0  0  0  0  0  0  0  0  0
   25.7646  -21.5707  -12.2581 C   0  0  1  0  0  0  0  0  0  0  0  0
   26.1442  -22.1623  -10.9432 C   0  0  0  0  0  0  0  0  0  0  0  0
   26.2334  -21.1401   -9.8720 C   0  0  0  0  0  0  0  0  0  0  0  0
   25.2713  -20.1952   -9.5490 C   0  0  0  0  0  0  0  0  0  0  0  0
   25.7078  -19.4388   -8.5158 N   0  0  0  0  0  0  0  0  0  0  0  0
   26.9289  -19.8690   -8.1600 C   0  0  0  0  0  0  0  0  0  0  0  0
   27.7683  -19.4108   -7.1648 C   0  0  0  0  0  0  0  0  0  0  0  0
   28.9946  -20.0242   -6.9884 C   0  0  0  0  0  0  0  0  0  0  0  0
   29.3484  -21.0795   -7.8121 C   0  0  0  0  0  0  0  0  0  0  0  0
   28.4936  -21.5194   -8.7990 C   0  0  0  0  0  0  0  0  0  0  0  0
   27.2736  -20.9144   -8.9797 C   0  0  0  0  0  0  0  0  0  0  0  0
   24.4357  -20.9056  -12.1978 C   0  0  0  0  0  0  0  0  0  0  0  0
   24.3832  -19.6861  -11.9363 O   0  0  0  0  0  0  0  0  0  0  0  0
   23.2777  -21.6642  -12.4356 N   0  0  0  0  0  0  0  0  0  0  0  0
   22.0559  -20.8603  -12.8319 C   0  0  1  0  0  0  0  0  0  0  0  0
   21.7461  -21.2876  -14.2267 C   0  0  0  0  0  0  0  0  0  0  0  0
   21.9510  -20.4255  -15.3714 C   0  0  0  0  0  0  0  0  0  0  0  0
   23.2492  -19.7481  -15.6305 C   0  0  0  0  0  0  0  0  0  0  0  0
   23.1054  -18.8765  -16.9127 C   0  0  0  0  0  0  0  0  0  0  0  0
   22.7536  -17.5206  -16.5584 N   0  0  0  0  0  0  0  0  0  0  0  0
   21.0756  -21.3052  -11.8185 C   0  0  0  0  0  0  0  0  0  0  0  0
   19.9564  -20.6556  -11.4522 O   0  0  0  0  0  0  0  0  0  0  0  0
   21.2954  -22.4166  -11.2107 O   0  0  0  0  0  0  0  0  0  0  0  0
  1  2  1  0
  2  3  1  0
  4  3  1  0
  5  1  1  0
  5  4  1  0
  5  6  1  1
  7  6  2  0
  8  6  1  0
  9  8  1  0
  9 10  1  1
 10 11  1  0
 11 19  1  0
 12 11  2  0
 12 13  1  0
 13 14  1  0
 14 15  1  0
 15 16  2  0
 17 16  1  0
 18 17  2  0
 19 14  2  0
 19 18  1  0
 20  9  1  0
 21 20  2  0
 22 20  1  0
 23 22  1  0
 24 25  1  0
 23 24  1  6
 26 27  1  0
 26 25  1  0
 28 27  1  0
 29 23  1  0
 29 30  1  0
 31 29  2  0
M  END
$$$$
