PWK.pdb
     RDKit          3D

 31 33  0  0  1  0  0  0  0  0999 V2000
   26.9239  -22.2090  -16.9363 N   0  0  0  0  0  0  0  0  0  0  0  0
   28.2288  -22.6700  -17.4323 C   0  0  0  0  0  0  0  0  0  0  0  0
   29.2072  -21.5812  -17.0287 C   0  0  0  0  0  0  0  0  0  0  0  0
   28.3760  -20.6000  -16.1928 C   0  0  0  0  0  0  0  0  0  0  0  0
   27.2377  -21.4819  -15.7392 C   0  0  1  0  0  0  0  0  0  0  0  0
   26.0846  -20.7284  -15.2396 C   0  0  0  0  0  0  0  0  0  0  0  0
   26.1851  -20.0564  -14.1992 O   0  0  0  0  0  0  0  0  0  0  0  0
   24.8633  -20.7712  -15.9468 N   0  0  0  0  0  0  0  0  0  0  0  0
   23.7562  -19.9576  -15.5444 C   0  0  1  0  0  0  0  0  0  0  0  0
   23.0796  -19.3545  -16.7282 C   0  0  0  0  0  0  0  0  0  0  0  0
   22.0315  -18.3791  -16.3400 C   0  0  0  0  0  0  0  0  0  0  0  0
   22.1765  -17.3161  -15.4616 C   0  0  0  0  0  0  0  0  0  0  0  0
   21.0040  -16.6488  -15.3603 N   0  0  0  0  0  0  0  0  0  0  0  0
   20.1018  -17.2520  -16.1508 C   0  0  0  0  0  0  0  0  0  0  0  0
   18.7775  -16.9352  -16.3764 C   0  0  0  0  0  0  0  0  0  0  0  0
   18.0411  -17.7170  -17.2467 C   0  0  0  0  0  0  0  0  0  0  0  0
   18.6490  -18.7948  -17.8681 C   0  0  0  0  0  0  0  0  0  0  0  0
   19.9726  -19.0916  -17.6272 C   0  0  0  0  0  0  0  0  0  0  0  0
   20.7102  -18.3188  -16.7636 C   0  0  0  0  0  0  0  0  0  0  0  0
   22.7900  -20.6603  -14.6587 C   0  0  0  0  0  0  0  0  0  0  0  0
   22.5198  -21.8569  -14.8904 O   0  0  0  0  0  0  0  0  0  0  0  0
   22.2080  -19.9619  -13.5879 N   0  0  0  0  0  0  0  0  0  0  0  0
   21.2873  -20.7862  -12.7110 C   0  0  1  0  0  0  0  0  0  0  0  0
   21.3903  -20.1723  -11.3558 C   0  0  0  0  0  0  0  0  0  0  0  0
   20.5948  -20.6211  -10.2326 C   0  0  0  0  0  0  0  0  0  0  0  0
   20.4216  -22.0625   -9.9104 C   0  0  0  0  0  0  0  0  0  0  0  0
   19.5639  -22.1807   -8.6162 C   0  0  0  0  0  0  0  0  0  0  0  0
   19.2457  -23.5651   -8.3523 N   0  0  0  0  0  0  0  0  0  0  0  0
   19.9868  -20.5810  -13.3837 C   0  0  0  0  0  0  0  0  0  0  0  0
   18.9996  -21.4864  -13.5044 O   0  0  0  0  0  0  0  0  0  0  0  0
   19.7556  -19.4346  -13.9176 O   0  0  0  0  0  0  0  0  0  0  0  0
  1  2  1  0
  2  3  1  0
  4  3  1  0
  5  1  1  0
  5  4  1  0
  5  6  1  6
  7  6  2  0
  8  6  1  0
  9  8  1  0
  9 10  1  6
 10 11  1  0
 11 19  1  0
 12 11  2  0
 12 13  1  0
 13 14  1  0
 14 15  1  0
 15 16  2  0
 17 16  1  0
 18 17  2  0
 19 14  2  0
 19 18  1  0
 20  9  1  0
 21 20  2  0
 22 20  1  0
 23 22  1  0
 24 25  1  0
 23 24  1  1
 26 27  1  0
 26 25  1  0
 28 27  1  0
 29 23  1  0
 29 30  1  0
 31 29  2  0
M  END
$$$$
