PWK.pdb
     RDKit          3D

 31 33  0  0  1  0  0  0  0  0999 V2000
   27.5313  -22.0950  -17.7627 N   0  0  0  0  0  0  0  0  0  0  0  0
   28.5255  -22.7368  -18.6350 C   0  0  0  0  0  0  0  0  0  0  0  0
   29.8658  -22.4343  -17.9887 C   0  0  0  0  0  0  0  0  0  0  0  0
   29.5145  -21.7187  -16.6785 C   0  0  0  0  0  0  0  0  0  0  0  0
   28.0995  -22.1920  -16.4482 C   0  0  1  0  0  0  0  0  0  0  0  0
   27.3673  -21.3774  -15.4750 C   0  0  0  0  0  0  0  0  0  0  0  0
   27.7961  -21.2607  -14.3146 O   0  0  0  0  0  0  0  0  0  0  0  0
   26.1755  -20.7280  -15.8644 N   0  0  0  0  0  0  0  0  0  0  0  0
   25.5415  -19.7813  -14.9977 C   0  0  1  0  0  0  0  0  0  0  0  0
   25.2712  -18.5012  -15.7128 C   0  0  0  0  0  0  0  0  0  0  0  0
   26.5131  -17.7374  -15.9865 C   0  0  0  0  0  0  0  0  0  0  0  0
   27.7748  -18.0004  -15.4748 C   0  0  0  0  0  0  0  0  0  0  0  0
   28.6556  -17.0910  -15.9517 N   0  0  0  0  0  0  0  0  0  0  0  0
   27.9975  -16.2445  -16.7597 C   0  0  0  0  0  0  0  0  0  0  0  0
   28.4696  -15.1600  -17.4710 C   0  0  0  0  0  0  0  0  0  0  0  0
   27.5860  -14.4310  -18.2449 C   0  0  0  0  0  0  0  0  0  0  0  0
   26.2538  -14.8063  -18.2866 C   0  0  0  0  0  0  0  0  0  0  0  0
   25.8057  -15.8929  -17.5679 C   0  0  0  0  0  0  0  0  0  0  0  0
   26.6783  -16.6217  -16.7969 C   0  0  0  0  0  0  0  0  0  0  0  0
   24.3200  -20.3067  -14.3316 C   0  0  0  0  0  0  0  0  0  0  0  0
   23.6344  -21.1673  -14.9214 O   0  0  0  0  0  0  0  0  0  0  0  0
   23.9698  -19.8224  -13.0604 N   0  0  0  0  0  0  0  0  0  0  0  0
   22.7844  -20.5126  -12.4167 C   0  0  1  0  0  0  0  0  0  0  0  0
   22.8158  -20.0856  -10.9881 C   0  0  0  0  0  0  0  0  0  0  0  0
   22.9688  -21.0233   -9.8959 C   0  0  0  0  0  0  0  0  0  0  0  0
   23.0553  -20.5811   -8.4787 C   0  0  0  0  0  0  0  0  0  0  0  0
   23.2128  -21.8402   -7.5762 C   0  0  0  0  0  0  0  0  0  0  0  0
   23.3596  -21.4484   -6.1932 N   0  0  0  0  0  0  0  0  0  0  0  0
   21.6631  -19.9547  -13.2025 C   0  0  0  0  0  0  0  0  0  0  0  0
   21.7056  -18.8660  -13.9910 O   0  0  0  0  0  0  0  0  0  0  0  0
   20.5246  -20.5484  -13.1383 O   0  0  0  0  0  0  0  0  0  0  0  0
  1  2  1  0
  2  3  1  0
  4  3  1  0
  5  1  1  0
  5  4  1  0
  5  6  1  1
  7  6  2  0
  8  6  1  0
  9  8  1  0
  9 10  1  6
 10 11  1  0
 11 19  1  0
 12 11  2  0
 12 13  1  0
 13 14  1  0
 14 15  1  0
 15 16  2  0
 17 16  1  0
 18 17  2  0
 19 14  2  0
 19 18  1  0
 20  9  1  0
 21 20  2  0
 22 20  1  0
 23 22  1  0
 24 25  1  0
 23 24  1  1
 26 27  1  0
 26 25  1  0
 28 27  1  0
 29 23  1  0
 29 30  1  0
 31 29  2  0
M  END
$$$$
