QNQ.pdb
     RDKit          3D

 27 26  0  0  1  0  0  0  0  0999 V2000
    8.0567  -12.1480   19.7779 N   0  0  0  0  0  0  0  0  0  0  0  0
    8.4025  -13.1662   18.8731 C   0  0  0  0  0  0  0  0  0  0  0  0
    8.6929  -12.8882   17.6908 O   0  0  0  0  0  0  0  0  0  0  0  0
    8.4417  -14.6021   19.2626 C   0  0  0  0  0  0  0  0  0  0  0  0
    8.0435  -14.7965   20.7019 C   0  0  0  0  0  0  0  0  0  0  0  0
    8.2051  -16.2337   21.0514 C   0  0  2  0  0  0  0  0  0  0  0  0
    7.2459  -17.0306   20.3636 N   0  0  0  0  0  0  0  0  0  0  0  0
    8.2869  -16.4704   22.5142 C   0  0  0  0  0  0  0  0  0  0  0  0
    7.2919  -16.1213   23.1955 O   0  0  0  0  0  0  0  0  0  0  0  0
   10.9854  -20.0965   23.0226 N   0  0  0  0  0  0  0  0  0  0  0  0
   10.0778  -19.6530   24.0041 C   0  0  0  0  0  0  0  0  0  0  0  0
    8.9811  -20.2171   24.1790 O   0  0  0  0  0  0  0  0  0  0  0  0
   10.4209  -18.4884   24.8575 C   0  0  0  0  0  0  0  0  0  0  0  0
    9.5668  -17.2886   24.5595 C   0  0  2  0  0  0  0  0  0  0  0  0
    9.4106  -17.0569   23.1437 N   0  0  0  0  0  0  0  0  0  0  0  0
    9.9803  -16.1173   25.3397 C   0  0  0  0  0  0  0  0  0  0  0  0
   11.0096  -15.4845   25.0946 O   0  0  0  0  0  0  0  0  0  0  0  0
    6.0529  -12.1349   27.5460 N   0  0  0  0  0  0  0  0  0  0  0  0
    6.5609  -12.3355   26.2363 C   0  0  0  0  0  0  0  0  0  0  0  0
    5.9830  -11.8130   25.2681 O   0  0  0  0  0  0  0  0  0  0  0  0
    7.7651  -13.1564   26.0174 C   0  0  0  0  0  0  0  0  0  0  0  0
    8.2357  -13.7092   27.3160 C   0  0  0  0  0  0  0  0  0  0  0  0
    9.4988  -14.5204   27.2476 C   0  0  2  0  0  0  0  0  0  0  0  0
    9.1801  -15.6811   26.4186 N   0  0  0  0  0  0  0  0  0  0  0  0
   10.0306  -14.9116   28.5538 C   0  0  0  0  0  0  0  0  0  0  0  0
   10.6389  -14.0150   29.4118 O   0  0  0  0  0  0  0  0  0  0  0  0
    9.9469  -16.1043   28.9403 O   0  0  0  0  0  0  0  0  0  0  0  0
  2  3  2  0
  2  1  1  0
  4  2  1  0
  5  4  1  0
  6  5  1  0
  6  8  1  0
  6  7  1  1
  8 15  1  0
  8  9  2  0
 11 10  1  0
 12 11  2  0
 13 11  1  0
 14 13  1  6
 15 14  1  0
 16 14  1  0
 16 17  2  0
 18 19  1  0
 19 21  1  0
 20 19  2  0
 21 22  1  0
 23 22  1  1
 23 24  1  0
 24 16  1  0
 25 26  1  0
 25 23  1  0
 27 25  2  0
M  END
$$$$
