QNQ.pdb
     RDKit          3D

 27 26  0  0  1  0  0  0  0  0999 V2000
    9.5609  -14.0428   16.1957 N   0  0  0  0  0  0  0  0  0  0  0  0
    8.1682  -13.9026   16.3210 C   0  0  0  0  0  0  0  0  0  0  0  0
    7.4168  -14.1829   15.3638 O   0  0  0  0  0  0  0  0  0  0  0  0
    7.5227  -13.4230   17.5734 C   0  0  0  0  0  0  0  0  0  0  0  0
    8.5429  -13.0941   18.6312 C   0  0  0  0  0  0  0  0  0  0  0  0
    8.8177  -14.3213   19.4264 C   0  0  2  0  0  0  0  0  0  0  0  0
    7.9249  -15.3690   19.0612 N   0  0  0  0  0  0  0  0  0  0  0  0
    8.9175  -14.0592   20.8838 C   0  0  0  0  0  0  0  0  0  0  0  0
    9.6307  -13.0863   21.2313 O   0  0  0  0  0  0  0  0  0  0  0  0
    7.3895  -12.9730   26.0037 N   0  0  0  0  0  0  0  0  0  0  0  0
    7.1555  -14.2283   25.4096 C   0  0  0  0  0  0  0  0  0  0  0  0
    7.0324  -15.2605   26.0958 O   0  0  0  0  0  0  0  0  0  0  0  0
    7.0505  -14.3408   23.9335 C   0  0  0  0  0  0  0  0  0  0  0  0
    8.3642  -14.6852   23.2906 C   0  0  2  0  0  0  0  0  0  0  0  0
    8.2571  -14.8426   21.8601 N   0  0  0  0  0  0  0  0  0  0  0  0
    9.0416  -15.7833   23.9883 C   0  0  0  0  0  0  0  0  0  0  0  0
    8.5352  -16.8994   24.1218 O   0  0  0  0  0  0  0  0  0  0  0  0
   10.7491  -13.3998   28.7233 N   0  0  0  0  0  0  0  0  0  0  0  0
   10.6664  -14.7384   29.1869 C   0  0  0  0  0  0  0  0  0  0  0  0
   10.8829  -14.9865   30.3852 O   0  0  0  0  0  0  0  0  0  0  0  0
   10.3265  -15.8325   28.2599 C   0  0  0  0  0  0  0  0  0  0  0  0
   10.1956  -15.2949   26.8789 C   0  0  0  0  0  0  0  0  0  0  0  0
   10.7769  -16.1598   25.7963 C   0  0  2  0  0  0  0  0  0  0  0  0
   10.3265  -15.5734   24.5357 N   0  0  0  0  0  0  0  0  0  0  0  0
   10.4151  -17.5741   25.9009 C   0  0  0  0  0  0  0  0  0  0  0  0
   11.3362  -18.5609   26.1974 O   0  0  0  0  0  0  0  0  0  0  0  0
    9.2266  -17.9389   25.7186 O   0  0  0  0  0  0  0  0  0  0  0  0
  2  3  2  0
  2  1  1  0
  4  2  1  0
  5  4  1  0
  6  5  1  0
  6  8  1  0
  6  7  1  1
  8 15  1  0
  8  9  2  0
 11 10  1  0
 12 11  2  0
 13 11  1  0
 14 13  1  1
 15 14  1  0
 16 14  1  0
 16 17  2  0
 18 19  1  0
 19 21  1  0
 20 19  2  0
 21 22  1  0
 23 22  1  1
 23 24  1  0
 24 16  1  0
 25 26  1  0
 25 23  1  0
 27 25  2  0
M  END
$$$$
