QNQ.pdb
     RDKit          3D

 27 26  0  0  1  0  0  0  0  0999 V2000
    9.8569  -18.8446   16.9481 N   0  0  0  0  0  0  0  0  0  0  0  0
    8.7329  -19.2911   17.6639 C   0  0  0  0  0  0  0  0  0  0  0  0
    7.9209  -20.0797   17.1363 O   0  0  0  0  0  0  0  0  0  0  0  0
    8.4515  -18.8598   19.0603 C   0  0  0  0  0  0  0  0  0  0  0  0
    9.4607  -17.8512   19.5422 C   0  0  0  0  0  0  0  0  0  0  0  0
    9.5820  -17.9672   21.0206 C   0  0  2  0  0  0  0  0  0  0  0  0
    8.7131  -18.9792   21.5198 N   0  0  0  0  0  0  0  0  0  0  0  0
    9.4890  -16.6592   21.7157 C   0  0  0  0  0  0  0  0  0  0  0  0
   10.2575  -15.7529   21.3108 O   0  0  0  0  0  0  0  0  0  0  0  0
    6.1092  -13.2508   25.5777 N   0  0  0  0  0  0  0  0  0  0  0  0
    7.0003  -13.4709   24.5095 C   0  0  0  0  0  0  0  0  0  0  0  0
    7.7203  -12.5576   24.0636 O   0  0  0  0  0  0  0  0  0  0  0  0
    7.0956  -14.8162   23.8901 C   0  0  0  0  0  0  0  0  0  0  0  0
    8.5111  -15.1940   23.5562 C   0  0  2  0  0  0  0  0  0  0  0  0
    8.5929  -16.4092   22.7822 N   0  0  0  0  0  0  0  0  0  0  0  0
    9.3807  -15.1485   24.7366 C   0  0  0  0  0  0  0  0  0  0  0  0
    9.4453  -14.1652   25.4777 O   0  0  0  0  0  0  0  0  0  0  0  0
   11.1401  -15.6750   30.2227 N   0  0  0  0  0  0  0  0  0  0  0  0
   10.1637  -14.9494   29.4922 C   0  0  0  0  0  0  0  0  0  0  0  0
    9.7583  -13.8582   29.9275 O   0  0  0  0  0  0  0  0  0  0  0  0
    9.6290  -15.4793   28.2252 C   0  0  0  0  0  0  0  0  0  0  0  0
   10.5843  -15.1932   27.1212 C   0  0  0  0  0  0  0  0  0  0  0  0
   10.9681  -16.3791   26.2819 C   0  0  2  0  0  0  0  0  0  0  0  0
   10.1835  -16.2662   25.0540 N   0  0  0  0  0  0  0  0  0  0  0  0
   10.7670  -17.6699   26.9418 C   0  0  0  0  0  0  0  0  0  0  0  0
    9.7009  -18.4998   26.6506 O   0  0  0  0  0  0  0  0  0  0  0  0
   11.5790  -18.0686   27.8139 O   0  0  0  0  0  0  0  0  0  0  0  0
  2  3  2  0
  2  1  1  0
  4  2  1  0
  5  4  1  0
  6  5  1  0
  6  8  1  0
  6  7  1  1
  8 15  1  0
  8  9  2  0
 11 10  1  0
 12 11  2  0
 13 11  1  0
 14 13  1  1
 15 14  1  0
 16 14  1  0
 16 17  2  0
 18 19  1  0
 19 21  1  0
 20 19  2  0
 21 22  1  0
 23 22  1  1
 23 24  1  0
 24 16  1  0
 25 26  1  0
 25 23  1  0
 27 25  2  0
M  END
$$$$
