QNQ.pdb
     RDKit          3D

 27 26  0  0  1  0  0  0  0  0999 V2000
    9.1123  -13.6615   16.4140 N   0  0  0  0  0  0  0  0  0  0  0  0
    8.2173  -14.5935   16.9667 C   0  0  0  0  0  0  0  0  0  0  0  0
    8.3623  -15.8144   16.7477 O   0  0  0  0  0  0  0  0  0  0  0  0
    7.0710  -14.1888   17.8253 C   0  0  0  0  0  0  0  0  0  0  0  0
    7.5347  -13.4732   19.0666 C   0  0  0  0  0  0  0  0  0  0  0  0
    8.0216  -14.4827   20.0452 C   0  0  2  0  0  0  0  0  0  0  0  0
    7.2495  -15.6766   19.9640 N   0  0  0  0  0  0  0  0  0  0  0  0
    8.1877  -13.9327   21.4135 C   0  0  0  0  0  0  0  0  0  0  0  0
    8.8579  -12.8761   21.5159 O   0  0  0  0  0  0  0  0  0  0  0  0
    6.5389  -14.5241   27.1952 N   0  0  0  0  0  0  0  0  0  0  0  0
    6.4672  -13.7083   26.0493 C   0  0  0  0  0  0  0  0  0  0  0  0
    6.4191  -12.4667   26.1361 O   0  0  0  0  0  0  0  0  0  0  0  0
    6.4477  -14.3266   24.7003 C   0  0  0  0  0  0  0  0  0  0  0  0
    7.6877  -14.0166   23.9102 C   0  0  2  0  0  0  0  0  0  0  0  0
    7.6338  -14.5391   22.5661 N   0  0  0  0  0  0  0  0  0  0  0  0
    8.9066  -14.3451   24.6571 C   0  0  0  0  0  0  0  0  0  0  0  0
    9.4780  -13.5331   25.3881 O   0  0  0  0  0  0  0  0  0  0  0  0
   11.7524  -14.1851   28.8131 N   0  0  0  0  0  0  0  0  0  0  0  0
   11.0077  -15.3858   28.9447 C   0  0  0  0  0  0  0  0  0  0  0  0
   10.3470  -15.5871   29.9778 O   0  0  0  0  0  0  0  0  0  0  0  0
   11.0126  -16.3921   27.8681 C   0  0  0  0  0  0  0  0  0  0  0  0
   10.0435  -15.9973   26.8106 C   0  0  0  0  0  0  0  0  0  0  0  0
   10.5436  -16.1312   25.4000 C   0  0  2  0  0  0  0  0  0  0  0  0
    9.4633  -15.6384   24.5479 N   0  0  0  0  0  0  0  0  0  0  0  0
   10.9507  -17.4890   25.0354 C   0  0  0  0  0  0  0  0  0  0  0  0
   12.0925  -18.0861   25.5351 O   0  0  0  0  0  0  0  0  0  0  0  0
   10.2554  -18.1657   24.2371 O   0  0  0  0  0  0  0  0  0  0  0  0
  2  3  2  0
  2  1  1  0
  4  2  1  0
  5  4  1  0
  6  5  1  0
  6  8  1  0
  6  7  1  1
  8 15  1  0
  8  9  2  0
 11 10  1  0
 12 11  2  0
 13 11  1  0
 14 13  1  1
 15 14  1  0
 16 14  1  0
 16 17  2  0
 18 19  1  0
 19 21  1  0
 20 19  2  0
 21 22  1  0
 23 22  1  1
 23 24  1  0
 24 16  1  0
 25 26  1  0
 25 23  1  0
 27 25  2  0
M  END
$$$$
