QNQ.pdb
     RDKit          3D

 27 26  0  0  1  0  0  0  0  0999 V2000
    9.7295  -12.4885   18.6030 N   0  0  0  0  0  0  0  0  0  0  0  0
   10.8779  -13.2899   18.4846 C   0  0  0  0  0  0  0  0  0  0  0  0
   11.9693  -12.7835   18.1501 O   0  0  0  0  0  0  0  0  0  0  0  0
   10.8603  -14.7551   18.7449 C   0  0  0  0  0  0  0  0  0  0  0  0
    9.5661  -15.1890   19.3810 C   0  0  0  0  0  0  0  0  0  0  0  0
    9.6084  -16.6612   19.5919 C   0  0  2  0  0  0  0  0  0  0  0  0
    9.4285  -17.3522   18.3597 N   0  0  0  0  0  0  0  0  0  0  0  0
    8.7331  -17.1148   20.7012 C   0  0  0  0  0  0  0  0  0  0  0  0
    7.6254  -17.6080   20.3760 O   0  0  0  0  0  0  0  0  0  0  0  0
    7.0497  -19.8831   25.2813 N   0  0  0  0  0  0  0  0  0  0  0  0
    6.7835  -18.7658   24.4662 C   0  0  0  0  0  0  0  0  0  0  0  0
    5.8906  -17.9470   24.7552 O   0  0  0  0  0  0  0  0  0  0  0  0
    7.5763  -18.5448   23.2312 C   0  0  0  0  0  0  0  0  0  0  0  0
    8.2104  -17.1830   23.1938 C   0  0  2  0  0  0  0  0  0  0  0  0
    9.0945  -17.0137   22.0658 N   0  0  0  0  0  0  0  0  0  0  0  0
    8.7810  -16.8111   24.4929 C   0  0  0  0  0  0  0  0  0  0  0  0
    9.6698  -17.4665   25.0411 O   0  0  0  0  0  0  0  0  0  0  0  0
    5.4120  -11.7241   25.7810 N   0  0  0  0  0  0  0  0  0  0  0  0
    6.6248  -12.0353   26.4489 C   0  0  0  0  0  0  0  0  0  0  0  0
    7.3035  -11.1201   26.9449 O   0  0  0  0  0  0  0  0  0  0  0  0
    7.0831  -13.4317   26.5577 C   0  0  0  0  0  0  0  0  0  0  0  0
    8.5103  -13.5226   26.1478 C   0  0  0  0  0  0  0  0  0  0  0  0
    9.0881  -14.9097   26.1398 C   0  0  2  0  0  0  0  0  0  0  0  0
    8.3068  -15.6590   25.1579 N   0  0  0  0  0  0  0  0  0  0  0  0
    9.0923  -15.5642   27.4489 C   0  0  0  0  0  0  0  0  0  0  0  0
    8.3280  -16.6813   27.7281 O   0  0  0  0  0  0  0  0  0  0  0  0
    9.8090  -15.1161   28.3786 O   0  0  0  0  0  0  0  0  0  0  0  0
  2  3  2  0
  2  1  1  0
  4  2  1  0
  5  4  1  0
  6  5  1  0
  6  8  1  0
  6  7  1  6
  8 15  1  0
  8  9  2  0
 11 10  1  0
 12 11  2  0
 13 11  1  0
 14 13  1  1
 15 14  1  0
 16 14  1  0
 16 17  2  0
 18 19  1  0
 19 21  1  0
 20 19  2  0
 21 22  1  0
 23 22  1  1
 23 24  1  0
 24 16  1  0
 25 26  1  0
 25 23  1  0
 27 25  2  0
M  END
$$$$
