QNQ.pdb
     RDKit          3D

 27 26  0  0  1  0  0  0  0  0999 V2000
    8.3341  -13.3666   14.6115 N   0  0  0  0  0  0  0  0  0  0  0  0
    8.2058  -14.7661   14.6221 C   0  0  0  0  0  0  0  0  0  0  0  0
    7.6194  -15.3534   13.6889 O   0  0  0  0  0  0  0  0  0  0  0  0
    8.7488  -15.6102   15.7210 C   0  0  0  0  0  0  0  0  0  0  0  0
    9.3725  -14.7726   16.8060 C   0  0  0  0  0  0  0  0  0  0  0  0
    9.8296  -15.6721   17.8995 C   0  0  2  0  0  0  0  0  0  0  0  0
    9.0714  -16.8776   17.9106 N   0  0  0  0  0  0  0  0  0  0  0  0
    9.9377  -14.9849   19.2105 C   0  0  0  0  0  0  0  0  0  0  0  0
   10.6182  -13.9302   19.2365 O   0  0  0  0  0  0  0  0  0  0  0  0
    6.5349  -13.0738   20.9351 N   0  0  0  0  0  0  0  0  0  0  0  0
    6.9565  -14.3868   21.2214 C   0  0  0  0  0  0  0  0  0  0  0  0
    6.4863  -15.3682   20.6156 O   0  0  0  0  0  0  0  0  0  0  0  0
    7.9838  -14.6233   22.2661 C   0  0  0  0  0  0  0  0  0  0  0  0
    9.3547  -14.8270   21.6855 C   0  0  2  0  0  0  0  0  0  0  0  0
    9.3196  -15.4628   20.3905 N   0  0  0  0  0  0  0  0  0  0  0  0
   10.2719  -15.4377   22.6537 C   0  0  0  0  0  0  0  0  0  0  0  0
   10.4037  -15.0136   23.8039 O   0  0  0  0  0  0  0  0  0  0  0  0
   10.8238  -20.9944   24.2783 N   0  0  0  0  0  0  0  0  0  0  0  0
   11.4664  -20.9044   23.0163 C   0  0  0  0  0  0  0  0  0  0  0  0
   11.6234  -21.9311   22.3340 O   0  0  0  0  0  0  0  0  0  0  0  0
   11.9469  -19.6060   22.5112 C   0  0  0  0  0  0  0  0  0  0  0  0
   11.5703  -18.5283   23.4652 C   0  0  0  0  0  0  0  0  0  0  0  0
   12.0753  -17.1570   23.1155 C   0  0  2  0  0  0  0  0  0  0  0  0
   11.0432  -16.5575   22.2722 N   0  0  0  0  0  0  0  0  0  0  0  0
   13.3857  -17.1498   22.4635 C   0  0  0  0  0  0  0  0  0  0  0  0
   14.5669  -17.3280   23.1584 O   0  0  0  0  0  0  0  0  0  0  0  0
   13.4744  -16.9763   21.2221 O   0  0  0  0  0  0  0  0  0  0  0  0
  2  3  2  0
  2  1  1  0
  4  2  1  0
  5  4  1  0
  6  5  1  0
  6  8  1  0
  6  7  1  1
  8 15  1  0
  8  9  2  0
 11 10  1  0
 12 11  2  0
 13 11  1  0
 14 13  1  1
 15 14  1  0
 16 14  1  0
 16 17  2  0
 18 19  1  0
 19 21  1  0
 20 19  2  0
 21 22  1  0
 23 22  1  6
 23 24  1  0
 24 16  1  0
 25 26  1  0
 25 23  1  0
 27 25  2  0
M  END
$$$$
