QNQ.pdb
     RDKit          3D

 27 26  0  0  1  0  0  0  0  0999 V2000
    7.5060  -12.4430   18.2533 N   0  0  0  0  0  0  0  0  0  0  0  0
    8.6647  -13.1519   17.8928 C   0  0  0  0  0  0  0  0  0  0  0  0
    9.2086  -12.9518   16.7865 O   0  0  0  0  0  0  0  0  0  0  0  0
    9.2964  -14.1592   18.7880 C   0  0  0  0  0  0  0  0  0  0  0  0
    8.5378  -14.3039   20.0809 C   0  0  0  0  0  0  0  0  0  0  0  0
    9.1136  -15.4423   20.8466 C   0  0  2  0  0  0  0  0  0  0  0  0
    9.6136  -16.4418   19.9640 N   0  0  0  0  0  0  0  0  0  0  0  0
    8.2109  -15.9402   21.9143 C   0  0  0  0  0  0  0  0  0  0  0  0
    7.1485  -15.2965   22.0961 O   0  0  0  0  0  0  0  0  0  0  0  0
    4.9452  -19.2138   24.3625 N   0  0  0  0  0  0  0  0  0  0  0  0
    6.2723  -19.6780   24.2782 C   0  0  0  0  0  0  0  0  0  0  0  0
    6.6903  -20.5918   25.0141 O   0  0  0  0  0  0  0  0  0  0  0  0
    7.2064  -19.0750   23.2952 C   0  0  0  0  0  0  0  0  0  0  0  0
    7.6187  -17.6815   23.6771 C   0  0  2  0  0  0  0  0  0  0  0  0
    8.4986  -17.0776   22.7057 N   0  0  0  0  0  0  0  0  0  0  0  0
    8.0843  -17.6119   25.0664 C   0  0  0  0  0  0  0  0  0  0  0  0
    7.3964  -17.9879   26.0180 O   0  0  0  0  0  0  0  0  0  0  0  0
   10.2213  -13.3179   27.9572 N   0  0  0  0  0  0  0  0  0  0  0  0
   10.2641  -14.4070   28.8659 C   0  0  0  0  0  0  0  0  0  0  0  0
   11.1100  -14.4127   29.7763 O   0  0  0  0  0  0  0  0  0  0  0  0
    9.3155  -15.5275   28.7376 C   0  0  0  0  0  0  0  0  0  0  0  0
    9.0588  -15.8026   27.2982 C   0  0  0  0  0  0  0  0  0  0  0  0
    9.8890  -16.9016   26.6974 C   0  0  2  0  0  0  0  0  0  0  0  0
    9.3694  -17.0970   25.3455 N   0  0  0  0  0  0  0  0  0  0  0  0
    9.8850  -18.1451   27.4692 C   0  0  0  0  0  0  0  0  0  0  0  0
    9.1085  -19.2354   27.1252 O   0  0  0  0  0  0  0  0  0  0  0  0
   10.6058  -18.2578   28.4922 O   0  0  0  0  0  0  0  0  0  0  0  0
  2  3  2  0
  2  1  1  0
  4  2  1  0
  5  4  1  0
  6  5  1  0
  6  8  1  0
  6  7  1  6
  8 15  1  0
  8  9  2  0
 11 10  1  0
 12 11  2  0
 13 11  1  0
 14 13  1  6
 15 14  1  0
 16 14  1  0
 16 17  2  0
 18 19  1  0
 19 21  1  0
 20 19  2  0
 21 22  1  0
 23 22  1  1
 23 24  1  0
 24 16  1  0
 25 26  1  0
 25 23  1  0
 27 25  2  0
M  END
$$$$
