QNQ.pdb
     RDKit          3D

 27 26  0  0  1  0  0  0  0  0999 V2000
    8.0443  -12.4195   17.5976 N   0  0  0  0  0  0  0  0  0  0  0  0
    8.1401  -13.7860   17.2835 C   0  0  0  0  0  0  0  0  0  0  0  0
    7.9037  -14.1854   16.1241 O   0  0  0  0  0  0  0  0  0  0  0  0
    8.5202  -14.8130   18.2914 C   0  0  0  0  0  0  0  0  0  0  0  0
    8.7110  -14.2054   19.6561 C   0  0  0  0  0  0  0  0  0  0  0  0
    8.3332  -15.2130   20.6837 C   0  0  2  0  0  0  0  0  0  0  0  0
    7.0250  -15.7186   20.4367 N   0  0  0  0  0  0  0  0  0  0  0  0
    8.5758  -14.7466   22.0716 C   0  0  0  0  0  0  0  0  0  0  0  0
    9.7658  -14.4877   22.3765 O   0  0  0  0  0  0  0  0  0  0  0  0
    7.0516  -11.6571   26.7712 N   0  0  0  0  0  0  0  0  0  0  0  0
    6.7806  -12.9709   26.3419 C   0  0  0  0  0  0  0  0  0  0  0  0
    6.6369  -13.9045   27.1537 O   0  0  0  0  0  0  0  0  0  0  0  0
    6.6605  -13.2661   24.8924 C   0  0  0  0  0  0  0  0  0  0  0  0
    7.7197  -14.2175   24.4120 C   0  0  2  0  0  0  0  0  0  0  0  0
    7.5452  -14.5892   23.0286 N   0  0  0  0  0  0  0  0  0  0  0  0
    7.9064  -15.3390   25.3388 C   0  0  0  0  0  0  0  0  0  0  0  0
    7.0069  -16.1395   25.6040 O   0  0  0  0  0  0  0  0  0  0  0  0
   11.7654  -19.2359   24.3086 N   0  0  0  0  0  0  0  0  0  0  0  0
   12.4760  -18.1855   24.9453 C   0  0  0  0  0  0  0  0  0  0  0  0
   13.6961  -18.0612   24.7443 O   0  0  0  0  0  0  0  0  0  0  0  0
   11.7792  -17.2443   25.8399 C   0  0  0  0  0  0  0  0  0  0  0  0
   10.3302  -17.5784   25.8859 C   0  0  0  0  0  0  0  0  0  0  0  0
    9.4964  -16.6959   26.7714 C   0  0  2  0  0  0  0  0  0  0  0  0
    9.1598  -15.5266   25.9620 N   0  0  0  0  0  0  0  0  0  0  0  0
   10.1477  -16.3216   28.0275 C   0  0  0  0  0  0  0  0  0  0  0  0
   10.3517  -17.2180   29.0594 O   0  0  0  0  0  0  0  0  0  0  0  0
   10.5488  -15.1443   28.2065 O   0  0  0  0  0  0  0  0  0  0  0  0
  2  3  2  0
  2  1  1  0
  4  2  1  0
  5  4  1  0
  6  5  1  0
  6  8  1  0
  6  7  1  1
  8 15  1  0
  8  9  2  0
 11 10  1  0
 12 11  2  0
 13 11  1  0
 14 13  1  1
 15 14  1  0
 16 14  1  0
 16 17  2  0
 18 19  1  0
 19 21  1  0
 20 19  2  0
 21 22  1  0
 23 22  1  6
 23 24  1  0
 24 16  1  0
 25 26  1  0
 25 23  1  0
 27 25  2  0
M  END
$$$$
