QNQ.pdb
     RDKit          3D

 27 26  0  0  1  0  0  0  0  0999 V2000
   11.9311  -14.5213   20.2351 N   0  0  0  0  0  0  0  0  0  0  0  0
   11.8546  -14.0026   18.9312 C   0  0  0  0  0  0  0  0  0  0  0  0
   12.7092  -14.3157   18.0761 O   0  0  0  0  0  0  0  0  0  0  0  0
   10.7752  -13.0714   18.5036 C   0  0  0  0  0  0  0  0  0  0  0  0
    9.5801  -13.1527   19.4162 C   0  0  0  0  0  0  0  0  0  0  0  0
    8.8615  -14.4277   19.1484 C   0  0  2  0  0  0  0  0  0  0  0  0
    7.9354  -14.2692   18.0781 N   0  0  0  0  0  0  0  0  0  0  0  0
    8.3045  -15.0497   20.3753 C   0  0  0  0  0  0  0  0  0  0  0  0
    7.3587  -14.4411   20.9330 O   0  0  0  0  0  0  0  0  0  0  0  0
    6.8118  -19.6068   23.5886 N   0  0  0  0  0  0  0  0  0  0  0  0
    8.0785  -19.0326   23.3665 C   0  0  0  0  0  0  0  0  0  0  0  0
    8.9621  -19.0456   24.2442 O   0  0  0  0  0  0  0  0  0  0  0  0
    8.3832  -18.3935   22.0622 C   0  0  0  0  0  0  0  0  0  0  0  0
    8.3309  -16.8935   22.1333 C   0  0  2  0  0  0  0  0  0  0  0  0
    8.7877  -16.2644   20.9175 N   0  0  0  0  0  0  0  0  0  0  0  0
    8.9428  -16.3842   23.3653 C   0  0  0  0  0  0  0  0  0  0  0  0
   10.1637  -16.3066   23.5187 O   0  0  0  0  0  0  0  0  0  0  0  0
    5.4683  -12.2562   25.9158 N   0  0  0  0  0  0  0  0  0  0  0  0
    6.5166  -12.1802   26.8692 C   0  0  0  0  0  0  0  0  0  0  0  0
    6.4503  -11.3458   27.7878 O   0  0  0  0  0  0  0  0  0  0  0  0
    7.6794  -13.0810   26.7774 C   0  0  0  0  0  0  0  0  0  0  0  0
    7.4526  -14.0815   25.7000 C   0  0  0  0  0  0  0  0  0  0  0  0
    8.5651  -15.0716   25.4998 C   0  0  2  0  0  0  0  0  0  0  0  0
    8.1170  -15.9604   24.4296 N   0  0  0  0  0  0  0  0  0  0  0  0
    8.9319  -15.8125   26.7075 C   0  0  0  0  0  0  0  0  0  0  0  0
    9.8284  -15.3252   27.6396 O   0  0  0  0  0  0  0  0  0  0  0  0
    8.4289  -16.9413   26.9352 O   0  0  0  0  0  0  0  0  0  0  0  0
  2  3  2  0
  2  1  1  0
  4  2  1  0
  5  4  1  0
  6  5  1  0
  6  8  1  0
  6  7  1  6
  8 15  1  0
  8  9  2  0
 11 10  1  0
 12 11  2  0
 13 11  1  0
 14 13  1  6
 15 14  1  0
 16 14  1  0
 16 17  2  0
 18 19  1  0
 19 21  1  0
 20 19  2  0
 21 22  1  0
 23 22  1  1
 23 24  1  0
 24 16  1  0
 25 26  1  0
 25 23  1  0
 27 25  2  0
M  END
$$$$
