RNE.pdb
     RDKit          3D

 29 28  0  0  1  0  0  0  0  0999 V2000
    7.5082  -13.9961   15.6009 N   0  0  0  0  0  0  0  0  0  0  0  0
    8.4776  -13.8083   16.6128 C   0  0  0  0  0  0  0  0  0  0  0  0
    8.0752  -13.4141   17.7928 N   0  0  0  0  0  0  0  0  0  0  0  0
    9.8572  -14.0233   16.4178 N   0  0  0  0  0  0  0  0  0  0  0  0
   10.3373  -15.2949   15.8602 C   0  0  0  0  0  0  0  0  0  0  0  0
    9.9881  -16.4357   16.7980 C   0  0  0  0  0  0  0  0  0  0  0  0
   10.7896  -16.4145   18.0464 C   0  0  0  0  0  0  0  0  0  0  0  0
   10.5523  -17.5653   18.9965 C   0  0  2  0  0  0  0  0  0  0  0  0
    9.1804  -17.3954   19.4681 N   0  0  0  0  0  0  0  0  0  0  0  0
   11.4941  -17.5930   20.1408 C   0  0  0  0  0  0  0  0  0  0  0  0
   11.2702  -16.8798   21.1831 O   0  0  0  0  0  0  0  0  0  0  0  0
    8.7420  -13.2189   18.5455 N   0  0  0  0  0  0  0  0  0  0  0  0
   13.5650  -20.0050   24.6138 C   0  0  0  0  0  0  0  0  0  0  0  0
   14.1943  -19.7956   23.3228 O   0  0  0  0  0  0  0  0  0  0  0  0
   15.4278  -19.9088   23.3384 C   0  0  0  0  0  0  0  0  0  0  0  0
   13.3454  -19.4878   22.1949 C   0  0  1  0  0  0  0  0  0  0  0  0
   13.6038  -18.2724   21.3626 N   0  0  0  0  0  0  0  0  0  0  0  0
   12.6581  -18.3666   20.1842 C   0  0  0  0  0  0  0  0  0  0  0  0
   14.9555  -18.1206   20.8229 O   0  0  0  0  0  0  0  0  0  0  0  0
   15.2598  -18.8510   19.7916 N   0  0  0  0  0  0  0  0  0  0  0  0
   15.9904  -17.2728   21.2693 C   0  0  1  0  0  0  0  0  0  0  0  0
   17.3085  -17.2995   20.6155 C   0  0  0  0  0  0  0  0  0  0  0  0
   17.9832  -16.0023   20.9050 C   0  0  0  0  0  0  0  0  0  0  0  0
   17.3784  -14.7882   20.3020 C   0  0  0  0  0  0  0  0  0  0  0  0
   18.0886  -13.5425   20.6317 O   0  0  0  0  0  0  0  0  0  0  0  0
   18.4270  -12.7578   19.7291 C   0  0  0  0  0  0  0  0  0  0  0  0
   18.1144  -18.4219   21.1180 O   0  0  0  0  0  0  0  0  0  0  0  0
   19.1452  -18.8392   20.5353 O   0  0  0  0  0  0  0  0  0  0  0  0
   18.3922  -13.2211   21.9436 O   0  0  0  0  0  0  0  0  0  0  0  0
  1  2  1  0
  2  3  2  0
  4  5  1  0
  4  2  1  0
  6  5  1  0
  7  6  1  0
  8 10  1  0
  8  7  1  0
  8  9  1  1
 10 11  2  0
 12 13  1  0
 13 14  2  0
 15 13  1  0
 16 15  1  1
 17 16  1  0
 17 10  1  0
 18 16  1  0
 18 19  2  0
 20 18  1  0
 21 20  1  0
 21 22  1  1
 22 23  1  0
 23 24  1  0
 24 28  1  0
 25 24  2  0
 26 21  1  0
 27 26  2  0
 29 26  1  0
M  END
$$$$
