RNE.pdb
     RDKit          3D

 29 28  0  0  1  0  0  0  0  0999 V2000
    7.3930  -12.7652   14.7059 N   0  0  0  0  0  0  0  0  0  0  0  0
    8.3060  -13.8330   14.8650 C   0  0  0  0  0  0  0  0  0  0  0  0
    8.6537  -14.5159   13.8055 N   0  0  0  0  0  0  0  0  0  0  0  0
    8.8625  -14.2020   16.1067 N   0  0  0  0  0  0  0  0  0  0  0  0
    8.0461  -14.9073   17.1040 C   0  0  0  0  0  0  0  0  0  0  0  0
    7.3502  -13.9046   18.0057 C   0  0  0  0  0  0  0  0  0  0  0  0
    8.0336  -13.7411   19.3124 C   0  0  0  0  0  0  0  0  0  0  0  0
    8.4602  -15.0210   19.9930 C   0  0  2  0  0  0  0  0  0  0  0  0
    7.3125  -15.9169   19.8771 N   0  0  0  0  0  0  0  0  0  0  0  0
    8.8345  -14.8396   21.4158 C   0  0  0  0  0  0  0  0  0  0  0  0
    9.7512  -14.0047   21.7443 O   0  0  0  0  0  0  0  0  0  0  0  0
    9.3835  -15.2331   13.8498 N   0  0  0  0  0  0  0  0  0  0  0  0
    7.2072  -12.7883   24.1618 C   0  0  0  0  0  0  0  0  0  0  0  0
    6.6741  -13.9650   24.8235 O   0  0  0  0  0  0  0  0  0  0  0  0
    5.6132  -13.7651   25.4310 C   0  0  0  0  0  0  0  0  0  0  0  0
    7.4113  -15.2022   24.7080 C   0  0  2  0  0  0  0  0  0  0  0  0
    8.6725  -15.2596   23.9062 N   0  0  0  0  0  0  0  0  0  0  0  0
    8.2459  -15.5308   22.4792 C   0  0  0  0  0  0  0  0  0  0  0  0
    9.6388  -16.2951   24.2743 O   0  0  0  0  0  0  0  0  0  0  0  0
    9.3075  -17.5247   24.0134 N   0  0  0  0  0  0  0  0  0  0  0  0
   10.9044  -16.1422   24.8775 C   0  0  1  0  0  0  0  0  0  0  0  0
   11.8605  -17.2607   24.8951 C   0  0  0  0  0  0  0  0  0  0  0  0
   13.1755  -16.7390   24.4256 C   0  0  0  0  0  0  0  0  0  0  0  0
   14.3071  -17.6995   24.4143 C   0  0  0  0  0  0  0  0  0  0  0  0
   15.5798  -17.1152   23.9631 O   0  0  0  0  0  0  0  0  0  0  0  0
   15.6372  -15.9173   23.6366 C   0  0  0  0  0  0  0  0  0  0  0  0
   11.9824  -17.8178   26.2503 O   0  0  0  0  0  0  0  0  0  0  0  0
   12.6640  -18.8392   26.5116 O   0  0  0  0  0  0  0  0  0  0  0  0
   16.7307  -17.8816   23.8933 O   0  0  0  0  0  0  0  0  0  0  0  0
  1  2  1  0
  2  3  2  0
  4  5  1  0
  4  2  1  0
  6  5  1  0
  7  6  1  0
  8 10  1  0
  8  7  1  0
  8  9  1  1
 10 11  2  0
 12 13  1  0
 13 14  2  0
 15 13  1  0
 16 15  1  6
 17 16  1  0
 17 10  1  0
 18 16  1  0
 18 19  2  0
 20 18  1  0
 21 20  1  0
 21 22  1  1
 22 23  1  0
 23 24  1  0
 24 28  1  0
 25 24  2  0
 26 21  1  0
 27 26  2  0
 29 26  1  0
M  END
$$$$
