RNE.pdb
     RDKit          3D

 29 28  0  0  1  0  0  0  0  0999 V2000
    7.6267  -13.3643   16.8115 N   0  0  0  0  0  0  0  0  0  0  0  0
    7.5483  -13.1526   18.2072 C   0  0  0  0  0  0  0  0  0  0  0  0
    7.6221  -11.9260   18.6544 N   0  0  0  0  0  0  0  0  0  0  0  0
    7.3951  -14.1944   19.1446 N   0  0  0  0  0  0  0  0  0  0  0  0
    7.1398  -15.5681   18.6904 C   0  0  0  0  0  0  0  0  0  0  0  0
    8.4035  -16.1588   18.0930 C   0  0  0  0  0  0  0  0  0  0  0  0
    9.5528  -16.1149   19.0302 C   0  0  0  0  0  0  0  0  0  0  0  0
    9.7419  -17.3414   19.8924 C   0  0  2  0  0  0  0  0  0  0  0  0
    8.4038  -17.9031   20.0574 N   0  0  0  0  0  0  0  0  0  0  0  0
   10.3481  -17.0497   21.2133 C   0  0  0  0  0  0  0  0  0  0  0  0
   11.5022  -16.4951   21.2895 O   0  0  0  0  0  0  0  0  0  0  0  0
    7.5498  -11.7183   19.6547 N   0  0  0  0  0  0  0  0  0  0  0  0
   10.1402  -15.6847   26.7379 C   0  0  0  0  0  0  0  0  0  0  0  0
    9.7260  -16.9642   26.1922 O   0  0  0  0  0  0  0  0  0  0  0  0
    9.7231  -17.8877   27.0178 C   0  0  0  0  0  0  0  0  0  0  0  0
    9.3730  -17.0238   24.7924 C   0  0  1  0  0  0  0  0  0  0  0  0
   10.4376  -17.0074   23.7421 N   0  0  0  0  0  0  0  0  0  0  0  0
    9.7414  -17.3389   22.4393 C   0  0  0  0  0  0  0  0  0  0  0  0
   11.5345  -17.9625   23.9031 O   0  0  0  0  0  0  0  0  0  0  0  0
   11.4111  -19.1043   23.2944 N   0  0  0  0  0  0  0  0  0  0  0  0
   12.7312  -17.8120   24.6343 C   0  0  1  0  0  0  0  0  0  0  0  0
   13.7385  -18.8846   24.6419 C   0  0  0  0  0  0  0  0  0  0  0  0
   14.6374  -18.6691   23.4726 C   0  0  0  0  0  0  0  0  0  0  0  0
   16.0965  -18.6696   23.7455 C   0  0  0  0  0  0  0  0  0  0  0  0
   16.9246  -18.4056   22.5583 O   0  0  0  0  0  0  0  0  0  0  0  0
   17.5795  -19.3238   22.0358 C   0  0  0  0  0  0  0  0  0  0  0  0
   14.5092  -18.8638   25.8938 O   0  0  0  0  0  0  0  0  0  0  0  0
   15.3784  -19.7244   26.1769 O   0  0  0  0  0  0  0  0  0  0  0  0
   16.9909  -17.1392   22.0030 O   0  0  0  0  0  0  0  0  0  0  0  0
  1  2  1  0
  2  3  2  0
  4  5  1  0
  4  2  1  0
  6  5  1  0
  7  6  1  0
  8 10  1  0
  8  7  1  0
  8  9  1  1
 10 11  2  0
 12 13  1  0
 13 14  2  0
 15 13  1  0
 16 15  1  6
 17 16  1  0
 17 10  1  0
 18 16  1  0
 18 19  2  0
 20 18  1  0
 21 20  1  0
 21 22  1  1
 22 23  1  0
 23 24  1  0
 24 28  1  0
 25 24  2  0
 26 21  1  0
 27 26  2  0
 29 26  1  0
M  END
$$$$
