RNE.pdb
     RDKit          3D

 29 28  0  0  1  0  0  0  0  0999 V2000
    6.9034  -13.0966   16.5229 N   0  0  0  0  0  0  0  0  0  0  0  0
    8.1306  -13.7948   16.5979 C   0  0  0  0  0  0  0  0  0  0  0  0
    8.4942  -14.5230   15.5745 N   0  0  0  0  0  0  0  0  0  0  0  0
    8.9846  -13.7486   17.7186 N   0  0  0  0  0  0  0  0  0  0  0  0
    8.4985  -13.2164   18.9989 C   0  0  0  0  0  0  0  0  0  0  0  0
    7.3062  -14.0248   19.4760 C   0  0  0  0  0  0  0  0  0  0  0  0
    7.4874  -14.5527   20.8507 C   0  0  0  0  0  0  0  0  0  0  0  0
    8.8694  -15.0692   21.1770 C   0  0  2  0  0  0  0  0  0  0  0  0
    9.1016  -16.1618   20.2359 N   0  0  0  0  0  0  0  0  0  0  0  0
    9.0088  -15.5489   22.5726 C   0  0  0  0  0  0  0  0  0  0  0  0
    8.3016  -15.0326   23.5100 O   0  0  0  0  0  0  0  0  0  0  0  0
    9.3536  -15.0799   15.5954 N   0  0  0  0  0  0  0  0  0  0  0  0
   11.0010  -19.9336   22.2730 C   0  0  0  0  0  0  0  0  0  0  0  0
   10.0831  -19.5500   23.3298 O   0  0  0  0  0  0  0  0  0  0  0  0
    9.0171  -20.1809   23.3259 C   0  0  0  0  0  0  0  0  0  0  0  0
   10.4950  -18.5089   24.2431 C   0  0  2  0  0  0  0  0  0  0  0  0
    9.7288  -17.2271   24.3248 N   0  0  0  0  0  0  0  0  0  0  0  0
    9.8838  -16.5633   22.9730 C   0  0  0  0  0  0  0  0  0  0  0  0
   10.1669  -16.2627   25.3344 O   0  0  0  0  0  0  0  0  0  0  0  0
   11.3218  -15.6979   25.1427 N   0  0  0  0  0  0  0  0  0  0  0  0
    9.4963  -15.8483   26.5039 C   0  0  1  0  0  0  0  0  0  0  0  0
   10.1242  -14.8822   27.4192 C   0  0  0  0  0  0  0  0  0  0  0  0
    9.1273  -13.8098   27.6981 C   0  0  0  0  0  0  0  0  0  0  0  0
    8.4818  -13.1782   26.5200 C   0  0  0  0  0  0  0  0  0  0  0  0
    7.4265  -12.2129   26.8654 O   0  0  0  0  0  0  0  0  0  0  0  0
    6.8290  -11.5923   25.9694 C   0  0  0  0  0  0  0  0  0  0  0  0
   10.5338  -15.5412   28.6681 O   0  0  0  0  0  0  0  0  0  0  0  0
   10.2099  -16.7189   28.9585 O   0  0  0  0  0  0  0  0  0  0  0  0
    7.0798  -11.9778   28.1849 O   0  0  0  0  0  0  0  0  0  0  0  0
  1  2  1  0
  2  3  2  0
  4  5  1  0
  4  2  1  0
  6  5  1  0
  7  6  1  0
  8 10  1  0
  8  7  1  0
  8  9  1  6
 10 11  2  0
 12 13  1  0
 13 14  2  0
 15 13  1  0
 16 15  1  6
 17 16  1  0
 17 10  1  0
 18 16  1  0
 18 19  2  0
 20 18  1  0
 21 20  1  0
 21 22  1  1
 22 23  1  0
 23 24  1  0
 24 28  1  0
 25 24  2  0
 26 21  1  0
 27 26  2  0
 29 26  1  0
M  END
$$$$
