RNE.pdb
     RDKit          3D

 29 28  0  0  1  0  0  0  0  0999 V2000
    8.3869  -14.9705   17.0284 N   0  0  0  0  0  0  0  0  0  0  0  0
    7.8131  -13.7134   17.3277 C   0  0  0  0  0  0  0  0  0  0  0  0
    8.1512  -12.6857   16.5934 N   0  0  0  0  0  0  0  0  0  0  0  0
    6.8946  -13.5078   18.3774 N   0  0  0  0  0  0  0  0  0  0  0  0
    7.3461  -13.5462   19.7749 C   0  0  0  0  0  0  0  0  0  0  0  0
    7.7958  -14.9501   20.1350 C   0  0  0  0  0  0  0  0  0  0  0  0
    8.1663  -15.0818   21.5656 C   0  0  0  0  0  0  0  0  0  0  0  0
    8.6172  -16.4567   22.0013 C   0  0  2  0  0  0  0  0  0  0  0  0
    7.9193  -17.3863   21.1170 N   0  0  0  0  0  0  0  0  0  0  0  0
    8.3091  -16.7598   23.4192 C   0  0  0  0  0  0  0  0  0  0  0  0
    8.7166  -15.9804   24.3529 O   0  0  0  0  0  0  0  0  0  0  0  0
    7.8053  -11.7446   16.8025 N   0  0  0  0  0  0  0  0  0  0  0  0
    6.8848  -20.3646   23.5693 C   0  0  0  0  0  0  0  0  0  0  0  0
    5.8518  -20.0413   24.5361 O   0  0  0  0  0  0  0  0  0  0  0  0
    4.8773  -20.8057   24.5080 C   0  0  0  0  0  0  0  0  0  0  0  0
    6.0614  -18.9018   25.3994 C   0  0  1  0  0  0  0  0  0  0  0  0
    7.3311  -18.1154   25.3195 N   0  0  0  0  0  0  0  0  0  0  0  0
    7.5776  -17.8725   23.8456 C   0  0  0  0  0  0  0  0  0  0  0  0
    8.5328  -18.7506   25.8614 O   0  0  0  0  0  0  0  0  0  0  0  0
    8.8124  -19.9429   25.4255 N   0  0  0  0  0  0  0  0  0  0  0  0
    9.4499  -18.2382   26.8024 C   0  0  1  0  0  0  0  0  0  0  0  0
   10.5684  -19.0671   27.2791 C   0  0  0  0  0  0  0  0  0  0  0  0
   11.8193  -18.5323   26.6700 C   0  0  0  0  0  0  0  0  0  0  0  0
   12.0090  -18.7744   25.2179 C   0  0  0  0  0  0  0  0  0  0  0  0
   13.2697  -18.2357   24.6839 O   0  0  0  0  0  0  0  0  0  0  0  0
   14.0449  -17.6073   25.4249 C   0  0  0  0  0  0  0  0  0  0  0  0
   10.6537  -19.0292   28.7464 O   0  0  0  0  0  0  0  0  0  0  0  0
    9.9156  -18.3031   29.4564 O   0  0  0  0  0  0  0  0  0  0  0  0
   13.6159  -18.4161   23.3557 O   0  0  0  0  0  0  0  0  0  0  0  0
  1  2  1  0
  2  3  2  0
  4  5  1  0
  4  2  1  0
  6  5  1  0
  7  6  1  0
  8 10  1  0
  8  7  1  0
  8  9  1  6
 10 11  2  0
 12 13  1  0
 13 14  2  0
 15 13  1  0
 16 15  1  1
 17 16  1  0
 17 10  1  0
 18 16  1  0
 18 19  2  0
 20 18  1  0
 21 20  1  0
 21 22  1  1
 22 23  1  0
 23 24  1  0
 24 28  1  0
 25 24  2  0
 26 21  1  0
 27 26  2  0
 29 26  1  0
M  END
$$$$
