RNE.pdb
     RDKit          3D

 29 28  0  0  1  0  0  0  0  0999 V2000
    7.5607  -14.0709   15.8644 N   0  0  0  0  0  0  0  0  0  0  0  0
    8.5994  -13.7429   16.7659 C   0  0  0  0  0  0  0  0  0  0  0  0
    8.4586  -12.6810   17.5158 N   0  0  0  0  0  0  0  0  0  0  0  0
    9.7810  -14.5002   16.8999 N   0  0  0  0  0  0  0  0  0  0  0  0
    9.9039  -15.4981   17.9712 C   0  0  0  0  0  0  0  0  0  0  0  0
    9.0598  -15.0847   19.1626 C   0  0  0  0  0  0  0  0  0  0  0  0
    9.1841  -16.0243   20.3041 C   0  0  0  0  0  0  0  0  0  0  0  0
    8.0861  -15.9459   21.3392 C   0  0  2  0  0  0  0  0  0  0  0  0
    7.2224  -14.8535   20.8989 N   0  0  0  0  0  0  0  0  0  0  0  0
    8.5832  -15.6923   22.7125 C   0  0  0  0  0  0  0  0  0  0  0  0
    9.6118  -14.9502   22.9037 O   0  0  0  0  0  0  0  0  0  0  0  0
    9.2154  -12.3535   18.1233 N   0  0  0  0  0  0  0  0  0  0  0  0
    7.5972  -13.1800   24.7478 C   0  0  0  0  0  0  0  0  0  0  0  0
    6.9001  -13.9757   25.7416 O   0  0  0  0  0  0  0  0  0  0  0  0
    5.9343  -13.4002   26.2618 C   0  0  0  0  0  0  0  0  0  0  0  0
    7.3891  -15.3085   26.0100 C   0  0  2  0  0  0  0  0  0  0  0  0
    8.5447  -15.8604   25.2375 N   0  0  0  0  0  0  0  0  0  0  0  0
    7.9995  -16.2152   23.8704 C   0  0  0  0  0  0  0  0  0  0  0  0
    9.1811  -17.0630   25.7762 O   0  0  0  0  0  0  0  0  0  0  0  0
    8.7935  -18.2016   25.2832 N   0  0  0  0  0  0  0  0  0  0  0  0
   10.1785  -17.1606   26.7686 C   0  0  1  0  0  0  0  0  0  0  0  0
   10.7012  -18.4758   27.1716 C   0  0  0  0  0  0  0  0  0  0  0  0
   11.9954  -18.6847   26.4624 C   0  0  0  0  0  0  0  0  0  0  0  0
   12.7917  -19.8707   26.8658 C   0  0  0  0  0  0  0  0  0  0  0  0
   14.0839  -19.9847   26.1714 O   0  0  0  0  0  0  0  0  0  0  0  0
   15.1121  -19.5076   26.6812 C   0  0  0  0  0  0  0  0  0  0  0  0
   10.8975  -18.5321   28.6277 O   0  0  0  0  0  0  0  0  0  0  0  0
   11.2824  -19.5660   29.2269 O   0  0  0  0  0  0  0  0  0  0  0  0
   14.1804  -20.6209   24.9456 O   0  0  0  0  0  0  0  0  0  0  0  0
  1  2  1  0
  2  3  2  0
  4  5  1  0
  4  2  1  0
  6  5  1  0
  7  6  1  0
  8 10  1  0
  8  7  1  0
  8  9  1  6
 10 11  2  0
 12 13  1  0
 13 14  2  0
 15 13  1  0
 16 15  1  6
 17 16  1  0
 17 10  1  0
 18 16  1  0
 18 19  2  0
 20 18  1  0
 21 20  1  0
 21 22  1  1
 22 23  1  0
 23 24  1  0
 24 28  1  0
 25 24  2  0
 26 21  1  0
 27 26  2  0
 29 26  1  0
M  END
$$$$
