MFD.pdb
     RDKit          3D

 28 28  0  0  1  0  0  0  0  0999 V2000
    7.8770  -11.3568   19.7704 C   0  0  0  0  0  0  0  0  0  0  0  0
    7.5457  -12.8025   18.7934 S   0  0  0  0  0  0  0  0  0  0  0  0
    7.5827  -14.3274   19.6816 C   0  0  0  0  0  0  0  0  0  0  0  0
    8.7213  -14.4407   20.6340 C   0  0  0  0  0  0  0  0  0  0  0  0
    8.7930  -15.7823   21.2804 C   0  0  2  0  0  0  0  0  0  0  0  0
    7.4999  -16.4322   21.1768 N   0  0  0  0  0  0  0  0  0  0  0  0
    9.1990  -15.6701   22.7248 C   0  0  0  0  0  0  0  0  0  0  0  0
   10.3140  -15.2075   23.0788 O   0  0  0  0  0  0  0  0  0  0  0  0
    8.3306  -16.0872   23.7697 N   0  0  0  0  0  0  0  0  0  0  0  0
    8.7296  -16.1091   25.1689 C   0  0  1  0  0  0  0  0  0  0  0  0
    7.5951  -15.8765   26.0954 C   0  0  0  0  0  0  0  0  0  0  0  0
    7.2792  -14.4365   26.2307 C   0  0  0  0  0  0  0  0  0  0  0  0
    6.1091  -13.8693   25.8209 C   0  0  0  0  0  0  0  0  0  0  0  0
    5.9205  -12.5180   26.0039 C   0  0  0  0  0  0  0  0  0  0  0  0
    6.9105  -11.7386   26.5997 C   0  0  0  0  0  0  0  0  0  0  0  0
    8.0937  -12.3129   27.0139 C   0  0  0  0  0  0  0  0  0  0  0  0
    8.2666  -13.6517   26.8263 C   0  0  0  0  0  0  0  0  0  0  0  0
    9.4801  -17.3454   25.4935 C   0  0  0  0  0  0  0  0  0  0  0  0
    9.4246  -18.3978   24.8171 O   0  0  0  0  0  0  0  0  0  0  0  0
   10.3462  -17.4147   26.6422 N   0  0  0  0  0  0  0  0  0  0  0  0
   11.0753  -18.6517   26.9810 C   0  0  1  0  0  0  0  0  0  0  0  0
   12.4500  -18.5028   26.4247 C   0  0  0  0  0  0  0  0  0  0  0  0
   12.6516  -18.9477   25.0487 C   0  0  0  0  0  0  0  0  0  0  0  0
   11.8119  -19.4300   24.2680 O   0  0  0  0  0  0  0  0  0  0  0  0
   11.0541  -18.7867   28.4479 C   0  0  0  0  0  0  0  0  0  0  0  0
   11.5303  -19.8142   28.9790 O   0  0  0  0  0  0  0  0  0  0  0  0
   13.9612  -18.8121   24.5469 O   0  0  0  0  0  0  0  0  0  0  0  0
   10.5279  -17.8224   29.2771 O   0  0  0  0  0  0  0  0  0  0  0  0
  2  1  1  0
  3  4  1  0
  3  2  1  0
  5  4  1  0
  5  6  1  1
  7  8  2  0
  7  5  1  0
  9  7  1  0
 10  9  1  0
 11 12  1  0
 10 11  1  1
 12 13  2  0
 13 14  1  0
 15 14  2  0
 16 15  1  0
 17 12  1  0
 17 16  2  0
 18 20  1  0
 18 10  1  0
 19 18  2  0
 21 20  1  0
 21 25  1  0
 21 22  1  1
 23 22  1  0
 24 23  2  0
 25 28  1  0
 26 25  2  0
 27 23  1  0
M  END
$$$$
