MFD.pdb
     RDKit          3D

 28 28  0  0  1  0  0  0  0  0999 V2000
    6.5916  -12.7693   20.1193 C   0  0  0  0  0  0  0  0  0  0  0  0
    7.5762  -13.8685   19.1312 S   0  0  0  0  0  0  0  0  0  0  0  0
    7.3500  -15.5849   19.4748 C   0  0  0  0  0  0  0  0  0  0  0  0
    7.8988  -16.0117   20.7913 C   0  0  0  0  0  0  0  0  0  0  0  0
    9.0450  -15.1664   21.2325 C   0  0  2  0  0  0  0  0  0  0  0  0
   10.1979  -15.4519   20.3992 N   0  0  0  0  0  0  0  0  0  0  0  0
    9.3800  -15.4146   22.6782 C   0  0  0  0  0  0  0  0  0  0  0  0
   10.5524  -15.6497   23.0689 O   0  0  0  0  0  0  0  0  0  0  0  0
    8.3744  -15.3948   23.6824 N   0  0  0  0  0  0  0  0  0  0  0  0
    8.6497  -15.6745   25.0836 C   0  0  1  0  0  0  0  0  0  0  0  0
    7.5137  -15.3326   25.9736 C   0  0  0  0  0  0  0  0  0  0  0  0
    7.4074  -13.8730   26.1970 C   0  0  0  0  0  0  0  0  0  0  0  0
    8.4327  -13.0911   26.6399 C   0  0  0  0  0  0  0  0  0  0  0  0
    8.2214  -11.7409   26.8049 C   0  0  0  0  0  0  0  0  0  0  0  0
    6.9775  -11.1787   26.5238 C   0  0  0  0  0  0  0  0  0  0  0  0
    5.9409  -11.9700   26.0759 C   0  0  0  0  0  0  0  0  0  0  0  0
    6.1644  -13.3050   25.9172 C   0  0  0  0  0  0  0  0  0  0  0  0
    9.1144  -17.0696   25.2710 C   0  0  0  0  0  0  0  0  0  0  0  0
    8.4924  -18.0770   24.8632 O   0  0  0  0  0  0  0  0  0  0  0  0
   10.3482  -17.3615   25.9544 N   0  0  0  0  0  0  0  0  0  0  0  0
   10.8029  -18.7499   26.1595 C   0  0  1  0  0  0  0  0  0  0  0  0
   12.2550  -18.7773   25.8247 C   0  0  0  0  0  0  0  0  0  0  0  0
   12.6299  -19.4613   24.5904 C   0  0  0  0  0  0  0  0  0  0  0  0
   11.8925  -20.0793   23.8019 O   0  0  0  0  0  0  0  0  0  0  0  0
   10.5238  -19.1011   27.5628 C   0  0  0  0  0  0  0  0  0  0  0  0
   10.7909  -20.2515   27.9748 O   0  0  0  0  0  0  0  0  0  0  0  0
   13.9973  -19.4130   24.2545 O   0  0  0  0  0  0  0  0  0  0  0  0
    9.9750  -18.2115   28.4582 O   0  0  0  0  0  0  0  0  0  0  0  0
  2  1  1  0
  3  4  1  0
  3  2  1  0
  5  4  1  0
  5  6  1  6
  7  8  2  0
  7  5  1  0
  9  7  1  0
 10  9  1  0
 11 12  1  0
 10 11  1  1
 12 13  2  0
 13 14  1  0
 15 14  2  0
 16 15  1  0
 17 12  1  0
 17 16  2  0
 18 20  1  0
 18 10  1  0
 19 18  2  0
 21 20  1  0
 21 25  1  0
 21 22  1  1
 23 22  1  0
 24 23  2  0
 25 28  1  0
 26 25  2  0
 27 23  1  0
M  END
$$$$
