MFD.pdb
     RDKit          3D

 28 28  0  0  1  0  0  0  0  0999 V2000
    7.8863  -12.4011   18.2227 C   0  0  0  0  0  0  0  0  0  0  0  0
    7.5468  -14.0744   17.7339 S   0  0  0  0  0  0  0  0  0  0  0  0
    7.9164  -15.2969   18.9523 C   0  0  0  0  0  0  0  0  0  0  0  0
    9.3134  -15.2333   19.4631 C   0  0  0  0  0  0  0  0  0  0  0  0
    9.5559  -16.1892   20.5811 C   0  0  2  0  0  0  0  0  0  0  0  0
    8.5244  -17.2095   20.5699 N   0  0  0  0  0  0  0  0  0  0  0  0
    9.5670  -15.4824   21.9093 C   0  0  0  0  0  0  0  0  0  0  0  0
   10.5993  -14.9336   22.3736 O   0  0  0  0  0  0  0  0  0  0  0  0
    8.3966  -15.4012   22.7115 N   0  0  0  0  0  0  0  0  0  0  0  0
    8.3328  -14.6274   23.9422 C   0  0  1  0  0  0  0  0  0  0  0  0
    7.0296  -13.9437   24.1262 C   0  0  0  0  0  0  0  0  0  0  0  0
    7.0010  -13.1342   25.3654 C   0  0  0  0  0  0  0  0  0  0  0  0
    7.7210  -11.9911   25.5481 C   0  0  0  0  0  0  0  0  0  0  0  0
    7.6107  -11.3144   26.7418 C   0  0  0  0  0  0  0  0  0  0  0  0
    6.7751  -11.7894   27.7510 C   0  0  0  0  0  0  0  0  0  0  0  0
    6.0472  -12.9458   27.5657 C   0  0  0  0  0  0  0  0  0  0  0  0
    6.1663  -13.6052   26.3789 C   0  0  0  0  0  0  0  0  0  0  0  0
    8.7087  -15.4524   25.1149 C   0  0  0  0  0  0  0  0  0  0  0  0
    8.7041  -15.0361   26.2959 O   0  0  0  0  0  0  0  0  0  0  0  0
    9.1147  -16.8260   24.9638 N   0  0  0  0  0  0  0  0  0  0  0  0
    9.4711  -17.6545   26.1313 C   0  0  1  0  0  0  0  0  0  0  0  0
    8.8048  -18.9736   25.9378 C   0  0  0  0  0  0  0  0  0  0  0  0
    9.1466  -20.0261   26.8904 C   0  0  0  0  0  0  0  0  0  0  0  0
    9.9044  -19.9534   27.8740 O   0  0  0  0  0  0  0  0  0  0  0  0
   10.9409  -17.7469   26.1724 C   0  0  0  0  0  0  0  0  0  0  0  0
   11.5124  -17.9957   27.2569 O   0  0  0  0  0  0  0  0  0  0  0  0
    8.5406  -21.2777   26.6636 O   0  0  0  0  0  0  0  0  0  0  0  0
   11.7297  -17.5705   25.0584 O   0  0  0  0  0  0  0  0  0  0  0  0
  2  1  1  0
  3  4  1  0
  3  2  1  0
  5  4  1  0
  5  6  1  1
  7  8  2  0
  7  5  1  0
  9  7  1  0
 10  9  1  0
 11 12  1  0
 10 11  1  1
 12 13  2  0
 13 14  1  0
 15 14  2  0
 16 15  1  0
 17 12  1  0
 17 16  2  0
 18 20  1  0
 18 10  1  0
 19 18  2  0
 21 20  1  0
 21 25  1  0
 21 22  1  6
 23 22  1  0
 24 23  2  0
 25 28  1  0
 26 25  2  0
 27 23  1  0
M  END
$$$$
