MFD.pdb
     RDKit          3D

 28 28  0  0  1  0  0  0  0  0999 V2000
    7.6095  -20.5011   19.9776 C   0  0  0  0  0  0  0  0  0  0  0  0
    7.6405  -19.4582   18.5404 S   0  0  0  0  0  0  0  0  0  0  0  0
    8.1914  -17.8063   18.8294 C   0  0  0  0  0  0  0  0  0  0  0  0
    8.5209  -17.5231   20.2533 C   0  0  0  0  0  0  0  0  0  0  0  0
    8.4769  -16.0670   20.5702 C   0  0  2  0  0  0  0  0  0  0  0  0
    9.3848  -15.3582   19.6879 N   0  0  0  0  0  0  0  0  0  0  0  0
    8.8482  -15.8104   22.0055 C   0  0  0  0  0  0  0  0  0  0  0  0
   10.0424  -15.6973   22.3842 O   0  0  0  0  0  0  0  0  0  0  0  0
    7.8540  -15.6825   23.0131 N   0  0  0  0  0  0  0  0  0  0  0  0
    8.1580  -15.7303   24.4354 C   0  0  1  0  0  0  0  0  0  0  0  0
    7.0011  -15.3568   25.2849 C   0  0  0  0  0  0  0  0  0  0  0  0
    7.0848  -13.9521   25.7449 C   0  0  0  0  0  0  0  0  0  0  0  0
    8.2195  -13.3738   26.2315 C   0  0  0  0  0  0  0  0  0  0  0  0
    8.1828  -12.0549   26.6243 C   0  0  0  0  0  0  0  0  0  0  0  0
    7.0032  -11.3191   26.5268 C   0  0  0  0  0  0  0  0  0  0  0  0
    5.8558  -11.9046   26.0347 C   0  0  0  0  0  0  0  0  0  0  0  0
    5.9069  -13.2110   25.6497 C   0  0  0  0  0  0  0  0  0  0  0  0
    8.7393  -17.0396   24.8161 C   0  0  0  0  0  0  0  0  0  0  0  0
    8.7149  -18.0569   24.0863 O   0  0  0  0  0  0  0  0  0  0  0  0
    9.3884  -17.2283   26.0880 N   0  0  0  0  0  0  0  0  0  0  0  0
   10.3389  -18.3348   26.3087 C   0  0  1  0  0  0  0  0  0  0  0  0
   11.4059  -18.1928   25.2777 C   0  0  0  0  0  0  0  0  0  0  0  0
   12.5558  -19.0847   25.3980 C   0  0  0  0  0  0  0  0  0  0  0  0
   13.1443  -19.4414   26.4341 O   0  0  0  0  0  0  0  0  0  0  0  0
   10.8437  -18.2122   27.6873 C   0  0  0  0  0  0  0  0  0  0  0  0
   10.9293  -19.2331   28.4051 O   0  0  0  0  0  0  0  0  0  0  0  0
   13.0577  -19.6032   24.1879 O   0  0  0  0  0  0  0  0  0  0  0  0
   11.2327  -17.0105   28.2340 O   0  0  0  0  0  0  0  0  0  0  0  0
  2  1  1  0
  3  4  1  0
  3  2  1  0
  5  4  1  0
  5  6  1  6
  7  8  2  0
  7  5  1  0
  9  7  1  0
 10  9  1  0
 11 12  1  0
 10 11  1  1
 12 13  2  0
 13 14  1  0
 15 14  2  0
 16 15  1  0
 17 12  1  0
 17 16  2  0
 18 20  1  0
 18 10  1  0
 19 18  2  0
 21 20  1  0
 21 25  1  0
 21 22  1  6
 23 22  1  0
 24 23  2  0
 25 28  1  0
 26 25  2  0
 27 23  1  0
M  END
$$$$
