MFD.pdb
     RDKit          3D

 28 28  0  0  1  0  0  0  0  0999 V2000
    8.0591  -11.8185   19.1717 C   0  0  0  0  0  0  0  0  0  0  0  0
    7.0430  -13.2403   18.8552 S   0  0  0  0  0  0  0  0  0  0  0  0
    7.5322  -14.7099   19.7016 C   0  0  0  0  0  0  0  0  0  0  0  0
    8.4000  -14.4610   20.8855 C   0  0  0  0  0  0  0  0  0  0  0  0
    8.7891  -15.7203   21.5823 C   0  0  2  0  0  0  0  0  0  0  0  0
    7.7205  -16.6922   21.4451 N   0  0  0  0  0  0  0  0  0  0  0  0
    9.0752  -15.4712   23.0382 C   0  0  0  0  0  0  0  0  0  0  0  0
   10.1119  -14.8766   23.4306 O   0  0  0  0  0  0  0  0  0  0  0  0
    8.1758  -15.9020   24.0509 N   0  0  0  0  0  0  0  0  0  0  0  0
    8.4345  -15.7153   25.4707 C   0  0  1  0  0  0  0  0  0  0  0  0
    7.2200  -15.3362   26.2329 C   0  0  0  0  0  0  0  0  0  0  0  0
    6.9441  -13.8843   26.1451 C   0  0  0  0  0  0  0  0  0  0  0  0
    5.7721  -13.3554   25.6919 C   0  0  0  0  0  0  0  0  0  0  0  0
    5.6232  -11.9872   25.6610 C   0  0  0  0  0  0  0  0  0  0  0  0
    6.6549  -11.1524   26.0864 C   0  0  0  0  0  0  0  0  0  0  0  0
    7.8401  -11.6879   26.5445 C   0  0  0  0  0  0  0  0  0  0  0  0
    7.9734  -13.0440   26.5696 C   0  0  0  0  0  0  0  0  0  0  0  0
    9.1205  -16.8944   26.0506 C   0  0  0  0  0  0  0  0  0  0  0  0
    9.4352  -16.9993   27.2581 O   0  0  0  0  0  0  0  0  0  0  0  0
    9.4781  -18.0272   25.2362 N   0  0  0  0  0  0  0  0  0  0  0  0
   10.1034  -19.2280   25.8224 C   0  0  1  0  0  0  0  0  0  0  0  0
    9.5163  -20.4024   25.1170 C   0  0  0  0  0  0  0  0  0  0  0  0
    8.1398  -20.7503   25.4578 C   0  0  0  0  0  0  0  0  0  0  0  0
    7.3981  -20.2105   26.2978 O   0  0  0  0  0  0  0  0  0  0  0  0
   11.5589  -19.1036   25.6308 C   0  0  0  0  0  0  0  0  0  0  0  0
   12.0027  -18.2828   24.7978 O   0  0  0  0  0  0  0  0  0  0  0  0
    7.5871  -21.8323   24.7444 O   0  0  0  0  0  0  0  0  0  0  0  0
   12.4699  -19.8578   26.3348 O   0  0  0  0  0  0  0  0  0  0  0  0
  2  1  1  0
  3  4  1  0
  3  2  1  0
  5  4  1  0
  5  6  1  1
  7  8  2  0
  7  5  1  0
  9  7  1  0
 10  9  1  0
 11 12  1  0
 10 11  1  1
 12 13  2  0
 13 14  1  0
 15 14  2  0
 16 15  1  0
 17 12  1  0
 17 16  2  0
 18 20  1  0
 18 10  1  0
 19 18  2  0
 21 20  1  0
 21 25  1  0
 21 22  1  6
 23 22  1  0
 24 23  2  0
 25 28  1  0
 26 25  2  0
 27 23  1  0
M  END
$$$$
