MFD.pdb
     RDKit          3D

 28 28  0  0  1  0  0  0  0  0999 V2000
    4.0291  -17.4082   21.6951 C   0  0  0  0  0  0  0  0  0  0  0  0
    4.8732  -18.4517   20.5320 S   0  0  0  0  0  0  0  0  0  0  0  0
    6.5331  -17.9739   20.1691 C   0  0  0  0  0  0  0  0  0  0  0  0
    7.3168  -17.5662   21.3676 C   0  0  0  0  0  0  0  0  0  0  0  0
    7.5639  -16.0967   21.4147 C   0  0  2  0  0  0  0  0  0  0  0  0
    8.4153  -15.7193   20.3021 N   0  0  0  0  0  0  0  0  0  0  0  0
    8.2056  -15.6936   22.7144 C   0  0  0  0  0  0  0  0  0  0  0  0
    9.4134  -15.3510   22.7935 O   0  0  0  0  0  0  0  0  0  0  0  0
    7.4675  -15.6813   23.9290 N   0  0  0  0  0  0  0  0  0  0  0  0
    8.0546  -15.3120   25.2081 C   0  0  1  0  0  0  0  0  0  0  0  0
    7.0571  -14.7798   26.1680 C   0  0  0  0  0  0  0  0  0  0  0  0
    6.9579  -13.3043   26.0998 C   0  0  0  0  0  0  0  0  0  0  0  0
    7.8814  -12.5035   25.4960 C   0  0  0  0  0  0  0  0  0  0  0  0
    7.6821  -11.1414   25.4869 C   0  0  0  0  0  0  0  0  0  0  0  0
    6.5526  -10.5865   26.0859 C   0  0  0  0  0  0  0  0  0  0  0  0
    5.6190  -11.3970   26.6965 C   0  0  0  0  0  0  0  0  0  0  0  0
    5.8293  -12.7435   26.6979 C   0  0  0  0  0  0  0  0  0  0  0  0
    8.8470  -16.4280   25.7771 C   0  0  0  0  0  0  0  0  0  0  0  0
    9.3689  -16.4090   26.9152 O   0  0  0  0  0  0  0  0  0  0  0  0
    9.0722  -17.6407   25.0333 N   0  0  0  0  0  0  0  0  0  0  0  0
    9.7656  -18.7946   25.6369 C   0  0  1  0  0  0  0  0  0  0  0  0
    9.1127  -20.0181   25.0909 C   0  0  0  0  0  0  0  0  0  0  0  0
    8.2075  -20.7326   25.9865 C   0  0  0  0  0  0  0  0  0  0  0  0
    7.9876  -20.5116   27.1907 O   0  0  0  0  0  0  0  0  0  0  0  0
   11.1906  -18.6877   25.2784 C   0  0  0  0  0  0  0  0  0  0  0  0
   12.0582  -18.7474   26.1775 O   0  0  0  0  0  0  0  0  0  0  0  0
    7.4969  -21.8047   25.4113 O   0  0  0  0  0  0  0  0  0  0  0  0
   11.6221  -18.5231   23.9818 O   0  0  0  0  0  0  0  0  0  0  0  0
  2  1  1  0
  3  4  1  0
  3  2  1  0
  5  4  1  0
  5  6  1  6
  7  8  2  0
  7  5  1  0
  9  7  1  0
 10  9  1  0
 11 12  1  0
 10 11  1  1
 12 13  2  0
 13 14  1  0
 15 14  2  0
 16 15  1  0
 17 12  1  0
 17 16  2  0
 18 20  1  0
 18 10  1  0
 19 18  2  0
 21 20  1  0
 21 25  1  0
 21 22  1  6
 23 22  1  0
 24 23  2  0
 25 28  1  0
 26 25  2  0
 27 23  1  0
M  END
$$$$
