MFD.pdb
     RDKit          3D

 28 28  0  0  1  0  0  0  0  0999 V2000
    7.5270  -11.4383   19.3712 C   0  0  0  0  0  0  0  0  0  0  0  0
    7.2184  -12.7835   18.2535 S   0  0  0  0  0  0  0  0  0  0  0  0
    7.4423  -14.3927   18.9434 C   0  0  0  0  0  0  0  0  0  0  0  0
    8.6535  -14.5161   19.8002 C   0  0  0  0  0  0  0  0  0  0  0  0
    8.7228  -15.8283   20.5044 C   0  0  2  0  0  0  0  0  0  0  0  0
    7.3945  -16.4089   20.5650 N   0  0  0  0  0  0  0  0  0  0  0  0
    9.2808  -15.6726   21.8930 C   0  0  0  0  0  0  0  0  0  0  0  0
   10.4792  -15.3562   22.1075 O   0  0  0  0  0  0  0  0  0  0  0  0
    8.4693  -15.8786   23.0415 N   0  0  0  0  0  0  0  0  0  0  0  0
    8.9850  -15.7970   24.3998 C   0  0  1  0  0  0  0  0  0  0  0  0
    7.9192  -15.5851   25.4091 C   0  0  0  0  0  0  0  0  0  0  0  0
    8.4340  -14.9107   26.6223 C   0  0  0  0  0  0  0  0  0  0  0  0
    8.9962  -15.5635   27.6789 C   0  0  0  0  0  0  0  0  0  0  0  0
    9.4483  -14.8318   28.7537 C   0  0  0  0  0  0  0  0  0  0  0  0
    9.3339  -13.4428   28.7638 C   0  0  0  0  0  0  0  0  0  0  0  0
    8.7651  -12.7831   27.6949 C   0  0  0  0  0  0  0  0  0  0  0  0
    8.3219  -13.5204   26.6377 C   0  0  0  0  0  0  0  0  0  0  0  0
    9.8421  -16.9634   24.7193 C   0  0  0  0  0  0  0  0  0  0  0  0
   10.2489  -17.7887   23.8698 O   0  0  0  0  0  0  0  0  0  0  0  0
   10.2733  -17.2276   26.0679 N   0  0  0  0  0  0  0  0  0  0  0  0
   11.2231  -18.3149   26.3716 C   0  0  1  0  0  0  0  0  0  0  0  0
   12.4630  -18.0276   25.5961 C   0  0  0  0  0  0  0  0  0  0  0  0
   13.6219  -18.8698   25.8780 C   0  0  0  0  0  0  0  0  0  0  0  0
   13.6850  -19.8621   26.6254 O   0  0  0  0  0  0  0  0  0  0  0  0
   11.4373  -18.3171   27.8292 C   0  0  0  0  0  0  0  0  0  0  0  0
   11.5203  -17.2293   28.4412 O   0  0  0  0  0  0  0  0  0  0  0  0
   14.8148  -18.5105   25.2199 O   0  0  0  0  0  0  0  0  0  0  0  0
   11.5521  -19.4755   28.5635 O   0  0  0  0  0  0  0  0  0  0  0  0
  2  1  1  0
  3  4  1  0
  3  2  1  0
  5  4  1  0
  5  6  1  1
  7  8  2  0
  7  5  1  0
  9  7  1  0
 10  9  1  0
 11 12  1  0
 10 11  1  1
 12 13  2  0
 13 14  1  0
 15 14  2  0
 16 15  1  0
 17 12  1  0
 17 16  2  0
 18 20  1  0
 18 10  1  0
 19 18  2  0
 21 20  1  0
 21 25  1  0
 21 22  1  6
 23 22  1  0
 24 23  2  0
 25 28  1  0
 26 25  2  0
 27 23  1  0
M  END
$$$$
