MFD.pdb
     RDKit          3D

 28 28  0  0  1  0  0  0  0  0999 V2000
    8.0937  -11.4360   19.4071 C   0  0  0  0  0  0  0  0  0  0  0  0
    7.8815  -12.9210   18.4564 S   0  0  0  0  0  0  0  0  0  0  0  0
    7.9138  -14.4169   19.3927 C   0  0  0  0  0  0  0  0  0  0  0  0
    8.5493  -14.2744   20.7315 C   0  0  0  0  0  0  0  0  0  0  0  0
    8.8773  -15.5906   21.3502 C   0  0  2  0  0  0  0  0  0  0  0  0
    7.7154  -16.4564   21.2760 N   0  0  0  0  0  0  0  0  0  0  0  0
    9.3074  -15.4270   22.7827 C   0  0  0  0  0  0  0  0  0  0  0  0
   10.4193  -14.9329   23.1017 O   0  0  0  0  0  0  0  0  0  0  0  0
    8.4664  -15.8287   23.8558 N   0  0  0  0  0  0  0  0  0  0  0  0
    8.8110  -15.6164   25.2535 C   0  0  1  0  0  0  0  0  0  0  0  0
    7.6199  -15.4942   26.1287 C   0  0  0  0  0  0  0  0  0  0  0  0
    7.1560  -14.0926   26.2371 C   0  0  0  0  0  0  0  0  0  0  0  0
    5.8456  -13.7257   26.3204 C   0  0  0  0  0  0  0  0  0  0  0  0
    5.5301  -12.3899   26.4255 C   0  0  0  0  0  0  0  0  0  0  0  0
    6.5346  -11.4241   26.4465 C   0  0  0  0  0  0  0  0  0  0  0  0
    7.8598  -11.7957   26.3621 C   0  0  0  0  0  0  0  0  0  0  0  0
    8.1574  -13.1216   26.2585 C   0  0  0  0  0  0  0  0  0  0  0  0
    9.7622  -16.6467   25.7341 C   0  0  0  0  0  0  0  0  0  0  0  0
    9.9862  -16.8853   26.9428 O   0  0  0  0  0  0  0  0  0  0  0  0
   10.5102  -17.4622   24.8122 N   0  0  0  0  0  0  0  0  0  0  0  0
   11.4315  -18.5117   25.2880 C   0  0  1  0  0  0  0  0  0  0  0  0
   10.7360  -19.8142   25.0848 C   0  0  0  0  0  0  0  0  0  0  0  0
   11.0778  -20.8906   26.0103 C   0  0  0  0  0  0  0  0  0  0  0  0
   11.9362  -20.8842   26.9104 O   0  0  0  0  0  0  0  0  0  0  0  0
   12.6760  -18.3902   24.5089 C   0  0  0  0  0  0  0  0  0  0  0  0
   12.6317  -17.9375   23.3437 O   0  0  0  0  0  0  0  0  0  0  0  0
   10.3414  -22.0826   25.8620 O   0  0  0  0  0  0  0  0  0  0  0  0
   13.9056  -18.7558   25.0077 O   0  0  0  0  0  0  0  0  0  0  0  0
  2  1  1  0
  3  4  1  0
  3  2  1  0
  5  4  1  0
  5  6  1  1
  7  8  2  0
  7  5  1  0
  9  7  1  0
 10  9  1  0
 11 12  1  0
 10 11  1  1
 12 13  2  0
 13 14  1  0
 15 14  2  0
 16 15  1  0
 17 12  1  0
 17 16  2  0
 18 20  1  0
 18 10  1  0
 19 18  2  0
 21 20  1  0
 21 25  1  0
 21 22  1  6
 23 22  1  0
 24 23  2  0
 25 28  1  0
 26 25  2  0
 27 23  1  0
M  END
$$$$
