MFD.pdb
     RDKit          3D

 28 28  0  0  1  0  0  0  0  0999 V2000
    6.2640  -12.0787   17.8865 C   0  0  0  0  0  0  0  0  0  0  0  0
    7.7711  -13.0181   17.8995 S   0  0  0  0  0  0  0  0  0  0  0  0
    7.7845  -14.3914   19.0083 C   0  0  0  0  0  0  0  0  0  0  0  0
    9.0971  -15.0898   19.0842 C   0  0  0  0  0  0  0  0  0  0  0  0
    9.0805  -16.2326   20.0416 C   0  0  2  0  0  0  0  0  0  0  0  0
    7.8156  -16.9339   19.9268 N   0  0  0  0  0  0  0  0  0  0  0  0
    9.2816  -15.7610   21.4562 C   0  0  0  0  0  0  0  0  0  0  0  0
   10.3725  -15.2818   21.8596 O   0  0  0  0  0  0  0  0  0  0  0  0
    8.2349  -15.8365   22.4147 N   0  0  0  0  0  0  0  0  0  0  0  0
    8.3885  -15.3893   23.7909 C   0  0  1  0  0  0  0  0  0  0  0  0
    7.1250  -14.8774   24.3750 C   0  0  0  0  0  0  0  0  0  0  0  0
    7.3586  -14.1443   25.6397 C   0  0  0  0  0  0  0  0  0  0  0  0
    7.6483  -14.7450   26.8288 C   0  0  0  0  0  0  0  0  0  0  0  0
    7.8540  -13.9613   27.9417 C   0  0  0  0  0  0  0  0  0  0  0  0
    7.7678  -12.5729   27.8565 C   0  0  0  0  0  0  0  0  0  0  0  0
    7.4746  -11.9659   26.6536 C   0  0  0  0  0  0  0  0  0  0  0  0
    7.2734  -12.7542   25.5601 C   0  0  0  0  0  0  0  0  0  0  0  0
    9.0143  -16.4391   24.6296 C   0  0  0  0  0  0  0  0  0  0  0  0
    8.5510  -17.5941   24.7694 O   0  0  0  0  0  0  0  0  0  0  0  0
   10.2313  -16.1880   25.3577 N   0  0  0  0  0  0  0  0  0  0  0  0
   10.9889  -17.2852   25.9893 C   0  0  1  0  0  0  0  0  0  0  0  0
   12.4192  -17.0825   25.6225 C   0  0  0  0  0  0  0  0  0  0  0  0
   13.3809  -18.0223   26.1917 C   0  0  0  0  0  0  0  0  0  0  0  0
   14.1647  -17.8373   27.1397 O   0  0  0  0  0  0  0  0  0  0  0  0
   10.7452  -17.2091   27.4403 C   0  0  0  0  0  0  0  0  0  0  0  0
   10.9926  -18.2023   28.1594 O   0  0  0  0  0  0  0  0  0  0  0  0
   13.4230  -19.2954   25.5895 O   0  0  0  0  0  0  0  0  0  0  0  0
   10.2511  -16.0809   28.0545 O   0  0  0  0  0  0  0  0  0  0  0  0
  2  1  1  0
  3  4  1  0
  3  2  1  0
  5  4  1  0
  5  6  1  1
  7  8  2  0
  7  5  1  0
  9  7  1  0
 10  9  1  0
 11 12  1  0
 10 11  1  1
 12 13  2  0
 13 14  1  0
 15 14  2  0
 16 15  1  0
 17 12  1  0
 17 16  2  0
 18 20  1  0
 18 10  1  0
 19 18  2  0
 21 20  1  0
 21 25  1  0
 21 22  1  1
 23 22  1  0
 24 23  2  0
 25 28  1  0
 26 25  2  0
 27 23  1  0
M  END
$$$$
