MFD.pdb
     RDKit          3D

 28 28  0  0  1  0  0  0  0  0999 V2000
    7.3076  -12.0885   16.6102 C   0  0  0  0  0  0  0  0  0  0  0  0
    8.3681  -12.7899   17.8501 S   0  0  0  0  0  0  0  0  0  0  0  0
    7.5499  -13.7908   19.0519 C   0  0  0  0  0  0  0  0  0  0  0  0
    8.4554  -14.3252   20.1060 C   0  0  0  0  0  0  0  0  0  0  0  0
    7.7491  -15.2255   21.0617 C   0  0  2  0  0  0  0  0  0  0  0  0
    6.3388  -14.8858   21.0851 N   0  0  0  0  0  0  0  0  0  0  0  0
    8.3291  -15.1135   22.4455 C   0  0  0  0  0  0  0  0  0  0  0  0
    9.2763  -14.3325   22.7195 O   0  0  0  0  0  0  0  0  0  0  0  0
    7.8273  -15.8954   23.5211 N   0  0  0  0  0  0  0  0  0  0  0  0
    8.4325  -15.9017   24.8445 C   0  0  1  0  0  0  0  0  0  0  0  0
    7.4489  -15.6658   25.9291 C   0  0  0  0  0  0  0  0  0  0  0  0
    7.2180  -14.2219   26.1605 C   0  0  0  0  0  0  0  0  0  0  0  0
    6.0157  -13.6030   25.9870 C   0  0  0  0  0  0  0  0  0  0  0  0
    5.9152  -12.2535   26.2396 C   0  0  0  0  0  0  0  0  0  0  0  0
    7.0258  -11.5279   26.6669 C   0  0  0  0  0  0  0  0  0  0  0  0
    8.2416  -12.1544   26.8421 C   0  0  0  0  0  0  0  0  0  0  0  0
    8.3263  -13.4908   26.5882 C   0  0  0  0  0  0  0  0  0  0  0  0
    9.2312  -17.1311   25.0634 C   0  0  0  0  0  0  0  0  0  0  0  0
    8.8707  -18.2751   24.7038 O   0  0  0  0  0  0  0  0  0  0  0  0
   10.5106  -17.0842   25.7231 N   0  0  0  0  0  0  0  0  0  0  0  0
   11.3415  -18.2938   25.8749 C   0  0  1  0  0  0  0  0  0  0  0  0
   12.7418  -17.8919   25.5605 C   0  0  0  0  0  0  0  0  0  0  0  0
   13.7596  -18.9345   25.6556 C   0  0  0  0  0  0  0  0  0  0  0  0
   13.8612  -19.8310   26.5119 O   0  0  0  0  0  0  0  0  0  0  0  0
   11.1715  -18.7731   27.2577 C   0  0  0  0  0  0  0  0  0  0  0  0
   10.6408  -18.0249   28.1082 O   0  0  0  0  0  0  0  0  0  0  0  0
   14.7471  -18.9197   24.6508 O   0  0  0  0  0  0  0  0  0  0  0  0
   11.5739  -20.0240   27.6671 O   0  0  0  0  0  0  0  0  0  0  0  0
  2  1  1  0
  3  4  1  0
  3  2  1  0
  5  4  1  0
  5  6  1  1
  7  8  2  0
  7  5  1  0
  9  7  1  0
 10  9  1  0
 11 12  1  0
 10 11  1  1
 12 13  2  0
 13 14  1  0
 15 14  2  0
 16 15  1  0
 17 12  1  0
 17 16  2  0
 18 20  1  0
 18 10  1  0
 19 18  2  0
 21 20  1  0
 21 25  1  0
 21 22  1  1
 23 22  1  0
 24 23  2  0
 25 28  1  0
 26 25  2  0
 27 23  1  0
M  END
$$$$
