MFD.pdb
     RDKit          3D

 28 28  0  0  1  0  0  0  0  0999 V2000
    8.2986  -11.6716   18.4610 C   0  0  0  0  0  0  0  0  0  0  0  0
    7.1542  -13.0223   18.3190 S   0  0  0  0  0  0  0  0  0  0  0  0
    7.6316  -14.4962   19.1647 C   0  0  0  0  0  0  0  0  0  0  0  0
    9.0995  -14.6156   19.3825 C   0  0  0  0  0  0  0  0  0  0  0  0
    9.4619  -15.8247   20.1758 C   0  0  2  0  0  0  0  0  0  0  0  0
    8.5094  -16.8829   19.8963 N   0  0  0  0  0  0  0  0  0  0  0  0
    9.4798  -15.5238   21.6499 C   0  0  0  0  0  0  0  0  0  0  0  0
   10.5356  -15.2259   22.2655 O   0  0  0  0  0  0  0  0  0  0  0  0
    8.2893  -15.5631   22.4253 N   0  0  0  0  0  0  0  0  0  0  0  0
    8.2293  -15.1092   23.8066 C   0  0  1  0  0  0  0  0  0  0  0  0
    6.9771  -14.3787   24.1192 C   0  0  0  0  0  0  0  0  0  0  0  0
    7.0047  -13.7920   25.4782 C   0  0  0  0  0  0  0  0  0  0  0  0
    6.5076  -14.4097   26.5873 C   0  0  0  0  0  0  0  0  0  0  0  0
    6.5942  -13.7716   27.8040 C   0  0  0  0  0  0  0  0  0  0  0  0
    7.1816  -12.5116   27.9030 C   0  0  0  0  0  0  0  0  0  0  0  0
    7.6841  -11.8873   26.7809 C   0  0  0  0  0  0  0  0  0  0  0  0
    7.5914  -12.5308   25.5831 C   0  0  0  0  0  0  0  0  0  0  0  0
    8.4835  -16.2244   24.7494 C   0  0  0  0  0  0  0  0  0  0  0  0
    7.9000  -17.3312   24.7004 O   0  0  0  0  0  0  0  0  0  0  0  0
    9.4471  -16.0999   25.8126 N   0  0  0  0  0  0  0  0  0  0  0  0
   10.0841  -17.2866   26.4148 C   0  0  1  0  0  0  0  0  0  0  0  0
   11.2725  -17.6060   25.5740 C   0  0  0  0  0  0  0  0  0  0  0  0
   11.6838  -19.0062   25.5260 C   0  0  0  0  0  0  0  0  0  0  0  0
   11.5302  -19.8807   26.3971 O   0  0  0  0  0  0  0  0  0  0  0  0
   10.4317  -16.9414   27.8042 C   0  0  0  0  0  0  0  0  0  0  0  0
   10.9561  -17.8055   28.5410 O   0  0  0  0  0  0  0  0  0  0  0  0
   12.3350  -19.4130   24.3447 O   0  0  0  0  0  0  0  0  0  0  0  0
   10.2048  -15.6944   28.3409 O   0  0  0  0  0  0  0  0  0  0  0  0
  2  1  1  0
  3  4  1  0
  3  2  1  0
  5  4  1  0
  5  6  1  1
  7  8  2  0
  7  5  1  0
  9  7  1  0
 10  9  1  0
 11 12  1  0
 10 11  1  1
 12 13  2  0
 13 14  1  0
 15 14  2  0
 16 15  1  0
 17 12  1  0
 17 16  2  0
 18 20  1  0
 18 10  1  0
 19 18  2  0
 21 20  1  0
 21 25  1  0
 21 22  1  6
 23 22  1  0
 24 23  2  0
 25 28  1  0
 26 25  2  0
 27 23  1  0
M  END
$$$$
