QGY.pdb
     RDKit          3D

 26 26  0  0  1  0  0  0  0  0999 V2000
   20.4882   -5.4373  -24.3818 N   0  0  0  0  0  0  0  0  0  0  0  0
   19.2853   -6.1949  -24.4772 C   0  0  0  0  0  0  0  0  0  0  0  0
   18.9159   -6.5941  -25.5965 O   0  0  0  0  0  0  0  0  0  0  0  0
   18.4991   -6.4985  -23.2764 C   0  0  0  0  0  0  0  0  0  0  0  0
   19.0656   -5.8445  -22.0676 C   0  0  0  0  0  0  0  0  0  0  0  0
   19.4091   -6.7778  -20.9322 C   0  0  2  0  0  0  0  0  0  0  0  0
   18.4091   -7.8309  -20.7971 N   0  0  0  0  0  0  0  0  0  0  0  0
   19.3628   -5.9335  -19.6933 C   0  0  0  0  0  0  0  0  0  0  0  0
   20.2215   -5.0387  -19.5222 O   0  0  0  0  0  0  0  0  0  0  0  0
   18.3514   -6.1484  -18.7217 N   0  0  0  0  0  0  0  0  0  0  0  0
   18.2677   -5.3395  -17.5218 C   0  0  0  0  0  0  0  0  0  0  0  0
   18.7642   -6.1195  -16.3779 C   0  0  0  0  0  0  0  0  0  0  0  0
   18.8274   -7.3933  -16.4370 O   0  0  0  0  0  0  0  0  0  0  0  0
   22.3980   -8.7250   -8.7738 O   0  0  0  0  0  0  0  0  0  0  0  0
   22.0129   -8.0557   -9.9312 C   0  0  0  0  0  0  0  0  0  0  0  0
   21.2116   -6.9281   -9.8991 C   0  0  0  0  0  0  0  0  0  0  0  0
   20.8303   -6.2652  -11.0443 C   0  0  0  0  0  0  0  0  0  0  0  0
   21.2520   -6.7248  -12.2929 C   0  0  0  0  0  0  0  0  0  0  0  0
   20.8420   -6.0190  -13.5207 C   0  0  0  0  0  0  0  0  0  0  0  0
   19.4280   -6.3407  -13.9520 C   0  0  2  0  0  0  0  0  0  0  0  0
   19.1980   -5.5405  -15.1590 N   0  0  0  0  0  0  0  0  0  0  0  0
   18.4191   -6.0377  -12.9241 C   0  0  0  0  0  0  0  0  0  0  0  0
   17.8934   -4.8948  -12.9068 O   0  0  0  0  0  0  0  0  0  0  0  0
   22.0442   -7.8411  -12.3131 C   0  0  0  0  0  0  0  0  0  0  0  0
   22.4195   -8.4956  -11.1663 C   0  0  0  0  0  0  0  0  0  0  0  0
   18.0084   -6.9459  -11.9634 O   0  0  0  0  0  0  0  0  0  0  0  0
  2  1  1  0
  2  3  2  0
  4  2  1  0
  5  4  1  0
  6  5  1  0
  6  7  1  1
  8 10  1  0
  8  6  1  0
  9  8  2  0
 11 12  1  0
 11 10  1  0
 12 21  1  0
 13 12  2  0
 15 25  2  0
 15 14  1  0
 16 15  1  0
 17 18  1  0
 17 16  2  0
 18 24  2  0
 19 18  1  0
 20 19  1  1
 20 22  1  0
 21 20  1  0
 22 23  2  0
 22 26  1  0
 24 25  1  0
M  END
$$$$
