QGY.pdb
     RDKit          3D

 26 26  0  0  1  0  0  0  0  0999 V2000
   20.9313  -20.6308  -14.5557 N   0  0  0  0  0  0  0  0  0  0  0  0
   21.5786  -19.3627  -14.5027 C   0  0  0  0  0  0  0  0  0  0  0  0
   20.9649  -18.3594  -14.9093 O   0  0  0  0  0  0  0  0  0  0  0  0
   22.9430  -19.2443  -13.9768 C   0  0  0  0  0  0  0  0  0  0  0  0
   23.8952  -18.7747  -15.0173 C   0  0  0  0  0  0  0  0  0  0  0  0
   24.6780  -19.8626  -15.7115 C   0  0  2  0  0  0  0  0  0  0  0  0
   23.9973  -21.1483  -15.6062 N   0  0  0  0  0  0  0  0  0  0  0  0
   25.9739  -19.9620  -14.9627 C   0  0  0  0  0  0  0  0  0  0  0  0
   26.6757  -18.9377  -14.8024 O   0  0  0  0  0  0  0  0  0  0  0  0
   26.4008  -21.2098  -14.4394 N   0  0  0  0  0  0  0  0  0  0  0  0
   27.7001  -21.3666  -13.8161 C   0  0  0  0  0  0  0  0  0  0  0  0
   27.5383  -21.3608  -12.3542 C   0  0  0  0  0  0  0  0  0  0  0  0
   28.4727  -21.7843  -11.5943 O   0  0  0  0  0  0  0  0  0  0  0  0
   28.8244  -20.0013   -4.4175 O   0  0  0  0  0  0  0  0  0  0  0  0
   28.3560  -19.9225   -5.7253 C   0  0  0  0  0  0  0  0  0  0  0  0
   28.8596  -20.7192   -6.7383 C   0  0  0  0  0  0  0  0  0  0  0  0
   28.3964  -20.6416   -8.0328 C   0  0  0  0  0  0  0  0  0  0  0  0
   27.3854  -19.7374   -8.3619 C   0  0  0  0  0  0  0  0  0  0  0  0
   26.8903  -19.6498   -9.7479 C   0  0  0  0  0  0  0  0  0  0  0  0
   26.2399  -20.9268  -10.2328 C   0  0  2  0  0  0  0  0  0  0  0  0
   26.3722  -20.9005  -11.6929 N   0  0  0  0  0  0  0  0  0  0  0  0
   24.8274  -21.0510   -9.8382 C   0  0  0  0  0  0  0  0  0  0  0  0
   24.5497  -21.2452   -8.6266 O   0  0  0  0  0  0  0  0  0  0  0  0
   26.8945  -18.9541   -7.3521 C   0  0  0  0  0  0  0  0  0  0  0  0
   27.3623  -19.0383   -6.0643 C   0  0  0  0  0  0  0  0  0  0  0  0
   23.7729  -20.9654  -10.7310 O   0  0  0  0  0  0  0  0  0  0  0  0
  2  1  1  0
  2  3  2  0
  4  2  1  0
  5  4  1  0
  6  5  1  0
  6  7  1  1
  8 10  1  0
  8  6  1  0
  9  8  2  0
 11 12  1  0
 11 10  1  0
 12 21  1  0
 13 12  2  0
 15 25  2  0
 15 14  1  0
 16 15  1  0
 17 18  1  0
 17 16  2  0
 18 24  2  0
 19 18  1  0
 20 19  1  1
 20 22  1  0
 21 20  1  0
 22 23  2  0
 22 26  1  0
 24 25  1  0
M  END
$$$$
