QGY.pdb
     RDKit          3D

 26 26  0  0  1  0  0  0  0  0999 V2000
   28.1962  -16.1442  -17.7159 N   0  0  0  0  0  0  0  0  0  0  0  0
   27.9424  -16.9331  -18.8749 C   0  0  0  0  0  0  0  0  0  0  0  0
   28.5890  -16.6993  -19.9121 O   0  0  0  0  0  0  0  0  0  0  0  0
   26.9377  -18.0017  -18.8432 C   0  0  0  0  0  0  0  0  0  0  0  0
   27.0216  -18.7992  -17.5915 C   0  0  0  0  0  0  0  0  0  0  0  0
   28.2145  -19.7187  -17.4930 C   0  0  2  0  0  0  0  0  0  0  0  0
   28.1541  -20.7676  -18.5047 N   0  0  0  0  0  0  0  0  0  0  0  0
   28.1076  -20.3685  -16.1453 C   0  0  0  0  0  0  0  0  0  0  0  0
   27.4855  -21.4484  -16.0270 O   0  0  0  0  0  0  0  0  0  0  0  0
   28.7084  -19.7620  -15.0120 N   0  0  0  0  0  0  0  0  0  0  0  0
   28.6245  -20.3635  -13.6958 C   0  0  0  0  0  0  0  0  0  0  0  0
   27.3275  -20.0236  -13.0911 C   0  0  0  0  0  0  0  0  0  0  0  0
   26.6203  -19.0701  -13.5609 O   0  0  0  0  0  0  0  0  0  0  0  0
   19.1922  -19.7091  -10.3566 O   0  0  0  0  0  0  0  0  0  0  0  0
   20.4772  -20.0480  -10.7686 C   0  0  0  0  0  0  0  0  0  0  0  0
   21.2829  -20.9057  -10.0408 C   0  0  0  0  0  0  0  0  0  0  0  0
   22.5548  -21.2415  -10.4482 C   0  0  0  0  0  0  0  0  0  0  0  0
   23.0736  -20.7130  -11.6313 C   0  0  0  0  0  0  0  0  0  0  0  0
   24.4365  -21.0681  -12.0676 C   0  0  0  0  0  0  0  0  0  0  0  0
   25.5165  -20.2871  -11.3517 C   0  0  2  0  0  0  0  0  0  0  0  0
   26.7762  -20.7034  -11.9762 N   0  0  0  0  0  0  0  0  0  0  0  0
   25.5484  -20.5276   -9.9001 C   0  0  0  0  0  0  0  0  0  0  0  0
   26.2045  -21.5069   -9.4606 O   0  0  0  0  0  0  0  0  0  0  0  0
   22.2681  -19.8656  -12.3433 C   0  0  0  0  0  0  0  0  0  0  0  0
   21.0013  -19.5364  -11.9296 C   0  0  0  0  0  0  0  0  0  0  0  0
   24.8920  -19.7309   -8.9776 O   0  0  0  0  0  0  0  0  0  0  0  0
  2  1  1  0
  2  3  2  0
  4  2  1  0
  5  4  1  0
  6  5  1  0
  6  7  1  6
  8 10  1  0
  8  6  1  0
  9  8  2  0
 11 12  1  0
 11 10  1  0
 12 21  1  0
 13 12  2  0
 15 25  2  0
 15 14  1  0
 16 15  1  0
 17 18  1  0
 17 16  2  0
 18 24  2  0
 19 18  1  0
 20 19  1  6
 20 22  1  0
 21 20  1  0
 22 23  2  0
 22 26  1  0
 24 25  1  0
M  END
$$$$
