QGY.pdb
     RDKit          3D

 26 26  0  0  1  0  0  0  0  0999 V2000
   18.8659  -13.5489  -15.6116 N   0  0  0  0  0  0  0  0  0  0  0  0
   17.9418  -13.1118  -16.6040 C   0  0  0  0  0  0  0  0  0  0  0  0
   17.5798  -13.9165  -17.4815 O   0  0  0  0  0  0  0  0  0  0  0  0
   17.4267  -11.7382  -16.5887 C   0  0  0  0  0  0  0  0  0  0  0  0
   17.9529  -10.9659  -15.4326 C   0  0  0  0  0  0  0  0  0  0  0  0
   16.9204  -10.5490  -14.4136 C   0  0  2  0  0  0  0  0  0  0  0  0
   15.7953   -9.8747  -15.0514 N   0  0  0  0  0  0  0  0  0  0  0  0
   17.6126   -9.5568  -13.5267 C   0  0  0  0  0  0  0  0  0  0  0  0
   18.6533   -9.8927  -12.9172 O   0  0  0  0  0  0  0  0  0  0  0  0
   17.0902   -8.2458  -13.3802 N   0  0  0  0  0  0  0  0  0  0  0  0
   17.7363   -7.2618  -12.5344 C   0  0  0  0  0  0  0  0  0  0  0  0
   16.7116   -6.5355  -11.7689 C   0  0  0  0  0  0  0  0  0  0  0  0
   15.5439   -6.3553  -12.2525 O   0  0  0  0  0  0  0  0  0  0  0  0
   11.7065  -10.0857   -9.0091 O   0  0  0  0  0  0  0  0  0  0  0  0
   12.6800   -9.0999   -8.8813 C   0  0  0  0  0  0  0  0  0  0  0  0
   14.0324   -9.3876   -8.9349 C   0  0  0  0  0  0  0  0  0  0  0  0
   14.9963   -8.4123   -8.8085 C   0  0  0  0  0  0  0  0  0  0  0  0
   14.6244   -7.0804   -8.6191 C   0  0  0  0  0  0  0  0  0  0  0  0
   15.6546   -6.0349   -8.4798 C   0  0  0  0  0  0  0  0  0  0  0  0
   15.8910   -5.2543   -9.7540 C   0  0  2  0  0  0  0  0  0  0  0  0
   16.9297   -5.9951  -10.4768 N   0  0  0  0  0  0  0  0  0  0  0  0
   16.3091   -3.8628   -9.5192 C   0  0  0  0  0  0  0  0  0  0  0  0
   17.5149   -3.5521   -9.6987 O   0  0  0  0  0  0  0  0  0  0  0  0
   13.2840   -6.8071   -8.5674 C   0  0  0  0  0  0  0  0  0  0  0  0
   12.3299   -7.7858   -8.6944 C   0  0  0  0  0  0  0  0  0  0  0  0
   15.4446   -2.8628   -9.1081 O   0  0  0  0  0  0  0  0  0  0  0  0
  2  1  1  0
  2  3  2  0
  4  2  1  0
  5  4  1  0
  6  5  1  0
  6  7  1  6
  8 10  1  0
  8  6  1  0
  9  8  2  0
 11 12  1  0
 11 10  1  0
 12 21  1  0
 13 12  2  0
 15 25  2  0
 15 14  1  0
 16 15  1  0
 17 18  1  0
 17 16  2  0
 18 24  2  0
 19 18  1  0
 20 19  1  1
 20 22  1  0
 21 20  1  0
 22 23  2  0
 22 26  1  0
 24 25  1  0
M  END
$$$$
