QGY.pdb
     RDKit          3D

 26 26  0  0  1  0  0  0  0  0999 V2000
   26.2580  -26.7544  -16.3814 N   0  0  0  0  0  0  0  0  0  0  0  0
   25.0074  -26.6598  -17.0575 C   0  0  0  0  0  0  0  0  0  0  0  0
   24.4800  -27.7007  -17.4901 O   0  0  0  0  0  0  0  0  0  0  0  0
   24.3548  -25.3584  -17.2379 C   0  0  0  0  0  0  0  0  0  0  0  0
   25.0457  -24.2857  -16.4751 C   0  0  0  0  0  0  0  0  0  0  0  0
   24.7334  -24.2422  -14.9991 C   0  0  2  0  0  0  0  0  0  0  0  0
   23.3488  -23.8469  -14.7666 N   0  0  0  0  0  0  0  0  0  0  0  0
   25.6213  -23.1731  -14.4345 C   0  0  0  0  0  0  0  0  0  0  0  0
   26.8528  -23.2112  -14.6560 O   0  0  0  0  0  0  0  0  0  0  0  0
   25.0677  -22.1255  -13.6541 N   0  0  0  0  0  0  0  0  0  0  0  0
   25.8964  -21.0742  -13.0981 C   0  0  0  0  0  0  0  0  0  0  0  0
   26.0952  -21.3243  -11.6623 C   0  0  0  0  0  0  0  0  0  0  0  0
   25.5369  -22.3207  -11.0918 O   0  0  0  0  0  0  0  0  0  0  0  0
   28.6646  -19.7175   -3.2470 O   0  0  0  0  0  0  0  0  0  0  0  0
   28.5339  -19.7558   -4.6317 C   0  0  0  0  0  0  0  0  0  0  0  0
   29.2624  -20.6313   -5.4174 C   0  0  0  0  0  0  0  0  0  0  0  0
   29.1333  -20.6695   -6.7879 C   0  0  0  0  0  0  0  0  0  0  0  0
   28.2449  -19.8071   -7.4320 C   0  0  0  0  0  0  0  0  0  0  0  0
   28.1076  -19.8436   -8.8995 C   0  0  0  0  0  0  0  0  0  0  0  0
   26.9509  -20.6972   -9.3713 C   0  0  2  0  0  0  0  0  0  0  0  0
   26.8951  -20.5077  -10.8242 N   0  0  0  0  0  0  0  0  0  0  0  0
   25.6667  -20.3392   -8.7478 C   0  0  0  0  0  0  0  0  0  0  0  0
   24.9873  -19.4061   -9.2484 O   0  0  0  0  0  0  0  0  0  0  0  0
   27.5293  -18.9451   -6.6452 C   0  0  0  0  0  0  0  0  0  0  0  0
   27.6644  -18.9140   -5.2795 C   0  0  0  0  0  0  0  0  0  0  0  0
   25.1546  -20.9756   -7.6301 O   0  0  0  0  0  0  0  0  0  0  0  0
  2  1  1  0
  2  3  2  0
  4  2  1  0
  5  4  1  0
  6  5  1  0
  6  7  1  6
  8 10  1  0
  8  6  1  0
  9  8  2  0
 11 12  1  0
 11 10  1  0
 12 21  1  0
 13 12  2  0
 15 25  2  0
 15 14  1  0
 16 15  1  0
 17 18  1  0
 17 16  2  0
 18 24  2  0
 19 18  1  0
 20 19  1  1
 20 22  1  0
 21 20  1  0
 22 23  2  0
 22 26  1  0
 24 25  1  0
M  END
$$$$
