GLK.pdb
     RDKit          3D

 22 21  0  0  1  0  0  0  0  0999 V2000
   28.9053  -20.0974  -13.9857 N   0  0  0  0  0  0  0  0  0  0  0  0
   28.2042  -19.3615  -12.9635 C   0  0  0  0  0  0  0  0  0  0  0  0
   27.5454  -20.3362  -12.0367 C   0  0  0  0  0  0  0  0  0  0  0  0
   27.5592  -21.5537  -12.3258 O   0  0  0  0  0  0  0  0  0  0  0  0
   28.2978  -20.9350   -7.6979 C   0  0  0  0  0  0  0  0  0  0  0  0
   27.4550  -19.6931   -8.0824 C   0  0  2  0  0  0  0  0  0  0  0  0
   27.3106  -18.9181   -6.7950 C   0  0  0  0  0  0  0  0  0  0  0  0
   26.1871  -20.2308   -8.6284 C   0  0  0  0  0  0  0  0  0  0  0  0
   26.2107  -20.8828   -9.9576 C   0  0  2  0  0  0  0  0  0  0  0  0
   26.9092  -19.9274  -10.8475 N   0  0  0  0  0  0  0  0  0  0  0  0
   24.9307  -21.2782  -10.5457 C   0  0  0  0  0  0  0  0  0  0  0  0
   24.0170  -21.8660   -9.8614 O   0  0  0  0  0  0  0  0  0  0  0  0
   24.6047  -21.0400  -11.8978 N   0  0  0  0  0  0  0  0  0  0  0  0
   23.2486  -21.4737  -12.4262 C   0  0  1  0  0  0  0  0  0  0  0  0
   22.5316  -20.1984  -12.6185 C   0  0  0  0  0  0  0  0  0  0  0  0
   21.1744  -20.0536  -13.0962 C   0  0  0  0  0  0  0  0  0  0  0  0
   20.0746  -20.8600  -12.5183 C   0  0  0  0  0  0  0  0  0  0  0  0
   18.7526  -20.5324  -13.2671 C   0  0  0  0  0  0  0  0  0  0  0  0
   17.6805  -21.2911  -12.6591 N   0  0  0  0  0  0  0  0  0  0  0  0
   23.5267  -22.2095  -13.6650 C   0  0  0  0  0  0  0  0  0  0  0  0
   24.6265  -21.9549  -14.3002 O   0  0  0  0  0  0  0  0  0  0  0  0
   22.7530  -23.1629  -14.2482 O   0  0  0  0  0  0  0  0  0  0  0  0
  2  1  1  0
  2  3  1  0
  3 10  1  0
  3  4  2  0
  6  5  1  1
  7  6  1  0
  8  6  1  0
  9  8  1  1
 10  9  1  0
 11  9  1  0
 11 13  1  0
 12 11  2  0
 14 20  1  0
 14 13  1  0
 14 15  1  6
 16 15  1  0
 17 18  1  0
 17 16  1  0
 18 19  1  0
 20 22  1  0
 21 20  2  0
M  END
$$$$
