GLK.pdb
     RDKit          3D

 22 21  0  0  1  0  0  0  0  0999 V2000
   24.1431  -20.1407   -8.8041 N   0  0  0  0  0  0  0  0  0  0  0  0
   24.8769  -21.2031   -9.4451 C   0  0  0  0  0  0  0  0  0  0  0  0
   25.7834  -20.6058  -10.4767 C   0  0  0  0  0  0  0  0  0  0  0  0
   25.7123  -19.3784  -10.7105 O   0  0  0  0  0  0  0  0  0  0  0  0
   30.3049  -19.8748  -11.2342 C   0  0  0  0  0  0  0  0  0  0  0  0
   29.7677  -21.3121  -11.0190 C   0  0  2  0  0  0  0  0  0  0  0  0
   31.0028  -22.1797  -10.9927 C   0  0  0  0  0  0  0  0  0  0  0  0
   28.8550  -21.5664  -12.1579 C   0  0  0  0  0  0  0  0  0  0  0  0
   27.5919  -20.7976  -12.2361 C   0  0  2  0  0  0  0  0  0  0  0  0
   26.7159  -21.3812  -11.1946 N   0  0  0  0  0  0  0  0  0  0  0  0
   26.8943  -20.7619  -13.5216 C   0  0  0  0  0  0  0  0  0  0  0  0
   26.3478  -21.8059  -14.0316 O   0  0  0  0  0  0  0  0  0  0  0  0
   26.7661  -19.5849  -14.2894 N   0  0  0  0  0  0  0  0  0  0  0  0
   25.9473  -19.6131  -15.5681 C   0  0  1  0  0  0  0  0  0  0  0  0
   25.5131  -18.2120  -15.7284 C   0  0  0  0  0  0  0  0  0  0  0  0
   24.4902  -17.7409  -16.6355 C   0  0  0  0  0  0  0  0  0  0  0  0
   23.0561  -17.9876  -16.3589 C   0  0  0  0  0  0  0  0  0  0  0  0
   22.2039  -17.4033  -17.5200 C   0  0  0  0  0  0  0  0  0  0  0  0
   20.8218  -17.7766  -17.3078 N   0  0  0  0  0  0  0  0  0  0  0  0
   26.8631  -20.0906  -16.6105 C   0  0  0  0  0  0  0  0  0  0  0  0
   28.1334  -19.8900  -16.4550 O   0  0  0  0  0  0  0  0  0  0  0  0
   26.5376  -20.7458  -17.7561 O   0  0  0  0  0  0  0  0  0  0  0  0
  2  1  1  0
  2  3  1  0
  3 10  1  0
  3  4  2  0
  6  5  1  6
  7  6  1  0
  8  6  1  0
  9  8  1  6
 10  9  1  0
 11  9  1  0
 11 13  1  0
 12 11  2  0
 14 20  1  0
 14 13  1  0
 14 15  1  6
 16 15  1  0
 17 18  1  0
 17 16  1  0
 18 19  1  0
 20 22  1  0
 21 20  2  0
M  END
$$$$
