GLK.pdb
     RDKit          3D

 22 21  0  0  1  0  0  0  0  0999 V2000
   29.5011  -20.6303  -12.4115 N   0  0  0  0  0  0  0  0  0  0  0  0
   29.2779  -19.7925  -11.2598 C   0  0  0  0  0  0  0  0  0  0  0  0
   28.2503  -20.4424  -10.3855 C   0  0  0  0  0  0  0  0  0  0  0  0
   27.7681  -21.5444  -10.7307 O   0  0  0  0  0  0  0  0  0  0  0  0
   28.5069  -21.5598   -6.1724 C   0  0  0  0  0  0  0  0  0  0  0  0
   28.2839  -20.0501   -6.4408 C   0  0  2  0  0  0  0  0  0  0  0  0
   28.4597  -19.3942   -5.0926 C   0  0  0  0  0  0  0  0  0  0  0  0
   26.9188  -19.9479   -7.0073 C   0  0  0  0  0  0  0  0  0  0  0  0
   26.6916  -20.4198   -8.3922 C   0  0  2  0  0  0  0  0  0  0  0  0
   27.8071  -19.8533   -9.1843 N   0  0  0  0  0  0  0  0  0  0  0  0
   25.4104  -20.0970   -9.0207 C   0  0  0  0  0  0  0  0  0  0  0  0
   25.0042  -18.8871   -9.1616 O   0  0  0  0  0  0  0  0  0  0  0  0
   24.5339  -21.0837   -9.5201 N   0  0  0  0  0  0  0  0  0  0  0  0
   23.2919  -20.6608  -10.2848 C   0  0  1  0  0  0  0  0  0  0  0  0
   23.4118  -21.3883  -11.5630 C   0  0  0  0  0  0  0  0  0  0  0  0
   22.5497  -21.2280  -12.7128 C   0  0  0  0  0  0  0  0  0  0  0  0
   22.6971  -22.0996  -13.9013 C   0  0  0  0  0  0  0  0  0  0  0  0
   21.7291  -21.6124  -15.0155 C   0  0  0  0  0  0  0  0  0  0  0  0
   22.0000  -22.3664  -16.2209 N   0  0  0  0  0  0  0  0  0  0  0  0
   22.1573  -21.0754   -9.4516 C   0  0  0  0  0  0  0  0  0  0  0  0
   20.9647  -20.7213   -9.8126 O   0  0  0  0  0  0  0  0  0  0  0  0
   22.1991  -21.8157   -8.3124 O   0  0  0  0  0  0  0  0  0  0  0  0
  2  1  1  0
  2  3  1  0
  3 10  1  0
  3  4  2  0
  6  5  1  1
  7  6  1  0
  8  6  1  0
  9  8  1  1
 10  9  1  0
 11  9  1  0
 11 13  1  0
 12 11  2  0
 14 20  1  0
 14 13  1  0
 14 15  1  6
 16 15  1  0
 17 18  1  0
 17 16  1  0
 18 19  1  0
 20 22  1  0
 21 20  2  0
M  END
$$$$
