GLK.pdb
     RDKit          3D

 22 21  0  0  1  0  0  0  0  0999 V2000
   30.9242  -22.3050  -10.8789 N   0  0  0  0  0  0  0  0  0  0  0  0
   30.1270  -21.1433  -11.1842 C   0  0  0  0  0  0  0  0  0  0  0  0
   28.7286  -21.3812  -10.7040 C   0  0  0  0  0  0  0  0  0  0  0  0
   28.2990  -22.5550  -10.6418 O   0  0  0  0  0  0  0  0  0  0  0  0
   26.5467  -21.2852   -6.9072 C   0  0  0  0  0  0  0  0  0  0  0  0
   27.1062  -19.9730   -7.5118 C   0  0  2  0  0  0  0  0  0  0  0  0
   26.9661  -18.9548   -6.4061 C   0  0  0  0  0  0  0  0  0  0  0  0
   26.2769  -19.7058   -8.7099 C   0  0  0  0  0  0  0  0  0  0  0  0
   26.4739  -20.5527   -9.9084 C   0  0  2  0  0  0  0  0  0  0  0  0
   27.8783  -20.3252  -10.3191 N   0  0  0  0  0  0  0  0  0  0  0  0
   25.5753  -20.3458  -11.0443 C   0  0  0  0  0  0  0  0  0  0  0  0
   25.6991  -19.3458  -11.8402 O   0  0  0  0  0  0  0  0  0  0  0  0
   24.5159  -21.2261  -11.3512 N   0  0  0  0  0  0  0  0  0  0  0  0
   23.6602  -20.9652  -12.5784 C   0  0  1  0  0  0  0  0  0  0  0  0
   23.7079  -22.2466  -13.3085 C   0  0  0  0  0  0  0  0  0  0  0  0
   22.9875  -22.5563  -14.5234 C   0  0  0  0  0  0  0  0  0  0  0  0
   23.1113  -23.8866  -15.1629 C   0  0  0  0  0  0  0  0  0  0  0  0
   22.1446  -23.9616  -16.3777 C   0  0  0  0  0  0  0  0  0  0  0  0
   22.3742  -25.2114  -17.0705 N   0  0  0  0  0  0  0  0  0  0  0  0
   22.3339  -20.6060  -12.0633 C   0  0  0  0  0  0  0  0  0  0  0  0
   22.0855  -20.8034  -10.8074 O   0  0  0  0  0  0  0  0  0  0  0  0
   21.2981  -20.0671  -12.7592 O   0  0  0  0  0  0  0  0  0  0  0  0
  2  1  1  0
  2  3  1  0
  3 10  1  0
  3  4  2  0
  6  5  1  1
  7  6  1  0
  8  6  1  0
  9  8  1  1
 10  9  1  0
 11  9  1  0
 11 13  1  0
 12 11  2  0
 14 20  1  0
 14 13  1  0
 14 15  1  6
 16 15  1  0
 17 18  1  0
 17 16  1  0
 18 19  1  0
 20 22  1  0
 21 20  2  0
M  END
$$$$
