RFY.pdb
     RDKit          3D

 35 36  0  0  1  0  0  0  0  0999 V2000
   11.9334  -20.5203   14.6836 N   0  0  0  0  0  0  0  0  0  0  0  0
   12.9248  -19.7736   15.3774 C   0  0  0  0  0  0  0  0  0  0  0  0
   14.1590  -19.9353   15.1185 N   0  0  0  0  0  0  0  0  0  0  0  0
   12.5364  -18.8286   16.3784 N   0  0  0  0  0  0  0  0  0  0  0  0
   11.1740  -18.7808   16.8911 C   0  0  0  0  0  0  0  0  0  0  0  0
   11.1167  -17.6962   17.9414 C   0  0  0  0  0  0  0  0  0  0  0  0
    9.7008  -17.4609   18.4157 C   0  0  0  0  0  0  0  0  0  0  0  0
    9.5022  -17.8093   19.8568 C   0  0  2  0  0  0  0  0  0  0  0  0
    8.2284  -18.5020   20.0268 N   0  0  0  0  0  0  0  0  0  0  0  0
    9.5195  -16.6425   20.7720 C   0  0  0  0  0  0  0  0  0  0  0  0
   10.5402  -15.8690   20.7942 O   0  0  0  0  0  0  0  0  0  0  0  0
   14.9036  -19.4543   15.6459 N   0  0  0  0  0  0  0  0  0  0  0  0
    8.4221  -16.3598   21.6318 C   0  0  1  0  0  0  0  0  0  0  0  0
    8.4249  -15.3037   22.6236 C   0  0  0  0  0  0  0  0  0  0  0  0
    7.0624  -14.6844   22.7793 C   0  0  0  0  0  0  0  0  0  0  0  0
    6.9580  -13.7380   23.8918 C   0  0  0  0  0  0  0  0  0  0  0  0
    6.3737  -14.0926   25.0886 C   0  0  0  0  0  0  0  0  0  0  0  0
    6.2674  -13.2060   26.1516 C   0  0  0  0  0  0  0  0  0  0  0  0
    6.7514  -11.9188   26.0436 C   0  0  0  0  0  0  0  0  0  0  0  0
    7.3387  -11.5493   24.8523 C   0  0  0  0  0  0  0  0  0  0  0  0
    7.4403  -12.4375   23.7998 C   0  0  0  0  0  0  0  0  0  0  0  0
    9.0749  -15.6980   23.8745 O   0  0  0  0  0  0  0  0  0  0  0  0
    8.5726  -16.5984   24.6292 O   0  0  0  0  0  0  0  0  0  0  0  0
   10.9385  -15.9926   32.0778 C   0  0  0  0  0  0  0  0  0  0  0  0
   10.6034  -15.8026   30.7243 C   0  0  0  0  0  0  0  0  0  0  0  0
   10.2205  -16.8527   29.9439 C   0  0  0  0  0  0  0  0  0  0  0  0
    9.8959  -16.6468   28.6200 C   0  0  0  0  0  0  0  0  0  0  0  0
    9.9411  -15.3969   28.0323 C   0  0  0  0  0  0  0  0  0  0  0  0
    9.5992  -15.2235   26.6225 C   0  0  2  0  0  0  0  0  0  0  0  0
   10.8060  -15.3303   25.6805 N   0  0  0  0  0  0  0  0  0  0  0  0
   10.2876  -15.1222   24.3330 C   0  0  0  0  0  0  0  0  0  0  0  0
   11.3991  -16.6637   25.8407 O   0  0  0  0  0  0  0  0  0  0  0  0
   10.9771  -17.6943   25.0190 C   0  0  0  0  0  0  0  0  0  0  0  0
   10.3345  -14.3463   28.8504 C   0  0  0  0  0  0  0  0  0  0  0  0
   10.6604  -14.5426   30.1736 O   0  0  0  0  0  0  0  0  0  0  0  0
  2  1  1  0
  3  2  2  0
  4  2  1  0
  5  4  1  0
  6  5  1  0
  7  6  1  0
  8 10  1  0
  8  7  1  0
  8  9  1  6
 10 12  1  0
 11 10  2  0
 12 13  1  0
 13 21  1  0
 14 15  1  0
 13 14  1  1
 15 20  2  0
 16 17  2  0
 16 15  1  0
 17 18  1  0
 18 19  2  0
 19 20  1  0
 21 22  2  0
 21 30  1  0
 23 24  1  0
 24 25  2  0
 25 26  1  0
 27 26  2  0
 27 28  1  0
 29 28  1  1
 29 31  1  0
 30 29  1  0
 31 32  1  0
 33 27  1  0
 34 24  1  0
 34 33  2  0
 35 31  2  0
M  END
$$$$
