RFY.pdb
     RDKit          3D

 35 36  0  0  1  0  0  0  0  0999 V2000
    7.5286  -14.3492   17.4200 N   0  0  0  0  0  0  0  0  0  0  0  0
    8.2612  -13.2328   17.9087 C   0  0  0  0  0  0  0  0  0  0  0  0
    8.2388  -12.1213   17.2920 N   0  0  0  0  0  0  0  0  0  0  0  0
    9.0335  -13.3546   19.1064 N   0  0  0  0  0  0  0  0  0  0  0  0
   10.2493  -14.1555   19.1489 C   0  0  0  0  0  0  0  0  0  0  0  0
    9.8989  -15.5469   18.6753 C   0  0  0  0  0  0  0  0  0  0  0  0
   10.4199  -16.6012   19.6252 C   0  0  0  0  0  0  0  0  0  0  0  0
    9.3911  -17.0600   20.6094 C   0  0  2  0  0  0  0  0  0  0  0  0
    8.0607  -16.9591   20.0169 N   0  0  0  0  0  0  0  0  0  0  0  0
    9.3883  -16.3014   21.8837 C   0  0  0  0  0  0  0  0  0  0  0  0
   10.4435  -16.2763   22.6092 O   0  0  0  0  0  0  0  0  0  0  0  0
    8.8543  -11.3337   17.5467 N   0  0  0  0  0  0  0  0  0  0  0  0
    8.2335  -15.5960   22.3226 C   0  0  1  0  0  0  0  0  0  0  0  0
    8.1396  -14.9160   23.5985 C   0  0  0  0  0  0  0  0  0  0  0  0
    7.1244  -13.8059   23.5627 C   0  0  0  0  0  0  0  0  0  0  0  0
    6.9900  -13.0760   24.8249 C   0  0  0  0  0  0  0  0  0  0  0  0
    7.7967  -11.9998   25.1257 C   0  0  0  0  0  0  0  0  0  0  0  0
    7.6808  -11.2986   26.3184 C   0  0  0  0  0  0  0  0  0  0  0  0
    6.7385  -11.6619   27.2579 C   0  0  0  0  0  0  0  0  0  0  0  0
    5.9241  -12.7366   26.9713 C   0  0  0  0  0  0  0  0  0  0  0  0
    6.0460  -13.4286   25.7825 C   0  0  0  0  0  0  0  0  0  0  0  0
    8.0124  -15.8382   24.7281 O   0  0  0  0  0  0  0  0  0  0  0  0
    6.9338  -16.4915   24.9342 O   0  0  0  0  0  0  0  0  0  0  0  0
    8.3760  -22.7842   29.6208 C   0  0  0  0  0  0  0  0  0  0  0  0
    8.4845  -21.7038   28.7255 C   0  0  0  0  0  0  0  0  0  0  0  0
    9.6535  -21.4519   28.0710 C   0  0  0  0  0  0  0  0  0  0  0  0
    9.7405  -20.3889   27.1975 C   0  0  0  0  0  0  0  0  0  0  0  0
    8.6739  -19.5464   26.9479 C   0  0  0  0  0  0  0  0  0  0  0  0
    8.8113  -18.4242   26.0225 C   0  0  2  0  0  0  0  0  0  0  0  0
    8.9651  -17.0670   26.7221 N   0  0  0  0  0  0  0  0  0  0  0  0
    9.0566  -16.0719   25.6595 C   0  0  0  0  0  0  0  0  0  0  0  0
   10.1813  -17.1068   27.5432 O   0  0  0  0  0  0  0  0  0  0  0  0
   10.1244  -17.6640   28.8089 C   0  0  0  0  0  0  0  0  0  0  0  0
    7.4965  -19.8265   27.6283 C   0  0  0  0  0  0  0  0  0  0  0  0
    7.4004  -20.8860   28.5024 O   0  0  0  0  0  0  0  0  0  0  0  0
  2  1  1  0
  3  2  2  0
  4  2  1  0
  5  4  1  0
  6  5  1  0
  7  6  1  0
  8 10  1  0
  8  7  1  0
  8  9  1  6
 10 12  1  0
 11 10  2  0
 12 13  1  0
 13 21  1  0
 14 15  1  0
 13 14  1  1
 15 20  2  0
 16 17  2  0
 16 15  1  0
 17 18  1  0
 18 19  2  0
 19 20  1  0
 21 22  2  0
 21 30  1  0
 23 24  1  0
 24 25  2  0
 25 26  1  0
 27 26  2  0
 27 28  1  0
 29 28  1  1
 29 31  1  0
 30 29  1  0
 31 32  1  0
 33 27  1  0
 34 24  1  0
 34 33  2  0
 35 31  2  0
M  END
$$$$
