RFY.pdb
     RDKit          3D

 35 36  0  0  1  0  0  0  0  0999 V2000
    6.7832  -13.1389   14.4089 N   0  0  0  0  0  0  0  0  0  0  0  0
    7.8054  -13.5018   15.3283 C   0  0  0  0  0  0  0  0  0  0  0  0
    9.0172  -13.5844   14.9525 N   0  0  0  0  0  0  0  0  0  0  0  0
    7.4740  -13.7779   16.6920 N   0  0  0  0  0  0  0  0  0  0  0  0
    8.5050  -14.0384   17.6873 C   0  0  0  0  0  0  0  0  0  0  0  0
    8.4467  -15.5077   18.0347 C   0  0  0  0  0  0  0  0  0  0  0  0
    9.5222  -15.8833   19.0284 C   0  0  0  0  0  0  0  0  0  0  0  0
    8.9739  -16.4896   20.2810 C   0  0  2  0  0  0  0  0  0  0  0  0
    7.6412  -17.0288   20.0269 N   0  0  0  0  0  0  0  0  0  0  0  0
    8.8811  -15.5470   21.4222 C   0  0  0  0  0  0  0  0  0  0  0  0
    8.9531  -14.2859   21.2105 O   0  0  0  0  0  0  0  0  0  0  0  0
    9.7789  -13.8551   15.5933 N   0  0  0  0  0  0  0  0  0  0  0  0
    8.7130  -16.0133   22.7556 C   0  0  1  0  0  0  0  0  0  0  0  0
    8.5484  -15.1412   23.9009 C   0  0  0  0  0  0  0  0  0  0  0  0
    7.5673  -14.0353   23.6204 C   0  0  0  0  0  0  0  0  0  0  0  0
    7.2294  -13.2230   24.7908 C   0  0  0  0  0  0  0  0  0  0  0  0
    8.0339  -12.1833   25.2043 C   0  0  0  0  0  0  0  0  0  0  0  0
    7.7263  -11.4050   26.3121 C   0  0  0  0  0  0  0  0  0  0  0  0
    6.5859  -11.6506   27.0482 C   0  0  0  0  0  0  0  0  0  0  0  0
    5.7710  -12.6876   26.6467 C   0  0  0  0  0  0  0  0  0  0  0  0
    6.0844  -13.4569   25.5436 C   0  0  0  0  0  0  0  0  0  0  0  0
    8.3191  -15.8739   25.1471 O   0  0  0  0  0  0  0  0  0  0  0  0
    7.3065  -16.6399   25.2909 O   0  0  0  0  0  0  0  0  0  0  0  0
   10.1611  -22.7711   29.6625 C   0  0  0  0  0  0  0  0  0  0  0  0
   10.0776  -21.6067   28.8766 C   0  0  0  0  0  0  0  0  0  0  0  0
    8.8753  -21.1565   28.4181 C   0  0  0  0  0  0  0  0  0  0  0  0
    8.8135  -20.0136   27.6495 C   0  0  0  0  0  0  0  0  0  0  0  0
    9.9389  -19.2854   27.3138 C   0  0  0  0  0  0  0  0  0  0  0  0
    9.8308  -18.0851   26.4879 C   0  0  2  0  0  0  0  0  0  0  0  0
    9.3156  -16.8582   27.2523 N   0  0  0  0  0  0  0  0  0  0  0  0
    9.1872  -15.7912   26.2660 C   0  0  0  0  0  0  0  0  0  0  0  0
   10.2898  -16.5245   28.2986 O   0  0  0  0  0  0  0  0  0  0  0  0
   11.3228  -15.6509   28.0065 C   0  0  0  0  0  0  0  0  0  0  0  0
   11.1492  -19.7672   27.7941 C   0  0  0  0  0  0  0  0  0  0  0  0
   11.2205  -20.9075   28.5623 O   0  0  0  0  0  0  0  0  0  0  0  0
  2  1  1  0
  3  2  2  0
  4  2  1  0
  5  4  1  0
  6  5  1  0
  7  6  1  0
  8 10  1  0
  8  7  1  0
  8  9  1  6
 10 12  1  0
 11 10  2  0
 12 13  1  0
 13 21  1  0
 14 15  1  0
 13 14  1  1
 15 20  2  0
 16 17  2  0
 16 15  1  0
 17 18  1  0
 18 19  2  0
 19 20  1  0
 21 22  2  0
 21 30  1  0
 23 24  1  0
 24 25  2  0
 25 26  1  0
 27 26  2  0
 27 28  1  0
 29 28  1  6
 29 31  1  0
 30 29  1  0
 31 32  1  0
 33 27  1  0
 34 24  1  0
 34 33  2  0
 35 31  2  0
M  END
$$$$
