RFY.pdb
     RDKit          3D

 35 36  0  0  1  0  0  0  0  0999 V2000
    9.6537  -19.7395   17.1208 N   0  0  0  0  0  0  0  0  0  0  0  0
    8.7754  -19.3284   16.0808 C   0  0  0  0  0  0  0  0  0  0  0  0
    8.1564  -20.1870   15.3764 N   0  0  0  0  0  0  0  0  0  0  0  0
    8.5813  -17.9357   15.8191 N   0  0  0  0  0  0  0  0  0  0  0  0
    9.1921  -16.9124   16.6564 C   0  0  0  0  0  0  0  0  0  0  0  0
    9.0920  -17.3741   18.0916 C   0  0  0  0  0  0  0  0  0  0  0  0
    9.6114  -16.3239   19.0470 C   0  0  0  0  0  0  0  0  0  0  0  0
    9.5349  -16.7486   20.4793 C   0  0  2  0  0  0  0  0  0  0  0  0
    8.4926  -17.7579   20.6406 N   0  0  0  0  0  0  0  0  0  0  0  0
    9.2576  -15.6423   21.4271 C   0  0  0  0  0  0  0  0  0  0  0  0
    9.5140  -14.4349   21.0851 O   0  0  0  0  0  0  0  0  0  0  0  0
    7.5120  -19.9198   14.6166 N   0  0  0  0  0  0  0  0  0  0  0  0
    8.7097  -15.8916   22.7160 C   0  0  1  0  0  0  0  0  0  0  0  0
    8.5807  -14.8822   23.7473 C   0  0  0  0  0  0  0  0  0  0  0  0
    7.1405  -14.5261   23.9988 C   0  0  0  0  0  0  0  0  0  0  0  0
    6.9450  -13.5310   25.0550 C   0  0  0  0  0  0  0  0  0  0  0  0
    7.3103  -12.2135   24.8819 C   0  0  0  0  0  0  0  0  0  0  0  0
    7.1312  -11.2593   25.8744 C   0  0  0  0  0  0  0  0  0  0  0  0
    6.5723  -11.6040   27.0874 C   0  0  0  0  0  0  0  0  0  0  0  0
    6.2017  -12.9185   27.2755 C   0  0  0  0  0  0  0  0  0  0  0  0
    6.3833  -13.8613   26.2830 C   0  0  0  0  0  0  0  0  0  0  0  0
    9.3635  -15.1882   24.9458 O   0  0  0  0  0  0  0  0  0  0  0  0
    8.8516  -15.1030   26.1134 O   0  0  0  0  0  0  0  0  0  0  0  0
    7.1083  -19.9846   29.4143 C   0  0  0  0  0  0  0  0  0  0  0  0
    7.9118  -19.4750   28.3774 C   0  0  0  0  0  0  0  0  0  0  0  0
    7.8550  -20.0053   27.1229 C   0  0  0  0  0  0  0  0  0  0  0  0
    8.6499  -19.4926   26.1199 C   0  0  0  0  0  0  0  0  0  0  0  0
    9.5222  -18.4418   26.3306 C   0  0  0  0  0  0  0  0  0  0  0  0
   10.3552  -17.9351   25.2426 C   0  0  2  0  0  0  0  0  0  0  0  0
   11.2319  -16.7417   25.6453 N   0  0  0  0  0  0  0  0  0  0  0  0
   10.7217  -15.5952   24.9015 C   0  0  0  0  0  0  0  0  0  0  0  0
   12.6226  -17.0511   25.2912 O   0  0  0  0  0  0  0  0  0  0  0  0
   13.5925  -17.0281   26.2782 C   0  0  0  0  0  0  0  0  0  0  0  0
    9.5594  -17.9218   27.6175 C   0  0  0  0  0  0  0  0  0  0  0  0
    8.7691  -18.4274   28.6253 O   0  0  0  0  0  0  0  0  0  0  0  0
  2  1  1  0
  3  2  2  0
  4  2  1  0
  5  4  1  0
  6  5  1  0
  7  6  1  0
  8 10  1  0
  8  7  1  0
  8  9  1  6
 10 12  1  0
 11 10  2  0
 12 13  1  0
 13 21  1  0
 14 15  1  0
 13 14  1  6
 15 20  2  0
 16 17  2  0
 16 15  1  0
 17 18  1  0
 18 19  2  0
 19 20  1  0
 21 22  2  0
 21 30  1  0
 23 24  1  0
 24 25  2  0
 25 26  1  0
 27 26  2  0
 27 28  1  0
 29 28  1  1
 29 31  1  0
 30 29  1  0
 31 32  1  0
 33 27  1  0
 34 24  1  0
 34 33  2  0
 35 31  2  0
M  END
$$$$
