RFY.pdb
     RDKit          3D

 35 36  0  0  1  0  0  0  0  0999 V2000
    7.8382  -13.8086   15.2781 N   0  0  0  0  0  0  0  0  0  0  0  0
    8.4974  -13.9529   16.5297 C   0  0  0  0  0  0  0  0  0  0  0  0
    8.5807  -12.9738   17.3364 N   0  0  0  0  0  0  0  0  0  0  0  0
    9.0753  -15.2104   16.8914 N   0  0  0  0  0  0  0  0  0  0  0  0
    8.2509  -16.3274   17.3319 C   0  0  0  0  0  0  0  0  0  0  0  0
    9.0540  -17.1231   18.3342 C   0  0  0  0  0  0  0  0  0  0  0  0
    9.3307  -16.3186   19.5838 C   0  0  0  0  0  0  0  0  0  0  0  0
    8.9717  -17.0481   20.8394 C   0  0  2  0  0  0  0  0  0  0  0  0
    7.5911  -17.5160   20.7616 N   0  0  0  0  0  0  0  0  0  0  0  0
    9.1169  -16.2399   22.0743 C   0  0  0  0  0  0  0  0  0  0  0  0
   10.2805  -15.8574   22.4488 O   0  0  0  0  0  0  0  0  0  0  0  0
    9.0477  -13.0491   18.2531 N   0  0  0  0  0  0  0  0  0  0  0  0
    7.9868  -15.8767   22.8583 C   0  0  1  0  0  0  0  0  0  0  0  0
    8.0502  -14.9931   24.0048 C   0  0  0  0  0  0  0  0  0  0  0  0
    6.9386  -13.9790   23.9865 C   0  0  0  0  0  0  0  0  0  0  0  0
    6.9633  -13.0426   25.1119 C   0  0  0  0  0  0  0  0  0  0  0  0
    6.0093  -13.0834   26.1057 C   0  0  0  0  0  0  0  0  0  0  0  0
    6.0199  -12.2019   27.1783 C   0  0  0  0  0  0  0  0  0  0  0  0
    7.0022  -11.2396   27.2868 C   0  0  0  0  0  0  0  0  0  0  0  0
    7.9636  -11.1864   26.3001 C   0  0  0  0  0  0  0  0  0  0  0  0
    7.9456  -12.0671   25.2366 C   0  0  0  0  0  0  0  0  0  0  0  0
    8.2154  -15.7111   25.2696 O   0  0  0  0  0  0  0  0  0  0  0  0
    7.2097  -16.1759   25.9061 O   0  0  0  0  0  0  0  0  0  0  0  0
    6.2793  -21.5112   25.1103 C   0  0  0  0  0  0  0  0  0  0  0  0
    7.2434  -20.6128   25.6039 C   0  0  0  0  0  0  0  0  0  0  0  0
    7.3632  -20.3800   26.9418 C   0  0  0  0  0  0  0  0  0  0  0  0
    8.3140  -19.4964   27.4065 C   0  0  0  0  0  0  0  0  0  0  0  0
    9.1717  -18.8193   26.5607 C   0  0  0  0  0  0  0  0  0  0  0  0
   10.1585  -17.8828   27.0935 C   0  0  2  0  0  0  0  0  0  0  0  0
    9.6318  -16.4480   27.2304 N   0  0  0  0  0  0  0  0  0  0  0  0
    9.4795  -15.9412   25.8710 C   0  0  0  0  0  0  0  0  0  0  0  0
   10.6098  -15.6694   28.0002 O   0  0  0  0  0  0  0  0  0  0  0  0
   10.8033  -15.9618   29.3390 C   0  0  0  0  0  0  0  0  0  0  0  0
    9.0270  -19.0755   25.2037 C   0  0  0  0  0  0  0  0  0  0  0  0
    8.0805  -19.9564   24.7307 O   0  0  0  0  0  0  0  0  0  0  0  0
  2  1  1  0
  3  2  2  0
  4  2  1  0
  5  4  1  0
  6  5  1  0
  7  6  1  0
  8 10  1  0
  8  7  1  0
  8  9  1  6
 10 12  1  0
 11 10  2  0
 12 13  1  0
 13 21  1  0
 14 15  1  0
 13 14  1  1
 15 20  2  0
 16 17  2  0
 16 15  1  0
 17 18  1  0
 18 19  2  0
 19 20  1  0
 21 22  2  0
 21 30  1  0
 23 24  1  0
 24 25  2  0
 25 26  1  0
 27 26  2  0
 27 28  1  0
 29 28  1  6
 29 31  1  0
 30 29  1  0
 31 32  1  0
 33 27  1  0
 34 24  1  0
 34 33  2  0
 35 31  2  0
M  END
$$$$
