RFY.pdb
     RDKit          3D

 35 36  0  0  1  0  0  0  0  0999 V2000
    8.8433  -15.6094   16.5425 N   0  0  0  0  0  0  0  0  0  0  0  0
    8.3260  -14.3805   16.0484 C   0  0  0  0  0  0  0  0  0  0  0  0
    8.7701  -13.8763   14.9691 N   0  0  0  0  0  0  0  0  0  0  0  0
    7.2950  -13.6991   16.7684 N   0  0  0  0  0  0  0  0  0  0  0  0
    7.1078  -13.8979   18.1990 C   0  0  0  0  0  0  0  0  0  0  0  0
    8.3215  -13.3371   18.9028 C   0  0  0  0  0  0  0  0  0  0  0  0
    8.2245  -13.5186   20.4005 C   0  0  0  0  0  0  0  0  0  0  0  0
    8.6626  -14.8751   20.8539 C   0  0  2  0  0  0  0  0  0  0  0  0
    7.6839  -15.8753   20.4378 N   0  0  0  0  0  0  0  0  0  0  0  0
    8.8504  -14.9944   22.3201 C   0  0  0  0  0  0  0  0  0  0  0  0
    9.6922  -14.2346   22.9155 O   0  0  0  0  0  0  0  0  0  0  0  0
    8.4176  -12.9851   14.5877 N   0  0  0  0  0  0  0  0  0  0  0  0
    8.1129  -15.9391   23.0864 C   0  0  1  0  0  0  0  0  0  0  0  0
    8.1897  -16.0438   24.5295 C   0  0  0  0  0  0  0  0  0  0  0  0
    6.8964  -15.6414   25.1851 C   0  0  0  0  0  0  0  0  0  0  0  0
    6.8492  -14.2400   25.6068 C   0  0  0  0  0  0  0  0  0  0  0  0
    7.1871  -13.8600   26.8877 C   0  0  0  0  0  0  0  0  0  0  0  0
    7.1467  -12.5353   27.3016 C   0  0  0  0  0  0  0  0  0  0  0  0
    6.7605  -11.5387   26.4298 C   0  0  0  0  0  0  0  0  0  0  0  0
    6.4194  -11.9033   25.1448 C   0  0  0  0  0  0  0  0  0  0  0  0
    6.4623  -13.2233   24.7413 C   0  0  0  0  0  0  0  0  0  0  0  0
    8.7431  -17.3220   24.9797 O   0  0  0  0  0  0  0  0  0  0  0  0
    8.8686  -18.3103   24.1797 O   0  0  0  0  0  0  0  0  0  0  0  0
   13.2622  -17.2763   20.8425 C   0  0  0  0  0  0  0  0  0  0  0  0
   12.8137  -17.1766   22.1727 C   0  0  0  0  0  0  0  0  0  0  0  0
   12.1673  -16.0594   22.6115 C   0  0  0  0  0  0  0  0  0  0  0  0
   11.7352  -15.9802   23.9183 C   0  0  0  0  0  0  0  0  0  0  0  0
   11.9306  -17.0036   24.8261 C   0  0  0  0  0  0  0  0  0  0  0  0
   11.4661  -16.8750   26.2053 C   0  0  2  0  0  0  0  0  0  0  0  0
   10.5219  -18.0029   26.6428 N   0  0  0  0  0  0  0  0  0  0  0  0
    9.1742  -17.5541   26.3111 C   0  0  0  0  0  0  0  0  0  0  0  0
   10.6913  -18.2122   28.0859 O   0  0  0  0  0  0  0  0  0  0  0  0
    9.6691  -17.8506   28.9460 C   0  0  0  0  0  0  0  0  0  0  0  0
   12.5916  -18.1287   24.3518 C   0  0  0  0  0  0  0  0  0  0  0  0
   13.0266  -18.2166   23.0485 O   0  0  0  0  0  0  0  0  0  0  0  0
  2  1  1  0
  3  2  2  0
  4  2  1  0
  5  4  1  0
  6  5  1  0
  7  6  1  0
  8 10  1  0
  8  7  1  0
  8  9  1  1
 10 12  1  0
 11 10  2  0
 12 13  1  0
 13 21  1  0
 14 15  1  0
 13 14  1  1
 15 20  2  0
 16 17  2  0
 16 15  1  0
 17 18  1  0
 18 19  2  0
 19 20  1  0
 21 22  2  0
 21 30  1  0
 23 24  1  0
 24 25  2  0
 25 26  1  0
 27 26  2  0
 27 28  1  0
 29 28  1  6
 29 31  1  0
 30 29  1  0
 31 32  1  0
 33 27  1  0
 34 24  1  0
 34 33  2  0
 35 31  2  0
M  END
$$$$
