RFY.pdb
     RDKit          3D

 35 36  0  0  1  0  0  0  0  0999 V2000
    9.7661  -14.8380   14.6029 N   0  0  0  0  0  0  0  0  0  0  0  0
    9.0572  -14.5511   15.8016 C   0  0  0  0  0  0  0  0  0  0  0  0
    9.2504  -13.4600   16.4249 N   0  0  0  0  0  0  0  0  0  0  0  0
    8.1151  -15.4957   16.3174 N   0  0  0  0  0  0  0  0  0  0  0  0
    8.3757  -16.2375   17.5434 C   0  0  0  0  0  0  0  0  0  0  0  0
    8.4765  -15.2378   18.6719 C   0  0  0  0  0  0  0  0  0  0  0  0
    9.6915  -15.4976   19.5331 C   0  0  0  0  0  0  0  0  0  0  0  0
    9.3911  -16.3505   20.7246 C   0  0  2  0  0  0  0  0  0  0  0  0
    8.0688  -16.9523   20.5809 N   0  0  0  0  0  0  0  0  0  0  0  0
    9.4303  -15.6242   22.0171 C   0  0  0  0  0  0  0  0  0  0  0  0
   10.4933  -14.9977   22.3605 O   0  0  0  0  0  0  0  0  0  0  0  0
    8.6961  -13.1881   17.2512 N   0  0  0  0  0  0  0  0  0  0  0  0
    8.3076  -15.6067   22.8906 C   0  0  1  0  0  0  0  0  0  0  0  0
    8.2807  -14.9018   24.1562 C   0  0  0  0  0  0  0  0  0  0  0  0
    6.9782  -14.1763   24.3601 C   0  0  0  0  0  0  0  0  0  0  0  0
    6.9064  -13.4135   25.6078 C   0  0  0  0  0  0  0  0  0  0  0  0
    6.4314  -13.9774   26.7722 C   0  0  0  0  0  0  0  0  0  0  0  0
    6.3572  -13.2663   27.9623 C   0  0  0  0  0  0  0  0  0  0  0  0
    6.7633  -11.9493   28.0199 C   0  0  0  0  0  0  0  0  0  0  0  0
    7.2408  -11.3712   26.8631 C   0  0  0  0  0  0  0  0  0  0  0  0
    7.3112  -12.0858   25.6835 C   0  0  0  0  0  0  0  0  0  0  0  0
    8.7116  -15.7333   25.2812 O   0  0  0  0  0  0  0  0  0  0  0  0
    8.0888  -16.8047   25.5924 O   0  0  0  0  0  0  0  0  0  0  0  0
   14.0947  -17.2912   21.9436 C   0  0  0  0  0  0  0  0  0  0  0  0
   13.5434  -17.0188   23.2094 C   0  0  0  0  0  0  0  0  0  0  0  0
   13.6397  -15.7764   23.7622 C   0  0  0  0  0  0  0  0  0  0  0  0
   13.0932  -15.5286   25.0034 C   0  0  0  0  0  0  0  0  0  0  0  0
   12.4368  -16.5028   25.7312 C   0  0  0  0  0  0  0  0  0  0  0  0
   11.8810  -16.2013   27.0483 C   0  0  2  0  0  0  0  0  0  0  0  0
   10.3526  -16.3233   27.1122 N   0  0  0  0  0  0  0  0  0  0  0  0
    9.8313  -15.4188   26.0934 C   0  0  0  0  0  0  0  0  0  0  0  0
    9.9156  -15.9416   28.4607 O   0  0  0  0  0  0  0  0  0  0  0  0
   10.2395  -16.7558   29.5320 C   0  0  0  0  0  0  0  0  0  0  0  0
   12.3541  -17.7583   25.1441 C   0  0  0  0  0  0  0  0  0  0  0  0
   12.8967  -18.0148   23.9051 O   0  0  0  0  0  0  0  0  0  0  0  0
  2  1  1  0
  3  2  2  0
  4  2  1  0
  5  4  1  0
  6  5  1  0
  7  6  1  0
  8 10  1  0
  8  7  1  0
  8  9  1  6
 10 12  1  0
 11 10  2  0
 12 13  1  0
 13 21  1  0
 14 15  1  0
 13 14  1  1
 15 20  2  0
 16 17  2  0
 16 15  1  0
 17 18  1  0
 18 19  2  0
 19 20  1  0
 21 22  2  0
 21 30  1  0
 23 24  1  0
 24 25  2  0
 25 26  1  0
 27 26  2  0
 27 28  1  0
 29 28  1  6
 29 31  1  0
 30 29  1  0
 31 32  1  0
 33 27  1  0
 34 24  1  0
 34 33  2  0
 35 31  2  0
M  END
$$$$
