HDI.pdb
     RDKit          3D

 27 27  0  0  1  0  0  0  0  0999 V2000
   16.5578  -25.7749   -9.3519 N   0  0  0  0  0  0  0  0  0  0  0  0
   17.5225  -25.3745   -8.2898 C   0  0  1  0  0  0  0  0  0  0  0  0
   17.5015  -23.8994   -8.2841 C   0  0  0  0  0  0  0  0  0  0  0  0
   18.0094  -23.1890   -9.4463 C   0  0  0  0  0  0  0  0  0  0  0  0
   19.0553  -23.4289  -10.2796 C   0  0  0  0  0  0  0  0  0  0  0  0
   19.0360  -22.4767  -11.2411 N   0  0  0  0  0  0  0  0  0  0  0  0
   18.0088  -21.6673  -11.0163 C   0  0  0  0  0  0  0  0  0  0  0  0
   17.3606  -22.0774   -9.9246 N   0  0  0  0  0  0  0  0  0  0  0  0
   17.0387  -26.0129   -7.0264 C   0  0  0  0  0  0  0  0  0  0  0  0
   15.9062  -25.8019   -6.5910 O   0  0  0  0  0  0  0  0  0  0  0  0
   17.8680  -26.8931   -6.2718 N   0  0  0  0  0  0  0  0  0  0  0  0
   17.4253  -27.5019   -5.0613 C   0  0  1  0  0  0  0  0  0  0  0  0
   18.0842  -28.8278   -4.7752 C   0  0  0  0  0  0  0  0  0  0  0  0
   17.5140  -29.5001   -3.5919 C   0  0  0  0  0  0  0  0  0  0  0  0
   16.3482  -29.1989   -3.2266 O   0  0  0  0  0  0  0  0  0  0  0  0
   17.5028  -26.5783   -3.8952 C   0  0  0  0  0  0  0  0  0  0  0  0
   18.6015  -26.0146   -3.6763 O   0  0  0  0  0  0  0  0  0  0  0  0
   18.1718  -30.4550   -2.8356 O   0  0  0  0  0  0  0  0  0  0  0  0
   14.1405  -22.5638   -0.9359 C   0  0  0  0  0  0  0  0  0  0  0  0
   15.3177  -23.5292   -0.8452 C   0  0  0  0  0  0  0  0  0  0  0  0
   15.2875  -24.5172   -1.9650 C   0  0  2  0  0  0  0  0  0  0  0  0
   13.9649  -25.2050   -2.1206 C   0  0  0  0  0  0  0  0  0  0  0  0
   16.4738  -25.4236   -1.8926 C   0  0  2  0  0  0  0  0  0  0  0  0
   16.4108  -26.3166   -3.0425 N   0  0  0  0  0  0  0  0  0  0  0  0
   16.5951  -26.1870   -0.6301 C   0  0  0  0  0  0  0  0  0  0  0  0
   16.2867  -27.3909   -0.4976 O   0  0  0  0  0  0  0  0  0  0  0  0
   17.0844  -25.5265    0.4877 O   0  0  0  0  0  0  0  0  0  0  0  0
  2  9  1  0
  2  1  1  6
  3  2  1  0
  4  3  1  0
  4  8  1  0
  5  6  1  0
  5  4  2  0
  6  7  1  0
  7  8  2  0
  9 11  1  0
 10  9  2  0
 11 12  1  0
 12 16  1  0
 12 13  1  1
 14 13  1  0
 14 15  2  0
 16 17  2  0
 16 24  1  0
 18 14  1  0
 20 19  1  0
 21 20  1  0
 21 22  1  1
 23 21  1  0
 23 24  1  6
 25 23  1  0
 25 27  1  0
 26 25  2  0
M  END
$$$$
