HDI.pdb
     RDKit          3D

 27 27  0  0  1  0  0  0  0  0999 V2000
   14.1333  -18.2344    3.6723 N   0  0  0  0  0  0  0  0  0  0  0  0
   15.2435  -18.4467    4.6424 C   0  0  1  0  0  0  0  0  0  0  0  0
   16.3701  -18.9541    3.8362 C   0  0  0  0  0  0  0  0  0  0  0  0
   16.3207  -20.3236    3.3507 C   0  0  0  0  0  0  0  0  0  0  0  0
   15.8684  -20.8665    2.1904 C   0  0  0  0  0  0  0  0  0  0  0  0
   16.1226  -22.1949    2.2367 N   0  0  0  0  0  0  0  0  0  0  0  0
   16.7167  -22.4734    3.3900 C   0  0  0  0  0  0  0  0  0  0  0  0
   16.8524  -21.3482    4.0941 N   0  0  0  0  0  0  0  0  0  0  0  0
   15.4859  -17.1219    5.2937 C   0  0  0  0  0  0  0  0  0  0  0  0
   15.2497  -16.0641    4.7088 O   0  0  0  0  0  0  0  0  0  0  0  0
   16.0007  -17.0269    6.6194 N   0  0  0  0  0  0  0  0  0  0  0  0
   16.1713  -15.7752    7.2797 C   0  0  1  0  0  0  0  0  0  0  0  0
   15.4432  -15.6822    8.5970 C   0  0  0  0  0  0  0  0  0  0  0  0
   15.4555  -14.3167    9.1560 C   0  0  0  0  0  0  0  0  0  0  0  0
   15.9590  -13.3870    8.4738 O   0  0  0  0  0  0  0  0  0  0  0  0
   17.6035  -15.3861    7.4063 C   0  0  0  0  0  0  0  0  0  0  0  0
   18.4255  -16.2903    7.6883 O   0  0  0  0  0  0  0  0  0  0  0  0
   14.9473  -13.9688   10.3959 O   0  0  0  0  0  0  0  0  0  0  0  0
   19.4458  -11.7065    4.0947 C   0  0  0  0  0  0  0  0  0  0  0  0
   19.3075  -12.8961    5.0391 C   0  0  0  0  0  0  0  0  0  0  0  0
   19.6910  -12.5206    6.4330 C   0  0  2  0  0  0  0  0  0  0  0  0
   21.0428  -11.8803    6.5297 C   0  0  0  0  0  0  0  0  0  0  0  0
   19.4594  -13.6666    7.3641 C   0  0  2  0  0  0  0  0  0  0  0  0
   18.0649  -14.0661    7.2252 N   0  0  0  0  0  0  0  0  0  0  0  0
   19.7980  -13.3943    8.7792 C   0  0  0  0  0  0  0  0  0  0  0  0
   19.1078  -12.6944    9.5510 O   0  0  0  0  0  0  0  0  0  0  0  0
   20.9611  -13.9518    9.2910 O   0  0  0  0  0  0  0  0  0  0  0  0
  2  9  1  0
  2  1  1  6
  3  2  1  0
  4  3  1  0
  4  8  1  0
  5  6  1  0
  5  4  2  0
  6  7  1  0
  7  8  2  0
  9 11  1  0
 10  9  2  0
 11 12  1  0
 12 16  1  0
 12 13  1  1
 14 13  1  0
 14 15  2  0
 16 17  2  0
 16 24  1  0
 18 14  1  0
 20 19  1  0
 21 20  1  0
 21 22  1  6
 23 21  1  0
 23 24  1  1
 25 23  1  0
 25 27  1  0
 26 25  2  0
M  END
$$$$
