HDI.pdb
     RDKit          3D

 27 27  0  0  1  0  0  0  0  0999 V2000
   15.3326  -18.6275    2.3142 N   0  0  0  0  0  0  0  0  0  0  0  0
   14.6800  -18.2033    3.5843 C   0  0  1  0  0  0  0  0  0  0  0  0
   13.2736  -18.6309    3.4583 C   0  0  0  0  0  0  0  0  0  0  0  0
   12.4534  -18.0362    2.4157 C   0  0  0  0  0  0  0  0  0  0  0  0
   11.8231  -16.8364    2.3210 C   0  0  0  0  0  0  0  0  0  0  0  0
   11.2478  -16.7747    1.0975 N   0  0  0  0  0  0  0  0  0  0  0  0
   11.5116  -17.9008    0.4472 C   0  0  0  0  0  0  0  0  0  0  0  0
   12.2483  -18.6935    1.2277 N   0  0  0  0  0  0  0  0  0  0  0  0
   15.4412  -18.8702    4.6860 C   0  0  0  0  0  0  0  0  0  0  0  0
   15.0201  -18.8836    5.8433 O   0  0  0  0  0  0  0  0  0  0  0  0
   16.6871  -19.5188    4.4437 N   0  0  0  0  0  0  0  0  0  0  0  0
   17.4731  -20.0709    5.4969 C   0  0  1  0  0  0  0  0  0  0  0  0
   18.0246  -21.4396    5.1862 C   0  0  0  0  0  0  0  0  0  0  0  0
   18.7453  -22.0327    6.3290 C   0  0  0  0  0  0  0  0  0  0  0  0
   18.6860  -21.4587    7.4471 O   0  0  0  0  0  0  0  0  0  0  0  0
   18.5334  -19.1372    5.9689 C   0  0  0  0  0  0  0  0  0  0  0  0
   19.3427  -18.7025    5.1151 O   0  0  0  0  0  0  0  0  0  0  0  0
   19.4971  -23.1938    6.2690 O   0  0  0  0  0  0  0  0  0  0  0  0
   17.4130  -15.2024    9.2125 C   0  0  0  0  0  0  0  0  0  0  0  0
   18.0969  -16.0880    8.1761 C   0  0  0  0  0  0  0  0  0  0  0  0
   19.1430  -16.9448    8.8107 C   0  0  2  0  0  0  0  0  0  0  0  0
   20.1326  -16.1729    9.6299 C   0  0  0  0  0  0  0  0  0  0  0  0
   19.7364  -17.8755    7.8028 C   0  0  2  0  0  0  0  0  0  0  0  0
   18.6622  -18.7294    7.3124 N   0  0  0  0  0  0  0  0  0  0  0  0
   20.8752  -18.6816    8.2977 C   0  0  0  0  0  0  0  0  0  0  0  0
   20.7630  -19.7613    8.9169 O   0  0  0  0  0  0  0  0  0  0  0  0
   22.1591  -18.2117    8.0610 O   0  0  0  0  0  0  0  0  0  0  0  0
  2  9  1  0
  2  1  1  6
  3  2  1  0
  4  3  1  0
  4  8  1  0
  5  6  1  0
  5  4  2  0
  6  7  1  0
  7  8  2  0
  9 11  1  0
 10  9  2  0
 11 12  1  0
 12 16  1  0
 12 13  1  6
 14 13  1  0
 14 15  2  0
 16 17  2  0
 16 24  1  0
 18 14  1  0
 20 19  1  0
 21 20  1  0
 21 22  1  6
 23 21  1  0
 23 24  1  1
 25 23  1  0
 25 27  1  0
 26 25  2  0
M  END
$$$$
