HDI.pdb
     RDKit          3D

 27 27  0  0  1  0  0  0  0  0999 V2000
   15.3667  -13.1487  -17.2695 N   0  0  0  0  0  0  0  0  0  0  0  0
   15.7613  -12.6093  -15.9382 C   0  0  1  0  0  0  0  0  0  0  0  0
   16.5064  -13.7015  -15.2836 C   0  0  0  0  0  0  0  0  0  0  0  0
   15.7676  -14.8498  -14.7843 C   0  0  0  0  0  0  0  0  0  0  0  0
   14.4549  -15.1929  -14.8533 C   0  0  0  0  0  0  0  0  0  0  0  0
   14.3208  -16.4071  -14.2709 N   0  0  0  0  0  0  0  0  0  0  0  0
   15.5132  -16.8110  -13.8520 C   0  0  0  0  0  0  0  0  0  0  0  0
   16.4200  -15.8793  -14.1520 N   0  0  0  0  0  0  0  0  0  0  0  0
   16.5655  -11.3776  -16.2103 C   0  0  0  0  0  0  0  0  0  0  0  0
   17.4360  -11.3562  -17.0813 O   0  0  0  0  0  0  0  0  0  0  0  0
   16.3587  -10.1754  -15.4731 N   0  0  0  0  0  0  0  0  0  0  0  0
   17.1365   -9.0025  -15.6999 C   0  0  1  0  0  0  0  0  0  0  0  0
   16.3433   -7.7234  -15.6056 C   0  0  0  0  0  0  0  0  0  0  0  0
   17.1468   -6.5324  -15.9418 C   0  0  0  0  0  0  0  0  0  0  0  0
   18.0276   -6.6278  -16.8353 O   0  0  0  0  0  0  0  0  0  0  0  0
   18.3648   -8.9593  -14.8583 C   0  0  0  0  0  0  0  0  0  0  0  0
   18.2272   -9.1410  -13.6250 O   0  0  0  0  0  0  0  0  0  0  0  0
   17.0071   -5.2930  -15.3410 O   0  0  0  0  0  0  0  0  0  0  0  0
   22.2548  -11.9264  -16.0492 C   0  0  0  0  0  0  0  0  0  0  0  0
   21.2715  -10.9851  -15.3613 C   0  0  0  0  0  0  0  0  0  0  0  0
   21.8530   -9.6170  -15.2153 C   0  0  2  0  0  0  0  0  0  0  0  0
   23.2226   -9.6108  -14.6065 C   0  0  0  0  0  0  0  0  0  0  0  0
   20.8653   -8.6964  -14.5742 C   0  0  2  0  0  0  0  0  0  0  0  0
   19.6530   -8.7267  -15.3822 N   0  0  0  0  0  0  0  0  0  0  0  0
   21.3442   -7.3089  -14.3824 C   0  0  0  0  0  0  0  0  0  0  0  0
   21.1832   -6.3834  -15.2066 O   0  0  0  0  0  0  0  0  0  0  0  0
   22.0196   -7.0078  -13.2083 O   0  0  0  0  0  0  0  0  0  0  0  0
  2  9  1  0
  2  1  1  6
  3  2  1  0
  4  3  1  0
  4  8  1  0
  5  6  1  0
  5  4  2  0
  6  7  1  0
  7  8  2  0
  9 11  1  0
 10  9  2  0
 11 12  1  0
 12 16  1  0
 12 13  1  1
 14 13  1  0
 14 15  2  0
 16 17  2  0
 16 24  1  0
 18 14  1  0
 20 19  1  0
 21 20  1  0
 21 22  1  1
 23 21  1  0
 23 24  1  6
 25 23  1  0
 25 27  1  0
 26 25  2  0
M  END
$$$$
