HDI.pdb
     RDKit          3D

 27 27  0  0  1  0  0  0  0  0999 V2000
   26.1684  -19.3932  -15.3299 N   0  0  0  0  0  0  0  0  0  0  0  0
   27.0822  -19.3900  -14.1535 C   0  0  1  0  0  0  0  0  0  0  0  0
   27.9731  -18.2321  -14.3588 C   0  0  0  0  0  0  0  0  0  0  0  0
   28.8298  -18.2093  -15.5331 C   0  0  0  0  0  0  0  0  0  0  0  0
   29.6671  -19.1335  -16.0721 C   0  0  0  0  0  0  0  0  0  0  0  0
   30.1736  -18.6078  -17.2117 N   0  0  0  0  0  0  0  0  0  0  0  0
   29.6673  -17.3930  -17.3804 C   0  0  0  0  0  0  0  0  0  0  0  0
   28.8407  -17.1202  -16.3692 N   0  0  0  0  0  0  0  0  0  0  0  0
   26.2047  -19.2989  -12.9454 C   0  0  0  0  0  0  0  0  0  0  0  0
   25.6029  -18.2621  -12.6634 O   0  0  0  0  0  0  0  0  0  0  0  0
   26.0273  -20.4085  -12.0685 N   0  0  0  0  0  0  0  0  0  0  0  0
   25.1401  -20.3609  -10.9538 C   0  0  1  0  0  0  0  0  0  0  0  0
   23.7667  -20.9085  -11.2502 C   0  0  0  0  0  0  0  0  0  0  0  0
   22.8231  -20.7062  -10.1341 C   0  0  0  0  0  0  0  0  0  0  0  0
   22.7880  -19.5842   -9.5657 O   0  0  0  0  0  0  0  0  0  0  0  0
   25.7292  -20.9684   -9.7279 C   0  0  0  0  0  0  0  0  0  0  0  0
   26.2019  -22.1258   -9.8261 O   0  0  0  0  0  0  0  0  0  0  0  0
   21.9554  -21.6712   -9.6517 O   0  0  0  0  0  0  0  0  0  0  0  0
   29.3603  -18.9082   -6.6765 C   0  0  0  0  0  0  0  0  0  0  0  0
   28.4071  -19.9034   -7.3299 C   0  0  0  0  0  0  0  0  0  0  0  0
   27.1363  -20.0168   -6.5531 C   0  0  2  0  0  0  0  0  0  0  0  0
   27.3491  -20.2829   -5.0935 C   0  0  0  0  0  0  0  0  0  0  0  0
   26.1869  -20.9450   -7.2394 C   0  0  2  0  0  0  0  0  0  0  0  0
   25.7762  -20.3070   -8.4835 N   0  0  0  0  0  0  0  0  0  0  0  0
   25.0125  -21.3412   -6.4299 C   0  0  0  0  0  0  0  0  0  0  0  0
   23.8306  -21.0377   -6.7001 O   0  0  0  0  0  0  0  0  0  0  0  0
   25.2316  -22.1026   -5.2908 O   0  0  0  0  0  0  0  0  0  0  0  0
  2  9  1  0
  2  1  1  6
  3  2  1  0
  4  3  1  0
  4  8  1  0
  5  6  1  0
  5  4  2  0
  6  7  1  0
  7  8  2  0
  9 11  1  0
 10  9  2  0
 11 12  1  0
 12 16  1  0
 12 13  1  6
 14 13  1  0
 14 15  2  0
 16 17  2  0
 16 24  1  0
 18 14  1  0
 20 19  1  0
 21 20  1  0
 21 22  1  1
 23 21  1  0
 23 24  1  6
 25 23  1  0
 25 27  1  0
 26 25  2  0
M  END
$$$$
