HDI.pdb
     RDKit          3D

 27 27  0  0  1  0  0  0  0  0999 V2000
   14.6482  -13.9692  -16.3480 N   0  0  0  0  0  0  0  0  0  0  0  0
   16.0259  -13.7681  -15.8184 C   0  0  1  0  0  0  0  0  0  0  0  0
   16.7789  -14.9669  -16.2336 C   0  0  0  0  0  0  0  0  0  0  0  0
   16.5072  -16.2289  -15.5648 C   0  0  0  0  0  0  0  0  0  0  0  0
   15.6239  -16.5770  -14.5931 C   0  0  0  0  0  0  0  0  0  0  0  0
   15.7526  -17.9080  -14.3843 N   0  0  0  0  0  0  0  0  0  0  0  0
   16.6868  -18.3773  -15.2014 C   0  0  0  0  0  0  0  0  0  0  0  0
   17.1676  -17.3736  -15.9374 N   0  0  0  0  0  0  0  0  0  0  0  0
   16.5158  -12.4845  -16.4103 C   0  0  0  0  0  0  0  0  0  0  0  0
   16.1009  -12.0761  -17.4956 O   0  0  0  0  0  0  0  0  0  0  0  0
   17.4840  -11.6786  -15.7434 N   0  0  0  0  0  0  0  0  0  0  0  0
   17.9259  -10.4302  -16.2709 C   0  0  1  0  0  0  0  0  0  0  0  0
   16.8034   -9.5462  -16.7532 C   0  0  0  0  0  0  0  0  0  0  0  0
   17.2884   -8.2732  -17.3199 C   0  0  0  0  0  0  0  0  0  0  0  0
   18.4308   -8.2401  -17.8461 O   0  0  0  0  0  0  0  0  0  0  0  0
   18.8427   -9.7101  -15.3437 C   0  0  0  0  0  0  0  0  0  0  0  0
   18.4179   -9.4577  -14.1910 O   0  0  0  0  0  0  0  0  0  0  0  0
   16.5732   -7.0877  -17.3192 O   0  0  0  0  0  0  0  0  0  0  0  0
   23.4835  -11.7050  -14.8784 C   0  0  0  0  0  0  0  0  0  0  0  0
   22.1753  -10.9352  -14.7294 C   0  0  0  0  0  0  0  0  0  0  0  0
   22.3900   -9.4707  -14.9303 C   0  0  2  0  0  0  0  0  0  0  0  0
   23.5469   -8.9230  -14.1505 C   0  0  0  0  0  0  0  0  0  0  0  0
   21.1029   -8.7282  -14.7692 C   0  0  2  0  0  0  0  0  0  0  0  0
   20.1455   -9.3078  -15.7025 N   0  0  0  0  0  0  0  0  0  0  0  0
   21.2051   -7.2626  -14.9511 C   0  0  0  0  0  0  0  0  0  0  0  0
   21.1148   -6.6771  -16.0515 O   0  0  0  0  0  0  0  0  0  0  0  0
   21.4159   -6.4784  -13.8260 O   0  0  0  0  0  0  0  0  0  0  0  0
  2  9  1  0
  2  1  1  6
  3  2  1  0
  4  3  1  0
  4  8  1  0
  5  6  1  0
  5  4  2  0
  6  7  1  0
  7  8  2  0
  9 11  1  0
 10  9  2  0
 11 12  1  0
 12 16  1  0
 12 13  1  1
 14 13  1  0
 14 15  2  0
 16 17  2  0
 16 24  1  0
 18 14  1  0
 20 19  1  0
 21 20  1  0
 21 22  1  1
 23 21  1  0
 23 24  1  6
 25 23  1  0
 25 27  1  0
 26 25  2  0
M  END
$$$$
