HDI.pdb
     RDKit          3D

 27 27  0  0  1  0  0  0  0  0999 V2000
   16.6071  -12.0015  -16.7735 N   0  0  0  0  0  0  0  0  0  0  0  0
   17.3499  -10.8091  -17.2688 C   0  0  1  0  0  0  0  0  0  0  0  0
   16.6315  -10.3834  -18.4851 C   0  0  0  0  0  0  0  0  0  0  0  0
   16.7277  -11.2087  -19.6780 C   0  0  0  0  0  0  0  0  0  0  0  0
   17.6305  -11.2476  -20.6926 C   0  0  0  0  0  0  0  0  0  0  0  0
   17.2714  -12.2583  -21.5179 N   0  0  0  0  0  0  0  0  0  0  0  0
   16.1785  -12.8341  -21.0334 C   0  0  0  0  0  0  0  0  0  0  0  0
   15.8212  -12.2142  -19.9072 N   0  0  0  0  0  0  0  0  0  0  0  0
   17.3332   -9.8149  -16.1511 C   0  0  0  0  0  0  0  0  0  0  0  0
   16.3680   -9.7147  -15.3927 O   0  0  0  0  0  0  0  0  0  0  0  0
   18.4340   -8.9405  -15.9157 N   0  0  0  0  0  0  0  0  0  0  0  0
   18.4393   -7.9973  -14.8470 C   0  0  1  0  0  0  0  0  0  0  0  0
   17.9547   -8.5652  -13.5368 C   0  0  0  0  0  0  0  0  0  0  0  0
   18.0132   -7.5829  -12.4374 C   0  0  0  0  0  0  0  0  0  0  0  0
   18.2793   -6.3836  -12.7095 O   0  0  0  0  0  0  0  0  0  0  0  0
   19.7498   -7.3041  -14.7028 C   0  0  0  0  0  0  0  0  0  0  0  0
   20.7711   -8.0200  -14.5711 O   0  0  0  0  0  0  0  0  0  0  0  0
   17.7945   -7.8805  -11.1031 O   0  0  0  0  0  0  0  0  0  0  0  0
   19.5850   -3.4301  -17.6025 C   0  0  0  0  0  0  0  0  0  0  0  0
   20.6259   -4.3790  -17.0176 C   0  0  0  0  0  0  0  0  0  0  0  0
   20.9770   -3.9920  -15.6183 C   0  0  2  0  0  0  0  0  0  0  0  0
   22.0767   -2.9768  -15.5363 C   0  0  0  0  0  0  0  0  0  0  0  0
   21.1681   -5.2097  -14.7730 C   0  0  2  0  0  0  0  0  0  0  0  0
   19.8868   -5.9008  -14.7081 N   0  0  0  0  0  0  0  0  0  0  0  0
   21.7017   -4.9465  -13.4175 C   0  0  0  0  0  0  0  0  0  0  0  0
   20.9984   -4.8072  -12.3938 O   0  0  0  0  0  0  0  0  0  0  0  0
   23.0773   -4.8463  -13.2656 O   0  0  0  0  0  0  0  0  0  0  0  0
  2  9  1  0
  2  1  1  1
  3  2  1  0
  4  3  1  0
  4  8  1  0
  5  6  1  0
  5  4  2  0
  6  7  1  0
  7  8  2  0
  9 11  1  0
 10  9  2  0
 11 12  1  0
 12 16  1  0
 12 13  1  1
 14 13  1  0
 14 15  2  0
 16 17  2  0
 16 24  1  0
 18 14  1  0
 20 19  1  0
 21 20  1  0
 21 22  1  6
 23 21  1  0
 23 24  1  1
 25 23  1  0
 25 27  1  0
 26 25  2  0
M  END
$$$$
