HDI.pdb
     RDKit          3D

 27 27  0  0  1  0  0  0  0  0999 V2000
   25.6517  -35.9766  -12.0039 N   0  0  0  0  0  0  0  0  0  0  0  0
   25.7484  -34.7334  -11.1889 C   0  0  1  0  0  0  0  0  0  0  0  0
   24.4312  -34.0819  -11.3190 C   0  0  0  0  0  0  0  0  0  0  0  0
   24.0919  -33.4373  -12.5772 C   0  0  0  0  0  0  0  0  0  0  0  0
   24.7643  -33.3128  -13.7512 C   0  0  0  0  0  0  0  0  0  0  0  0
   23.9519  -32.6650  -14.6183 N   0  0  0  0  0  0  0  0  0  0  0  0
   22.8066  -32.3942  -14.0055 C   0  0  0  0  0  0  0  0  0  0  0  0
   22.8613  -32.8547  -12.7544 N   0  0  0  0  0  0  0  0  0  0  0  0
   26.0961  -35.1717   -9.8014 C   0  0  0  0  0  0  0  0  0  0  0  0
   25.6994  -36.2454   -9.3468 O   0  0  0  0  0  0  0  0  0  0  0  0
   26.9018  -34.3653   -8.9457 N   0  0  0  0  0  0  0  0  0  0  0  0
   27.2963  -34.7970   -7.6458 C   0  0  1  0  0  0  0  0  0  0  0  0
   28.7808  -35.0242   -7.5086 C   0  0  0  0  0  0  0  0  0  0  0  0
   29.2012  -36.3443   -8.0162 C   0  0  0  0  0  0  0  0  0  0  0  0
   28.5288  -37.3588   -7.6969 O   0  0  0  0  0  0  0  0  0  0  0  0
   26.7652  -33.9190   -6.5660 C   0  0  0  0  0  0  0  0  0  0  0  0
   27.0038  -32.6906   -6.6501 O   0  0  0  0  0  0  0  0  0  0  0  0
   30.2984  -36.5613   -8.8321 O   0  0  0  0  0  0  0  0  0  0  0  0
   22.1099  -33.2633   -2.8058 C   0  0  0  0  0  0  0  0  0  0  0  0
   23.6252  -33.1439   -2.9318 C   0  0  0  0  0  0  0  0  0  0  0  0
   24.1172  -33.8419   -4.1573 C   0  0  2  0  0  0  0  0  0  0  0  0
   23.7164  -35.2845   -4.2259 C   0  0  0  0  0  0  0  0  0  0  0  0
   25.5735  -33.5736   -4.3608 C   0  0  2  0  0  0  0  0  0  0  0  0
   26.0184  -34.4038   -5.4727 N   0  0  0  0  0  0  0  0  0  0  0  0
   26.4171  -33.7883   -3.1635 C   0  0  0  0  0  0  0  0  0  0  0  0
   26.4393  -33.0336   -2.1676 O   0  0  0  0  0  0  0  0  0  0  0  0
   27.2430  -34.9031   -3.1383 O   0  0  0  0  0  0  0  0  0  0  0  0
  2  9  1  0
  2  1  1  6
  3  2  1  0
  4  3  1  0
  4  8  1  0
  5  6  1  0
  5  4  2  0
  6  7  1  0
  7  8  2  0
  9 11  1  0
 10  9  2  0
 11 12  1  0
 12 16  1  0
 12 13  1  6
 14 13  1  0
 14 15  2  0
 16 17  2  0
 16 24  1  0
 18 14  1  0
 20 19  1  0
 21 20  1  0
 21 22  1  1
 23 21  1  0
 23 24  1  6
 25 23  1  0
 25 27  1  0
 26 25  2  0
M  END
$$$$
