HDI.pdb
     RDKit          3D

 27 27  0  0  1  0  0  0  0  0999 V2000
   22.6668  -11.7282  -16.7569 N   0  0  0  0  0  0  0  0  0  0  0  0
   22.4689  -10.5151  -17.5985 C   0  0  1  0  0  0  0  0  0  0  0  0
   21.8427  -11.0045  -18.8415 C   0  0  0  0  0  0  0  0  0  0  0  0
   22.6164  -11.8651  -19.7215 C   0  0  0  0  0  0  0  0  0  0  0  0
   22.9132  -11.7894  -21.0451 C   0  0  0  0  0  0  0  0  0  0  0  0
   23.7264  -12.8303  -21.3397 N   0  0  0  0  0  0  0  0  0  0  0  0
   23.9325  -13.5341  -20.2339 C   0  0  0  0  0  0  0  0  0  0  0  0
   23.2664  -12.9682  -19.2257 N   0  0  0  0  0  0  0  0  0  0  0  0
   21.6186   -9.5844  -16.7930 C   0  0  0  0  0  0  0  0  0  0  0  0
   20.7702  -10.0055  -16.0059 O   0  0  0  0  0  0  0  0  0  0  0  0
   21.7539   -8.1696  -16.9020 N   0  0  0  0  0  0  0  0  0  0  0  0
   20.9830   -7.2700  -16.1095 C   0  0  1  0  0  0  0  0  0  0  0  0
   21.0419   -7.5634  -14.6315 C   0  0  0  0  0  0  0  0  0  0  0  0
   19.7946   -8.1660  -14.1234 C   0  0  0  0  0  0  0  0  0  0  0  0
   18.8416   -8.3526  -14.9235 O   0  0  0  0  0  0  0  0  0  0  0  0
   21.2867   -5.8422  -16.4064 C   0  0  0  0  0  0  0  0  0  0  0  0
   22.4748   -5.4640  -16.2720 O   0  0  0  0  0  0  0  0  0  0  0  0
   19.5838   -8.5506  -12.8102 O   0  0  0  0  0  0  0  0  0  0  0  0
   20.0343   -3.9138  -20.8907 C   0  0  0  0  0  0  0  0  0  0  0  0
   20.6279   -4.1630  -19.5081 C   0  0  0  0  0  0  0  0  0  0  0  0
   20.0289   -3.2437  -18.4945 C   0  0  2  0  0  0  0  0  0  0  0  0
   20.0415   -1.8040  -18.9112 C   0  0  0  0  0  0  0  0  0  0  0  0
   20.5958   -3.5211  -17.1397 C   0  0  2  0  0  0  0  0  0  0  0  0
   20.3103   -4.9151  -16.8248 N   0  0  0  0  0  0  0  0  0  0  0  0
   20.1108   -2.6220  -16.0683 C   0  0  0  0  0  0  0  0  0  0  0  0
   19.0096   -2.7394  -15.4891 O   0  0  0  0  0  0  0  0  0  0  0  0
   20.9307   -1.5740  -15.6748 O   0  0  0  0  0  0  0  0  0  0  0  0
  2  9  1  0
  2  1  1  1
  3  2  1  0
  4  3  1  0
  4  8  1  0
  5  6  1  0
  5  4  2  0
  6  7  1  0
  7  8  2  0
  9 11  1  0
 10  9  2  0
 11 12  1  0
 12 16  1  0
 12 13  1  1
 14 13  1  0
 14 15  2  0
 16 17  2  0
 16 24  1  0
 18 14  1  0
 20 19  1  0
 21 20  1  0
 21 22  1  6
 23 21  1  0
 23 24  1  1
 25 23  1  0
 25 27  1  0
 26 25  2  0
M  END
$$$$
