HDI.pdb
     RDKit          3D

 27 27  0  0  1  0  0  0  0  0999 V2000
   18.9537  -10.9264  -17.3217 N   0  0  0  0  0  0  0  0  0  0  0  0
   19.3523   -9.7987  -18.2096 C   0  0  1  0  0  0  0  0  0  0  0  0
   18.3152   -9.7461  -19.2575 C   0  0  0  0  0  0  0  0  0  0  0  0
   18.2339  -10.8368  -20.2152 C   0  0  0  0  0  0  0  0  0  0  0  0
   18.6975  -10.9755  -21.4847 C   0  0  0  0  0  0  0  0  0  0  0  0
   18.3936  -12.2291  -21.8940 N   0  0  0  0  0  0  0  0  0  0  0  0
   17.7605  -12.8551  -20.9101 C   0  0  0  0  0  0  0  0  0  0  0  0
   17.6476  -12.0290  -19.8684 N   0  0  0  0  0  0  0  0  0  0  0  0
   19.4223   -8.5862  -17.3361 C   0  0  0  0  0  0  0  0  0  0  0  0
   18.6863   -8.4542  -16.3575 O   0  0  0  0  0  0  0  0  0  0  0  0
   20.3441   -7.5313  -17.5988 N   0  0  0  0  0  0  0  0  0  0  0  0
   20.4794   -6.4078  -16.7321 C   0  0  1  0  0  0  0  0  0  0  0  0
   21.5710   -6.5655  -15.7036 C   0  0  0  0  0  0  0  0  0  0  0  0
   21.1942   -7.4865  -14.6142 C   0  0  0  0  0  0  0  0  0  0  0  0
   20.3058   -7.1289  -13.7981 O   0  0  0  0  0  0  0  0  0  0  0  0
   20.5965   -5.1226  -17.4759 C   0  0  0  0  0  0  0  0  0  0  0  0
   21.5142   -5.0279  -18.3255 O   0  0  0  0  0  0  0  0  0  0  0  0
   21.7508   -8.7381  -14.4133 O   0  0  0  0  0  0  0  0  0  0  0  0
   16.1346   -2.2371  -18.8905 C   0  0  0  0  0  0  0  0  0  0  0  0
   17.3730   -2.4516  -18.0265 C   0  0  0  0  0  0  0  0  0  0  0  0
   18.5786   -2.7029  -18.8717 C   0  0  2  0  0  0  0  0  0  0  0  0
   18.4021   -3.8281  -19.8462 C   0  0  0  0  0  0  0  0  0  0  0  0
   19.8047   -2.7819  -18.0207 C   0  0  2  0  0  0  0  0  0  0  0  0
   19.7331   -4.0275  -17.2677 N   0  0  0  0  0  0  0  0  0  0  0  0
   20.0104   -1.6251  -17.1201 C   0  0  0  0  0  0  0  0  0  0  0  0
   20.2824   -0.4674  -17.5045 O   0  0  0  0  0  0  0  0  0  0  0  0
   19.8946   -1.8332  -15.7532 O   0  0  0  0  0  0  0  0  0  0  0  0
  2  9  1  0
  2  1  1  1
  3  2  1  0
  4  3  1  0
  4  8  1  0
  5  6  1  0
  5  4  2  0
  6  7  1  0
  7  8  2  0
  9 11  1  0
 10  9  2  0
 11 12  1  0
 12 16  1  0
 12 13  1  6
 14 13  1  0
 14 15  2  0
 16 17  2  0
 16 24  1  0
 18 14  1  0
 20 19  1  0
 21 20  1  0
 21 22  1  1
 23 21  1  0
 23 24  1  1
 25 23  1  0
 25 27  1  0
 26 25  2  0
M  END
$$$$
