CEK.pdb
     RDKit          3D

 25 24  0  0  1  0  0  0  0  0999 V2000
   14.2620  -18.4160    2.4638 N   0  0  0  0  0  0  0  0  0  0  0  0
   15.1925  -19.4235    2.8996 C   0  0  1  0  0  0  0  0  0  0  0  0
   16.4601  -19.2441    2.0560 C   0  0  0  0  0  0  0  0  0  0  0  0
   16.1806  -19.9754    0.4306 S   0  0  0  0  0  0  0  0  0  0  0  0
   15.4910  -19.1777    4.3381 C   0  0  0  0  0  0  0  0  0  0  0  0
   15.1127  -18.1074    4.9248 O   0  0  0  0  0  0  0  0  0  0  0  0
   16.2025  -20.1007    5.1352 N   0  0  0  0  0  0  0  0  0  0  0  0
   16.4595  -19.8644    6.5653 C   0  0  1  0  0  0  0  0  0  0  0  0
   16.6557  -21.1851    7.2488 C   0  0  0  0  0  0  0  0  0  0  0  0
   16.8411  -21.0220    8.7221 C   0  0  0  0  0  0  0  0  0  0  0  0
   17.0535  -22.3855    9.3681 C   0  0  0  0  0  0  0  0  0  0  0  0
   16.8912  -22.4941   10.6117 O   0  0  0  0  0  0  0  0  0  0  0  0
   17.6031  -18.9357    6.6294 C   0  0  0  0  0  0  0  0  0  0  0  0
   18.4798  -18.9695    5.7053 O   0  0  0  0  0  0  0  0  0  0  0  0
   17.4129  -23.4502    8.5859 O   0  0  0  0  0  0  0  0  0  0  0  0
   17.8339  -17.9710    7.6463 N   0  0  0  0  0  0  0  0  0  0  0  0
   19.0281  -17.1057    7.6398 C   0  0  1  0  0  0  0  0  0  0  0  0
   18.6446  -15.6777    7.6174 C   0  0  0  0  0  0  0  0  0  0  0  0
   19.8424  -14.7768    7.5749 C   0  0  0  0  0  0  0  0  0  0  0  0
   19.3535  -13.3242    7.6438 C   0  0  0  0  0  0  0  0  0  0  0  0
   20.5338  -12.3763    7.6075 C   0  0  0  0  0  0  0  0  0  0  0  0
   20.1360  -11.0015    7.7488 N   0  0  0  0  0  0  0  0  0  0  0  0
   19.9174  -17.4372    8.7472 C   0  0  0  0  0  0  0  0  0  0  0  0
   19.4817  -17.8006    9.8931 O   0  0  0  0  0  0  0  0  0  0  0  0
   21.2941  -17.3920    8.6528 O   0  0  0  0  0  0  0  0  0  0  0  0
  2  1  1  6
  3  2  1  0
  4  3  1  0
  5  2  1  0
  5  6  2  0
  7  5  1  0
  8  7  1  0
  9 10  1  0
  8  9  1  1
 10 11  1  0
 11 12  2  0
 11 15  1  0
 13  8  1  0
 14 13  2  0
 16 13  1  0
 17 16  1  0
 17 23  1  0
 17 18  1  1
 19 18  1  0
 20 19  1  0
 20 21  1  0
 22 21  1  0
 23 25  1  0
 24 23  2  0
M  END
$$$$
