CEK.pdb
     RDKit          3D

 25 24  0  0  1  0  0  0  0  0999 V2000
   18.8633  -12.1813  -15.4163 N   0  0  0  0  0  0  0  0  0  0  0  0
   19.1572  -11.0760  -16.2897 C   0  0  1  0  0  0  0  0  0  0  0  0
   18.1484  -11.1473  -17.4420 C   0  0  0  0  0  0  0  0  0  0  0  0
   18.7175  -12.3775  -18.6327 S   0  0  0  0  0  0  0  0  0  0  0  0
   18.9670   -9.8184  -15.5145 C   0  0  0  0  0  0  0  0  0  0  0  0
   17.9695   -9.6615  -14.7315 O   0  0  0  0  0  0  0  0  0  0  0  0
   19.8660   -8.7327  -15.5947 N   0  0  0  0  0  0  0  0  0  0  0  0
   19.6165   -7.4574  -14.9030 C   0  0  1  0  0  0  0  0  0  0  0  0
   20.9140   -6.9372  -14.3592 C   0  0  0  0  0  0  0  0  0  0  0  0
   20.7517   -5.5872  -13.7405 C   0  0  0  0  0  0  0  0  0  0  0  0
   22.0606   -5.1592  -13.0884 C   0  0  0  0  0  0  0  0  0  0  0  0
   22.3953   -5.6977  -12.0009 O   0  0  0  0  0  0  0  0  0  0  0  0
   18.9379   -6.5858  -15.8798 C   0  0  0  0  0  0  0  0  0  0  0  0
   19.3316   -6.5913  -17.0917 O   0  0  0  0  0  0  0  0  0  0  0  0
   22.8337   -4.2071  -13.6968 O   0  0  0  0  0  0  0  0  0  0  0  0
   17.8505   -5.7152  -15.6016 N   0  0  0  0  0  0  0  0  0  0  0  0
   17.3012   -4.8064  -16.6250 C   0  0  1  0  0  0  0  0  0  0  0  0
   15.8905   -5.1364  -16.9209 C   0  0  0  0  0  0  0  0  0  0  0  0
   15.2772   -4.1625  -17.8819 C   0  0  0  0  0  0  0  0  0  0  0  0
   13.8316   -4.5998  -18.1521 C   0  0  0  0  0  0  0  0  0  0  0  0
   13.6090   -4.7675  -19.6404 C   0  0  0  0  0  0  0  0  0  0  0  0
   14.1146   -6.0211  -20.1314 N   0  0  0  0  0  0  0  0  0  0  0  0
   17.4891   -3.4127  -16.2387 C   0  0  0  0  0  0  0  0  0  0  0  0
   17.4549   -3.0270  -15.0201 O   0  0  0  0  0  0  0  0  0  0  0  0
   17.7226   -2.3997  -17.1472 O   0  0  0  0  0  0  0  0  0  0  0  0
  2  1  1  1
  3  2  1  0
  4  3  1  0
  5  2  1  0
  5  6  2  0
  7  5  1  0
  8  7  1  0
  9 10  1  0
  8  9  1  6
 10 11  1  0
 11 12  2  0
 11 15  1  0
 13  8  1  0
 14 13  2  0
 16 13  1  0
 17 16  1  0
 17 23  1  0
 17 18  1  1
 19 18  1  0
 20 19  1  0
 20 21  1  0
 22 21  1  0
 23 25  1  0
 24 23  2  0
M  END
$$$$
