CEK.pdb
     RDKit          3D

 25 24  0  0  1  0  0  0  0  0999 V2000
   20.5135  -13.4109  -16.5451 N   0  0  0  0  0  0  0  0  0  0  0  0
   20.4374  -12.0221  -16.9149 C   0  0  1  0  0  0  0  0  0  0  0  0
   18.9897  -11.5814  -16.6687 C   0  0  0  0  0  0  0  0  0  0  0  0
   17.9143  -12.4617  -17.8192 S   0  0  0  0  0  0  0  0  0  0  0  0
   21.3653  -11.2628  -16.0309 C   0  0  0  0  0  0  0  0  0  0  0  0
   21.3435  -11.4051  -14.7612 O   0  0  0  0  0  0  0  0  0  0  0  0
   22.3164  -10.3486  -16.5339 N   0  0  0  0  0  0  0  0  0  0  0  0
   23.2052   -9.5781  -15.6488 C   0  0  1  0  0  0  0  0  0  0  0  0
   24.6268   -9.8051  -16.0700 C   0  0  0  0  0  0  0  0  0  0  0  0
   25.1323  -11.1346  -15.6131 C   0  0  0  0  0  0  0  0  0  0  0  0
   26.6198  -11.2531  -15.9211 C   0  0  0  0  0  0  0  0  0  0  0  0
   27.1842  -10.3101  -16.5350 O   0  0  0  0  0  0  0  0  0  0  0  0
   22.7361   -8.1815  -15.7099 C   0  0  0  0  0  0  0  0  0  0  0  0
   22.2009   -7.7553  -16.7848 O   0  0  0  0  0  0  0  0  0  0  0  0
   27.3000  -12.3736  -15.5255 O   0  0  0  0  0  0  0  0  0  0  0  0
   22.8169   -7.2312  -14.6570 N   0  0  0  0  0  0  0  0  0  0  0  0
   22.2565   -5.8736  -14.7910 C   0  0  1  0  0  0  0  0  0  0  0  0
   20.8523   -5.9258  -15.2517 C   0  0  0  0  0  0  0  0  0  0  0  0
   20.2778   -4.5556  -15.4532 C   0  0  0  0  0  0  0  0  0  0  0  0
   18.8328   -4.7083  -15.9456 C   0  0  0  0  0  0  0  0  0  0  0  0
   18.2348   -3.3470  -16.2324 C   0  0  0  0  0  0  0  0  0  0  0  0
   16.8623   -3.4300  -16.6536 N   0  0  0  0  0  0  0  0  0  0  0  0
   22.4203   -5.1182  -13.5541 C   0  0  0  0  0  0  0  0  0  0  0  0
   22.6007   -5.6846  -12.4221 O   0  0  0  0  0  0  0  0  0  0  0  0
   22.3996   -3.7388  -13.5007 O   0  0  0  0  0  0  0  0  0  0  0  0
  2  1  1  1
  3  2  1  0
  4  3  1  0
  5  2  1  0
  5  6  2  0
  7  5  1  0
  8  7  1  0
  9 10  1  0
  8  9  1  6
 10 11  1  0
 11 12  2  0
 11 15  1  0
 13  8  1  0
 14 13  2  0
 16 13  1  0
 17 16  1  0
 17 23  1  0
 17 18  1  1
 19 18  1  0
 20 19  1  0
 20 21  1  0
 22 21  1  0
 23 25  1  0
 24 23  2  0
M  END
$$$$
