CEK.pdb
     RDKit          3D

 25 24  0  0  1  0  0  0  0  0999 V2000
   30.6728  -35.5318   -1.8978 N   0  0  0  0  0  0  0  0  0  0  0  0
   30.5405  -35.8724   -0.5058 C   0  0  1  0  0  0  0  0  0  0  0  0
   31.9629  -35.9898    0.0540 C   0  0  0  0  0  0  0  0  0  0  0  0
   32.5195  -37.6954   -0.1358 S   0  0  0  0  0  0  0  0  0  0  0  0
   29.8106  -34.7626    0.1684 C   0  0  0  0  0  0  0  0  0  0  0  0
   29.9399  -33.5500   -0.2133 O   0  0  0  0  0  0  0  0  0  0  0  0
   28.9401  -34.9775    1.2589 N   0  0  0  0  0  0  0  0  0  0  0  0
   28.1690  -33.8836    1.8720 C   0  0  1  0  0  0  0  0  0  0  0  0
   26.7099  -34.1100    1.6083 C   0  0  0  0  0  0  0  0  0  0  0  0
   25.8653  -33.0442    2.2267 C   0  0  0  0  0  0  0  0  0  0  0  0
   24.3936  -33.3326    1.9570 C   0  0  0  0  0  0  0  0  0  0  0  0
   23.6370  -33.5660    2.9356 O   0  0  0  0  0  0  0  0  0  0  0  0
   28.5636  -33.8483    3.2923 C   0  0  0  0  0  0  0  0  0  0  0  0
   28.5643  -34.9329    3.9611 O   0  0  0  0  0  0  0  0  0  0  0  0
   23.9347  -33.3306    0.6671 O   0  0  0  0  0  0  0  0  0  0  0  0
   28.9617  -32.6921    4.0154 N   0  0  0  0  0  0  0  0  0  0  0  0
   29.2712  -32.7452    5.4563 C   0  0  1  0  0  0  0  0  0  0  0  0
   30.0384  -31.5526    5.8754 C   0  0  0  0  0  0  0  0  0  0  0  0
   30.3962  -31.5996    7.3306 C   0  0  0  0  0  0  0  0  0  0  0  0
   31.0650  -30.2703    7.7041 C   0  0  0  0  0  0  0  0  0  0  0  0
   31.4241  -30.2644    9.1751 C   0  0  0  0  0  0  0  0  0  0  0  0
   32.0758  -29.0461    9.5743 N   0  0  0  0  0  0  0  0  0  0  0  0
   28.0590  -32.9453    6.2424 C   0  0  0  0  0  0  0  0  0  0  0  0
   26.9281  -32.4593    5.8966 O   0  0  0  0  0  0  0  0  0  0  0  0
   28.0280  -33.6743    7.4144 O   0  0  0  0  0  0  0  0  0  0  0  0
  2  1  1  6
  3  2  1  0
  4  3  1  0
  5  2  1  0
  5  6  2  0
  7  5  1  0
  8  7  1  0
  9 10  1  0
  8  9  1  1
 10 11  1  0
 11 12  2  0
 11 15  1  0
 13  8  1  0
 14 13  2  0
 16 13  1  0
 17 16  1  0
 17 23  1  0
 17 18  1  1
 19 18  1  0
 20 19  1  0
 20 21  1  0
 22 21  1  0
 23 25  1  0
 24 23  2  0
M  END
$$$$
