CEK.pdb
     RDKit          3D

 25 24  0  0  1  0  0  0  0  0999 V2000
   18.3157  -12.0896  -15.5916 N   0  0  0  0  0  0  0  0  0  0  0  0
   17.5413  -10.9052  -15.3299 C   0  0  1  0  0  0  0  0  0  0  0  0
   16.1100  -11.3722  -15.0404 C   0  0  0  0  0  0  0  0  0  0  0  0
   15.1077   -9.9334  -14.6157 S   0  0  0  0  0  0  0  0  0  0  0  0
   18.1189  -10.2379  -14.1300 C   0  0  0  0  0  0  0  0  0  0  0  0
   18.4722  -10.9063  -13.0999 O   0  0  0  0  0  0  0  0  0  0  0  0
   18.3104   -8.8410  -14.0555 N   0  0  0  0  0  0  0  0  0  0  0  0
   18.8730   -8.1910  -12.8606 C   0  0  1  0  0  0  0  0  0  0  0  0
   19.9281   -7.2148  -13.2893 C   0  0  0  0  0  0  0  0  0  0  0  0
   20.4675   -6.4409  -12.1310 C   0  0  0  0  0  0  0  0  0  0  0  0
   21.5687   -5.5019  -12.6076 C   0  0  0  0  0  0  0  0  0  0  0  0
   21.4022   -4.2615  -12.4722 O   0  0  0  0  0  0  0  0  0  0  0  0
   17.7295   -7.6154  -12.1289 C   0  0  0  0  0  0  0  0  0  0  0  0
   16.8395   -6.9745  -12.7776 O   0  0  0  0  0  0  0  0  0  0  0  0
   22.7029   -6.0266  -13.1668 O   0  0  0  0  0  0  0  0  0  0  0  0
   17.5069   -7.7090  -10.7290 N   0  0  0  0  0  0  0  0  0  0  0  0
   16.4143   -6.9738  -10.0651 C   0  0  1  0  0  0  0  0  0  0  0  0
   15.3711   -7.9032   -9.5810 C   0  0  0  0  0  0  0  0  0  0  0  0
   14.2296   -7.1766   -8.9351 C   0  0  0  0  0  0  0  0  0  0  0  0
   13.1434   -8.2023   -8.5859 C   0  0  0  0  0  0  0  0  0  0  0  0
   11.9312   -7.5001   -8.0110 C   0  0  0  0  0  0  0  0  0  0  0  0
   10.8596   -8.4125   -7.7152 N   0  0  0  0  0  0  0  0  0  0  0  0
   16.9338   -6.1063   -9.0140 C   0  0  0  0  0  0  0  0  0  0  0  0
   18.0739   -6.2965   -8.4672 O   0  0  0  0  0  0  0  0  0  0  0  0
   16.2472   -5.0122   -8.5267 O   0  0  0  0  0  0  0  0  0  0  0  0
  2  1  1  1
  3  2  1  0
  4  3  1  0
  5  2  1  0
  5  6  2  0
  7  5  1  0
  8  7  1  0
  9 10  1  0
  8  9  1  6
 10 11  1  0
 11 12  2  0
 11 15  1  0
 13  8  1  0
 14 13  2  0
 16 13  1  0
 17 16  1  0
 17 23  1  0
 17 18  1  1
 19 18  1  0
 20 19  1  0
 20 21  1  0
 22 21  1  0
 23 25  1  0
 24 23  2  0
M  END
$$$$
