CEK.pdb
     RDKit          3D

 25 24  0  0  1  0  0  0  0  0999 V2000
   28.4863  -20.9318  -16.4942 N   0  0  0  0  0  0  0  0  0  0  0  0
   27.9286  -19.9083  -15.6502 C   0  0  1  0  0  0  0  0  0  0  0  0
   27.3874  -18.8179  -16.5822 C   0  0  0  0  0  0  0  0  0  0  0  0
   28.7720  -17.8239  -17.1737 S   0  0  0  0  0  0  0  0  0  0  0  0
   26.8166  -20.5171  -14.8681 C   0  0  0  0  0  0  0  0  0  0  0  0
   26.0673  -21.4235  -15.3680 O   0  0  0  0  0  0  0  0  0  0  0  0
   26.5234  -20.1361  -13.5406 N   0  0  0  0  0  0  0  0  0  0  0  0
   25.5162  -20.8390  -12.7291 C   0  0  1  0  0  0  0  0  0  0  0  0
   25.8280  -20.6280  -11.2772 C   0  0  0  0  0  0  0  0  0  0  0  0
   24.8306  -21.3043  -10.3944 C   0  0  0  0  0  0  0  0  0  0  0  0
   25.2201  -21.1095   -8.9342 C   0  0  0  0  0  0  0  0  0  0  0  0
   26.2661  -20.4601   -8.6720 O   0  0  0  0  0  0  0  0  0  0  0  0
   24.2039  -20.3397  -13.1798 C   0  0  0  0  0  0  0  0  0  0  0  0
   24.0432  -19.0868  -13.3474 O   0  0  0  0  0  0  0  0  0  0  0  0
   24.4287  -21.6414   -7.9517 O   0  0  0  0  0  0  0  0  0  0  0  0
   23.0632  -21.1382  -13.4611 N   0  0  0  0  0  0  0  0  0  0  0  0
   21.7622  -20.5386  -13.8114 C   0  0  1  0  0  0  0  0  0  0  0  0
   20.9685  -21.4567  -14.6562 C   0  0  0  0  0  0  0  0  0  0  0  0
   19.6685  -20.8431  -15.0820 C   0  0  0  0  0  0  0  0  0  0  0  0
   18.9209  -21.8592  -15.9552 C   0  0  0  0  0  0  0  0  0  0  0  0
   17.6062  -21.2729  -16.4250 C   0  0  0  0  0  0  0  0  0  0  0  0
   16.7825  -22.2433  -17.0944 N   0  0  0  0  0  0  0  0  0  0  0  0
   21.0481  -20.1082  -12.6147 C   0  0  0  0  0  0  0  0  0  0  0  0
   20.3552  -19.0342  -12.5772 O   0  0  0  0  0  0  0  0  0  0  0  0
   21.0551  -20.8196  -11.4315 O   0  0  0  0  0  0  0  0  0  0  0  0
  2  1  1  6
  3  2  1  0
  4  3  1  0
  5  2  1  0
  5  6  2  0
  7  5  1  0
  8  7  1  0
  9 10  1  0
  8  9  1  1
 10 11  1  0
 11 12  2  0
 11 15  1  0
 13  8  1  0
 14 13  2  0
 16 13  1  0
 17 16  1  0
 17 23  1  0
 17 18  1  1
 19 18  1  0
 20 19  1  0
 20 21  1  0
 22 21  1  0
 23 25  1  0
 24 23  2  0
M  END
$$$$
