CEK.pdb
     RDKit          3D

 25 24  0  0  1  0  0  0  0  0999 V2000
   17.7296  -13.6506  -15.7680 N   0  0  0  0  0  0  0  0  0  0  0  0
   17.7568  -12.4873  -16.6148 C   0  0  1  0  0  0  0  0  0  0  0  0
   16.4073  -12.4419  -17.3410 C   0  0  0  0  0  0  0  0  0  0  0  0
   16.4424  -13.6278  -18.7002 S   0  0  0  0  0  0  0  0  0  0  0  0
   17.9135  -11.2906  -15.7419 C   0  0  0  0  0  0  0  0  0  0  0  0
   17.2475  -11.1627  -14.6588 O   0  0  0  0  0  0  0  0  0  0  0  0
   18.7973  -10.2341  -16.0520 N   0  0  0  0  0  0  0  0  0  0  0  0
   18.9016   -9.0293  -15.2125 C   0  0  1  0  0  0  0  0  0  0  0  0
   20.3247   -8.5553  -15.2169 C   0  0  0  0  0  0  0  0  0  0  0  0
   20.5116   -7.3616  -14.3385 C   0  0  0  0  0  0  0  0  0  0  0  0
   21.9593   -6.8917  -14.4100 C   0  0  0  0  0  0  0  0  0  0  0  0
   22.8113   -7.6471  -14.9467 O   0  0  0  0  0  0  0  0  0  0  0  0
   17.9086   -8.0745  -15.7386 C   0  0  0  0  0  0  0  0  0  0  0  0
   17.7722   -7.9562  -16.9999 O   0  0  0  0  0  0  0  0  0  0  0  0
   22.2945   -5.6692  -13.8927 O   0  0  0  0  0  0  0  0  0  0  0  0
   17.0556   -7.2489  -14.9584 N   0  0  0  0  0  0  0  0  0  0  0  0
   16.0905   -6.3225  -15.5792 C   0  0  1  0  0  0  0  0  0  0  0  0
   14.7059   -6.6620  -15.1863 C   0  0  0  0  0  0  0  0  0  0  0  0
   13.7045   -5.7332  -15.8049 C   0  0  0  0  0  0  0  0  0  0  0  0
   12.3045   -6.1621  -15.3468 C   0  0  0  0  0  0  0  0  0  0  0  0
   11.2591   -5.2396  -15.9376 C   0  0  0  0  0  0  0  0  0  0  0  0
    9.9192   -5.6816  -15.6589 N   0  0  0  0  0  0  0  0  0  0  0  0
   16.4390   -4.9362  -15.2896 C   0  0  0  0  0  0  0  0  0  0  0  0
   17.1586   -4.6041  -14.2862 O   0  0  0  0  0  0  0  0  0  0  0  0
   16.0293   -3.8734  -16.0696 O   0  0  0  0  0  0  0  0  0  0  0  0
  2  1  1  1
  3  2  1  0
  4  3  1  0
  5  2  1  0
  5  6  2  0
  7  5  1  0
  8  7  1  0
  9 10  1  0
  8  9  1  6
 10 11  1  0
 11 12  2  0
 11 15  1  0
 13  8  1  0
 14 13  2  0
 16 13  1  0
 17 16  1  0
 17 23  1  0
 17 18  1  1
 19 18  1  0
 20 19  1  0
 20 21  1  0
 22 21  1  0
 23 25  1  0
 24 23  2  0
M  END
$$$$
