CEK.pdb
     RDKit          3D

 25 24  0  0  1  0  0  0  0  0999 V2000
   17.9772  -12.5893  -15.4937 N   0  0  0  0  0  0  0  0  0  0  0  0
   17.4319  -11.3837  -16.0595 C   0  0  1  0  0  0  0  0  0  0  0  0
   15.9062  -11.5210  -15.9972 C   0  0  0  0  0  0  0  0  0  0  0  0
   15.3713  -12.6274  -17.3180 S   0  0  0  0  0  0  0  0  0  0  0  0
   17.8819  -10.2401  -15.2178 C   0  0  0  0  0  0  0  0  0  0  0  0
   17.7737  -10.2653  -13.9448 O   0  0  0  0  0  0  0  0  0  0  0  0
   18.4497   -9.0697  -15.7664 N   0  0  0  0  0  0  0  0  0  0  0  0
   18.9263   -7.9615  -14.9227 C   0  0  1  0  0  0  0  0  0  0  0  0
   20.4184   -7.8656  -15.0431 C   0  0  0  0  0  0  0  0  0  0  0  0
   20.8834   -8.1998  -16.4229 C   0  0  0  0  0  0  0  0  0  0  0  0
   22.3716   -7.8989  -16.5513 C   0  0  0  0  0  0  0  0  0  0  0  0
   22.9410   -8.1365  -17.6486 O   0  0  0  0  0  0  0  0  0  0  0  0
   18.1729   -6.7675  -15.3481 C   0  0  0  0  0  0  0  0  0  0  0  0
   17.9403   -6.5926  -16.5886 O   0  0  0  0  0  0  0  0  0  0  0  0
   23.0469   -7.3818  -15.4785 O   0  0  0  0  0  0  0  0  0  0  0  0
   17.6576   -5.7606  -14.4887 N   0  0  0  0  0  0  0  0  0  0  0  0
   16.8982   -4.6086  -15.0095 C   0  0  1  0  0  0  0  0  0  0  0  0
   15.7584   -4.2847  -14.1248 C   0  0  0  0  0  0  0  0  0  0  0  0
   15.0099   -3.0742  -14.5962 C   0  0  0  0  0  0  0  0  0  0  0  0
   13.8565   -2.8118  -13.6191 C   0  0  0  0  0  0  0  0  0  0  0  0
   12.9930   -1.6764  -14.1271 C   0  0  0  0  0  0  0  0  0  0  0  0
   13.6258   -0.3947  -13.9686 N   0  0  0  0  0  0  0  0  0  0  0  0
   17.7770   -3.4683  -15.2435 C   0  0  0  0  0  0  0  0  0  0  0  0
   18.8178   -3.2465  -14.5348 O   0  0  0  0  0  0  0  0  0  0  0  0
   17.5649   -2.5414  -16.2444 O   0  0  0  0  0  0  0  0  0  0  0  0
  2  1  1  1
  3  2  1  0
  4  3  1  0
  5  2  1  0
  5  6  2  0
  7  5  1  0
  8  7  1  0
  9 10  1  0
  8  9  1  6
 10 11  1  0
 11 12  2  0
 11 15  1  0
 13  8  1  0
 14 13  2  0
 16 13  1  0
 17 16  1  0
 17 23  1  0
 17 18  1  1
 19 18  1  0
 20 19  1  0
 20 21  1  0
 22 21  1  0
 23 25  1  0
 24 23  2  0
M  END
$$$$
