CEK.pdb
     RDKit          3D

 25 24  0  0  1  0  0  0  0  0999 V2000
   17.9432  -11.8444  -15.3948 N   0  0  0  0  0  0  0  0  0  0  0  0
   17.4393  -10.4978  -15.3340 C   0  0  1  0  0  0  0  0  0  0  0  0
   15.9099  -10.6026  -15.3083 C   0  0  0  0  0  0  0  0  0  0  0  0
   15.3274  -10.9612  -16.9777 S   0  0  0  0  0  0  0  0  0  0  0  0
   17.9354   -9.8811  -14.0721 C   0  0  0  0  0  0  0  0  0  0  0  0
   17.9683  -10.5378  -12.9764 O   0  0  0  0  0  0  0  0  0  0  0  0
   18.3953   -8.5478  -14.0072 N   0  0  0  0  0  0  0  0  0  0  0  0
   18.9327   -7.9650  -12.7668 C   0  0  1  0  0  0  0  0  0  0  0  0
   20.0793   -7.0613  -13.1111 C   0  0  0  0  0  0  0  0  0  0  0  0
   20.6123   -6.3614  -11.9038 C   0  0  0  0  0  0  0  0  0  0  0  0
   21.8127   -5.5070  -12.2923 C   0  0  0  0  0  0  0  0  0  0  0  0
   21.6166   -4.3077  -12.6207 O   0  0  0  0  0  0  0  0  0  0  0  0
   17.7931   -7.3209  -12.0880 C   0  0  0  0  0  0  0  0  0  0  0  0
   17.0979   -6.4638  -12.7249 O   0  0  0  0  0  0  0  0  0  0  0  0
   23.0647   -6.0609  -12.2745 O   0  0  0  0  0  0  0  0  0  0  0  0
   17.3725   -7.5692  -10.7540 N   0  0  0  0  0  0  0  0  0  0  0  0
   16.1791   -6.9186  -10.1818 C   0  0  1  0  0  0  0  0  0  0  0  0
   15.3437   -7.8968   -9.4524 C   0  0  0  0  0  0  0  0  0  0  0  0
   14.1184   -7.2609   -8.8675 C   0  0  0  0  0  0  0  0  0  0  0  0
   13.2560   -8.3651   -8.2423 C   0  0  0  0  0  0  0  0  0  0  0  0
   11.9338   -7.7916   -7.7778 C   0  0  0  0  0  0  0  0  0  0  0  0
   11.1031   -8.7779   -7.1410 N   0  0  0  0  0  0  0  0  0  0  0  0
   16.5535   -5.7706   -9.3639 C   0  0  0  0  0  0  0  0  0  0  0  0
   15.7698   -4.7785   -9.1727 O   0  0  0  0  0  0  0  0  0  0  0  0
   17.7738   -5.6595   -8.7278 O   0  0  0  0  0  0  0  0  0  0  0  0
  2  1  1  1
  3  2  1  0
  4  3  1  0
  5  2  1  0
  5  6  2  0
  7  5  1  0
  8  7  1  0
  9 10  1  0
  8  9  1  6
 10 11  1  0
 11 12  2  0
 11 15  1  0
 13  8  1  0
 14 13  2  0
 16 13  1  0
 17 16  1  0
 17 23  1  0
 17 18  1  1
 19 18  1  0
 20 19  1  0
 20 21  1  0
 22 21  1  0
 23 25  1  0
 24 23  2  0
M  END
$$$$
