CEK.pdb
     RDKit          3D

 25 24  0  0  1  0  0  0  0  0999 V2000
   20.7367  -16.2337  -16.4444 N   0  0  0  0  0  0  0  0  0  0  0  0
   19.8043  -15.3415  -17.0811 C   0  0  1  0  0  0  0  0  0  0  0  0
   18.4261  -15.6475  -16.4831 C   0  0  0  0  0  0  0  0  0  0  0  0
   17.9316  -17.3066  -16.9908 S   0  0  0  0  0  0  0  0  0  0  0  0
   20.2107  -13.9464  -16.7534 C   0  0  0  0  0  0  0  0  0  0  0  0
   20.2257  -13.5213  -15.5484 O   0  0  0  0  0  0  0  0  0  0  0  0
   20.6005  -13.0163  -17.7414 N   0  0  0  0  0  0  0  0  0  0  0  0
   20.9379  -11.6214  -17.4133 C   0  0  1  0  0  0  0  0  0  0  0  0
   21.8389  -11.0751  -18.4808 C   0  0  0  0  0  0  0  0  0  0  0  0
   23.2508  -11.5266  -18.2959 C   0  0  0  0  0  0  0  0  0  0  0  0
   24.1243  -10.9516  -19.4040 C   0  0  0  0  0  0  0  0  0  0  0  0
   24.9716  -10.0696  -19.1058 O   0  0  0  0  0  0  0  0  0  0  0  0
   19.6537  -10.9179  -17.2395 C   0  0  0  0  0  0  0  0  0  0  0  0
   18.7960  -10.9545  -18.1811 O   0  0  0  0  0  0  0  0  0  0  0  0
   23.9671  -11.4050  -20.6863 O   0  0  0  0  0  0  0  0  0  0  0  0
   19.2580  -10.1831  -16.0899 N   0  0  0  0  0  0  0  0  0  0  0  0
   17.9731   -9.4614  -16.0333 C   0  0  1  0  0  0  0  0  0  0  0  0
   16.9854  -10.2055  -15.2225 C   0  0  0  0  0  0  0  0  0  0  0  0
   15.6615   -9.5037  -15.1697 C   0  0  0  0  0  0  0  0  0  0  0  0
   14.7275  -10.3080  -14.2561 C   0  0  0  0  0  0  0  0  0  0  0  0
   13.4003   -9.5937  -14.1114 C   0  0  0  0  0  0  0  0  0  0  0  0
   12.4560  -10.3467  -13.3305 N   0  0  0  0  0  0  0  0  0  0  0  0
   18.1657   -8.0902  -15.5754 C   0  0  0  0  0  0  0  0  0  0  0  0
   19.1954   -7.7262  -14.9104 O   0  0  0  0  0  0  0  0  0  0  0  0
   17.2630   -7.0752  -15.8225 O   0  0  0  0  0  0  0  0  0  0  0  0
  2  1  1  1
  3  2  1  0
  4  3  1  0
  5  2  1  0
  5  6  2  0
  7  5  1  0
  8  7  1  0
  9 10  1  0
  8  9  1  6
 10 11  1  0
 11 12  2  0
 11 15  1  0
 13  8  1  0
 14 13  2  0
 16 13  1  0
 17 16  1  0
 17 23  1  0
 17 18  1  1
 19 18  1  0
 20 19  1  0
 20 21  1  0
 22 21  1  0
 23 25  1  0
 24 23  2  0
M  END
$$$$
