CEK.pdb
     RDKit          3D

 25 24  0  0  1  0  0  0  0  0999 V2000
   21.6000  -14.8162  -17.3989 N   0  0  0  0  0  0  0  0  0  0  0  0
   21.6783  -13.8137  -18.4283 C   0  0  1  0  0  0  0  0  0  0  0  0
   20.2571  -13.6340  -18.9745 C   0  0  0  0  0  0  0  0  0  0  0  0
   19.7109  -15.1979  -19.6894 S   0  0  0  0  0  0  0  0  0  0  0  0
   22.1530  -12.5496  -17.7994 C   0  0  0  0  0  0  0  0  0  0  0  0
   21.7009  -12.1546  -16.6714 O   0  0  0  0  0  0  0  0  0  0  0  0
   23.1211  -11.7174  -18.4025 N   0  0  0  0  0  0  0  0  0  0  0  0
   23.5796  -10.4678  -17.7740 C   0  0  1  0  0  0  0  0  0  0  0  0
   24.8584  -10.0353  -18.4279 C   0  0  0  0  0  0  0  0  0  0  0  0
   25.3256   -8.7152  -17.9073 C   0  0  0  0  0  0  0  0  0  0  0  0
   26.5085   -8.2257  -18.7337 C   0  0  0  0  0  0  0  0  0  0  0  0
   27.0473   -9.0237  -19.5445 O   0  0  0  0  0  0  0  0  0  0  0  0
   22.4559   -9.5187  -17.8784 C   0  0  0  0  0  0  0  0  0  0  0  0
   21.8983   -9.3426  -19.0105 O   0  0  0  0  0  0  0  0  0  0  0  0
   26.9522   -6.9403  -18.5747 O   0  0  0  0  0  0  0  0  0  0  0  0
   21.9084   -8.7587  -16.8104 N   0  0  0  0  0  0  0  0  0  0  0  0
   20.7984   -7.8108  -17.0205 C   0  0  1  0  0  0  0  0  0  0  0  0
   19.5082   -8.4123  -16.6204 C   0  0  0  0  0  0  0  0  0  0  0  0
   18.3596   -7.4753  -16.8456 C   0  0  0  0  0  0  0  0  0  0  0  0
   17.0711   -8.1788  -16.3997 C   0  0  0  0  0  0  0  0  0  0  0  0
   15.8694   -7.3158  -16.7221 C   0  0  0  0  0  0  0  0  0  0  0  0
   14.6548   -7.8348  -16.1534 N   0  0  0  0  0  0  0  0  0  0  0  0
   21.0641   -6.5414  -16.3531 C   0  0  0  0  0  0  0  0  0  0  0  0
   21.7754   -6.4580  -15.2939 O   0  0  0  0  0  0  0  0  0  0  0  0
   20.5785   -5.3312  -16.8064 O   0  0  0  0  0  0  0  0  0  0  0  0
  2  1  1  1
  3  2  1  0
  4  3  1  0
  5  2  1  0
  5  6  2  0
  7  5  1  0
  8  7  1  0
  9 10  1  0
  8  9  1  6
 10 11  1  0
 11 12  2  0
 11 15  1  0
 13  8  1  0
 14 13  2  0
 16 13  1  0
 17 16  1  0
 17 23  1  0
 17 18  1  1
 19 18  1  0
 20 19  1  0
 20 21  1  0
 22 21  1  0
 23 25  1  0
 24 23  2  0
M  END
$$$$
