CEK.pdb
     RDKit          3D

 25 24  0  0  1  0  0  0  0  0999 V2000
   24.1436  -12.1801  -15.3073 N   0  0  0  0  0  0  0  0  0  0  0  0
   24.2784  -11.8264  -16.6957 C   0  0  1  0  0  0  0  0  0  0  0  0
   23.8192  -13.0448  -17.5052 C   0  0  0  0  0  0  0  0  0  0  0  0
   24.9904  -14.3908  -17.2378 S   0  0  0  0  0  0  0  0  0  0  0  0
   23.3843  -10.6647  -16.9599 C   0  0  0  0  0  0  0  0  0  0  0  0
   23.3296  -10.1129  -18.1112 O   0  0  0  0  0  0  0  0  0  0  0  0
   22.5505  -10.1061  -15.9669 N   0  0  0  0  0  0  0  0  0  0  0  0
   21.6042   -9.0175  -16.2613 C   0  0  1  0  0  0  0  0  0  0  0  0
   20.2571   -9.3824  -15.7119 C   0  0  0  0  0  0  0  0  0  0  0  0
   19.2819   -8.2592  -15.8500 C   0  0  0  0  0  0  0  0  0  0  0  0
   17.9457   -8.6594  -15.2368 C   0  0  0  0  0  0  0  0  0  0  0  0
   17.7239   -8.3654  -14.0330 O   0  0  0  0  0  0  0  0  0  0  0  0
   22.2070   -7.7890  -15.7119 C   0  0  0  0  0  0  0  0  0  0  0  0
   22.8170   -7.8458  -14.5946 O   0  0  0  0  0  0  0  0  0  0  0  0
   17.0269   -9.3235  -16.0044 O   0  0  0  0  0  0  0  0  0  0  0  0
   22.1817   -6.5065  -16.3222 N   0  0  0  0  0  0  0  0  0  0  0  0
   22.7462   -5.3179  -15.6562 C   0  0  1  0  0  0  0  0  0  0  0  0
   22.9074   -4.2032  -16.6144 C   0  0  0  0  0  0  0  0  0  0  0  0
   23.4529   -2.9722  -15.9548 C   0  0  0  0  0  0  0  0  0  0  0  0
   23.5595   -1.8670  -17.0136 C   0  0  0  0  0  0  0  0  0  0  0  0
   24.1180   -0.6041  -16.3922 C   0  0  0  0  0  0  0  0  0  0  0  0
   24.3306    0.4354  -17.3630 N   0  0  0  0  0  0  0  0  0  0  0  0
   21.9554   -4.9513  -14.4869 C   0  0  0  0  0  0  0  0  0  0  0  0
   20.6789   -4.8828  -14.5149 O   0  0  0  0  0  0  0  0  0  0  0  0
   22.5119   -4.6541  -13.2589 O   0  0  0  0  0  0  0  0  0  0  0  0
  2  1  1  1
  3  2  1  0
  4  3  1  0
  5  2  1  0
  5  6  2  0
  7  5  1  0
  8  7  1  0
  9 10  1  0
  8  9  1  1
 10 11  1  0
 11 12  2  0
 11 15  1  0
 13  8  1  0
 14 13  2  0
 16 13  1  0
 17 16  1  0
 17 23  1  0
 17 18  1  6
 19 18  1  0
 20 19  1  0
 20 21  1  0
 22 21  1  0
 23 25  1  0
 24 23  2  0
M  END
$$$$
