LEF.pdb
     RDKit          3D

 29 29  0  0  1  0  0  0  0  0999 V2000
   30.3470  -17.1501  -19.1467 C   0  0  0  0  0  0  0  0  0  0  0  0
   29.2607  -16.1420  -18.7365 C   0  0  2  0  0  0  0  0  0  0  0  0
   29.8924  -14.7886  -18.8559 C   0  0  0  0  0  0  0  0  0  0  0  0
   28.8495  -16.5207  -17.3635 C   0  0  0  0  0  0  0  0  0  0  0  0
   28.3845  -17.9223  -17.1611 C   0  0  2  0  0  0  0  0  0  0  0  0
   27.7242  -18.4049  -18.3510 N   0  0  0  0  0  0  0  0  0  0  0  0
   27.3596  -17.8685  -16.0641 C   0  0  0  0  0  0  0  0  0  0  0  0
   27.6052  -17.4392  -14.9097 O   0  0  0  0  0  0  0  0  0  0  0  0
   26.0427  -18.3222  -16.3288 N   0  0  0  0  0  0  0  0  0  0  0  0
   24.9793  -18.2956  -15.2860 C   0  0  1  0  0  0  0  0  0  0  0  0
   23.7638  -17.8064  -15.9926 C   0  0  0  0  0  0  0  0  0  0  0  0
   22.4813  -17.8167  -15.2519 C   0  0  0  0  0  0  0  0  0  0  0  0
   21.6237  -18.9548  -15.6625 C   0  0  0  0  0  0  0  0  0  0  0  0
   20.6762  -19.4027  -14.9768 O   0  0  0  0  0  0  0  0  0  0  0  0
   24.8901  -19.6608  -14.7348 C   0  0  0  0  0  0  0  0  0  0  0  0
   25.0226  -20.6861  -15.4689 O   0  0  0  0  0  0  0  0  0  0  0  0
   21.8361  -19.6150  -16.8863 O   0  0  0  0  0  0  0  0  0  0  0  0
   24.6559  -19.8543  -13.3573 N   0  0  0  0  0  0  0  0  0  0  0  0
   24.4399  -21.2147  -12.8429 C   0  0  1  0  0  0  0  0  0  0  0  0
   25.6463  -21.6412  -12.0571 C   0  0  0  0  0  0  0  0  0  0  0  0
   25.7335  -20.8818  -10.8017 C   0  0  0  0  0  0  0  0  0  0  0  0
   26.3548  -19.6338  -10.7578 C   0  0  0  0  0  0  0  0  0  0  0  0
   26.4215  -18.8977   -9.5976 C   0  0  0  0  0  0  0  0  0  0  0  0
   25.8693  -19.3819   -8.4364 C   0  0  0  0  0  0  0  0  0  0  0  0
   25.2461  -20.6137   -8.4425 C   0  0  0  0  0  0  0  0  0  0  0  0
   25.1893  -21.3427   -9.6274 C   0  0  0  0  0  0  0  0  0  0  0  0
   23.2084  -21.2669  -12.0374 C   0  0  0  0  0  0  0  0  0  0  0  0
   22.6122  -20.1998  -11.6588 O   0  0  0  0  0  0  0  0  0  0  0  0
   22.6554  -22.4749  -11.6672 O   0  0  0  0  0  0  0  0  0  0  0  0
  2  3  1  1
  2  1  1  0
  4  2  1  0
  5  4  1  0
  5  6  1  6
  7  8  2  0
  7  5  1  0
  9  7  1  0
 10  9  1  0
 10 11  1  6
 12 13  1  0
 12 11  1  0
 13 14  2  0
 15 16  2  0
 15 10  1  0
 17 13  1  0
 18 15  1  0
 19 20  1  1
 19 18  1  0
 21 20  1  0
 21 22  2  0
 23 22  1  0
 24 23  2  0
 25 26  2  0
 25 24  1  0
 26 21  1  0
 27 19  1  0
 28 27  2  0
 29 27  1  0
M  END
$$$$
