LEF.pdb
     RDKit          3D

 29 29  0  0  1  0  0  0  0  0999 V2000
   26.0476  -15.7240  -16.8056 C   0  0  0  0  0  0  0  0  0  0  0  0
   27.0953  -14.6852  -17.2389 C   0  0  2  0  0  0  0  0  0  0  0  0
   27.9976  -14.4968  -16.0575 C   0  0  0  0  0  0  0  0  0  0  0  0
   26.3328  -13.4793  -17.6412 C   0  0  0  0  0  0  0  0  0  0  0  0
   25.3581  -13.6390  -18.7575 C   0  0  2  0  0  0  0  0  0  0  0  0
   26.0480  -13.9993  -19.9736 N   0  0  0  0  0  0  0  0  0  0  0  0
   24.7409  -12.2860  -18.9704 C   0  0  0  0  0  0  0  0  0  0  0  0
   25.3055  -11.3613  -19.6056 O   0  0  0  0  0  0  0  0  0  0  0  0
   23.4557  -12.0227  -18.4327 N   0  0  0  0  0  0  0  0  0  0  0  0
   22.7591  -10.7264  -18.6637 C   0  0  1  0  0  0  0  0  0  0  0  0
   21.3615  -11.1011  -19.0137 C   0  0  0  0  0  0  0  0  0  0  0  0
   20.3999  -10.0085  -19.2876 C   0  0  0  0  0  0  0  0  0  0  0  0
   19.0603  -10.5371  -19.6414 C   0  0  0  0  0  0  0  0  0  0  0  0
   18.7233  -10.8776  -20.7986 O   0  0  0  0  0  0  0  0  0  0  0  0
   22.9166   -9.9335  -17.4301 C   0  0  0  0  0  0  0  0  0  0  0  0
   22.8209  -10.4615  -16.2813 O   0  0  0  0  0  0  0  0  0  0  0  0
   18.0618  -10.6895  -18.6624 O   0  0  0  0  0  0  0  0  0  0  0  0
   23.1848   -8.5507  -17.5066 N   0  0  0  0  0  0  0  0  0  0  0  0
   23.2270   -7.7512  -16.2733 C   0  0  1  0  0  0  0  0  0  0  0  0
   24.5893   -7.1356  -16.1320 C   0  0  0  0  0  0  0  0  0  0  0  0
   25.5844   -8.1662  -15.8031 C   0  0  0  0  0  0  0  0  0  0  0  0
   26.7337   -8.3290  -16.5763 C   0  0  0  0  0  0  0  0  0  0  0  0
   27.6881   -9.2702  -16.2672 C   0  0  0  0  0  0  0  0  0  0  0  0
   27.5293  -10.0852  -15.1725 C   0  0  0  0  0  0  0  0  0  0  0  0
   26.4039   -9.9522  -14.3841 C   0  0  0  0  0  0  0  0  0  0  0  0
   25.4501   -8.9933  -14.7143 C   0  0  0  0  0  0  0  0  0  0  0  0
   22.1601   -6.7364  -16.2855 C   0  0  0  0  0  0  0  0  0  0  0  0
   21.9702   -5.9550  -15.2902 O   0  0  0  0  0  0  0  0  0  0  0  0
   21.3304   -6.5947  -17.3781 O   0  0  0  0  0  0  0  0  0  0  0  0
  2  3  1  1
  2  1  1  0
  4  2  1  0
  5  4  1  0
  5  6  1  6
  7  8  2  0
  7  5  1  0
  9  7  1  0
 10  9  1  0
 10 11  1  1
 12 13  1  0
 12 11  1  0
 13 14  2  0
 15 16  2  0
 15 10  1  0
 17 13  1  0
 18 15  1  0
 19 20  1  6
 19 18  1  0
 21 20  1  0
 21 22  2  0
 23 22  1  0
 24 23  2  0
 25 26  2  0
 25 24  1  0
 26 21  1  0
 27 19  1  0
 28 27  2  0
 29 27  1  0
M  END
$$$$
