LEF.pdb
     RDKit          3D

 29 29  0  0  1  0  0  0  0  0999 V2000
   24.6132  -14.7872  -16.3483 C   0  0  0  0  0  0  0  0  0  0  0  0
   25.3154  -13.6367  -17.0883 C   0  0  2  0  0  0  0  0  0  0  0  0
   26.7672  -13.7489  -16.7354 C   0  0  0  0  0  0  0  0  0  0  0  0
   24.6549  -12.3918  -16.6283 C   0  0  0  0  0  0  0  0  0  0  0  0
   23.2132  -12.2275  -16.9692 C   0  0  2  0  0  0  0  0  0  0  0  0
   22.9596  -12.7086  -18.3067 N   0  0  0  0  0  0  0  0  0  0  0  0
   22.9477  -10.7489  -16.9614 C   0  0  0  0  0  0  0  0  0  0  0  0
   23.2086  -10.0053  -15.9835 O   0  0  0  0  0  0  0  0  0  0  0  0
   22.3728  -10.1461  -18.1087 N   0  0  0  0  0  0  0  0  0  0  0  0
   22.0530   -8.6919  -18.1540 C   0  0  1  0  0  0  0  0  0  0  0  0
   22.0500   -8.3466  -19.6020 C   0  0  0  0  0  0  0  0  0  0  0  0
   21.6799   -6.9640  -19.9831 C   0  0  0  0  0  0  0  0  0  0  0  0
   21.7358   -6.7700  -21.4523 C   0  0  0  0  0  0  0  0  0  0  0  0
   22.0881   -7.6560  -22.2643 O   0  0  0  0  0  0  0  0  0  0  0  0
   20.7663   -8.5176  -17.4544 C   0  0  0  0  0  0  0  0  0  0  0  0
   19.8470   -9.3882  -17.5227 O   0  0  0  0  0  0  0  0  0  0  0  0
   21.3842   -5.5377  -22.0324 O   0  0  0  0  0  0  0  0  0  0  0  0
   20.5321   -7.3619  -16.6802 N   0  0  0  0  0  0  0  0  0  0  0  0
   19.2427   -7.1991  -15.9926 C   0  0  1  0  0  0  0  0  0  0  0  0
   19.1203   -8.2447  -14.9218 C   0  0  0  0  0  0  0  0  0  0  0  0
   20.2421   -8.1430  -13.9775 C   0  0  0  0  0  0  0  0  0  0  0  0
   20.7689   -6.9028  -13.6174 C   0  0  0  0  0  0  0  0  0  0  0  0
   21.8006   -6.7879  -12.7148 C   0  0  0  0  0  0  0  0  0  0  0  0
   22.3451   -7.9095  -12.1376 C   0  0  0  0  0  0  0  0  0  0  0  0
   21.8487   -9.1539  -12.4702 C   0  0  0  0  0  0  0  0  0  0  0  0
   20.8041   -9.2483  -13.3858 C   0  0  0  0  0  0  0  0  0  0  0  0
   19.1213   -5.8354  -15.4505 C   0  0  0  0  0  0  0  0  0  0  0  0
   18.0959   -5.4736  -14.7760 O   0  0  0  0  0  0  0  0  0  0  0  0
   20.1168   -4.9024  -15.6520 O   0  0  0  0  0  0  0  0  0  0  0  0
  2  3  1  1
  2  1  1  0
  4  2  1  0
  5  4  1  0
  5  6  1  6
  7  8  2  0
  7  5  1  0
  9  7  1  0
 10  9  1  0
 10 11  1  6
 12 13  1  0
 12 11  1  0
 13 14  2  0
 15 16  2  0
 15 10  1  0
 17 13  1  0
 18 15  1  0
 19 20  1  1
 19 18  1  0
 21 20  1  0
 21 22  2  0
 23 22  1  0
 24 23  2  0
 25 26  2  0
 25 24  1  0
 26 21  1  0
 27 19  1  0
 28 27  2  0
 29 27  1  0
M  END
$$$$
