LEF.pdb
     RDKit          3D

 29 29  0  0  1  0  0  0  0  0999 V2000
   33.4419  -23.3711  -10.9021 C   0  0  0  0  0  0  0  0  0  0  0  0
   32.4598  -22.6006  -10.0042 C   0  0  2  0  0  0  0  0  0  0  0  0
   32.6528  -23.1478   -8.6228 C   0  0  0  0  0  0  0  0  0  0  0  0
   31.1140  -22.8262  -10.5833 C   0  0  0  0  0  0  0  0  0  0  0  0
   30.8166  -22.1549  -11.8805 C   0  0  2  0  0  0  0  0  0  0  0  0
   31.9097  -21.2895  -12.2556 N   0  0  0  0  0  0  0  0  0  0  0  0
   29.6148  -21.2873  -11.6364 C   0  0  0  0  0  0  0  0  0  0  0  0
   29.6907  -20.0686  -11.3424 O   0  0  0  0  0  0  0  0  0  0  0  0
   28.3209  -21.8578  -11.7386 N   0  0  0  0  0  0  0  0  0  0  0  0
   27.0872  -21.0362  -11.5908 C   0  0  1  0  0  0  0  0  0  0  0  0
   26.2435  -21.4001  -12.7620 C   0  0  0  0  0  0  0  0  0  0  0  0
   24.9046  -20.7763  -12.8711 C   0  0  0  0  0  0  0  0  0  0  0  0
   24.9659  -19.4739  -13.5777 C   0  0  0  0  0  0  0  0  0  0  0  0
   25.6641  -19.2597  -14.5952 O   0  0  0  0  0  0  0  0  0  0  0  0
   26.5170  -21.3594  -10.2694 C   0  0  0  0  0  0  0  0  0  0  0  0
   26.5594  -22.5342   -9.7943 O   0  0  0  0  0  0  0  0  0  0  0  0
   24.2177  -18.3713  -13.1273 O   0  0  0  0  0  0  0  0  0  0  0  0
   25.9074  -20.3500   -9.4952 N   0  0  0  0  0  0  0  0  0  0  0  0
   25.3751  -20.6791   -8.1646 C   0  0  1  0  0  0  0  0  0  0  0  0
   25.4283  -19.4550   -7.2966 C   0  0  0  0  0  0  0  0  0  0  0  0
   26.6773  -19.4314   -6.5221 C   0  0  0  0  0  0  0  0  0  0  0  0
   27.6331  -18.4369   -6.7289 C   0  0  0  0  0  0  0  0  0  0  0  0
   28.7950  -18.3842   -5.9944 C   0  0  0  0  0  0  0  0  0  0  0  0
   29.0456  -19.3246   -5.0247 C   0  0  0  0  0  0  0  0  0  0  0  0
   28.1218  -20.3238   -4.7923 C   0  0  0  0  0  0  0  0  0  0  0  0
   26.9521  -20.3590   -5.5466 C   0  0  0  0  0  0  0  0  0  0  0  0
   24.0092  -21.2169   -8.2794 C   0  0  0  0  0  0  0  0  0  0  0  0
   23.3149  -21.0554   -9.3420 O   0  0  0  0  0  0  0  0  0  0  0  0
   23.4347  -21.9178   -7.2396 O   0  0  0  0  0  0  0  0  0  0  0  0
  2  3  1  1
  2  1  1  0
  4  2  1  0
  5  4  1  0
  5  6  1  1
  7  8  2  0
  7  5  1  0
  9  7  1  0
 10  9  1  0
 10 11  1  6
 12 13  1  0
 12 11  1  0
 13 14  2  0
 15 16  2  0
 15 10  1  0
 17 13  1  0
 18 15  1  0
 19 20  1  1
 19 18  1  0
 21 20  1  0
 21 22  2  0
 23 22  1  0
 24 23  2  0
 25 26  2  0
 25 24  1  0
 26 21  1  0
 27 19  1  0
 28 27  2  0
 29 27  1  0
M  END
$$$$
