LEF.pdb
     RDKit          3D

 29 29  0  0  1  0  0  0  0  0999 V2000
   18.8974  -25.6665  -12.8177 C   0  0  0  0  0  0  0  0  0  0  0  0
   19.7138  -26.4762  -13.8386 C   0  0  2  0  0  0  0  0  0  0  0  0
   20.1168  -27.7356  -13.1338 C   0  0  0  0  0  0  0  0  0  0  0  0
   20.8388  -25.6018  -14.2477 C   0  0  0  0  0  0  0  0  0  0  0  0
   20.4867  -24.3259  -14.9331 C   0  0  2  0  0  0  0  0  0  0  0  0
   19.9832  -24.5952  -16.2592 N   0  0  0  0  0  0  0  0  0  0  0  0
   21.7721  -23.5630  -15.0826 C   0  0  0  0  0  0  0  0  0  0  0  0
   22.8021  -24.0430  -15.6173 O   0  0  0  0  0  0  0  0  0  0  0  0
   21.8433  -22.2318  -14.6001 N   0  0  0  0  0  0  0  0  0  0  0  0
   22.9972  -21.3438  -14.9148 C   0  0  1  0  0  0  0  0  0  0  0  0
   22.3851  -20.1003  -15.4579 C   0  0  0  0  0  0  0  0  0  0  0  0
   23.2884  -18.9804  -15.8092 C   0  0  0  0  0  0  0  0  0  0  0  0
   22.5364  -17.8225  -16.3505 C   0  0  0  0  0  0  0  0  0  0  0  0
   22.2513  -16.7989  -15.6875 O   0  0  0  0  0  0  0  0  0  0  0  0
   23.7637  -21.1837  -13.6649 C   0  0  0  0  0  0  0  0  0  0  0  0
   23.1998  -21.2061  -12.5294 O   0  0  0  0  0  0  0  0  0  0  0  0
   22.0873  -17.8117  -17.6834 O   0  0  0  0  0  0  0  0  0  0  0  0
   25.1621  -21.0035  -13.7099 N   0  0  0  0  0  0  0  0  0  0  0  0
   25.8758  -20.5658  -12.5012 C   0  0  1  0  0  0  0  0  0  0  0  0
   25.9272  -21.7023  -11.5211 C   0  0  0  0  0  0  0  0  0  0  0  0
   26.6377  -21.2935  -10.3011 C   0  0  0  0  0  0  0  0  0  0  0  0
   28.0239  -21.4119  -10.2022 C   0  0  0  0  0  0  0  0  0  0  0  0
   28.7075  -21.0093   -9.0784 C   0  0  0  0  0  0  0  0  0  0  0  0
   28.0305  -20.4728   -8.0100 C   0  0  0  0  0  0  0  0  0  0  0  0
   26.6578  -20.3402   -8.0726 C   0  0  0  0  0  0  0  0  0  0  0  0
   25.9850  -20.7537   -9.2193 C   0  0  0  0  0  0  0  0  0  0  0  0
   27.2196  -20.0756  -12.8506 C   0  0  0  0  0  0  0  0  0  0  0  0
   27.9547  -20.6894  -13.6993 O   0  0  0  0  0  0  0  0  0  0  0  0
   27.7282  -18.9314  -12.2724 O   0  0  0  0  0  0  0  0  0  0  0  0
  2  3  1  1
  2  1  1  0
  4  2  1  0
  5  4  1  0
  5  6  1  6
  7  8  2  0
  7  5  1  0
  9  7  1  0
 10  9  1  0
 10 11  1  1
 12 13  1  0
 12 11  1  0
 13 14  2  0
 15 16  2  0
 15 10  1  0
 17 13  1  0
 18 15  1  0
 19 20  1  1
 19 18  1  0
 21 20  1  0
 21 22  2  0
 23 22  1  0
 24 23  2  0
 25 26  2  0
 25 24  1  0
 26 21  1  0
 27 19  1  0
 28 27  2  0
 29 27  1  0
M  END
$$$$
