LEF.pdb
     RDKit          3D

 29 29  0  0  1  0  0  0  0  0999 V2000
   24.7297  -19.4486  -18.0190 C   0  0  0  0  0  0  0  0  0  0  0  0
   23.4715  -19.2458  -17.1586 C   0  0  2  0  0  0  0  0  0  0  0  0
   22.5242  -18.4470  -18.0009 C   0  0  0  0  0  0  0  0  0  0  0  0
   23.9279  -18.5709  -15.9202 C   0  0  0  0  0  0  0  0  0  0  0  0
   24.9632  -19.2743  -15.1109 C   0  0  2  0  0  0  0  0  0  0  0  0
   25.0605  -20.6559  -15.5188 N   0  0  0  0  0  0  0  0  0  0  0  0
   24.4696  -19.2543  -13.6922 C   0  0  0  0  0  0  0  0  0  0  0  0
   24.1193  -18.2051  -13.0973 O   0  0  0  0  0  0  0  0  0  0  0  0
   24.3895  -20.4737  -12.9733 N   0  0  0  0  0  0  0  0  0  0  0  0
   23.9263  -20.5213  -11.5583 C   0  0  1  0  0  0  0  0  0  0  0  0
   22.8386  -21.5377  -11.5466 C   0  0  0  0  0  0  0  0  0  0  0  0
   21.6611  -21.2814  -10.6856 C   0  0  0  0  0  0  0  0  0  0  0  0
   20.8443  -20.1556  -11.1999 C   0  0  0  0  0  0  0  0  0  0  0  0
   20.7324  -19.8667  -12.4134 O   0  0  0  0  0  0  0  0  0  0  0  0
   25.1073  -20.8421  -10.7350 C   0  0  0  0  0  0  0  0  0  0  0  0
   25.6292  -21.9976  -10.7394 O   0  0  0  0  0  0  0  0  0  0  0  0
   20.1271  -19.3229  -10.3219 O   0  0  0  0  0  0  0  0  0  0  0  0
   25.6902  -19.8517   -9.9168 N   0  0  0  0  0  0  0  0  0  0  0  0
   26.4503  -20.2524   -8.7237 C   0  0  1  0  0  0  0  0  0  0  0  0
   26.8078  -19.0268   -7.9332 C   0  0  0  0  0  0  0  0  0  0  0  0
   27.6476  -19.3878   -6.7821 C   0  0  0  0  0  0  0  0  0  0  0  0
   28.1132  -20.6915   -6.6123 C   0  0  0  0  0  0  0  0  0  0  0  0
   28.9220  -21.0406   -5.5557 C   0  0  0  0  0  0  0  0  0  0  0  0
   29.2960  -20.0987   -4.6281 C   0  0  0  0  0  0  0  0  0  0  0  0
   28.8540  -18.7980   -4.7643 C   0  0  0  0  0  0  0  0  0  0  0  0
   28.0364  -18.4655   -5.8410 C   0  0  0  0  0  0  0  0  0  0  0  0
   25.6773  -21.2190   -7.9261 C   0  0  0  0  0  0  0  0  0  0  0  0
   24.4160  -21.0869   -7.7554 O   0  0  0  0  0  0  0  0  0  0  0  0
   26.2927  -22.3042   -7.3379 O   0  0  0  0  0  0  0  0  0  0  0  0
  2  3  1  6
  2  1  1  0
  4  2  1  0
  5  4  1  0
  5  6  1  6
  7  8  2  0
  7  5  1  0
  9  7  1  0
 10  9  1  0
 10 11  1  6
 12 13  1  0
 12 11  1  0
 13 14  2  0
 15 16  2  0
 15 10  1  0
 17 13  1  0
 18 15  1  0
 19 20  1  1
 19 18  1  0
 21 20  1  0
 21 22  2  0
 23 22  1  0
 24 23  2  0
 25 26  2  0
 25 24  1  0
 26 21  1  0
 27 19  1  0
 28 27  2  0
 29 27  1  0
M  END
$$$$
