NGR.pdb
     RDKit          3D

 24 23  0  0  1  0  0  0  0  0999 V2000
    8.5525  -16.5297   15.3084 N   0  0  0  0  0  0  0  0  0  0  0  0
    8.1907  -17.8955   15.5019 C   0  0  0  0  0  0  0  0  0  0  0  0
    7.3250  -18.3515   14.7129 O   0  0  0  0  0  0  0  0  0  0  0  0
    8.8086  -18.7185   16.5769 C   0  0  0  0  0  0  0  0  0  0  0  0
    9.7143  -17.8126   17.3764 C   0  0  2  0  0  0  0  0  0  0  0  0
   11.0653  -18.0204   16.8949 N   0  0  0  0  0  0  0  0  0  0  0  0
    9.6504  -18.0112   18.8231 C   0  0  0  0  0  0  0  0  0  0  0  0
    8.8814  -17.2532   19.4931 O   0  0  0  0  0  0  0  0  0  0  0  0
   10.3928  -18.9970   19.5273 N   0  0  0  0  0  0  0  0  0  0  0  0
   10.2110  -19.1561   20.9250 C   0  0  0  0  0  0  0  0  0  0  0  0
   10.5559  -18.0203   21.7744 C   0  0  0  0  0  0  0  0  0  0  0  0
   11.6821  -17.4664   21.5187 O   0  0  0  0  0  0  0  0  0  0  0  0
    7.9520  -12.9102   18.3151 N   0  0  0  0  0  0  0  0  0  0  0  0
    7.8949  -12.7508   19.7400 C   0  0  0  0  0  0  0  0  0  0  0  0
    7.9503  -11.5420   20.2441 N   0  0  0  0  0  0  0  0  0  0  0  0
    7.7802  -13.8539   20.6252 N   0  0  0  0  0  0  0  0  0  0  0  0
    8.5862  -13.9116   21.8273 C   0  0  0  0  0  0  0  0  0  0  0  0
    8.2455  -15.1650   22.5901 C   0  0  0  0  0  0  0  0  0  0  0  0
    9.0833  -15.3341   23.8272 C   0  0  0  0  0  0  0  0  0  0  0  0
   10.1953  -16.3072   23.6027 C   0  0  2  0  0  0  0  0  0  0  0  0
    9.8171  -17.4613   22.8286 N   0  0  0  0  0  0  0  0  0  0  0  0
   10.6841  -16.8201   24.9312 C   0  0  0  0  0  0  0  0  0  0  0  0
   10.4128  -17.9814   25.3212 O   0  0  0  0  0  0  0  0  0  0  0  0
   11.4500  -16.0122   25.7562 O   0  0  0  0  0  0  0  0  0  0  0  0
  1  2  1  0
  2  4  1  0
  3  2  2  0
  5  4  1  0
  5  7  1  0
  5  6  1  6
  7  8  2  0
  9 10  1  0
  9  7  1  0
 10 11  1  0
 11 12  2  0
 11 21  1  0
 13 14  1  0
 14 15  2  0
 16 17  1  0
 16 14  1  0
 17 18  1  0
 19 18  1  0
 20 19  1  1
 21 20  1  0
 22 20  1  0
 22 24  1  0
 23 22  2  0
M  END
$$$$
