NGR.pdb
     RDKit          3D

 24 23  0  0  1  0  0  0  0  0999 V2000
    9.6696  -19.1618   17.5723 N   0  0  0  0  0  0  0  0  0  0  0  0
    9.8688  -17.7851   17.8859 C   0  0  0  0  0  0  0  0  0  0  0  0
   10.9800  -17.3010   17.5527 O   0  0  0  0  0  0  0  0  0  0  0  0
    8.8165  -16.9827   18.5667 C   0  0  0  0  0  0  0  0  0  0  0  0
    9.4556  -16.3218   19.7646 C   0  0  2  0  0  0  0  0  0  0  0  0
    9.6698  -17.3516   20.7615 N   0  0  0  0  0  0  0  0  0  0  0  0
    8.6876  -15.2140   20.3302 C   0  0  0  0  0  0  0  0  0  0  0  0
    8.6272  -14.1329   19.6650 O   0  0  0  0  0  0  0  0  0  0  0  0
    8.0050  -15.2692   21.5750 N   0  0  0  0  0  0  0  0  0  0  0  0
    7.2481  -14.1541   22.0176 C   0  0  0  0  0  0  0  0  0  0  0  0
    6.6903  -14.2209   23.3647 C   0  0  0  0  0  0  0  0  0  0  0  0
    6.1850  -15.3509   23.6936 O   0  0  0  0  0  0  0  0  0  0  0  0
   10.7277  -17.3599   28.5859 N   0  0  0  0  0  0  0  0  0  0  0  0
   10.5915  -16.1582   29.3581 C   0  0  0  0  0  0  0  0  0  0  0  0
   10.9330  -16.1772   30.6236 N   0  0  0  0  0  0  0  0  0  0  0  0
   10.1007  -14.9482   28.8026 N   0  0  0  0  0  0  0  0  0  0  0  0
    9.6834  -14.8983   27.4164 C   0  0  0  0  0  0  0  0  0  0  0  0
    9.2066  -13.5060   27.0946 C   0  0  0  0  0  0  0  0  0  0  0  0
    8.6887  -13.3835   25.6883 C   0  0  0  0  0  0  0  0  0  0  0  0
    7.1973  -13.2904   25.6636 C   0  0  2  0  0  0  0  0  0  0  0  0
    6.6365  -13.2124   24.3393 N   0  0  0  0  0  0  0  0  0  0  0  0
    6.7639  -12.0446   26.3897 C   0  0  0  0  0  0  0  0  0  0  0  0
    6.9361  -10.9063   25.8907 O   0  0  0  0  0  0  0  0  0  0  0  0
    6.1608  -12.1320   27.6341 O   0  0  0  0  0  0  0  0  0  0  0  0
  1  2  1  0
  2  4  1  0
  3  2  2  0
  5  4  1  0
  5  7  1  0
  5  6  1  1
  7  8  2  0
  9 10  1  0
  9  7  1  0
 10 11  1  0
 11 12  2  0
 11 21  1  0
 13 14  1  0
 14 15  2  0
 16 17  1  0
 16 14  1  0
 17 18  1  0
 19 18  1  0
 20 19  1  6
 21 20  1  0
 22 20  1  0
 22 24  1  0
 23 22  2  0
M  END
$$$$
