NGR.pdb
     RDKit          3D

 24 23  0  0  1  0  0  0  0  0999 V2000
    5.9005  -14.8466   17.1285 N   0  0  0  0  0  0  0  0  0  0  0  0
    7.1819  -14.2265   17.0453 C   0  0  0  0  0  0  0  0  0  0  0  0
    7.9532  -14.6758   16.1602 O   0  0  0  0  0  0  0  0  0  0  0  0
    7.5690  -13.1162   17.9575 C   0  0  0  0  0  0  0  0  0  0  0  0
    9.0108  -13.3346   18.3497 C   0  0  2  0  0  0  0  0  0  0  0  0
    9.7644  -13.5322   17.1277 N   0  0  0  0  0  0  0  0  0  0  0  0
    9.2288  -14.4483   19.2710 C   0  0  0  0  0  0  0  0  0  0  0  0
    8.6142  -14.4278   20.3831 O   0  0  0  0  0  0  0  0  0  0  0  0
   10.0834  -15.5511   19.0026 N   0  0  0  0  0  0  0  0  0  0  0  0
   10.2359  -16.5800   19.9671 C   0  0  0  0  0  0  0  0  0  0  0  0
   10.5063  -16.1692   21.3413 C   0  0  0  0  0  0  0  0  0  0  0  0
   11.4456  -15.3098   21.4819 O   0  0  0  0  0  0  0  0  0  0  0  0
    5.2423  -12.7564   26.4371 N   0  0  0  0  0  0  0  0  0  0  0  0
    6.6553  -12.7602   26.6866 C   0  0  0  0  0  0  0  0  0  0  0  0
    7.1057  -12.2004   27.7831 N   0  0  0  0  0  0  0  0  0  0  0  0
    7.5848  -13.3484   25.7902 N   0  0  0  0  0  0  0  0  0  0  0  0
    7.1374  -13.8757   24.5175 C   0  0  0  0  0  0  0  0  0  0  0  0
    7.9258  -15.1178   24.1935 C   0  0  0  0  0  0  0  0  0  0  0  0
    9.4109  -14.8861   24.2336 C   0  0  0  0  0  0  0  0  0  0  0  0
   10.1646  -16.1179   23.8489 C   0  0  2  0  0  0  0  0  0  0  0  0
    9.8739  -16.5924   22.5205 N   0  0  0  0  0  0  0  0  0  0  0  0
    9.8086  -17.2351   24.7935 C   0  0  0  0  0  0  0  0  0  0  0  0
    9.1424  -18.2263   24.4089 O   0  0  0  0  0  0  0  0  0  0  0  0
   10.2138  -17.1897   26.1178 O   0  0  0  0  0  0  0  0  0  0  0  0
  1  2  1  0
  2  4  1  0
  3  2  2  0
  5  4  1  0
  5  7  1  0
  5  6  1  6
  7  8  2  0
  9 10  1  0
  9  7  1  0
 10 11  1  0
 11 12  2  0
 11 21  1  0
 13 14  1  0
 14 15  2  0
 16 17  1  0
 16 14  1  0
 17 18  1  0
 19 18  1  0
 20 19  1  1
 21 20  1  0
 22 20  1  0
 22 24  1  0
 23 22  2  0
M  END
$$$$
