NGR.pdb
     RDKit          3D

 24 23  0  0  1  0  0  0  0  0999 V2000
    7.6157  -12.6592   15.3938 N   0  0  0  0  0  0  0  0  0  0  0  0
    7.8129  -13.9032   16.0625 C   0  0  0  0  0  0  0  0  0  0  0  0
    8.3169  -14.8245   15.3715 O   0  0  0  0  0  0  0  0  0  0  0  0
    7.4399  -14.0853   17.4916 C   0  0  0  0  0  0  0  0  0  0  0  0
    8.7189  -14.2674   18.2734 C   0  0  2  0  0  0  0  0  0  0  0  0
    9.7287  -14.7341   17.3446 N   0  0  0  0  0  0  0  0  0  0  0  0
    8.6115  -15.1775   19.4123 C   0  0  0  0  0  0  0  0  0  0  0  0
    7.7642  -14.8985   20.3173 O   0  0  0  0  0  0  0  0  0  0  0  0
    9.3934  -16.3530   19.5716 N   0  0  0  0  0  0  0  0  0  0  0  0
    9.1793  -17.1999   20.6891 C   0  0  0  0  0  0  0  0  0  0  0  0
    9.6391  -16.7173   21.9876 C   0  0  0  0  0  0  0  0  0  0  0  0
   10.5867  -15.8565   21.9484 O   0  0  0  0  0  0  0  0  0  0  0  0
    4.9954  -12.0323   27.0100 N   0  0  0  0  0  0  0  0  0  0  0  0
    6.0278  -11.4976   26.1691 C   0  0  0  0  0  0  0  0  0  0  0  0
    6.1318  -10.1968   26.0444 N   0  0  0  0  0  0  0  0  0  0  0  0
    6.9420  -12.3249   25.4668 N   0  0  0  0  0  0  0  0  0  0  0  0
    7.1084  -13.7133   25.8449 C   0  0  0  0  0  0  0  0  0  0  0  0
    8.0831  -14.3681   24.9014 C   0  0  0  0  0  0  0  0  0  0  0  0
    8.2667  -15.8332   25.1856 C   0  0  0  0  0  0  0  0  0  0  0  0
    9.4732  -16.3757   24.4903 C   0  0  2  0  0  0  0  0  0  0  0  0
    9.1796  -17.0734   23.2650 N   0  0  0  0  0  0  0  0  0  0  0  0
   10.1670  -17.3614   25.3925 C   0  0  0  0  0  0  0  0  0  0  0  0
    9.9650  -18.5953   25.2872 O   0  0  0  0  0  0  0  0  0  0  0  0
   11.0500  -16.9210   26.3652 O   0  0  0  0  0  0  0  0  0  0  0  0
  1  2  1  0
  2  4  1  0
  3  2  2  0
  5  4  1  0
  5  7  1  0
  5  6  1  6
  7  8  2  0
  9 10  1  0
  9  7  1  0
 10 11  1  0
 11 12  2  0
 11 21  1  0
 13 14  1  0
 14 15  2  0
 16 17  1  0
 16 14  1  0
 17 18  1  0
 19 18  1  0
 20 19  1  1
 21 20  1  0
 22 20  1  0
 22 24  1  0
 23 22  2  0
M  END
$$$$
