NGR.pdb
     RDKit          3D

 24 23  0  0  1  0  0  0  0  0999 V2000
   10.4593  -19.1696   29.4154 N   0  0  0  0  0  0  0  0  0  0  0  0
    9.4582  -18.1981   29.1193 C   0  0  0  0  0  0  0  0  0  0  0  0
    9.5622  -17.1005   29.7232 O   0  0  0  0  0  0  0  0  0  0  0  0
    8.3629  -18.4805   28.1523 C   0  0  0  0  0  0  0  0  0  0  0  0
    8.5436  -19.8984   27.6653 C   0  0  2  0  0  0  0  0  0  0  0  0
    9.7011  -19.9101   26.7935 N   0  0  0  0  0  0  0  0  0  0  0  0
    7.3807  -20.4590   26.9796 C   0  0  0  0  0  0  0  0  0  0  0  0
    6.2778  -20.4903   27.6100 O   0  0  0  0  0  0  0  0  0  0  0  0
    7.4052  -20.9707   25.6544 N   0  0  0  0  0  0  0  0  0  0  0  0
    6.2266  -21.5166   25.0842 C   0  0  0  0  0  0  0  0  0  0  0  0
    5.7847  -20.9600   23.8093 C   0  0  0  0  0  0  0  0  0  0  0  0
    5.7230  -19.6816   23.7611 O   0  0  0  0  0  0  0  0  0  0  0  0
   10.2706  -20.3824   17.2108 N   0  0  0  0  0  0  0  0  0  0  0  0
   10.2895  -20.6378   18.6227 C   0  0  0  0  0  0  0  0  0  0  0  0
   11.4111  -21.0236   19.1809 N   0  0  0  0  0  0  0  0  0  0  0  0
    9.1384  -20.4876   19.4387 N   0  0  0  0  0  0  0  0  0  0  0  0
    7.8688  -20.1169   18.8482 C   0  0  0  0  0  0  0  0  0  0  0  0
    6.8471  -19.9458   19.9419 C   0  0  0  0  0  0  0  0  0  0  0  0
    6.2005  -21.2447   20.3365 C   0  0  0  0  0  0  0  0  0  0  0  0
    5.1358  -21.0327   21.3637 C   0  0  2  0  0  0  0  0  0  0  0  0
    5.4206  -21.6413   22.6376 N   0  0  0  0  0  0  0  0  0  0  0  0
    3.8457  -21.6367   20.8759 C   0  0  0  0  0  0  0  0  0  0  0  0
    3.3320  -22.6272   21.4496 O   0  0  0  0  0  0  0  0  0  0  0  0
    3.1950  -21.1053   19.7740 O   0  0  0  0  0  0  0  0  0  0  0  0
  1  2  1  0
  2  4  1  0
  3  2  2  0
  5  4  1  0
  5  7  1  0
  5  6  1  6
  7  8  2  0
  9 10  1  0
  9  7  1  0
 10 11  1  0
 11 12  2  0
 11 21  1  0
 13 14  1  0
 14 15  2  0
 16 17  1  0
 16 14  1  0
 17 18  1  0
 19 18  1  0
 20 19  1  6
 21 20  1  0
 22 20  1  0
 22 24  1  0
 23 22  2  0
M  END
$$$$
