NGR.pdb
     RDKit          3D

 24 23  0  0  1  0  0  0  0  0999 V2000
    8.2891  -12.5074   14.7400 N   0  0  0  0  0  0  0  0  0  0  0  0
    7.8046  -13.8051   15.0790 C   0  0  0  0  0  0  0  0  0  0  0  0
    7.7207  -14.6253   14.1301 O   0  0  0  0  0  0  0  0  0  0  0  0
    7.4250  -14.1528   16.4752 C   0  0  0  0  0  0  0  0  0  0  0  0
    8.5656  -14.9431   17.0708 C   0  0  2  0  0  0  0  0  0  0  0  0
    8.6678  -16.1812   16.3245 N   0  0  0  0  0  0  0  0  0  0  0  0
    8.4349  -15.2168   18.5007 C   0  0  0  0  0  0  0  0  0  0  0  0
    8.5556  -14.2408   19.3055 O   0  0  0  0  0  0  0  0  0  0  0  0
    8.1815  -16.5035   19.0474 N   0  0  0  0  0  0  0  0  0  0  0  0
    8.2416  -16.7009   20.4509 C   0  0  0  0  0  0  0  0  0  0  0  0
    9.4803  -17.2503   20.9932 C   0  0  0  0  0  0  0  0  0  0  0  0
    9.8459  -18.3729   20.4967 O   0  0  0  0  0  0  0  0  0  0  0  0
   15.1255  -14.1733   16.9042 N   0  0  0  0  0  0  0  0  0  0  0  0
   15.7901  -13.9729   18.1600 C   0  0  0  0  0  0  0  0  0  0  0  0
   16.9781  -13.4187   18.1658 N   0  0  0  0  0  0  0  0  0  0  0  0
   15.2089  -14.3520   19.3977 N   0  0  0  0  0  0  0  0  0  0  0  0
   13.7691  -14.4360   19.5322 C   0  0  0  0  0  0  0  0  0  0  0  0
   13.4279  -14.8333   20.9446 C   0  0  0  0  0  0  0  0  0  0  0  0
   11.9573  -15.0823   21.1353 C   0  0  0  0  0  0  0  0  0  0  0  0
   11.7106  -16.3865   21.8222 C   0  0  2  0  0  0  0  0  0  0  0  0
   10.3164  -16.7101   21.9826 N   0  0  0  0  0  0  0  0  0  0  0  0
   12.3049  -16.3415   23.2049 C   0  0  0  0  0  0  0  0  0  0  0  0
   11.5909  -16.1286   24.2144 O   0  0  0  0  0  0  0  0  0  0  0  0
   13.6640  -16.5364   23.3908 O   0  0  0  0  0  0  0  0  0  0  0  0
  1  2  1  0
  2  4  1  0
  3  2  2  0
  5  4  1  0
  5  7  1  0
  5  6  1  6
  7  8  2  0
  9 10  1  0
  9  7  1  0
 10 11  1  0
 11 12  2  0
 11 21  1  0
 13 14  1  0
 14 15  2  0
 16 17  1  0
 16 14  1  0
 17 18  1  0
 19 18  1  0
 20 19  1  1
 21 20  1  0
 22 20  1  0
 22 24  1  0
 23 22  2  0
M  END
$$$$
