NGR.pdb
     RDKit          3D

 24 23  0  0  1  0  0  0  0  0999 V2000
    6.5247  -12.4233   17.3043 N   0  0  0  0  0  0  0  0  0  0  0  0
    7.6549  -13.2558   17.0534 C   0  0  0  0  0  0  0  0  0  0  0  0
    7.8300  -13.5984   15.8566 O   0  0  0  0  0  0  0  0  0  0  0  0
    8.5632  -13.6852   18.1512 C   0  0  0  0  0  0  0  0  0  0  0  0
    8.1978  -15.1054   18.5114 C   0  0  2  0  0  0  0  0  0  0  0  0
    6.8118  -15.0995   18.9348 N   0  0  0  0  0  0  0  0  0  0  0  0
    9.0441  -15.7096   19.5387 C   0  0  0  0  0  0  0  0  0  0  0  0
   10.3019  -15.5614   19.4345 O   0  0  0  0  0  0  0  0  0  0  0  0
    8.5503  -16.4513   20.6454 N   0  0  0  0  0  0  0  0  0  0  0  0
    9.3171  -17.5170   21.1825 C   0  0  0  0  0  0  0  0  0  0  0  0
   10.3947  -17.1642   22.1014 C   0  0  0  0  0  0  0  0  0  0  0  0
   10.4662  -15.9237   22.4123 O   0  0  0  0  0  0  0  0  0  0  0  0
   16.6353  -13.8455   19.8295 N   0  0  0  0  0  0  0  0  0  0  0  0
   15.5685  -14.5633   19.1925 C   0  0  0  0  0  0  0  0  0  0  0  0
   15.2922  -14.3038   17.9376 N   0  0  0  0  0  0  0  0  0  0  0  0
   14.8006  -15.5452   19.8705 N   0  0  0  0  0  0  0  0  0  0  0  0
   14.3377  -15.3044   21.2218 C   0  0  0  0  0  0  0  0  0  0  0  0
   13.6730  -16.5509   21.7450 C   0  0  0  0  0  0  0  0  0  0  0  0
   13.1508  -16.3828   23.1450 C   0  0  0  0  0  0  0  0  0  0  0  0
   12.3949  -17.5917   23.5929 C   0  0  2  0  0  0  0  0  0  0  0  0
   11.3566  -18.0040   22.6839 N   0  0  0  0  0  0  0  0  0  0  0  0
   11.7251  -17.3009   24.9096 C   0  0  0  0  0  0  0  0  0  0  0  0
   11.3300  -16.1456   25.1986 O   0  0  0  0  0  0  0  0  0  0  0  0
   11.5304  -18.3127   25.8360 O   0  0  0  0  0  0  0  0  0  0  0  0
  1  2  1  0
  2  4  1  0
  3  2  2  0
  5  4  1  0
  5  7  1  0
  5  6  1  1
  7  8  2  0
  9 10  1  0
  9  7  1  0
 10 11  1  0
 11 12  2  0
 11 21  1  0
 13 14  1  0
 14 15  2  0
 16 17  1  0
 16 14  1  0
 17 18  1  0
 19 18  1  0
 20 19  1  6
 21 20  1  0
 22 20  1  0
 22 24  1  0
 23 22  2  0
M  END
$$$$
