YRW.pdb
     RDKit          3D

 38 40  0  0  1  0  0  0  0  0999 V2000
   14.5233  -25.9054  -18.2750 O   0  0  0  0  0  0  0  0  0  0  0  0
   15.8697  -25.8702  -17.9348 C   0  0  0  0  0  0  0  0  0  0  0  0
   16.6111  -27.0268  -18.1065 C   0  0  0  0  0  0  0  0  0  0  0  0
   17.9515  -27.0788  -17.7946 C   0  0  0  0  0  0  0  0  0  0  0  0
   18.6052  -25.9664  -17.2951 C   0  0  0  0  0  0  0  0  0  0  0  0
   20.0362  -26.0985  -16.9873 C   0  0  0  0  0  0  0  0  0  0  0  0
   20.8399  -25.2567  -17.9567 C   0  0  2  0  0  0  0  0  0  0  0  0
   20.8781  -25.9495  -19.2122 N   0  0  0  0  0  0  0  0  0  0  0  0
   22.2330  -25.0693  -17.4467 C   0  0  0  0  0  0  0  0  0  0  0  0
   23.1168  -25.8653  -17.8399 O   0  0  0  0  0  0  0  0  0  0  0  0
   17.8667  -24.8204  -17.1259 C   0  0  0  0  0  0  0  0  0  0  0  0
   16.5192  -24.7693  -17.4399 C   0  0  0  0  0  0  0  0  0  0  0  0
   28.4556  -26.3308  -16.2801 N   0  0  0  0  0  0  0  0  0  0  0  0
   28.6684  -24.9335  -16.3197 C   0  0  0  0  0  0  0  0  0  0  0  0
   29.8791  -24.4977  -16.2436 N   0  0  0  0  0  0  0  0  0  0  0  0
   27.5556  -24.0665  -16.4374 N   0  0  0  0  0  0  0  0  0  0  0  0
   26.2471  -24.6310  -16.6431 C   0  0  0  0  0  0  0  0  0  0  0  0
   25.5672  -23.8300  -17.7475 C   0  0  0  0  0  0  0  0  0  0  0  0
   24.5456  -22.8921  -17.1994 C   0  0  0  0  0  0  0  0  0  0  0  0
   23.7636  -23.5630  -16.0675 C   0  0  2  0  0  0  0  0  0  0  0  0
   22.5020  -24.0182  -16.5548 N   0  0  0  0  0  0  0  0  0  0  0  0
   23.6339  -22.6678  -14.9165 C   0  0  0  0  0  0  0  0  0  0  0  0
   23.1118  -21.5359  -15.0515 O   0  0  0  0  0  0  0  0  0  0  0  0
   30.1305  -23.4918  -16.2233 N   0  0  0  0  0  0  0  0  0  0  0  0
   24.0912  -23.0580  -13.6385 C   0  0  1  0  0  0  0  0  0  0  0  0
   23.9873  -22.2325  -12.4478 C   0  0  0  0  0  0  0  0  0  0  0  0
   25.0743  -22.5613  -11.4967 C   0  0  0  0  0  0  0  0  0  0  0  0
   25.7706  -21.3391  -11.0560 C   0  0  0  0  0  0  0  0  0  0  0  0
   25.5653  -20.5708   -9.9332 N   0  0  0  0  0  0  0  0  0  0  0  0
   26.4279  -19.5499   -9.9369 C   0  0  0  0  0  0  0  0  0  0  0  0
   27.1911  -19.6337  -11.0357 C   0  0  0  0  0  0  0  0  0  0  0  0
   28.2269  -18.8186  -11.4959 C   0  0  0  0  0  0  0  0  0  0  0  0
   28.8366  -19.1511  -12.6676 C   0  0  0  0  0  0  0  0  0  0  0  0
   28.4592  -20.2575  -13.3978 C   0  0  0  0  0  0  0  0  0  0  0  0
   27.4258  -21.0662  -12.9337 C   0  0  0  0  0  0  0  0  0  0  0  0
   26.7994  -20.7373  -11.7439 C   0  0  0  0  0  0  0  0  0  0  0  0
   23.9755  -20.7777  -12.7843 O   0  0  0  0  0  0  0  0  0  0  0  0
   23.3249  -19.8290  -12.0262 O   0  0  0  0  0  0  0  0  0  0  0  0
  2  1  1  0
  3  2  2  0
  4  3  1  0
  5 11  1  0
  5  4  2  0
  6  7  1  0
  6  5  1  0
  7  8  1  6
  9  7  1  0
 10  9  2  0
 11 12  2  0
 12  2  1  0
 13 14  1  0
 14 15  2  0
 14 16  1  0
 16 17  1  0
 17 18  1  0
 18 19  1  0
 20 19  1  6
 20 22  1  0
 20 21  1  0
 21  9  1  0
 22 23  2  0
 24 25  1  0
 24 22  1  0
 25 26  1  1
 27 26  1  0
 27 28  2  0
 29 28  1  0
 30 29  1  0
 31 30  2  0
 32 31  1  0
 33 32  2  0
 33 34  1  0
 34 35  2  0
 35 30  1  0
 35 27  1  0
 36 25  1  0
 36 37  1  0
 38 36  2  0
M  END
$$$$
