YRW.pdb
     RDKit          3D

 38 40  0  0  1  0  0  0  0  0999 V2000
   15.7562  -18.3211  -15.0787 O   0  0  0  0  0  0  0  0  0  0  0  0
   16.9484  -18.7754  -14.5293 C   0  0  0  0  0  0  0  0  0  0  0  0
   16.9441  -20.0115  -13.9056 C   0  0  0  0  0  0  0  0  0  0  0  0
   18.0822  -20.5368  -13.3350 C   0  0  0  0  0  0  0  0  0  0  0  0
   19.2765  -19.8391  -13.3674 C   0  0  0  0  0  0  0  0  0  0  0  0
   20.4482  -20.4652  -12.7388 C   0  0  0  0  0  0  0  0  0  0  0  0
   21.5559  -20.6027  -13.7626 C   0  0  2  0  0  0  0  0  0  0  0  0
   21.0743  -21.4444  -14.8197 N   0  0  0  0  0  0  0  0  0  0  0  0
   22.7629  -21.2264  -13.1377 C   0  0  0  0  0  0  0  0  0  0  0  0
   22.6483  -21.7090  -11.9874 O   0  0  0  0  0  0  0  0  0  0  0  0
   19.2773  -18.6130  -13.9869 C   0  0  0  0  0  0  0  0  0  0  0  0
   18.1326  -18.0858  -14.5603 C   0  0  0  0  0  0  0  0  0  0  0  0
   29.4684  -22.8005  -17.5396 N   0  0  0  0  0  0  0  0  0  0  0  0
   28.4376  -21.8331  -17.5702 C   0  0  0  0  0  0  0  0  0  0  0  0
   27.9343  -21.5130  -18.7129 N   0  0  0  0  0  0  0  0  0  0  0  0
   27.9979  -21.2507  -16.3572 N   0  0  0  0  0  0  0  0  0  0  0  0
   28.7008  -21.5571  -15.1385 C   0  0  0  0  0  0  0  0  0  0  0  0
   27.6590  -21.7786  -14.0480 C   0  0  0  0  0  0  0  0  0  0  0  0
   26.2784  -21.5055  -14.5406 C   0  0  0  0  0  0  0  0  0  0  0  0
   25.2815  -21.5603  -13.3804 C   0  0  2  0  0  0  0  0  0  0  0  0
   23.9711  -21.2513  -13.8534 N   0  0  0  0  0  0  0  0  0  0  0  0
   25.7048  -20.6889  -12.2828 C   0  0  0  0  0  0  0  0  0  0  0  0
   25.5790  -19.4451  -12.3784 O   0  0  0  0  0  0  0  0  0  0  0  0
   27.1854  -20.8063  -18.8365 N   0  0  0  0  0  0  0  0  0  0  0  0
   26.2600  -21.2277  -11.1012 C   0  0  2  0  0  0  0  0  0  0  0  0
   27.0288  -20.4597  -10.1372 C   0  0  0  0  0  0  0  0  0  0  0  0
   26.4666  -20.6298   -8.7774 C   0  0  0  0  0  0  0  0  0  0  0  0
   27.0976  -19.6932   -7.8301 C   0  0  0  0  0  0  0  0  0  0  0  0
   26.8611  -18.3516   -7.6362 N   0  0  0  0  0  0  0  0  0  0  0  0
   27.6664  -17.8998   -6.6701 C   0  0  0  0  0  0  0  0  0  0  0  0
   28.4230  -18.9145   -6.2289 C   0  0  0  0  0  0  0  0  0  0  0  0
   29.4082  -18.9605   -5.2409 C   0  0  0  0  0  0  0  0  0  0  0  0
   30.0239  -20.1513   -4.9996 C   0  0  0  0  0  0  0  0  0  0  0  0
   29.7007  -21.2943   -5.6987 C   0  0  0  0  0  0  0  0  0  0  0  0
   28.7176  -21.2420   -6.6827 C   0  0  0  0  0  0  0  0  0  0  0  0
   28.0855  -20.0367   -6.9359 C   0  0  0  0  0  0  0  0  0  0  0  0
   28.4785  -20.8151  -10.1789 O   0  0  0  0  0  0  0  0  0  0  0  0
   29.4860  -19.8807  -10.2785 O   0  0  0  0  0  0  0  0  0  0  0  0
  2  1  1  0
  3  2  2  0
  4  3  1  0
  5 11  1  0
  5  4  2  0
  6  7  1  0
  6  5  1  0
  7  8  1  6
  9  7  1  0
 10  9  2  0
 11 12  2  0
 12  2  1  0
 13 14  1  0
 14 15  2  0
 14 16  1  0
 16 17  1  0
 17 18  1  0
 18 19  1  0
 20 19  1  6
 20 22  1  0
 20 21  1  0
 21  9  1  0
 22 23  2  0
 24 25  1  0
 24 22  1  0
 25 26  1  1
 27 26  1  0
 27 28  2  0
 29 28  1  0
 30 29  1  0
 31 30  2  0
 32 31  1  0
 33 32  2  0
 33 34  1  0
 34 35  2  0
 35 30  1  0
 35 27  1  0
 36 25  1  0
 36 37  1  0
 38 36  2  0
M  END
$$$$
