YRW.pdb
     RDKit          3D

 38 40  0  0  1  0  0  0  0  0999 V2000
   28.9214  -21.1247   -3.0403 O   0  0  0  0  0  0  0  0  0  0  0  0
   28.5255  -20.7523   -4.3187 C   0  0  0  0  0  0  0  0  0  0  0  0
   27.3941  -21.3513   -4.8460 C   0  0  0  0  0  0  0  0  0  0  0  0
   26.9322  -21.0399   -6.1056 C   0  0  0  0  0  0  0  0  0  0  0  0
   27.5906  -20.1101   -6.8907 C   0  0  0  0  0  0  0  0  0  0  0  0
   27.0367  -19.8293   -8.2227 C   0  0  0  0  0  0  0  0  0  0  0  0
   27.3717  -20.9721   -9.1588 C   0  0  2  0  0  0  0  0  0  0  0  0
   28.8003  -21.0493   -9.2633 N   0  0  0  0  0  0  0  0  0  0  0  0
   26.7845  -20.7217  -10.5110 C   0  0  0  0  0  0  0  0  0  0  0  0
   27.1830  -19.7211  -11.1507 O   0  0  0  0  0  0  0  0  0  0  0  0
   28.7127  -19.5177   -6.3644 C   0  0  0  0  0  0  0  0  0  0  0  0
   29.1762  -19.8314   -5.0980 C   0  0  0  0  0  0  0  0  0  0  0  0
   25.3190  -26.3372  -16.0148 N   0  0  0  0  0  0  0  0  0  0  0  0
   24.4144  -25.4528  -16.6464 C   0  0  0  0  0  0  0  0  0  0  0  0
   23.5507  -25.9457  -17.4665 N   0  0  0  0  0  0  0  0  0  0  0  0
   24.4877  -24.0679  -16.3628 N   0  0  0  0  0  0  0  0  0  0  0  0
   25.3853  -23.6106  -15.3340 C   0  0  0  0  0  0  0  0  0  0  0  0
   24.5509  -22.8951  -14.2779 C   0  0  0  0  0  0  0  0  0  0  0  0
   25.2003  -22.9429  -12.9365 C   0  0  0  0  0  0  0  0  0  0  0  0
   25.1383  -21.5671  -12.2685 C   0  0  2  0  0  0  0  0  0  0  0  0
   25.8173  -21.6072  -11.0141 N   0  0  0  0  0  0  0  0  0  0  0  0
   23.7547  -21.1048  -12.1462 C   0  0  0  0  0  0  0  0  0  0  0  0
   22.9736  -21.6548  -11.3341 O   0  0  0  0  0  0  0  0  0  0  0  0
   22.8888  -25.3720  -18.0218 N   0  0  0  0  0  0  0  0  0  0  0  0
   23.2739  -20.0366  -12.9353 C   0  0  2  0  0  0  0  0  0  0  0  0
   21.9217  -19.5114  -12.8606 C   0  0  0  0  0  0  0  0  0  0  0  0
   21.8478  -18.1844  -13.5147 C   0  0  0  0  0  0  0  0  0  0  0  0
   20.4921  -17.6180  -13.3959 C   0  0  0  0  0  0  0  0  0  0  0  0
   19.7084  -17.4489  -12.2777 N   0  0  0  0  0  0  0  0  0  0  0  0
   18.5462  -16.8951  -12.6366 C   0  0  0  0  0  0  0  0  0  0  0  0
   18.5527  -16.6990  -13.9626 C   0  0  0  0  0  0  0  0  0  0  0  0
   17.5878  -16.1563  -14.8131 C   0  0  0  0  0  0  0  0  0  0  0  0
   17.8714  -16.0782  -16.1430 C   0  0  0  0  0  0  0  0  0  0  0  0
   19.0716  -16.5168  -16.6597 C   0  0  0  0  0  0  0  0  0  0  0  0
   20.0296  -17.0570  -15.8066 C   0  0  0  0  0  0  0  0  0  0  0  0
   19.7515  -17.1409  -14.4531 C   0  0  0  0  0  0  0  0  0  0  0  0
   20.9272  -20.4633  -13.4390 O   0  0  0  0  0  0  0  0  0  0  0  0
   19.7387  -20.7867  -12.8218 O   0  0  0  0  0  0  0  0  0  0  0  0
  2  1  1  0
  3  2  2  0
  4  3  1  0
  5 11  1  0
  5  4  2  0
  6  7  1  0
  6  5  1  0
  7  8  1  6
  9  7  1  0
 10  9  2  0
 11 12  2  0
 12  2  1  0
 13 14  1  0
 14 15  2  0
 14 16  1  0
 16 17  1  0
 17 18  1  0
 18 19  1  0
 20 19  1  1
 20 22  1  0
 20 21  1  0
 21  9  1  0
 22 23  2  0
 24 25  1  0
 24 22  1  0
 25 26  1  6
 27 26  1  0
 27 28  2  0
 29 28  1  0
 30 29  1  0
 31 30  2  0
 32 31  1  0
 33 32  2  0
 33 34  1  0
 34 35  2  0
 35 30  1  0
 35 27  1  0
 36 25  1  0
 36 37  1  0
 38 36  2  0
M  END
$$$$
