YRW.pdb
     RDKit          3D

 38 40  0  0  1  0  0  0  0  0999 V2000
   19.6463  -26.0947  -10.7897 O   0  0  0  0  0  0  0  0  0  0  0  0
   20.0090  -27.1307  -11.6410 C   0  0  0  0  0  0  0  0  0  0  0  0
   21.0131  -27.9885  -11.2253 C   0  0  0  0  0  0  0  0  0  0  0  0
   21.4336  -29.0414  -12.0073 C   0  0  0  0  0  0  0  0  0  0  0  0
   20.8604  -29.2769  -13.2444 C   0  0  0  0  0  0  0  0  0  0  0  0
   21.3608  -30.4204  -14.0202 C   0  0  0  0  0  0  0  0  0  0  0  0
   22.6433  -30.0289  -14.7245 C   0  0  2  0  0  0  0  0  0  0  0  0
   22.2919  -29.2374  -15.8681 N   0  0  0  0  0  0  0  0  0  0  0  0
   23.3820  -31.2504  -15.1700 C   0  0  0  0  0  0  0  0  0  0  0  0
   23.0932  -31.7394  -16.2866 O   0  0  0  0  0  0  0  0  0  0  0  0
   19.8644  -28.4239  -13.6538 C   0  0  0  0  0  0  0  0  0  0  0  0
   19.4424  -27.3657  -12.8668 C   0  0  0  0  0  0  0  0  0  0  0  0
   29.7266  -31.4586  -18.2540 N   0  0  0  0  0  0  0  0  0  0  0  0
   30.0806  -31.8536  -16.9433 C   0  0  0  0  0  0  0  0  0  0  0  0
   31.3252  -31.8173  -16.6097 N   0  0  0  0  0  0  0  0  0  0  0  0
   29.0672  -32.2752  -16.0494 N   0  0  0  0  0  0  0  0  0  0  0  0
   27.6877  -32.0768  -16.4113 C   0  0  0  0  0  0  0  0  0  0  0  0
   26.9273  -31.7024  -15.1444 C   0  0  0  0  0  0  0  0  0  0  0  0
   26.5173  -32.9091  -14.3703 C   0  0  0  0  0  0  0  0  0  0  0  0
   24.9969  -33.0785  -14.4192 C   0  0  2  0  0  0  0  0  0  0  0  0
   24.3649  -31.8020  -14.3320 N   0  0  0  0  0  0  0  0  0  0  0  0
   24.5384  -34.0065  -13.3840 C   0  0  0  0  0  0  0  0  0  0  0  0
   24.9048  -33.8578  -12.1941 O   0  0  0  0  0  0  0  0  0  0  0  0
   31.6825  -32.1060  -15.6799 N   0  0  0  0  0  0  0  0  0  0  0  0
   23.6795  -35.0817  -13.7019 C   0  0  2  0  0  0  0  0  0  0  0  0
   23.0969  -35.9786  -12.7189 C   0  0  0  0  0  0  0  0  0  0  0  0
   21.6746  -36.2400  -13.0394 C   0  0  0  0  0  0  0  0  0  0  0  0
   21.5576  -37.1760  -14.1721 C   0  0  0  0  0  0  0  0  0  0  0  0
   22.0724  -38.4438  -14.3174 N   0  0  0  0  0  0  0  0  0  0  0  0
   21.7176  -38.9266  -15.5121 C   0  0  0  0  0  0  0  0  0  0  0  0
   20.9836  -38.0040  -16.1500 C   0  0  0  0  0  0  0  0  0  0  0  0
   20.3828  -38.0222  -17.4100 C   0  0  0  0  0  0  0  0  0  0  0  0
   19.6834  -36.9227  -17.8065 C   0  0  0  0  0  0  0  0  0  0  0  0
   19.5579  -35.8095  -17.0035 C   0  0  0  0  0  0  0  0  0  0  0  0
   20.1593  -35.7974  -15.7483 C   0  0  0  0  0  0  0  0  0  0  0  0
   20.8724  -36.9098  -15.3355 C   0  0  0  0  0  0  0  0  0  0  0  0
   23.8741  -37.2482  -12.6014 O   0  0  0  0  0  0  0  0  0  0  0  0
   24.7674  -37.6820  -13.5564 O   0  0  0  0  0  0  0  0  0  0  0  0
  2  1  1  0
  3  2  2  0
  4  3  1  0
  5 11  1  0
  5  4  2  0
  6  7  1  0
  6  5  1  0
  7  8  1  6
  9  7  1  0
 10  9  2  0
 11 12  2  0
 12  2  1  0
 13 14  1  0
 14 15  2  0
 14 16  1  0
 16 17  1  0
 17 18  1  0
 18 19  1  0
 20 19  1  1
 20 22  1  0
 20 21  1  0
 21  9  1  0
 22 23  2  0
 24 25  1  0
 24 22  1  0
 25 26  1  6
 27 26  1  0
 27 28  2  0
 29 28  1  0
 30 29  1  0
 31 30  2  0
 32 31  1  0
 33 32  2  0
 33 34  1  0
 34 35  2  0
 35 30  1  0
 35 27  1  0
 36 25  1  0
 36 37  1  0
 38 36  2  0
M  END
$$$$
