YRW.pdb
     RDKit          3D

 38 40  0  0  1  0  0  0  0  0999 V2000
   17.8785  -16.3172  -17.2299 O   0  0  0  0  0  0  0  0  0  0  0  0
   18.7931  -17.0532  -16.4873 C   0  0  0  0  0  0  0  0  0  0  0  0
   18.3361  -17.6918  -15.3469 C   0  0  0  0  0  0  0  0  0  0  0  0
   19.1755  -18.4420  -14.5535 C   0  0  0  0  0  0  0  0  0  0  0  0
   20.5141  -18.5822  -14.8741 C   0  0  0  0  0  0  0  0  0  0  0  0
   21.3465  -19.3995  -13.9803 C   0  0  0  0  0  0  0  0  0  0  0  0
   21.8271  -20.6287  -14.7234 C   0  0  2  0  0  0  0  0  0  0  0  0
   20.6915  -21.4749  -14.9523 N   0  0  0  0  0  0  0  0  0  0  0  0
   22.8412  -21.3634  -13.9061 C   0  0  0  0  0  0  0  0  0  0  0  0
   22.4405  -22.0064  -12.9085 O   0  0  0  0  0  0  0  0  0  0  0  0
   20.9641  -17.9473  -16.0062 C   0  0  0  0  0  0  0  0  0  0  0  0
   20.1194  -17.1934  -16.8032 C   0  0  0  0  0  0  0  0  0  0  0  0
   30.8419  -23.5383  -14.6742 N   0  0  0  0  0  0  0  0  0  0  0  0
   30.1340  -23.1000  -15.8171 C   0  0  0  0  0  0  0  0  0  0  0  0
   30.4273  -23.6267  -16.9564 N   0  0  0  0  0  0  0  0  0  0  0  0
   29.1378  -22.1044  -15.6751 N   0  0  0  0  0  0  0  0  0  0  0  0
   28.9390  -21.4916  -14.3874 C   0  0  0  0  0  0  0  0  0  0  0  0
   27.5229  -20.9285  -14.3577 C   0  0  0  0  0  0  0  0  0  0  0  0
   26.5001  -21.9982  -14.5401 C   0  0  0  0  0  0  0  0  0  0  0  0
   25.3351  -21.7882  -13.5697 C   0  0  2  0  0  0  0  0  0  0  0  0
   24.1938  -21.3098  -14.2803 N   0  0  0  0  0  0  0  0  0  0  0  0
   25.7228  -20.9071  -12.4668 C   0  0  0  0  0  0  0  0  0  0  0  0
   25.6959  -19.6621  -12.6126 O   0  0  0  0  0  0  0  0  0  0  0  0
   29.9574  -23.3765  -17.8464 N   0  0  0  0  0  0  0  0  0  0  0  0
   26.1325  -21.4377  -11.2236 C   0  0  2  0  0  0  0  0  0  0  0  0
   26.5500  -20.6309  -10.0901 C   0  0  0  0  0  0  0  0  0  0  0  0
   26.8038  -21.4913   -8.9113 C   0  0  0  0  0  0  0  0  0  0  0  0
   27.1393  -20.6747   -7.7308 C   0  0  0  0  0  0  0  0  0  0  0  0
   26.4071  -19.6878   -7.1118 N   0  0  0  0  0  0  0  0  0  0  0  0
   27.1014  -19.2132   -6.0731 C   0  0  0  0  0  0  0  0  0  0  0  0
   28.2694  -19.8668   -5.9996 C   0  0  0  0  0  0  0  0  0  0  0  0
   29.3333  -19.7436   -5.1042 C   0  0  0  0  0  0  0  0  0  0  0  0
   30.4147  -20.5545   -5.2727 C   0  0  0  0  0  0  0  0  0  0  0  0
   30.4806  -21.4796   -6.2922 C   0  0  0  0  0  0  0  0  0  0  0  0
   29.4167  -21.5977   -7.1818 C   0  0  0  0  0  0  0  0  0  0  0  0
   28.3127  -20.7784   -7.0195 C   0  0  0  0  0  0  0  0  0  0  0  0
   27.7384  -19.7891  -10.4198 O   0  0  0  0  0  0  0  0  0  0  0  0
   27.8495  -18.4620  -10.0669 O   0  0  0  0  0  0  0  0  0  0  0  0
  2  1  1  0
  3  2  2  0
  4  3  1  0
  5 11  1  0
  5  4  2  0
  6  7  1  0
  6  5  1  0
  7  8  1  1
  9  7  1  0
 10  9  2  0
 11 12  2  0
 12  2  1  0
 13 14  1  0
 14 15  2  0
 14 16  1  0
 16 17  1  0
 17 18  1  0
 18 19  1  0
 20 19  1  6
 20 22  1  0
 20 21  1  0
 21  9  1  0
 22 23  2  0
 24 25  1  0
 24 22  1  0
 25 26  1  1
 27 26  1  0
 27 28  2  0
 29 28  1  0
 30 29  1  0
 31 30  2  0
 32 31  1  0
 33 32  2  0
 33 34  1  0
 34 35  2  0
 35 30  1  0
 35 27  1  0
 36 25  1  0
 36 37  1  0
 38 36  2  0
M  END
$$$$
