YRW.pdb
     RDKit          3D

 38 40  0  0  1  0  0  0  0  0999 V2000
   11.8211  -24.1798    0.9892 O   0  0  0  0  0  0  0  0  0  0  0  0
   12.7918  -23.3790    1.5777 C   0  0  0  0  0  0  0  0  0  0  0  0
   14.0455  -23.9287    1.7853 C   0  0  0  0  0  0  0  0  0  0  0  0
   15.0651  -23.2047    2.3624 C   0  0  0  0  0  0  0  0  0  0  0  0
   14.8666  -21.8934    2.7565 C   0  0  0  0  0  0  0  0  0  0  0  0
   16.0025  -21.1853    3.3632 C   0  0  0  0  0  0  0  0  0  0  0  0
   16.2728  -19.9110    2.5903 C   0  0  2  0  0  0  0  0  0  0  0  0
   16.6902  -20.2797    1.2684 N   0  0  0  0  0  0  0  0  0  0  0  0
   17.3562  -19.1231    3.2550 C   0  0  0  0  0  0  0  0  0  0  0  0
   18.5359  -19.5279    3.1380 O   0  0  0  0  0  0  0  0  0  0  0  0
   13.6216  -21.3511    2.5490 C   0  0  0  0  0  0  0  0  0  0  0  0
   12.5971  -22.0798    1.9688 C   0  0  0  0  0  0  0  0  0  0  0  0
   19.1382  -12.1796    7.6512 N   0  0  0  0  0  0  0  0  0  0  0  0
   19.2572  -11.8505    6.2812 C   0  0  0  0  0  0  0  0  0  0  0  0
   20.1670  -11.0064    5.9327 N   0  0  0  0  0  0  0  0  0  0  0  0
   18.3800  -12.4502    5.3460 N   0  0  0  0  0  0  0  0  0  0  0  0
   17.4244  -13.4236    5.8070 C   0  0  0  0  0  0  0  0  0  0  0  0
   18.0591  -14.8013    5.6557 C   0  0  0  0  0  0  0  0  0  0  0  0
   17.1680  -15.7408    4.9163 C   0  0  0  0  0  0  0  0  0  0  0  0
   17.8803  -17.0758    4.6858 C   0  0  2  0  0  0  0  0  0  0  0  0
   17.0194  -17.9679    3.9792 N   0  0  0  0  0  0  0  0  0  0  0  0
   18.3619  -17.6388    5.9484 C   0  0  0  0  0  0  0  0  0  0  0  0
   17.5521  -18.1196    6.7761 O   0  0  0  0  0  0  0  0  0  0  0  0
   20.4007  -10.7833    4.9473 N   0  0  0  0  0  0  0  0  0  0  0  0
   19.7398  -17.6519    6.2585 C   0  0  2  0  0  0  0  0  0  0  0  0
   20.2882  -18.1262    7.5172 C   0  0  0  0  0  0  0  0  0  0  0  0
   21.7617  -17.9743    7.5267 C   0  0  0  0  0  0  0  0  0  0  0  0
   22.3419  -18.5822    8.7377 C   0  0  0  0  0  0  0  0  0  0  0  0
   22.1427  -19.8352    9.2702 N   0  0  0  0  0  0  0  0  0  0  0  0
   22.8736  -19.9602   10.3821 C   0  0  0  0  0  0  0  0  0  0  0  0
   23.5450  -18.8185   10.5880 C   0  0  0  0  0  0  0  0  0  0  0  0
   24.4329  -18.4475   11.5994 C   0  0  0  0  0  0  0  0  0  0  0  0
   24.9760  -17.1992   11.5545 C   0  0  0  0  0  0  0  0  0  0  0  0
   24.6726  -16.3078   10.5480 C   0  0  0  0  0  0  0  0  0  0  0  0
   23.7866  -16.6835    9.5425 C   0  0  0  0  0  0  0  0  0  0  0  0
   23.2290  -17.9500    9.5786 C   0  0  0  0  0  0  0  0  0  0  0  0
   19.6595  -17.4416    8.6858 O   0  0  0  0  0  0  0  0  0  0  0  0
   19.2198  -18.1078    9.8088 O   0  0  0  0  0  0  0  0  0  0  0  0
  2  1  1  0
  3  2  2  0
  4  3  1  0
  5 11  1  0
  5  4  2  0
  6  7  1  0
  6  5  1  0
  7  8  1  6
  9  7  1  0
 10  9  2  0
 11 12  2  0
 12  2  1  0
 13 14  1  0
 14 15  2  0
 14 16  1  0
 16 17  1  0
 17 18  1  0
 18 19  1  0
 20 19  1  1
 20 22  1  0
 20 21  1  0
 21  9  1  0
 22 23  2  0
 24 25  1  0
 24 22  1  0
 25 26  1  6
 27 26  1  0
 27 28  2  0
 29 28  1  0
 30 29  1  0
 31 30  2  0
 32 31  1  0
 33 32  2  0
 33 34  1  0
 34 35  2  0
 35 30  1  0
 35 27  1  0
 36 25  1  0
 36 37  1  0
 38 36  2  0
M  END
$$$$
