YRW.pdb
     RDKit          3D

 38 40  0  0  1  0  0  0  0  0999 V2000
   17.6476  -18.2671  -20.2241 O   0  0  0  0  0  0  0  0  0  0  0  0
   18.5832  -18.8540  -19.3816 C   0  0  0  0  0  0  0  0  0  0  0  0
   18.1490  -19.8558  -18.5303 C   0  0  0  0  0  0  0  0  0  0  0  0
   19.0102  -20.4906  -17.6629 C   0  0  0  0  0  0  0  0  0  0  0  0
   20.3487  -20.1436  -17.6147 C   0  0  0  0  0  0  0  0  0  0  0  0
   21.2059  -20.8666  -16.6648 C   0  0  0  0  0  0  0  0  0  0  0  0
   22.1425  -21.7812  -17.4267 C   0  0  2  0  0  0  0  0  0  0  0  0
   21.3760  -22.8965  -17.9025 N   0  0  0  0  0  0  0  0  0  0  0  0
   23.2320  -22.2710  -16.5271 C   0  0  0  0  0  0  0  0  0  0  0  0
   22.9781  -23.2296  -15.7617 O   0  0  0  0  0  0  0  0  0  0  0  0
   20.7762  -19.1492  -18.4607 C   0  0  0  0  0  0  0  0  0  0  0  0
   19.9096  -18.5117  -19.3323 C   0  0  0  0  0  0  0  0  0  0  0  0
   29.7376  -24.8687  -16.6948 N   0  0  0  0  0  0  0  0  0  0  0  0
   30.5658  -24.0848  -15.8586 C   0  0  0  0  0  0  0  0  0  0  0  0
   31.4315  -24.6878  -15.1181 N   0  0  0  0  0  0  0  0  0  0  0  0
   30.4168  -22.6771  -15.8595 N   0  0  0  0  0  0  0  0  0  0  0  0
   29.3538  -22.0862  -16.6301 C   0  0  0  0  0  0  0  0  0  0  0  0
   28.0502  -22.3237  -15.8766 C   0  0  0  0  0  0  0  0  0  0  0  0
   26.9094  -21.5983  -16.5059 C   0  0  0  0  0  0  0  0  0  0  0  0
   25.6195  -21.8600  -15.7245 C   0  0  2  0  0  0  0  0  0  0  0  0
   24.4900  -21.6480  -16.5704 N   0  0  0  0  0  0  0  0  0  0  0  0
   25.5708  -21.0508  -14.5054 C   0  0  0  0  0  0  0  0  0  0  0  0
   25.3751  -19.8143  -14.5746 O   0  0  0  0  0  0  0  0  0  0  0  0
   32.0285  -24.2072  -14.4194 N   0  0  0  0  0  0  0  0  0  0  0  0
   25.7421  -21.6424  -13.2344 C   0  0  2  0  0  0  0  0  0  0  0  0
   25.7618  -20.9009  -11.9855 C   0  0  0  0  0  0  0  0  0  0  0  0
   26.3338  -21.7328  -10.9016 C   0  0  0  0  0  0  0  0  0  0  0  0
   26.3210  -21.0034   -9.6208 C   0  0  0  0  0  0  0  0  0  0  0  0
   25.2834  -20.3525   -8.9938 N   0  0  0  0  0  0  0  0  0  0  0  0
   25.7247  -19.8270   -7.8470 C   0  0  0  0  0  0  0  0  0  0  0  0
   27.0258  -20.1193   -7.7107 C   0  0  0  0  0  0  0  0  0  0  0  0
   27.9346  -19.8034   -6.6991 C   0  0  0  0  0  0  0  0  0  0  0  0
   29.2182  -20.2407   -6.8262 C   0  0  0  0  0  0  0  0  0  0  0  0
   29.6334  -20.9769   -7.9150 C   0  0  0  0  0  0  0  0  0  0  0  0
   28.7227  -21.2885   -8.9203 C   0  0  0  0  0  0  0  0  0  0  0  0
   27.4155  -20.8490   -8.8010 C   0  0  0  0  0  0  0  0  0  0  0  0
   26.4911  -19.6053  -12.1244 O   0  0  0  0  0  0  0  0  0  0  0  0
   26.0141  -18.4098  -11.6331 O   0  0  0  0  0  0  0  0  0  0  0  0
  2  1  1  0
  3  2  2  0
  4  3  1  0
  5 11  1  0
  5  4  2  0
  6  7  1  0
  6  5  1  0
  7  8  1  1
  9  7  1  0
 10  9  2  0
 11 12  2  0
 12  2  1  0
 13 14  1  0
 14 15  2  0
 14 16  1  0
 16 17  1  0
 17 18  1  0
 18 19  1  0
 20 19  1  6
 20 22  1  0
 20 21  1  0
 21  9  1  0
 22 23  2  0
 24 25  1  0
 24 22  1  0
 25 26  1  1
 27 26  1  0
 27 28  2  0
 29 28  1  0
 30 29  1  0
 31 30  2  0
 32 31  1  0
 33 32  2  0
 33 34  1  0
 34 35  2  0
 35 30  1  0
 35 27  1  0
 36 25  1  0
 36 37  1  0
 38 36  2  0
M  END
$$$$
