YRW.pdb
     RDKit          3D

 38 40  0  0  1  0  0  0  0  0999 V2000
   21.5650  -14.3495  -19.9827 O   0  0  0  0  0  0  0  0  0  0  0  0
   22.1104  -15.2952  -19.1237 C   0  0  0  0  0  0  0  0  0  0  0  0
   21.2671  -16.2661  -18.6107 C   0  0  0  0  0  0  0  0  0  0  0  0
   21.7255  -17.2411  -17.7526 C   0  0  0  0  0  0  0  0  0  0  0  0
   23.0553  -17.2811  -17.3729 C   0  0  0  0  0  0  0  0  0  0  0  0
   23.4698  -18.3521  -16.4559 C   0  0  0  0  0  0  0  0  0  0  0  0
   24.5187  -19.2133  -17.1284 C   0  0  2  0  0  0  0  0  0  0  0  0
   23.8940  -19.8842  -18.2318 N   0  0  0  0  0  0  0  0  0  0  0  0
   25.0519  -20.2253  -16.1652 C   0  0  0  0  0  0  0  0  0  0  0  0
   24.3463  -21.2296  -15.9147 O   0  0  0  0  0  0  0  0  0  0  0  0
   23.8893  -16.3163  -17.8838 C   0  0  0  0  0  0  0  0  0  0  0  0
   23.4275  -15.3366  -18.7464 C   0  0  0  0  0  0  0  0  0  0  0  0
   33.1643  -23.1399  -14.0454 N   0  0  0  0  0  0  0  0  0  0  0  0
   32.5208  -22.8391  -12.8228 C   0  0  0  0  0  0  0  0  0  0  0  0
   33.2208  -22.8686  -11.7408 N   0  0  0  0  0  0  0  0  0  0  0  0
   31.1414  -22.5212  -12.8260 N   0  0  0  0  0  0  0  0  0  0  0  0
   30.5776  -21.8622  -13.9753 C   0  0  0  0  0  0  0  0  0  0  0  0
   29.1073  -21.5921  -13.6775 C   0  0  0  0  0  0  0  0  0  0  0  0
   28.4250  -20.9284  -14.8254 C   0  0  0  0  0  0  0  0  0  0  0  0
   26.9351  -20.7488  -14.5241 C   0  0  2  0  0  0  0  0  0  0  0  0
   26.3123  -20.0194  -15.5808 N   0  0  0  0  0  0  0  0  0  0  0  0
   26.7356  -20.1253  -13.2147 C   0  0  0  0  0  0  0  0  0  0  0  0
   26.9788  -18.9062  -13.0511 O   0  0  0  0  0  0  0  0  0  0  0  0
   32.8327  -22.6853  -10.7968 N   0  0  0  0  0  0  0  0  0  0  0  0
   26.2681  -20.8792  -12.1156 C   0  0  2  0  0  0  0  0  0  0  0  0
   26.0264  -20.3293  -10.7930 C   0  0  0  0  0  0  0  0  0  0  0  0
   24.9100  -19.3568  -10.8357 C   0  0  0  0  0  0  0  0  0  0  0  0
   23.6236  -20.0466  -11.0408 C   0  0  0  0  0  0  0  0  0  0  0  0
   22.8540  -20.7501  -10.1429 N   0  0  0  0  0  0  0  0  0  0  0  0
   21.7636  -21.2085  -10.7650 C   0  0  0  0  0  0  0  0  0  0  0  0
   21.8032  -20.8210  -12.0476 C   0  0  0  0  0  0  0  0  0  0  0  0
   20.9118  -21.0414  -13.0991 C   0  0  0  0  0  0  0  0  0  0  0  0
   21.2134  -20.5185  -14.3201 C   0  0  0  0  0  0  0  0  0  0  0  0
   22.3618  -19.7878  -14.5370 C   0  0  0  0  0  0  0  0  0  0  0  0
   23.2467  -19.5715  -13.4847 C   0  0  0  0  0  0  0  0  0  0  0  0
   22.9497  -20.0986  -12.2395 C   0  0  0  0  0  0  0  0  0  0  0  0
   25.7789  -21.4035   -9.7857 O   0  0  0  0  0  0  0  0  0  0  0  0
   25.6286  -21.1596   -8.4380 O   0  0  0  0  0  0  0  0  0  0  0  0
  2  1  1  0
  3  2  2  0
  4  3  1  0
  5 11  1  0
  5  4  2  0
  6  7  1  0
  6  5  1  0
  7  8  1  6
  9  7  1  0
 10  9  2  0
 11 12  2  0
 12  2  1  0
 13 14  1  0
 14 15  2  0
 14 16  1  0
 16 17  1  0
 17 18  1  0
 18 19  1  0
 20 19  1  6
 20 22  1  0
 20 21  1  0
 21  9  1  0
 22 23  2  0
 24 25  1  0
 24 22  1  0
 25 26  1  6
 27 26  1  0
 27 28  2  0
 29 28  1  0
 30 29  1  0
 31 30  2  0
 32 31  1  0
 33 32  2  0
 33 34  1  0
 34 35  2  0
 35 30  1  0
 35 27  1  0
 36 25  1  0
 36 37  1  0
 38 36  2  0
M  END
$$$$
