YRT.pdb
     RDKit          3D

 31 31  0  0  1  0  0  0  0  0999 V2000
   30.6774  -15.8424  -19.9511 O   0  0  0  0  0  0  0  0  0  0  0  0
   29.8163  -16.6698  -19.2361 C   0  0  0  0  0  0  0  0  0  0  0  0
   29.4887  -17.9051  -19.7711 C   0  0  0  0  0  0  0  0  0  0  0  0
   28.6454  -18.7742  -19.1226 C   0  0  0  0  0  0  0  0  0  0  0  0
   28.1037  -18.4166  -17.9031 C   0  0  0  0  0  0  0  0  0  0  0  0
   27.1950  -19.3033  -17.1607 C   0  0  0  0  0  0  0  0  0  0  0  0
   27.9889  -20.1631  -16.1769 C   0  0  2  0  0  0  0  0  0  0  0  0
   28.9289  -20.9905  -16.8669 N   0  0  0  0  0  0  0  0  0  0  0  0
   27.0523  -20.9779  -15.3390 C   0  0  0  0  0  0  0  0  0  0  0  0
   27.3959  -22.0822  -14.8495 O   0  0  0  0  0  0  0  0  0  0  0  0
   28.4396  -17.1788  -17.3798 C   0  0  0  0  0  0  0  0  0  0  0  0
   29.2831  -16.3093  -18.0282 C   0  0  0  0  0  0  0  0  0  0  0  0
   24.8251  -21.1401   -7.7694 N   0  0  0  0  0  0  0  0  0  0  0  0
   23.6195  -21.0952   -8.5040 C   0  0  0  0  0  0  0  0  0  0  0  0
   22.5076  -21.2810   -7.8739 N   0  0  0  0  0  0  0  0  0  0  0  0
   23.5586  -20.8567   -9.9000 N   0  0  0  0  0  0  0  0  0  0  0  0
   24.7133  -21.1364  -10.7508 C   0  0  0  0  0  0  0  0  0  0  0  0
   25.1814  -19.8941  -11.4591 C   0  0  0  0  0  0  0  0  0  0  0  0
   26.0156  -20.2945  -12.6560 C   0  0  0  0  0  0  0  0  0  0  0  0
   25.1253  -20.8038  -13.7821 C   0  0  2  0  0  0  0  0  0  0  0  0
   25.7316  -20.5334  -15.0624 N   0  0  0  0  0  0  0  0  0  0  0  0
   23.7582  -20.2492  -13.6777 C   0  0  0  0  0  0  0  0  0  0  0  0
   23.5539  -19.0489  -13.3586 O   0  0  0  0  0  0  0  0  0  0  0  0
   21.5758  -21.2424   -8.3269 C   0  0  0  0  0  0  0  0  0  0  0  0
   21.3778  -20.1143  -16.4573 C   0  0  2  0  0  0  0  0  0  0  0  0
   20.6417  -20.8164  -15.3352 O   0  0  0  0  0  0  0  0  0  0  0  0
   20.8142  -22.1995  -15.5695 C   0  0  2  0  0  0  0  0  0  0  0  0
   21.3176  -20.5311  -14.0149 N   0  0  0  0  0  0  0  0  0  0  0  0
   22.6404  -21.0600  -13.9358 C   0  0  0  0  0  0  0  0  0  0  0  0
   20.4872  -21.1220  -12.9527 O   0  0  0  0  0  0  0  0  0  0  0  0
   20.9436  -22.0378  -12.2407 O   0  0  0  0  0  0  0  0  0  0  0  0
  2 12  2  0
  2  1  1  0
  3  2  1  0
  4  5  1  0
  4  3  2  0
  5 11  2  0
  6  5  1  0
  7  6  1  0
  7  8  1  6
  9 21  1  0
  9  7  1  0
 10  9  2  0
 11 12  1  0
 13 14  1  0
 14 15  2  0
 16 14  1  0
 16 17  1  0
 18 17  1  0
 19 18  1  0
 20 19  1  1
 20 21  1  0
 22 20  1  0
 22 28  1  0
 23 22  2  0
 25 24  1  6
 25 27  1  0
 26 25  1  0
 27 28  1  1
 27 29  1  0
 29 30  2  0
 29 31  1  0
M  END
$$$$
