YRT.pdb
     RDKit          3D

 31 31  0  0  1  0  0  0  0  0999 V2000
   28.9885  -10.6387  -17.2825 O   0  0  0  0  0  0  0  0  0  0  0  0
   28.1281  -11.7283  -17.1833 C   0  0  0  0  0  0  0  0  0  0  0  0
   28.2981  -12.6126  -16.1304 C   0  0  0  0  0  0  0  0  0  0  0  0
   27.4873  -13.7096  -15.9683 C   0  0  0  0  0  0  0  0  0  0  0  0
   26.4718  -13.9468  -16.8743 C   0  0  0  0  0  0  0  0  0  0  0  0
   25.5713  -15.1036  -16.7545 C   0  0  0  0  0  0  0  0  0  0  0  0
   26.2815  -16.3722  -17.2273 C   0  0  2  0  0  0  0  0  0  0  0  0
   26.4875  -16.3436  -18.6418 N   0  0  0  0  0  0  0  0  0  0  0  0
   25.5005  -17.5805  -16.8110 C   0  0  0  0  0  0  0  0  0  0  0  0
   24.5061  -17.9809  -17.4651 O   0  0  0  0  0  0  0  0  0  0  0  0
   26.3130  -13.0549  -17.9221 C   0  0  0  0  0  0  0  0  0  0  0  0
   27.1237  -11.9575  -18.0845 C   0  0  0  0  0  0  0  0  0  0  0  0
   25.8079  -21.3039   -9.9508 N   0  0  0  0  0  0  0  0  0  0  0  0
   24.4500  -21.5344  -10.2639 C   0  0  0  0  0  0  0  0  0  0  0  0
   23.5534  -21.2038   -9.3951 N   0  0  0  0  0  0  0  0  0  0  0  0
   24.0116  -22.1105  -11.4826 N   0  0  0  0  0  0  0  0  0  0  0  0
   24.7780  -21.9174  -12.7116 C   0  0  0  0  0  0  0  0  0  0  0  0
   25.0506  -20.4586  -12.9598 C   0  0  0  0  0  0  0  0  0  0  0  0
   25.8268  -20.3152  -14.2504 C   0  0  0  0  0  0  0  0  0  0  0  0
   25.0566  -19.4562  -15.2449 C   0  0  2  0  0  0  0  0  0  0  0  0
   25.8537  -18.3262  -15.6545 N   0  0  0  0  0  0  0  0  0  0  0  0
   23.7431  -19.0509  -14.6993 C   0  0  0  0  0  0  0  0  0  0  0  0
   23.6471  -18.3452  -13.6615 O   0  0  0  0  0  0  0  0  0  0  0  0
   22.5341  -21.3145   -9.5490 C   0  0  0  0  0  0  0  0  0  0  0  0
   20.1580  -19.1408  -17.0638 C   0  0  2  0  0  0  0  0  0  0  0  0
   20.4609  -18.2840  -15.8522 O   0  0  0  0  0  0  0  0  0  0  0  0
   19.2130  -18.0342  -15.2373 C   0  0  1  0  0  0  0  0  0  0  0  0
   21.2679  -19.0736  -14.8488 N   0  0  0  0  0  0  0  0  0  0  0  0
   22.5555  -19.4493  -15.3351 C   0  0  0  0  0  0  0  0  0  0  0  0
   20.4981  -20.2819  -14.5102 O   0  0  0  0  0  0  0  0  0  0  0  0
   20.9374  -21.4077  -14.8163 O   0  0  0  0  0  0  0  0  0  0  0  0
  2 12  2  0
  2  1  1  0
  3  2  1  0
  4  5  1  0
  4  3  2  0
  5 11  2  0
  6  5  1  0
  7  6  1  0
  7  8  1  6
  9 21  1  0
  9  7  1  0
 10  9  2  0
 11 12  1  0
 13 14  1  0
 14 15  2  0
 16 14  1  0
 16 17  1  0
 18 17  1  0
 19 18  1  0
 20 19  1  1
 20 21  1  0
 22 20  1  0
 22 28  1  0
 23 22  2  0
 25 24  1  6
 25 27  1  0
 26 25  1  0
 27 28  1  6
 27 29  1  0
 29 30  2  0
 29 31  1  0
M  END
$$$$
