YRT.pdb
     RDKit          3D

 31 31  0  0  1  0  0  0  0  0999 V2000
   25.1688  -14.8450  -24.4387 O   0  0  0  0  0  0  0  0  0  0  0  0
   25.0837  -15.8289  -23.4579 C   0  0  0  0  0  0  0  0  0  0  0  0
   23.8899  -15.9775  -22.7708 C   0  0  0  0  0  0  0  0  0  0  0  0
   23.7322  -16.9266  -21.7902 C   0  0  0  0  0  0  0  0  0  0  0  0
   24.7866  -17.7607  -21.4728 C   0  0  0  0  0  0  0  0  0  0  0  0
   24.6795  -18.7956  -20.4331 C   0  0  0  0  0  0  0  0  0  0  0  0
   24.9818  -18.1934  -19.0607 C   0  0  2  0  0  0  0  0  0  0  0  0
   26.3526  -17.7976  -18.9689 N   0  0  0  0  0  0  0  0  0  0  0  0
   24.6191  -19.1688  -17.9835 C   0  0  0  0  0  0  0  0  0  0  0  0
   25.4828  -19.8963  -17.4341 O   0  0  0  0  0  0  0  0  0  0  0  0
   25.9744  -17.6014  -22.1674 C   0  0  0  0  0  0  0  0  0  0  0  0
   26.1324  -16.6522  -23.1482 C   0  0  0  0  0  0  0  0  0  0  0  0
   25.2810  -21.0412  -11.1783 N   0  0  0  0  0  0  0  0  0  0  0  0
   24.7561  -22.0450  -12.0220 C   0  0  0  0  0  0  0  0  0  0  0  0
   25.2105  -23.2481  -11.9036 N   0  0  0  0  0  0  0  0  0  0  0  0
   23.7542  -21.8076  -12.9963 N   0  0  0  0  0  0  0  0  0  0  0  0
   23.2568  -20.4542  -13.2334 C   0  0  0  0  0  0  0  0  0  0  0  0
   22.0712  -20.4645  -14.1600 C   0  0  0  0  0  0  0  0  0  0  0  0
   22.3311  -19.5077  -15.3027 C   0  0  0  0  0  0  0  0  0  0  0  0
   22.9565  -20.2410  -16.4823 C   0  0  2  0  0  0  0  0  0  0  0  0
   23.2780  -19.3118  -17.5373 N   0  0  0  0  0  0  0  0  0  0  0  0
   22.0897  -21.3449  -16.9484 C   0  0  0  0  0  0  0  0  0  0  0  0
   20.9737  -21.1269  -17.4881 O   0  0  0  0  0  0  0  0  0  0  0  0
   24.9417  -24.0293  -12.5300 C   0  0  0  0  0  0  0  0  0  0  0  0
   23.6642  -24.9375  -18.2569 C   0  0  2  0  0  0  0  0  0  0  0  0
   22.4771  -25.0752  -17.3265 O   0  0  0  0  0  0  0  0  0  0  0  0
   23.0211  -25.2634  -16.0357 C   0  0  2  0  0  0  0  0  0  0  0  0
   21.7112  -23.7746  -17.2691 N   0  0  0  0  0  0  0  0  0  0  0  0
   22.4969  -22.6809  -16.7978 C   0  0  0  0  0  0  0  0  0  0  0  0
   20.5599  -23.9751  -16.3738 O   0  0  0  0  0  0  0  0  0  0  0  0
   20.4316  -23.2687  -15.3547 O   0  0  0  0  0  0  0  0  0  0  0  0
  2 12  2  0
  2  1  1  0
  3  2  1  0
  4  5  1  0
  4  3  2  0
  5 11  2  0
  6  5  1  0
  7  6  1  0
  7  8  1  6
  9 21  1  0
  9  7  1  0
 10  9  2  0
 11 12  1  0
 13 14  1  0
 14 15  2  0
 16 14  1  0
 16 17  1  0
 18 17  1  0
 19 18  1  0
 20 19  1  1
 20 21  1  0
 22 20  1  0
 22 28  1  0
 23 22  2  0
 25 24  1  6
 25 27  1  0
 26 25  1  0
 27 28  1  6
 27 29  1  0
 29 30  2  0
 29 31  1  0
M  END
$$$$
