YRT.pdb
     RDKit          3D

 31 31  0  0  1  0  0  0  0  0999 V2000
   17.2547  -17.9839  -17.8875 O   0  0  0  0  0  0  0  0  0  0  0  0
   17.4492  -16.6646  -17.4889 C   0  0  0  0  0  0  0  0  0  0  0  0
   18.1262  -16.4237  -16.3044 C   0  0  0  0  0  0  0  0  0  0  0  0
   18.3553  -15.1485  -15.8478 C   0  0  0  0  0  0  0  0  0  0  0  0
   17.9025  -14.0697  -16.5823 C   0  0  0  0  0  0  0  0  0  0  0  0
   18.1167  -12.6814  -16.1462 C   0  0  0  0  0  0  0  0  0  0  0  0
   19.4627  -12.1716  -16.6617 C   0  0  2  0  0  0  0  0  0  0  0  0
   20.5443  -12.8631  -16.0322 N   0  0  0  0  0  0  0  0  0  0  0  0
   19.5625  -10.6918  -16.4534 C   0  0  0  0  0  0  0  0  0  0  0  0
   19.9487  -10.2036  -15.3627 O   0  0  0  0  0  0  0  0  0  0  0  0
   17.2272  -14.3247  -17.7646 C   0  0  0  0  0  0  0  0  0  0  0  0
   16.9979  -15.6000  -18.2215 C   0  0  0  0  0  0  0  0  0  0  0  0
   21.9483   -4.7222  -22.1015 N   0  0  0  0  0  0  0  0  0  0  0  0
   22.4692   -5.7689  -21.3089 C   0  0  0  0  0  0  0  0  0  0  0  0
   23.5705   -6.3324  -21.6799 N   0  0  0  0  0  0  0  0  0  0  0  0
   21.8503   -6.2394  -20.1235 N   0  0  0  0  0  0  0  0  0  0  0  0
   20.6311   -5.6081  -19.6232 C   0  0  0  0  0  0  0  0  0  0  0  0
   20.1864   -6.2328  -18.3285 C   0  0  0  0  0  0  0  0  0  0  0  0
   19.9337   -7.7072  -18.5544 C   0  0  0  0  0  0  0  0  0  0  0  0
   19.3964   -8.3580  -17.2864 C   0  0  2  0  0  0  0  0  0  0  0  0
   19.2229   -9.7759  -17.4850 N   0  0  0  0  0  0  0  0  0  0  0  0
   18.1551   -7.6971  -16.8286 C   0  0  0  0  0  0  0  0  0  0  0  0
   17.0552   -7.8777  -17.4134 O   0  0  0  0  0  0  0  0  0  0  0  0
   24.0177   -7.1151  -21.1677 C   0  0  0  0  0  0  0  0  0  0  0  0
   15.5766   -5.4687  -13.3613 C   0  0  2  0  0  0  0  0  0  0  0  0
   16.7472   -6.3296  -13.7881 O   0  0  0  0  0  0  0  0  0  0  0  0
   16.3181   -7.6668  -13.6291 C   0  0  1  0  0  0  0  0  0  0  0  0
   17.0099   -6.1504  -15.2647 N   0  0  0  0  0  0  0  0  0  0  0  0
   18.1745   -6.8406  -15.7154 C   0  0  0  0  0  0  0  0  0  0  0  0
   17.1640   -4.7084  -15.5177 O   0  0  0  0  0  0  0  0  0  0  0  0
   18.3025   -4.2107  -15.6187 O   0  0  0  0  0  0  0  0  0  0  0  0
  2 12  2  0
  2  1  1  0
  3  2  1  0
  4  5  1  0
  4  3  2  0
  5 11  2  0
  6  5  1  0
  7  6  1  0
  7  8  1  1
  9 21  1  0
  9  7  1  0
 10  9  2  0
 11 12  1  0
 13 14  1  0
 14 15  2  0
 16 14  1  0
 16 17  1  0
 18 17  1  0
 19 18  1  0
 20 19  1  6
 20 21  1  0
 22 20  1  0
 22 28  1  0
 23 22  2  0
 25 24  1  1
 25 27  1  0
 26 25  1  0
 27 28  1  1
 27 29  1  0
 29 30  2  0
 29 31  1  0
M  END
$$$$
