YRT.pdb
     RDKit          3D

 31 31  0  0  1  0  0  0  0  0999 V2000
   22.5369   -1.7281  -15.6739 O   0  0  0  0  0  0  0  0  0  0  0  0
   22.4074   -3.0883  -15.4087 C   0  0  0  0  0  0  0  0  0  0  0  0
   22.3442   -3.5025  -14.0882 C   0  0  0  0  0  0  0  0  0  0  0  0
   22.2164   -4.8279  -13.7505 C   0  0  0  0  0  0  0  0  0  0  0  0
   22.1482   -5.7820  -14.7472 C   0  0  0  0  0  0  0  0  0  0  0  0
   22.0114   -7.2158  -14.4492 C   0  0  0  0  0  0  0  0  0  0  0  0
   20.5534   -7.5485  -14.1314 C   0  0  2  0  0  0  0  0  0  0  0  0
   20.2937   -7.4141  -12.7319 N   0  0  0  0  0  0  0  0  0  0  0  0
   20.2252   -8.9256  -14.6204 C   0  0  0  0  0  0  0  0  0  0  0  0
   20.5161   -9.9493  -13.9537 O   0  0  0  0  0  0  0  0  0  0  0  0
   22.2126   -5.3542  -16.0631 C   0  0  0  0  0  0  0  0  0  0  0  0
   22.3404   -4.0286  -16.4011 C   0  0  0  0  0  0  0  0  0  0  0  0
   13.9022  -13.1459  -15.7372 N   0  0  0  0  0  0  0  0  0  0  0  0
   14.0651  -12.0775  -16.6466 C   0  0  0  0  0  0  0  0  0  0  0  0
   13.0212  -11.4020  -16.9959 N   0  0  0  0  0  0  0  0  0  0  0  0
   15.3143  -11.7013  -17.2011 N   0  0  0  0  0  0  0  0  0  0  0  0
   16.5194  -12.4723  -16.9038 C   0  0  0  0  0  0  0  0  0  0  0  0
   17.7177  -11.9060  -17.6163 C   0  0  0  0  0  0  0  0  0  0  0  0
   17.9859  -10.5108  -17.0962 C   0  0  0  0  0  0  0  0  0  0  0  0
   19.3048  -10.4683  -16.3353 C   0  0  2  0  0  0  0  0  0  0  0  0
   19.5687   -9.1313  -15.8635 N   0  0  0  0  0  0  0  0  0  0  0  0
   20.4134  -11.0064  -17.1529 C   0  0  0  0  0  0  0  0  0  0  0  0
   20.8984  -10.3594  -18.1175 O   0  0  0  0  0  0  0  0  0  0  0  0
   13.0415  -10.6243  -17.6812 C   0  0  0  0  0  0  0  0  0  0  0  0
   23.9212  -12.0422  -16.3564 C   0  0  2  0  0  0  0  0  0  0  0  0
   23.1981  -13.2684  -16.8734 O   0  0  0  0  0  0  0  0  0  0  0  0
   22.7041  -13.9337  -15.7284 C   0  0  2  0  0  0  0  0  0  0  0  0
   21.9833  -12.8550  -17.6702 N   0  0  0  0  0  0  0  0  0  0  0  0
   20.9587  -12.2693  -16.8684 C   0  0  0  0  0  0  0  0  0  0  0  0
   21.4585  -14.0575  -18.3379 O   0  0  0  0  0  0  0  0  0  0  0  0
   20.3144  -14.4722  -18.0674 O   0  0  0  0  0  0  0  0  0  0  0  0
  2 12  2  0
  2  1  1  0
  3  2  1  0
  4  5  1  0
  4  3  2  0
  5 11  2  0
  6  5  1  0
  7  6  1  0
  7  8  1  1
  9 21  1  0
  9  7  1  0
 10  9  2  0
 11 12  1  0
 13 14  1  0
 14 15  2  0
 16 14  1  0
 16 17  1  0
 18 17  1  0
 19 18  1  0
 20 19  1  6
 20 21  1  0
 22 20  1  0
 22 28  1  0
 23 22  2  0
 25 24  1  1
 25 27  1  0
 26 25  1  0
 27 28  1  6
 27 29  1  0
 29 30  2  0
 29 31  1  0
M  END
$$$$
