YRT.pdb
     RDKit          3D

 31 31  0  0  1  0  0  0  0  0999 V2000
   32.0744  -20.6726  -11.2777 O   0  0  0  0  0  0  0  0  0  0  0  0
   30.6956  -20.5305  -11.4047 C   0  0  0  0  0  0  0  0  0  0  0  0
   29.8812  -21.0662  -10.4203 C   0  0  0  0  0  0  0  0  0  0  0  0
   28.5125  -20.9648  -10.4785 C   0  0  0  0  0  0  0  0  0  0  0  0
   27.9218  -20.3127  -11.5436 C   0  0  0  0  0  0  0  0  0  0  0  0
   26.4626  -20.1716  -11.6622 C   0  0  0  0  0  0  0  0  0  0  0  0
   25.8099  -21.5495  -11.7755 C   0  0  2  0  0  0  0  0  0  0  0  0
   26.2520  -22.2271  -12.9543 N   0  0  0  0  0  0  0  0  0  0  0  0
   24.3187  -21.4124  -11.7483 C   0  0  0  0  0  0  0  0  0  0  0  0
   23.6396  -21.3813  -12.8042 O   0  0  0  0  0  0  0  0  0  0  0  0
   28.7477  -19.7818  -12.5207 C   0  0  0  0  0  0  0  0  0  0  0  0
   30.1167  -19.8831  -12.4627 C   0  0  0  0  0  0  0  0  0  0  0  0
   16.9940  -22.9014   -7.5488 N   0  0  0  0  0  0  0  0  0  0  0  0
   17.7978  -24.0547   -7.6859 C   0  0  0  0  0  0  0  0  0  0  0  0
   17.2151  -25.2033   -7.7813 N   0  0  0  0  0  0  0  0  0  0  0  0
   19.2145  -24.0247   -7.7251 N   0  0  0  0  0  0  0  0  0  0  0  0
   19.9308  -22.7523   -7.6685 C   0  0  0  0  0  0  0  0  0  0  0  0
   20.2803  -22.2623   -9.0476 C   0  0  0  0  0  0  0  0  0  0  0  0
   21.7283  -21.8245   -9.0624 C   0  0  0  0  0  0  0  0  0  0  0  0
   22.1832  -21.5296  -10.4859 C   0  0  2  0  0  0  0  0  0  0  0  0
   23.6083  -21.3115  -10.5221 N   0  0  0  0  0  0  0  0  0  0  0  0
   21.4254  -20.4009  -11.0682 C   0  0  0  0  0  0  0  0  0  0  0  0
   21.3904  -19.2716  -10.5136 O   0  0  0  0  0  0  0  0  0  0  0  0
   17.7234  -26.0979   -7.9092 C   0  0  0  0  0  0  0  0  0  0  0  0
   21.8534  -18.6493  -14.3026 C   0  0  2  0  0  0  0  0  0  0  0  0
   20.4502  -19.2189  -14.3026 O   0  0  0  0  0  0  0  0  0  0  0  0
   20.5484  -20.4809  -14.9313 C   0  0  2  0  0  0  0  0  0  0  0  0
   20.0034  -19.4940  -12.8862 N   0  0  0  0  0  0  0  0  0  0  0  0
   20.7174  -20.5648  -12.2704 C   0  0  0  0  0  0  0  0  0  0  0  0
   18.5682  -19.8190  -12.9272 O   0  0  0  0  0  0  0  0  0  0  0  0
   17.7380  -18.9405  -13.2324 O   0  0  0  0  0  0  0  0  0  0  0  0
  2 12  2  0
  2  1  1  0
  3  2  1  0
  4  5  1  0
  4  3  2  0
  5 11  2  0
  6  5  1  0
  7  6  1  0
  7  8  1  6
  9 21  1  0
  9  7  1  0
 10  9  2  0
 11 12  1  0
 13 14  1  0
 14 15  2  0
 16 14  1  0
 16 17  1  0
 18 17  1  0
 19 18  1  0
 20 19  1  1
 20 21  1  0
 22 20  1  0
 22 28  1  0
 23 22  2  0
 25 24  1  6
 25 27  1  0
 26 25  1  0
 27 28  1  1
 27 29  1  0
 29 30  2  0
 29 31  1  0
M  END
$$$$
