YRT.pdb
     RDKit          3D

 31 31  0  0  1  0  0  0  0  0999 V2000
   28.3704  -12.0099  -15.3376 O   0  0  0  0  0  0  0  0  0  0  0  0
   27.2675  -11.1622  -15.3850 C   0  0  0  0  0  0  0  0  0  0  0  0
   26.0452  -11.6403  -14.9413 C   0  0  0  0  0  0  0  0  0  0  0  0
   24.9138  -10.8615  -14.9582 C   0  0  0  0  0  0  0  0  0  0  0  0
   24.9857   -9.5645  -15.4285 C   0  0  0  0  0  0  0  0  0  0  0  0
   23.8099   -8.6819  -15.4717 C   0  0  0  0  0  0  0  0  0  0  0  0
   22.9475   -9.0165  -16.6890 C   0  0  2  0  0  0  0  0  0  0  0  0
   23.6815   -8.8260  -17.9010 N   0  0  0  0  0  0  0  0  0  0  0  0
   21.6961   -8.1937  -16.6704 C   0  0  0  0  0  0  0  0  0  0  0  0
   21.5863   -7.1444  -17.3515 O   0  0  0  0  0  0  0  0  0  0  0  0
   26.2138   -9.0992  -15.8691 C   0  0  0  0  0  0  0  0  0  0  0  0
   27.3456   -9.8780  -15.8523 C   0  0  0  0  0  0  0  0  0  0  0  0
   14.3315  -11.7134  -16.7240 N   0  0  0  0  0  0  0  0  0  0  0  0
   15.4956  -12.4880  -16.9242 C   0  0  0  0  0  0  0  0  0  0  0  0
   15.3850  -13.6170  -17.5415 N   0  0  0  0  0  0  0  0  0  0  0  0
   16.7851  -12.0962  -16.4847 N   0  0  0  0  0  0  0  0  0  0  0  0
   16.9645  -10.8654  -15.7177 C   0  0  0  0  0  0  0  0  0  0  0  0
   18.0938  -10.0390  -16.2708 C   0  0  0  0  0  0  0  0  0  0  0  0
   18.1791   -8.7415  -15.4975 C   0  0  0  0  0  0  0  0  0  0  0  0
   19.3189   -7.8792  -16.0241 C   0  0  2  0  0  0  0  0  0  0  0  0
   20.5776   -8.5679  -15.8784 N   0  0  0  0  0  0  0  0  0  0  0  0
   19.3269   -6.5482  -15.3794 C   0  0  0  0  0  0  0  0  0  0  0  0
   19.8150   -6.3716  -14.2327 O   0  0  0  0  0  0  0  0  0  0  0  0
   16.1859  -14.2437  -17.7433 C   0  0  0  0  0  0  0  0  0  0  0  0
   20.4973   -2.9856  -16.6783 C   0  0  2  0  0  0  0  0  0  0  0  0
   19.0134   -3.0167  -16.3771 O   0  0  0  0  0  0  0  0  0  0  0  0
   18.3811   -3.3477  -17.5970 C   0  0  2  0  0  0  0  0  0  0  0  0
   18.7019   -4.1489  -15.4270 N   0  0  0  0  0  0  0  0  0  0  0  0
   18.7827   -5.4346  -16.0404 C   0  0  0  0  0  0  0  0  0  0  0  0
   17.3400   -3.9349  -14.9106 O   0  0  0  0  0  0  0  0  0  0  0  0
   16.4488   -4.7776  -15.1332 O   0  0  0  0  0  0  0  0  0  0  0  0
  2 12  2  0
  2  1  1  0
  3  2  1  0
  4  5  1  0
  4  3  2  0
  5 11  2  0
  6  5  1  0
  7  6  1  0
  7  8  1  6
  9 21  1  0
  9  7  1  0
 10  9  2  0
 11 12  1  0
 13 14  1  0
 14 15  2  0
 16 14  1  0
 16 17  1  0
 18 17  1  0
 19 18  1  0
 20 19  1  1
 20 21  1  0
 22 20  1  0
 22 28  1  0
 23 22  2  0
 25 24  1  6
 25 27  1  0
 26 25  1  0
 27 28  1  1
 27 29  1  0
 29 30  2  0
 29 31  1  0
M  END
$$$$
