YRT.pdb
     RDKit          3D

 31 31  0  0  1  0  0  0  0  0999 V2000
   17.3125  -25.5122   -6.7343 O   0  0  0  0  0  0  0  0  0  0  0  0
   17.8421  -24.9432   -7.8889 C   0  0  0  0  0  0  0  0  0  0  0  0
   19.0129  -24.2093   -7.7885 C   0  0  0  0  0  0  0  0  0  0  0  0
   19.5936  -23.6190   -8.8845 C   0  0  0  0  0  0  0  0  0  0  0  0
   19.0021  -23.7547  -10.1256 C   0  0  0  0  0  0  0  0  0  0  0  0
   19.5755  -23.1465  -11.3358 C   0  0  0  0  0  0  0  0  0  0  0  0
   19.8946  -21.6731  -11.0816 C   0  0  2  0  0  0  0  0  0  0  0  0
   18.6945  -20.9053  -10.9625 N   0  0  0  0  0  0  0  0  0  0  0  0
   20.7772  -21.1461  -12.1708 C   0  0  0  0  0  0  0  0  0  0  0  0
   20.3498  -20.3416  -13.0351 O   0  0  0  0  0  0  0  0  0  0  0  0
   17.8320  -24.4910  -10.2118 C   0  0  0  0  0  0  0  0  0  0  0  0
   17.2510  -25.0815   -9.1156 C   0  0  0  0  0  0  0  0  0  0  0  0
   27.5712  -18.8421  -15.5722 N   0  0  0  0  0  0  0  0  0  0  0  0
   27.8589  -20.2090  -15.7815 C   0  0  0  0  0  0  0  0  0  0  0  0
   28.4906  -20.5475  -16.8559 N   0  0  0  0  0  0  0  0  0  0  0  0
   27.4929  -21.2365  -14.8760 N   0  0  0  0  0  0  0  0  0  0  0  0
   26.7964  -20.9149  -13.6323 C   0  0  0  0  0  0  0  0  0  0  0  0
   25.3752  -20.4972  -13.8965 C   0  0  0  0  0  0  0  0  0  0  0  0
   24.4621  -21.2187  -12.9298 C   0  0  0  0  0  0  0  0  0  0  0  0
   23.0028  -20.9216  -13.2498 C   0  0  2  0  0  0  0  0  0  0  0  0
   22.1396  -21.5362  -12.2715 N   0  0  0  0  0  0  0  0  0  0  0  0
   22.6639  -21.3239  -14.6320 C   0  0  0  0  0  0  0  0  0  0  0  0
   22.5482  -22.5337  -14.9594 O   0  0  0  0  0  0  0  0  0  0  0  0
   28.7205  -21.5276  -17.1040 C   0  0  0  0  0  0  0  0  0  0  0  0
   19.7152  -20.1706  -16.9636 C   0  0  2  0  0  0  0  0  0  0  0  0
   21.0594  -19.8198  -17.5665 O   0  0  0  0  0  0  0  0  0  0  0  0
   21.3433  -18.5050  -17.1324 C   0  0  2  0  0  0  0  0  0  0  0  0
   22.1374  -20.6953  -16.9724 N   0  0  0  0  0  0  0  0  0  0  0  0
   22.4605  -20.3520  -15.6257 C   0  0  0  0  0  0  0  0  0  0  0  0
   23.3363  -20.5597  -17.8158 O   0  0  0  0  0  0  0  0  0  0  0  0
   24.3802  -20.0699  -17.3422 O   0  0  0  0  0  0  0  0  0  0  0  0
  2 12  2  0
  2  1  1  0
  3  2  1  0
  4  5  1  0
  4  3  2  0
  5 11  2  0
  6  5  1  0
  7  6  1  0
  7  8  1  6
  9 21  1  0
  9  7  1  0
 10  9  2  0
 11 12  1  0
 13 14  1  0
 14 15  2  0
 16 14  1  0
 16 17  1  0
 18 17  1  0
 19 18  1  0
 20 19  1  1
 20 21  1  0
 22 20  1  0
 22 28  1  0
 23 22  2  0
 25 24  1  6
 25 27  1  0
 26 25  1  0
 27 28  1  6
 27 29  1  0
 29 30  2  0
 29 31  1  0
M  END
$$$$
