GLT.pdb
     RDKit          3D

 20 19  0  0  1  0  0  0  0  0999 V2000
   25.4411  -24.8878  -15.2035 N   0  0  0  0  0  0  0  0  0  0  0  0
   25.9741  -23.6438  -14.7176 C   0  0  0  0  0  0  0  0  0  0  0  0
   24.9556  -22.9160  -13.9130 C   0  0  0  0  0  0  0  0  0  0  0  0
   23.7941  -23.3917  -13.9031 O   0  0  0  0  0  0  0  0  0  0  0  0
   26.3546  -19.9401   -9.2931 C   0  0  0  0  0  0  0  0  0  0  0  0
   25.6143  -20.8379  -10.2278 C   0  0  1  0  0  0  0  0  0  0  0  0
   24.5316  -21.5283   -9.3782 C   0  0  0  0  0  0  0  0  0  0  0  0
   24.9079  -20.1747  -11.3395 C   0  0  0  0  0  0  0  0  0  0  0  0
   24.2526  -21.0536  -12.3540 C   0  0  2  0  0  0  0  0  0  0  0  0
   25.2226  -21.7533  -13.1830 N   0  0  0  0  0  0  0  0  0  0  0  0
   23.3560  -20.2670  -13.2629 C   0  0  0  0  0  0  0  0  0  0  0  0
   23.7950  -19.2750  -13.9012 O   0  0  0  0  0  0  0  0  0  0  0  0
   22.0823  -20.6293  -16.5297 C   0  0  0  0  0  0  0  0  0  0  0  0
   20.8814  -20.4979  -15.6423 C   0  0  1  0  0  0  0  0  0  0  0  0
   20.2636  -21.7233  -15.3980 O   0  0  0  0  0  0  0  0  0  0  0  0
   21.1810  -19.7926  -14.3432 C   0  0  2  0  0  0  0  0  0  0  0  0
   21.9889  -20.5904  -13.4507 N   0  0  0  0  0  0  0  0  0  0  0  0
   19.8858  -19.5276  -13.6823 C   0  0  0  0  0  0  0  0  0  0  0  0
   18.9587  -18.7266  -14.3214 O   0  0  0  0  0  0  0  0  0  0  0  0
   19.5786  -19.9965  -12.5585 O   0  0  0  0  0  0  0  0  0  0  0  0
  2  1  1  0
  3  2  1  0
  3 10  1  0
  4  3  2  0
  6  5  1  1
  6  7  1  0
  8  6  1  0
  9 10  1  0
  9  8  1  1
 11  9  1  0
 12 11  2  0
 14 13  1  1
 14 16  1  0
 15 14  1  0
 16 17  1  1
 16 18  1  0
 17 11  1  0
 18 19  1  0
 20 18  2  0
M  END
$$$$
