GLT.pdb
     RDKit          3D

 20 19  0  0  1  0  0  0  0  0999 V2000
   15.1079  -11.3179  -11.2625 N   0  0  0  0  0  0  0  0  0  0  0  0
   15.6371  -10.6380  -10.1113 C   0  0  0  0  0  0  0  0  0  0  0  0
   15.3335   -9.1827  -10.1767 C   0  0  0  0  0  0  0  0  0  0  0  0
   14.7462   -8.7711  -11.2068 O   0  0  0  0  0  0  0  0  0  0  0  0
   13.4830   -6.0858   -5.8415 C   0  0  0  0  0  0  0  0  0  0  0  0
   13.7078   -6.5950   -7.2264 C   0  0  1  0  0  0  0  0  0  0  0  0
   12.6997   -5.8469   -8.1180 C   0  0  0  0  0  0  0  0  0  0  0  0
   15.0406   -6.3378   -7.8026 C   0  0  0  0  0  0  0  0  0  0  0  0
   15.3033   -6.8604   -9.1770 C   0  0  2  0  0  0  0  0  0  0  0  0
   15.6631   -8.2704   -9.1691 N   0  0  0  0  0  0  0  0  0  0  0  0
   16.4147   -6.1078   -9.8460 C   0  0  0  0  0  0  0  0  0  0  0  0
   17.5574   -6.0450   -9.3222 O   0  0  0  0  0  0  0  0  0  0  0  0
   18.5465   -6.7022  -12.8610 C   0  0  0  0  0  0  0  0  0  0  0  0
   17.7457   -5.4461  -13.0279 C   0  0  1  0  0  0  0  0  0  0  0  0
   16.6085   -5.6400  -13.8103 O   0  0  0  0  0  0  0  0  0  0  0  0
   17.3763   -4.8020  -11.7150 C   0  0  2  0  0  0  0  0  0  0  0  0
   16.2438   -5.4375  -11.0830 N   0  0  0  0  0  0  0  0  0  0  0  0
   17.0169   -3.3979  -12.0042 C   0  0  0  0  0  0  0  0  0  0  0  0
   18.0045   -2.5253  -12.4197 O   0  0  0  0  0  0  0  0  0  0  0  0
   15.8492   -2.9498  -11.8915 O   0  0  0  0  0  0  0  0  0  0  0  0
  2  1  1  0
  3  2  1  0
  3 10  1  0
  4  3  2  0
  6  5  1  1
  6  7  1  0
  8  6  1  0
  9 10  1  0
  9  8  1  1
 11  9  1  0
 12 11  2  0
 14 13  1  1
 14 16  1  0
 15 14  1  0
 16 17  1  6
 16 18  1  0
 17 11  1  0
 18 19  1  0
 20 18  2  0
M  END
$$$$
