GLT.pdb
     RDKit          3D

 20 19  0  0  1  0  0  0  0  0999 V2000
   28.3211  -22.5703  -15.6954 N   0  0  0  0  0  0  0  0  0  0  0  0
   27.7816  -21.3418  -15.1784 C   0  0  0  0  0  0  0  0  0  0  0  0
   26.6150  -21.6125  -14.2950 C   0  0  0  0  0  0  0  0  0  0  0  0
   25.9174  -22.6194  -14.5685 O   0  0  0  0  0  0  0  0  0  0  0  0
   27.2679  -21.5242  -10.1579 C   0  0  0  0  0  0  0  0  0  0  0  0
   25.8273  -21.1825   -9.9691 C   0  0  1  0  0  0  0  0  0  0  0  0
   25.7619  -20.3298   -8.6887 C   0  0  0  0  0  0  0  0  0  0  0  0
   25.2078  -20.3750  -11.0363 C   0  0  0  0  0  0  0  0  0  0  0  0
   25.0752  -21.0082  -12.3826 C   0  0  2  0  0  0  0  0  0  0  0  0
   26.2649  -20.8176  -13.1988 N   0  0  0  0  0  0  0  0  0  0  0  0
   23.9069  -20.4489  -13.1383 C   0  0  0  0  0  0  0  0  0  0  0  0
   23.9162  -19.2604  -13.5525 O   0  0  0  0  0  0  0  0  0  0  0  0
   22.4602  -21.0556  -16.4875 C   0  0  0  0  0  0  0  0  0  0  0  0
   21.3883  -21.2997  -15.4684 C   0  0  1  0  0  0  0  0  0  0  0  0
   21.1459  -22.6574  -15.2660 O   0  0  0  0  0  0  0  0  0  0  0  0
   21.6560  -20.6121  -14.1529 C   0  0  2  0  0  0  0  0  0  0  0  0
   22.7478  -21.2132  -13.4233 N   0  0  0  0  0  0  0  0  0  0  0  0
   20.4297  -20.7387  -13.3376 C   0  0  0  0  0  0  0  0  0  0  0  0
   19.2735  -20.1140  -13.7647 O   0  0  0  0  0  0  0  0  0  0  0  0
   20.3811  -21.3906  -12.2653 O   0  0  0  0  0  0  0  0  0  0  0  0
  2  1  1  0
  3  2  1  0
  3 10  1  0
  4  3  2  0
  6  5  1  6
  6  7  1  0
  8  6  1  0
  9 10  1  0
  9  8  1  1
 11  9  1  0
 12 11  2  0
 14 13  1  6
 14 16  1  0
 15 14  1  0
 16 17  1  1
 16 18  1  0
 17 11  1  0
 18 19  1  0
 20 18  2  0
M  END
$$$$
