GLT.pdb
     RDKit          3D

 20 19  0  0  1  0  0  0  0  0999 V2000
   23.3667  -25.5756  -15.2983 N   0  0  0  0  0  0  0  0  0  0  0  0
   24.2687  -25.0862  -14.2911 C   0  0  0  0  0  0  0  0  0  0  0  0
   23.7724  -23.8041  -13.7216 C   0  0  0  0  0  0  0  0  0  0  0  0
   22.5928  -23.7924  -13.2928 O   0  0  0  0  0  0  0  0  0  0  0  0
   26.9208  -20.7716  -10.2951 C   0  0  0  0  0  0  0  0  0  0  0  0
   25.7464  -21.4119  -10.9574 C   0  0  1  0  0  0  0  0  0  0  0  0
   24.5755  -21.2674   -9.9680 C   0  0  0  0  0  0  0  0  0  0  0  0
   25.2996  -20.7957  -12.2205 C   0  0  0  0  0  0  0  0  0  0  0  0
   24.1461  -21.4346  -12.9220 C   0  0  2  0  0  0  0  0  0  0  0  0
   24.5386  -22.6368  -13.6421 N   0  0  0  0  0  0  0  0  0  0  0  0
   23.5158  -20.4958  -13.9071 C   0  0  0  0  0  0  0  0  0  0  0  0
   24.2254  -19.7569  -14.6382 O   0  0  0  0  0  0  0  0  0  0  0  0
   21.9799  -20.7894  -17.1443 C   0  0  0  0  0  0  0  0  0  0  0  0
   20.9581  -20.1876  -16.2274 C   0  0  1  0  0  0  0  0  0  0  0  0
   20.0144  -21.1191  -15.7978 O   0  0  0  0  0  0  0  0  0  0  0  0
   21.5699  -19.4768  -15.0461 C   0  0  2  0  0  0  0  0  0  0  0  0
   22.1116  -20.3899  -14.0671 N   0  0  0  0  0  0  0  0  0  0  0  0
   20.4934  -18.6943  -14.4030 C   0  0  0  0  0  0  0  0  0  0  0  0
   19.8179  -17.7460  -15.1472 O   0  0  0  0  0  0  0  0  0  0  0  0
   20.1556  -18.8465  -13.2031 O   0  0  0  0  0  0  0  0  0  0  0  0
  2  1  1  0
  3  2  1  0
  3 10  1  0
  4  3  2  0
  6  5  1  1
  6  7  1  0
  8  6  1  0
  9 10  1  0
  9  8  1  6
 11  9  1  0
 12 11  2  0
 14 13  1  1
 14 16  1  0
 15 14  1  0
 16 17  1  1
 16 18  1  0
 17 11  1  0
 18 19  1  0
 20 18  2  0
M  END
$$$$
