GLT.pdb
     RDKit          3D

 20 19  0  0  1  0  0  0  0  0999 V2000
   19.5288  -10.5495  -19.2497 N   0  0  0  0  0  0  0  0  0  0  0  0
   19.7883   -9.1355  -19.2219 C   0  0  0  0  0  0  0  0  0  0  0  0
   20.1124   -8.6893  -17.8398 C   0  0  0  0  0  0  0  0  0  0  0  0
   19.1442   -8.4057  -17.0931 O   0  0  0  0  0  0  0  0  0  0  0  0
   23.8863  -11.2633  -14.8477 C   0  0  0  0  0  0  0  0  0  0  0  0
   22.6972  -10.4795  -15.2943 C   0  0  1  0  0  0  0  0  0  0  0  0
   21.6411  -10.6505  -14.1870 C   0  0  0  0  0  0  0  0  0  0  0  0
   22.9005   -9.0274  -15.4518 C   0  0  0  0  0  0  0  0  0  0  0  0
   21.7494   -8.2282  -15.9687 C   0  0  2  0  0  0  0  0  0  0  0  0
   21.4143   -8.5727  -17.3423 N   0  0  0  0  0  0  0  0  0  0  0  0
   22.0390   -6.7575  -15.9229 C   0  0  0  0  0  0  0  0  0  0  0  0
   22.8429   -6.2331  -16.7371 O   0  0  0  0  0  0  0  0  0  0  0  0
   19.9437   -3.8172  -16.7553 C   0  0  0  0  0  0  0  0  0  0  0  0
   20.4131   -3.6859  -15.3378 C   0  0  1  0  0  0  0  0  0  0  0  0
   19.4207   -4.0152  -14.4160 O   0  0  0  0  0  0  0  0  0  0  0  0
   21.6713   -4.4689  -15.0570 C   0  0  2  0  0  0  0  0  0  0  0  0
   21.4349   -5.8915  -14.9775 N   0  0  0  0  0  0  0  0  0  0  0  0
   22.1863   -4.0119  -13.7492 C   0  0  0  0  0  0  0  0  0  0  0  0
   22.6126   -2.7041  -13.6167 O   0  0  0  0  0  0  0  0  0  0  0  0
   22.2584   -4.7562  -12.7403 O   0  0  0  0  0  0  0  0  0  0  0  0
  2  1  1  0
  3  2  1  0
  3 10  1  0
  4  3  2  0
  6  5  1  1
  6  7  1  0
  8  6  1  0
  9 10  1  0
  9  8  1  6
 11  9  1  0
 12 11  2  0
 14 13  1  6
 14 16  1  0
 15 14  1  0
 16 17  1  1
 16 18  1  0
 17 11  1  0
 18 19  1  0
 20 18  2  0
M  END
$$$$
