GLT.pdb
     RDKit          3D

 20 19  0  0  1  0  0  0  0  0999 V2000
   19.3336  -14.7507  -16.6979 N   0  0  0  0  0  0  0  0  0  0  0  0
   18.3848  -14.0569  -15.8696 C   0  0  0  0  0  0  0  0  0  0  0  0
   18.4346  -12.5925  -16.1295 C   0  0  0  0  0  0  0  0  0  0  0  0
   19.1712  -12.2077  -17.0701 O   0  0  0  0  0  0  0  0  0  0  0  0
   13.7260   -9.8968  -16.1182 C   0  0  0  0  0  0  0  0  0  0  0  0
   15.1283  -10.2913  -16.4431 C   0  0  1  0  0  0  0  0  0  0  0  0
   15.4114   -9.7207  -17.8449 C   0  0  0  0  0  0  0  0  0  0  0  0
   16.1754   -9.7504  -15.5567 C   0  0  0  0  0  0  0  0  0  0  0  0
   17.5694  -10.2449  -15.7646 C   0  0  2  0  0  0  0  0  0  0  0  0
   17.7168  -11.6443  -15.3935 N   0  0  0  0  0  0  0  0  0  0  0  0
   18.5573   -9.4517  -14.9622 C   0  0  0  0  0  0  0  0  0  0  0  0
   18.5471   -9.4926  -13.7043 O   0  0  0  0  0  0  0  0  0  0  0  0
   22.4218   -9.5614  -14.8351 C   0  0  0  0  0  0  0  0  0  0  0  0
   21.9272   -8.1890  -15.1796 C   0  0  1  0  0  0  0  0  0  0  0  0
   22.0696   -7.8967  -16.5351 O   0  0  0  0  0  0  0  0  0  0  0  0
   20.5065   -7.9443  -14.7361 C   0  0  2  0  0  0  0  0  0  0  0  0
   19.5400   -8.6267  -15.5643 N   0  0  0  0  0  0  0  0  0  0  0  0
   20.2613   -6.4905  -14.8413 C   0  0  0  0  0  0  0  0  0  0  0  0
   20.9345   -5.6341  -13.9911 O   0  0  0  0  0  0  0  0  0  0  0  0
   19.4651   -5.9857  -15.6710 O   0  0  0  0  0  0  0  0  0  0  0  0
  2  1  1  0
  3  2  1  0
  3 10  1  0
  4  3  2  0
  6  5  1  1
  6  7  1  0
  8  6  1  0
  9 10  1  0
  9  8  1  1
 11  9  1  0
 12 11  2  0
 14 13  1  6
 14 16  1  0
 15 14  1  0
 16 17  1  6
 16 18  1  0
 17 11  1  0
 18 19  1  0
 20 18  2  0
M  END
$$$$
