VPY.pdb
     RDKit          3D

 27 28  0  0  1  0  0  0  0  0999 V2000
    6.9936  -18.5643   17.4007 C   0  0  0  0  0  0  0  0  0  0  0  0
    7.4050  -17.7388   18.5764 C   0  0  1  0  0  0  0  0  0  0  0  0
    7.7804  -18.6022   19.7364 C   0  0  0  0  0  0  0  0  0  0  0  0
    8.5651  -16.8100   18.1595 C   0  0  2  0  0  0  0  0  0  0  0  0
    9.4662  -17.6065   17.4222 N   0  0  0  0  0  0  0  0  0  0  0  0
    9.0532  -16.0540   19.3042 C   0  0  0  0  0  0  0  0  0  0  0  0
    9.8394  -16.7399   20.0700 O   0  0  0  0  0  0  0  0  0  0  0  0
    8.8230  -14.7452   19.7054 N   0  0  0  0  0  0  0  0  0  0  0  0
    8.9697  -13.5843   18.7765 C   0  0  0  0  0  0  0  0  0  0  0  0
    7.6558  -12.8596   19.0566 C   0  0  0  0  0  0  0  0  0  0  0  0
    7.1054  -13.4573   20.3650 C   0  0  0  0  0  0  0  0  0  0  0  0
    8.4286  -14.0580   20.8865 C   0  0  1  0  0  0  0  0  0  0  0  0
    8.3686  -14.5984   22.1870 C   0  0  0  0  0  0  0  0  0  0  0  0
    7.2027  -14.5346   22.7734 O   0  0  0  0  0  0  0  0  0  0  0  0
    7.5798  -20.2427   28.7092 O   0  0  0  0  0  0  0  0  0  0  0  0
    7.6796  -19.4170   27.5910 C   0  0  0  0  0  0  0  0  0  0  0  0
    7.7590  -18.0463   27.7106 C   0  0  0  0  0  0  0  0  0  0  0  0
    7.8569  -17.2564   26.5870 C   0  0  0  0  0  0  0  0  0  0  0  0
    7.8780  -17.8122   25.3311 C   0  0  0  0  0  0  0  0  0  0  0  0
    7.9966  -16.9637   24.1274 C   0  0  0  0  0  0  0  0  0  0  0  0
    9.0699  -15.9614   24.1633 C   0  0  2  0  0  0  0  0  0  0  0  0
    9.3489  -15.1918   22.9816 N   0  0  0  0  0  0  0  0  0  0  0  0
   10.3299  -16.6620   24.5752 C   0  0  0  0  0  0  0  0  0  0  0  0
   10.4382  -17.2962   25.6465 O   0  0  0  0  0  0  0  0  0  0  0  0
    7.7979  -19.1895   25.2118 C   0  0  0  0  0  0  0  0  0  0  0  0
    7.6993  -19.9939   26.3263 C   0  0  0  0  0  0  0  0  0  0  0  0
   11.3985  -16.5802   23.7043 O   0  0  0  0  0  0  0  0  0  0  0  0
  2  3  1  1
  2  1  1  0
  4  5  1  1
  4  2  1  0
  6  4  1  0
  7  6  2  0
  8  9  1  0
  8  6  1  0
 10  9  1  0
 11 10  1  0
 11 12  1  0
 12  8  1  0
 12 13  1  1
 13 14  2  0
 16 15  1  0
 17 16  2  0
 18 17  1  0
 19 25  1  0
 19 18  2  0
 21 20  1  6
 20 19  1  0
 21 22  1  0
 22 13  1  0
 23 21  1  0
 24 23  2  0
 25 26  2  0
 26 16  1  0
 27 23  1  0
M  END
$$$$
