VPY.pdb
     RDKit          3D

 27 28  0  0  1  0  0  0  0  0999 V2000
    8.7480  -13.2393   20.0157 C   0  0  0  0  0  0  0  0  0  0  0  0
    7.7399  -14.0632   19.2825 C   0  0  1  0  0  0  0  0  0  0  0  0
    7.3688  -13.4292   17.9815 C   0  0  0  0  0  0  0  0  0  0  0  0
    8.3016  -15.4868   19.0818 C   0  0  2  0  0  0  0  0  0  0  0  0
    7.4151  -16.1433   18.2026 N   0  0  0  0  0  0  0  0  0  0  0  0
    8.6176  -16.0988   20.3648 C   0  0  0  0  0  0  0  0  0  0  0  0
    7.7134  -15.8878   21.2662 O   0  0  0  0  0  0  0  0  0  0  0  0
    9.7045  -16.8574   20.7768 N   0  0  0  0  0  0  0  0  0  0  0  0
   10.2293  -18.0061   19.9786 C   0  0  0  0  0  0  0  0  0  0  0  0
   11.7177  -17.6678   19.9836 C   0  0  0  0  0  0  0  0  0  0  0  0
   11.9153  -16.6128   21.0881 C   0  0  0  0  0  0  0  0  0  0  0  0
   10.6135  -16.8911   21.8702 C   0  0  1  0  0  0  0  0  0  0  0  0
   10.4844  -16.1894   23.0859 C   0  0  0  0  0  0  0  0  0  0  0  0
   11.0830  -15.0291   23.1361 O   0  0  0  0  0  0  0  0  0  0  0  0
    5.8357  -11.0786   28.2704 O   0  0  0  0  0  0  0  0  0  0  0  0
    6.4286  -11.9556   27.3641 C   0  0  0  0  0  0  0  0  0  0  0  0
    7.7958  -12.0072   27.1983 C   0  0  0  0  0  0  0  0  0  0  0  0
    8.3525  -12.8845   26.2948 C   0  0  0  0  0  0  0  0  0  0  0  0
    7.5641  -13.7222   25.5443 C   0  0  0  0  0  0  0  0  0  0  0  0
    8.1642  -14.6722   24.5851 C   0  0  0  0  0  0  0  0  0  0  0  0
    9.1976  -15.5592   25.1359 C   0  0  2  0  0  0  0  0  0  0  0  0
    9.8294  -16.5189   24.2720 N   0  0  0  0  0  0  0  0  0  0  0  0
    8.5919  -16.2963   26.2925 C   0  0  0  0  0  0  0  0  0  0  0  0
    8.6286  -15.8704   27.4668 O   0  0  0  0  0  0  0  0  0  0  0  0
    6.1904  -13.6696   25.7113 C   0  0  0  0  0  0  0  0  0  0  0  0
    5.6177  -12.7971   26.6110 C   0  0  0  0  0  0  0  0  0  0  0  0
    7.9736  -17.4978   26.0074 O   0  0  0  0  0  0  0  0  0  0  0  0
  2  3  1  6
  2  1  1  0
  4  5  1  1
  4  2  1  0
  6  4  1  0
  7  6  2  0
  8  9  1  0
  8  6  1  0
 10  9  1  0
 11 10  1  0
 11 12  1  0
 12  8  1  0
 12 13  1  1
 13 14  2  0
 16 15  1  0
 17 16  2  0
 18 17  1  0
 19 25  1  0
 19 18  2  0
 21 20  1  6
 20 19  1  0
 21 22  1  0
 22 13  1  0
 23 21  1  0
 24 23  2  0
 25 26  2  0
 26 16  1  0
 27 23  1  0
M  END
$$$$
