VPY.pdb
     RDKit          3D

 27 28  0  0  1  0  0  0  0  0999 V2000
    8.3835  -18.9585   17.9221 C   0  0  0  0  0  0  0  0  0  0  0  0
    8.5441  -18.0370   19.0874 C   0  0  1  0  0  0  0  0  0  0  0  0
    9.1225  -18.7523   20.2646 C   0  0  0  0  0  0  0  0  0  0  0  0
    9.4183  -16.8371   18.6649 C   0  0  2  0  0  0  0  0  0  0  0  0
   10.5789  -17.3796   18.0747 N   0  0  0  0  0  0  0  0  0  0  0  0
    9.5522  -15.8890   19.7620 C   0  0  0  0  0  0  0  0  0  0  0  0
   10.6033  -16.0956   20.4883 O   0  0  0  0  0  0  0  0  0  0  0  0
    8.7582  -14.8197   20.1530 N   0  0  0  0  0  0  0  0  0  0  0  0
    8.3046  -13.7658   19.1961 C   0  0  0  0  0  0  0  0  0  0  0  0
    6.8190  -13.7212   19.5436 C   0  0  0  0  0  0  0  0  0  0  0  0
    6.6711  -14.4468   20.8939 C   0  0  0  0  0  0  0  0  0  0  0  0
    8.1444  -14.3417   21.3436 C   0  0  1  0  0  0  0  0  0  0  0  0
    8.4030  -14.7898   22.6549 C   0  0  0  0  0  0  0  0  0  0  0  0
    8.2517  -16.0720   22.8551 O   0  0  0  0  0  0  0  0  0  0  0  0
   10.8269  -16.6906   30.9233 O   0  0  0  0  0  0  0  0  0  0  0  0
   10.4936  -16.0180   29.7491 C   0  0  0  0  0  0  0  0  0  0  0  0
   10.3220  -16.6882   28.5571 C   0  0  0  0  0  0  0  0  0  0  0  0
    9.9927  -15.9961   27.4132 C   0  0  0  0  0  0  0  0  0  0  0  0
    9.8284  -14.6326   27.4338 C   0  0  0  0  0  0  0  0  0  0  0  0
    9.4618  -13.8935   26.2082 C   0  0  0  0  0  0  0  0  0  0  0  0
    9.0282  -14.7224   25.0756 C   0  0  2  0  0  0  0  0  0  0  0  0
    8.7889  -14.0986   23.8028 N   0  0  0  0  0  0  0  0  0  0  0  0
    7.7770  -15.4369   25.4905 C   0  0  0  0  0  0  0  0  0  0  0  0
    6.6318  -14.9790   25.2891 O   0  0  0  0  0  0  0  0  0  0  0  0
   10.0011  -13.9599   28.6319 C   0  0  0  0  0  0  0  0  0  0  0  0
   10.3310  -14.6378   29.7854 C   0  0  0  0  0  0  0  0  0  0  0  0
    7.9381  -16.6546   26.1218 O   0  0  0  0  0  0  0  0  0  0  0  0
  2  3  1  1
  2  1  1  0
  4  5  1  1
  4  2  1  0
  6  4  1  0
  7  6  2  0
  8  9  1  0
  8  6  1  0
 10  9  1  0
 11 10  1  0
 11 12  1  0
 12  8  1  0
 12 13  1  1
 13 14  2  0
 16 15  1  0
 17 16  2  0
 18 17  1  0
 19 25  1  0
 19 18  2  0
 21 20  1  1
 20 19  1  0
 21 22  1  0
 22 13  1  0
 23 21  1  0
 24 23  2  0
 25 26  2  0
 26 16  1  0
 27 23  1  0
M  END
$$$$
