VPY.pdb
     RDKit          3D

 27 28  0  0  1  0  0  0  0  0999 V2000
   10.0309  -19.6265   20.4027 C   0  0  0  0  0  0  0  0  0  0  0  0
   10.9813  -18.9464   19.4715 C   0  0  1  0  0  0  0  0  0  0  0  0
   11.2942  -19.8113   18.2941 C   0  0  0  0  0  0  0  0  0  0  0  0
   10.3812  -17.5918   19.0388 C   0  0  2  0  0  0  0  0  0  0  0  0
   11.2379  -17.0777   18.0431 N   0  0  0  0  0  0  0  0  0  0  0  0
   10.0687  -16.7743   20.2027 C   0  0  0  0  0  0  0  0  0  0  0  0
   11.0822  -16.5973   20.9877 O   0  0  0  0  0  0  0  0  0  0  0  0
    8.8892  -16.1629   20.6049 N   0  0  0  0  0  0  0  0  0  0  0  0
    8.0033  -15.4261   19.6539 C   0  0  0  0  0  0  0  0  0  0  0  0
    6.6559  -16.0399   20.0251 C   0  0  0  0  0  0  0  0  0  0  0  0
    6.8627  -16.7449   21.3787 C   0  0  0  0  0  0  0  0  0  0  0  0
    8.1437  -15.9956   21.8045 C   0  0  1  0  0  0  0  0  0  0  0  0
    8.5918  -16.2722   23.1121 C   0  0  0  0  0  0  0  0  0  0  0  0
    9.0861  -17.4669   23.3002 O   0  0  0  0  0  0  0  0  0  0  0  0
    5.3486  -10.8637   26.7295 O   0  0  0  0  0  0  0  0  0  0  0  0
    6.3225  -11.8600   26.6967 C   0  0  0  0  0  0  0  0  0  0  0  0
    7.6411  -11.5717   26.4182 C   0  0  0  0  0  0  0  0  0  0  0  0
    8.5809  -12.5777   26.3929 C   0  0  0  0  0  0  0  0  0  0  0  0
    8.2286  -13.8814   26.6433 C   0  0  0  0  0  0  0  0  0  0  0  0
    9.2408  -14.9575   26.6290 C   0  0  0  0  0  0  0  0  0  0  0  0
    9.1172  -15.9277   25.5329 C   0  0  2  0  0  0  0  0  0  0  0  0
    8.5946  -15.4909   24.2670 N   0  0  0  0  0  0  0  0  0  0  0  0
    8.2678  -17.0609   26.0253 C   0  0  0  0  0  0  0  0  0  0  0  0
    7.1371  -17.3178   25.5594 O   0  0  0  0  0  0  0  0  0  0  0  0
    6.9034  -14.1703   26.9229 C   0  0  0  0  0  0  0  0  0  0  0  0
    5.9508  -13.1751   26.9518 C   0  0  0  0  0  0  0  0  0  0  0  0
    8.7935  -17.8343   27.0417 O   0  0  0  0  0  0  0  0  0  0  0  0
  2  3  1  6
  2  1  1  0
  4  5  1  6
  4  2  1  0
  6  4  1  0
  7  6  2  0
  8  9  1  0
  8  6  1  0
 10  9  1  0
 11 10  1  0
 11 12  1  0
 12  8  1  0
 12 13  1  1
 13 14  2  0
 16 15  1  0
 17 16  2  0
 18 17  1  0
 19 25  1  0
 19 18  2  0
 21 20  1  1
 20 19  1  0
 21 22  1  0
 22 13  1  0
 23 21  1  0
 24 23  2  0
 25 26  2  0
 26 16  1  0
 27 23  1  0
M  END
$$$$
