VPY.pdb
     RDKit          3D

 27 28  0  0  1  0  0  0  0  0999 V2000
    9.3036  -19.5599   20.0678 C   0  0  0  0  0  0  0  0  0  0  0  0
   10.2472  -18.9801   19.0648 C   0  0  1  0  0  0  0  0  0  0  0  0
   10.3428  -19.8460   17.8511 C   0  0  0  0  0  0  0  0  0  0  0  0
    9.7885  -17.5500   18.7085 C   0  0  2  0  0  0  0  0  0  0  0  0
   10.6449  -17.1026   17.6809 N   0  0  0  0  0  0  0  0  0  0  0  0
    9.6377  -16.7451   19.9126 C   0  0  0  0  0  0  0  0  0  0  0  0
   10.7209  -16.6749   20.6173 O   0  0  0  0  0  0  0  0  0  0  0  0
    8.5486  -16.0520   20.4228 N   0  0  0  0  0  0  0  0  0  0  0  0
    7.6274  -15.2562   19.5567 C   0  0  0  0  0  0  0  0  0  0  0  0
    6.2834  -15.7735   20.0625 C   0  0  0  0  0  0  0  0  0  0  0  0
    6.5720  -16.4894   21.3953 C   0  0  0  0  0  0  0  0  0  0  0  0
    7.9376  -15.8311   21.6880 C   0  0  1  0  0  0  0  0  0  0  0  0
    8.4911  -16.1367   22.9479 C   0  0  0  0  0  0  0  0  0  0  0  0
    9.1644  -17.2543   23.0144 O   0  0  0  0  0  0  0  0  0  0  0  0
    5.3072  -10.9883   26.9969 O   0  0  0  0  0  0  0  0  0  0  0  0
    6.2875  -11.9688   26.8567 C   0  0  0  0  0  0  0  0  0  0  0  0
    5.9714  -13.2578   26.4849 C   0  0  0  0  0  0  0  0  0  0  0  0
    6.9622  -14.2050   26.3546 C   0  0  0  0  0  0  0  0  0  0  0  0
    8.2781  -13.8894   26.5899 C   0  0  0  0  0  0  0  0  0  0  0  0
    9.3413  -14.9037   26.4365 C   0  0  0  0  0  0  0  0  0  0  0  0
    9.1413  -15.8700   25.3482 C   0  0  2  0  0  0  0  0  0  0  0  0
    8.4415  -15.4547   24.1631 N   0  0  0  0  0  0  0  0  0  0  0  0
    8.4282  -17.0573   25.9224 C   0  0  0  0  0  0  0  0  0  0  0  0
    7.2900  -17.4145   25.5502 O   0  0  0  0  0  0  0  0  0  0  0  0
    8.5949  -12.5941   26.9637 C   0  0  0  0  0  0  0  0  0  0  0  0
    7.6151  -11.6346   27.0987 C   0  0  0  0  0  0  0  0  0  0  0  0
    9.0919  -17.7637   26.9062 O   0  0  0  0  0  0  0  0  0  0  0  0
  2  3  1  6
  2  1  1  0
  4  5  1  6
  4  2  1  0
  6  4  1  0
  7  6  2  0
  8  9  1  0
  8  6  1  0
 10  9  1  0
 11 10  1  0
 11 12  1  0
 12  8  1  0
 12 13  1  1
 13 14  2  0
 16 15  1  0
 17 16  2  0
 18 17  1  0
 19 25  1  0
 19 18  2  0
 21 20  1  1
 20 19  1  0
 21 22  1  0
 22 13  1  0
 23 21  1  0
 24 23  2  0
 25 26  2  0
 26 16  1  0
 27 23  1  0
M  END
$$$$
