VPY.pdb
     RDKit          3D

 27 28  0  0  1  0  0  0  0  0999 V2000
    6.8696  -19.7490   19.6621 C   0  0  0  0  0  0  0  0  0  0  0  0
    7.6048  -18.8865   20.6359 C   0  0  1  0  0  0  0  0  0  0  0  0
    8.4619  -19.7076   21.5432 C   0  0  0  0  0  0  0  0  0  0  0  0
    8.4355  -17.8432   19.8587 C   0  0  2  0  0  0  0  0  0  0  0  0
    9.2544  -18.5700   18.9694 N   0  0  0  0  0  0  0  0  0  0  0  0
    9.0466  -16.8897   20.7739 C   0  0  0  0  0  0  0  0  0  0  0  0
   10.0515  -17.3808   21.4249 O   0  0  0  0  0  0  0  0  0  0  0  0
    8.7400  -15.5665   21.0604 N   0  0  0  0  0  0  0  0  0  0  0  0
    8.3326  -14.5912   20.0045 C   0  0  0  0  0  0  0  0  0  0  0  0
    7.0959  -13.9911   20.6680 C   0  0  0  0  0  0  0  0  0  0  0  0
    7.1656  -14.3950   22.1526 C   0  0  0  0  0  0  0  0  0  0  0  0
    8.6735  -14.7229   22.2034 C   0  0  1  0  0  0  0  0  0  0  0  0
    9.1796  -15.0132   23.4867 C   0  0  0  0  0  0  0  0  0  0  0  0
    9.8467  -14.0493   24.0636 O   0  0  0  0  0  0  0  0  0  0  0  0
    5.8461  -10.9956   26.4128 O   0  0  0  0  0  0  0  0  0  0  0  0
    6.4665  -12.2419   26.4750 C   0  0  0  0  0  0  0  0  0  0  0  0
    5.7837  -13.4035   26.1855 C   0  0  0  0  0  0  0  0  0  0  0  0
    6.4240  -14.6205   26.2557 C   0  0  0  0  0  0  0  0  0  0  0  0
    7.7477  -14.7040   26.6126 C   0  0  0  0  0  0  0  0  0  0  0  0
    8.4364  -16.0095   26.6743 C   0  0  0  0  0  0  0  0  0  0  0  0
    9.4697  -16.2285   25.6533 C   0  0  2  0  0  0  0  0  0  0  0  0
    9.1049  -16.1684   24.2641 N   0  0  0  0  0  0  0  0  0  0  0  0
   10.0908  -17.5672   25.9178 C   0  0  0  0  0  0  0  0  0  0  0  0
   10.6079  -17.8744   27.0133 O   0  0  0  0  0  0  0  0  0  0  0  0
    8.4330  -13.5363   26.9037 C   0  0  0  0  0  0  0  0  0  0  0  0
    7.8067  -12.3106   26.8383 C   0  0  0  0  0  0  0  0  0  0  0  0
   10.0715  -18.4765   24.8785 O   0  0  0  0  0  0  0  0  0  0  0  0
  2  3  1  6
  2  1  1  0
  4  5  1  1
  4  2  1  0
  6  4  1  0
  7  6  2  0
  8  9  1  0
  8  6  1  0
 10  9  1  0
 11 10  1  0
 11 12  1  0
 12  8  1  0
 12 13  1  1
 13 14  2  0
 16 15  1  0
 17 16  2  0
 18 17  1  0
 19 25  1  0
 19 18  2  0
 21 20  1  1
 20 19  1  0
 21 22  1  0
 22 13  1  0
 23 21  1  0
 24 23  2  0
 25 26  2  0
 26 16  1  0
 27 23  1  0
M  END
$$$$
