VPY.pdb
     RDKit          3D

 27 28  0  0  1  0  0  0  0  0999 V2000
    8.1872  -12.7303   17.8825 C   0  0  0  0  0  0  0  0  0  0  0  0
    8.2769  -13.3104   19.2567 C   0  0  1  0  0  0  0  0  0  0  0  0
    6.9244  -13.4329   19.8794 C   0  0  0  0  0  0  0  0  0  0  0  0
    8.9947  -14.6748   19.1824 C   0  0  2  0  0  0  0  0  0  0  0  0
    8.3703  -15.3961   18.1433 N   0  0  0  0  0  0  0  0  0  0  0  0
    9.0956  -15.2737   20.5059 C   0  0  0  0  0  0  0  0  0  0  0  0
    9.8817  -14.6222   21.3012 O   0  0  0  0  0  0  0  0  0  0  0  0
    8.5012  -16.4042   21.0494 N   0  0  0  0  0  0  0  0  0  0  0  0
    7.3983  -17.1400   20.3607 C   0  0  0  0  0  0  0  0  0  0  0  0
    7.9260  -18.5675   20.4767 C   0  0  0  0  0  0  0  0  0  0  0  0
    9.0419  -18.5287   21.5375 C   0  0  0  0  0  0  0  0  0  0  0  0
    8.6298  -17.2052   22.2176 C   0  0  1  0  0  0  0  0  0  0  0  0
    9.3580  -16.8777   23.3792 C   0  0  0  0  0  0  0  0  0  0  0  0
   10.6419  -16.7023   23.2120 O   0  0  0  0  0  0  0  0  0  0  0  0
    5.0776  -11.9643   26.8524 O   0  0  0  0  0  0  0  0  0  0  0  0
    6.2588  -12.6631   26.6100 C   0  0  0  0  0  0  0  0  0  0  0  0
    6.3141  -13.6917   25.6945 C   0  0  0  0  0  0  0  0  0  0  0  0
    7.4960  -14.3637   25.4766 C   0  0  0  0  0  0  0  0  0  0  0  0
    8.6381  -14.0266   26.1610 C   0  0  0  0  0  0  0  0  0  0  0  0
    9.9085  -14.7400   25.9160 C   0  0  0  0  0  0  0  0  0  0  0  0
    9.7944  -16.1946   25.7453 C   0  0  2  0  0  0  0  0  0  0  0  0
    8.9513  -16.7131   24.7028 N   0  0  0  0  0  0  0  0  0  0  0  0
    9.3327  -16.7686   27.0512 C   0  0  0  0  0  0  0  0  0  0  0  0
    9.9209  -16.5595   28.1338 O   0  0  0  0  0  0  0  0  0  0  0  0
    8.5816  -12.9930   27.0809 C   0  0  0  0  0  0  0  0  0  0  0  0
    7.4067  -12.3108   27.3107 C   0  0  0  0  0  0  0  0  0  0  0  0
    8.2014  -17.5600   27.0159 O   0  0  0  0  0  0  0  0  0  0  0  0
  2  3  1  6
  2  1  1  0
  4  5  1  6
  4  2  1  0
  6  4  1  0
  7  6  2  0
  8  9  1  0
  8  6  1  0
 10  9  1  0
 11 10  1  0
 11 12  1  0
 12  8  1  0
 12 13  1  1
 13 14  2  0
 16 15  1  0
 17 16  2  0
 18 17  1  0
 19 25  1  0
 19 18  2  0
 21 20  1  1
 20 19  1  0
 21 22  1  0
 22 13  1  0
 23 21  1  0
 24 23  2  0
 25 26  2  0
 26 16  1  0
 27 23  1  0
M  END
$$$$
