VPY.pdb
     RDKit          3D

 27 28  0  0  1  0  0  0  0  0999 V2000
    7.5942  -18.4519   19.3914 C   0  0  0  0  0  0  0  0  0  0  0  0
    8.7692  -18.3535   18.4735 C   0  0  1  0  0  0  0  0  0  0  0  0
    8.5496  -19.1509   17.2293 C   0  0  0  0  0  0  0  0  0  0  0  0
    9.0386  -16.8672   18.1565 C   0  0  2  0  0  0  0  0  0  0  0  0
    9.8285  -16.8471   16.9879 N   0  0  0  0  0  0  0  0  0  0  0  0
    9.5045  -16.1658   19.3445 C   0  0  0  0  0  0  0  0  0  0  0  0
   10.6099  -16.6441   19.8178 O   0  0  0  0  0  0  0  0  0  0  0  0
    8.9736  -15.0897   20.0423 N   0  0  0  0  0  0  0  0  0  0  0  0
    8.4601  -13.8650   19.3578 C   0  0  0  0  0  0  0  0  0  0  0  0
    7.1136  -13.7189   20.0617 C   0  0  0  0  0  0  0  0  0  0  0  0
    7.1819  -14.6166   21.3113 C   0  0  0  0  0  0  0  0  0  0  0  0
    8.7193  -14.7317   21.3951 C   0  0  1  0  0  0  0  0  0  0  0  0
    9.2081  -15.3927   22.5402 C   0  0  0  0  0  0  0  0  0  0  0  0
    9.0024  -16.6823   22.5806 O   0  0  0  0  0  0  0  0  0  0  0  0
    6.0629  -10.4867   26.7457 O   0  0  0  0  0  0  0  0  0  0  0  0
    6.6597  -11.7154   26.4694 C   0  0  0  0  0  0  0  0  0  0  0  0
    7.9848  -11.9564   26.7620 C   0  0  0  0  0  0  0  0  0  0  0  0
    8.5466  -13.1808   26.4772 C   0  0  0  0  0  0  0  0  0  0  0  0
    7.8050  -14.1824   25.8999 C   0  0  0  0  0  0  0  0  0  0  0  0
    8.4061  -15.4999   25.6074 C   0  0  0  0  0  0  0  0  0  0  0  0
    9.7358  -15.4642   24.9839 C   0  0  2  0  0  0  0  0  0  0  0  0
    9.8758  -14.9097   23.6651 N   0  0  0  0  0  0  0  0  0  0  0  0
   10.2628  -16.8677   24.9612 C   0  0  0  0  0  0  0  0  0  0  0  0
   10.5702  -17.4634   23.9065 O   0  0  0  0  0  0  0  0  0  0  0  0
    6.4737  -13.9394   25.6059 C   0  0  0  0  0  0  0  0  0  0  0  0
    5.8966  -12.7195   25.8844 C   0  0  0  0  0  0  0  0  0  0  0  0
   10.4011  -17.4984   26.1819 O   0  0  0  0  0  0  0  0  0  0  0  0
  2  3  1  6
  2  1  1  0
  4  5  1  6
  4  2  1  0
  6  4  1  0
  7  6  2  0
  8  9  1  0
  8  6  1  0
 10  9  1  0
 11 10  1  0
 11 12  1  0
 12  8  1  0
 12 13  1  1
 13 14  2  0
 16 15  1  0
 17 16  2  0
 18 17  1  0
 19 25  1  0
 19 18  2  0
 21 20  1  6
 20 19  1  0
 21 22  1  0
 22 13  1  0
 23 21  1  0
 24 23  2  0
 25 26  2  0
 26 16  1  0
 27 23  1  0
M  END
$$$$
