VSN.pdb
     RDKit          3D

 22 21  0  0  1  0  0  0  0  0999 V2000
    7.9978  -11.9538   20.3196 C   0  0  0  0  0  0  0  0  0  0  0  0
    8.3355  -13.1787   21.1179 C   0  0  1  0  0  0  0  0  0  0  0  0
    7.5675  -13.1233   22.4173 C   0  0  0  0  0  0  0  0  0  0  0  0
    7.9765  -14.4554   20.3889 C   0  0  2  0  0  0  0  0  0  0  0  0
    6.5723  -14.4370   20.0310 N   0  0  0  0  0  0  0  0  0  0  0  0
    8.3231  -15.6635   21.1802 C   0  0  0  0  0  0  0  0  0  0  0  0
    7.4338  -16.2061   21.8860 O   0  0  0  0  0  0  0  0  0  0  0  0
   11.9141  -17.4962   20.7852 O   0  0  0  0  0  0  0  0  0  0  0  0
   10.7987  -18.3078   21.0390 C   0  0  0  0  0  0  0  0  0  0  0  0
    9.8283  -17.4738   21.8470 C   0  0  2  0  0  0  0  0  0  0  0  0
    9.6178  -16.2419   21.1808 N   0  0  0  0  0  0  0  0  0  0  0  0
   10.4090  -17.3320   23.2136 C   0  0  0  0  0  0  0  0  0  0  0  0
   10.9485  -16.2669   23.6131 O   0  0  0  0  0  0  0  0  0  0  0  0
   11.0180  -18.1259   28.6579 N   0  0  0  0  0  0  0  0  0  0  0  0
   10.9006  -19.1726   27.7183 C   0  0  0  0  0  0  0  0  0  0  0  0
   11.4625  -20.2586   27.9448 O   0  0  0  0  0  0  0  0  0  0  0  0
   10.1220  -18.9703   26.4922 C   0  0  0  0  0  0  0  0  0  0  0  0
   10.9922  -18.4058   25.4260 C   0  0  2  0  0  0  0  0  0  0  0  0
   10.3619  -18.4297   24.1155 N   0  0  0  0  0  0  0  0  0  0  0  0
   12.3538  -18.9756   25.3933 C   0  0  0  0  0  0  0  0  0  0  0  0
   12.6820  -19.8474   24.5619 O   0  0  0  0  0  0  0  0  0  0  0  0
   13.3210  -18.5552   26.2951 O   0  0  0  0  0  0  0  0  0  0  0  0
  2  1  1  6
  2  3  1  0
  4  6  1  0
  4  2  1  0
  4  5  1  1
  6 11  1  0
  7  6  2  0
 10  9  1  6
  9  8  1  0
 10 12  1  0
 11 10  1  0
 12 13  2  0
 12 19  1  0
 14 15  1  0
 15 16  2  0
 15 17  1  0
 18 17  1  1
 18 20  1  0
 19 18  1  0
 20 22  1  0
 21 20  2  0
M  END
$$$$
