VSN.pdb
     RDKit          3D

 22 21  0  0  1  0  0  0  0  0999 V2000
    8.0537  -16.6492   16.7918 C   0  0  0  0  0  0  0  0  0  0  0  0
    8.1305  -15.3443   16.0550 C   0  0  1  0  0  0  0  0  0  0  0  0
    7.3162  -15.4669   14.7889 C   0  0  0  0  0  0  0  0  0  0  0  0
    7.5941  -14.1905   16.8745 C   0  0  2  0  0  0  0  0  0  0  0  0
    7.6517  -12.9689   16.0970 N   0  0  0  0  0  0  0  0  0  0  0  0
    8.3082  -14.0488   18.1690 C   0  0  0  0  0  0  0  0  0  0  0  0
    9.5161  -13.6962   18.1637 O   0  0  0  0  0  0  0  0  0  0  0  0
    6.8842  -15.6214   21.6538 O   0  0  0  0  0  0  0  0  0  0  0  0
    7.5674  -14.4052   21.8004 C   0  0  0  0  0  0  0  0  0  0  0  0
    8.4788  -14.2705   20.5998 C   0  0  2  0  0  0  0  0  0  0  0  0
    7.6920  -14.2932   19.4224 N   0  0  0  0  0  0  0  0  0  0  0  0
    9.4758  -15.3767   20.6837 C   0  0  0  0  0  0  0  0  0  0  0  0
    9.5321  -16.3036   19.8336 O   0  0  0  0  0  0  0  0  0  0  0  0
   13.0021  -14.2252   19.5064 N   0  0  0  0  0  0  0  0  0  0  0  0
   13.1266  -15.0843   20.6195 C   0  0  0  0  0  0  0  0  0  0  0  0
   13.8710  -14.7563   21.5601 O   0  0  0  0  0  0  0  0  0  0  0  0
   12.3816  -16.3468   20.6553 C   0  0  0  0  0  0  0  0  0  0  0  0
   11.4874  -16.3747   21.8436 C   0  0  2  0  0  0  0  0  0  0  0  0
   10.4076  -15.4043   21.7569 N   0  0  0  0  0  0  0  0  0  0  0  0
   12.1975  -16.2952   23.1356 C   0  0  0  0  0  0  0  0  0  0  0  0
   13.1103  -17.0930   23.4344 O   0  0  0  0  0  0  0  0  0  0  0  0
   11.8689  -15.3208   24.0673 O   0  0  0  0  0  0  0  0  0  0  0  0
  2  1  1  1
  2  3  1  0
  4  6  1  0
  4  2  1  0
  4  5  1  6
  6 11  1  0
  7  6  2  0
 10  9  1  1
  9  8  1  0
 10 12  1  0
 11 10  1  0
 12 13  2  0
 12 19  1  0
 14 15  1  0
 15 16  2  0
 15 17  1  0
 18 17  1  6
 18 20  1  0
 19 18  1  0
 20 22  1  0
 21 20  2  0
M  END
$$$$
