VSN.pdb
     RDKit          3D

 22 21  0  0  1  0  0  0  0  0999 V2000
    6.7075  -14.6799   18.3371 C   0  0  0  0  0  0  0  0  0  0  0  0
    7.3035  -14.7979   19.7092 C   0  0  1  0  0  0  0  0  0  0  0  0
    8.6224  -15.5246   19.5914 C   0  0  0  0  0  0  0  0  0  0  0  0
    7.5421  -13.4473   20.3490 C   0  0  2  0  0  0  0  0  0  0  0  0
    8.3687  -12.6329   19.4808 N   0  0  0  0  0  0  0  0  0  0  0  0
    8.1318  -13.5716   21.7063 C   0  0  0  0  0  0  0  0  0  0  0  0
    9.3811  -13.4971   21.8376 O   0  0  0  0  0  0  0  0  0  0  0  0
    6.0005  -14.8964   24.9738 O   0  0  0  0  0  0  0  0  0  0  0  0
    6.9846  -13.9286   25.2232 C   0  0  0  0  0  0  0  0  0  0  0  0
    7.9975  -14.0394   24.1043 C   0  0  2  0  0  0  0  0  0  0  0  0
    7.3511  -13.7722   22.8729 N   0  0  0  0  0  0  0  0  0  0  0  0
    8.5951  -15.4032   24.1915 C   0  0  0  0  0  0  0  0  0  0  0  0
    8.1852  -16.3681   23.4943 O   0  0  0  0  0  0  0  0  0  0  0  0
   12.9121  -18.7940   23.6186 N   0  0  0  0  0  0  0  0  0  0  0  0
   12.4430  -18.1137   24.7629 C   0  0  0  0  0  0  0  0  0  0  0  0
   12.6120  -18.6230   25.8847 O   0  0  0  0  0  0  0  0  0  0  0  0
   11.7655  -16.8213   24.6183 C   0  0  0  0  0  0  0  0  0  0  0  0
   10.3804  -16.9119   25.1530 C   0  0  2  0  0  0  0  0  0  0  0  0
    9.6699  -15.6444   25.0899 N   0  0  0  0  0  0  0  0  0  0  0  0
   10.2889  -17.5291   26.4911 C   0  0  0  0  0  0  0  0  0  0  0  0
   10.2480  -16.8402   27.5316 O   0  0  0  0  0  0  0  0  0  0  0  0
   10.2450  -18.9085   26.6350 O   0  0  0  0  0  0  0  0  0  0  0  0
  2  1  1  6
  2  3  1  0
  4  6  1  0
  4  2  1  0
  4  5  1  6
  6 11  1  0
  7  6  2  0
 10  9  1  1
  9  8  1  0
 10 12  1  0
 11 10  1  0
 12 13  2  0
 12 19  1  0
 14 15  1  0
 15 16  2  0
 15 17  1  0
 18 17  1  1
 18 20  1  0
 19 18  1  0
 20 22  1  0
 21 20  2  0
M  END
$$$$
