VSN.pdb
     RDKit          3D

 22 21  0  0  1  0  0  0  0  0999 V2000
    6.3859  -19.4029   18.3273 C   0  0  0  0  0  0  0  0  0  0  0  0
    7.2860  -18.5921   19.2128 C   0  0  1  0  0  0  0  0  0  0  0  0
    8.6727  -19.1876   19.1505 C   0  0  0  0  0  0  0  0  0  0  0  0
    7.3545  -17.1415   18.7870 C   0  0  2  0  0  0  0  0  0  0  0  0
    7.7927  -17.0558   17.4082 N   0  0  0  0  0  0  0  0  0  0  0  0
    8.2211  -16.3384   19.6868 C   0  0  0  0  0  0  0  0  0  0  0  0
    9.4006  -16.0835   19.3300 O   0  0  0  0  0  0  0  0  0  0  0  0
    7.1537  -15.4596   23.4957 O   0  0  0  0  0  0  0  0  0  0  0  0
    7.9215  -14.4607   22.8793 C   0  0  0  0  0  0  0  0  0  0  0  0
    8.6919  -15.1309   21.7623 C   0  0  2  0  0  0  0  0  0  0  0  0
    7.7827  -15.8398   20.9397 N   0  0  0  0  0  0  0  0  0  0  0  0
    9.7272  -15.9923   22.4033 C   0  0  0  0  0  0  0  0  0  0  0  0
    9.6006  -17.2407   22.5064 O   0  0  0  0  0  0  0  0  0  0  0  0
   15.4936  -16.0675   24.2741 N   0  0  0  0  0  0  0  0  0  0  0  0
   14.3930  -16.5658   23.5442 C   0  0  0  0  0  0  0  0  0  0  0  0
   14.3306  -17.7823   23.2935 O   0  0  0  0  0  0  0  0  0  0  0  0
   13.3410  -15.6500   23.0917 C   0  0  0  0  0  0  0  0  0  0  0  0
   12.0062  -16.1791   23.4802 C   0  0  2  0  0  0  0  0  0  0  0  0
   10.9102  -15.4011   22.9245 N   0  0  0  0  0  0  0  0  0  0  0  0
   11.8439  -16.4023   24.9306 C   0  0  0  0  0  0  0  0  0  0  0  0
   12.5611  -17.2108   25.5558 O   0  0  0  0  0  0  0  0  0  0  0  0
   10.8791  -15.7129   25.6512 O   0  0  0  0  0  0  0  0  0  0  0  0
  2  1  1  6
  2  3  1  0
  4  6  1  0
  4  2  1  0
  4  5  1  6
  6 11  1  0
  7  6  2  0
 10  9  1  1
  9  8  1  0
 10 12  1  0
 11 10  1  0
 12 13  2  0
 12 19  1  0
 14 15  1  0
 15 16  2  0
 15 17  1  0
 18 17  1  1
 18 20  1  0
 19 18  1  0
 20 22  1  0
 21 20  2  0
M  END
$$$$
