VSN.pdb
     RDKit          3D

 22 21  0  0  1  0  0  0  0  0999 V2000
    8.2945  -15.9978   17.7323 C   0  0  0  0  0  0  0  0  0  0  0  0
    8.5113  -14.5771   17.3008 C   0  0  1  0  0  0  0  0  0  0  0  0
    7.7514  -14.3517   16.0150 C   0  0  0  0  0  0  0  0  0  0  0  0
    8.0306  -13.5834   18.3362 C   0  0  2  0  0  0  0  0  0  0  0  0
    8.1304  -12.2378   17.8074 N   0  0  0  0  0  0  0  0  0  0  0  0
    8.7626  -13.7216   19.6210 C   0  0  0  0  0  0  0  0  0  0  0  0
    9.9693  -13.3691   19.6763 O   0  0  0  0  0  0  0  0  0  0  0  0
    7.3363  -16.1262   22.5031 O   0  0  0  0  0  0  0  0  0  0  0  0
    8.1073  -15.0789   23.0286 C   0  0  0  0  0  0  0  0  0  0  0  0
    8.9851  -14.5771   21.9027 C   0  0  2  0  0  0  0  0  0  0  0  0
    8.1650  -14.2355   20.7997 N   0  0  0  0  0  0  0  0  0  0  0  0
    9.9761  -15.6529   21.6105 C   0  0  0  0  0  0  0  0  0  0  0  0
   10.1930  -16.0757   20.4446 O   0  0  0  0  0  0  0  0  0  0  0  0
   13.2358  -14.7253   19.7719 N   0  0  0  0  0  0  0  0  0  0  0  0
   13.5943  -15.3491   20.9863 C   0  0  0  0  0  0  0  0  0  0  0  0
   14.5671  -16.1235   21.0077 O   0  0  0  0  0  0  0  0  0  0  0  0
   12.8210  -15.0795   22.2026 C   0  0  0  0  0  0  0  0  0  0  0  0
   12.1664  -16.3288   22.6751 C   0  0  2  0  0  0  0  0  0  0  0  0
   10.7150  -16.2370   22.6752 N   0  0  0  0  0  0  0  0  0  0  0  0
   12.6869  -16.8340   23.9612 C   0  0  0  0  0  0  0  0  0  0  0  0
   12.9932  -18.0338   24.1209 O   0  0  0  0  0  0  0  0  0  0  0  0
   12.8536  -15.9816   25.0433 O   0  0  0  0  0  0  0  0  0  0  0  0
  2  1  1  1
  2  3  1  0
  4  6  1  0
  4  2  1  0
  4  5  1  6
  6 11  1  0
  7  6  2  0
 10  9  1  1
  9  8  1  0
 10 12  1  0
 11 10  1  0
 12 13  2  0
 12 19  1  0
 14 15  1  0
 15 16  2  0
 15 17  1  0
 18 17  1  1
 18 20  1  0
 19 18  1  0
 20 22  1  0
 21 20  2  0
M  END
$$$$
