VSN.pdb
     RDKit          3D

 22 21  0  0  1  0  0  0  0  0999 V2000
    6.6920  -14.4937   18.5072 C   0  0  0  0  0  0  0  0  0  0  0  0
    7.4656  -14.7896   19.7584 C   0  0  1  0  0  0  0  0  0  0  0  0
    8.6323  -15.6773   19.3947 C   0  0  0  0  0  0  0  0  0  0  0  0
    7.9911  -13.5333   20.4185 C   0  0  2  0  0  0  0  0  0  0  0  0
    8.8163  -12.7963   19.4824 N   0  0  0  0  0  0  0  0  0  0  0  0
    8.7233  -13.8307   21.6760 C   0  0  0  0  0  0  0  0  0  0  0  0
    9.9812  -13.8592   21.6570 O   0  0  0  0  0  0  0  0  0  0  0  0
    6.7668  -14.6968   25.1028 O   0  0  0  0  0  0  0  0  0  0  0  0
    8.0555  -14.1759   25.2906 C   0  0  0  0  0  0  0  0  0  0  0  0
    8.8369  -14.4832   24.0315 C   0  0  2  0  0  0  0  0  0  0  0  0
    8.0705  -14.0867   22.9084 N   0  0  0  0  0  0  0  0  0  0  0  0
    9.1576  -15.9395   24.0626 C   0  0  0  0  0  0  0  0  0  0  0  0
    8.3845  -16.8136   23.5899 O   0  0  0  0  0  0  0  0  0  0  0  0
   13.0693  -17.1295   22.4009 N   0  0  0  0  0  0  0  0  0  0  0  0
   12.0493  -17.9489   22.9306 C   0  0  0  0  0  0  0  0  0  0  0  0
   11.2092  -18.4475   22.1612 O   0  0  0  0  0  0  0  0  0  0  0  0
   11.9909  -18.2023   24.3737 C   0  0  0  0  0  0  0  0  0  0  0  0
   10.6698  -17.7787   24.9103 C   0  0  2  0  0  0  0  0  0  0  0  0
   10.3781  -16.3790   24.6438 N   0  0  0  0  0  0  0  0  0  0  0  0
   10.4547  -18.1263   26.3290 C   0  0  0  0  0  0  0  0  0  0  0  0
   10.6318  -19.2861   26.7560 O   0  0  0  0  0  0  0  0  0  0  0  0
   10.0449  -17.1643   27.2411 O   0  0  0  0  0  0  0  0  0  0  0  0
  2  1  1  6
  2  3  1  0
  4  6  1  0
  4  2  1  0
  4  5  1  6
  6 11  1  0
  7  6  2  0
 10  9  1  1
  9  8  1  0
 10 12  1  0
 11 10  1  0
 12 13  2  0
 12 19  1  0
 14 15  1  0
 15 16  2  0
 15 17  1  0
 18 17  1  1
 18 20  1  0
 19 18  1  0
 20 22  1  0
 21 20  2  0
M  END
$$$$
