KTG.pdb
     RDKit          3D

 21 20  0  0  1  0  0  0  0  0999 V2000
   30.6176  -24.0222  -16.1822 N   0  0  0  0  0  0  0  0  0  0  0  0
   29.9467  -23.2011  -17.1547 C   0  0  1  0  0  0  0  0  0  0  0  0
   29.5971  -23.9727  -18.3522 C   0  0  0  0  0  0  0  0  0  0  0  0
   30.7988  -24.5174  -19.0442 C   0  0  0  0  0  0  0  0  0  0  0  0
   31.0112  -25.9932  -18.9803 C   0  0  0  0  0  0  0  0  0  0  0  0
   32.2491  -26.3775  -19.8312 C   0  0  0  0  0  0  0  0  0  0  0  0
   32.5954  -27.7570  -19.6027 N   0  0  0  0  0  0  0  0  0  0  0  0
   28.8334  -22.4926  -16.4999 C   0  0  0  0  0  0  0  0  0  0  0  0
   28.4214  -22.9744  -15.4165 O   0  0  0  0  0  0  0  0  0  0  0  0
   28.8181  -19.2555  -14.8913 C   0  0  0  0  0  0  0  0  0  0  0  0
   27.6981  -19.2245  -15.8821 C   0  0  1  0  0  0  0  0  0  0  0  0
   28.1378  -18.5370  -17.0148 O   0  0  0  0  0  0  0  0  0  0  0  0
   27.2394  -20.6439  -16.2557 C   0  0  2  0  0  0  0  0  0  0  0  0
   28.2240  -21.3175  -17.0311 N   0  0  0  0  0  0  0  0  0  0  0  0
   25.9128  -20.5692  -16.8695 C   0  0  0  0  0  0  0  0  0  0  0  0
   25.8493  -20.6505  -18.1208 O   0  0  0  0  0  0  0  0  0  0  0  0
   24.6846  -20.4122  -16.1743 N   0  0  0  0  0  0  0  0  0  0  0  0
   23.4251  -20.2353  -16.8663 C   0  0  0  0  0  0  0  0  0  0  0  0
   22.2845  -20.1621  -15.9190 C   0  0  0  0  0  0  0  0  0  0  0  0
   21.0298  -19.8852  -16.4389 O   0  0  0  0  0  0  0  0  0  0  0  0
   22.3785  -20.3339  -14.6790 O   0  0  0  0  0  0  0  0  0  0  0  0
  2  1  1  1
  3  2  1  0
  4  3  1  0
  5  6  1  0
  5  4  1  0
  7  6  1  0
  8  2  1  0
  8  9  2  0
 11 10  1  1
 11 12  1  0
 13 14  1  6
 13 11  1  0
 14  8  1  0
 15 13  1  0
 16 15  2  0
 17 15  1  0
 18 17  1  0
 19 18  1  0
 19 20  1  0
 21 19  2  0
M  END
$$$$
