KTG.pdb
     RDKit          3D

 21 20  0  0  1  0  0  0  0  0999 V2000
   25.9354  -21.8826  -11.5912 N   0  0  0  0  0  0  0  0  0  0  0  0
   24.9019  -20.8886  -11.7087 C   0  0  1  0  0  0  0  0  0  0  0  0
   24.5315  -20.3485  -10.3962 C   0  0  0  0  0  0  0  0  0  0  0  0
   23.7575  -21.3260   -9.5807 C   0  0  0  0  0  0  0  0  0  0  0  0
   23.3003  -20.8778   -8.2327 C   0  0  0  0  0  0  0  0  0  0  0  0
   22.4476  -21.9936   -7.5754 C   0  0  0  0  0  0  0  0  0  0  0  0
   21.9749  -21.5579   -6.2863 N   0  0  0  0  0  0  0  0  0  0  0  0
   25.3018  -19.8965  -12.7216 C   0  0  0  0  0  0  0  0  0  0  0  0
   24.9167  -18.7166  -12.5341 O   0  0  0  0  0  0  0  0  0  0  0  0
   27.9396  -18.4540  -16.6191 C   0  0  0  0  0  0  0  0  0  0  0  0
   27.4749  -19.6081  -15.7891 C   0  0  1  0  0  0  0  0  0  0  0  0
   28.5719  -20.1079  -15.0852 O   0  0  0  0  0  0  0  0  0  0  0  0
   26.3567  -19.1887  -14.8202 C   0  0  2  0  0  0  0  0  0  0  0  0
   26.0848  -20.2131  -13.8709 N   0  0  0  0  0  0  0  0  0  0  0  0
   25.1990  -18.7400  -15.5952 C   0  0  0  0  0  0  0  0  0  0  0  0
   24.4037  -19.6194  -16.0083 O   0  0  0  0  0  0  0  0  0  0  0  0
   24.8922  -17.3931  -15.9240 N   0  0  0  0  0  0  0  0  0  0  0  0
   23.6375  -17.0177  -16.5414 C   0  0  0  0  0  0  0  0  0  0  0  0
   23.6160  -17.3525  -17.9875 C   0  0  0  0  0  0  0  0  0  0  0  0
   22.9194  -18.4854  -18.3780 O   0  0  0  0  0  0  0  0  0  0  0  0
   24.1858  -16.6797  -18.8812 O   0  0  0  0  0  0  0  0  0  0  0  0
  2  1  1  1
  3  2  1  0
  4  3  1  0
  5  6  1  0
  5  4  1  0
  7  6  1  0
  8  2  1  0
  8  9  2  0
 11 10  1  1
 11 12  1  0
 13 14  1  6
 13 11  1  0
 14  8  1  0
 15 13  1  0
 16 15  2  0
 17 15  1  0
 18 17  1  0
 19 18  1  0
 19 20  1  0
 21 19  2  0
M  END
$$$$
