KTG.pdb
     RDKit          3D

 21 20  0  0  1  0  0  0  0  0999 V2000
   23.2914  -22.5872  -14.7825 N   0  0  0  0  0  0  0  0  0  0  0  0
   22.7287  -21.2947  -14.4945 C   0  0  1  0  0  0  0  0  0  0  0  0
   22.1720  -21.2470  -13.1381 C   0  0  0  0  0  0  0  0  0  0  0  0
   20.7377  -20.8444  -13.1297 C   0  0  0  0  0  0  0  0  0  0  0  0
   19.7246  -21.9297  -13.2817 C   0  0  0  0  0  0  0  0  0  0  0  0
   18.8906  -22.0482  -11.9800 C   0  0  0  0  0  0  0  0  0  0  0  0
   17.6175  -21.3958  -12.1493 N   0  0  0  0  0  0  0  0  0  0  0  0
   23.7211  -20.2552  -14.8180 C   0  0  0  0  0  0  0  0  0  0  0  0
   23.3344  -19.0641  -14.7323 O   0  0  0  0  0  0  0  0  0  0  0  0
   27.9863  -20.8565  -15.1054 C   0  0  0  0  0  0  0  0  0  0  0  0
   27.2658  -19.6062  -14.7124 C   0  0  1  0  0  0  0  0  0  0  0  0
   28.1070  -18.5211  -14.9650 O   0  0  0  0  0  0  0  0  0  0  0  0
   25.9430  -19.4549  -15.4819 C   0  0  2  0  0  0  0  0  0  0  0  0
   25.0619  -20.5393  -15.2126 N   0  0  0  0  0  0  0  0  0  0  0  0
   26.2389  -19.2350  -16.8983 C   0  0  0  0  0  0  0  0  0  0  0  0
   26.2207  -20.2368  -17.6551 O   0  0  0  0  0  0  0  0  0  0  0  0
   26.5462  -17.9847  -17.4974 N   0  0  0  0  0  0  0  0  0  0  0  0
   26.6624  -17.8260  -18.9318 C   0  0  0  0  0  0  0  0  0  0  0  0
   27.0151  -16.4325  -19.3026 C   0  0  0  0  0  0  0  0  0  0  0  0
   28.3022  -16.1908  -19.7568 O   0  0  0  0  0  0  0  0  0  0  0  0
   26.2272  -15.4576  -19.2329 O   0  0  0  0  0  0  0  0  0  0  0  0
  2  1  1  1
  3  2  1  0
  4  3  1  0
  5  6  1  0
  5  4  1  0
  7  6  1  0
  8  2  1  0
  8  9  2  0
 11 10  1  6
 11 12  1  0
 13 14  1  6
 13 11  1  0
 14  8  1  0
 15 13  1  0
 16 15  2  0
 17 15  1  0
 18 17  1  0
 19 18  1  0
 19 20  1  0
 21 19  2  0
M  END
$$$$
