KTG.pdb
     RDKit          3D

 21 20  0  0  1  0  0  0  0  0999 V2000
   18.9591  -23.6949   -9.0704 N   0  0  0  0  0  0  0  0  0  0  0  0
   19.1262  -23.8536  -10.4906 C   0  0  1  0  0  0  0  0  0  0  0  0
   17.9894  -24.5661  -11.0837 C   0  0  0  0  0  0  0  0  0  0  0  0
   17.6996  -25.8493  -10.3845 C   0  0  0  0  0  0  0  0  0  0  0  0
   16.4154  -25.9388   -9.6295 C   0  0  0  0  0  0  0  0  0  0  0  0
   16.2233  -27.3835   -9.1003 C   0  0  0  0  0  0  0  0  0  0  0  0
   15.0625  -27.4465   -8.2496 N   0  0  0  0  0  0  0  0  0  0  0  0
   19.4451  -22.5446  -11.0864 C   0  0  0  0  0  0  0  0  0  0  0  0
   19.1865  -21.5329  -10.3898 O   0  0  0  0  0  0  0  0  0  0  0  0
   22.5816  -20.9475  -11.7910 C   0  0  0  0  0  0  0  0  0  0  0  0
   21.8216  -20.8883  -13.0778 C   0  0  1  0  0  0  0  0  0  0  0  0
   22.3151  -21.8853  -13.9213 O   0  0  0  0  0  0  0  0  0  0  0  0
   20.3124  -21.0736  -12.8476 C   0  0  2  0  0  0  0  0  0  0  0  0
   20.0181  -22.3858  -12.3829 N   0  0  0  0  0  0  0  0  0  0  0  0
   19.5935  -20.6695  -14.0569 C   0  0  0  0  0  0  0  0  0  0  0  0
   18.8955  -21.5401  -14.6326 O   0  0  0  0  0  0  0  0  0  0  0  0
   19.6141  -19.3754  -14.6409 N   0  0  0  0  0  0  0  0  0  0  0  0
   18.8783  -19.0636  -15.8483 C   0  0  0  0  0  0  0  0  0  0  0  0
   19.1129  -17.6653  -16.2879 C   0  0  0  0  0  0  0  0  0  0  0  0
   20.0403  -17.4518  -17.2956 O   0  0  0  0  0  0  0  0  0  0  0  0
   18.5286  -16.6624  -15.8092 O   0  0  0  0  0  0  0  0  0  0  0  0
  2  1  1  1
  3  2  1  0
  4  3  1  0
  5  6  1  0
  5  4  1  0
  7  6  1  0
  8  2  1  0
  8  9  2  0
 11 10  1  1
 11 12  1  0
 13 14  1  6
 13 11  1  0
 14  8  1  0
 15 13  1  0
 16 15  2  0
 17 15  1  0
 18 17  1  0
 19 18  1  0
 19 20  1  0
 21 19  2  0
M  END
$$$$
