KTG.pdb
     RDKit          3D

 21 20  0  0  1  0  0  0  0  0999 V2000
   19.6247  -13.5119  -16.6225 N   0  0  0  0  0  0  0  0  0  0  0  0
   18.9894  -12.2291  -16.4780 C   0  0  1  0  0  0  0  0  0  0  0  0
   17.8544  -12.2989  -15.5513 C   0  0  0  0  0  0  0  0  0  0  0  0
   16.7920  -13.2281  -16.0280 C   0  0  0  0  0  0  0  0  0  0  0  0
   15.5994  -13.4075  -15.1490 C   0  0  0  0  0  0  0  0  0  0  0  0
   14.6521  -14.4675  -15.7681 C   0  0  0  0  0  0  0  0  0  0  0  0
   13.5197  -14.6813  -14.9038 N   0  0  0  0  0  0  0  0  0  0  0  0
   20.0135  -11.2179  -16.1639 C   0  0  0  0  0  0  0  0  0  0  0  0
   20.8384  -11.5150  -15.2656 O   0  0  0  0  0  0  0  0  0  0  0  0
   22.6085   -9.9720  -18.3246 C   0  0  0  0  0  0  0  0  0  0  0  0
   22.0292   -8.7390  -17.7073 C   0  0  1  0  0  0  0  0  0  0  0  0
   21.2648   -8.0853  -18.6754 O   0  0  0  0  0  0  0  0  0  0  0  0
   21.1697   -9.0771  -16.4778 C   0  0  2  0  0  0  0  0  0  0  0  0
   20.1025   -9.9542  -16.8191 N   0  0  0  0  0  0  0  0  0  0  0  0
   20.7627   -7.8321  -15.8247 C   0  0  0  0  0  0  0  0  0  0  0  0
   19.6131   -7.3954  -16.0778 O   0  0  0  0  0  0  0  0  0  0  0  0
   21.5546   -7.0694  -14.9259 N   0  0  0  0  0  0  0  0  0  0  0  0
   21.1213   -5.7848  -14.4177 C   0  0  0  0  0  0  0  0  0  0  0  0
   21.9955   -5.3073  -13.3170 C   0  0  0  0  0  0  0  0  0  0  0  0
   21.7022   -4.0790  -12.7456 O   0  0  0  0  0  0  0  0  0  0  0  0
   22.9825   -5.9400  -12.8681 O   0  0  0  0  0  0  0  0  0  0  0  0
  2  1  1  1
  3  2  1  0
  4  3  1  0
  5  6  1  0
  5  4  1  0
  7  6  1  0
  8  2  1  0
  8  9  2  0
 11 10  1  6
 11 12  1  0
 13 14  1  6
 13 11  1  0
 14  8  1  0
 15 13  1  0
 16 15  2  0
 17 15  1  0
 18 17  1  0
 19 18  1  0
 19 20  1  0
 21 19  2  0
M  END
$$$$
