KTG.pdb
     RDKit          3D

 21 20  0  0  1  0  0  0  0  0999 V2000
   25.3539  -21.0741  -16.6937 N   0  0  0  0  0  0  0  0  0  0  0  0
   25.6846  -20.7078  -15.3422 C   0  0  1  0  0  0  0  0  0  0  0  0
   27.0383  -21.1478  -14.9878 C   0  0  0  0  0  0  0  0  0  0  0  0
   27.2569  -22.5927  -15.2776 C   0  0  0  0  0  0  0  0  0  0  0  0
   27.6769  -22.9535  -16.6635 C   0  0  0  0  0  0  0  0  0  0  0  0
   27.7768  -24.4955  -16.7914 C   0  0  0  0  0  0  0  0  0  0  0  0
   27.9302  -24.8664  -18.1749 N   0  0  0  0  0  0  0  0  0  0  0  0
   25.4045  -19.2743  -15.1503 C   0  0  0  0  0  0  0  0  0  0  0  0
   25.5832  -18.8174  -13.9949 O   0  0  0  0  0  0  0  0  0  0  0  0
   25.6682  -16.2321  -18.0479 C   0  0  0  0  0  0  0  0  0  0  0  0
   25.7184  -16.1186  -16.5574 C   0  0  1  0  0  0  0  0  0  0  0  0
   25.4746  -14.7878  -16.2136 O   0  0  0  0  0  0  0  0  0  0  0  0
   24.6905  -17.0465  -15.8887 C   0  0  2  0  0  0  0  0  0  0  0  0
   24.9527  -18.4117  -16.1923 N   0  0  0  0  0  0  0  0  0  0  0  0
   23.3430  -16.5853  -16.2256 C   0  0  0  0  0  0  0  0  0  0  0  0
   22.6618  -17.3043  -16.9973 O   0  0  0  0  0  0  0  0  0  0  0  0
   22.7330  -15.3919  -15.7563 N   0  0  0  0  0  0  0  0  0  0  0  0
   21.3897  -15.0114  -16.1399 C   0  0  0  0  0  0  0  0  0  0  0  0
   21.0103  -13.6927  -15.5734 C   0  0  0  0  0  0  0  0  0  0  0  0
   19.7701  -13.1759  -15.9141 O   0  0  0  0  0  0  0  0  0  0  0  0
   21.7361  -13.0134  -14.8067 O   0  0  0  0  0  0  0  0  0  0  0  0
  2  1  1  6
  3  2  1  0
  4  3  1  0
  5  6  1  0
  5  4  1  0
  7  6  1  0
  8  2  1  0
  8  9  2  0
 11 10  1  6
 11 12  1  0
 13 14  1  6
 13 11  1  0
 14  8  1  0
 15 13  1  0
 16 15  2  0
 17 15  1  0
 18 17  1  0
 19 18  1  0
 19 20  1  0
 21 19  2  0
M  END
$$$$
