KTG.pdb
     RDKit          3D

 21 20  0  0  1  0  0  0  0  0999 V2000
   24.2825  -17.7526  -17.7244 N   0  0  0  0  0  0  0  0  0  0  0  0
   24.6168  -17.2896  -16.4039 C   0  0  1  0  0  0  0  0  0  0  0  0
   23.6162  -16.3408  -15.9035 C   0  0  0  0  0  0  0  0  0  0  0  0
   23.5518  -15.1008  -16.7269 C   0  0  0  0  0  0  0  0  0  0  0  0
   23.4205  -13.8052  -15.9980 C   0  0  0  0  0  0  0  0  0  0  0  0
   23.2401  -12.6511  -17.0177 C   0  0  0  0  0  0  0  0  0  0  0  0
   23.1204  -11.3945  -16.3238 N   0  0  0  0  0  0  0  0  0  0  0  0
   24.8870  -18.4523  -15.5406 C   0  0  0  0  0  0  0  0  0  0  0  0
   23.9562  -19.2846  -15.4126 O   0  0  0  0  0  0  0  0  0  0  0  0
   27.1782  -21.1863  -15.8977 C   0  0  0  0  0  0  0  0  0  0  0  0
   27.4036  -20.7150  -14.4963 C   0  0  1  0  0  0  0  0  0  0  0  0
   28.6238  -20.0380  -14.4555 O   0  0  0  0  0  0  0  0  0  0  0  0
   26.2622  -19.8005  -14.0210 C   0  0  2  0  0  0  0  0  0  0  0  0
   26.1255  -18.6636  -14.8656 N   0  0  0  0  0  0  0  0  0  0  0  0
   26.4545  -19.4978  -12.6020 C   0  0  0  0  0  0  0  0  0  0  0  0
   27.0879  -18.4526  -12.3144 O   0  0  0  0  0  0  0  0  0  0  0  0
   25.9872  -20.2834  -11.5153 N   0  0  0  0  0  0  0  0  0  0  0  0
   26.2241  -19.9095  -10.1368 C   0  0  0  0  0  0  0  0  0  0  0  0
   25.6396  -20.8950   -9.1930 C   0  0  0  0  0  0  0  0  0  0  0  0
   25.7754  -20.6489   -7.8357 O   0  0  0  0  0  0  0  0  0  0  0  0
   25.0304  -21.9364   -9.5400 O   0  0  0  0  0  0  0  0  0  0  0  0
  2  1  1  6
  3  2  1  0
  4  3  1  0
  5  6  1  0
  5  4  1  0
  7  6  1  0
  8  2  1  0
  8  9  2  0
 11 10  1  6
 11 12  1  0
 13 14  1  6
 13 11  1  0
 14  8  1  0
 15 13  1  0
 16 15  2  0
 17 15  1  0
 18 17  1  0
 19 18  1  0
 19 20  1  0
 21 19  2  0
M  END
$$$$
