KTG.pdb
     RDKit          3D

 21 20  0  0  1  0  0  0  0  0999 V2000
   20.7805  -21.4669  -14.8094 N   0  0  0  0  0  0  0  0  0  0  0  0
   21.6570  -21.0798  -13.7361 C   0  0  1  0  0  0  0  0  0  0  0  0
   22.2844  -19.7811  -14.0036 C   0  0  0  0  0  0  0  0  0  0  0  0
   23.2081  -19.8296  -15.1715 C   0  0  0  0  0  0  0  0  0  0  0  0
   22.6651  -20.3829  -16.4468 C   0  0  0  0  0  0  0  0  0  0  0  0
   23.7076  -20.1971  -17.5794 C   0  0  0  0  0  0  0  0  0  0  0  0
   23.1987  -20.7422  -18.8120 N   0  0  0  0  0  0  0  0  0  0  0  0
   20.9315  -21.1913  -12.4588 C   0  0  0  0  0  0  0  0  0  0  0  0
   21.1106  -20.2666  -11.6291 O   0  0  0  0  0  0  0  0  0  0  0  0
   17.7297  -20.4869  -11.6241 C   0  0  0  0  0  0  0  0  0  0  0  0
   17.8801  -21.8811  -11.1041 C   0  0  1  0  0  0  0  0  0  0  0  0
   17.2802  -22.7527  -12.0148 O   0  0  0  0  0  0  0  0  0  0  0  0
   19.3595  -22.2476  -10.8996 C   0  0  2  0  0  0  0  0  0  0  0  0
   20.0608  -22.2743  -12.1373 N   0  0  0  0  0  0  0  0  0  0  0  0
   19.4403  -23.4810  -10.1157 C   0  0  0  0  0  0  0  0  0  0  0  0
   19.8022  -24.5238  -10.7142 O   0  0  0  0  0  0  0  0  0  0  0  0
   19.1448  -23.6059   -8.7324 N   0  0  0  0  0  0  0  0  0  0  0  0
   19.2300  -24.8735   -8.0381 C   0  0  0  0  0  0  0  0  0  0  0  0
   18.8434  -24.7441   -6.6107 C   0  0  0  0  0  0  0  0  0  0  0  0
   18.7322  -25.9062   -5.8635 O   0  0  0  0  0  0  0  0  0  0  0  0
   18.6103  -23.6537   -6.0337 O   0  0  0  0  0  0  0  0  0  0  0  0
  2  1  1  6
  3  2  1  0
  4  3  1  0
  5  6  1  0
  5  4  1  0
  7  6  1  0
  8  2  1  0
  8  9  2  0
 11 10  1  6
 11 12  1  0
 13 14  1  6
 13 11  1  0
 14  8  1  0
 15 13  1  0
 16 15  2  0
 17 15  1  0
 18 17  1  0
 19 18  1  0
 19 20  1  0
 21 19  2  0
M  END
$$$$
