KTG.pdb
     RDKit          3D

 21 20  0  0  1  0  0  0  0  0999 V2000
   20.1896  -23.0780   -8.8472 N   0  0  0  0  0  0  0  0  0  0  0  0
   19.5383  -22.9636  -10.1250 C   0  0  1  0  0  0  0  0  0  0  0  0
   18.0792  -22.9341   -9.9778 C   0  0  0  0  0  0  0  0  0  0  0  0
   17.4419  -24.2104  -10.4076 C   0  0  0  0  0  0  0  0  0  0  0  0
   17.9451  -25.4678   -9.7809 C   0  0  0  0  0  0  0  0  0  0  0  0
   17.1112  -26.6719  -10.2897 C   0  0  0  0  0  0  0  0  0  0  0  0
   17.6576  -27.9020   -9.7764 N   0  0  0  0  0  0  0  0  0  0  0  0
   20.1314  -21.8383  -10.8681 C   0  0  0  0  0  0  0  0  0  0  0  0
   20.5040  -20.8511  -10.1882 O   0  0  0  0  0  0  0  0  0  0  0  0
   23.1146  -20.1135  -14.0876 C   0  0  0  0  0  0  0  0  0  0  0  0
   22.2994  -21.2512  -13.5604 C   0  0  1  0  0  0  0  0  0  0  0  0
   23.0842  -21.9658  -12.6535 O   0  0  0  0  0  0  0  0  0  0  0  0
   21.0109  -20.7531  -12.8847 C   0  0  2  0  0  0  0  0  0  0  0  0
   20.2943  -21.8261  -12.2850 N   0  0  0  0  0  0  0  0  0  0  0  0
   20.2455  -19.9589  -13.8468 C   0  0  0  0  0  0  0  0  0  0  0  0
   19.6820  -20.5736  -14.7855 O   0  0  0  0  0  0  0  0  0  0  0  0
   20.0815  -18.5488  -13.8145 N   0  0  0  0  0  0  0  0  0  0  0  0
   19.2744  -17.8449  -14.7889 C   0  0  0  0  0  0  0  0  0  0  0  0
   19.9838  -17.6968  -16.0845 C   0  0  0  0  0  0  0  0  0  0  0  0
   19.3818  -16.9254  -17.0662 O   0  0  0  0  0  0  0  0  0  0  0  0
   21.0920  -18.2227  -16.3520 O   0  0  0  0  0  0  0  0  0  0  0  0
  2  1  1  1
  3  2  1  0
  4  3  1  0
  5  6  1  0
  5  4  1  0
  7  6  1  0
  8  2  1  0
  8  9  2  0
 11 10  1  1
 11 12  1  0
 13 14  1  6
 13 11  1  0
 14  8  1  0
 15 13  1  0
 16 15  2  0
 17 15  1  0
 18 17  1  0
 19 18  1  0
 19 20  1  0
 21 19  2  0
M  END
$$$$
