MHW.pdb
     RDKit          3D

 33 35  0  0  1  0  0  0  0  0999 V2000
    7.7043  -12.2953   18.9909 C   0  0  0  0  0  0  0  0  0  0  0  0
    6.8908  -13.9160   18.8664 S   0  0  0  0  0  0  0  0  0  0  0  0
    8.1242  -15.1961   18.3870 C   0  0  0  0  0  0  0  0  0  0  0  0
    7.5743  -16.5295   18.7405 C   0  0  0  0  0  0  0  0  0  0  0  0
    7.5477  -16.8758   20.1931 C   0  0  2  0  0  0  0  0  0  0  0  0
    6.6378  -15.9258   20.8770 N   0  0  0  0  0  0  0  0  0  0  0  0
    8.8420  -16.7824   20.8895 C   0  0  0  0  0  0  0  0  0  0  0  0
    9.7359  -17.6722   20.6812 O   0  0  0  0  0  0  0  0  0  0  0  0
    9.1932  -15.7685   21.7883 N   0  0  0  0  0  0  0  0  0  0  0  0
   10.4847  -15.7575   22.5013 C   0  0  1  0  0  0  0  0  0  0  0  0
   11.2389  -14.6131   21.8671 C   0  0  0  0  0  0  0  0  0  0  0  0
   12.1700  -14.9609   20.8083 C   0  0  0  0  0  0  0  0  0  0  0  0
   12.4904  -16.2376   20.4088 C   0  0  0  0  0  0  0  0  0  0  0  0
   13.3786  -16.1167   19.4151 N   0  0  0  0  0  0  0  0  0  0  0  0
   13.6082  -14.8205   19.1977 C   0  0  0  0  0  0  0  0  0  0  0  0
   12.8729  -14.1260   20.0449 N   0  0  0  0  0  0  0  0  0  0  0  0
   10.1716  -15.5981   23.9191 C   0  0  0  0  0  0  0  0  0  0  0  0
    9.3842  -14.6739   24.3256 O   0  0  0  0  0  0  0  0  0  0  0  0
   10.6896  -16.4281   24.9415 N   0  0  0  0  0  0  0  0  0  0  0  0
    9.9211  -16.6857   26.1825 C   0  0  1  0  0  0  0  0  0  0  0  0
    8.5186  -16.9898   25.7704 C   0  0  0  0  0  0  0  0  0  0  0  0
    7.6388  -15.8212   25.9174 C   0  0  0  0  0  0  0  0  0  0  0  0
    6.3292  -15.7349   25.4784 C   0  0  0  0  0  0  0  0  0  0  0  0
    5.8285  -14.5226   25.7391 N   0  0  0  0  0  0  0  0  0  0  0  0
    6.7944  -13.8211   26.3419 C   0  0  0  0  0  0  0  0  0  0  0  0
    6.8305  -12.5325   26.8409 C   0  0  0  0  0  0  0  0  0  0  0  0
    7.9596  -12.0210   27.4519 C   0  0  0  0  0  0  0  0  0  0  0  0
    9.0915  -12.8087   27.5741 C   0  0  0  0  0  0  0  0  0  0  0  0
    9.0548  -14.0824   27.0796 C   0  0  0  0  0  0  0  0  0  0  0  0
    7.9314  -14.6005   26.4675 C   0  0  0  0  0  0  0  0  0  0  0  0
   10.5937  -17.6111   27.0633 C   0  0  0  0  0  0  0  0  0  0  0  0
   10.6247  -17.4537   28.4525 O   0  0  0  0  0  0  0  0  0  0  0  0
   11.1950  -18.6141   26.5977 O   0  0  0  0  0  0  0  0  0  0  0  0
  1  2  1  0
  3  2  1  0
  4  3  1  0
  5  4  1  0
  5  6  1  1
  7  8  2  0
  7  5  1  0
  9  7  1  0
 10  9  1  0
 10 11  1  6
 12 11  1  0
 13 12  2  0
 14 13  1  0
 15 14  1  0
 15 16  2  0
 16 12  1  0
 17 19  1  0
 17 10  1  0
 18 17  2  0
 20 19  1  0
 20 31  1  0
 20 21  1  6
 22 30  1  0
 22 21  1  0
 23 22  2  0
 24 23  1  0
 24 25  1  0
 25 30  2  0
 26 25  1  0
 26 27  2  0
 27 28  1  0
 28 29  2  0
 30 29  1  0
 31 32  1  0
 33 31  2  0
M  END
$$$$
