MHW.pdb
     RDKit          3D

 33 35  0  0  1  0  0  0  0  0999 V2000
    3.1430  -17.8707   22.1580 C   0  0  0  0  0  0  0  0  0  0  0  0
    3.3856  -18.8409   20.6401 S   0  0  0  0  0  0  0  0  0  0  0  0
    5.1350  -19.4053   20.5355 C   0  0  0  0  0  0  0  0  0  0  0  0
    6.0020  -18.2103   20.3758 C   0  0  0  0  0  0  0  0  0  0  0  0
    7.4563  -18.3992   20.6587 C   0  0  2  0  0  0  0  0  0  0  0  0
    7.6308  -18.5013   22.1275 N   0  0  0  0  0  0  0  0  0  0  0  0
    8.3349  -17.3045   20.2133 C   0  0  0  0  0  0  0  0  0  0  0  0
    8.0922  -16.7116   19.1070 O   0  0  0  0  0  0  0  0  0  0  0  0
    9.4491  -16.8376   20.9201 N   0  0  0  0  0  0  0  0  0  0  0  0
    9.5372  -15.4573   21.4336 C   0  0  1  0  0  0  0  0  0  0  0  0
    8.1808  -14.8691   21.1259 C   0  0  0  0  0  0  0  0  0  0  0  0
    7.9666  -14.4177   19.7623 C   0  0  0  0  0  0  0  0  0  0  0  0
    8.0622  -13.1177   19.3231 C   0  0  0  0  0  0  0  0  0  0  0  0
    7.7904  -13.1349   18.0128 N   0  0  0  0  0  0  0  0  0  0  0  0
    7.5347  -14.3907   17.6422 C   0  0  0  0  0  0  0  0  0  0  0  0
    7.6432  -15.1627   18.7067 N   0  0  0  0  0  0  0  0  0  0  0  0
    9.8712  -15.5656   22.8515 C   0  0  0  0  0  0  0  0  0  0  0  0
   10.9994  -15.1602   23.3010 O   0  0  0  0  0  0  0  0  0  0  0  0
    9.0032  -16.1070   23.8293 N   0  0  0  0  0  0  0  0  0  0  0  0
    9.4811  -16.3971   25.2020 C   0  0  1  0  0  0  0  0  0  0  0  0
    8.2798  -16.7502   26.0154 C   0  0  0  0  0  0  0  0  0  0  0  0
    7.3835  -15.5991   26.1968 C   0  0  0  0  0  0  0  0  0  0  0  0
    6.0169  -15.6637   26.4057 C   0  0  0  0  0  0  0  0  0  0  0  0
    5.4998  -14.4337   26.4950 N   0  0  0  0  0  0  0  0  0  0  0  0
    6.5116  -13.5716   26.3479 C   0  0  0  0  0  0  0  0  0  0  0  0
    6.5628  -12.1904   26.3675 C   0  0  0  0  0  0  0  0  0  0  0  0
    7.7522  -11.5049   26.2084 C   0  0  0  0  0  0  0  0  0  0  0  0
    8.9309  -12.2071   26.0237 C   0  0  0  0  0  0  0  0  0  0  0  0
    8.8788  -13.5728   26.0039 C   0  0  0  0  0  0  0  0  0  0  0  0
    7.6950  -14.2649   26.1613 C   0  0  0  0  0  0  0  0  0  0  0  0
   10.6070  -17.3009   25.2125 C   0  0  0  0  0  0  0  0  0  0  0  0
   11.7255  -17.1141   26.0308 O   0  0  0  0  0  0  0  0  0  0  0  0
   10.6223  -18.3112   24.4617 O   0  0  0  0  0  0  0  0  0  0  0  0
  1  2  1  0
  3  2  1  0
  4  3  1  0
  5  4  1  0
  5  6  1  1
  7  8  2  0
  7  5  1  0
  9  7  1  0
 10  9  1  0
 10 11  1  1
 12 11  1  0
 13 12  2  0
 14 13  1  0
 15 14  1  0
 15 16  2  0
 16 12  1  0
 17 19  1  0
 17 10  1  0
 18 17  2  0
 20 19  1  0
 20 31  1  0
 20 21  1  1
 22 30  1  0
 22 21  1  0
 23 22  2  0
 24 23  1  0
 24 25  1  0
 25 30  2  0
 26 25  1  0
 26 27  2  0
 27 28  1  0
 28 29  2  0
 30 29  1  0
 31 32  1  0
 33 31  2  0
M  END
$$$$
