MHW.pdb
     RDKit          3D

 33 35  0  0  1  0  0  0  0  0999 V2000
    8.1722  -11.0769   19.0740 C   0  0  0  0  0  0  0  0  0  0  0  0
    8.3960  -12.6651   19.9295 S   0  0  0  0  0  0  0  0  0  0  0  0
    6.7729  -13.5187   20.0915 C   0  0  0  0  0  0  0  0  0  0  0  0
    6.9762  -14.7626   20.8768 C   0  0  0  0  0  0  0  0  0  0  0  0
    8.0581  -15.6785   20.4065 C   0  0  2  0  0  0  0  0  0  0  0  0
    7.5141  -16.5065   19.3034 N   0  0  0  0  0  0  0  0  0  0  0  0
    8.5726  -16.6203   21.4151 C   0  0  0  0  0  0  0  0  0  0  0  0
    7.7877  -17.0653   22.3207 O   0  0  0  0  0  0  0  0  0  0  0  0
    9.8902  -17.0896   21.4699 N   0  0  0  0  0  0  0  0  0  0  0  0
   10.3563  -18.0138   22.5212 C   0  0  1  0  0  0  0  0  0  0  0  0
   11.6009  -18.6340   21.9324 C   0  0  0  0  0  0  0  0  0  0  0  0
   12.2927  -19.6056   22.7610 C   0  0  0  0  0  0  0  0  0  0  0  0
   11.9115  -20.0007   24.0222 C   0  0  0  0  0  0  0  0  0  0  0  0
   12.8133  -20.9012   24.4306 N   0  0  0  0  0  0  0  0  0  0  0  0
   13.7232  -21.0666   23.4690 C   0  0  0  0  0  0  0  0  0  0  0  0
   13.4019  -20.2789   22.4605 N   0  0  0  0  0  0  0  0  0  0  0  0
   10.5608  -17.2049   23.7201 C   0  0  0  0  0  0  0  0  0  0  0  0
   11.3196  -16.1738   23.7042 O   0  0  0  0  0  0  0  0  0  0  0  0
    9.9537  -17.4753   24.9695 N   0  0  0  0  0  0  0  0  0  0  0  0
   10.3530  -16.7371   26.1912 C   0  0  1  0  0  0  0  0  0  0  0  0
   10.0588  -15.2944   25.9435 C   0  0  0  0  0  0  0  0  0  0  0  0
    8.6138  -15.0357   25.8640 C   0  0  0  0  0  0  0  0  0  0  0  0
    7.6350  -15.9836   25.6218 C   0  0  0  0  0  0  0  0  0  0  0  0
    6.4285  -15.4082   25.5791 N   0  0  0  0  0  0  0  0  0  0  0  0
    6.6104  -14.1003   25.7912 C   0  0  0  0  0  0  0  0  0  0  0  0
    5.7247  -13.0420   25.8694 C   0  0  0  0  0  0  0  0  0  0  0  0
    6.1533  -11.7526   26.1215 C   0  0  0  0  0  0  0  0  0  0  0  0
    7.5024  -11.4998   26.3024 C   0  0  0  0  0  0  0  0  0  0  0  0
    8.3772  -12.5470   26.2241 C   0  0  0  0  0  0  0  0  0  0  0  0
    7.9573  -13.8375   25.9721 C   0  0  0  0  0  0  0  0  0  0  0  0
    9.8372  -17.3461   27.3945 C   0  0  0  0  0  0  0  0  0  0  0  0
   10.1228  -16.8623   28.6751 O   0  0  0  0  0  0  0  0  0  0  0  0
    9.0980  -18.3628   27.3296 O   0  0  0  0  0  0  0  0  0  0  0  0
  1  2  1  0
  3  2  1  0
  4  3  1  0
  5  4  1  0
  5  6  1  6
  7  8  2  0
  7  5  1  0
  9  7  1  0
 10  9  1  0
 10 11  1  6
 12 11  1  0
 13 12  2  0
 14 13  1  0
 15 14  1  0
 15 16  2  0
 16 12  1  0
 17 19  1  0
 17 10  1  0
 18 17  2  0
 20 19  1  0
 20 31  1  0
 20 21  1  6
 22 30  1  0
 22 21  1  0
 23 22  2  0
 24 23  1  0
 24 25  1  0
 25 30  2  0
 26 25  1  0
 26 27  2  0
 27 28  1  0
 28 29  2  0
 30 29  1  0
 31 32  1  0
 33 31  2  0
M  END
$$$$
