MHW.pdb
     RDKit          3D

 33 35  0  0  1  0  0  0  0  0999 V2000
   21.6298  -60.1363   21.2685 C   0  0  0  0  0  0  0  0  0  0  0  0
   20.4954  -59.2548   22.3821 S   0  0  0  0  0  0  0  0  0  0  0  0
   20.9985  -57.4886   22.5120 C   0  0  0  0  0  0  0  0  0  0  0  0
   20.4125  -56.9268   23.7555 C   0  0  0  0  0  0  0  0  0  0  0  0
   19.3661  -55.8750   23.5833 C   0  0  2  0  0  0  0  0  0  0  0  0
   18.2850  -56.4345   22.7368 N   0  0  0  0  0  0  0  0  0  0  0  0
   19.8143  -54.6397   22.9186 C   0  0  0  0  0  0  0  0  0  0  0  0
   19.6785  -54.5197   21.6531 O   0  0  0  0  0  0  0  0  0  0  0  0
   20.3931  -53.5462   23.5730 N   0  0  0  0  0  0  0  0  0  0  0  0
   20.2341  -52.1615   23.0893 C   0  0  1  0  0  0  0  0  0  0  0  0
   21.6522  -51.6628   22.9458 C   0  0  0  0  0  0  0  0  0  0  0  0
   21.8731  -50.2546   23.2237 C   0  0  0  0  0  0  0  0  0  0  0  0
   23.0134  -49.5466   22.9226 C   0  0  0  0  0  0  0  0  0  0  0  0
   22.8085  -48.2930   23.3438 N   0  0  0  0  0  0  0  0  0  0  0  0
   21.5923  -48.2141   23.8866 C   0  0  0  0  0  0  0  0  0  0  0  0
   21.0311  -49.4058   23.8106 N   0  0  0  0  0  0  0  0  0  0  0  0
   19.4655  -52.2436   21.8499 C   0  0  0  0  0  0  0  0  0  0  0  0
   19.1585  -51.1916   21.1878 O   0  0  0  0  0  0  0  0  0  0  0  0
   19.0081  -53.4563   21.2818 N   0  0  0  0  0  0  0  0  0  0  0  0
   17.5671  -53.6847   21.0206 C   0  0  1  0  0  0  0  0  0  0  0  0
   17.1213  -54.7622   21.9531 C   0  0  0  0  0  0  0  0  0  0  0  0
   17.4654  -54.4555   23.3491 C   0  0  0  0  0  0  0  0  0  0  0  0
   16.5627  -54.2502   24.3777 C   0  0  0  0  0  0  0  0  0  0  0  0
   17.2069  -53.9576   25.5126 N   0  0  0  0  0  0  0  0  0  0  0  0
   18.5151  -53.9712   25.2351 C   0  0  0  0  0  0  0  0  0  0  0  0
   19.6317  -53.7578   26.0215 C   0  0  0  0  0  0  0  0  0  0  0  0
   20.9110  -53.8454   25.5064 C   0  0  0  0  0  0  0  0  0  0  0  0
   21.0939  -54.1539   24.1692 C   0  0  0  0  0  0  0  0  0  0  0  0
   19.9890  -54.3639   23.3926 C   0  0  0  0  0  0  0  0  0  0  0  0
   18.7080  -54.2777   23.8992 C   0  0  0  0  0  0  0  0  0  0  0  0
   16.8134  -52.4538   20.9835 C   0  0  0  0  0  0  0  0  0  0  0  0
   15.7594  -52.2332   20.0913 O   0  0  0  0  0  0  0  0  0  0  0  0
   17.0904  -51.5111   21.7703 O   0  0  0  0  0  0  0  0  0  0  0  0
  1  2  1  0
  3  2  1  0
  4  3  1  0
  5  4  1  0
  5  6  1  6
  7  8  2  0
  7  5  1  0
  9  7  1  0
 10  9  1  0
 10 11  1  6
 12 11  1  0
 13 12  2  0
 14 13  1  0
 15 14  1  0
 15 16  2  0
 16 12  1  0
 17 19  1  0
 17 10  1  0
 18 17  2  0
 20 19  1  0
 20 31  1  0
 20 21  1  1
 22 30  1  0
 22 21  1  0
 23 22  2  0
 24 23  1  0
 24 25  1  0
 25 30  2  0
 26 25  1  0
 26 27  2  0
 27 28  1  0
 28 29  2  0
 30 29  1  0
 31 32  1  0
 33 31  2  0
M  END
$$$$
