MHW.pdb
     RDKit          3D

 33 35  0  0  1  0  0  0  0  0999 V2000
    7.3393  -11.4060   18.8155 C   0  0  0  0  0  0  0  0  0  0  0  0
    7.8896  -12.8077   19.8335 S   0  0  0  0  0  0  0  0  0  0  0  0
    6.8107  -14.2661   19.5195 C   0  0  0  0  0  0  0  0  0  0  0  0
    7.2348  -15.3639   20.4254 C   0  0  0  0  0  0  0  0  0  0  0  0
    8.6176  -15.2719   20.9823 C   0  0  2  0  0  0  0  0  0  0  0  0
    9.5738  -15.3015   19.8496 N   0  0  0  0  0  0  0  0  0  0  0  0
    9.0107  -16.3681   21.8837 C   0  0  0  0  0  0  0  0  0  0  0  0
    8.1947  -16.7689   22.7825 O   0  0  0  0  0  0  0  0  0  0  0  0
   10.2405  -17.0352   21.8399 N   0  0  0  0  0  0  0  0  0  0  0  0
   10.6048  -18.0846   22.8107 C   0  0  1  0  0  0  0  0  0  0  0  0
   11.8348  -18.7225   22.2101 C   0  0  0  0  0  0  0  0  0  0  0  0
   11.6107  -19.6692   21.1320 C   0  0  0  0  0  0  0  0  0  0  0  0
   10.5883  -19.6120   20.2135 C   0  0  0  0  0  0  0  0  0  0  0  0
   10.7433  -20.6645   19.4015 N   0  0  0  0  0  0  0  0  0  0  0  0
   11.8164  -21.3549   19.7910 C   0  0  0  0  0  0  0  0  0  0  0  0
   12.3371  -20.7467   20.8397 N   0  0  0  0  0  0  0  0  0  0  0  0
   10.8048  -17.4103   24.0909 C   0  0  0  0  0  0  0  0  0  0  0  0
   11.6185  -16.4283   24.2044 O   0  0  0  0  0  0  0  0  0  0  0  0
   10.1346  -17.7661   25.2854 N   0  0  0  0  0  0  0  0  0  0  0  0
   10.3688  -17.0229   26.5462 C   0  0  1  0  0  0  0  0  0  0  0  0
   10.1725  -15.5747   26.2404 C   0  0  0  0  0  0  0  0  0  0  0  0
    8.7485  -15.2126   26.1942 C   0  0  0  0  0  0  0  0  0  0  0  0
    7.7011  -16.0815   25.9430 C   0  0  0  0  0  0  0  0  0  0  0  0
    6.5380  -15.4216   25.9382 N   0  0  0  0  0  0  0  0  0  0  0  0
    6.8156  -14.1365   26.1838 C   0  0  0  0  0  0  0  0  0  0  0  0
    6.0086  -13.0212   26.3076 C   0  0  0  0  0  0  0  0  0  0  0  0
    6.5316  -11.7732   26.5883 C   0  0  0  0  0  0  0  0  0  0  0  0
    7.8980  -11.6216   26.7520 C   0  0  0  0  0  0  0  0  0  0  0  0
    8.6949  -12.7251   26.6285 C   0  0  0  0  0  0  0  0  0  0  0  0
    8.1805  -13.9747   26.3477 C   0  0  0  0  0  0  0  0  0  0  0  0
    9.6503  -17.5925   27.6615 C   0  0  0  0  0  0  0  0  0  0  0  0
    8.7712  -18.6719   27.5292 O   0  0  0  0  0  0  0  0  0  0  0  0
    9.7910  -17.1208   28.8201 O   0  0  0  0  0  0  0  0  0  0  0  0
  1  2  1  0
  3  2  1  0
  4  3  1  0
  5  4  1  0
  5  6  1  6
  7  8  2  0
  7  5  1  0
  9  7  1  0
 10  9  1  0
 10 11  1  6
 12 11  1  0
 13 12  2  0
 14 13  1  0
 15 14  1  0
 15 16  2  0
 16 12  1  0
 17 19  1  0
 17 10  1  0
 18 17  2  0
 20 19  1  0
 20 31  1  0
 20 21  1  6
 22 30  1  0
 22 21  1  0
 23 22  2  0
 24 23  1  0
 24 25  1  0
 25 30  2  0
 26 25  1  0
 26 27  2  0
 27 28  1  0
 28 29  2  0
 30 29  1  0
 31 32  1  0
 33 31  2  0
M  END
$$$$
