MHW.pdb
     RDKit          3D

 33 35  0  0  1  0  0  0  0  0999 V2000
    7.9231  -11.9459   19.9275 C   0  0  0  0  0  0  0  0  0  0  0  0
    8.2480  -12.6195   18.2708 S   0  0  0  0  0  0  0  0  0  0  0  0
    7.4664  -14.2787   18.1095 C   0  0  0  0  0  0  0  0  0  0  0  0
    7.4523  -14.9200   19.4489 C   0  0  0  0  0  0  0  0  0  0  0  0
    8.7700  -15.3776   19.9828 C   0  0  2  0  0  0  0  0  0  0  0  0
    9.5183  -16.0195   18.8754 N   0  0  0  0  0  0  0  0  0  0  0  0
    8.7024  -16.3720   21.0669 C   0  0  0  0  0  0  0  0  0  0  0  0
    7.7323  -16.3334   21.8985 O   0  0  0  0  0  0  0  0  0  0  0  0
    9.6374  -17.3931   21.2726 N   0  0  0  0  0  0  0  0  0  0  0  0
    9.5788  -18.2946   22.4389 C   0  0  1  0  0  0  0  0  0  0  0  0
   10.3843  -19.4971   22.0082 C   0  0  0  0  0  0  0  0  0  0  0  0
   10.6556  -20.4928   23.0300 C   0  0  0  0  0  0  0  0  0  0  0  0
   11.4099  -20.2949   24.1631 C   0  0  0  0  0  0  0  0  0  0  0  0
   11.4112  -21.4550   24.8301 N   0  0  0  0  0  0  0  0  0  0  0  0
   10.6894  -22.3455   24.1474 C   0  0  0  0  0  0  0  0  0  0  0  0
   10.2345  -21.7561   23.0581 N   0  0  0  0  0  0  0  0  0  0  0  0
   10.1209  -17.5434   23.5682 C   0  0  0  0  0  0  0  0  0  0  0  0
   11.0235  -16.6509   23.4003 O   0  0  0  0  0  0  0  0  0  0  0  0
    9.7076  -17.7238   24.9096 N   0  0  0  0  0  0  0  0  0  0  0  0
   10.1716  -16.8136   25.9835 C   0  0  1  0  0  0  0  0  0  0  0  0
    9.8978  -15.4205   25.5215 C   0  0  0  0  0  0  0  0  0  0  0  0
    8.4925  -15.0412   25.7275 C   0  0  0  0  0  0  0  0  0  0  0  0
    7.3955  -15.8587   25.5187 C   0  0  0  0  0  0  0  0  0  0  0  0
    6.2628  -15.1923   25.7665 N   0  0  0  0  0  0  0  0  0  0  0  0
    6.6092  -13.9540   26.1340 C   0  0  0  0  0  0  0  0  0  0  0  0
    5.8602  -12.8568   26.5158 C   0  0  0  0  0  0  0  0  0  0  0  0
    6.4533  -11.6622   26.8778 C   0  0  0  0  0  0  0  0  0  0  0  0
    7.8328  -11.5472   26.8620 C   0  0  0  0  0  0  0  0  0  0  0  0
    8.5723  -12.6326   26.4835 C   0  0  0  0  0  0  0  0  0  0  0  0
    7.9876  -13.8289   26.1200 C   0  0  0  0  0  0  0  0  0  0  0  0
    9.6926  -17.2115   27.2861 C   0  0  0  0  0  0  0  0  0  0  0  0
   10.2286  -16.7149   28.4785 O   0  0  0  0  0  0  0  0  0  0  0  0
    8.7553  -18.0445   27.3952 O   0  0  0  0  0  0  0  0  0  0  0  0
  1  2  1  0
  3  2  1  0
  4  3  1  0
  5  4  1  0
  5  6  1  6
  7  8  2  0
  7  5  1  0
  9  7  1  0
 10  9  1  0
 10 11  1  6
 12 11  1  0
 13 12  2  0
 14 13  1  0
 15 14  1  0
 15 16  2  0
 16 12  1  0
 17 19  1  0
 17 10  1  0
 18 17  2  0
 20 19  1  0
 20 31  1  0
 20 21  1  6
 22 30  1  0
 22 21  1  0
 23 22  2  0
 24 23  1  0
 24 25  1  0
 25 30  2  0
 26 25  1  0
 26 27  2  0
 27 28  1  0
 28 29  2  0
 30 29  1  0
 31 32  1  0
 33 31  2  0
M  END
$$$$
