MHW.pdb
     RDKit          3D

 33 35  0  0  1  0  0  0  0  0999 V2000
    7.5522  -12.1134   19.4028 C   0  0  0  0  0  0  0  0  0  0  0  0
    8.3924  -12.9341   20.7901 S   0  0  0  0  0  0  0  0  0  0  0  0
    7.2392  -14.1158   21.6047 C   0  0  0  0  0  0  0  0  0  0  0  0
    6.9121  -15.1920   20.6351 C   0  0  0  0  0  0  0  0  0  0  0  0
    8.0400  -16.0765   20.2154 C   0  0  2  0  0  0  0  0  0  0  0  0
    7.4911  -17.1392   19.3392 N   0  0  0  0  0  0  0  0  0  0  0  0
    8.7442  -16.7660   21.3097 C   0  0  0  0  0  0  0  0  0  0  0  0
    8.1695  -17.7311   21.9201 O   0  0  0  0  0  0  0  0  0  0  0  0
   10.0331  -16.4490   21.7540 N   0  0  0  0  0  0  0  0  0  0  0  0
   10.7209  -17.2268   22.8020 C   0  0  1  0  0  0  0  0  0  0  0  0
   12.1656  -17.2289   22.3622 C   0  0  0  0  0  0  0  0  0  0  0  0
   12.5214  -18.1720   21.3167 C   0  0  0  0  0  0  0  0  0  0  0  0
   12.0096  -19.4405   21.1723 C   0  0  0  0  0  0  0  0  0  0  0  0
   12.5976  -19.9705   20.0932 N   0  0  0  0  0  0  0  0  0  0  0  0
   13.4430  -19.0752   19.5798 C   0  0  0  0  0  0  0  0  0  0  0  0
   13.3920  -17.9880   20.3257 N   0  0  0  0  0  0  0  0  0  0  0  0
   10.4470  -16.5478   24.0660 C   0  0  0  0  0  0  0  0  0  0  0  0
    9.8894  -15.3956   24.0937 O   0  0  0  0  0  0  0  0  0  0  0  0
   10.7585  -17.0867   25.3368 N   0  0  0  0  0  0  0  0  0  0  0  0
    9.9368  -16.7655   26.5278 C   0  0  1  0  0  0  0  0  0  0  0  0
    8.5370  -17.1805   26.2154 C   0  0  0  0  0  0  0  0  0  0  0  0
    7.6729  -16.0250   25.9339 C   0  0  0  0  0  0  0  0  0  0  0  0
    6.5252  -16.0431   25.1607 C   0  0  0  0  0  0  0  0  0  0  0  0
    5.9982  -14.8167   25.0790 N   0  0  0  0  0  0  0  0  0  0  0  0
    6.7871  -14.0030   25.7890 C   0  0  0  0  0  0  0  0  0  0  0  0
    6.7174  -12.6497   26.0613 C   0  0  0  0  0  0  0  0  0  0  0  0
    7.6579  -12.0182   26.8529 C   0  0  0  0  0  0  0  0  0  0  0  0
    8.7027  -12.7480   27.3936 C   0  0  0  0  0  0  0  0  0  0  0  0
    8.7709  -14.0859   27.1229 C   0  0  0  0  0  0  0  0  0  0  0  0
    7.8360  -14.7239   26.3329 C   0  0  0  0  0  0  0  0  0  0  0  0
   10.5360  -17.2392   27.7530 C   0  0  0  0  0  0  0  0  0  0  0  0
   11.7307  -17.9654   27.7849 O   0  0  0  0  0  0  0  0  0  0  0  0
    9.9860  -17.0128   28.8624 O   0  0  0  0  0  0  0  0  0  0  0  0
  1  2  1  0
  3  2  1  0
  4  3  1  0
  5  4  1  0
  5  6  1  6
  7  8  2  0
  7  5  1  0
  9  7  1  0
 10  9  1  0
 10 11  1  6
 12 11  1  0
 13 12  2  0
 14 13  1  0
 15 14  1  0
 15 16  2  0
 16 12  1  0
 17 19  1  0
 17 10  1  0
 18 17  2  0
 20 19  1  0
 20 31  1  0
 20 21  1  6
 22 30  1  0
 22 21  1  0
 23 22  2  0
 24 23  1  0
 24 25  1  0
 25 30  2  0
 26 25  1  0
 26 27  2  0
 27 28  1  0
 28 29  2  0
 30 29  1  0
 31 32  1  0
 33 31  2  0
M  END
$$$$
