MHW.pdb
     RDKit          3D

 33 35  0  0  1  0  0  0  0  0999 V2000
    9.4932  -10.9401   18.7502 C   0  0  0  0  0  0  0  0  0  0  0  0
    8.2641  -12.2724   18.8856 S   0  0  0  0  0  0  0  0  0  0  0  0
    9.1181  -13.9020   18.9550 C   0  0  0  0  0  0  0  0  0  0  0  0
    8.3887  -14.8489   18.0736 C   0  0  0  0  0  0  0  0  0  0  0  0
    8.9843  -16.2098   17.9196 C   0  0  2  0  0  0  0  0  0  0  0  0
    8.0961  -17.0047   17.0378 N   0  0  0  0  0  0  0  0  0  0  0  0
    9.1285  -16.9819   19.1653 C   0  0  0  0  0  0  0  0  0  0  0  0
    8.1621  -17.7156   19.5679 O   0  0  0  0  0  0  0  0  0  0  0  0
   10.2709  -16.9859   19.9740 N   0  0  0  0  0  0  0  0  0  0  0  0
   10.3877  -17.8391   21.1719 C   0  0  1  0  0  0  0  0  0  0  0  0
   11.6242  -18.6652   20.9091 C   0  0  0  0  0  0  0  0  0  0  0  0
   12.0788  -19.5122   21.9976 C   0  0  0  0  0  0  0  0  0  0  0  0
   11.2881  -20.3579   22.7403 C   0  0  0  0  0  0  0  0  0  0  0  0
   12.0910  -20.9469   23.6343 N   0  0  0  0  0  0  0  0  0  0  0  0
   13.3335  -20.4923   23.4629 C   0  0  0  0  0  0  0  0  0  0  0  0
   13.3192  -19.6237   22.4699 N   0  0  0  0  0  0  0  0  0  0  0  0
   10.4645  -16.9346   22.3163 C   0  0  0  0  0  0  0  0  0  0  0  0
   10.9292  -15.7478   22.1949 O   0  0  0  0  0  0  0  0  0  0  0  0
   10.0407  -17.2747   23.6229 N   0  0  0  0  0  0  0  0  0  0  0  0
    9.9908  -16.2589   24.7012 C   0  0  1  0  0  0  0  0  0  0  0  0
    9.1320  -15.1419   24.2071 C   0  0  0  0  0  0  0  0  0  0  0  0
    7.9669  -14.9211   25.0760 C   0  0  0  0  0  0  0  0  0  0  0  0
    6.9865  -15.8538   25.3662 C   0  0  0  0  0  0  0  0  0  0  0  0
    6.0523  -15.3177   26.1588 N   0  0  0  0  0  0  0  0  0  0  0  0
    6.4130  -14.0503   26.3879 C   0  0  0  0  0  0  0  0  0  0  0  0
    5.8371  -13.0444   27.1408 C   0  0  0  0  0  0  0  0  0  0  0  0
    6.4147  -11.7933   27.2455 C   0  0  0  0  0  0  0  0  0  0  0  0
    7.6013  -11.5267   26.5841 C   0  0  0  0  0  0  0  0  0  0  0  0
    8.1694  -12.5220   25.8393 C   0  0  0  0  0  0  0  0  0  0  0  0
    7.5985  -13.7738   25.7291 C   0  0  0  0  0  0  0  0  0  0  0  0
    9.6896  -16.8385   25.9888 C   0  0  0  0  0  0  0  0  0  0  0  0
   10.0877  -16.2576   27.1969 O   0  0  0  0  0  0  0  0  0  0  0  0
    9.0461  -17.9174   26.0690 O   0  0  0  0  0  0  0  0  0  0  0  0
  1  2  1  0
  3  2  1  0
  4  3  1  0
  5  4  1  0
  5  6  1  6
  7  8  2  0
  7  5  1  0
  9  7  1  0
 10  9  1  0
 10 11  1  6
 12 11  1  0
 13 12  2  0
 14 13  1  0
 15 14  1  0
 15 16  2  0
 16 12  1  0
 17 19  1  0
 17 10  1  0
 18 17  2  0
 20 19  1  0
 20 31  1  0
 20 21  1  6
 22 30  1  0
 22 21  1  0
 23 22  2  0
 24 23  1  0
 24 25  1  0
 25 30  2  0
 26 25  1  0
 26 27  2  0
 27 28  1  0
 28 29  2  0
 30 29  1  0
 31 32  1  0
 33 31  2  0
M  END
$$$$
