DIA.pdb
     RDKit          3D

 22 21  0  0  1  0  0  0  0  0999 V2000
   18.1755  -12.3394  -16.2081 N   0  0  0  0  0  0  0  0  0  0  0  0
   18.3910  -11.0018  -16.7188 C   0  0  1  0  0  0  0  0  0  0  0  0
   17.0629  -10.2885  -16.6795 C   0  0  0  0  0  0  0  0  0  0  0  0
   16.1786  -10.9017  -17.6956 C   0  0  0  0  0  0  0  0  0  0  0  0
   14.9733  -11.1018  -17.4213 O   0  0  0  0  0  0  0  0  0  0  0  0
   19.4243  -10.3415  -15.9183 C   0  0  0  0  0  0  0  0  0  0  0  0
   19.3145  -10.3116  -14.6690 O   0  0  0  0  0  0  0  0  0  0  0  0
   16.6434  -11.2620  -18.9434 O   0  0  0  0  0  0  0  0  0  0  0  0
   23.3523  -11.2950  -14.3707 C   0  0  0  0  0  0  0  0  0  0  0  0
   23.2212  -10.9467  -15.8621 C   0  0  0  0  0  0  0  0  0  0  0  0
   22.9595   -9.4932  -15.9676 C   0  0  2  0  0  0  0  0  0  0  0  0
   23.9356   -8.7518  -15.0770 C   0  0  0  0  0  0  0  0  0  0  0  0
   21.5763   -9.0451  -15.6173 C   0  0  2  0  0  0  0  0  0  0  0  0
   20.5782   -9.7125  -16.4692 N   0  0  0  0  0  0  0  0  0  0  0  0
   21.3879   -7.5818  -15.6379 C   0  0  0  0  0  0  0  0  0  0  0  0
   21.7380   -6.9315  -16.6466 O   0  0  0  0  0  0  0  0  0  0  0  0
   19.4848   -4.9877  -13.6921 C   0  0  0  0  0  0  0  0  0  0  0  0
   20.6449   -5.4330  -14.5325 C   0  0  2  0  0  0  0  0  0  0  0  0
   20.8217   -6.8569  -14.5584 N   0  0  0  0  0  0  0  0  0  0  0  0
   21.8494   -4.7094  -14.0667 C   0  0  0  0  0  0  0  0  0  0  0  0
   21.9227   -3.3465  -14.3189 O   0  0  0  0  0  0  0  0  0  0  0  0
   22.8064   -5.2407  -13.4612 O   0  0  0  0  0  0  0  0  0  0  0  0
  2  1  1  1
  3  4  1  0
  3  2  1  0
  4  8  1  0
  5  4  2  0
  6  2  1  0
  6  7  2  0
  9 10  1  0
 10 11  1  0
 11 12  1  1
 11 13  1  0
 13 14  1  6
 14  6  1  0
 15 13  1  0
 16 15  2  0
 18 19  1  0
 18 17  1  1
 19 15  1  0
 20 18  1  0
 21 20  1  0
 22 20  2  0
M  END
$$$$
