DIA.pdb
     RDKit          3D

 22 21  0  0  1  0  0  0  0  0999 V2000
   13.6441  -27.6455   -0.6882 N   0  0  0  0  0  0  0  0  0  0  0  0
   14.2526  -26.4158   -0.2256 C   0  0  1  0  0  0  0  0  0  0  0  0
   13.1662  -25.5957    0.4236 C   0  0  0  0  0  0  0  0  0  0  0  0
   12.2731  -25.0861   -0.6409 C   0  0  0  0  0  0  0  0  0  0  0  0
   11.0419  -25.0095   -0.4259 O   0  0  0  0  0  0  0  0  0  0  0  0
   15.3548  -26.7364    0.6837 C   0  0  0  0  0  0  0  0  0  0  0  0
   15.2494  -27.7133    1.4636 O   0  0  0  0  0  0  0  0  0  0  0  0
   12.7575  -24.6901   -1.8702 O   0  0  0  0  0  0  0  0  0  0  0  0
   20.3363  -26.8274   -1.0841 C   0  0  0  0  0  0  0  0  0  0  0  0
   19.0531  -27.2134   -0.3310 C   0  0  0  0  0  0  0  0  0  0  0  0
   18.9808  -26.3875    0.8958 C   0  0  2  0  0  0  0  0  0  0  0  0
   20.0702  -26.8297    1.8514 C   0  0  0  0  0  0  0  0  0  0  0  0
   17.6785  -26.4112    1.6308 C   0  0  2  0  0  0  0  0  0  0  0  0
   16.5728  -25.9998    0.7502 N   0  0  0  0  0  0  0  0  0  0  0  0
   17.6718  -25.6276    2.8810 C   0  0  0  0  0  0  0  0  0  0  0  0
   17.7884  -24.3840    2.8273 O   0  0  0  0  0  0  0  0  0  0  0  0
   16.8006  -26.2469    6.5072 C   0  0  0  0  0  0  0  0  0  0  0  0
   17.4571  -25.4825    5.3958 C   0  0  2  0  0  0  0  0  0  0  0  0
   17.5380  -26.2155    4.1648 N   0  0  0  0  0  0  0  0  0  0  0  0
   18.7767  -25.0180    5.8798 C   0  0  0  0  0  0  0  0  0  0  0  0
   18.8141  -23.8598    6.6438 O   0  0  0  0  0  0  0  0  0  0  0  0
   19.8613  -25.5967    5.6482 O   0  0  0  0  0  0  0  0  0  0  0  0
  2  1  1  1
  3  4  1  0
  3  2  1  0
  4  8  1  0
  5  4  2  0
  6  2  1  0
  6  7  2  0
  9 10  1  0
 10 11  1  0
 11 12  1  1
 11 13  1  0
 13 14  1  6
 14  6  1  0
 15 13  1  0
 16 15  2  0
 18 19  1  0
 18 17  1  1
 19 15  1  0
 20 18  1  0
 21 20  1  0
 22 20  2  0
M  END
$$$$
