DIA.pdb
     RDKit          3D

 22 21  0  0  1  0  0  0  0  0999 V2000
   18.1025  -11.1796  -18.4256 N   0  0  0  0  0  0  0  0  0  0  0  0
   19.2505  -10.3086  -18.5668 C   0  0  1  0  0  0  0  0  0  0  0  0
   18.8535   -9.1932  -19.5008 C   0  0  0  0  0  0  0  0  0  0  0  0
   18.9009   -9.7114  -20.8863 C   0  0  0  0  0  0  0  0  0  0  0  0
   18.7770   -8.9153  -21.8449 O   0  0  0  0  0  0  0  0  0  0  0  0
   19.6607   -9.8345  -17.2435 C   0  0  0  0  0  0  0  0  0  0  0  0
   18.7883   -9.5890  -16.3761 O   0  0  0  0  0  0  0  0  0  0  0  0
   19.0785  -11.0523  -21.1566 O   0  0  0  0  0  0  0  0  0  0  0  0
   22.4361  -12.0838  -15.9381 C   0  0  0  0  0  0  0  0  0  0  0  0
   22.2582  -11.2860  -14.6363 C   0  0  0  0  0  0  0  0  0  0  0  0
   22.5126   -9.8593  -14.9396 C   0  0  2  0  0  0  0  0  0  0  0  0
   22.9442   -9.1557  -13.6690 C   0  0  0  0  0  0  0  0  0  0  0  0
   21.3693   -9.0966  -15.5292 C   0  0  2  0  0  0  0  0  0  0  0  0
   21.0163   -9.6254  -16.8570 N   0  0  0  0  0  0  0  0  0  0  0  0
   21.5769   -7.6367  -15.5850 C   0  0  0  0  0  0  0  0  0  0  0  0
   22.4998   -7.1741  -16.2901 O   0  0  0  0  0  0  0  0  0  0  0  0
   19.7593   -4.5039  -14.5083 C   0  0  0  0  0  0  0  0  0  0  0  0
   20.9912   -5.2925  -14.8415 C   0  0  2  0  0  0  0  0  0  0  0  0
   20.7741   -6.7107  -14.8713 N   0  0  0  0  0  0  0  0  0  0  0  0
   22.0585   -4.8908  -13.8977 C   0  0  0  0  0  0  0  0  0  0  0  0
   22.6392   -3.6422  -14.0717 O   0  0  0  0  0  0  0  0  0  0  0  0
   22.4741   -5.5985  -12.9536 O   0  0  0  0  0  0  0  0  0  0  0  0
  2  1  1  1
  3  4  1  0
  3  2  1  0
  4  8  1  0
  5  4  2  0
  6  2  1  0
  6  7  2  0
  9 10  1  0
 10 11  1  0
 11 12  1  1
 11 13  1  0
 13 14  1  6
 14  6  1  0
 15 13  1  0
 16 15  2  0
 18 19  1  0
 18 17  1  1
 19 15  1  0
 20 18  1  0
 21 20  1  0
 22 20  2  0
M  END
$$$$
