DIA.pdb
     RDKit          3D

 22 21  0  0  1  0  0  0  0  0999 V2000
   19.6696  -11.3342  -18.0227 N   0  0  0  0  0  0  0  0  0  0  0  0
   20.3598  -10.0874  -18.2791 C   0  0  1  0  0  0  0  0  0  0  0  0
   19.8088   -9.5277  -19.5664 C   0  0  0  0  0  0  0  0  0  0  0  0
   20.4530  -10.2391  -20.6931 C   0  0  0  0  0  0  0  0  0  0  0  0
   21.5677  -10.7827  -20.5199 O   0  0  0  0  0  0  0  0  0  0  0  0
   20.1764   -9.1916  -17.1353 C   0  0  0  0  0  0  0  0  0  0  0  0
   19.0989   -9.2201  -16.4934 O   0  0  0  0  0  0  0  0  0  0  0  0
   19.8603  -10.3228  -21.9358 O   0  0  0  0  0  0  0  0  0  0  0  0
   23.5415   -9.5620  -14.3810 C   0  0  0  0  0  0  0  0  0  0  0  0
   22.1989   -8.9742  -13.9177 C   0  0  0  0  0  0  0  0  0  0  0  0
   22.0668   -7.6229  -14.5083 C   0  0  2  0  0  0  0  0  0  0  0  0
   21.8915   -6.6133  -13.3922 C   0  0  0  0  0  0  0  0  0  0  0  0
   20.9495   -7.4365  -15.4848 C   0  0  2  0  0  0  0  0  0  0  0  0
   21.1592   -8.2635  -16.6846 N   0  0  0  0  0  0  0  0  0  0  0  0
   20.6943   -6.0312  -15.8554 C   0  0  0  0  0  0  0  0  0  0  0  0
   21.6388   -5.3232  -16.2673 O   0  0  0  0  0  0  0  0  0  0  0  0
   17.6637   -3.7265  -16.0494 C   0  0  0  0  0  0  0  0  0  0  0  0
   19.1142   -4.0852  -16.1837 C   0  0  2  0  0  0  0  0  0  0  0  0
   19.4145   -5.4260  -15.7697 N   0  0  0  0  0  0  0  0  0  0  0  0
   19.9048   -3.0655  -15.4582 C   0  0  0  0  0  0  0  0  0  0  0  0
   20.1467   -3.2754  -14.1076 O   0  0  0  0  0  0  0  0  0  0  0  0
   20.3705   -2.0270  -15.9774 O   0  0  0  0  0  0  0  0  0  0  0  0
  2  1  1  1
  3  4  1  0
  3  2  1  0
  4  8  1  0
  5  4  2  0
  6  2  1  0
  6  7  2  0
  9 10  1  0
 10 11  1  0
 11 12  1  1
 11 13  1  0
 13 14  1  6
 14  6  1  0
 15 13  1  0
 16 15  2  0
 18 19  1  0
 18 17  1  1
 19 15  1  0
 20 18  1  0
 21 20  1  0
 22 20  2  0
M  END
$$$$
