DIA.pdb
     RDKit          3D

 22 21  0  0  1  0  0  0  0  0999 V2000
   19.9597   -4.5057  -18.3058 N   0  0  0  0  0  0  0  0  0  0  0  0
   20.0272   -3.9520  -16.9697 C   0  0  1  0  0  0  0  0  0  0  0  0
   19.1015   -2.7621  -16.9313 C   0  0  0  0  0  0  0  0  0  0  0  0
   19.7631   -1.6388  -17.6318 C   0  0  0  0  0  0  0  0  0  0  0  0
   21.0035   -1.6653  -17.8014 O   0  0  0  0  0  0  0  0  0  0  0  0
   19.6727   -4.9903  -15.9998 C   0  0  0  0  0  0  0  0  0  0  0  0
   18.7954   -5.8377  -16.2932 O   0  0  0  0  0  0  0  0  0  0  0  0
   19.0518   -0.5566  -18.1069 O   0  0  0  0  0  0  0  0  0  0  0  0
   21.9953   -9.1296  -12.5596 C   0  0  0  0  0  0  0  0  0  0  0  0
   20.7483   -8.2313  -12.5903 C   0  0  0  0  0  0  0  0  0  0  0  0
   21.0004   -7.1372  -13.5556 C   0  0  2  0  0  0  0  0  0  0  0  0
   22.2095   -6.3469  -13.0984 C   0  0  0  0  0  0  0  0  0  0  0  0
   19.8734   -6.1791  -13.7752 C   0  0  2  0  0  0  0  0  0  0  0  0
   20.2674   -5.1128  -14.7107 N   0  0  0  0  0  0  0  0  0  0  0  0
   19.3112   -5.6076  -12.5364 C   0  0  0  0  0  0  0  0  0  0  0  0
   19.9940   -4.8030  -11.8660 O   0  0  0  0  0  0  0  0  0  0  0  0
   15.9292   -5.1742  -10.9982 C   0  0  0  0  0  0  0  0  0  0  0  0
   17.4149   -5.3482  -10.8848 C   0  0  2  0  0  0  0  0  0  0  0  0
   18.0161   -5.9248  -12.0533 N   0  0  0  0  0  0  0  0  0  0  0  0
   17.6904   -6.1204   -9.6522 C   0  0  0  0  0  0  0  0  0  0  0  0
   17.4136   -5.5146   -8.4344 O   0  0  0  0  0  0  0  0  0  0  0  0
   18.1555   -7.2814   -9.6313 O   0  0  0  0  0  0  0  0  0  0  0  0
  2  1  1  6
  3  4  1  0
  3  2  1  0
  4  8  1  0
  5  4  2  0
  6  2  1  0
  6  7  2  0
  9 10  1  0
 10 11  1  0
 11 12  1  1
 11 13  1  0
 13 14  1  6
 14  6  1  0
 15 13  1  0
 16 15  2  0
 18 19  1  0
 18 17  1  6
 19 15  1  0
 20 18  1  0
 21 20  1  0
 22 20  2  0
M  END
$$$$
