DIA.pdb
     RDKit          3D

 22 21  0  0  1  0  0  0  0  0999 V2000
   24.0482  -19.0293  -18.6157 N   0  0  0  0  0  0  0  0  0  0  0  0
   23.3802  -20.0515  -17.8375 C   0  0  1  0  0  0  0  0  0  0  0  0
   22.9756  -21.1470  -18.7915 C   0  0  0  0  0  0  0  0  0  0  0  0
   22.0350  -20.5747  -19.7806 C   0  0  0  0  0  0  0  0  0  0  0  0
   22.1654  -20.8641  -20.9919 O   0  0  0  0  0  0  0  0  0  0  0  0
   24.2782  -20.5127  -16.7768 C   0  0  0  0  0  0  0  0  0  0  0  0
   24.3761  -21.7406  -16.5392 O   0  0  0  0  0  0  0  0  0  0  0  0
   21.0127  -19.7270  -19.4077 O   0  0  0  0  0  0  0  0  0  0  0  0
   28.5648  -18.4509  -16.8314 C   0  0  0  0  0  0  0  0  0  0  0  0
   28.0953  -19.7968  -16.2563 C   0  0  0  0  0  0  0  0  0  0  0  0
   27.3209  -19.5193  -15.0252 C   0  0  2  0  0  0  0  0  0  0  0  0
   28.1361  -19.9515  -13.8234 C   0  0  0  0  0  0  0  0  0  0  0  0
   25.9757  -20.1660  -14.9326 C   0  0  2  0  0  0  0  0  0  0  0  0
   25.0718  -19.6454  -15.9715 N   0  0  0  0  0  0  0  0  0  0  0  0
   25.3486  -20.0765  -13.5999 C   0  0  0  0  0  0  0  0  0  0  0  0
   25.1238  -18.9524  -13.1011 O   0  0  0  0  0  0  0  0  0  0  0  0
   23.8361  -22.4695  -11.0633 C   0  0  0  0  0  0  0  0  0  0  0  0
   24.4337  -21.1684  -11.5114 C   0  0  2  0  0  0  0  0  0  0  0  0
   24.9791  -21.2142  -12.8380 N   0  0  0  0  0  0  0  0  0  0  0  0
   25.4228  -20.7469  -10.4940 C   0  0  0  0  0  0  0  0  0  0  0  0
   24.9462  -20.3710   -9.2457 O   0  0  0  0  0  0  0  0  0  0  0  0
   26.6591  -20.7056  -10.6806 O   0  0  0  0  0  0  0  0  0  0  0  0
  2  1  1  6
  3  4  1  0
  3  2  1  0
  4  8  1  0
  5  4  2  0
  6  2  1  0
  6  7  2  0
  9 10  1  0
 10 11  1  0
 11 12  1  1
 11 13  1  0
 13 14  1  6
 14  6  1  0
 15 13  1  0
 16 15  2  0
 18 19  1  0
 18 17  1  1
 19 15  1  0
 20 18  1  0
 21 20  1  0
 22 20  2  0
M  END
$$$$
