DIA.pdb
     RDKit          3D

 22 21  0  0  1  0  0  0  0  0999 V2000
   19.2890  -12.1449  -18.0284 N   0  0  0  0  0  0  0  0  0  0  0  0
   20.3781  -11.4924  -17.3322 C   0  0  1  0  0  0  0  0  0  0  0  0
   21.5334  -11.3987  -18.2969 C   0  0  0  0  0  0  0  0  0  0  0  0
   22.1636  -12.7343  -18.3947 C   0  0  0  0  0  0  0  0  0  0  0  0
   22.0267  -13.5490  -17.4537 O   0  0  0  0  0  0  0  0  0  0  0  0
   19.9254  -10.1875  -16.8457 C   0  0  0  0  0  0  0  0  0  0  0  0
   19.2654   -9.4387  -17.6055 O   0  0  0  0  0  0  0  0  0  0  0  0
   22.9016  -13.1123  -19.4970 O   0  0  0  0  0  0  0  0  0  0  0  0
   16.8781   -6.8097  -14.3297 C   0  0  0  0  0  0  0  0  0  0  0  0
   18.1014   -7.2448  -13.5070 C   0  0  0  0  0  0  0  0  0  0  0  0
   18.6145   -8.5061  -14.0886 C   0  0  2  0  0  0  0  0  0  0  0  0
   19.1157   -9.3957  -12.9692 C   0  0  0  0  0  0  0  0  0  0  0  0
   19.7078   -8.3690  -15.0998 C   0  0  2  0  0  0  0  0  0  0  0  0
   20.1866   -9.6912  -15.5357 N   0  0  0  0  0  0  0  0  0  0  0  0
   20.8346   -7.5210  -14.6656 C   0  0  0  0  0  0  0  0  0  0  0  0
   21.6556   -7.9681  -13.8355 O   0  0  0  0  0  0  0  0  0  0  0  0
   22.4478   -4.2812  -15.7512 C   0  0  0  0  0  0  0  0  0  0  0  0
   22.1280   -5.3505  -14.7487 C   0  0  2  0  0  0  0  0  0  0  0  0
   21.0436   -6.2027  -15.1450 N   0  0  0  0  0  0  0  0  0  0  0  0
   21.9003   -4.6955  -13.4409 C   0  0  0  0  0  0  0  0  0  0  0  0
   23.0142   -4.3005  -12.7130 O   0  0  0  0  0  0  0  0  0  0  0  0
   20.7735   -4.4730  -12.9454 O   0  0  0  0  0  0  0  0  0  0  0  0
  2  1  1  6
  3  4  1  0
  3  2  1  0
  4  8  1  0
  5  4  2  0
  6  2  1  0
  6  7  2  0
  9 10  1  0
 10 11  1  0
 11 12  1  1
 11 13  1  0
 13 14  1  1
 14  6  1  0
 15 13  1  0
 16 15  2  0
 18 19  1  0
 18 17  1  6
 19 15  1  0
 20 18  1  0
 21 20  1  0
 22 20  2  0
M  END
$$$$
