PTT.pdb
     RDKit          3D

 22 22  0  0  1  0  0  0  0  0999 V2000
   17.7922  -11.5885  -15.1213 N   0  0  0  0  0  0  0  0  0  0  0  0
   17.2974  -12.9171  -15.5083 C   0  0  0  0  0  0  0  0  0  0  0  0
   17.8393  -12.9859  -16.9423 C   0  0  0  0  0  0  0  0  0  0  0  0
   19.2677  -12.5381  -16.7214 C   0  0  0  0  0  0  0  0  0  0  0  0
   19.1410  -11.5131  -15.6218 C   0  0  1  0  0  0  0  0  0  0  0  0
   19.4391  -10.1515  -16.0666 C   0  0  0  0  0  0  0  0  0  0  0  0
   20.5570   -9.9021  -16.5855 O   0  0  0  0  0  0  0  0  0  0  0  0
   17.4918   -7.8857  -18.4154 C   0  0  0  0  0  0  0  0  0  0  0  0
   17.6223   -7.1678  -17.0881 C   0  0  1  0  0  0  0  0  0  0  0  0
   16.5290   -7.4776  -16.2587 O   0  0  0  0  0  0  0  0  0  0  0  0
   18.8624   -7.7149  -16.3680 C   0  0  2  0  0  0  0  0  0  0  0  0
   18.5476   -9.0482  -15.9611 N   0  0  0  0  0  0  0  0  0  0  0  0
   19.1628   -6.7939  -15.2743 C   0  0  0  0  0  0  0  0  0  0  0  0
   18.5433   -6.8338  -14.1902 O   0  0  0  0  0  0  0  0  0  0  0  0
   21.9375   -6.4702  -13.0107 C   0  0  0  0  0  0  0  0  0  0  0  0
   21.9284   -5.2190  -13.8281 C   0  0  1  0  0  0  0  0  0  0  0  0
   22.8230   -5.3845  -14.8882 O   0  0  0  0  0  0  0  0  0  0  0  0
   20.5778   -4.8976  -14.4217 C   0  0  2  0  0  0  0  0  0  0  0  0
   20.1833   -5.8277  -15.4431 N   0  0  0  0  0  0  0  0  0  0  0  0
   20.6392   -3.5348  -14.9707 C   0  0  0  0  0  0  0  0  0  0  0  0
   20.7966   -2.4527  -14.1413 O   0  0  0  0  0  0  0  0  0  0  0  0
   20.5480   -3.3567  -16.1970 O   0  0  0  0  0  0  0  0  0  0  0  0
  1  2  1  0
  1  5  1  0
  2  3  1  0
  3  4  1  0
  5  4  1  0
  6 12  1  0
  5  6  1  6
  7  6  2  0
  9  8  1  6
  9 11  1  0
 10  9  1  0
 11 12  1  1
 11 13  1  0
 13 19  1  0
 14 13  2  0
 16 17  1  0
 16 15  1  6
 18 20  1  0
 18 16  1  0
 18 19  1  6
 20 21  1  0
 22 20  2  0
M  END
$$$$
