PTT.pdb
     RDKit          3D

 22 22  0  0  1  0  0  0  0  0999 V2000
   20.1401  -11.3933  -18.5234 N   0  0  0  0  0  0  0  0  0  0  0  0
   19.9222  -12.7266  -19.1019 C   0  0  0  0  0  0  0  0  0  0  0  0
   20.2050  -13.5924  -17.8670 C   0  0  0  0  0  0  0  0  0  0  0  0
   19.3794  -12.8690  -16.8254 C   0  0  0  0  0  0  0  0  0  0  0  0
   19.5077  -11.4211  -17.2292 C   0  0  1  0  0  0  0  0  0  0  0  0
   20.2768  -10.6229  -16.2742 C   0  0  0  0  0  0  0  0  0  0  0  0
   19.8392  -10.4670  -15.1058 O   0  0  0  0  0  0  0  0  0  0  0  0
   23.6687  -11.1589  -15.0736 C   0  0  0  0  0  0  0  0  0  0  0  0
   23.6934   -9.7494  -15.6276 C   0  0  1  0  0  0  0  0  0  0  0  0
   24.0893   -9.7649  -16.9775 O   0  0  0  0  0  0  0  0  0  0  0  0
   22.2578   -9.2065  -15.6185 C   0  0  2  0  0  0  0  0  0  0  0  0
   21.5166   -9.9864  -16.5590 N   0  0  0  0  0  0  0  0  0  0  0  0
   22.3377   -7.7813  -15.9303 C   0  0  0  0  0  0  0  0  0  0  0  0
   22.7995   -7.3690  -17.0154 O   0  0  0  0  0  0  0  0  0  0  0  0
   20.1922   -5.2931  -16.9841 C   0  0  0  0  0  0  0  0  0  0  0  0
   20.6129   -4.8372  -15.6244 C   0  0  1  0  0  0  0  0  0  0  0  0
   19.6436   -5.2499  -14.7070 O   0  0  0  0  0  0  0  0  0  0  0  0
   21.9342   -5.4157  -15.1777 C   0  0  2  0  0  0  0  0  0  0  0  0
   21.8805   -6.8377  -14.9796 N   0  0  0  0  0  0  0  0  0  0  0  0
   22.3224   -4.7425  -13.9294 C   0  0  0  0  0  0  0  0  0  0  0  0
   22.6433   -3.4080  -13.9247 O   0  0  0  0  0  0  0  0  0  0  0  0
   22.3617   -5.3842  -12.8662 O   0  0  0  0  0  0  0  0  0  0  0  0
  1  2  1  0
  1  5  1  0
  2  3  1  0
  3  4  1  0
  5  4  1  0
  6 12  1  0
  5  6  1  1
  7  6  2  0
  9  8  1  6
  9 11  1  0
 10  9  1  0
 11 12  1  6
 11 13  1  0
 13 19  1  0
 14 13  2  0
 16 17  1  0
 16 15  1  6
 18 20  1  0
 18 16  1  0
 18 19  1  1
 20 21  1  0
 22 20  2  0
M  END
$$$$
