PTT.pdb
     RDKit          3D

 22 22  0  0  1  0  0  0  0  0999 V2000
   17.8830  -12.6147  -16.8194 N   0  0  0  0  0  0  0  0  0  0  0  0
   18.3789  -13.8956  -17.3422 C   0  0  0  0  0  0  0  0  0  0  0  0
   19.8231  -13.4965  -17.6736 C   0  0  0  0  0  0  0  0  0  0  0  0
   20.2140  -12.7830  -16.3977 C   0  0  0  0  0  0  0  0  0  0  0  0
   18.9344  -12.1033  -15.9776 C   0  0  1  0  0  0  0  0  0  0  0  0
   18.9971  -10.6450  -16.0778 C   0  0  0  0  0  0  0  0  0  0  0  0
   18.9336  -10.1004  -17.2094 O   0  0  0  0  0  0  0  0  0  0  0  0
   16.7599   -8.2066  -15.2416 C   0  0  0  0  0  0  0  0  0  0  0  0
   17.9589   -7.7581  -14.4320 C   0  0  1  0  0  0  0  0  0  0  0  0
   17.9070   -8.3119  -13.1398 O   0  0  0  0  0  0  0  0  0  0  0  0
   19.2211   -8.3373  -15.0853 C   0  0  2  0  0  0  0  0  0  0  0  0
   19.1279   -9.7589  -14.9728 N   0  0  0  0  0  0  0  0  0  0  0  0
   20.3675   -7.7413  -14.4032 C   0  0  0  0  0  0  0  0  0  0  0  0
   20.9046   -8.2879  -13.4166 O   0  0  0  0  0  0  0  0  0  0  0  0
   23.7677   -6.6569  -15.9845 C   0  0  0  0  0  0  0  0  0  0  0  0
   23.0615   -5.4890  -15.3755 C   0  0  1  0  0  0  0  0  0  0  0  0
   22.3689   -4.8217  -16.3888 O   0  0  0  0  0  0  0  0  0  0  0  0
   22.0547   -5.8780  -14.3197 C   0  0  2  0  0  0  0  0  0  0  0  0
   20.8877   -6.5103  -14.8697 N   0  0  0  0  0  0  0  0  0  0  0  0
   21.6760   -4.6605  -13.5871 C   0  0  0  0  0  0  0  0  0  0  0  0
   22.5719   -4.0380  -12.7542 O   0  0  0  0  0  0  0  0  0  0  0  0
   20.5349   -4.1874  -13.7204 O   0  0  0  0  0  0  0  0  0  0  0  0
  1  2  1  0
  1  5  1  0
  2  3  1  0
  3  4  1  0
  5  4  1  0
  6 12  1  0
  5  6  1  6
  7  6  2  0
  9  8  1  6
  9 11  1  0
 10  9  1  0
 11 12  1  1
 11 13  1  0
 13 19  1  0
 14 13  2  0
 16 17  1  0
 16 15  1  6
 18 20  1  0
 18 16  1  0
 18 19  1  6
 20 21  1  0
 22 20  2  0
M  END
$$$$
