PTT.pdb
     RDKit          3D

 22 22  0  0  1  0  0  0  0  0999 V2000
   23.1445  -12.9479  -15.4741 N   0  0  0  0  0  0  0  0  0  0  0  0
   24.0434  -13.9624  -16.0421 C   0  0  0  0  0  0  0  0  0  0  0  0
   24.2953  -13.3395  -17.4217 C   0  0  0  0  0  0  0  0  0  0  0  0
   24.6106  -11.9126  -17.0291 C   0  0  0  0  0  0  0  0  0  0  0  0
   23.7098  -11.6750  -15.8425 C   0  0  1  0  0  0  0  0  0  0  0  0
   22.6448  -10.7087  -16.1123 C   0  0  0  0  0  0  0  0  0  0  0  0
   22.3961  -10.3792  -17.3000 O   0  0  0  0  0  0  0  0  0  0  0  0
   19.1096  -10.3208  -15.7830 C   0  0  0  0  0  0  0  0  0  0  0  0
   19.6372   -9.2142  -14.8935 C   0  0  1  0  0  0  0  0  0  0  0  0
   19.7255   -9.6612  -13.5626 O   0  0  0  0  0  0  0  0  0  0  0  0
   21.0756   -8.8979  -15.3253 C   0  0  2  0  0  0  0  0  0  0  0  0
   21.8391  -10.0880  -15.1179 N   0  0  0  0  0  0  0  0  0  0  0  0
   21.5129   -7.7438  -14.5432 C   0  0  0  0  0  0  0  0  0  0  0  0
   22.2600   -7.8661  -13.5494 O   0  0  0  0  0  0  0  0  0  0  0  0
   22.6916   -4.5444  -16.4735 C   0  0  0  0  0  0  0  0  0  0  0  0
   22.8399   -4.7398  -14.9992 C   0  0  1  0  0  0  0  0  0  0  0  0
   23.1588   -3.5064  -14.4260 O   0  0  0  0  0  0  0  0  0  0  0  0
   21.5825   -5.2390  -14.3286 C   0  0  2  0  0  0  0  0  0  0  0  0
   21.0805   -6.4492  -14.9180 N   0  0  0  0  0  0  0  0  0  0  0  0
   20.5722   -4.1740  -14.4148 C   0  0  0  0  0  0  0  0  0  0  0  0
   20.7232   -3.0074  -13.7076 O   0  0  0  0  0  0  0  0  0  0  0  0
   19.5705   -4.3276  -15.1336 O   0  0  0  0  0  0  0  0  0  0  0  0
  1  2  1  0
  1  5  1  0
  2  3  1  0
  3  4  1  0
  5  4  1  0
  6 12  1  0
  5  6  1  6
  7  6  2  0
  9  8  1  6
  9 11  1  0
 10  9  1  0
 11 12  1  1
 11 13  1  0
 13 19  1  0
 14 13  2  0
 16 17  1  0
 16 15  1  6
 18 20  1  0
 18 16  1  0
 18 19  1  6
 20 21  1  0
 22 20  2  0
M  END
$$$$
