PTT.pdb
     RDKit          3D

 22 22  0  0  1  0  0  0  0  0999 V2000
   26.6283  -20.3472   -6.0222 N   0  0  0  0  0  0  0  0  0  0  0  0
   27.4574  -20.4139   -4.8106 C   0  0  0  0  0  0  0  0  0  0  0  0
   28.7262  -19.7236   -5.3286 C   0  0  0  0  0  0  0  0  0  0  0  0
   28.1268  -18.5051   -5.9963 C   0  0  0  0  0  0  0  0  0  0  0  0
   26.8275  -19.0254   -6.5593 C   0  0  1  0  0  0  0  0  0  0  0  0
   26.8091  -19.0666   -8.0217 C   0  0  0  0  0  0  0  0  0  0  0  0
   27.2546  -18.0875   -8.6729 O   0  0  0  0  0  0  0  0  0  0  0  0
   28.1078  -21.9493   -9.9750 C   0  0  0  0  0  0  0  0  0  0  0  0
   26.7570  -21.6515  -10.5921 C   0  0  1  0  0  0  0  0  0  0  0  0
   25.7692  -22.4726  -10.0182 O   0  0  0  0  0  0  0  0  0  0  0  0
   26.3701  -20.2123  -10.2252 C   0  0  2  0  0  0  0  0  0  0  0  0
   26.3159  -20.1514   -8.7984 N   0  0  0  0  0  0  0  0  0  0  0  0
   25.1070  -19.9238  -10.9005 C   0  0  0  0  0  0  0  0  0  0  0  0
   24.0376  -19.7897  -10.2688 O   0  0  0  0  0  0  0  0  0  0  0  0
   24.8959  -17.3404  -14.1492 C   0  0  0  0  0  0  0  0  0  0  0  0
   24.2845  -18.6894  -14.3497 C   0  0  1  0  0  0  0  0  0  0  0  0
   25.2102  -19.4921  -15.0209 O   0  0  0  0  0  0  0  0  0  0  0  0
   23.9317  -19.3883  -13.0586 C   0  0  2  0  0  0  0  0  0  0  0  0
   25.0896  -19.7915  -12.3097 N   0  0  0  0  0  0  0  0  0  0  0  0
   23.1073  -20.5599  -13.3905 C   0  0  0  0  0  0  0  0  0  0  0  0
   21.8727  -20.4051  -13.9699 O   0  0  0  0  0  0  0  0  0  0  0  0
   23.5285  -21.7028  -13.1457 O   0  0  0  0  0  0  0  0  0  0  0  0
  1  2  1  0
  1  5  1  0
  2  3  1  0
  3  4  1  0
  5  4  1  0
  6 12  1  0
  5  6  1  6
  7  6  2  0
  9  8  1  1
  9 11  1  0
 10  9  1  0
 11 12  1  1
 11 13  1  0
 13 19  1  0
 14 13  2  0
 16 17  1  0
 16 15  1  1
 18 20  1  0
 18 16  1  0
 18 19  1  6
 20 21  1  0
 22 20  2  0
M  END
$$$$
