IAL.pdb
     RDKit          3D

 22 21  0  0  1  0  0  0  0  0999 V2000
    7.5356  -11.8961   19.1294 C   0  0  0  0  0  0  0  0  0  0  0  0
    7.7487  -13.4130   19.0521 C   0  0  0  0  0  0  0  0  0  0  0  0
    7.7710  -14.0065   20.4457 C   0  0  2  0  0  0  0  0  0  0  0  0
    8.8658  -13.3761   21.2830 C   0  0  0  0  0  0  0  0  0  0  0  0
    7.9070  -15.5071   20.3782 C   0  0  2  0  0  0  0  0  0  0  0  0
    6.8743  -16.0476   19.5504 N   0  0  0  0  0  0  0  0  0  0  0  0
    8.0068  -16.1080   21.7109 C   0  0  0  0  0  0  0  0  0  0  0  0
    6.9568  -16.0860   22.4286 O   0  0  0  0  0  0  0  0  0  0  0  0
   10.2023  -18.2631   23.8676 C   0  0  0  0  0  0  0  0  0  0  0  0
    9.1542  -17.1710   23.6263 C   0  0  2  0  0  0  0  0  0  0  0  0
    9.1633  -16.7106   22.2727 N   0  0  0  0  0  0  0  0  0  0  0  0
    9.4747  -16.0743   24.5964 C   0  0  0  0  0  0  0  0  0  0  0  0
   10.4820  -15.3588   24.4146 O   0  0  0  0  0  0  0  0  0  0  0  0
    6.1279  -12.3505   26.6507 C   0  0  0  0  0  0  0  0  0  0  0  0
    7.3427  -13.0745   26.0076 C   0  0  1  0  0  0  0  0  0  0  0  0
    8.2831  -11.9280   25.6576 C   0  0  0  0  0  0  0  0  0  0  0  0
    7.8338  -13.9998   27.0523 C   0  0  0  0  0  0  0  0  0  0  0  0
    8.9969  -14.8828   26.7958 C   0  0  2  0  0  0  0  0  0  0  0  0
    8.6398  -15.8467   25.7179 N   0  0  0  0  0  0  0  0  0  0  0  0
    9.6450  -15.5803   27.8867 C   0  0  0  0  0  0  0  0  0  0  0  0
    9.4172  -16.9812   28.0353 O   0  0  0  0  0  0  0  0  0  0  0  0
   10.4083  -15.1171   28.7565 O   0  0  0  0  0  0  0  0  0  0  0  0
  2  1  1  0
  3  2  1  0
  3  4  1  1
  5  3  1  0
  5  6  1  1
  7  5  1  0
  7 11  1  0
  8  7  2  0
 10  9  1  6
 10 11  1  0
 10 12  1  0
 12 19  1  0
 13 12  2  0
 15 14  1  1
 15 16  1  0
 17 15  1  0
 18 20  1  0
 18 17  1  1
 19 18  1  0
 20 21  1  0
 22 20  2  0
M  END
$$$$
