IAL.pdb
     RDKit          3D

 22 21  0  0  1  0  0  0  0  0999 V2000
    7.1247  -20.2575   27.8363 C   0  0  0  0  0  0  0  0  0  0  0  0
    6.5216  -20.2349   26.4263 C   0  0  0  0  0  0  0  0  0  0  0  0
    7.1897  -19.1612   25.5922 C   0  0  2  0  0  0  0  0  0  0  0  0
    6.9715  -17.7908   26.2016 C   0  0  0  0  0  0  0  0  0  0  0  0
    6.7079  -19.2259   24.1644 C   0  0  2  0  0  0  0  0  0  0  0  0
    6.8191  -20.5659   23.6788 N   0  0  0  0  0  0  0  0  0  0  0  0
    7.3484  -18.2105   23.3242 C   0  0  0  0  0  0  0  0  0  0  0  0
    8.5879  -18.3653   23.0841 O   0  0  0  0  0  0  0  0  0  0  0  0
    6.6158  -15.1438   21.2396 C   0  0  0  0  0  0  0  0  0  0  0  0
    7.4886  -16.0702   22.0935 C   0  0  2  0  0  0  0  0  0  0  0  0
    6.7151  -17.0741   22.7554 N   0  0  0  0  0  0  0  0  0  0  0  0
    8.2039  -15.1794   23.0638 C   0  0  0  0  0  0  0  0  0  0  0  0
    9.0497  -14.3601   22.6478 O   0  0  0  0  0  0  0  0  0  0  0  0
    5.6487  -12.3621   26.7168 C   0  0  0  0  0  0  0  0  0  0  0  0
    6.6524  -12.7614   25.6003 C   0  0  1  0  0  0  0  0  0  0  0  0
    7.2383  -11.4234   25.1671 C   0  0  0  0  0  0  0  0  0  0  0  0
    7.6034  -13.6872   26.2538 C   0  0  0  0  0  0  0  0  0  0  0  0
    8.6202  -14.4151   25.4571 C   0  0  2  0  0  0  0  0  0  0  0  0
    7.9243  -15.2634   24.4500 N   0  0  0  0  0  0  0  0  0  0  0  0
    9.6588  -15.1808   26.1141 C   0  0  0  0  0  0  0  0  0  0  0  0
    9.7768  -16.5714   25.8163 O   0  0  0  0  0  0  0  0  0  0  0  0
   10.5052  -14.7873   26.9403 O   0  0  0  0  0  0  0  0  0  0  0  0
  2  1  1  0
  3  2  1  0
  3  4  1  1
  5  3  1  0
  5  6  1  6
  7  5  1  0
  7 11  1  0
  8  7  2  0
 10  9  1  1
 10 11  1  0
 10 12  1  0
 12 19  1  0
 13 12  2  0
 15 14  1  1
 15 16  1  0
 17 15  1  0
 18 20  1  0
 18 17  1  1
 19 18  1  0
 20 21  1  0
 22 20  2  0
M  END
$$$$
