IAL.pdb
     RDKit          3D

 22 21  0  0  1  0  0  0  0  0999 V2000
    5.6907  -12.0931   26.4289 C   0  0  0  0  0  0  0  0  0  0  0  0
    5.4978  -13.4321   25.7065 C   0  0  0  0  0  0  0  0  0  0  0  0
    6.8389  -14.1012   25.4848 C   0  0  2  0  0  0  0  0  0  0  0  0
    7.7980  -13.1656   24.7765 C   0  0  0  0  0  0  0  0  0  0  0  0
    6.6638  -15.3997   24.7379 C   0  0  2  0  0  0  0  0  0  0  0  0
    5.6598  -16.1917   25.3772 N   0  0  0  0  0  0  0  0  0  0  0  0
    7.9419  -16.0826   24.5206 C   0  0  0  0  0  0  0  0  0  0  0  0
    8.1516  -17.1352   25.2033 O   0  0  0  0  0  0  0  0  0  0  0  0
   10.9882  -15.9795   22.2626 C   0  0  0  0  0  0  0  0  0  0  0  0
   10.0876  -16.5283   23.3749 C   0  0  2  0  0  0  0  0  0  0  0  0
    8.9640  -15.6792   23.6213 N   0  0  0  0  0  0  0  0  0  0  0  0
   10.9654  -16.6655   24.5821 C   0  0  0  0  0  0  0  0  0  0  0  0
   12.1293  -17.1006   24.4577 O   0  0  0  0  0  0  0  0  0  0  0  0
    9.7384  -13.7015   29.0893 C   0  0  0  0  0  0  0  0  0  0  0  0
   10.3377  -14.2874   27.7812 C   0  0  1  0  0  0  0  0  0  0  0  0
   11.4118  -13.2732   27.4082 C   0  0  0  0  0  0  0  0  0  0  0  0
   10.8364  -15.6289   28.1559 C   0  0  0  0  0  0  0  0  0  0  0  0
   11.2261  -16.6098   27.1148 C   0  0  2  0  0  0  0  0  0  0  0  0
   10.4798  -16.3037   25.8627 N   0  0  0  0  0  0  0  0  0  0  0  0
   11.1717  -18.0310   27.3866 C   0  0  0  0  0  0  0  0  0  0  0  0
   11.9926  -18.5612   28.4268 O   0  0  0  0  0  0  0  0  0  0  0  0
   10.4821  -18.9015   26.8205 O   0  0  0  0  0  0  0  0  0  0  0  0
  2  1  1  0
  3  2  1  0
  3  4  1  6
  5  3  1  0
  5  6  1  1
  7  5  1  0
  7 11  1  0
  8  7  2  0
 10  9  1  6
 10 11  1  0
 10 12  1  0
 12 19  1  0
 13 12  2  0
 15 14  1  1
 15 16  1  0
 17 15  1  0
 18 20  1  0
 18 17  1  1
 19 18  1  0
 20 21  1  0
 22 20  2  0
M  END
$$$$
