IAL.pdb
     RDKit          3D

 22 21  0  0  1  0  0  0  0  0999 V2000
    7.5545  -12.1209   18.8477 C   0  0  0  0  0  0  0  0  0  0  0  0
    7.7635  -13.6389   18.9125 C   0  0  0  0  0  0  0  0  0  0  0  0
    7.7154  -14.1094   20.3517 C   0  0  2  0  0  0  0  0  0  0  0  0
    8.7266  -13.3619   21.1977 C   0  0  0  0  0  0  0  0  0  0  0  0
    7.9133  -15.6028   20.4257 C   0  0  2  0  0  0  0  0  0  0  0  0
    6.9474  -16.2582   19.6003 N   0  0  0  0  0  0  0  0  0  0  0  0
    7.9663  -16.0798   21.8102 C   0  0  0  0  0  0  0  0  0  0  0  0
    6.8882  -16.0088   22.4815 O   0  0  0  0  0  0  0  0  0  0  0  0
   10.0042  -18.1450   24.1651 C   0  0  0  0  0  0  0  0  0  0  0  0
    9.0301  -17.0068   23.8410 C   0  0  2  0  0  0  0  0  0  0  0  0
    9.1060  -16.6122   22.4689 N   0  0  0  0  0  0  0  0  0  0  0  0
    9.3866  -15.8858   24.7699 C   0  0  0  0  0  0  0  0  0  0  0  0
   10.3978  -15.1888   24.5433 O   0  0  0  0  0  0  0  0  0  0  0  0
    6.1309  -12.0779   26.7456 C   0  0  0  0  0  0  0  0  0  0  0  0
    7.2671  -12.9093   26.0889 C   0  0  1  0  0  0  0  0  0  0  0  0
    8.1851  -11.8415   25.5071 C   0  0  0  0  0  0  0  0  0  0  0  0
    7.8442  -13.7076   27.1927 C   0  0  0  0  0  0  0  0  0  0  0  0
    8.9792  -14.6294   26.9473 C   0  0  2  0  0  0  0  0  0  0  0  0
    8.5813  -15.6142   25.9032 N   0  0  0  0  0  0  0  0  0  0  0  0
    9.6232  -15.3123   28.0499 C   0  0  0  0  0  0  0  0  0  0  0  0
    9.4537  -16.7238   28.1740 O   0  0  0  0  0  0  0  0  0  0  0  0
   10.3373  -14.8276   28.9493 O   0  0  0  0  0  0  0  0  0  0  0  0
  2  1  1  0
  3  2  1  0
  3  4  1  1
  5  3  1  0
  5  6  1  6
  7  5  1  0
  7 11  1  0
  8  7  2  0
 10  9  1  6
 10 11  1  0
 10 12  1  0
 12 19  1  0
 13 12  2  0
 15 14  1  1
 15 16  1  0
 17 15  1  0
 18 20  1  0
 18 17  1  1
 19 18  1  0
 20 21  1  0
 22 20  2  0
M  END
$$$$
