IAL.pdb
     RDKit          3D

 22 21  0  0  1  0  0  0  0  0999 V2000
    7.5378  -11.8594   20.7509 C   0  0  0  0  0  0  0  0  0  0  0  0
    7.2749  -13.3129   21.1635 C   0  0  0  0  0  0  0  0  0  0  0  0
    7.9559  -14.2593   20.1961 C   0  0  2  0  0  0  0  0  0  0  0  0
    7.5550  -13.9509   18.7674 C   0  0  0  0  0  0  0  0  0  0  0  0
    7.6645  -15.6921   20.5661 C   0  0  2  0  0  0  0  0  0  0  0  0
    6.3156  -16.0145   20.2190 N   0  0  0  0  0  0  0  0  0  0  0  0
    8.0303  -15.9839   21.9547 C   0  0  0  0  0  0  0  0  0  0  0  0
    7.6270  -15.1617   22.8376 O   0  0  0  0  0  0  0  0  0  0  0  0
   10.9520  -16.0001   22.0026 C   0  0  0  0  0  0  0  0  0  0  0  0
   10.1153  -16.9102   22.9087 C   0  0  2  0  0  0  0  0  0  0  0  0
    8.7906  -17.0958   22.4039 N   0  0  0  0  0  0  0  0  0  0  0  0
   10.1175  -16.2581   24.2584 C   0  0  0  0  0  0  0  0  0  0  0  0
   11.1968  -16.0820   24.8614 O   0  0  0  0  0  0  0  0  0  0  0  0
    6.1426  -12.6226   25.8718 C   0  0  0  0  0  0  0  0  0  0  0  0
    7.5459  -13.2043   25.5463 C   0  0  1  0  0  0  0  0  0  0  0  0
    8.4887  -12.0742   25.9404 C   0  0  0  0  0  0  0  0  0  0  0  0
    7.6510  -14.4315   26.3658 C   0  0  0  0  0  0  0  0  0  0  0  0
    8.8296  -15.3231   26.2464 C   0  0  2  0  0  0  0  0  0  0  0  0
    8.9007  -15.8413   24.8519 N   0  0  0  0  0  0  0  0  0  0  0  0
    9.0302  -16.4062   27.1862 C   0  0  0  0  0  0  0  0  0  0  0  0
    9.6618  -16.1220   28.4340 O   0  0  0  0  0  0  0  0  0  0  0  0
    8.7187  -17.6067   27.0616 O   0  0  0  0  0  0  0  0  0  0  0  0
  2  1  1  0
  3  2  1  0
  3  4  1  6
  5  3  1  0
  5  6  1  1
  7  5  1  0
  7 11  1  0
  8  7  2  0
 10  9  1  6
 10 11  1  0
 10 12  1  0
 12 19  1  0
 13 12  2  0
 15 14  1  1
 15 16  1  0
 17 15  1  0
 18 20  1  0
 18 17  1  1
 19 18  1  0
 20 21  1  0
 22 20  2  0
M  END
$$$$
