IAL.pdb
     RDKit          3D

 22 21  0  0  1  0  0  0  0  0999 V2000
    5.4836  -11.1353   26.2260 C   0  0  0  0  0  0  0  0  0  0  0  0
    5.1946  -12.5904   25.8371 C   0  0  0  0  0  0  0  0  0  0  0  0
    6.4928  -13.3266   25.5765 C   0  0  2  0  0  0  0  0  0  0  0  0
    7.3571  -12.5640   24.5924 C   0  0  0  0  0  0  0  0  0  0  0  0
    6.2170  -14.7344   25.1109 C   0  0  2  0  0  0  0  0  0  0  0  0
    5.2520  -15.3457   25.9705 N   0  0  0  0  0  0  0  0  0  0  0  0
    7.4517  -15.5014   24.9262 C   0  0  0  0  0  0  0  0  0  0  0  0
    7.8667  -16.1676   25.9273 O   0  0  0  0  0  0  0  0  0  0  0  0
   10.1554  -16.2301   22.3698 C   0  0  0  0  0  0  0  0  0  0  0  0
    9.3468  -16.4515   23.6530 C   0  0  2  0  0  0  0  0  0  0  0  0
    8.2247  -15.5695   23.7370 N   0  0  0  0  0  0  0  0  0  0  0  0
   10.3094  -16.2477   24.7838 C   0  0  0  0  0  0  0  0  0  0  0  0
   11.2350  -15.4172   24.6697 O   0  0  0  0  0  0  0  0  0  0  0  0
   10.6269  -13.9061   29.1127 C   0  0  0  0  0  0  0  0  0  0  0  0
   10.9907  -14.6016   27.7719 C   0  0  1  0  0  0  0  0  0  0  0  0
   12.3729  -14.0435   27.4567 C   0  0  0  0  0  0  0  0  0  0  0  0
   10.9451  -16.0504   28.0676 C   0  0  0  0  0  0  0  0  0  0  0  0
   11.2452  -17.0482   27.0128 C   0  0  2  0  0  0  0  0  0  0  0  0
   10.1730  -16.9933   25.9805 N   0  0  0  0  0  0  0  0  0  0  0  0
   11.5241  -18.4255   27.3618 C   0  0  0  0  0  0  0  0  0  0  0  0
   12.7423  -18.7266   28.0415 O   0  0  0  0  0  0  0  0  0  0  0  0
   10.8254  -19.4352   27.1467 O   0  0  0  0  0  0  0  0  0  0  0  0
  2  1  1  0
  3  2  1  0
  3  4  1  6
  5  3  1  0
  5  6  1  1
  7  5  1  0
  7 11  1  0
  8  7  2  0
 10  9  1  6
 10 11  1  0
 10 12  1  0
 12 19  1  0
 13 12  2  0
 15 14  1  1
 15 16  1  0
 17 15  1  0
 18 20  1  0
 18 17  1  1
 19 18  1  0
 20 21  1  0
 22 20  2  0
M  END
$$$$
