IAL.pdb
     RDKit          3D

 22 21  0  0  1  0  0  0  0  0999 V2000
    7.1147  -13.3693   24.6940 C   0  0  0  0  0  0  0  0  0  0  0  0
    7.3768  -14.7530   24.0867 C   0  0  0  0  0  0  0  0  0  0  0  0
    7.8809  -14.6099   22.6652 C   0  0  2  0  0  0  0  0  0  0  0  0
    6.8619  -13.8945   21.8010 C   0  0  0  0  0  0  0  0  0  0  0  0
    8.2529  -15.9575   22.0990 C   0  0  2  0  0  0  0  0  0  0  0  0
    7.0978  -16.7989   22.0596 N   0  0  0  0  0  0  0  0  0  0  0  0
    9.4140  -16.5358   22.7806 C   0  0  0  0  0  0  0  0  0  0  0  0
    9.2461  -17.6676   23.3364 O   0  0  0  0  0  0  0  0  0  0  0  0
   13.1519  -16.0627   23.0542 C   0  0  0  0  0  0  0  0  0  0  0  0
   11.8029  -16.7048   23.3967 C   0  0  2  0  0  0  0  0  0  0  0  0
   10.7045  -15.9514   22.8771 N   0  0  0  0  0  0  0  0  0  0  0  0
   11.7630  -16.8008   24.8920 C   0  0  0  0  0  0  0  0  0  0  0  0
   12.7362  -17.2811   25.5099 O   0  0  0  0  0  0  0  0  0  0  0  0
    8.5582  -13.2963   27.8018 C   0  0  0  0  0  0  0  0  0  0  0  0
    9.8760  -14.0335   27.4362 C   0  0  1  0  0  0  0  0  0  0  0  0
   10.8771  -13.4692   28.4365 C   0  0  0  0  0  0  0  0  0  0  0  0
    9.5662  -15.4716   27.5931 C   0  0  0  0  0  0  0  0  0  0  0  0
   10.4963  -16.5067   27.0816 C   0  0  2  0  0  0  0  0  0  0  0  0
   10.6262  -16.3491   25.6062 N   0  0  0  0  0  0  0  0  0  0  0  0
   10.2976  -17.9021   27.4132 C   0  0  0  0  0  0  0  0  0  0  0  0
   10.5701  -18.3349   28.7455 O   0  0  0  0  0  0  0  0  0  0  0  0
    9.9055  -18.8252   26.6730 O   0  0  0  0  0  0  0  0  0  0  0  0
  2  1  1  0
  3  2  1  0
  3  4  1  6
  5  3  1  0
  5  6  1  1
  7  5  1  0
  7 11  1  0
  8  7  2  0
 10  9  1  1
 10 11  1  0
 10 12  1  0
 12 19  1  0
 13 12  2  0
 15 14  1  1
 15 16  1  0
 17 15  1  0
 18 20  1  0
 18 17  1  6
 19 18  1  0
 20 21  1  0
 22 20  2  0
M  END
$$$$
