IAL.pdb
     RDKit          3D

 22 21  0  0  1  0  0  0  0  0999 V2000
    8.0222  -11.8231   18.6774 C   0  0  0  0  0  0  0  0  0  0  0  0
    8.3189  -13.3271   18.6292 C   0  0  0  0  0  0  0  0  0  0  0  0
    7.9226  -13.9775   19.9388 C   0  0  2  0  0  0  0  0  0  0  0  0
    8.5489  -13.2517   21.1127 C   0  0  0  0  0  0  0  0  0  0  0  0
    8.2773  -15.4433   19.9287 C   0  0  2  0  0  0  0  0  0  0  0  0
    7.6131  -16.0922   18.8416 N   0  0  0  0  0  0  0  0  0  0  0  0
    8.0685  -16.0659   21.2386 C   0  0  0  0  0  0  0  0  0  0  0  0
    6.8640  -16.1860   21.6297 O   0  0  0  0  0  0  0  0  0  0  0  0
    9.4134  -18.3691   23.7209 C   0  0  0  0  0  0  0  0  0  0  0  0
    8.7506  -17.0213   23.4151 C   0  0  2  0  0  0  0  0  0  0  0  0
    9.0831  -16.5459   22.1084 N   0  0  0  0  0  0  0  0  0  0  0  0
    9.2130  -16.0844   24.4899 C   0  0  0  0  0  0  0  0  0  0  0  0
   10.3478  -15.5678   24.4178 O   0  0  0  0  0  0  0  0  0  0  0  0
    6.0185  -12.3031   26.5989 C   0  0  0  0  0  0  0  0  0  0  0  0
    7.1423  -13.1308   25.9167 C   0  0  1  0  0  0  0  0  0  0  0  0
    8.0453  -12.0600   25.3172 C   0  0  0  0  0  0  0  0  0  0  0  0
    7.7447  -13.9295   27.0066 C   0  0  0  0  0  0  0  0  0  0  0  0
    8.8080  -14.9221   26.7193 C   0  0  2  0  0  0  0  0  0  0  0  0
    8.3682  -15.7830   25.5862 N   0  0  0  0  0  0  0  0  0  0  0  0
    9.3533  -15.7430   27.7801 C   0  0  0  0  0  0  0  0  0  0  0  0
   10.1847  -15.1279   28.7635 O   0  0  0  0  0  0  0  0  0  0  0  0
    9.1973  -16.9649   27.9711 O   0  0  0  0  0  0  0  0  0  0  0  0
  2  1  1  0
  3  2  1  0
  3  4  1  1
  5  3  1  0
  5  6  1  6
  7  5  1  0
  7 11  1  0
  8  7  2  0
 10  9  1  1
 10 11  1  0
 10 12  1  0
 12 19  1  0
 13 12  2  0
 15 14  1  1
 15 16  1  0
 17 15  1  0
 18 20  1  0
 18 17  1  1
 19 18  1  0
 20 21  1  0
 22 20  2  0
M  END
$$$$
