RWY.pdb
     RDKit          3D

 38 40  0  0  1  0  0  0  0  0999 V2000
   21.4578  -27.6056  -15.4064 N   0  0  0  0  0  0  0  0  0  0  0  0
   22.6157  -27.9986  -16.1232 C   0  0  0  0  0  0  0  0  0  0  0  0
   22.4912  -28.6747  -17.2073 N   0  0  0  0  0  0  0  0  0  0  0  0
   23.9203  -27.6675  -15.6775 N   0  0  0  0  0  0  0  0  0  0  0  0
   24.1885  -26.8752  -14.4768 C   0  0  0  0  0  0  0  0  0  0  0  0
   24.3340  -25.4441  -14.9272 C   0  0  0  0  0  0  0  0  0  0  0  0
   25.6992  -24.9250  -14.5762 C   0  0  0  0  0  0  0  0  0  0  0  0
   25.7774  -23.4567  -14.7435 C   0  0  2  0  0  0  0  0  0  0  0  0
   27.0237  -22.9738  -15.2421 N   0  0  0  0  0  0  0  0  0  0  0  0
   25.3364  -22.7127  -13.5158 C   0  0  0  0  0  0  0  0  0  0  0  0
   24.2197  -23.0127  -13.0137 O   0  0  0  0  0  0  0  0  0  0  0  0
   23.3239  -29.0305  -17.7220 N   0  0  0  0  0  0  0  0  0  0  0  0
   26.0753  -21.7065  -12.8851 C   0  0  1  0  0  0  0  0  0  0  0  0
   25.6350  -20.9556  -11.7132 C   0  0  0  0  0  0  0  0  0  0  0  0
   26.7424  -19.9694  -11.4139 C   0  0  0  0  0  0  0  0  0  0  0  0
   27.8013  -20.5004  -10.5518 C   0  0  0  0  0  0  0  0  0  0  0  0
   28.9330  -21.1957  -10.9844 N   0  0  0  0  0  0  0  0  0  0  0  0
   29.6499  -21.5064   -9.8927 C   0  0  0  0  0  0  0  0  0  0  0  0
   29.0122  -21.0331   -8.7918 C   0  0  0  0  0  0  0  0  0  0  0  0
   29.2840  -21.0612   -7.4370 C   0  0  0  0  0  0  0  0  0  0  0  0
   28.4195  -20.4765   -6.5462 C   0  0  0  0  0  0  0  0  0  0  0  0
   27.2569  -19.8428   -6.9506 C   0  0  0  0  0  0  0  0  0  0  0  0
   26.9838  -19.8124   -8.2899 C   0  0  0  0  0  0  0  0  0  0  0  0
   27.8536  -20.4016   -9.1943 C   0  0  0  0  0  0  0  0  0  0  0  0
   24.4286  -20.1317  -12.0432 O   0  0  0  0  0  0  0  0  0  0  0  0
   24.5644  -19.2343  -12.8959 O   0  0  0  0  0  0  0  0  0  0  0  0
   17.6969  -20.7323  -16.9361 C   0  0  0  0  0  0  0  0  0  0  0  0
   18.7820  -20.8061  -16.0734 C   0  0  0  0  0  0  0  0  0  0  0  0
   18.8622  -21.8968  -15.2119 C   0  0  0  0  0  0  0  0  0  0  0  0
   19.9418  -21.9593  -14.3611 C   0  0  0  0  0  0  0  0  0  0  0  0
   20.9340  -20.9827  -14.3391 C   0  0  0  0  0  0  0  0  0  0  0  0
   22.0682  -21.0797  -13.4026 C   0  0  2  0  0  0  0  0  0  0  0  0
   21.9728  -20.2150  -12.1930 N   0  0  0  0  0  0  0  0  0  0  0  0
   23.1933  -20.3559  -11.4213 C   0  0  0  0  0  0  0  0  0  0  0  0
   20.7763  -20.5439  -11.3769 O   0  0  0  0  0  0  0  0  0  0  0  0
   19.5354  -19.9609  -11.6350 C   0  0  0  0  0  0  0  0  0  0  0  0
   20.8493  -19.9025  -15.1964 C   0  0  0  0  0  0  0  0  0  0  0  0
   19.7694  -19.8444  -16.0451 O   0  0  0  0  0  0  0  0  0  0  0  0
  2  3  2  0
  2  1  1  0
  4  2  1  0
  5  4  1  0
  6  7  1  0
  6  5  1  0
  8 10  1  0
  8  7  1  0
  8  9  1  1
 10 12  1  0
 11 10  2  0
 12 13  1  0
 13 24  1  0
 13 14  1  1
 14 15  1  0
 15 16  2  0
 17 16  1  0
 18 17  1  0
 19 18  2  0
 20 19  1  0
 21 22  1  0
 21 20  2  0
 22 23  2  0
 23 18  1  0
 23 15  1  0
 24 25  2  0
 24 33  1  0
 27 26  1  0
 27 37  2  0
 28 27  1  0
 29 28  2  0
 29 30  1  0
 30 36  2  0
 31 30  1  0
 32 31  1  6
 33 32  1  0
 34 32  1  0
 34 35  1  0
 36 37  1  0
 38 34  2  0
M  END
$$$$
