RWY.pdb
     RDKit          3D

 38 40  0  0  1  0  0  0  0  0999 V2000
   28.2542  -21.4805  -19.8510 N   0  0  0  0  0  0  0  0  0  0  0  0
   28.3121  -22.8728  -20.1105 C   0  0  0  0  0  0  0  0  0  0  0  0
   29.3575  -23.3717  -20.6635 N   0  0  0  0  0  0  0  0  0  0  0  0
   27.2421  -23.7414  -19.7773 N   0  0  0  0  0  0  0  0  0  0  0  0
   26.4359  -23.6038  -18.5638 C   0  0  0  0  0  0  0  0  0  0  0  0
   26.8967  -22.3421  -17.8799 C   0  0  0  0  0  0  0  0  0  0  0  0
   26.1623  -22.1560  -16.5828 C   0  0  0  0  0  0  0  0  0  0  0  0
   26.7079  -23.0336  -15.5234 C   0  0  2  0  0  0  0  0  0  0  0  0
   26.7148  -24.4247  -15.8394 N   0  0  0  0  0  0  0  0  0  0  0  0
   26.0933  -22.7649  -14.1798 C   0  0  0  0  0  0  0  0  0  0  0  0
   25.4178  -23.6854  -13.6455 O   0  0  0  0  0  0  0  0  0  0  0  0
   29.3949  -24.3738  -20.9453 N   0  0  0  0  0  0  0  0  0  0  0  0
   26.2143  -21.5637  -13.4737 C   0  0  1  0  0  0  0  0  0  0  0  0
   25.3720  -21.1661  -12.3496 C   0  0  0  0  0  0  0  0  0  0  0  0
   26.1707  -20.1395  -11.5771 C   0  0  0  0  0  0  0  0  0  0  0  0
   27.3394  -20.6870  -10.8838 C   0  0  0  0  0  0  0  0  0  0  0  0
   28.4186  -21.3337  -11.4908 N   0  0  0  0  0  0  0  0  0  0  0  0
   29.2737  -21.6803  -10.5156 C   0  0  0  0  0  0  0  0  0  0  0  0
   28.7731  -21.2764   -9.3202 C   0  0  0  0  0  0  0  0  0  0  0  0
   29.2153  -21.3643   -8.0138 C   0  0  0  0  0  0  0  0  0  0  0  0
   28.4613  -20.8441   -6.9922 C   0  0  0  0  0  0  0  0  0  0  0  0
   27.2460  -20.2188   -7.2137 C   0  0  0  0  0  0  0  0  0  0  0  0
   26.8044  -20.1296   -8.5045 C   0  0  0  0  0  0  0  0  0  0  0  0
   27.5621  -20.6534   -9.5405 C   0  0  0  0  0  0  0  0  0  0  0  0
   24.1494  -20.4527  -12.8392 O   0  0  0  0  0  0  0  0  0  0  0  0
   24.0586  -20.2479  -14.0642 O   0  0  0  0  0  0  0  0  0  0  0  0
   16.5743  -24.0268  -13.2400 C   0  0  0  0  0  0  0  0  0  0  0  0
   17.8413  -23.5058  -13.0155 C   0  0  0  0  0  0  0  0  0  0  0  0
   18.3154  -23.4747  -11.7069 C   0  0  0  0  0  0  0  0  0  0  0  0
   19.5723  -22.9559  -11.4963 C   0  0  0  0  0  0  0  0  0  0  0  0
   20.3649  -22.4719  -12.5337 C   0  0  0  0  0  0  0  0  0  0  0  0
   21.7014  -21.9113  -12.2642 C   0  0  2  0  0  0  0  0  0  0  0  0
   21.7702  -20.4241  -12.2080 N   0  0  0  0  0  0  0  0  0  0  0  0
   23.1441  -20.0295  -11.9599 C   0  0  0  0  0  0  0  0  0  0  0  0
   20.8546  -19.8715  -11.1774 O   0  0  0  0  0  0  0  0  0  0  0  0
   21.2463  -19.7504   -9.8439 C   0  0  0  0  0  0  0  0  0  0  0  0
   19.8893  -22.5055  -13.8304 C   0  0  0  0  0  0  0  0  0  0  0  0
   18.6335  -23.0251  -14.0363 O   0  0  0  0  0  0  0  0  0  0  0  0
  2  3  2  0
  2  1  1  0
  4  2  1  0
  5  4  1  0
  6  7  1  0
  6  5  1  0
  8 10  1  0
  8  7  1  0
  8  9  1  6
 10 12  1  0
 11 10  2  0
 12 13  1  0
 13 24  1  0
 13 14  1  1
 14 15  1  0
 15 16  2  0
 17 16  1  0
 18 17  1  0
 19 18  2  0
 20 19  1  0
 21 22  1  0
 21 20  2  0
 22 23  2  0
 23 18  1  0
 23 15  1  0
 24 25  2  0
 24 33  1  0
 27 26  1  0
 27 37  2  0
 28 27  1  0
 29 28  2  0
 29 30  1  0
 30 36  2  0
 31 30  1  0
 32 31  1  6
 33 32  1  0
 34 32  1  0
 34 35  1  0
 36 37  1  0
 38 34  2  0
M  END
$$$$
