RWY.pdb
     RDKit          3D

 38 40  0  0  1  0  0  0  0  0999 V2000
   30.9963  -24.8148  -15.2573 N   0  0  0  0  0  0  0  0  0  0  0  0
   31.3399  -24.0928  -16.4277 C   0  0  0  0  0  0  0  0  0  0  0  0
   32.5035  -24.2452  -16.9479 N   0  0  0  0  0  0  0  0  0  0  0  0
   30.4324  -23.1977  -17.0485 N   0  0  0  0  0  0  0  0  0  0  0  0
   29.1298  -22.8445  -16.4831 C   0  0  0  0  0  0  0  0  0  0  0  0
   29.3961  -21.8867  -15.3501 C   0  0  0  0  0  0  0  0  0  0  0  0
   28.5644  -22.2524  -14.1539 C   0  0  0  0  0  0  0  0  0  0  0  0
   27.3753  -21.3793  -14.0364 C   0  0  2  0  0  0  0  0  0  0  0  0
   27.6186  -19.9955  -14.2836 N   0  0  0  0  0  0  0  0  0  0  0  0
   26.6244  -21.5981  -12.7544 C   0  0  0  0  0  0  0  0  0  0  0  0
   26.1573  -22.7479  -12.5334 O   0  0  0  0  0  0  0  0  0  0  0  0
   32.7820  -23.7327  -17.8108 N   0  0  0  0  0  0  0  0  0  0  0  0
   26.4028  -20.6166  -11.7829 C   0  0  1  0  0  0  0  0  0  0  0  0
   25.5741  -20.7896  -10.5935 C   0  0  0  0  0  0  0  0  0  0  0  0
   26.1692  -19.8821   -9.5394 C   0  0  0  0  0  0  0  0  0  0  0  0
   27.4079  -20.3882   -8.9427 C   0  0  0  0  0  0  0  0  0  0  0  0
   28.3653  -21.1711   -9.5921 N   0  0  0  0  0  0  0  0  0  0  0  0
   29.3415  -21.4218   -8.7053 C   0  0  0  0  0  0  0  0  0  0  0  0
   29.0340  -20.8267   -7.5246 C   0  0  0  0  0  0  0  0  0  0  0  0
   29.6588  -20.7527   -6.2941 C   0  0  0  0  0  0  0  0  0  0  0  0
   29.0791  -20.0536   -5.2654 C   0  0  0  0  0  0  0  0  0  0  0  0
   27.8658  -19.4016   -5.4051 C   0  0  0  0  0  0  0  0  0  0  0  0
   27.2440  -19.4721   -6.6206 C   0  0  0  0  0  0  0  0  0  0  0  0
   27.8249  -20.1770   -7.6634 C   0  0  0  0  0  0  0  0  0  0  0  0
   24.1889  -20.2775  -10.8427 O   0  0  0  0  0  0  0  0  0  0  0  0
   24.0768  -19.2320  -11.5098 O   0  0  0  0  0  0  0  0  0  0  0  0
   22.0086  -17.5906  -16.6033 C   0  0  0  0  0  0  0  0  0  0  0  0
   21.9879  -18.5138  -15.5668 C   0  0  0  0  0  0  0  0  0  0  0  0
   22.9754  -19.4948  -15.5422 C   0  0  0  0  0  0  0  0  0  0  0  0
   22.9448  -20.4046  -14.5104 C   0  0  0  0  0  0  0  0  0  0  0  0
   21.9743  -20.3711  -13.5125 C   0  0  0  0  0  0  0  0  0  0  0  0
   21.9686  -21.3729  -12.4311 C   0  0  2  0  0  0  0  0  0  0  0  0
   21.7985  -20.8261  -11.0556 N   0  0  0  0  0  0  0  0  0  0  0  0
   23.0596  -20.9429  -10.3478 C   0  0  0  0  0  0  0  0  0  0  0  0
   20.7028  -21.5121  -10.3245 O   0  0  0  0  0  0  0  0  0  0  0  0
   19.3942  -21.0291  -10.3519 C   0  0  0  0  0  0  0  0  0  0  0  0
   20.9968  -19.3951  -13.5419 C   0  0  0  0  0  0  0  0  0  0  0  0
   21.0315  -18.4880  -14.5741 O   0  0  0  0  0  0  0  0  0  0  0  0
  2  3  2  0
  2  1  1  0
  4  2  1  0
  5  4  1  0
  6  7  1  0
  6  5  1  0
  8 10  1  0
  8  7  1  0
  8  9  1  1
 10 12  1  0
 11 10  2  0
 12 13  1  0
 13 24  1  0
 13 14  1  1
 14 15  1  0
 15 16  2  0
 17 16  1  0
 18 17  1  0
 19 18  2  0
 20 19  1  0
 21 22  1  0
 21 20  2  0
 22 23  2  0
 23 18  1  0
 23 15  1  0
 24 25  2  0
 24 33  1  0
 27 26  1  0
 27 37  2  0
 28 27  1  0
 29 28  2  0
 29 30  1  0
 30 36  2  0
 31 30  1  0
 32 31  1  6
 33 32  1  0
 34 32  1  0
 34 35  1  0
 36 37  1  0
 38 34  2  0
M  END
$$$$
