RWY.pdb
     RDKit          3D

 38 40  0  0  1  0  0  0  0  0999 V2000
   13.4978  -16.1375    9.3426 N   0  0  0  0  0  0  0  0  0  0  0  0
   12.3400  -15.9531    8.5460 C   0  0  0  0  0  0  0  0  0  0  0  0
   11.4058  -15.1742    8.9561 N   0  0  0  0  0  0  0  0  0  0  0  0
   12.1771  -16.6082    7.2991 N   0  0  0  0  0  0  0  0  0  0  0  0
   13.0178  -17.7199    6.8532 C   0  0  0  0  0  0  0  0  0  0  0  0
   12.5540  -18.0825    5.4656 C   0  0  0  0  0  0  0  0  0  0  0  0
   13.4487  -17.4516    4.4371 C   0  0  0  0  0  0  0  0  0  0  0  0
   14.4001  -18.4352    3.8736 C   0  0  2  0  0  0  0  0  0  0  0  0
   13.9920  -19.7977    3.9837 N   0  0  0  0  0  0  0  0  0  0  0  0
   15.8034  -18.2268    4.3662 C   0  0  0  0  0  0  0  0  0  0  0  0
   16.7399  -18.7834    3.7320 O   0  0  0  0  0  0  0  0  0  0  0  0
   10.5220  -15.0584    8.4172 N   0  0  0  0  0  0  0  0  0  0  0  0
   16.1506  -17.4582    5.4820 C   0  0  2  0  0  0  0  0  0  0  0  0
   17.5144  -17.0964    5.8564 C   0  0  0  0  0  0  0  0  0  0  0  0
   17.4071  -15.7728    6.5810 C   0  0  0  0  0  0  0  0  0  0  0  0
   17.6159  -14.6021    5.7251 C   0  0  0  0  0  0  0  0  0  0  0  0
   16.7809  -14.1956    4.6817 N   0  0  0  0  0  0  0  0  0  0  0  0
   17.3191  -13.0859    4.1515 C   0  0  0  0  0  0  0  0  0  0  0  0
   18.4594  -12.7802    4.8215 C   0  0  0  0  0  0  0  0  0  0  0  0
   19.3987  -11.7724    4.7107 C   0  0  0  0  0  0  0  0  0  0  0  0
   20.4744  -11.7333    5.5618 C   0  0  0  0  0  0  0  0  0  0  0  0
   20.6688  -12.6806    6.5526 C   0  0  0  0  0  0  0  0  0  0  0  0
   19.7423  -13.6795    6.6659 C   0  0  0  0  0  0  0  0  0  0  0  0
   18.6537  -13.7240    5.8088 C   0  0  0  0  0  0  0  0  0  0  0  0
   18.0576  -18.0700    6.8566 O   0  0  0  0  0  0  0  0  0  0  0  0
   17.3243  -18.3732    7.8164 O   0  0  0  0  0  0  0  0  0  0  0  0
   23.1952  -14.7466   10.2385 C   0  0  0  0  0  0  0  0  0  0  0  0
   22.3377  -15.7961    9.9378 C   0  0  0  0  0  0  0  0  0  0  0  0
   21.0319  -15.7341   10.4167 C   0  0  0  0  0  0  0  0  0  0  0  0
   20.1911  -16.7801   10.1128 C   0  0  0  0  0  0  0  0  0  0  0  0
   20.6021  -17.8743    9.3561 C   0  0  0  0  0  0  0  0  0  0  0  0
   19.6737  -18.9814    9.0637 C   0  0  2  0  0  0  0  0  0  0  0  0
   19.8042  -19.5822    7.7066 N   0  0  0  0  0  0  0  0  0  0  0  0
   19.3387  -18.6215    6.7242 C   0  0  0  0  0  0  0  0  0  0  0  0
   19.0633  -20.8651    7.6014 O   0  0  0  0  0  0  0  0  0  0  0  0
   19.2600  -21.8978    8.5185 C   0  0  0  0  0  0  0  0  0  0  0  0
   21.8990  -17.9303    8.8833 C   0  0  0  0  0  0  0  0  0  0  0  0
   22.7355  -16.8830    9.1888 O   0  0  0  0  0  0  0  0  0  0  0  0
  2  3  2  0
  2  1  1  0
  4  2  1  0
  5  4  1  0
  6  7  1  0
  6  5  1  0
  8 10  1  0
  8  7  1  0
  8  9  1  1
 10 12  1  0
 11 10  2  0
 12 13  1  0
 13 24  1  0
 13 14  1  6
 14 15  1  0
 15 16  2  0
 17 16  1  0
 18 17  1  0
 19 18  2  0
 20 19  1  0
 21 22  1  0
 21 20  2  0
 22 23  2  0
 23 18  1  0
 23 15  1  0
 24 25  2  0
 24 33  1  0
 27 26  1  0
 27 37  2  0
 28 27  1  0
 29 28  2  0
 29 30  1  0
 30 36  2  0
 31 30  1  0
 32 31  1  6
 33 32  1  0
 34 32  1  0
 34 35  1  0
 36 37  1  0
 38 34  2  0
M  END
$$$$
