RWY.pdb
     RDKit          3D

 38 40  0  0  1  0  0  0  0  0999 V2000
   27.8500  -22.6638  -20.4713 N   0  0  0  0  0  0  0  0  0  0  0  0
   27.4042  -21.4032  -20.0011 C   0  0  0  0  0  0  0  0  0  0  0  0
   26.6545  -20.6768  -20.7481 N   0  0  0  0  0  0  0  0  0  0  0  0
   27.7636  -20.9122  -18.7204 N   0  0  0  0  0  0  0  0  0  0  0  0
   28.3943  -21.7336  -17.6865 C   0  0  0  0  0  0  0  0  0  0  0  0
   28.6559  -20.8249  -16.5128 C   0  0  0  0  0  0  0  0  0  0  0  0
   27.4675  -20.8069  -15.5942 C   0  0  0  0  0  0  0  0  0  0  0  0
   27.4526  -21.9923  -14.7084 C   0  0  2  0  0  0  0  0  0  0  0  0
   27.6667  -23.2389  -15.3682 N   0  0  0  0  0  0  0  0  0  0  0  0
   26.2460  -22.0287  -13.8151 C   0  0  0  0  0  0  0  0  0  0  0  0
   25.4521  -23.0005  -13.9354 O   0  0  0  0  0  0  0  0  0  0  0  0
   26.3571  -19.7233  -20.4526 N   0  0  0  0  0  0  0  0  0  0  0  0
   25.9352  -21.0598  -12.8554 C   0  0  2  0  0  0  0  0  0  0  0  0
   24.7328  -21.0587  -12.0274 C   0  0  0  0  0  0  0  0  0  0  0  0
   25.1839  -20.6454  -10.6438 C   0  0  0  0  0  0  0  0  0  0  0  0
   26.5944  -20.9263  -10.3643 C   0  0  0  0  0  0  0  0  0  0  0  0
   27.4876  -21.5582  -11.2327 N   0  0  0  0  0  0  0  0  0  0  0  0
   28.6729  -21.6228  -10.6057 C   0  0  0  0  0  0  0  0  0  0  0  0
   28.5583  -21.0560   -9.3776 C   0  0  0  0  0  0  0  0  0  0  0  0
   29.4344  -20.8492   -8.3289 C   0  0  0  0  0  0  0  0  0  0  0  0
   29.0062  -20.2284   -7.1825 C   0  0  0  0  0  0  0  0  0  0  0  0
   27.7035  -19.7877   -7.0220 C   0  0  0  0  0  0  0  0  0  0  0  0
   26.8333  -19.9902   -8.0567 C   0  0  0  0  0  0  0  0  0  0  0  0
   27.2604  -20.6169   -9.2172 C   0  0  0  0  0  0  0  0  0  0  0  0
   23.7837  -19.9944  -12.4855 O   0  0  0  0  0  0  0  0  0  0  0  0
   23.8070  -18.9073  -11.8787 O   0  0  0  0  0  0  0  0  0  0  0  0
   17.0399  -24.4413  -10.6503 C   0  0  0  0  0  0  0  0  0  0  0  0
   18.2118  -23.7955  -11.0201 C   0  0  0  0  0  0  0  0  0  0  0  0
   18.3293  -22.4372  -10.7385 C   0  0  0  0  0  0  0  0  0  0  0  0
   19.4950  -21.8075  -11.1098 C   0  0  0  0  0  0  0  0  0  0  0  0
   20.5370  -22.4775  -11.7456 C   0  0  0  0  0  0  0  0  0  0  0  0
   21.7648  -21.7631  -12.1395 C   0  0  1  0  0  0  0  0  0  0  0  0
   21.6229  -20.8439  -13.3035 N   0  0  0  0  0  0  0  0  0  0  0  0
   22.9020  -20.2066  -13.5535 C   0  0  0  0  0  0  0  0  0  0  0  0
   20.5524  -19.8387  -13.0809 O   0  0  0  0  0  0  0  0  0  0  0  0
   20.6770  -18.8438  -12.1109 C   0  0  0  0  0  0  0  0  0  0  0  0
   20.4149  -23.8255  -12.0225 C   0  0  0  0  0  0  0  0  0  0  0  0
   19.2489  -24.4508  -11.6493 O   0  0  0  0  0  0  0  0  0  0  0  0
  2  3  2  0
  2  1  1  0
  4  2  1  0
  5  4  1  0
  6  7  1  0
  6  5  1  0
  8 10  1  0
  8  7  1  0
  8  9  1  6
 10 12  1  0
 11 10  2  0
 12 13  1  0
 13 24  1  0
 13 14  1  6
 14 15  1  0
 15 16  2  0
 17 16  1  0
 18 17  1  0
 19 18  2  0
 20 19  1  0
 21 22  1  0
 21 20  2  0
 22 23  2  0
 23 18  1  0
 23 15  1  0
 24 25  2  0
 24 33  1  0
 27 26  1  0
 27 37  2  0
 28 27  1  0
 29 28  2  0
 29 30  1  0
 30 36  2  0
 31 30  1  0
 32 31  1  6
 33 32  1  0
 34 32  1  0
 34 35  1  0
 36 37  1  0
 38 34  2  0
M  END
$$$$
