RWY.pdb
     RDKit          3D

 38 40  0  0  1  0  0  0  0  0999 V2000
   27.3522  -24.0769  -16.6793 N   0  0  0  0  0  0  0  0  0  0  0  0
   27.4314  -23.1078  -17.7107 C   0  0  0  0  0  0  0  0  0  0  0  0
   26.6725  -23.2143  -18.7404 N   0  0  0  0  0  0  0  0  0  0  0  0
   28.3313  -22.0141  -17.6427 N   0  0  0  0  0  0  0  0  0  0  0  0
   28.9934  -21.5864  -16.4098 C   0  0  0  0  0  0  0  0  0  0  0  0
   28.1822  -20.4419  -15.8585 C   0  0  0  0  0  0  0  0  0  0  0  0
   27.3541  -20.9052  -14.6940 C   0  0  0  0  0  0  0  0  0  0  0  0
   28.1464  -20.9287  -13.4443 C   0  0  2  0  0  0  0  0  0  0  0  0
   29.3289  -21.7250  -13.4968 N   0  0  0  0  0  0  0  0  0  0  0  0
   27.3096  -21.2432  -12.2376 C   0  0  0  0  0  0  0  0  0  0  0  0
   26.9367  -22.4361  -12.0730 O   0  0  0  0  0  0  0  0  0  0  0  0
   26.7308  -22.5357  -19.5284 N   0  0  0  0  0  0  0  0  0  0  0  0
   26.9104  -20.3068  -11.2784 C   0  0  1  0  0  0  0  0  0  0  0  0
   26.0360  -20.5921  -10.1447 C   0  0  0  0  0  0  0  0  0  0  0  0
   26.5289  -19.7186   -9.0121 C   0  0  0  0  0  0  0  0  0  0  0  0
   27.7541  -20.2029   -8.3711 C   0  0  0  0  0  0  0  0  0  0  0  0
   28.7176  -21.0204   -8.9666 N   0  0  0  0  0  0  0  0  0  0  0  0
   29.6769  -21.2347   -8.0523 C   0  0  0  0  0  0  0  0  0  0  0  0
   29.3530  -20.5836   -6.9061 C   0  0  0  0  0  0  0  0  0  0  0  0
   29.9570  -20.4556   -5.6696 C   0  0  0  0  0  0  0  0  0  0  0  0
   29.3642  -19.7062   -4.6848 C   0  0  0  0  0  0  0  0  0  0  0  0
   28.1574  -19.0550   -4.8758 C   0  0  0  0  0  0  0  0  0  0  0  0
   27.5561  -19.1787   -6.0973 C   0  0  0  0  0  0  0  0  0  0  0  0
   28.1505  -19.9345   -7.0959 C   0  0  0  0  0  0  0  0  0  0  0  0
   24.6384  -20.1388  -10.4354 O   0  0  0  0  0  0  0  0  0  0  0  0
   24.5022  -19.1088  -11.1219 O   0  0  0  0  0  0  0  0  0  0  0  0
   22.8437  -17.8222  -16.3774 C   0  0  0  0  0  0  0  0  0  0  0  0
   22.7614  -18.7037  -15.3082 C   0  0  0  0  0  0  0  0  0  0  0  0
   23.8268  -19.5732  -15.0913 C   0  0  0  0  0  0  0  0  0  0  0  0
   23.7341  -20.4426  -14.0289 C   0  0  0  0  0  0  0  0  0  0  0  0
   22.6279  -20.4755  -13.1839 C   0  0  0  0  0  0  0  0  0  0  0  0
   22.5614  -21.4319  -12.0641 C   0  0  2  0  0  0  0  0  0  0  0  0
   22.2943  -20.8315  -10.7270 N   0  0  0  0  0  0  0  0  0  0  0  0
   23.5240  -20.8406   -9.9573 C   0  0  0  0  0  0  0  0  0  0  0  0
   21.2046  -21.5451  -10.0134 O   0  0  0  0  0  0  0  0  0  0  0  0
   19.8901  -21.5215  -10.4800 C   0  0  0  0  0  0  0  0  0  0  0  0
   21.5735  -19.6102  -13.4039 C   0  0  0  0  0  0  0  0  0  0  0  0
   21.6705  -18.7429  -14.4660 O   0  0  0  0  0  0  0  0  0  0  0  0
  2  3  2  0
  2  1  1  0
  4  2  1  0
  5  4  1  0
  6  7  1  0
  6  5  1  0
  8 10  1  0
  8  7  1  0
  8  9  1  6
 10 12  1  0
 11 10  2  0
 12 13  1  0
 13 24  1  0
 13 14  1  1
 14 15  1  0
 15 16  2  0
 17 16  1  0
 18 17  1  0
 19 18  2  0
 20 19  1  0
 21 22  1  0
 21 20  2  0
 22 23  2  0
 23 18  1  0
 23 15  1  0
 24 25  2  0
 24 33  1  0
 27 26  1  0
 27 37  2  0
 28 27  1  0
 29 28  2  0
 29 30  1  0
 30 36  2  0
 31 30  1  0
 32 31  1  6
 33 32  1  0
 34 32  1  0
 34 35  1  0
 36 37  1  0
 38 34  2  0
M  END
$$$$
