RWY.pdb
     RDKit          3D

 38 40  0  0  1  0  0  0  0  0999 V2000
   24.7799  -24.3906  -13.2393 N   0  0  0  0  0  0  0  0  0  0  0  0
   24.1582  -24.6174  -14.4928 C   0  0  0  0  0  0  0  0  0  0  0  0
   23.8325  -25.8118  -14.8321 N   0  0  0  0  0  0  0  0  0  0  0  0
   23.8827  -23.5582  -15.3943 N   0  0  0  0  0  0  0  0  0  0  0  0
   24.8876  -22.5916  -15.8384 C   0  0  0  0  0  0  0  0  0  0  0  0
   25.5499  -22.0550  -14.5953 C   0  0  0  0  0  0  0  0  0  0  0  0
   24.8301  -20.8287  -14.1109 C   0  0  0  0  0  0  0  0  0  0  0  0
   25.0884  -19.6683  -14.9922 C   0  0  2  0  0  0  0  0  0  0  0  0
   26.4508  -19.2491  -15.0506 N   0  0  0  0  0  0  0  0  0  0  0  0
   24.1580  -18.5210  -14.7215 C   0  0  0  0  0  0  0  0  0  0  0  0
   24.3634  -17.8257  -13.6903 O   0  0  0  0  0  0  0  0  0  0  0  0
   23.3804  -26.0097  -15.7494 N   0  0  0  0  0  0  0  0  0  0  0  0
   23.0748  -18.1649  -15.5316 C   0  0  2  0  0  0  0  0  0  0  0  0
   22.2158  -17.0043  -15.3164 C   0  0  0  0  0  0  0  0  0  0  0  0
   22.4271  -16.1056  -16.5148 C   0  0  0  0  0  0  0  0  0  0  0  0
   23.6858  -15.3562  -16.4877 C   0  0  0  0  0  0  0  0  0  0  0  0
   24.3110  -14.8536  -15.3441 N   0  0  0  0  0  0  0  0  0  0  0  0
   25.4334  -14.2353  -15.7442 C   0  0  0  0  0  0  0  0  0  0  0  0
   25.5370  -14.3304  -17.0944 C   0  0  0  0  0  0  0  0  0  0  0  0
   26.4630  -13.8896  -18.0208 C   0  0  0  0  0  0  0  0  0  0  0  0
   26.2836  -14.1508  -19.3559 C   0  0  0  0  0  0  0  0  0  0  0  0
   25.1897  -14.8537  -19.8318 C   0  0  0  0  0  0  0  0  0  0  0  0
   24.2710  -15.2917  -18.9190 C   0  0  0  0  0  0  0  0  0  0  0  0
   24.4472  -15.0306  -17.5690 C   0  0  0  0  0  0  0  0  0  0  0  0
   20.7738  -17.4073  -15.3537 O   0  0  0  0  0  0  0  0  0  0  0  0
   20.4926  -18.4741  -15.9311 O   0  0  0  0  0  0  0  0  0  0  0  0
   19.6114  -21.6798  -10.5845 C   0  0  0  0  0  0  0  0  0  0  0  0
   19.1851  -20.5574  -11.2814 C   0  0  0  0  0  0  0  0  0  0  0  0
   18.1995  -20.7222  -12.2507 C   0  0  0  0  0  0  0  0  0  0  0  0
   17.7850  -19.6029  -12.9353 C   0  0  0  0  0  0  0  0  0  0  0  0
   18.3132  -18.3381  -12.6901 C   0  0  0  0  0  0  0  0  0  0  0  0
   17.8513  -17.1658  -13.4552 C   0  0  2  0  0  0  0  0  0  0  0  0
   18.3928  -17.0528  -14.8386 N   0  0  0  0  0  0  0  0  0  0  0  0
   19.7756  -16.6202  -14.7645 C   0  0  0  0  0  0  0  0  0  0  0  0
   17.5811  -16.1289  -15.6713 O   0  0  0  0  0  0  0  0  0  0  0  0
   16.2309  -16.3718  -15.9247 C   0  0  0  0  0  0  0  0  0  0  0  0
   19.2910  -18.1805  -11.7268 C   0  0  0  0  0  0  0  0  0  0  0  0
   19.7017  -19.3012  -11.0449 O   0  0  0  0  0  0  0  0  0  0  0  0
  2  3  2  0
  2  1  1  0
  4  2  1  0
  5  4  1  0
  6  7  1  0
  6  5  1  0
  8 10  1  0
  8  7  1  0
  8  9  1  1
 10 12  1  0
 11 10  2  0
 12 13  1  0
 13 24  1  0
 13 14  1  1
 14 15  1  0
 15 16  2  0
 17 16  1  0
 18 17  1  0
 19 18  2  0
 20 19  1  0
 21 22  1  0
 21 20  2  0
 22 23  2  0
 23 18  1  0
 23 15  1  0
 24 25  2  0
 24 33  1  0
 27 26  1  0
 27 37  2  0
 28 27  1  0
 29 28  2  0
 29 30  1  0
 30 36  2  0
 31 30  1  0
 32 31  1  1
 33 32  1  0
 34 32  1  0
 34 35  1  0
 36 37  1  0
 38 34  2  0
M  END
$$$$
