TFL.pdb
     RDKit          3D

 27 27  0  0  1  0  0  0  0  0999 V2000
   27.3744  -17.2659  -19.7796 C   0  0  0  0  0  0  0  0  0  0  0  0
   26.7530  -18.0138  -18.6202 C   0  0  1  0  0  0  0  0  0  0  0  0
   25.5451  -18.5662  -19.0084 O   0  0  0  0  0  0  0  0  0  0  0  0
   27.7056  -19.1449  -18.2150 C   0  0  2  0  0  0  0  0  0  0  0  0
   27.7466  -20.0825  -19.3169 N   0  0  0  0  0  0  0  0  0  0  0  0
   27.1619  -19.8287  -17.0296 C   0  0  0  0  0  0  0  0  0  0  0  0
   26.4566  -20.8482  -17.1726 O   0  0  0  0  0  0  0  0  0  0  0  0
   27.3976  -19.3866  -15.6951 N   0  0  0  0  0  0  0  0  0  0  0  0
   26.7304  -19.9185  -14.5408 C   0  0  1  0  0  0  0  0  0  0  0  0
   27.4465  -19.5154  -13.2701 C   0  0  0  0  0  0  0  0  0  0  0  0
   26.7787  -20.0286  -12.0555 C   0  0  0  0  0  0  0  0  0  0  0  0
   26.9278  -21.3495  -11.6823 C   0  0  0  0  0  0  0  0  0  0  0  0
   26.3111  -21.8548  -10.5465 C   0  0  0  0  0  0  0  0  0  0  0  0
   25.5232  -21.0564   -9.7439 C   0  0  0  0  0  0  0  0  0  0  0  0
   25.3755  -19.7372  -10.1184 C   0  0  0  0  0  0  0  0  0  0  0  0
   25.9876  -19.2325  -11.2470 C   0  0  0  0  0  0  0  0  0  0  0  0
   25.2879  -19.5892  -14.5065 C   0  0  0  0  0  0  0  0  0  0  0  0
   24.9489  -18.3881  -14.6621 O   0  0  0  0  0  0  0  0  0  0  0  0
   21.5292  -20.1888  -17.9008 C   0  0  0  0  0  0  0  0  0  0  0  0
   22.1148  -19.6949  -16.6240 C   0  0  1  0  0  0  0  0  0  0  0  0
   21.4851  -18.3645  -16.1998 C   0  0  0  0  0  0  0  0  0  0  0  0
   22.2302  -20.6343  -15.4980 C   0  0  0  0  0  0  0  0  0  0  0  0
   22.8457  -20.2380  -14.2196 C   0  0  2  0  0  0  0  0  0  0  0  0
   24.3071  -20.5838  -14.3057 N   0  0  0  0  0  0  0  0  0  0  0  0
   22.3738  -20.8058  -12.9714 C   0  0  0  0  0  0  0  0  0  0  0  0
   22.7117  -21.9938  -12.6311 O   0  0  0  0  0  0  0  0  0  0  0  0
   21.5635  -20.1701  -12.0610 O   0  0  0  0  0  0  0  0  0  0  0  0
  2  4  1  0
  2  1  1  6
  2  3  1  0
  4  5  1  6
  6  7  2  0
  6  4  1  0
  8  6  1  0
  9  8  1  0
 10 11  1  0
  9 10  1  1
 11 12  2  0
 11 16  1  0
 12 13  1  0
 13 14  2  0
 15 14  1  0
 16 15  2  0
 17 24  1  0
 17  9  1  0
 18 17  2  0
 20 22  1  0
 20 19  1  6
 21 20  1  0
 23 24  1  0
 23 22  1  6
 25 23  1  0
 26 25  2  0
 27 25  1  0
M  END
$$$$
