TFL.pdb
     RDKit          3D

 27 27  0  0  1  0  0  0  0  0999 V2000
   21.3770  -13.9356  -17.8118 C   0  0  0  0  0  0  0  0  0  0  0  0
   21.1334  -14.4110  -19.2276 C   0  0  1  0  0  0  0  0  0  0  0  0
   20.8256  -15.7601  -19.2256 O   0  0  0  0  0  0  0  0  0  0  0  0
   19.9399  -13.6332  -19.7947 C   0  0  2  0  0  0  0  0  0  0  0  0
   19.7512  -14.0778  -21.1591 N   0  0  0  0  0  0  0  0  0  0  0  0
   20.2639  -12.1968  -19.8038 C   0  0  0  0  0  0  0  0  0  0  0  0
   20.5014  -11.6229  -20.8862 O   0  0  0  0  0  0  0  0  0  0  0  0
   20.3245  -11.4013  -18.6225 N   0  0  0  0  0  0  0  0  0  0  0  0
   20.5393   -9.9820  -18.6174 C   0  0  1  0  0  0  0  0  0  0  0  0
   19.4676   -9.2712  -19.4150 C   0  0  0  0  0  0  0  0  0  0  0  0
   19.6770   -7.8091  -19.4695 C   0  0  0  0  0  0  0  0  0  0  0  0
   18.8176   -6.9558  -18.8065 C   0  0  0  0  0  0  0  0  0  0  0  0
   18.9932   -5.5798  -18.8426 C   0  0  0  0  0  0  0  0  0  0  0  0
   20.0350   -5.0087  -19.5433 C   0  0  0  0  0  0  0  0  0  0  0  0
   20.8924   -5.8628  -20.2048 C   0  0  0  0  0  0  0  0  0  0  0  0
   20.7199   -7.2311  -20.1705 C   0  0  0  0  0  0  0  0  0  0  0  0
   20.6915   -9.4274  -17.2537 C   0  0  0  0  0  0  0  0  0  0  0  0
   19.7372   -9.5654  -16.4462 O   0  0  0  0  0  0  0  0  0  0  0  0
   25.2275  -10.5512  -14.6724 C   0  0  0  0  0  0  0  0  0  0  0  0
   23.8066  -10.1976  -14.9427 C   0  0  1  0  0  0  0  0  0  0  0  0
   22.8563  -10.9570  -14.0116 C   0  0  0  0  0  0  0  0  0  0  0  0
   23.4491   -8.7751  -15.0546 C   0  0  0  0  0  0  0  0  0  0  0  0
   22.0895   -8.3457  -15.4252 C   0  0  2  0  0  0  0  0  0  0  0  0
   21.8687   -8.7591  -16.8545 N   0  0  0  0  0  0  0  0  0  0  0  0
   21.7171   -6.9461  -15.3522 C   0  0  0  0  0  0  0  0  0  0  0  0
   21.4977   -6.3921  -14.2181 O   0  0  0  0  0  0  0  0  0  0  0  0
   21.5719   -6.1015  -16.4270 O   0  0  0  0  0  0  0  0  0  0  0  0
  2  4  1  0
  2  1  1  1
  2  3  1  0
  4  5  1  6
  6  7  2  0
  6  4  1  0
  8  6  1  0
  9  8  1  0
 10 11  1  0
  9 10  1  1
 11 12  2  0
 11 16  1  0
 12 13  1  0
 13 14  2  0
 15 14  1  0
 16 15  2  0
 17 24  1  0
 17  9  1  0
 18 17  2  0
 20 22  1  0
 20 19  1  1
 21 20  1  0
 23 24  1  0
 23 22  1  6
 25 23  1  0
 26 25  2  0
 27 25  1  0
M  END
$$$$
