TFL.pdb
     RDKit          3D

 27 27  0  0  1  0  0  0  0  0999 V2000
   25.1596  -19.0823  -14.5465 C   0  0  0  0  0  0  0  0  0  0  0  0
   25.2317  -19.7249  -13.1785 C   0  0  1  0  0  0  0  0  0  0  0  0
   24.4422  -20.8610  -13.1489 O   0  0  0  0  0  0  0  0  0  0  0  0
   26.6875  -20.1283  -12.9156 C   0  0  2  0  0  0  0  0  0  0  0  0
   27.0014  -21.2080  -13.8271 N   0  0  0  0  0  0  0  0  0  0  0  0
   26.8062  -20.6236  -11.5340 C   0  0  0  0  0  0  0  0  0  0  0  0
   26.8942  -21.8501  -11.3217 O   0  0  0  0  0  0  0  0  0  0  0  0
   26.8274  -19.7664  -10.3952 N   0  0  0  0  0  0  0  0  0  0  0  0
   26.9504  -20.2283   -9.0416 C   0  0  1  0  0  0  0  0  0  0  0  0
   27.3028  -19.0874   -8.1121 C   0  0  0  0  0  0  0  0  0  0  0  0
   27.7105  -19.5542   -6.7703 C   0  0  0  0  0  0  0  0  0  0  0  0
   26.8638  -19.4001   -5.6906 C   0  0  0  0  0  0  0  0  0  0  0  0
   27.2238  -19.8302   -4.4213 C   0  0  0  0  0  0  0  0  0  0  0  0
   28.4437  -20.4298   -4.1873 C   0  0  0  0  0  0  0  0  0  0  0  0
   29.2880  -20.5829   -5.2671 C   0  0  0  0  0  0  0  0  0  0  0  0
   28.9324  -20.1561   -6.5299 C   0  0  0  0  0  0  0  0  0  0  0  0
   25.7661  -20.9876   -8.5823 C   0  0  0  0  0  0  0  0  0  0  0  0
   25.9472  -22.1316   -8.0921 O   0  0  0  0  0  0  0  0  0  0  0  0
   21.7947  -22.9254   -5.9808 C   0  0  0  0  0  0  0  0  0  0  0  0
   21.8496  -21.4425   -6.1033 C   0  0  1  0  0  0  0  0  0  0  0  0
   21.6465  -20.7631   -4.7454 C   0  0  0  0  0  0  0  0  0  0  0  0
   22.9608  -20.8438   -6.8587 C   0  0  0  0  0  0  0  0  0  0  0  0
   23.2585  -21.2443   -8.2448 C   0  0  2  0  0  0  0  0  0  0  0  0
   24.4624  -20.4569   -8.6844 N   0  0  0  0  0  0  0  0  0  0  0  0
   22.2656  -21.0712   -9.2874 C   0  0  0  0  0  0  0  0  0  0  0  0
   22.1537  -19.9493   -9.8960 O   0  0  0  0  0  0  0  0  0  0  0  0
   21.3871  -22.0352   -9.7214 O   0  0  0  0  0  0  0  0  0  0  0  0
  2  4  1  0
  2  1  1  6
  2  3  1  0
  4  5  1  6
  6  7  2  0
  6  4  1  0
  8  6  1  0
  9  8  1  0
 10 11  1  0
  9 10  1  1
 11 12  2  0
 11 16  1  0
 12 13  1  0
 13 14  2  0
 15 14  1  0
 16 15  2  0
 17 24  1  0
 17  9  1  0
 18 17  2  0
 20 22  1  0
 20 19  1  1
 21 20  1  0
 23 24  1  0
 23 22  1  1
 25 23  1  0
 26 25  2  0
 27 25  1  0
M  END
$$$$
