TFL.pdb
     RDKit          3D

 27 27  0  0  1  0  0  0  0  0999 V2000
   28.4349  -20.4241  -19.0110 C   0  0  0  0  0  0  0  0  0  0  0  0
   27.5240  -20.5893  -17.8141 C   0  0  1  0  0  0  0  0  0  0  0  0
   26.2492  -20.9252  -18.2345 O   0  0  0  0  0  0  0  0  0  0  0  0
   28.0744  -21.7286  -16.9479 C   0  0  2  0  0  0  0  0  0  0  0  0
   27.9211  -22.9522  -17.7058 N   0  0  0  0  0  0  0  0  0  0  0  0
   27.2705  -21.8278  -15.7182 C   0  0  0  0  0  0  0  0  0  0  0  0
   26.2825  -22.5893  -15.6846 O   0  0  0  0  0  0  0  0  0  0  0  0
   27.5589  -21.0888  -14.5338 N   0  0  0  0  0  0  0  0  0  0  0  0
   26.7375  -21.1014  -13.3566 C   0  0  1  0  0  0  0  0  0  0  0  0
   27.4900  -20.5447  -12.1676 C   0  0  0  0  0  0  0  0  0  0  0  0
   26.6868  -20.5670  -10.9270 C   0  0  0  0  0  0  0  0  0  0  0  0
   26.1188  -19.4057  -10.4424 C   0  0  0  0  0  0  0  0  0  0  0  0
   25.3607  -19.4010   -9.2800 C   0  0  0  0  0  0  0  0  0  0  0  0
   25.1441  -20.5582   -8.5614 C   0  0  0  0  0  0  0  0  0  0  0  0
   25.7124  -21.7172   -9.0472 C   0  0  0  0  0  0  0  0  0  0  0  0
   26.4664  -21.7244  -10.2025 C   0  0  0  0  0  0  0  0  0  0  0  0
   25.4297  -20.4390  -13.5596 C   0  0  0  0  0  0  0  0  0  0  0  0
   25.4133  -19.3201  -14.1338 O   0  0  0  0  0  0  0  0  0  0  0  0
   21.3947  -19.0526  -16.3608 C   0  0  0  0  0  0  0  0  0  0  0  0
   21.3177  -20.2193  -15.4389 C   0  0  1  0  0  0  0  0  0  0  0  0
   20.5009  -21.3612  -16.0519 C   0  0  0  0  0  0  0  0  0  0  0  0
   22.5601  -20.7022  -14.8168 C   0  0  0  0  0  0  0  0  0  0  0  0
   22.8911  -20.3996  -13.4135 C   0  0  2  0  0  0  0  0  0  0  0  0
   24.2250  -21.0329  -13.1267 N   0  0  0  0  0  0  0  0  0  0  0  0
   22.0089  -20.8249  -12.3440 C   0  0  0  0  0  0  0  0  0  0  0  0
   21.2957  -19.9680  -11.7128 O   0  0  0  0  0  0  0  0  0  0  0  0
   21.8415  -22.1199  -11.9145 O   0  0  0  0  0  0  0  0  0  0  0  0
  2  4  1  0
  2  1  1  6
  2  3  1  0
  4  5  1  6
  6  7  2  0
  6  4  1  0
  8  6  1  0
  9  8  1  0
 10 11  1  0
  9 10  1  1
 11 12  2  0
 11 16  1  0
 12 13  1  0
 13 14  2  0
 15 14  1  0
 16 15  2  0
 17 24  1  0
 17  9  1  0
 18 17  2  0
 20 22  1  0
 20 19  1  6
 21 20  1  0
 23 24  1  0
 23 22  1  6
 25 23  1  0
 26 25  2  0
 27 25  1  0
M  END
$$$$
