TFL.pdb
     RDKit          3D

 27 27  0  0  1  0  0  0  0  0999 V2000
   22.8258  -24.2006  -15.8699 C   0  0  0  0  0  0  0  0  0  0  0  0
   23.7499  -25.1538  -16.5959 C   0  0  1  0  0  0  0  0  0  0  0  0
   23.0733  -25.7662  -17.6361 O   0  0  0  0  0  0  0  0  0  0  0  0
   24.9151  -24.3425  -17.1749 C   0  0  2  0  0  0  0  0  0  0  0  0
   25.8206  -25.2835  -17.7992 N   0  0  0  0  0  0  0  0  0  0  0  0
   25.6203  -23.6634  -16.0749 C   0  0  0  0  0  0  0  0  0  0  0  0
   26.3183  -24.3290  -15.2831 O   0  0  0  0  0  0  0  0  0  0  0  0
   25.5530  -22.2568  -15.8534 N   0  0  0  0  0  0  0  0  0  0  0  0
   26.1856  -21.5833  -14.7548 C   0  0  1  0  0  0  0  0  0  0  0  0
   26.7036  -20.2265  -15.1799 C   0  0  0  0  0  0  0  0  0  0  0  0
   27.4369  -19.5352  -14.0988 C   0  0  0  0  0  0  0  0  0  0  0  0
   26.7789  -18.6598  -13.2580 C   0  0  0  0  0  0  0  0  0  0  0  0
   27.4454  -17.9989  -12.2359 C   0  0  0  0  0  0  0  0  0  0  0  0
   28.7940  -18.1905  -12.0188 C   0  0  0  0  0  0  0  0  0  0  0  0
   29.4495  -19.0653  -12.8598 C   0  0  0  0  0  0  0  0  0  0  0  0
   28.7891  -19.7236  -13.8766 C   0  0  0  0  0  0  0  0  0  0  0  0
   25.3262  -21.5098  -13.5523 C   0  0  0  0  0  0  0  0  0  0  0  0
   24.0800  -21.4595  -13.7148 O   0  0  0  0  0  0  0  0  0  0  0  0
   25.5845  -19.5092   -8.5277 C   0  0  0  0  0  0  0  0  0  0  0  0
   26.4837  -20.4656   -9.2304 C   0  0  1  0  0  0  0  0  0  0  0  0
   27.6989  -20.8238   -8.3691 C   0  0  0  0  0  0  0  0  0  0  0  0
   25.8861  -21.6524   -9.8616 C   0  0  0  0  0  0  0  0  0  0  0  0
   24.9967  -21.5417  -11.0307 C   0  0  2  0  0  0  0  0  0  0  0  0
   25.8739  -21.4957  -12.2517 N   0  0  0  0  0  0  0  0  0  0  0  0
   24.0826  -20.4227  -11.1533 C   0  0  0  0  0  0  0  0  0  0  0  0
   24.3557  -19.4454  -11.9354 O   0  0  0  0  0  0  0  0  0  0  0  0
   22.8861  -20.2927  -10.4891 O   0  0  0  0  0  0  0  0  0  0  0  0
  2  4  1  0
  2  1  1  6
  2  3  1  0
  4  5  1  1
  6  7  2  0
  6  4  1  0
  8  6  1  0
  9  8  1  0
 10 11  1  0
  9 10  1  6
 11 12  2  0
 11 16  1  0
 12 13  1  0
 13 14  2  0
 15 14  1  0
 16 15  2  0
 17 24  1  0
 17  9  1  0
 18 17  2  0
 20 22  1  0
 20 19  1  1
 21 20  1  0
 23 24  1  0
 23 22  1  1
 25 23  1  0
 26 25  2  0
 27 25  1  0
M  END
$$$$
