LVW.pdb
     RDKit          3D

 30 31  0  0  1  0  0  0  0  0999 V2000
   33.5697  -22.7770   -9.5624 C   0  0  0  0  0  0  0  0  0  0  0  0
   32.8263  -22.6100  -10.8689 C   0  0  1  0  0  0  0  0  0  0  0  0
   32.6502  -23.9604  -11.4977 C   0  0  0  0  0  0  0  0  0  0  0  0
   31.5271  -21.8686  -10.6996 C   0  0  0  0  0  0  0  0  0  0  0  0
   30.8453  -21.6237  -12.0064 C   0  0  2  0  0  0  0  0  0  0  0  0
   31.7550  -21.1400  -13.0128 N   0  0  0  0  0  0  0  0  0  0  0  0
   29.6265  -20.8029  -11.8942 C   0  0  0  0  0  0  0  0  0  0  0  0
   29.6332  -19.7209  -11.2431 O   0  0  0  0  0  0  0  0  0  0  0  0
   27.5378  -19.4899  -14.6262 C   0  0  0  0  0  0  0  0  0  0  0  0
   26.6073  -20.2487  -13.7348 C   0  0  2  0  0  0  0  0  0  0  0  0
   25.2896  -19.4677  -13.6523 C   0  0  0  0  0  0  0  0  0  0  0  0
   27.1730  -20.4572  -12.3497 C   0  0  2  0  0  0  0  0  0  0  0  0
   28.4218  -21.1879  -12.5003 N   0  0  0  0  0  0  0  0  0  0  0  0
   26.2440  -21.2959  -11.5205 C   0  0  0  0  0  0  0  0  0  0  0  0
   26.4910  -22.5056  -11.3390 O   0  0  0  0  0  0  0  0  0  0  0  0
   25.0855  -20.7256  -10.9411 N   0  0  0  0  0  0  0  0  0  0  0  0
   24.8983  -20.7951   -9.4832 C   0  0  1  0  0  0  0  0  0  0  0  0
   26.1637  -20.3738   -8.8104 C   0  0  0  0  0  0  0  0  0  0  0  0
   26.1263  -20.5275   -7.3634 C   0  0  0  0  0  0  0  0  0  0  0  0
   25.1928  -21.2666   -6.6182 C   0  0  0  0  0  0  0  0  0  0  0  0
   25.4617  -21.1470   -5.3129 N   0  0  0  0  0  0  0  0  0  0  0  0
   26.5495  -20.3498   -5.1545 C   0  0  0  0  0  0  0  0  0  0  0  0
   27.2052  -19.9546   -3.9905 C   0  0  0  0  0  0  0  0  0  0  0  0
   28.3174  -19.1470   -4.0700 C   0  0  0  0  0  0  0  0  0  0  0  0
   28.7410  -18.7580   -5.3185 C   0  0  0  0  0  0  0  0  0  0  0  0
   28.0835  -19.1553   -6.4601 C   0  0  0  0  0  0  0  0  0  0  0  0
   26.9634  -19.9658   -6.4119 C   0  0  0  0  0  0  0  0  0  0  0  0
   23.6758  -20.1337   -9.0777 C   0  0  0  0  0  0  0  0  0  0  0  0
   23.3040  -18.9992   -9.4404 O   0  0  0  0  0  0  0  0  0  0  0  0
   22.8106  -20.8024   -8.1982 O   0  0  0  0  0  0  0  0  0  0  0  0
  2  1  1  1
  3  2  1  0
  4  2  1  0
  5  4  1  0
  5  6  1  6
  7  5  1  0
  7  8  2  0
 10  9  1  6
 10 12  1  0
 11 10  1  0
 12 13  1  6
 13  7  1  0
 14 12  1  0
 15 14  2  0
 16 14  1  0
 17 16  1  0
 17 28  1  0
 18 19  1  0
 17 18  1  1
 19 27  1  0
 20 21  1  0
 20 19  2  0
 21 22  1  0
 22 27  2  0
 22 23  1  0
 23 24  2  0
 24 25  1  0
 26 25  2  0
 27 26  1  0
 28 30  1  0
 29 28  2  0
M  END
$$$$
