LVW.pdb
     RDKit          3D

 30 31  0  0  1  0  0  0  0  0999 V2000
   29.8764  -15.8413  -16.6941 C   0  0  0  0  0  0  0  0  0  0  0  0
   28.9233  -17.0146  -16.7436 C   0  0  1  0  0  0  0  0  0  0  0  0
   29.7223  -18.2778  -16.8703 C   0  0  0  0  0  0  0  0  0  0  0  0
   27.9766  -17.0351  -15.5734 C   0  0  0  0  0  0  0  0  0  0  0  0
   27.1010  -18.2459  -15.5798 C   0  0  2  0  0  0  0  0  0  0  0  0
   26.3732  -18.3848  -16.8149 N   0  0  0  0  0  0  0  0  0  0  0  0
   26.2379  -18.3594  -14.3908 C   0  0  0  0  0  0  0  0  0  0  0  0
   25.2837  -17.5535  -14.2051 O   0  0  0  0  0  0  0  0  0  0  0  0
   23.6284  -19.4038  -14.0704 C   0  0  0  0  0  0  0  0  0  0  0  0
   24.2863  -20.3327  -13.1006 C   0  0  2  0  0  0  0  0  0  0  0  0
   23.2346  -20.7629  -12.0703 C   0  0  0  0  0  0  0  0  0  0  0  0
   25.4669  -19.7000  -12.4021 C   0  0  2  0  0  0  0  0  0  0  0  0
   26.4408  -19.3578  -13.4269 N   0  0  0  0  0  0  0  0  0  0  0  0
   26.1101  -20.6776  -11.4614 C   0  0  0  0  0  0  0  0  0  0  0  0
   26.4748  -21.7958  -11.8784 O   0  0  0  0  0  0  0  0  0  0  0  0
   26.3066  -20.3420  -10.1006 N   0  0  0  0  0  0  0  0  0  0  0  0
   26.2970  -21.4074   -9.0856 C   0  0  1  0  0  0  0  0  0  0  0  0
   27.5917  -21.3801   -8.3407 C   0  0  0  0  0  0  0  0  0  0  0  0
   27.7258  -20.2293   -7.4595 C   0  0  0  0  0  0  0  0  0  0  0  0
   27.0966  -18.9815   -7.6011 C   0  0  0  0  0  0  0  0  0  0  0  0
   27.4877  -18.1650   -6.6158 N   0  0  0  0  0  0  0  0  0  0  0  0
   28.3617  -18.8246   -5.8126 C   0  0  0  0  0  0  0  0  0  0  0  0
   29.0166  -18.3931   -4.6612 C   0  0  0  0  0  0  0  0  0  0  0  0
   29.8550  -19.2517   -3.9862 C   0  0  0  0  0  0  0  0  0  0  0  0
   30.0126  -20.5220   -4.4873 C   0  0  0  0  0  0  0  0  0  0  0  0
   29.3599  -20.9349   -5.6262 C   0  0  0  0  0  0  0  0  0  0  0  0
   28.5121  -20.0949   -6.3258 C   0  0  0  0  0  0  0  0  0  0  0  0
   25.0782  -21.3789   -8.3045 C   0  0  0  0  0  0  0  0  0  0  0  0
   24.1255  -20.5894   -8.4658 O   0  0  0  0  0  0  0  0  0  0  0  0
   24.9246  -22.3097   -7.2657 O   0  0  0  0  0  0  0  0  0  0  0  0
  2  1  1  1
  3  2  1  0
  4  2  1  0
  5  4  1  0
  5  6  1  6
  7  5  1  0
  7  8  2  0
 10  9  1  6
 10 12  1  0
 11 10  1  0
 12 13  1  6
 13  7  1  0
 14 12  1  0
 15 14  2  0
 16 14  1  0
 17 16  1  0
 17 28  1  0
 18 19  1  0
 17 18  1  1
 19 27  1  0
 20 21  1  0
 20 19  2  0
 21 22  1  0
 22 27  2  0
 22 23  1  0
 23 24  2  0
 24 25  1  0
 26 25  2  0
 27 26  1  0
 28 30  1  0
 29 28  2  0
M  END
$$$$
