LVW.pdb
     RDKit          3D

 30 31  0  0  1  0  0  0  0  0999 V2000
   20.6246  -17.1071  -14.1256 C   0  0  0  0  0  0  0  0  0  0  0  0
   21.9600  -17.5196  -14.7039 C   0  0  1  0  0  0  0  0  0  0  0  0
   22.8630  -16.3221  -14.7298 C   0  0  0  0  0  0  0  0  0  0  0  0
   22.5626  -18.6923  -13.9775 C   0  0  0  0  0  0  0  0  0  0  0  0
   23.9531  -18.9853  -14.4393 C   0  0  2  0  0  0  0  0  0  0  0  0
   24.0103  -19.2646  -15.8510 N   0  0  0  0  0  0  0  0  0  0  0  0
   24.6460  -20.0004  -13.6262 C   0  0  0  0  0  0  0  0  0  0  0  0
   24.0905  -21.1017  -13.3558 O   0  0  0  0  0  0  0  0  0  0  0  0
   28.2746  -21.1660  -14.2265 C   0  0  0  0  0  0  0  0  0  0  0  0
   28.1127  -20.7175  -12.8092 C   0  0  2  0  0  0  0  0  0  0  0  0
   28.9817  -21.6211  -11.9253 C   0  0  0  0  0  0  0  0  0  0  0  0
   26.6757  -20.7677  -12.3462 C   0  0  2  0  0  0  0  0  0  0  0  0
   25.9379  -19.7851  -13.1247 N   0  0  0  0  0  0  0  0  0  0  0  0
   26.5734  -20.3818  -10.8988 C   0  0  0  0  0  0  0  0  0  0  0  0
   27.1993  -19.3900  -10.4726 O   0  0  0  0  0  0  0  0  0  0  0  0
   25.7713  -21.1358  -10.0094 N   0  0  0  0  0  0  0  0  0  0  0  0
   25.9330  -20.9516   -8.5584 C   0  0  1  0  0  0  0  0  0  0  0  0
   25.8883  -19.4914   -8.2463 C   0  0  0  0  0  0  0  0  0  0  0  0
   26.9618  -19.0572   -7.3641 C   0  0  0  0  0  0  0  0  0  0  0  0
   27.7745  -17.9223   -7.5208 C   0  0  0  0  0  0  0  0  0  0  0  0
   28.6707  -17.8691   -6.5287 N   0  0  0  0  0  0  0  0  0  0  0  0
   28.4869  -18.9339   -5.7062 C   0  0  0  0  0  0  0  0  0  0  0  0
   29.1638  -19.2902   -4.5418 C   0  0  0  0  0  0  0  0  0  0  0  0
   28.7884  -20.4186   -3.8480 C   0  0  0  0  0  0  0  0  0  0  0  0
   27.7418  -21.1592   -4.3438 C   0  0  0  0  0  0  0  0  0  0  0  0
   27.0823  -20.7960   -5.4956 C   0  0  0  0  0  0  0  0  0  0  0  0
   27.4370  -19.6683   -6.2143 C   0  0  0  0  0  0  0  0  0  0  0  0
   25.0431  -21.8193   -7.8156 C   0  0  0  0  0  0  0  0  0  0  0  0
   25.1414  -22.1021   -6.6042 O   0  0  0  0  0  0  0  0  0  0  0  0
   23.9643  -22.4107   -8.4903 O   0  0  0  0  0  0  0  0  0  0  0  0
  2  1  1  1
  3  2  1  0
  4  2  1  0
  5  4  1  0
  5  6  1  6
  7  5  1  0
  7  8  2  0
 10  9  1  6
 10 12  1  0
 11 10  1  0
 12 13  1  6
 13  7  1  0
 14 12  1  0
 15 14  2  0
 16 14  1  0
 17 16  1  0
 17 28  1  0
 18 19  1  0
 17 18  1  6
 19 27  1  0
 20 21  1  0
 20 19  2  0
 21 22  1  0
 22 27  2  0
 22 23  1  0
 23 24  2  0
 24 25  1  0
 26 25  2  0
 27 26  1  0
 28 30  1  0
 29 28  2  0
M  END
$$$$
