LVW.pdb
     RDKit          3D

 30 31  0  0  1  0  0  0  0  0999 V2000
   31.6999  -15.3648  -18.5396 C   0  0  0  0  0  0  0  0  0  0  0  0
   30.6294  -16.4213  -18.6988 C   0  0  1  0  0  0  0  0  0  0  0  0
   31.2863  -17.7694  -18.7355 C   0  0  0  0  0  0  0  0  0  0  0  0
   29.5604  -16.3190  -17.6438 C   0  0  0  0  0  0  0  0  0  0  0  0
   28.6877  -17.5314  -17.6085 C   0  0  2  0  0  0  0  0  0  0  0  0
   27.9699  -17.7214  -18.8427 N   0  0  0  0  0  0  0  0  0  0  0  0
   27.8155  -17.5994  -16.4226 C   0  0  0  0  0  0  0  0  0  0  0  0
   27.9417  -16.7701  -15.4787 O   0  0  0  0  0  0  0  0  0  0  0  0
   24.2748  -17.0481  -16.4058 C   0  0  0  0  0  0  0  0  0  0  0  0
   24.4789  -18.4242  -15.8574 C   0  0  2  0  0  0  0  0  0  0  0  0
   23.3781  -18.6887  -14.8224 C   0  0  0  0  0  0  0  0  0  0  0  0
   25.8387  -18.5994  -15.2231 C   0  0  2  0  0  0  0  0  0  0  0  0
   26.8202  -18.5794  -16.2964 N   0  0  0  0  0  0  0  0  0  0  0  0
   25.9331  -19.9306  -14.5353 C   0  0  0  0  0  0  0  0  0  0  0  0
   25.8413  -20.9831  -15.1995 O   0  0  0  0  0  0  0  0  0  0  0  0
   26.1251  -20.0036  -13.1350 N   0  0  0  0  0  0  0  0  0  0  0  0
   26.2650  -21.3203  -12.4930 C   0  0  1  0  0  0  0  0  0  0  0  0
   27.3585  -21.2517  -11.4775 C   0  0  0  0  0  0  0  0  0  0  0  0
   26.9203  -20.7260  -10.1928 C   0  0  0  0  0  0  0  0  0  0  0  0
   25.6042  -20.4130   -9.8149 C   0  0  0  0  0  0  0  0  0  0  0  0
   25.5969  -19.9245   -8.5692 N   0  0  0  0  0  0  0  0  0  0  0  0
   26.8689  -19.8991   -8.0944 C   0  0  0  0  0  0  0  0  0  0  0  0
   27.3505  -19.4911   -6.8524 C   0  0  0  0  0  0  0  0  0  0  0  0
   28.6973  -19.5730   -6.5781 C   0  0  0  0  0  0  0  0  0  0  0  0
   29.5243  -20.0632   -7.5606 C   0  0  0  0  0  0  0  0  0  0  0  0
   29.0352  -20.4622   -8.7832 C   0  0  0  0  0  0  0  0  0  0  0  0
   27.6876  -20.3912   -9.0880 C   0  0  0  0  0  0  0  0  0  0  0  0
   24.9825  -21.8322  -12.0576 C   0  0  0  0  0  0  0  0  0  0  0  0
   23.9869  -21.1447  -11.7525 O   0  0  0  0  0  0  0  0  0  0  0  0
   24.8125  -23.2216  -11.9594 O   0  0  0  0  0  0  0  0  0  0  0  0
  2  1  1  1
  3  2  1  0
  4  2  1  0
  5  4  1  0
  5  6  1  6
  7  5  1  0
  7  8  2  0
 10  9  1  1
 10 12  1  0
 11 10  1  0
 12 13  1  6
 13  7  1  0
 14 12  1  0
 15 14  2  0
 16 14  1  0
 17 16  1  0
 17 28  1  0
 18 19  1  0
 17 18  1  1
 19 27  1  0
 20 21  1  0
 20 19  2  0
 21 22  1  0
 22 27  2  0
 22 23  1  0
 23 24  2  0
 24 25  1  0
 26 25  2  0
 27 26  1  0
 28 30  1  0
 29 28  2  0
M  END
$$$$
