HCK.pdb
     RDKit          3D

 26 26  0  0  1  0  0  0  0  0999 V2000
    7.3135  -15.3568   20.7232 N   0  0  0  0  0  0  0  0  0  0  0  0
    8.7339  -15.2196   20.9096 C   0  0  1  0  0  0  0  0  0  0  0  0
    9.3544  -14.4046   19.8158 C   0  0  0  0  0  0  0  0  0  0  0  0
    8.5618  -14.3776   18.5651 C   0  0  0  0  0  0  0  0  0  0  0  0
    7.5691  -15.2836   18.2921 C   0  0  0  0  0  0  0  0  0  0  0  0
    7.0335  -15.0083   17.0893 N   0  0  0  0  0  0  0  0  0  0  0  0
    7.6903  -13.9310   16.6092 C   0  0  0  0  0  0  0  0  0  0  0  0
    8.6106  -13.5554   17.5022 N   0  0  0  0  0  0  0  0  0  0  0  0
    9.0460  -14.6177   22.2411 C   0  0  0  0  0  0  0  0  0  0  0  0
   10.0987  -13.9322   22.3345 O   0  0  0  0  0  0  0  0  0  0  0  0
    8.2083  -14.7957   23.3612 N   0  0  0  0  0  0  0  0  0  0  0  0
    8.7496  -14.7815   24.6807 C   0  0  1  0  0  0  0  0  0  0  0  0
    7.8549  -13.9710   25.5797 C   0  0  0  0  0  0  0  0  0  0  0  0
    6.1031  -14.3281   25.3043 S   0  0  0  0  0  0  0  0  0  0  0  0
    9.0388  -16.1422   25.2024 C   0  0  0  0  0  0  0  0  0  0  0  0
    8.3260  -17.1253   24.7940 O   0  0  0  0  0  0  0  0  0  0  0  0
   10.0490  -16.4710   26.1322 N   0  0  0  0  0  0  0  0  0  0  0  0
   10.3409  -17.7927   26.5712 C   0  0  1  0  0  0  0  0  0  0  0  0
   11.3739  -18.5606   25.8444 C   0  0  0  0  0  0  0  0  0  0  0  0
   11.6759  -19.9318   26.3734 C   0  0  0  0  0  0  0  0  0  0  0  0
   12.2140  -20.7818   25.2425 C   0  0  0  0  0  0  0  0  0  0  0  0
   12.5976  -22.1671   25.6514 C   0  0  0  0  0  0  0  0  0  0  0  0
   12.9175  -23.0276   24.5314 N   0  0  0  0  0  0  0  0  0  0  0  0
   10.7915  -17.7732   28.0278 C   0  0  0  0  0  0  0  0  0  0  0  0
   11.1298  -18.8346   28.5885 O   0  0  0  0  0  0  0  0  0  0  0  0
   10.8229  -16.5796   28.7217 O   0  0  0  0  0  0  0  0  0  0  0  0
  2  1  1  6
  2  9  1  0
  3  2  1  0
  3  4  1  0
  4  5  2  0
  4  8  1  0
  5  6  1  0
  6  7  1  0
  8  7  2  0
  9 10  2  0
 11  9  1  0
 11 12  1  0
 12 15  1  0
 12 13  1  1
 14 13  1  0
 15 16  2  0
 17 15  1  0
 17 18  1  0
 18 24  1  0
 18 19  1  6
 20 19  1  0
 21 22  1  0
 21 20  1  0
 22 23  1  0
 24 25  2  0
 24 26  1  0
M  END
$$$$
