HCK.pdb
     RDKit          3D

 26 26  0  0  1  0  0  0  0  0999 V2000
   10.1042  -13.7176   20.6125 N   0  0  0  0  0  0  0  0  0  0  0  0
    8.7897  -13.8453   21.1842 C   0  0  1  0  0  0  0  0  0  0  0  0
    8.0474  -15.0077   20.5982 C   0  0  0  0  0  0  0  0  0  0  0  0
    7.7285  -14.8521   19.1605 C   0  0  0  0  0  0  0  0  0  0  0  0
    8.1827  -13.8008   18.4058 C   0  0  0  0  0  0  0  0  0  0  0  0
    7.7312  -13.9296   17.1454 N   0  0  0  0  0  0  0  0  0  0  0  0
    6.9946  -15.0604   17.1105 C   0  0  0  0  0  0  0  0  0  0  0  0
    6.9958  -15.6121   18.3275 N   0  0  0  0  0  0  0  0  0  0  0  0
    8.8601  -13.9755   22.6710 C   0  0  0  0  0  0  0  0  0  0  0  0
    9.8723  -14.5481   23.1551 O   0  0  0  0  0  0  0  0  0  0  0  0
    7.8460  -13.4822   23.5174 N   0  0  0  0  0  0  0  0  0  0  0  0
    7.9773  -13.5723   24.9348 C   0  0  1  0  0  0  0  0  0  0  0  0
    6.8374  -12.8399   25.5903 C   0  0  0  0  0  0  0  0  0  0  0  0
    6.9041  -12.9443   27.3950 S   0  0  0  0  0  0  0  0  0  0  0  0
    8.1378  -14.9695   25.4136 C   0  0  0  0  0  0  0  0  0  0  0  0
    7.2883  -15.8526   25.0398 O   0  0  0  0  0  0  0  0  0  0  0  0
    9.1619  -15.4361   26.2661 N   0  0  0  0  0  0  0  0  0  0  0  0
    9.2809  -16.7785   26.7228 C   0  0  1  0  0  0  0  0  0  0  0  0
   10.0667  -17.7292   25.9079 C   0  0  0  0  0  0  0  0  0  0  0  0
   10.1415  -19.1375   26.4198 C   0  0  0  0  0  0  0  0  0  0  0  0
   10.9759  -19.9597   25.4613 C   0  0  0  0  0  0  0  0  0  0  0  0
   11.1690  -21.3795   25.8858 C   0  0  0  0  0  0  0  0  0  0  0  0
   11.7849  -22.2039   24.8668 N   0  0  0  0  0  0  0  0  0  0  0  0
    9.9130  -16.8057   28.1102 C   0  0  0  0  0  0  0  0  0  0  0  0
   10.3873  -15.7607   28.5983 O   0  0  0  0  0  0  0  0  0  0  0  0
    9.9585  -17.9885   28.8216 O   0  0  0  0  0  0  0  0  0  0  0  0
  2  1  1  6
  2  9  1  0
  3  2  1  0
  3  4  1  0
  4  5  2  0
  4  8  1  0
  5  6  1  0
  6  7  1  0
  8  7  2  0
  9 10  2  0
 11  9  1  0
 11 12  1  0
 12 15  1  0
 12 13  1  1
 14 13  1  0
 15 16  2  0
 17 15  1  0
 17 18  1  0
 18 24  1  0
 18 19  1  6
 20 19  1  0
 21 22  1  0
 21 20  1  0
 22 23  1  0
 24 25  2  0
 24 26  1  0
M  END
$$$$
