HCK.pdb
     RDKit          3D

 26 26  0  0  1  0  0  0  0  0999 V2000
    8.3025  -16.2033   19.5903 N   0  0  0  0  0  0  0  0  0  0  0  0
    8.8293  -14.8991   19.8946 C   0  0  1  0  0  0  0  0  0  0  0  0
    8.0005  -13.8148   19.2757 C   0  0  0  0  0  0  0  0  0  0  0  0
    8.0140  -13.8212   17.7949 C   0  0  0  0  0  0  0  0  0  0  0  0
    8.7471  -14.7177   17.0601 C   0  0  0  0  0  0  0  0  0  0  0  0
    8.5609  -14.4772   15.7498 N   0  0  0  0  0  0  0  0  0  0  0  0
    7.7123  -13.4308   15.6639 C   0  0  0  0  0  0  0  0  0  0  0  0
    7.3863  -13.0391   16.8991 N   0  0  0  0  0  0  0  0  0  0  0  0
    8.9310  -14.6911   21.3707 C   0  0  0  0  0  0  0  0  0  0  0  0
    9.3181  -13.5612   21.7711 O   0  0  0  0  0  0  0  0  0  0  0  0
    8.6094  -15.7048   22.2964 N   0  0  0  0  0  0  0  0  0  0  0  0
    8.9406  -15.5582   23.6760 C   0  0  1  0  0  0  0  0  0  0  0  0
    7.8037  -14.8818   24.3940 C   0  0  0  0  0  0  0  0  0  0  0  0
    6.4289  -16.0122   24.7173 S   0  0  0  0  0  0  0  0  0  0  0  0
    9.3658  -16.8337   24.3080 C   0  0  0  0  0  0  0  0  0  0  0  0
    8.7120  -17.9031   24.0432 O   0  0  0  0  0  0  0  0  0  0  0  0
   10.4494  -16.9908   25.1993 N   0  0  0  0  0  0  0  0  0  0  0  0
   10.8583  -18.2333   25.7595 C   0  0  1  0  0  0  0  0  0  0  0  0
   12.2689  -18.6448   25.5978 C   0  0  0  0  0  0  0  0  0  0  0  0
   12.5106  -19.8756   24.7746 C   0  0  0  0  0  0  0  0  0  0  0  0
   13.6566  -19.6070   23.8230 C   0  0  0  0  0  0  0  0  0  0  0  0
   13.9138  -20.7134   22.8519 C   0  0  0  0  0  0  0  0  0  0  0  0
   14.9234  -20.3879   21.8660 N   0  0  0  0  0  0  0  0  0  0  0  0
   10.5969  -18.2418   27.2617 C   0  0  0  0  0  0  0  0  0  0  0  0
   10.1545  -17.2192   27.8219 O   0  0  0  0  0  0  0  0  0  0  0  0
   10.8516  -19.3826   27.9971 O   0  0  0  0  0  0  0  0  0  0  0  0
  2  1  1  1
  2  9  1  0
  3  2  1  0
  3  4  1  0
  4  5  2  0
  4  8  1  0
  5  6  1  0
  6  7  1  0
  8  7  2  0
  9 10  2  0
 11  9  1  0
 11 12  1  0
 12 15  1  0
 12 13  1  1
 14 13  1  0
 15 16  2  0
 17 15  1  0
 17 18  1  0
 18 24  1  0
 18 19  1  1
 20 19  1  0
 21 22  1  0
 21 20  1  0
 22 23  1  0
 24 25  2  0
 24 26  1  0
M  END
$$$$
