HCK.pdb
     RDKit          3D

 26 26  0  0  1  0  0  0  0  0999 V2000
    7.7366  -17.5612   18.8517 N   0  0  0  0  0  0  0  0  0  0  0  0
    8.8706  -16.8468   19.3758 C   0  0  1  0  0  0  0  0  0  0  0  0
    8.4504  -15.7938   20.3556 C   0  0  0  0  0  0  0  0  0  0  0  0
    7.9006  -14.5724   19.7240 C   0  0  0  0  0  0  0  0  0  0  0  0
    7.8703  -14.3847   18.3658 C   0  0  0  0  0  0  0  0  0  0  0  0
    7.3188  -13.1885   18.0938 N   0  0  0  0  0  0  0  0  0  0  0  0
    7.0041  -12.6271   19.2805 C   0  0  0  0  0  0  0  0  0  0  0  0
    7.3573  -13.4650   20.2596 N   0  0  0  0  0  0  0  0  0  0  0  0
    9.8483  -17.7812   20.0111 C   0  0  0  0  0  0  0  0  0  0  0  0
    9.4038  -18.8763   20.4469 O   0  0  0  0  0  0  0  0  0  0  0  0
   11.2187  -17.4703   20.1267 N   0  0  0  0  0  0  0  0  0  0  0  0
   12.1283  -18.4066   20.7016 C   0  0  1  0  0  0  0  0  0  0  0  0
   13.0160  -18.9680   19.6236 C   0  0  0  0  0  0  0  0  0  0  0  0
   14.3266  -20.0192   20.2943 S   0  0  0  0  0  0  0  0  0  0  0  0
   12.8781  -17.8503   21.8572 C   0  0  0  0  0  0  0  0  0  0  0  0
   13.2783  -16.6343   21.8072 O   0  0  0  0  0  0  0  0  0  0  0  0
   13.2059  -18.5480   23.0401 N   0  0  0  0  0  0  0  0  0  0  0  0
   14.0252  -18.0287   24.0812 C   0  0  1  0  0  0  0  0  0  0  0  0
   14.0538  -18.7449   25.3741 C   0  0  0  0  0  0  0  0  0  0  0  0
   12.7507  -18.8329   26.1124 C   0  0  0  0  0  0  0  0  0  0  0  0
   12.9390  -19.7152   27.3278 C   0  0  0  0  0  0  0  0  0  0  0  0
   11.6793  -19.9850   28.0854 C   0  0  0  0  0  0  0  0  0  0  0  0
   11.8510  -20.9375   29.1627 N   0  0  0  0  0  0  0  0  0  0  0  0
   15.4764  -17.9564   23.6188 C   0  0  0  0  0  0  0  0  0  0  0  0
   15.8562  -18.6459   22.6515 O   0  0  0  0  0  0  0  0  0  0  0  0
   16.3659  -17.1275   24.2737 O   0  0  0  0  0  0  0  0  0  0  0  0
  2  1  1  1
  2  9  1  0
  3  2  1  0
  3  4  1  0
  4  5  2  0
  4  8  1  0
  5  6  1  0
  6  7  1  0
  8  7  2  0
  9 10  2  0
 11  9  1  0
 11 12  1  0
 12 15  1  0
 12 13  1  6
 14 13  1  0
 15 16  2  0
 17 15  1  0
 17 18  1  0
 18 24  1  0
 18 19  1  1
 20 19  1  0
 21 22  1  0
 21 20  1  0
 22 23  1  0
 24 25  2  0
 24 26  1  0
M  END
$$$$
