HCK.pdb
     RDKit          3D

 26 26  0  0  1  0  0  0  0  0999 V2000
   10.9210  -17.3459   14.0871 N   0  0  0  0  0  0  0  0  0  0  0  0
   11.1482  -18.5233   14.8830 C   0  0  1  0  0  0  0  0  0  0  0  0
   12.3754  -19.2584   14.4367 C   0  0  0  0  0  0  0  0  0  0  0  0
   12.2357  -19.9108   13.1146 C   0  0  0  0  0  0  0  0  0  0  0  0
   12.3805  -19.2341   11.9305 C   0  0  0  0  0  0  0  0  0  0  0  0
   12.1967  -20.0855   10.9057 N   0  0  0  0  0  0  0  0  0  0  0  0
   11.9367  -21.2945   11.4471 C   0  0  0  0  0  0  0  0  0  0  0  0
   11.9609  -21.1835   12.7785 N   0  0  0  0  0  0  0  0  0  0  0  0
   11.2520  -18.1802   16.3335 C   0  0  0  0  0  0  0  0  0  0  0  0
   11.0119  -16.9891   16.6657 O   0  0  0  0  0  0  0  0  0  0  0  0
   11.6012  -19.1367   17.3088 N   0  0  0  0  0  0  0  0  0  0  0  0
   11.5219  -18.8187   18.6970 C   0  0  1  0  0  0  0  0  0  0  0  0
   10.1151  -18.4042   19.0356 C   0  0  0  0  0  0  0  0  0  0  0  0
    8.9082  -19.6929   18.6421 S   0  0  0  0  0  0  0  0  0  0  0  0
   12.0477  -19.9000   19.5695 C   0  0  0  0  0  0  0  0  0  0  0  0
   11.6751  -21.1063   19.3519 O   0  0  0  0  0  0  0  0  0  0  0  0
   12.9421  -19.7272   20.6482 N   0  0  0  0  0  0  0  0  0  0  0  0
   13.6392  -20.7860   21.2945 C   0  0  1  0  0  0  0  0  0  0  0  0
   14.8621  -20.4574   22.0573 C   0  0  0  0  0  0  0  0  0  0  0  0
   15.5727  -21.6116   22.7006 C   0  0  0  0  0  0  0  0  0  0  0  0
   16.9558  -21.1597   23.1177 C   0  0  0  0  0  0  0  0  0  0  0  0
   17.7672  -22.2215   23.7869 C   0  0  0  0  0  0  0  0  0  0  0  0
   19.0977  -21.7815   24.1522 N   0  0  0  0  0  0  0  0  0  0  0  0
   12.7173  -21.4949   22.2806 C   0  0  0  0  0  0  0  0  0  0  0  0
   11.6534  -20.9515   22.6386 O   0  0  0  0  0  0  0  0  0  0  0  0
   13.0642  -22.7370   22.7748 O   0  0  0  0  0  0  0  0  0  0  0  0
  2  1  1  6
  2  9  1  0
  3  2  1  0
  3  4  1  0
  4  5  2  0
  4  8  1  0
  5  6  1  0
  6  7  1  0
  8  7  2  0
  9 10  2  0
 11  9  1  0
 11 12  1  0
 12 15  1  0
 12 13  1  1
 14 13  1  0
 15 16  2  0
 17 15  1  0
 17 18  1  0
 18 24  1  0
 18 19  1  1
 20 19  1  0
 21 22  1  0
 21 20  1  0
 22 23  1  0
 24 25  2  0
 24 26  1  0
M  END
$$$$
