HCK.pdb
     RDKit          3D

 26 26  0  0  1  0  0  0  0  0999 V2000
    8.0480  -13.0233   17.3634 N   0  0  0  0  0  0  0  0  0  0  0  0
    8.6740  -14.1317   18.0347 C   0  0  1  0  0  0  0  0  0  0  0  0
   10.0026  -14.4623   17.4257 C   0  0  0  0  0  0  0  0  0  0  0  0
    9.9168  -15.3589   16.2502 C   0  0  0  0  0  0  0  0  0  0  0  0
    9.1890  -15.0507   15.1294 C   0  0  0  0  0  0  0  0  0  0  0  0
    9.2998  -16.0514   14.2374 N   0  0  0  0  0  0  0  0  0  0  0  0
   10.0962  -16.9856   14.7991 C   0  0  0  0  0  0  0  0  0  0  0  0
   10.4647  -16.5636   16.0121 N   0  0  0  0  0  0  0  0  0  0  0  0
    8.8305  -13.8572   19.4951 C   0  0  0  0  0  0  0  0  0  0  0  0
    8.4999  -12.7141   19.9083 O   0  0  0  0  0  0  0  0  0  0  0  0
    9.3246  -14.8255   20.3931 N   0  0  0  0  0  0  0  0  0  0  0  0
    9.2736  -14.6016   21.8008 C   0  0  1  0  0  0  0  0  0  0  0  0
    7.8479  -14.3577   22.2171 C   0  0  0  0  0  0  0  0  0  0  0  0
    6.7291  -15.6455   21.6152 S   0  0  0  0  0  0  0  0  0  0  0  0
    9.9446  -15.6724   22.5819 C   0  0  0  0  0  0  0  0  0  0  0  0
    9.5678  -16.8859   22.4180 O   0  0  0  0  0  0  0  0  0  0  0  0
   10.9857  -15.4820   23.5164 N   0  0  0  0  0  0  0  0  0  0  0  0
   10.9147  -15.8524   24.8884 C   0  0  1  0  0  0  0  0  0  0  0  0
    9.8222  -15.2903   25.7106 C   0  0  0  0  0  0  0  0  0  0  0  0
    9.6556  -15.8757   27.0819 C   0  0  0  0  0  0  0  0  0  0  0  0
    9.5562  -14.7459   28.0843 C   0  0  0  0  0  0  0  0  0  0  0  0
    9.3821  -15.1994   29.4976 C   0  0  0  0  0  0  0  0  0  0  0  0
    9.2760  -14.1063   30.4415 N   0  0  0  0  0  0  0  0  0  0  0  0
   10.7885  -17.3665   25.0164 C   0  0  0  0  0  0  0  0  0  0  0  0
   11.5283  -17.9879   25.8050 O   0  0  0  0  0  0  0  0  0  0  0  0
    9.8552  -18.0450   24.2576 O   0  0  0  0  0  0  0  0  0  0  0  0
  2  1  1  6
  2  9  1  0
  3  2  1  0
  3  4  1  0
  4  5  2  0
  4  8  1  0
  5  6  1  0
  6  7  1  0
  8  7  2  0
  9 10  2  0
 11  9  1  0
 11 12  1  0
 12 15  1  0
 12 13  1  1
 14 13  1  0
 15 16  2  0
 17 15  1  0
 17 18  1  0
 18 24  1  0
 18 19  1  6
 20 19  1  0
 21 22  1  0
 21 20  1  0
 22 23  1  0
 24 25  2  0
 24 26  1  0
M  END
$$$$
