HCK.pdb
     RDKit          3D

 26 26  0  0  1  0  0  0  0  0999 V2000
   13.7339  -17.6898   17.1378 N   0  0  0  0  0  0  0  0  0  0  0  0
   14.5161  -18.2706   18.1970 C   0  0  1  0  0  0  0  0  0  0  0  0
   15.8254  -17.5611   18.3644 C   0  0  0  0  0  0  0  0  0  0  0  0
   16.7466  -17.7243   17.2164 C   0  0  0  0  0  0  0  0  0  0  0  0
   16.9232  -16.7580   16.2593 C   0  0  0  0  0  0  0  0  0  0  0  0
   17.8141  -17.1903   15.3491 N   0  0  0  0  0  0  0  0  0  0  0  0
   18.1950  -18.4265   15.7354 C   0  0  0  0  0  0  0  0  0  0  0  0
   17.5483  -18.7436   16.8608 N   0  0  0  0  0  0  0  0  0  0  0  0
   13.7608  -18.2694   19.4863 C   0  0  0  0  0  0  0  0  0  0  0  0
   13.2346  -17.1836   19.8484 O   0  0  0  0  0  0  0  0  0  0  0  0
   13.6283  -19.4267   20.2807 N   0  0  0  0  0  0  0  0  0  0  0  0
   12.9406  -19.3741   21.5292 C   0  0  1  0  0  0  0  0  0  0  0  0
   11.5458  -19.9123   21.3550 C   0  0  0  0  0  0  0  0  0  0  0  0
   10.6953  -20.1341   22.9361 S   0  0  0  0  0  0  0  0  0  0  0  0
   13.6936  -20.0241   22.6326 C   0  0  0  0  0  0  0  0  0  0  0  0
   14.2457  -21.1603   22.4190 O   0  0  0  0  0  0  0  0  0  0  0  0
   13.8659  -19.5014   23.9327 N   0  0  0  0  0  0  0  0  0  0  0  0
   14.5575  -20.1665   24.9835 C   0  0  1  0  0  0  0  0  0  0  0  0
   14.5506  -19.5506   26.3273 C   0  0  0  0  0  0  0  0  0  0  0  0
   15.4405  -20.1877   27.3535 C   0  0  0  0  0  0  0  0  0  0  0  0
   15.2956  -19.4339   28.6581 C   0  0  0  0  0  0  0  0  0  0  0  0
   16.2117  -19.9074   29.7398 C   0  0  0  0  0  0  0  0  0  0  0  0
   16.1329  -19.1114   30.9471 N   0  0  0  0  0  0  0  0  0  0  0  0
   13.9967  -21.5719   25.1723 C   0  0  0  0  0  0  0  0  0  0  0  0
   12.7630  -21.7484   25.2180 O   0  0  0  0  0  0  0  0  0  0  0  0
   14.8577  -22.6450   25.2926 O   0  0  0  0  0  0  0  0  0  0  0  0
  2  1  1  6
  2  9  1  0
  3  2  1  0
  3  4  1  0
  4  5  2  0
  4  8  1  0
  5  6  1  0
  6  7  1  0
  8  7  2  0
  9 10  2  0
 11  9  1  0
 11 12  1  0
 12 15  1  0
 12 13  1  6
 14 13  1  0
 15 16  2  0
 17 15  1  0
 17 18  1  0
 18 24  1  0
 18 19  1  1
 20 19  1  0
 21 22  1  0
 21 20  1  0
 22 23  1  0
 24 25  2  0
 24 26  1  0
M  END
$$$$
