HCK.pdb
     RDKit          3D

 26 26  0  0  1  0  0  0  0  0999 V2000
    9.9348  -15.6272   15.1385 N   0  0  0  0  0  0  0  0  0  0  0  0
    9.1976  -16.2278   16.2188 C   0  0  1  0  0  0  0  0  0  0  0  0
    9.3555  -17.7179   16.2285 C   0  0  0  0  0  0  0  0  0  0  0  0
    8.8076  -18.3867   15.0262 C   0  0  0  0  0  0  0  0  0  0  0  0
    7.5155  -18.8399   14.9490 C   0  0  0  0  0  0  0  0  0  0  0  0
    7.3112  -19.3997   13.7431 N   0  0  0  0  0  0  0  0  0  0  0  0
    8.4743  -19.2975   13.0656 C   0  0  0  0  0  0  0  0  0  0  0  0
    9.3728  -18.6868   13.8435 N   0  0  0  0  0  0  0  0  0  0  0  0
    9.6124  -15.6570   17.5358 C   0  0  0  0  0  0  0  0  0  0  0  0
   10.8463  -15.5039   17.7380 O   0  0  0  0  0  0  0  0  0  0  0  0
    8.6764  -15.2953   18.5264 N   0  0  0  0  0  0  0  0  0  0  0  0
    9.1010  -14.6399   19.7200 C   0  0  1  0  0  0  0  0  0  0  0  0
    7.9180  -13.9798   20.3759 C   0  0  0  0  0  0  0  0  0  0  0  0
    6.7358  -15.1844   21.0270 S   0  0  0  0  0  0  0  0  0  0  0  0
    9.8625  -15.5326   20.6311 C   0  0  0  0  0  0  0  0  0  0  0  0
    9.6951  -16.7994   20.5380 O   0  0  0  0  0  0  0  0  0  0  0  0
   10.7784  -15.1134   21.6204 N   0  0  0  0  0  0  0  0  0  0  0  0
   11.4904  -15.9924   22.4836 C   0  0  1  0  0  0  0  0  0  0  0  0
   12.8365  -15.5874   22.9413 C   0  0  0  0  0  0  0  0  0  0  0  0
   13.6494  -16.6448   23.6282 C   0  0  0  0  0  0  0  0  0  0  0  0
   14.9923  -16.0572   24.0057 C   0  0  0  0  0  0  0  0  0  0  0  0
   15.9359  -17.0398   24.6201 C   0  0  0  0  0  0  0  0  0  0  0  0
   17.2694  -16.5096   24.8149 N   0  0  0  0  0  0  0  0  0  0  0  0
   10.6840  -16.2475   23.7524 C   0  0  0  0  0  0  0  0  0  0  0  0
    9.7337  -15.4956   24.0472 O   0  0  0  0  0  0  0  0  0  0  0  0
   11.0095  -17.3107   24.5714 O   0  0  0  0  0  0  0  0  0  0  0  0
  2  1  1  6
  2  9  1  0
  3  2  1  0
  3  4  1  0
  4  5  2  0
  4  8  1  0
  5  6  1  0
  6  7  1  0
  8  7  2  0
  9 10  2  0
 11  9  1  0
 11 12  1  0
 12 15  1  0
 12 13  1  1
 14 13  1  0
 15 16  2  0
 17 15  1  0
 17 18  1  0
 18 24  1  0
 18 19  1  1
 20 19  1  0
 21 22  1  0
 21 20  1  0
 22 23  1  0
 24 25  2  0
 24 26  1  0
M  END
$$$$
