DAC.pdb
     RDKit          3D

 20 19  0  0  1  0  0  0  0  0999 V2000
    8.3101  -17.7220   18.6431 N   0  0  0  0  0  0  0  0  0  0  0  0
    9.6792  -17.2605   18.7617 C   0  0  1  0  0  0  0  0  0  0  0  0
   10.3186  -17.4620   17.3971 C   0  0  0  0  0  0  0  0  0  0  0  0
   10.6170  -18.9142   17.2804 C   0  0  0  0  0  0  0  0  0  0  0  0
    9.6735  -19.7462   17.2795 O   0  0  0  0  0  0  0  0  0  0  0  0
    9.6595  -15.8459   19.1644 C   0  0  0  0  0  0  0  0  0  0  0  0
   10.7409  -15.2334   19.3350 O   0  0  0  0  0  0  0  0  0  0  0  0
   11.9060  -19.4186   17.1697 O   0  0  0  0  0  0  0  0  0  0  0  0
    7.0069  -13.2172   19.4164 C   0  0  0  0  0  0  0  0  0  0  0  0
    8.4276  -13.7015   19.7236 C   0  0  2  0  0  0  0  0  0  0  0  0
    8.4721  -15.0927   19.3829 N   0  0  0  0  0  0  0  0  0  0  0  0
    8.6511  -13.4396   21.1633 C   0  0  0  0  0  0  0  0  0  0  0  0
    8.6720  -12.3134   21.6906 O   0  0  0  0  0  0  0  0  0  0  0  0
    8.8556  -14.6034   21.9797 N   0  0  0  0  0  0  0  0  0  0  0  0
    9.1211  -14.5302   23.3851 C   0  0  1  0  0  0  0  0  0  0  0  0
    7.8154  -14.8229   24.1347 C   0  0  0  0  0  0  0  0  0  0  0  0
    7.9585  -14.4688   25.8876 S   0  0  0  0  0  0  0  0  0  0  0  0
   10.1030  -15.5737   23.7429 C   0  0  0  0  0  0  0  0  0  0  0  0
   10.4279  -16.5580   22.8306 O   0  0  0  0  0  0  0  0  0  0  0  0
   10.6523  -15.5871   24.8631 O   0  0  0  0  0  0  0  0  0  0  0  0
  2  1  1  6
  2  3  1  0
  4  5  2  0
  4  3  1  0
  6  2  1  0
  7  6  2  0
  8  4  1  0
 10  9  1  1
 10 12  1  0
 10 11  1  0
 11  6  1  0
 12 13  2  0
 14 15  1  0
 14 12  1  0
 15 16  1  1
 16 17  1  0
 18 15  1  0
 19 18  1  0
 20 18  2  0
M  END
$$$$
