DAC.pdb
     RDKit          3D

 20 19  0  0  1  0  0  0  0  0999 V2000
   -1.4415  -27.4710   28.6906 N   0  0  0  0  0  0  0  0  0  0  0  0
   -2.0424  -27.0750   29.9490 C   0  0  1  0  0  0  0  0  0  0  0  0
   -1.1564  -25.9796   30.5206 C   0  0  0  0  0  0  0  0  0  0  0  0
    0.0067  -26.6612   31.1483 C   0  0  0  0  0  0  0  0  0  0  0  0
    0.7117  -26.0446   31.9882 O   0  0  0  0  0  0  0  0  0  0  0  0
   -3.4099  -26.6033   29.6827 C   0  0  0  0  0  0  0  0  0  0  0  0
   -3.6092  -25.7513   28.7838 O   0  0  0  0  0  0  0  0  0  0  0  0
    0.3698  -27.9691   30.8556 O   0  0  0  0  0  0  0  0  0  0  0  0
   -6.8026  -27.3478   31.1346 C   0  0  0  0  0  0  0  0  0  0  0  0
   -5.8806  -26.5081   30.2446 C   0  0  2  0  0  0  0  0  0  0  0  0
   -4.5623  -27.0517   30.3870 N   0  0  0  0  0  0  0  0  0  0  0  0
   -5.9986  -25.1136   30.7268 C   0  0  0  0  0  0  0  0  0  0  0  0
   -5.2635  -24.5876   31.5810 O   0  0  0  0  0  0  0  0  0  0  0  0
   -7.0568  -24.3421   30.1371 N   0  0  0  0  0  0  0  0  0  0  0  0
   -7.2134  -22.9367   30.3634 C   0  0  1  0  0  0  0  0  0  0  0  0
   -6.1286  -22.2000   29.5678 C   0  0  0  0  0  0  0  0  0  0  0  0
   -6.3008  -20.4189   29.6958 S   0  0  0  0  0  0  0  0  0  0  0  0
   -8.5314  -22.5120   29.8500 C   0  0  0  0  0  0  0  0  0  0  0  0
   -9.2324  -21.5104   30.4919 O   0  0  0  0  0  0  0  0  0  0  0  0
   -9.0323  -23.0431   28.8381 O   0  0  0  0  0  0  0  0  0  0  0  0
  2  1  1  6
  2  3  1  0
  4  5  2  0
  4  3  1  0
  6  2  1  0
  7  6  2  0
  8  4  1  0
 10  9  1  1
 10 12  1  0
 10 11  1  0
 11  6  1  0
 12 13  2  0
 14 15  1  0
 14 12  1  0
 15 16  1  6
 16 17  1  0
 18 15  1  0
 19 18  1  0
 20 18  2  0
M  END
$$$$
