DAC.pdb
     RDKit          3D

 20 19  0  0  1  0  0  0  0  0999 V2000
   11.9419  -17.2908   20.1089 N   0  0  0  0  0  0  0  0  0  0  0  0
   10.6407  -17.4808   20.7190 C   0  0  1  0  0  0  0  0  0  0  0  0
   10.3080  -18.9566   20.5669 C   0  0  0  0  0  0  0  0  0  0  0  0
    9.9155  -19.1571   19.1467 C   0  0  0  0  0  0  0  0  0  0  0  0
   10.7002  -19.7477   18.3605 O   0  0  0  0  0  0  0  0  0  0  0  0
   10.7245  -17.0710   22.1292 C   0  0  0  0  0  0  0  0  0  0  0  0
   11.7017  -17.4368   22.8255 O   0  0  0  0  0  0  0  0  0  0  0  0
    8.7053  -18.7209   18.6239 O   0  0  0  0  0  0  0  0  0  0  0  0
    8.5276  -15.0648   24.4370 C   0  0  0  0  0  0  0  0  0  0  0  0
    9.7423  -15.9648   24.1885 C   0  0  2  0  0  0  0  0  0  0  0  0
    9.7529  -16.2661   22.7875 N   0  0  0  0  0  0  0  0  0  0  0  0
    9.5559  -17.1566   25.0465 C   0  0  0  0  0  0  0  0  0  0  0  0
    8.9073  -18.1701   24.7317 O   0  0  0  0  0  0  0  0  0  0  0  0
   10.1894  -17.0976   26.3341 N   0  0  0  0  0  0  0  0  0  0  0  0
   10.3059  -18.2354   27.1960 C   0  0  1  0  0  0  0  0  0  0  0  0
   11.3970  -19.1537   26.6315 C   0  0  0  0  0  0  0  0  0  0  0  0
   11.7696  -20.5100   27.7451 S   0  0  0  0  0  0  0  0  0  0  0  0
   10.7318  -17.7812   28.5351 C   0  0  0  0  0  0  0  0  0  0  0  0
   10.6234  -18.6299   29.6190 O   0  0  0  0  0  0  0  0  0  0  0  0
   11.1925  -16.6353   28.7125 O   0  0  0  0  0  0  0  0  0  0  0  0
  2  1  1  1
  2  3  1  0
  4  5  2  0
  4  3  1  0
  6  2  1  0
  7  6  2  0
  8  4  1  0
 10  9  1  6
 10 12  1  0
 10 11  1  0
 11  6  1  0
 12 13  2  0
 14 15  1  0
 14 12  1  0
 15 16  1  6
 16 17  1  0
 18 15  1  0
 19 18  1  0
 20 18  2  0
M  END
$$$$
