DAC.pdb
     RDKit          3D

 20 19  0  0  1  0  0  0  0  0999 V2000
    9.6236  -17.6031   19.9486 N   0  0  0  0  0  0  0  0  0  0  0  0
    8.6729  -16.5651   19.6023 C   0  0  1  0  0  0  0  0  0  0  0  0
    7.7639  -17.1555   18.5360 C   0  0  0  0  0  0  0  0  0  0  0  0
    8.5901  -17.2976   17.3077 C   0  0  0  0  0  0  0  0  0  0  0  0
    9.5843  -18.0683   17.3110 O   0  0  0  0  0  0  0  0  0  0  0  0
    7.9345  -16.1871   20.8170 C   0  0  0  0  0  0  0  0  0  0  0  0
    7.0477  -15.3020   20.7548 O   0  0  0  0  0  0  0  0  0  0  0  0
    8.3231  -16.6138   16.1290 O   0  0  0  0  0  0  0  0  0  0  0  0
    7.5242  -17.6817   24.2033 C   0  0  0  0  0  0  0  0  0  0  0  0
    7.3986  -16.4659   23.2795 C   0  0  2  0  0  0  0  0  0  0  0  0
    8.1537  -16.7650   22.0988 N   0  0  0  0  0  0  0  0  0  0  0  0
    7.9274  -15.3119   24.0411 C   0  0  0  0  0  0  0  0  0  0  0  0
    9.1154  -14.9439   24.0486 O   0  0  0  0  0  0  0  0  0  0  0  0
    6.9609  -14.5880   24.8185 N   0  0  0  0  0  0  0  0  0  0  0  0
    7.2976  -13.4372   25.6016 C   0  0  1  0  0  0  0  0  0  0  0  0
    5.9939  -12.7606   26.0432 C   0  0  0  0  0  0  0  0  0  0  0  0
    6.2988  -11.3853   27.1540 S   0  0  0  0  0  0  0  0  0  0  0  0
    8.0232  -13.8753   26.8109 C   0  0  0  0  0  0  0  0  0  0  0  0
    8.9904  -13.0625   27.3683 O   0  0  0  0  0  0  0  0  0  0  0  0
    7.7801  -14.9754   27.3471 O   0  0  0  0  0  0  0  0  0  0  0  0
  2  1  1  1
  2  3  1  0
  4  5  2  0
  4  3  1  0
  6  2  1  0
  7  6  2  0
  8  4  1  0
 10  9  1  1
 10 12  1  0
 10 11  1  0
 11  6  1  0
 12 13  2  0
 14 15  1  0
 14 12  1  0
 15 16  1  1
 16 17  1  0
 18 15  1  0
 19 18  1  0
 20 18  2  0
M  END
$$$$
