DAC.pdb
     RDKit          3D

 20 19  0  0  1  0  0  0  0  0999 V2000
    5.3086  -19.3879   20.4300 N   0  0  0  0  0  0  0  0  0  0  0  0
    4.9131  -18.0652   20.8719 C   0  0  1  0  0  0  0  0  0  0  0  0
    4.0711  -18.2655   22.1220 C   0  0  0  0  0  0  0  0  0  0  0  0
    2.8191  -18.9385   21.6851 C   0  0  0  0  0  0  0  0  0  0  0  0
    2.3059  -18.6408   20.5758 O   0  0  0  0  0  0  0  0  0  0  0  0
    6.1289  -17.2815   21.1386 C   0  0  0  0  0  0  0  0  0  0  0  0
    7.1686  -17.8625   21.5325 O   0  0  0  0  0  0  0  0  0  0  0  0
    2.1670  -19.8991   22.4468 O   0  0  0  0  0  0  0  0  0  0  0  0
    7.0328  -13.6333   20.9186 C   0  0  0  0  0  0  0  0  0  0  0  0
    7.3701  -15.0768   21.3056 C   0  0  2  0  0  0  0  0  0  0  0  0
    6.2221  -15.8704   20.9801 N   0  0  0  0  0  0  0  0  0  0  0  0
    7.6805  -15.0548   22.7528 C   0  0  0  0  0  0  0  0  0  0  0  0
    6.8911  -14.7060   23.6483 O   0  0  0  0  0  0  0  0  0  0  0  0
    9.0067  -15.4763   23.1080 N   0  0  0  0  0  0  0  0  0  0  0  0
    9.4705  -15.5250   24.4620 C   0  0  1  0  0  0  0  0  0  0  0  0
    8.6074  -16.5357   25.2276 C   0  0  0  0  0  0  0  0  0  0  0  0
    9.2472  -16.8475   26.8743 S   0  0  0  0  0  0  0  0  0  0  0  0
   10.8663  -16.0070   24.4741 C   0  0  0  0  0  0  0  0  0  0  0  0
   11.6453  -15.8387   25.6017 O   0  0  0  0  0  0  0  0  0  0  0  0
   11.3642  -16.5693   23.4777 O   0  0  0  0  0  0  0  0  0  0  0  0
  2  1  1  1
  2  3  1  0
  4  5  2  0
  4  3  1  0
  6  2  1  0
  7  6  2  0
  8  4  1  0
 10  9  1  1
 10 12  1  0
 10 11  1  0
 11  6  1  0
 12 13  2  0
 14 15  1  0
 14 12  1  0
 15 16  1  1
 16 17  1  0
 18 15  1  0
 19 18  1  0
 20 18  2  0
M  END
$$$$
