DAC.pdb
     RDKit          3D

 20 19  0  0  1  0  0  0  0  0999 V2000
   11.0264  -16.0402   17.4020 N   0  0  0  0  0  0  0  0  0  0  0  0
   12.0256  -15.3115   18.1582 C   0  0  1  0  0  0  0  0  0  0  0  0
   12.9303  -14.6405   17.1369 C   0  0  0  0  0  0  0  0  0  0  0  0
   13.4162  -15.7156   16.2317 C   0  0  0  0  0  0  0  0  0  0  0  0
   13.3612  -16.9160   16.6040 O   0  0  0  0  0  0  0  0  0  0  0  0
   11.3377  -14.3369   19.0187 C   0  0  0  0  0  0  0  0  0  0  0  0
   12.0098  -13.5704   19.7498 O   0  0  0  0  0  0  0  0  0  0  0  0
   13.9395  -15.4676   14.9697 O   0  0  0  0  0  0  0  0  0  0  0  0
    7.9290  -12.8994   19.2296 C   0  0  0  0  0  0  0  0  0  0  0  0
    9.2312  -13.2724   19.9453 C   0  0  2  0  0  0  0  0  0  0  0  0
    9.9241  -14.1899   19.0898 N   0  0  0  0  0  0  0  0  0  0  0  0
    8.8347  -13.8619   21.2440 C   0  0  0  0  0  0  0  0  0  0  0  0
    7.6865  -13.8345   21.7210 O   0  0  0  0  0  0  0  0  0  0  0  0
    9.8874  -14.5059   21.9786 N   0  0  0  0  0  0  0  0  0  0  0  0
    9.6397  -15.4704   23.0079 C   0  0  1  0  0  0  0  0  0  0  0  0
    9.0433  -16.7239   22.3557 C   0  0  0  0  0  0  0  0  0  0  0  0
    7.2762  -16.8473   22.6394 S   0  0  0  0  0  0  0  0  0  0  0  0
   10.9235  -15.8427   23.6357 C   0  0  0  0  0  0  0  0  0  0  0  0
   10.9358  -16.4417   24.8797 O   0  0  0  0  0  0  0  0  0  0  0  0
   12.0100  -15.6262   23.0617 O   0  0  0  0  0  0  0  0  0  0  0  0
  2  1  1  6
  2  3  1  0
  4  5  2  0
  4  3  1  0
  6  2  1  0
  7  6  2  0
  8  4  1  0
 10  9  1  6
 10 12  1  0
 10 11  1  0
 11  6  1  0
 12 13  2  0
 14 15  1  0
 14 12  1  0
 15 16  1  6
 16 17  1  0
 18 15  1  0
 19 18  1  0
 20 18  2  0
M  END
$$$$
