DAC.pdb
     RDKit          3D

 20 19  0  0  1  0  0  0  0  0999 V2000
    8.6081  -17.4293   16.3566 N   0  0  0  0  0  0  0  0  0  0  0  0
    7.6603  -16.9921   17.3625 C   0  0  1  0  0  0  0  0  0  0  0  0
    7.1997  -18.2452   18.0901 C   0  0  0  0  0  0  0  0  0  0  0  0
    6.3423  -18.9971   17.1356 C   0  0  0  0  0  0  0  0  0  0  0  0
    5.1085  -18.7570   17.0838 O   0  0  0  0  0  0  0  0  0  0  0  0
    8.3389  -16.0445   18.2597 C   0  0  0  0  0  0  0  0  0  0  0  0
    9.4895  -16.3070   18.6851 O   0  0  0  0  0  0  0  0  0  0  0  0
    6.8341  -19.9718   16.2776 O   0  0  0  0  0  0  0  0  0  0  0  0
    7.4534  -12.7060   19.7562 C   0  0  0  0  0  0  0  0  0  0  0  0
    8.3497  -13.9465   19.6835 C   0  0  2  0  0  0  0  0  0  0  0  0
    7.7752  -14.8135   18.6976 N   0  0  0  0  0  0  0  0  0  0  0  0
    8.3618  -14.5279   21.0448 C   0  0  0  0  0  0  0  0  0  0  0  0
    7.3646  -14.6546   21.7772 O   0  0  0  0  0  0  0  0  0  0  0  0
    9.6443  -14.9675   21.5188 N   0  0  0  0  0  0  0  0  0  0  0  0
    9.8265  -15.6089   22.7862 C   0  0  1  0  0  0  0  0  0  0  0  0
    9.0788  -16.9477   22.7571 C   0  0  0  0  0  0  0  0  0  0  0  0
    9.3737  -17.9092   24.2427 S   0  0  0  0  0  0  0  0  0  0  0  0
   11.2638  -15.8867   22.9810 C   0  0  0  0  0  0  0  0  0  0  0  0
   11.7761  -16.0123   24.2571 O   0  0  0  0  0  0  0  0  0  0  0  0
   12.0352  -16.0122   22.0084 O   0  0  0  0  0  0  0  0  0  0  0  0
  2  1  1  6
  2  3  1  0
  4  5  2  0
  4  3  1  0
  6  2  1  0
  7  6  2  0
  8  4  1  0
 10  9  1  1
 10 12  1  0
 10 11  1  0
 11  6  1  0
 12 13  2  0
 14 15  1  0
 14 12  1  0
 15 16  1  6
 16 17  1  0
 18 15  1  0
 19 18  1  0
 20 18  2  0
M  END
$$$$
