DAC.pdb
     RDKit          3D

 20 19  0  0  1  0  0  0  0  0999 V2000
    7.0723  -17.5879   20.5315 N   0  0  0  0  0  0  0  0  0  0  0  0
    7.9937  -17.3892   21.6328 C   0  0  1  0  0  0  0  0  0  0  0  0
    9.0733  -18.4494   21.4844 C   0  0  0  0  0  0  0  0  0  0  0  0
    8.3837  -19.7657   21.5407 C   0  0  0  0  0  0  0  0  0  0  0  0
    7.8384  -20.2285   20.5057 O   0  0  0  0  0  0  0  0  0  0  0  0
    8.5365  -16.0250   21.5441 C   0  0  0  0  0  0  0  0  0  0  0  0
    9.7382  -15.8143   21.8362 O   0  0  0  0  0  0  0  0  0  0  0  0
    8.3037  -20.5330   22.6953 O   0  0  0  0  0  0  0  0  0  0  0  0
    7.2714  -12.7160   20.3118 C   0  0  0  0  0  0  0  0  0  0  0  0
    8.2548  -13.5356   21.1535 C   0  0  2  0  0  0  0  0  0  0  0  0
    7.7818  -14.8883   21.1400 N   0  0  0  0  0  0  0  0  0  0  0  0
    8.2543  -12.9243   22.5016 C   0  0  0  0  0  0  0  0  0  0  0  0
    8.6989  -11.7954   22.7751 O   0  0  0  0  0  0  0  0  0  0  0  0
    7.6875  -13.7302   23.5466 N   0  0  0  0  0  0  0  0  0  0  0  0
    7.7484  -13.3646   24.9299 C   0  0  1  0  0  0  0  0  0  0  0  0
    6.3385  -12.9639   25.3816 C   0  0  0  0  0  0  0  0  0  0  0  0
    6.2820  -12.5837   27.1339 S   0  0  0  0  0  0  0  0  0  0  0  0
    8.1694  -14.5400   25.7186 C   0  0  0  0  0  0  0  0  0  0  0  0
    8.7512  -14.3670   26.9589 O   0  0  0  0  0  0  0  0  0  0  0  0
    8.0099  -15.6993   25.2857 O   0  0  0  0  0  0  0  0  0  0  0  0
  2  1  1  6
  2  3  1  0
  4  5  2  0
  4  3  1  0
  6  2  1  0
  7  6  2  0
  8  4  1  0
 10  9  1  6
 10 12  1  0
 10 11  1  0
 11  6  1  0
 12 13  2  0
 14 15  1  0
 14 12  1  0
 15 16  1  1
 16 17  1  0
 18 15  1  0
 19 18  1  0
 20 18  2  0
M  END
$$$$
