CTE.pdb
     RDKit          3D

 23 22  0  0  1  0  0  0  0  0999 V2000
   19.1124  -12.8718  -15.6261 N   0  0  0  0  0  0  0  0  0  0  0  0
   18.8494  -11.6486  -16.3137 C   0  0  1  0  0  0  0  0  0  0  0  0
   17.3527  -11.3908  -16.3482 C   0  0  0  0  0  0  0  0  0  0  0  0
   16.4500  -12.6432  -17.2577 S   0  0  0  0  0  0  0  0  0  0  0  0
   19.4494  -10.4621  -15.6297 C   0  0  0  0  0  0  0  0  0  0  0  0
   19.1072  -10.2018  -14.4473 O   0  0  0  0  0  0  0  0  0  0  0  0
   22.7187   -9.9053  -14.5506 C   0  0  0  0  0  0  0  0  0  0  0  0
   22.4485   -8.7547  -15.5069 C   0  0  1  0  0  0  0  0  0  0  0  0
   22.7875   -9.2480  -16.7999 O   0  0  0  0  0  0  0  0  0  0  0  0
   20.9579   -8.4297  -15.5421 C   0  0  2  0  0  0  0  0  0  0  0  0
   20.3846   -9.6125  -16.2419 N   0  0  0  0  0  0  0  0  0  0  0  0
   20.6388   -7.2155  -16.2963 C   0  0  0  0  0  0  0  0  0  0  0  0
   20.0188   -7.2974  -17.4095 O   0  0  0  0  0  0  0  0  0  0  0  0
   20.9788   -5.9187  -15.8598 N   0  0  0  0  0  0  0  0  0  0  0  0
   20.5586   -4.7190  -16.5794 C   0  0  1  0  0  0  0  0  0  0  0  0
   19.0540   -4.6985  -16.5336 C   0  0  0  0  0  0  0  0  0  0  0  0
   18.4315   -3.4886  -17.1397 C   0  0  0  0  0  0  0  0  0  0  0  0
   16.9610   -3.4394  -17.0670 C   0  0  0  0  0  0  0  0  0  0  0  0
   16.3301   -2.3745  -17.2516 O   0  0  0  0  0  0  0  0  0  0  0  0
   21.1665   -3.5474  -15.9267 C   0  0  0  0  0  0  0  0  0  0  0  0
   21.2881   -2.3610  -16.5978 O   0  0  0  0  0  0  0  0  0  0  0  0
   16.2126   -4.5728  -16.7903 O   0  0  0  0  0  0  0  0  0  0  0  0
   21.5725   -3.6479  -14.7476 O   0  0  0  0  0  0  0  0  0  0  0  0
  2  1  1  1
  2  3  1  0
  3  4  1  0
  5  2  1  0
  6  5  2  0
  8  7  1  1
  8 10  1  0
  9  8  1  0
 10 11  1  6
 10 12  1  0
 11  5  1  0
 12 14  1  0
 13 12  2  0
 14 15  1  0
 15 16  1  1
 16 17  1  0
 17 18  1  0
 18 22  1  0
 19 18  2  0
 20 21  1  0
 20 15  1  0
 23 20  2  0
M  END
$$$$
