CTE.pdb
     RDKit          3D

 23 22  0  0  1  0  0  0  0  0999 V2000
   16.8968  -13.8306  -17.0648 N   0  0  0  0  0  0  0  0  0  0  0  0
   17.1230  -12.8652  -16.0376 C   0  0  1  0  0  0  0  0  0  0  0  0
   18.1965  -13.3683  -15.0879 C   0  0  0  0  0  0  0  0  0  0  0  0
   17.6186  -14.6814  -14.0144 S   0  0  0  0  0  0  0  0  0  0  0  0
   17.6310  -11.5640  -16.5708 C   0  0  0  0  0  0  0  0  0  0  0  0
   18.5924  -11.5708  -17.3823 O   0  0  0  0  0  0  0  0  0  0  0  0
   15.9483   -9.2954  -18.7057 C   0  0  0  0  0  0  0  0  0  0  0  0
   16.3001   -8.4912  -17.4644 C   0  0  1  0  0  0  0  0  0  0  0  0
   15.2347   -8.7230  -16.5471 O   0  0  0  0  0  0  0  0  0  0  0  0
   17.5641   -9.0438  -16.8118 C   0  0  2  0  0  0  0  0  0  0  0  0
   17.0875  -10.3204  -16.2113 N   0  0  0  0  0  0  0  0  0  0  0  0
   18.1065   -8.1826  -15.7586 C   0  0  0  0  0  0  0  0  0  0  0  0
   17.6615   -8.2727  -14.5652 O   0  0  0  0  0  0  0  0  0  0  0  0
   19.1229   -7.2310  -15.9807 N   0  0  0  0  0  0  0  0  0  0  0  0
   19.5510   -6.2924  -14.9466 C   0  0  1  0  0  0  0  0  0  0  0  0
   20.8613   -5.7141  -15.4107 C   0  0  0  0  0  0  0  0  0  0  0  0
   21.4424   -4.6870  -14.5019 C   0  0  0  0  0  0  0  0  0  0  0  0
   22.6799   -4.0517  -14.9870 C   0  0  0  0  0  0  0  0  0  0  0  0
   23.6586   -4.7302  -15.3718 O   0  0  0  0  0  0  0  0  0  0  0  0
   18.5026   -5.2720  -14.7807 C   0  0  0  0  0  0  0  0  0  0  0  0
   17.7859   -4.8277  -15.8585 O   0  0  0  0  0  0  0  0  0  0  0  0
   22.8128   -2.6730  -15.0378 O   0  0  0  0  0  0  0  0  0  0  0  0
   18.2725   -4.8132  -13.6397 O   0  0  0  0  0  0  0  0  0  0  0  0
  2  1  1  6
  2  3  1  0
  3  4  1  0
  5  2  1  0
  6  5  2  0
  8  7  1  6
  8 10  1  0
  9  8  1  0
 10 11  1  1
 10 12  1  0
 11  5  1  0
 12 14  1  0
 13 12  2  0
 14 15  1  0
 15 16  1  6
 16 17  1  0
 17 18  1  0
 18 22  1  0
 19 18  2  0
 20 21  1  0
 20 15  1  0
 23 20  2  0
M  END
$$$$
