CTE.pdb
     RDKit          3D

 23 22  0  0  1  0  0  0  0  0999 V2000
   20.6309  -13.3200  -17.3189 N   0  0  0  0  0  0  0  0  0  0  0  0
   20.3586  -11.9194  -17.3672 C   0  0  1  0  0  0  0  0  0  0  0  0
   18.8690  -11.6798  -17.1900 C   0  0  0  0  0  0  0  0  0  0  0  0
   17.8772  -12.5033  -18.4345 S   0  0  0  0  0  0  0  0  0  0  0  0
   21.0249  -11.1639  -16.2622 C   0  0  0  0  0  0  0  0  0  0  0  0
   21.3958  -11.7871  -15.2341 O   0  0  0  0  0  0  0  0  0  0  0  0
   23.3428  -11.2142  -15.4108 C   0  0  0  0  0  0  0  0  0  0  0  0
   23.4373   -9.6968  -15.4169 C   0  0  1  0  0  0  0  0  0  0  0  0
   23.8950   -9.3501  -16.7209 O   0  0  0  0  0  0  0  0  0  0  0  0
   22.0519   -9.0759  -15.2626 C   0  0  2  0  0  0  0  0  0  0  0  0
   21.2620   -9.7809  -16.3098 N   0  0  0  0  0  0  0  0  0  0  0  0
   22.0223   -7.6341  -15.5183 C   0  0  0  0  0  0  0  0  0  0  0  0
   21.7911   -7.1971  -16.6956 O   0  0  0  0  0  0  0  0  0  0  0  0
   22.2361   -6.6638  -14.5179 N   0  0  0  0  0  0  0  0  0  0  0  0
   21.9621   -5.2458  -14.7364 C   0  0  1  0  0  0  0  0  0  0  0  0
   20.4819   -5.1302  -14.9860 C   0  0  0  0  0  0  0  0  0  0  0  0
   19.9877   -3.7347  -15.1500 C   0  0  0  0  0  0  0  0  0  0  0  0
   18.5283   -3.6023  -15.3006 C   0  0  0  0  0  0  0  0  0  0  0  0
   17.8395   -4.5005  -15.8344 O   0  0  0  0  0  0  0  0  0  0  0  0
   22.4015   -4.4977  -13.5468 C   0  0  0  0  0  0  0  0  0  0  0  0
   22.6141   -3.1474  -13.6120 O   0  0  0  0  0  0  0  0  0  0  0  0
   17.8551   -2.4751  -14.8564 O   0  0  0  0  0  0  0  0  0  0  0  0
   22.5793   -5.1114  -12.4712 O   0  0  0  0  0  0  0  0  0  0  0  0
  2  1  1  1
  2  3  1  0
  3  4  1  0
  5  2  1  0
  6  5  2  0
  8  7  1  6
  8 10  1  0
  9  8  1  0
 10 11  1  6
 10 12  1  0
 11  5  1  0
 12 14  1  0
 13 12  2  0
 14 15  1  0
 15 16  1  1
 16 17  1  0
 17 18  1  0
 18 22  1  0
 19 18  2  0
 20 21  1  0
 20 15  1  0
 23 20  2  0
M  END
$$$$
