CTE.pdb
     RDKit          3D

 23 22  0  0  1  0  0  0  0  0999 V2000
   13.1963   -9.3048   -9.2321 N   0  0  0  0  0  0  0  0  0  0  0  0
   14.5518   -9.5855   -9.5815 C   0  0  1  0  0  0  0  0  0  0  0  0
   14.6000  -10.7487  -10.5574 C   0  0  0  0  0  0  0  0  0  0  0  0
   14.5698  -12.3443   -9.7427 S   0  0  0  0  0  0  0  0  0  0  0  0
   15.2159   -8.4425  -10.2802 C   0  0  0  0  0  0  0  0  0  0  0  0
   14.6777   -7.9618  -11.3110 O   0  0  0  0  0  0  0  0  0  0  0  0
   15.5140   -5.2835   -9.0556 C   0  0  0  0  0  0  0  0  0  0  0  0
   16.9569   -5.6232   -9.3934 C   0  0  1  0  0  0  0  0  0  0  0  0
   17.4855   -6.2407   -8.2232 O   0  0  0  0  0  0  0  0  0  0  0  0
   17.0124   -6.6712  -10.5012 C   0  0  2  0  0  0  0  0  0  0  0  0
   16.4211   -7.8695   -9.8441 N   0  0  0  0  0  0  0  0  0  0  0  0
   18.3719   -6.9821  -10.9486 C   0  0  0  0  0  0  0  0  0  0  0  0
   19.0309   -7.9219  -10.3894 O   0  0  0  0  0  0  0  0  0  0  0  0
   19.0225   -6.2923  -11.9921 N   0  0  0  0  0  0  0  0  0  0  0  0
   20.3965   -6.5925  -12.3868 C   0  0  1  0  0  0  0  0  0  0  0  0
   20.3090   -7.4284  -13.6358 C   0  0  0  0  0  0  0  0  0  0  0  0
   21.6250   -7.8163  -14.2159 C   0  0  0  0  0  0  0  0  0  0  0  0
   21.5530   -8.5743  -15.4770 C   0  0  0  0  0  0  0  0  0  0  0  0
   20.5676   -9.2941  -15.7546 O   0  0  0  0  0  0  0  0  0  0  0  0
   21.1087   -5.3213  -12.5983 C   0  0  0  0  0  0  0  0  0  0  0  0
   22.4765   -5.2795  -12.5922 O   0  0  0  0  0  0  0  0  0  0  0  0
   22.5757   -8.5223  -16.4111 O   0  0  0  0  0  0  0  0  0  0  0  0
   20.4481   -4.2752  -12.7845 O   0  0  0  0  0  0  0  0  0  0  0  0
  2  1  1  6
  2  3  1  0
  3  4  1  0
  5  2  1  0
  6  5  2  0
  8  7  1  1
  8 10  1  0
  9  8  1  0
 10 11  1  1
 10 12  1  0
 11  5  1  0
 12 14  1  0
 13 12  2  0
 14 15  1  0
 15 16  1  6
 16 17  1  0
 17 18  1  0
 18 22  1  0
 19 18  2  0
 20 21  1  0
 20 15  1  0
 23 20  2  0
M  END
$$$$
