CTE.pdb
     RDKit          3D

 23 22  0  0  1  0  0  0  0  0999 V2000
   21.5490  -15.9233  -17.4519 N   0  0  0  0  0  0  0  0  0  0  0  0
   20.6336  -14.8655  -17.1669 C   0  0  1  0  0  0  0  0  0  0  0  0
   20.1554  -14.9741  -15.7292 C   0  0  0  0  0  0  0  0  0  0  0  0
   19.2530  -16.4881  -15.4067 S   0  0  0  0  0  0  0  0  0  0  0  0
   21.2602  -13.5130  -17.2846 C   0  0  0  0  0  0  0  0  0  0  0  0
   22.4381  -13.4219  -17.7173 O   0  0  0  0  0  0  0  0  0  0  0  0
   21.7763  -12.2670  -19.3797 C   0  0  0  0  0  0  0  0  0  0  0  0
   21.0353  -11.0455  -18.8600 C   0  0  1  0  0  0  0  0  0  0  0  0
   19.6668  -11.2616  -19.1924 O   0  0  0  0  0  0  0  0  0  0  0  0
   21.1089  -10.9856  -17.3369 C   0  0  2  0  0  0  0  0  0  0  0  0
   20.5984  -12.3254  -16.9346 N   0  0  0  0  0  0  0  0  0  0  0  0
   20.2629   -9.9450  -16.7481 C   0  0  0  0  0  0  0  0  0  0  0  0
   18.9990  -10.1115  -16.6768 O   0  0  0  0  0  0  0  0  0  0  0  0
   20.7675   -8.7326  -16.2349 N   0  0  0  0  0  0  0  0  0  0  0  0
   19.9096   -7.7434  -15.5875 C   0  0  1  0  0  0  0  0  0  0  0  0
   20.7671   -7.0315  -14.5754 C   0  0  0  0  0  0  0  0  0  0  0  0
   21.7642   -6.0913  -15.1589 C   0  0  0  0  0  0  0  0  0  0  0  0
   22.5121   -5.2858  -14.1781 C   0  0  0  0  0  0  0  0  0  0  0  0
   22.2692   -5.3527  -12.9523 O   0  0  0  0  0  0  0  0  0  0  0  0
   19.3769   -6.8407  -16.6216 C   0  0  0  0  0  0  0  0  0  0  0  0
   18.3649   -5.9671  -16.3298 O   0  0  0  0  0  0  0  0  0  0  0  0
   23.5184   -4.4180  -14.5724 O   0  0  0  0  0  0  0  0  0  0  0  0
   19.8608   -6.8805  -17.7746 O   0  0  0  0  0  0  0  0  0  0  0  0
  2  1  1  1
  2  3  1  0
  3  4  1  0
  5  2  1  0
  6  5  2  0
  8  7  1  1
  8 10  1  0
  9  8  1  0
 10 11  1  1
 10 12  1  0
 11  5  1  0
 12 14  1  0
 13 12  2  0
 14 15  1  0
 15 16  1  1
 16 17  1  0
 17 18  1  0
 18 22  1  0
 19 18  2  0
 20 21  1  0
 20 15  1  0
 23 20  2  0
M  END
$$$$
