CTE.pdb
     RDKit          3D

 23 22  0  0  1  0  0  0  0  0999 V2000
   20.4359  -16.0962  -18.5423 N   0  0  0  0  0  0  0  0  0  0  0  0
   19.8266  -14.8365  -18.8254 C   0  0  1  0  0  0  0  0  0  0  0  0
   18.3394  -14.9064  -18.5237 C   0  0  0  0  0  0  0  0  0  0  0  0
   17.4789  -16.1116  -19.5325 S   0  0  0  0  0  0  0  0  0  0  0  0
   20.3619  -13.7320  -17.9714 C   0  0  0  0  0  0  0  0  0  0  0  0
   20.5692  -13.9510  -16.7500 O   0  0  0  0  0  0  0  0  0  0  0  0
   23.4354  -12.0578  -18.8907 C   0  0  0  0  0  0  0  0  0  0  0  0
   22.4490  -10.9392  -18.5958 C   0  0  1  0  0  0  0  0  0  0  0  0
   21.8099  -10.6591  -19.8381 O   0  0  0  0  0  0  0  0  0  0  0  0
   21.3587  -11.4268  -17.6458 C   0  0  2  0  0  0  0  0  0  0  0  0
   20.6492  -12.4490  -18.4638 N   0  0  0  0  0  0  0  0  0  0  0  0
   20.4145  -10.3801  -17.2481 C   0  0  0  0  0  0  0  0  0  0  0  0
   19.4524  -10.0573  -18.0230 O   0  0  0  0  0  0  0  0  0  0  0  0
   20.4977   -9.6838  -16.0249 N   0  0  0  0  0  0  0  0  0  0  0  0
   19.5442   -8.6406  -15.6557 C   0  0  1  0  0  0  0  0  0  0  0  0
   18.7924   -9.1540  -14.4566 C   0  0  0  0  0  0  0  0  0  0  0  0
   17.7953   -8.2006  -13.8949 C   0  0  0  0  0  0  0  0  0  0  0  0
   16.9715   -8.7334  -12.7960 C   0  0  0  0  0  0  0  0  0  0  0  0
   17.1235   -9.8995  -12.3678 O   0  0  0  0  0  0  0  0  0  0  0  0
   20.2923   -7.4038  -15.3751 C   0  0  0  0  0  0  0  0  0  0  0  0
   19.6660   -6.1876  -15.4096 O   0  0  0  0  0  0  0  0  0  0  0  0
   15.9914   -7.9642  -12.1888 O   0  0  0  0  0  0  0  0  0  0  0  0
   21.5114   -7.4763  -15.1036 O   0  0  0  0  0  0  0  0  0  0  0  0
  2  1  1  1
  2  3  1  0
  3  4  1  0
  5  2  1  0
  6  5  2  0
  8  7  1  6
  8 10  1  0
  9  8  1  0
 10 11  1  6
 10 12  1  0
 11  5  1  0
 12 14  1  0
 13 12  2  0
 14 15  1  0
 15 16  1  1
 16 17  1  0
 17 18  1  0
 18 22  1  0
 19 18  2  0
 20 21  1  0
 20 15  1  0
 23 20  2  0
M  END
$$$$
