CTE.pdb
     RDKit          3D

 23 22  0  0  1  0  0  0  0  0999 V2000
   13.3407  -10.0886   -9.6551 N   0  0  0  0  0  0  0  0  0  0  0  0
   14.7539  -10.1484   -9.8489 C   0  0  1  0  0  0  0  0  0  0  0  0
   15.0912  -11.2602  -10.8275 C   0  0  0  0  0  0  0  0  0  0  0  0
   15.2004  -12.8686  -10.0452 S   0  0  0  0  0  0  0  0  0  0  0  0
   15.3069   -8.8966  -10.4514 C   0  0  0  0  0  0  0  0  0  0  0  0
   14.7022   -8.3666  -11.4191 O   0  0  0  0  0  0  0  0  0  0  0  0
   15.2996   -5.8142   -9.1857 C   0  0  0  0  0  0  0  0  0  0  0  0
   16.7825   -6.0002   -9.4647 C   0  0  1  0  0  0  0  0  0  0  0  0
   17.3198   -6.5907   -8.2845 O   0  0  0  0  0  0  0  0  0  0  0  0
   16.9906   -7.0099  -10.5899 C   0  0  2  0  0  0  0  0  0  0  0  0
   16.4775   -8.2731   -9.9911 N   0  0  0  0  0  0  0  0  0  0  0  0
   18.3941   -7.1858  -10.9696 C   0  0  0  0  0  0  0  0  0  0  0  0
   19.1771   -7.8702  -10.2288 O   0  0  0  0  0  0  0  0  0  0  0  0
   18.9568   -6.6342  -12.1389 N   0  0  0  0  0  0  0  0  0  0  0  0
   20.3508   -6.8583  -12.5134 C   0  0  1  0  0  0  0  0  0  0  0  0
   20.3290   -7.5119  -13.8694 C   0  0  0  0  0  0  0  0  0  0  0  0
   21.6738   -7.7662  -14.4571 C   0  0  0  0  0  0  0  0  0  0  0  0
   21.6650   -8.3034  -15.8288 C   0  0  0  0  0  0  0  0  0  0  0  0
   21.9105   -7.5785  -16.8190 O   0  0  0  0  0  0  0  0  0  0  0  0
   21.0470   -5.5609  -12.5152 C   0  0  0  0  0  0  0  0  0  0  0  0
   22.4107   -5.5018  -12.4167 O   0  0  0  0  0  0  0  0  0  0  0  0
   21.3839   -9.6370  -16.0810 O   0  0  0  0  0  0  0  0  0  0  0  0
   20.3767   -4.5086  -12.6081 O   0  0  0  0  0  0  0  0  0  0  0  0
  2  1  1  6
  2  3  1  0
  3  4  1  0
  5  2  1  0
  6  5  2  0
  8  7  1  1
  8 10  1  0
  9  8  1  0
 10 11  1  1
 10 12  1  0
 11  5  1  0
 12 14  1  0
 13 12  2  0
 14 15  1  0
 15 16  1  6
 16 17  1  0
 17 18  1  0
 18 22  1  0
 19 18  2  0
 20 21  1  0
 20 15  1  0
 23 20  2  0
M  END
$$$$
