CTE.pdb
     RDKit          3D

 23 22  0  0  1  0  0  0  0  0999 V2000
   19.2550  -13.2056  -18.7160 N   0  0  0  0  0  0  0  0  0  0  0  0
   20.0527  -12.6074  -17.6942 C   0  0  1  0  0  0  0  0  0  0  0  0
   21.4691  -13.1519  -17.7640 C   0  0  0  0  0  0  0  0  0  0  0  0
   21.6204  -14.7939  -17.0630 S   0  0  0  0  0  0  0  0  0  0  0  0
   20.1796  -11.1262  -17.8547 C   0  0  0  0  0  0  0  0  0  0  0  0
   20.6728  -10.6677  -18.9175 O   0  0  0  0  0  0  0  0  0  0  0  0
   17.7797   -8.6359  -18.2567 C   0  0  0  0  0  0  0  0  0  0  0  0
   18.5278   -8.2166  -17.0013 C   0  0  1  0  0  0  0  0  0  0  0  0
   17.8750   -8.8888  -15.9279 O   0  0  0  0  0  0  0  0  0  0  0  0
   19.9609   -8.7400  -17.0350 C   0  0  2  0  0  0  0  0  0  0  0  0
   19.7738  -10.2084  -16.8729 N   0  0  0  0  0  0  0  0  0  0  0  0
   20.7977   -8.2322  -15.9455 C   0  0  0  0  0  0  0  0  0  0  0  0
   21.0443   -8.9676  -14.9313 O   0  0  0  0  0  0  0  0  0  0  0  0
   21.3710   -6.9441  -15.9427 N   0  0  0  0  0  0  0  0  0  0  0  0
   22.1551   -6.4425  -14.8170 C   0  0  1  0  0  0  0  0  0  0  0  0
   22.7501   -5.1327  -15.2607 C   0  0  0  0  0  0  0  0  0  0  0  0
   21.7651   -4.0271  -15.4219 C   0  0  0  0  0  0  0  0  0  0  0  0
   22.3164   -2.7733  -15.9645 C   0  0  0  0  0  0  0  0  0  0  0  0
   23.5365   -2.6459  -16.2121 O   0  0  0  0  0  0  0  0  0  0  0  0
   21.2629   -6.3005  -13.6543 C   0  0  0  0  0  0  0  0  0  0  0  0
   19.9082   -6.2062  -13.8230 O   0  0  0  0  0  0  0  0  0  0  0  0
   21.5054   -1.6797  -16.2241 O   0  0  0  0  0  0  0  0  0  0  0  0
   21.7579   -6.2668  -12.5057 O   0  0  0  0  0  0  0  0  0  0  0  0
  2  1  1  6
  2  3  1  0
  3  4  1  0
  5  2  1  0
  6  5  2  0
  8  7  1  6
  8 10  1  0
  9  8  1  0
 10 11  1  1
 10 12  1  0
 11  5  1  0
 12 14  1  0
 13 12  2  0
 14 15  1  0
 15 16  1  6
 16 17  1  0
 17 18  1  0
 18 22  1  0
 19 18  2  0
 20 21  1  0
 20 15  1  0
 23 20  2  0
M  END
$$$$
