CTE.pdb
     RDKit          3D

 23 22  0  0  1  0  0  0  0  0999 V2000
   23.7230  -13.7525  -16.9471 N   0  0  0  0  0  0  0  0  0  0  0  0
   23.9941  -12.6264  -16.1125 C   0  0  1  0  0  0  0  0  0  0  0  0
   25.4509  -12.2204  -16.2555 C   0  0  0  0  0  0  0  0  0  0  0  0
   26.5860  -13.4788  -15.6735 S   0  0  0  0  0  0  0  0  0  0  0  0
   23.1977  -11.4201  -16.4951 C   0  0  0  0  0  0  0  0  0  0  0  0
   23.1260  -11.0961  -17.7087 O   0  0  0  0  0  0  0  0  0  0  0  0
   19.7869  -11.0060  -16.3963 C   0  0  0  0  0  0  0  0  0  0  0  0
   20.2928   -9.8548  -15.5417 C   0  0  1  0  0  0  0  0  0  0  0  0
   20.4115  -10.3837  -14.2240 O   0  0  0  0  0  0  0  0  0  0  0  0
   21.6980   -9.4468  -15.9750 C   0  0  2  0  0  0  0  0  0  0  0  0
   22.5177  -10.6198  -15.5633 N   0  0  0  0  0  0  0  0  0  0  0  0
   22.1949   -8.2448  -15.3015 C   0  0  0  0  0  0  0  0  0  0  0  0
   22.9493   -8.3504  -14.2768 O   0  0  0  0  0  0  0  0  0  0  0  0
   21.8883   -6.9352  -15.7246 N   0  0  0  0  0  0  0  0  0  0  0  0
   22.3844   -5.7537  -15.0236 C   0  0  1  0  0  0  0  0  0  0  0  0
   22.1305   -4.5801  -15.9319 C   0  0  0  0  0  0  0  0  0  0  0  0
   22.4798   -3.2558  -15.3464 C   0  0  0  0  0  0  0  0  0  0  0  0
   22.1969   -2.0965  -16.2103 C   0  0  0  0  0  0  0  0  0  0  0  0
   21.7475   -2.2364  -17.3698 O   0  0  0  0  0  0  0  0  0  0  0  0
   21.6772   -5.6443  -13.7368 C   0  0  0  0  0  0  0  0  0  0  0  0
   22.2642   -5.0199  -12.6699 O   0  0  0  0  0  0  0  0  0  0  0  0
   22.4170   -0.7994  -15.7743 O   0  0  0  0  0  0  0  0  0  0  0  0
   20.5293   -6.1299  -13.6281 O   0  0  0  0  0  0  0  0  0  0  0  0
  2  1  1  6
  2  3  1  0
  3  4  1  0
  5  2  1  0
  6  5  2  0
  8  7  1  6
  8 10  1  0
  9  8  1  0
 10 11  1  1
 10 12  1  0
 11  5  1  0
 12 14  1  0
 13 12  2  0
 14 15  1  0
 15 16  1  6
 16 17  1  0
 17 18  1  0
 18 22  1  0
 19 18  2  0
 20 21  1  0
 20 15  1  0
 23 20  2  0
M  END
$$$$
