MTS.pdb
     RDKit          3D

 22 21  0  0  1  0  0  0  0  0999 V2000
   23.6760  -14.3302  -18.9919 C   0  0  0  0  0  0  0  0  0  0  0  0
   22.7440  -13.0052  -19.8179 S   0  0  0  0  0  0  0  0  0  0  0  0
   23.4335  -11.3707  -19.3581 C   0  0  0  0  0  0  0  0  0  0  0  0
   22.3125  -10.5669  -18.7306 C   0  0  0  0  0  0  0  0  0  0  0  0
   22.4218  -10.4980  -17.2398 C   0  0  2  0  0  0  0  0  0  0  0  0
   22.1588  -11.7799  -16.6581 N   0  0  0  0  0  0  0  0  0  0  0  0
   21.6129   -9.4133  -16.6431 C   0  0  0  0  0  0  0  0  0  0  0  0
   20.4135   -9.2784  -16.9970 O   0  0  0  0  0  0  0  0  0  0  0  0
   20.0864   -9.2188  -13.7955 C   0  0  0  0  0  0  0  0  0  0  0  0
   20.8274   -7.9064  -13.6565 C   0  0  1  0  0  0  0  0  0  0  0  0
   21.9735   -8.1723  -12.8973 O   0  0  0  0  0  0  0  0  0  0  0  0
   21.3110   -7.4956  -15.0298 C   0  0  2  0  0  0  0  0  0  0  0  0
   22.0987   -8.4902  -15.6777 N   0  0  0  0  0  0  0  0  0  0  0  0
   21.9667   -6.1611  -15.0018 C   0  0  0  0  0  0  0  0  0  0  0  0
   23.1146   -5.9590  -15.4739 O   0  0  0  0  0  0  0  0  0  0  0  0
   22.3264   -2.1497  -16.3920 O   0  0  0  0  0  0  0  0  0  0  0  0
   21.9246   -3.4714  -16.1489 C   0  0  0  0  0  0  0  0  0  0  0  0
   21.8533   -3.6741  -14.6500 C   0  0  2  0  0  0  0  0  0  0  0  0
   21.3177   -5.0151  -14.4276 N   0  0  0  0  0  0  0  0  0  0  0  0
   21.0351   -2.6417  -14.0160 C   0  0  0  0  0  0  0  0  0  0  0  0
   19.8008   -2.8248  -13.8838 O   0  0  0  0  0  0  0  0  0  0  0  0
   21.5680   -1.4537  -13.5476 O   0  0  0  0  0  0  0  0  0  0  0  0
  2  1  1  0
  3  2  1  0
  4  3  1  0
  5  6  1  1
  5  4  1  0
  7  5  1  0
  8  7  2  0
 10  9  1  6
 10 12  1  0
 10 11  1  0
 12 13  1  1
 13  7  1  0
 14 15  2  0
 14 12  1  0
 16 17  1  0
 18 17  1  6
 18 20  1  0
 18 19  1  0
 19 14  1  0
 20 22  1  0
 21 20  2  0
M  END
$$$$
