MTS.pdb
     RDKit          3D

 22 21  0  0  1  0  0  0  0  0999 V2000
   27.6045  -15.3546  -15.2318 C   0  0  0  0  0  0  0  0  0  0  0  0
   26.1678  -15.9700  -16.1611 S   0  0  0  0  0  0  0  0  0  0  0  0
   24.6503  -15.0926  -15.6262 C   0  0  0  0  0  0  0  0  0  0  0  0
   24.9101  -13.6071  -15.7751 C   0  0  0  0  0  0  0  0  0  0  0  0
   23.7296  -12.7765  -15.3803 C   0  0  2  0  0  0  0  0  0  0  0  0
   22.5176  -13.3660  -15.8644 N   0  0  0  0  0  0  0  0  0  0  0  0
   23.8681  -11.3507  -15.7476 C   0  0  0  0  0  0  0  0  0  0  0  0
   24.9739  -10.7779  -15.5721 O   0  0  0  0  0  0  0  0  0  0  0  0
   23.2247   -9.7114  -19.0255 C   0  0  0  0  0  0  0  0  0  0  0  0
   22.4325   -8.8754  -18.0436 C   0  0  1  0  0  0  0  0  0  0  0  0
   21.1124   -9.3394  -18.0965 O   0  0  0  0  0  0  0  0  0  0  0  0
   22.9383   -9.1853  -16.6520 C   0  0  2  0  0  0  0  0  0  0  0  0
   22.8223  -10.5600  -16.2965 N   0  0  0  0  0  0  0  0  0  0  0  0
   22.3472   -8.2706  -15.6392 C   0  0  0  0  0  0  0  0  0  0  0  0
   21.4819   -8.6469  -14.8079 O   0  0  0  0  0  0  0  0  0  0  0  0
   22.3064   -3.8678  -13.6117 O   0  0  0  0  0  0  0  0  0  0  0  0
   22.8730   -4.7119  -14.5780 C   0  0  0  0  0  0  0  0  0  0  0  0
   22.0600   -5.9886  -14.6234 C   0  0  2  0  0  0  0  0  0  0  0  0
   22.7366   -6.8903  -15.5529 N   0  0  0  0  0  0  0  0  0  0  0  0
   20.6792   -5.7211  -15.0220 C   0  0  0  0  0  0  0  0  0  0  0  0
   20.4095   -5.5354  -16.2333 O   0  0  0  0  0  0  0  0  0  0  0  0
   19.6398   -5.6628  -14.1103 O   0  0  0  0  0  0  0  0  0  0  0  0
  2  1  1  0
  3  2  1  0
  4  3  1  0
  5  6  1  6
  5  4  1  0
  7  5  1  0
  8  7  2  0
 10  9  1  6
 10 12  1  0
 10 11  1  0
 12 13  1  1
 13  7  1  0
 14 15  2  0
 14 12  1  0
 16 17  1  0
 18 17  1  6
 18 20  1  0
 18 19  1  0
 19 14  1  0
 20 22  1  0
 21 20  2  0
M  END
$$$$
