MTS.pdb
     RDKit          3D

 22 21  0  0  1  0  0  0  0  0999 V2000
   18.6912  -15.5781  -16.6074 C   0  0  0  0  0  0  0  0  0  0  0  0
   20.1301  -14.6379  -16.0139 S   0  0  0  0  0  0  0  0  0  0  0  0
   20.9886  -13.8448  -17.4254 C   0  0  0  0  0  0  0  0  0  0  0  0
   22.1552  -13.0587  -16.8619 C   0  0  0  0  0  0  0  0  0  0  0  0
   22.9368  -12.3521  -17.9244 C   0  0  2  0  0  0  0  0  0  0  0  0
   23.8844  -13.2421  -18.5250 N   0  0  0  0  0  0  0  0  0  0  0  0
   23.5437  -11.0859  -17.4603 C   0  0  0  0  0  0  0  0  0  0  0  0
   24.6308  -11.1233  -16.8290 O   0  0  0  0  0  0  0  0  0  0  0  0
   25.2400   -8.7173  -19.0373 C   0  0  0  0  0  0  0  0  0  0  0  0
   24.2273   -7.8030  -18.3822 C   0  0  1  0  0  0  0  0  0  0  0  0
   23.2324   -7.5585  -19.3368 O   0  0  0  0  0  0  0  0  0  0  0  0
   23.5629   -8.5698  -17.2601 C   0  0  2  0  0  0  0  0  0  0  0  0
   22.9789   -9.8000  -17.6784 N   0  0  0  0  0  0  0  0  0  0  0  0
   22.6226   -7.7104  -16.4927 C   0  0  0  0  0  0  0  0  0  0  0  0
   21.4492   -8.0677  -16.2156 O   0  0  0  0  0  0  0  0  0  0  0  0
   21.0840   -5.6204  -13.0565 O   0  0  0  0  0  0  0  0  0  0  0  0
   21.9199   -6.3773  -13.8906 C   0  0  0  0  0  0  0  0  0  0  0  0
   22.0930   -5.6243  -15.1929 C   0  0  2  0  0  0  0  0  0  0  0  0
   23.0069   -6.4094  -16.0194 N   0  0  0  0  0  0  0  0  0  0  0  0
   22.5890   -4.2695  -14.9573 C   0  0  0  0  0  0  0  0  0  0  0  0
   23.8253   -4.0548  -14.9542 O   0  0  0  0  0  0  0  0  0  0  0  0
   21.7443   -3.1963  -14.7345 O   0  0  0  0  0  0  0  0  0  0  0  0
  2  1  1  0
  3  2  1  0
  4  3  1  0
  5  6  1  1
  5  4  1  0
  7  5  1  0
  8  7  2  0
 10  9  1  6
 10 12  1  0
 10 11  1  0
 12 13  1  6
 13  7  1  0
 14 15  2  0
 14 12  1  0
 16 17  1  0
 18 17  1  1
 18 20  1  0
 18 19  1  0
 19 14  1  0
 20 22  1  0
 21 20  2  0
M  END
$$$$
