MTS.pdb
     RDKit          3D

 22 21  0  0  1  0  0  0  0  0999 V2000
   25.9084  -14.3343  -18.4149 C   0  0  0  0  0  0  0  0  0  0  0  0
   25.0560  -15.4433  -17.2528 S   0  0  0  0  0  0  0  0  0  0  0  0
   24.0001  -14.4698  -16.1144 C   0  0  0  0  0  0  0  0  0  0  0  0
   24.1580  -13.0097  -16.4880 C   0  0  0  0  0  0  0  0  0  0  0  0
   23.3714  -12.1016  -15.5959 C   0  0  2  0  0  0  0  0  0  0  0  0
   22.0409  -12.6013  -15.4197 N   0  0  0  0  0  0  0  0  0  0  0  0
   23.4075  -10.6862  -16.0230 C   0  0  0  0  0  0  0  0  0  0  0  0
   24.5158  -10.1560  -16.2919 O   0  0  0  0  0  0  0  0  0  0  0  0
   22.0162   -9.0742  -18.9523 C   0  0  0  0  0  0  0  0  0  0  0  0
   21.4391   -8.2495  -17.8219 C   0  0  1  0  0  0  0  0  0  0  0  0
   20.1680   -8.7721  -17.5536 O   0  0  0  0  0  0  0  0  0  0  0  0
   22.2741   -8.5022  -16.5860 C   0  0  2  0  0  0  0  0  0  0  0  0
   22.2585   -9.8602  -16.1557 N   0  0  0  0  0  0  0  0  0  0  0  0
   21.9446   -7.5433  -15.4981 C   0  0  0  0  0  0  0  0  0  0  0  0
   21.2505   -7.8626  -14.4993 O   0  0  0  0  0  0  0  0  0  0  0  0
   22.3559   -3.0582  -13.7041 O   0  0  0  0  0  0  0  0  0  0  0  0
   22.7743   -3.9808  -14.6742 C   0  0  0  0  0  0  0  0  0  0  0  0
   21.8928   -5.2074  -14.5692 C   0  0  2  0  0  0  0  0  0  0  0  0
   22.4063   -6.1831  -15.5279 N   0  0  0  0  0  0  0  0  0  0  0  0
   20.4917   -4.8736  -14.8196 C   0  0  0  0  0  0  0  0  0  0  0  0
   19.7949   -4.3931  -13.8933 O   0  0  0  0  0  0  0  0  0  0  0  0
   19.8898   -5.0661  -16.0506 O   0  0  0  0  0  0  0  0  0  0  0  0
  2  1  1  0
  3  2  1  0
  4  3  1  0
  5  6  1  6
  5  4  1  0
  7  5  1  0
  8  7  2  0
 10  9  1  6
 10 12  1  0
 10 11  1  0
 12 13  1  1
 13  7  1  0
 14 15  2  0
 14 12  1  0
 16 17  1  0
 18 17  1  6
 18 20  1  0
 18 19  1  0
 19 14  1  0
 20 22  1  0
 21 20  2  0
M  END
$$$$
