AGV.pdb
     RDKit          3D

 17 16  0  0  1  0  0  0  0  0999 V2000
   11.9129   -7.9448   -7.1064 C   0  0  0  0  0  0  0  0  0  0  0  0
   12.6519   -8.3612   -8.3739 C   0  0  2  0  0  0  0  0  0  0  0  0
   13.3680   -9.5802   -8.0554 N   0  0  0  0  0  0  0  0  0  0  0  0
   13.6727   -7.3350   -8.7569 C   0  0  0  0  0  0  0  0  0  0  0  0
   13.3438   -6.1633   -9.0786 O   0  0  0  0  0  0  0  0  0  0  0  0
   15.0620   -7.6363   -8.7752 N   0  0  0  0  0  0  0  0  0  0  0  0
   16.1066   -6.7451   -9.1343 C   0  0  0  0  0  0  0  0  0  0  0  0
   17.2083   -7.3079   -9.9295 C   0  0  0  0  0  0  0  0  0  0  0  0
   17.8747   -8.2366   -9.3683 O   0  0  0  0  0  0  0  0  0  0  0  0
   17.6527   -9.8179  -12.2903 C   0  0  0  0  0  0  0  0  0  0  0  0
   18.2177   -8.5860  -12.9360 C   0  0  1  0  0  0  0  0  0  0  0  0
   17.2200   -8.0078  -13.9201 C   0  0  0  0  0  0  0  0  0  0  0  0
   18.6937   -7.5566  -11.9475 C   0  0  2  0  0  0  0  0  0  0  0  0
   17.6038   -6.9391  -11.2218 N   0  0  0  0  0  0  0  0  0  0  0  0
   19.3718   -6.4816  -12.7196 C   0  0  0  0  0  0  0  0  0  0  0  0
   18.7888   -5.3884  -12.9953 O   0  0  0  0  0  0  0  0  0  0  0  0
   20.6750   -6.6050  -13.1840 O   0  0  0  0  0  0  0  0  0  0  0  0
  2  1  1  1
  2  3  1  0
  4  2  1  0
  5  4  2  0
  6  4  1  0
  7  8  1  0
  7  6  1  0
  8  9  2  0
 11 10  1  1
 11 13  1  0
 12 11  1  0
 13 14  1  6
 14  8  1  0
 15 13  1  0
 16 15  2  0
 17 15  1  0
M  END
$$$$
