AGV.pdb
     RDKit          3D

 17 16  0  0  1  0  0  0  0  0999 V2000
   16.9755  -14.2105  -18.7223 C   0  0  0  0  0  0  0  0  0  0  0  0
   17.8196  -14.3232  -17.4570 C   0  0  2  0  0  0  0  0  0  0  0  0
   16.9057  -14.2164  -16.3374 N   0  0  0  0  0  0  0  0  0  0  0  0
   18.7812  -13.1800  -17.3545 C   0  0  0  0  0  0  0  0  0  0  0  0
   19.9936  -13.3597  -17.0680 O   0  0  0  0  0  0  0  0  0  0  0  0
   18.3694  -11.8374  -17.5763 N   0  0  0  0  0  0  0  0  0  0  0  0
   19.2163  -10.6995  -17.6226 C   0  0  0  0  0  0  0  0  0  0  0  0
   19.7113  -10.1940  -16.3332 C   0  0  0  0  0  0  0  0  0  0  0  0
   18.9581  -10.4120  -15.3299 O   0  0  0  0  0  0  0  0  0  0  0  0
   22.8937  -11.0943  -14.3591 C   0  0  0  0  0  0  0  0  0  0  0  0
   22.7809   -9.6046  -14.5062 C   0  0  1  0  0  0  0  0  0  0  0  0
   23.7523   -9.1086  -15.5591 C   0  0  0  0  0  0  0  0  0  0  0  0
   21.3766   -9.1337  -14.7703 C   0  0  2  0  0  0  0  0  0  0  0  0
   20.9060   -9.5048  -16.0881 N   0  0  0  0  0  0  0  0  0  0  0  0
   21.3894   -7.6478  -14.7109 C   0  0  0  0  0  0  0  0  0  0  0  0
   21.3222   -6.9373  -15.7606 O   0  0  0  0  0  0  0  0  0  0  0  0
   21.4750   -6.9496  -13.5133 O   0  0  0  0  0  0  0  0  0  0  0  0
  2  1  1  6
  2  3  1  0
  4  2  1  0
  5  4  2  0
  6  4  1  0
  7  8  1  0
  7  6  1  0
  8  9  2  0
 11 10  1  6
 11 13  1  0
 12 11  1  0
 13 14  1  6
 14  8  1  0
 15 13  1  0
 16 15  2  0
 17 15  1  0
M  END
$$$$
