AGV.pdb
     RDKit          3D

 17 16  0  0  1  0  0  0  0  0999 V2000
   16.8817  -10.1409  -17.9139 C   0  0  0  0  0  0  0  0  0  0  0  0
   18.3775   -9.9286  -17.7050 C   0  0  2  0  0  0  0  0  0  0  0  0
   18.9389  -11.2238  -17.3771 N   0  0  0  0  0  0  0  0  0  0  0  0
   18.6296   -9.0277  -16.5359 C   0  0  0  0  0  0  0  0  0  0  0  0
   18.3793   -7.7951  -16.5850 O   0  0  0  0  0  0  0  0  0  0  0  0
   19.1638   -9.5229  -15.3149 N   0  0  0  0  0  0  0  0  0  0  0  0
   19.3564   -8.7773  -14.1227 C   0  0  0  0  0  0  0  0  0  0  0  0
   20.5700   -7.9494  -14.0524 C   0  0  0  0  0  0  0  0  0  0  0  0
   21.6209   -8.5451  -13.6497 O   0  0  0  0  0  0  0  0  0  0  0  0
   22.2213   -6.0955  -16.9617 C   0  0  0  0  0  0  0  0  0  0  0  0
   22.1232   -5.1728  -15.7815 C   0  0  1  0  0  0  0  0  0  0  0  0
   21.0253   -4.1519  -16.0066 C   0  0  0  0  0  0  0  0  0  0  0  0
   21.9614   -5.8929  -14.4705 C   0  0  2  0  0  0  0  0  0  0  0  0
   20.6974   -6.5920  -14.3742 N   0  0  0  0  0  0  0  0  0  0  0  0
   21.9776   -4.8649  -13.3959 C   0  0  0  0  0  0  0  0  0  0  0  0
   23.0357   -4.2329  -13.0926 O   0  0  0  0  0  0  0  0  0  0  0  0
   20.8454   -4.5344  -12.6625 O   0  0  0  0  0  0  0  0  0  0  0  0
  2  1  1  1
  2  3  1  0
  4  2  1  0
  5  4  2  0
  6  4  1  0
  7  8  1  0
  7  6  1  0
  8  9  2  0
 11 10  1  6
 11 13  1  0
 12 11  1  0
 13 14  1  6
 14  8  1  0
 15 13  1  0
 16 15  2  0
 17 15  1  0
M  END
$$$$
