AGV.pdb
     RDKit          3D

 17 16  0  0  1  0  0  0  0  0999 V2000
   27.3301  -20.3048   -7.5049 C   0  0  0  0  0  0  0  0  0  0  0  0
   25.8964  -20.1352   -7.9969 C   0  0  2  0  0  0  0  0  0  0  0  0
   25.1266  -21.2153   -7.4131 N   0  0  0  0  0  0  0  0  0  0  0  0
   25.8216  -20.2915   -9.4841 C   0  0  0  0  0  0  0  0  0  0  0  0
   26.4459  -19.5233  -10.2618 O   0  0  0  0  0  0  0  0  0  0  0  0
   25.0415  -21.3154  -10.0878 N   0  0  0  0  0  0  0  0  0  0  0  0
   24.9072  -21.5535  -11.4805 C   0  0  0  0  0  0  0  0  0  0  0  0
   23.7811  -20.8914  -12.1562 C   0  0  0  0  0  0  0  0  0  0  0  0
   22.9295  -20.3343  -11.3907 O   0  0  0  0  0  0  0  0  0  0  0  0
   23.7559  -18.3327  -15.3176 C   0  0  0  0  0  0  0  0  0  0  0  0
   22.7787  -19.4655  -15.4429 C   0  0  1  0  0  0  0  0  0  0  0  0
   23.2857  -20.4841  -16.4448 C   0  0  0  0  0  0  0  0  0  0  0  0
   22.4258  -20.1002  -14.1253 C   0  0  2  0  0  0  0  0  0  0  0  0
   23.5420  -20.8074  -13.5339 N   0  0  0  0  0  0  0  0  0  0  0  0
   21.3601  -21.1035  -14.3885 C   0  0  0  0  0  0  0  0  0  0  0  0
   20.1706  -20.7570  -14.6647 O   0  0  0  0  0  0  0  0  0  0  0  0
   21.5970  -22.4715  -14.3492 O   0  0  0  0  0  0  0  0  0  0  0  0
  2  1  1  1
  2  3  1  0
  4  2  1  0
  5  4  2  0
  6  4  1  0
  7  8  1  0
  7  6  1  0
  8  9  2  0
 11 10  1  1
 11 13  1  0
 12 11  1  0
 13 14  1  6
 14  8  1  0
 15 13  1  0
 16 15  2  0
 17 15  1  0
M  END
$$$$
