AGV.pdb
     RDKit          3D

 17 16  0  0  1  0  0  0  0  0999 V2000
   25.1364  -18.0569  -19.4487 C   0  0  0  0  0  0  0  0  0  0  0  0
   24.6094  -19.1918  -18.5767 C   0  0  2  0  0  0  0  0  0  0  0  0
   23.1800  -18.9892  -18.4507 N   0  0  0  0  0  0  0  0  0  0  0  0
   25.1903  -19.1187  -17.1987 C   0  0  0  0  0  0  0  0  0  0  0  0
   26.3642  -19.5022  -16.9549 O   0  0  0  0  0  0  0  0  0  0  0  0
   24.4427  -18.6122  -16.1005 N   0  0  0  0  0  0  0  0  0  0  0  0
   24.8768  -18.5500  -14.7507 C   0  0  0  0  0  0  0  0  0  0  0  0
   24.4192  -19.6283  -13.8613 C   0  0  0  0  0  0  0  0  0  0  0  0
   23.6859  -20.5166  -14.4042 O   0  0  0  0  0  0  0  0  0  0  0  0
   26.5978  -21.3954  -10.8416 C   0  0  0  0  0  0  0  0  0  0  0  0
   25.1584  -21.1381  -10.5013 C   0  0  1  0  0  0  0  0  0  0  0  0
   25.0515  -19.9888   -9.5185 C   0  0  0  0  0  0  0  0  0  0  0  0
   24.2860  -20.9283  -11.7090 C   0  0  2  0  0  0  0  0  0  0  0  0
   24.6957  -19.7850  -12.4971 N   0  0  0  0  0  0  0  0  0  0  0  0
   22.9095  -20.6528  -11.2182 C   0  0  0  0  0  0  0  0  0  0  0  0
   22.4383  -19.4749  -11.1784 O   0  0  0  0  0  0  0  0  0  0  0  0
   22.0597  -21.6586  -10.7762 O   0  0  0  0  0  0  0  0  0  0  0  0
  2  1  1  6
  2  3  1  0
  4  2  1  0
  5  4  2  0
  6  4  1  0
  7  8  1  0
  7  6  1  0
  8  9  2  0
 11 10  1  6
 11 13  1  0
 12 11  1  0
 13 14  1  1
 14  8  1  0
 15 13  1  0
 16 15  2  0
 17 15  1  0
M  END
$$$$
