AGV.pdb
     RDKit          3D

 17 16  0  0  1  0  0  0  0  0999 V2000
   21.4810  -14.0372  -16.2793 C   0  0  0  0  0  0  0  0  0  0  0  0
   22.9524  -14.3486  -16.5323 C   0  0  2  0  0  0  0  0  0  0  0  0
   23.4683  -14.9358  -15.3120 N   0  0  0  0  0  0  0  0  0  0  0  0
   23.7277  -13.0921  -16.7815 C   0  0  0  0  0  0  0  0  0  0  0  0
   23.7767  -12.5607  -17.9215 O   0  0  0  0  0  0  0  0  0  0  0  0
   24.4451  -12.4403  -15.7414 N   0  0  0  0  0  0  0  0  0  0  0  0
   25.1778  -11.2307  -15.8614 C   0  0  0  0  0  0  0  0  0  0  0  0
   24.3946   -9.9862  -15.8882 C   0  0  0  0  0  0  0  0  0  0  0  0
   24.9991   -8.9644  -16.3487 O   0  0  0  0  0  0  0  0  0  0  0  0
   21.5251   -9.3265  -18.0296 C   0  0  0  0  0  0  0  0  0  0  0  0
   21.1198   -8.8961  -16.6496 C   0  0  1  0  0  0  0  0  0  0  0  0
   20.1641   -9.9068  -16.0468 C   0  0  0  0  0  0  0  0  0  0  0  0
   22.2872   -8.6157  -15.7429 C   0  0  2  0  0  0  0  0  0  0  0  0
   23.0717   -9.8007  -15.4665 N   0  0  0  0  0  0  0  0  0  0  0  0
   21.7363   -8.1414  -14.4456 C   0  0  0  0  0  0  0  0  0  0  0  0
   21.7361   -8.8773  -13.4114 O   0  0  0  0  0  0  0  0  0  0  0  0
   21.1916   -6.8739  -14.2850 O   0  0  0  0  0  0  0  0  0  0  0  0
  2  1  1  1
  2  3  1  0
  4  2  1  0
  5  4  2  0
  6  4  1  0
  7  8  1  0
  7  6  1  0
  8  9  2  0
 11 10  1  6
 11 13  1  0
 12 11  1  0
 13 14  1  1
 14  8  1  0
 15 13  1  0
 16 15  2  0
 17 15  1  0
M  END
$$$$
