AGV.pdb
     RDKit          3D

 17 16  0  0  1  0  0  0  0  0999 V2000
   18.9357  -12.9924  -15.9701 C   0  0  0  0  0  0  0  0  0  0  0  0
   17.9285  -12.0057  -16.5516 C   0  0  2  0  0  0  0  0  0  0  0  0
   17.8266  -12.3019  -17.9666 N   0  0  0  0  0  0  0  0  0  0  0  0
   18.4281  -10.5996  -16.4282 C   0  0  0  0  0  0  0  0  0  0  0  0
   19.4644  -10.2112  -17.0279 O   0  0  0  0  0  0  0  0  0  0  0  0
   17.7547   -9.6369  -15.6275 N   0  0  0  0  0  0  0  0  0  0  0  0
   18.0968   -8.2650  -15.5040 C   0  0  0  0  0  0  0  0  0  0  0  0
   19.2309   -7.9457  -14.6238 C   0  0  0  0  0  0  0  0  0  0  0  0
   19.1267   -8.3517  -13.4214 O   0  0  0  0  0  0  0  0  0  0  0  0
   22.7279   -9.2068  -14.6129 C   0  0  0  0  0  0  0  0  0  0  0  0
   22.7839   -7.7069  -14.5831 C   0  0  1  0  0  0  0  0  0  0  0  0
   23.1652   -7.1712  -15.9491 C   0  0  0  0  0  0  0  0  0  0  0  0
   21.5242   -7.0710  -14.0613 C   0  0  2  0  0  0  0  0  0  0  0  0
   20.4006   -7.2504  -14.9565 N   0  0  0  0  0  0  0  0  0  0  0  0
   21.7756   -5.6088  -13.9598 C   0  0  0  0  0  0  0  0  0  0  0  0
   21.2587   -4.7845  -14.7748 O   0  0  0  0  0  0  0  0  0  0  0  0
   22.5851   -5.0575  -12.9749 O   0  0  0  0  0  0  0  0  0  0  0  0
  2  1  1  1
  2  3  1  0
  4  2  1  0
  5  4  2  0
  6  4  1  0
  7  8  1  0
  7  6  1  0
  8  9  2  0
 11 10  1  6
 11 13  1  0
 12 11  1  0
 13 14  1  6
 14  8  1  0
 15 13  1  0
 16 15  2  0
 17 15  1  0
M  END
$$$$
