AGV.pdb
     RDKit          3D

 17 16  0  0  1  0  0  0  0  0999 V2000
   28.4872  -19.9189   -6.6647 C   0  0  0  0  0  0  0  0  0  0  0  0
   27.2034  -19.4247   -7.3234 C   0  0  2  0  0  0  0  0  0  0  0  0
   26.1104  -19.8454   -6.4699 N   0  0  0  0  0  0  0  0  0  0  0  0
   27.0022  -20.0784   -8.6553 C   0  0  0  0  0  0  0  0  0  0  0  0
   27.8402  -19.9536   -9.5863 O   0  0  0  0  0  0  0  0  0  0  0  0
   25.8545  -20.8710   -8.9309 N   0  0  0  0  0  0  0  0  0  0  0  0
   25.5341  -21.4750  -10.1746 C   0  0  0  0  0  0  0  0  0  0  0  0
   24.6131  -20.7332  -11.0491 C   0  0  0  0  0  0  0  0  0  0  0  0
   24.0522  -19.7178  -10.5239 O   0  0  0  0  0  0  0  0  0  0  0  0
   25.0000  -19.4139  -14.8663 C   0  0  0  0  0  0  0  0  0  0  0  0
   23.7325  -20.1805  -14.6222 C   0  0  1  0  0  0  0  0  0  0  0  0
   23.8256  -21.5571  -15.2503 C   0  0  0  0  0  0  0  0  0  0  0  0
   23.3450  -20.2499  -13.1701 C   0  0  2  0  0  0  0  0  0  0  0  0
   24.2859  -21.0170  -12.3813 N   0  0  0  0  0  0  0  0  0  0  0  0
   22.0352  -20.9501  -13.0944 C   0  0  0  0  0  0  0  0  0  0  0  0
   20.9622  -20.4040  -13.4962 O   0  0  0  0  0  0  0  0  0  0  0  0
   21.9044  -22.2350  -12.5836 O   0  0  0  0  0  0  0  0  0  0  0  0
  2  1  1  1
  2  3  1  0
  4  2  1  0
  5  4  2  0
  6  4  1  0
  7  8  1  0
  7  6  1  0
  8  9  2  0
 11 10  1  1
 11 13  1  0
 12 11  1  0
 13 14  1  1
 14  8  1  0
 15 13  1  0
 16 15  2  0
 17 15  1  0
M  END
$$$$
