AGV.pdb
     RDKit          3D

 17 16  0  0  1  0  0  0  0  0999 V2000
   19.2834  -10.2844  -14.4022 C   0  0  0  0  0  0  0  0  0  0  0  0
   18.0576  -10.2541  -13.4953 C   0  0  2  0  0  0  0  0  0  0  0  0
   16.9187   -9.9717  -14.3459 N   0  0  0  0  0  0  0  0  0  0  0  0
   18.1568   -9.1374  -12.5028 C   0  0  0  0  0  0  0  0  0  0  0  0
   18.6384   -8.0169  -12.8142 O   0  0  0  0  0  0  0  0  0  0  0  0
   17.7113   -9.2906  -11.1613 N   0  0  0  0  0  0  0  0  0  0  0  0
   17.6096   -8.2600  -10.1908 C   0  0  0  0  0  0  0  0  0  0  0  0
   16.3519   -7.4979  -10.1688 C   0  0  0  0  0  0  0  0  0  0  0  0
   15.5635   -7.7072  -11.1466 O   0  0  0  0  0  0  0  0  0  0  0  0
   13.3443   -7.9341   -8.1985 C   0  0  0  0  0  0  0  0  0  0  0  0
   13.7798   -6.5086   -8.0189 C   0  0  1  0  0  0  0  0  0  0  0  0
   14.4842   -6.3416   -6.6869 C   0  0  0  0  0  0  0  0  0  0  0  0
   14.6073   -5.9870   -9.1620 C   0  0  2  0  0  0  0  0  0  0  0  0
   15.9295   -6.5753   -9.2031 N   0  0  0  0  0  0  0  0  0  0  0  0
   14.7833   -4.5256   -8.9502 C   0  0  0  0  0  0  0  0  0  0  0  0
   13.8194   -3.7107   -9.0844 O   0  0  0  0  0  0  0  0  0  0  0  0
   16.0034   -3.9647   -8.5953 O   0  0  0  0  0  0  0  0  0  0  0  0
  2  1  1  6
  2  3  1  0
  4  2  1  0
  5  4  2  0
  6  4  1  0
  7  8  1  0
  7  6  1  0
  8  9  2  0
 11 10  1  6
 11 13  1  0
 12 11  1  0
 13 14  1  1
 14  8  1  0
 15 13  1  0
 16 15  2  0
 17 15  1  0
M  END
$$$$
