AWQ.pdb
     RDKit          3D

 29 30  0  0  1  0  0  0  0  0999 V2000
   26.8498  -20.5918  -15.0210 C   0  0  0  0  0  0  0  0  0  0  0  0
   27.3561  -21.8097  -14.2728 C   0  0  2  0  0  0  0  0  0  0  0  0
   26.9815  -23.0346  -14.9536 N   0  0  0  0  0  0  0  0  0  0  0  0
   26.7630  -21.8325  -12.9088 C   0  0  0  0  0  0  0  0  0  0  0  0
   25.6693  -22.4248  -12.7456 O   0  0  0  0  0  0  0  0  0  0  0  0
   27.3781  -21.2150  -11.7856 N   0  0  0  0  0  0  0  0  0  0  0  0
   26.7265  -21.1834  -10.4906 C   0  0  1  0  0  0  0  0  0  0  0  0
   27.6555  -20.6558   -9.4215 C   0  0  0  0  0  0  0  0  0  0  0  0
   26.9954  -20.6286   -8.0961 C   0  0  0  0  0  0  0  0  0  0  0  0
   25.7216  -21.0375   -7.7906 C   0  0  0  0  0  0  0  0  0  0  0  0
   25.5021  -20.8447   -6.4667 N   0  0  0  0  0  0  0  0  0  0  0  0
   26.6154  -20.3188   -5.9198 C   0  0  0  0  0  0  0  0  0  0  0  0
   26.8851  -19.9494   -4.6179 C   0  0  0  0  0  0  0  0  0  0  0  0
   28.1391  -19.4217   -4.3127 C   0  0  0  0  0  0  0  0  0  0  0  0
   29.0894  -19.2705   -5.2827 C   0  0  0  0  0  0  0  0  0  0  0  0
   28.7955  -19.6470   -6.5763 C   0  0  0  0  0  0  0  0  0  0  0  0
   27.5580  -20.1770   -6.9220 C   0  0  0  0  0  0  0  0  0  0  0  0
   25.5668  -20.2294  -10.5754 C   0  0  0  0  0  0  0  0  0  0  0  0
   25.7460  -19.0574  -11.0060 O   0  0  0  0  0  0  0  0  0  0  0  0
   23.1591  -18.6371  -14.8581 N   0  0  0  0  0  0  0  0  0  0  0  0
   22.1962  -18.7478  -13.8359 C   0  0  0  0  0  0  0  0  0  0  0  0
   21.4995  -17.7517  -13.5136 O   0  0  0  0  0  0  0  0  0  0  0  0
   21.9781  -20.0233  -13.1300 C   0  0  0  0  0  0  0  0  0  0  0  0
   23.1621  -20.4088  -12.3214 C   0  0  0  0  0  0  0  0  0  0  0  0
   23.0871  -20.0254  -10.8933 C   0  0  2  0  0  0  0  0  0  0  0  0
   24.2646  -20.6064  -10.1836 N   0  0  0  0  0  0  0  0  0  0  0  0
   21.9326  -20.3360  -10.0884 C   0  0  0  0  0  0  0  0  0  0  0  0
   20.8328  -19.7598  -10.2444 O   0  0  0  0  0  0  0  0  0  0  0  0
   21.9791  -21.3027   -9.0855 O   0  0  0  0  0  0  0  0  0  0  0  0
  2  1  1  6
  2  4  1  0
  3  2  1  0
  4  5  2  0
  6  4  1  0
  6  7  1  0
  7  8  1  1
  9  8  1  0
 10  9  2  0
 11 12  1  0
 11 10  1  0
 12 17  2  0
 13 14  2  0
 13 12  1  0
 14 15  1  0
 15 16  2  0
 17 16  1  0
 17  9  1  0
 18  7  1  0
 18 19  2  0
 20 21  1  0
 21 22  2  0
 23 24  1  0
 23 21  1  0
 25 24  1  6
 25 26  1  0
 26 18  1  0
 27 29  1  0
 27 25  1  0
 28 27  2  0
M  END
$$$$
