AWQ.pdb
     RDKit          3D

 29 30  0  0  1  0  0  0  0  0999 V2000
   26.2959  -17.9146  -17.7244 C   0  0  0  0  0  0  0  0  0  0  0  0
   27.4476  -18.0966  -16.7547 C   0  0  2  0  0  0  0  0  0  0  0  0
   28.6113  -18.6478  -17.4228 N   0  0  0  0  0  0  0  0  0  0  0  0
   27.0398  -19.0351  -15.6750 C   0  0  0  0  0  0  0  0  0  0  0  0
   26.8156  -20.2311  -15.9798 O   0  0  0  0  0  0  0  0  0  0  0  0
   26.8932  -18.6385  -14.3177 N   0  0  0  0  0  0  0  0  0  0  0  0
   26.6116  -19.6058  -13.2748 C   0  0  1  0  0  0  0  0  0  0  0  0
   26.7335  -18.9843  -11.9025 C   0  0  0  0  0  0  0  0  0  0  0  0
   26.4808  -19.9781  -10.8338 C   0  0  0  0  0  0  0  0  0  0  0  0
   26.1273  -21.2952  -10.9869 C   0  0  0  0  0  0  0  0  0  0  0  0
   25.9883  -21.8596   -9.7622 N   0  0  0  0  0  0  0  0  0  0  0  0
   26.2472  -20.9247   -8.8273 C   0  0  0  0  0  0  0  0  0  0  0  0
   26.2383  -21.0088   -7.4501 C   0  0  0  0  0  0  0  0  0  0  0  0
   26.5493  -19.8732   -6.7032 C   0  0  0  0  0  0  0  0  0  0  0  0
   26.8586  -18.6936   -7.3194 C   0  0  0  0  0  0  0  0  0  0  0  0
   26.8607  -18.6352   -8.6971 C   0  0  0  0  0  0  0  0  0  0  0  0
   26.5565  -19.7440   -9.4780 C   0  0  0  0  0  0  0  0  0  0  0  0
   25.1846  -20.0554  -13.4289 C   0  0  0  0  0  0  0  0  0  0  0  0
   24.2946  -19.2239  -13.7572 O   0  0  0  0  0  0  0  0  0  0  0  0
   23.6489  -25.7913  -15.0159 N   0  0  0  0  0  0  0  0  0  0  0  0
   22.8368  -24.8816  -15.7212 C   0  0  0  0  0  0  0  0  0  0  0  0
   22.1931  -25.2618  -16.7325 O   0  0  0  0  0  0  0  0  0  0  0  0
   22.7165  -23.4767  -15.2916 C   0  0  0  0  0  0  0  0  0  0  0  0
   23.4550  -23.2273  -14.0280 C   0  0  0  0  0  0  0  0  0  0  0  0
   23.4121  -21.8257  -13.5529 C   0  0  2  0  0  0  0  0  0  0  0  0
   24.8012  -21.3965  -13.2153 N   0  0  0  0  0  0  0  0  0  0  0  0
   22.5825  -21.4307  -12.4425 C   0  0  0  0  0  0  0  0  0  0  0  0
   23.0149  -21.3775  -11.2693 O   0  0  0  0  0  0  0  0  0  0  0  0
   21.2441  -21.0836  -12.6169 O   0  0  0  0  0  0  0  0  0  0  0  0
  2  1  1  6
  2  4  1  0
  3  2  1  0
  4  5  2  0
  6  4  1  0
  6  7  1  0
  7  8  1  1
  9  8  1  0
 10  9  2  0
 11 12  1  0
 11 10  1  0
 12 17  2  0
 13 14  2  0
 13 12  1  0
 14 15  1  0
 15 16  2  0
 17 16  1  0
 17  9  1  0
 18  7  1  0
 18 19  2  0
 20 21  1  0
 21 22  2  0
 23 24  1  0
 23 21  1  0
 25 24  1  1
 25 26  1  0
 26 18  1  0
 27 29  1  0
 27 25  1  0
 28 27  2  0
M  END
$$$$
