AWQ.pdb
     RDKit          3D

 29 30  0  0  1  0  0  0  0  0999 V2000
   25.8396  -33.1760  -16.5992 C   0  0  0  0  0  0  0  0  0  0  0  0
   26.9443  -32.1936  -16.2614 C   0  0  2  0  0  0  0  0  0  0  0  0
   27.5754  -32.5302  -14.9994 N   0  0  0  0  0  0  0  0  0  0  0  0
   26.3704  -30.8259  -16.1472 C   0  0  0  0  0  0  0  0  0  0  0  0
   25.7974  -30.5088  -15.0773 O   0  0  0  0  0  0  0  0  0  0  0  0
   26.4418  -29.8655  -17.1929 N   0  0  0  0  0  0  0  0  0  0  0  0
   25.9684  -28.5078  -17.0047 C   0  0  1  0  0  0  0  0  0  0  0  0
   26.6798  -27.5457  -17.9280 C   0  0  0  0  0  0  0  0  0  0  0  0
   26.3960  -26.1380  -17.5658 C   0  0  0  0  0  0  0  0  0  0  0  0
   26.4523  -25.5708  -16.3175 C   0  0  0  0  0  0  0  0  0  0  0  0
   26.1182  -24.2604  -16.4131 N   0  0  0  0  0  0  0  0  0  0  0  0
   25.8489  -23.9796  -17.7030 C   0  0  0  0  0  0  0  0  0  0  0  0
   25.4677  -22.7961  -18.3011 C   0  0  0  0  0  0  0  0  0  0  0  0
   25.2487  -22.7764  -19.6780 C   0  0  0  0  0  0  0  0  0  0  0  0
   25.4074  -23.9075  -20.4279 C   0  0  0  0  0  0  0  0  0  0  0  0
   25.7890  -25.0779  -19.8066 C   0  0  0  0  0  0  0  0  0  0  0  0
   26.0171  -25.1398  -18.4369 C   0  0  0  0  0  0  0  0  0  0  0  0
   24.5094  -28.4683  -17.3676 C   0  0  0  0  0  0  0  0  0  0  0  0
   24.0813  -29.1611  -18.3309 O   0  0  0  0  0  0  0  0  0  0  0  0
   19.1074  -28.3239  -14.1466 N   0  0  0  0  0  0  0  0  0  0  0  0
   19.1372  -28.2054  -15.5500 C   0  0  0  0  0  0  0  0  0  0  0  0
   18.5202  -29.0339  -16.2673 O   0  0  0  0  0  0  0  0  0  0  0  0
   19.8790  -27.1138  -16.2065 C   0  0  0  0  0  0  0  0  0  0  0  0
   21.3351  -27.2005  -15.9303 C   0  0  0  0  0  0  0  0  0  0  0  0
   22.1567  -27.6485  -17.0777 C   0  0  2  0  0  0  0  0  0  0  0  0
   23.5884  -27.6701  -16.6564 N   0  0  0  0  0  0  0  0  0  0  0  0
   22.1159  -26.9664  -18.3467 C   0  0  0  0  0  0  0  0  0  0  0  0
   21.3656  -27.3314  -19.2793 O   0  0  0  0  0  0  0  0  0  0  0  0
   22.9158  -25.8547  -18.6052 O   0  0  0  0  0  0  0  0  0  0  0  0
  2  1  1  1
  2  4  1  0
  3  2  1  0
  4  5  2  0
  6  4  1  0
  6  7  1  0
  7  8  1  6
  9  8  1  0
 10  9  2  0
 11 12  1  0
 11 10  1  0
 12 17  2  0
 13 14  2  0
 13 12  1  0
 14 15  1  0
 15 16  2  0
 17 16  1  0
 17  9  1  0
 18  7  1  0
 18 19  2  0
 20 21  1  0
 21 22  2  0
 23 24  1  0
 23 21  1  0
 25 24  1  1
 25 26  1  0
 26 18  1  0
 27 29  1  0
 27 25  1  0
 28 27  2  0
M  END
$$$$
