AWQ.pdb
     RDKit          3D

 29 30  0  0  1  0  0  0  0  0999 V2000
   27.9146  -20.0648  -15.3114 C   0  0  0  0  0  0  0  0  0  0  0  0
   28.5548  -21.1282  -14.4402 C   0  0  2  0  0  0  0  0  0  0  0  0
   28.5743  -22.4131  -15.1132 N   0  0  0  0  0  0  0  0  0  0  0  0
   27.7741  -21.2711  -13.1821 C   0  0  0  0  0  0  0  0  0  0  0  0
   26.6941  -21.9081  -13.2212 O   0  0  0  0  0  0  0  0  0  0  0  0
   28.1957  -20.7196  -11.9414 N   0  0  0  0  0  0  0  0  0  0  0  0
   27.4254  -20.9139  -10.7282 C   0  0  1  0  0  0  0  0  0  0  0  0
   28.1226  -20.3069   -9.5324 C   0  0  0  0  0  0  0  0  0  0  0  0
   27.2615  -20.3425   -8.3281 C   0  0  0  0  0  0  0  0  0  0  0  0
   25.9568  -20.7604   -8.2483 C   0  0  0  0  0  0  0  0  0  0  0  0
   25.5304  -20.6325   -6.9677 N   0  0  0  0  0  0  0  0  0  0  0  0
   26.5415  -20.1393   -6.2264 C   0  0  0  0  0  0  0  0  0  0  0  0
   26.6010  -19.8362   -4.8816 C   0  0  0  0  0  0  0  0  0  0  0  0
   27.7893  -19.3299   -4.3565 C   0  0  0  0  0  0  0  0  0  0  0  0
   28.8802  -19.1350   -5.1555 C   0  0  0  0  0  0  0  0  0  0  0  0
   28.7956  -19.4456   -6.4963 C   0  0  0  0  0  0  0  0  0  0  0  0
   27.6300  -19.9522   -7.0590 C   0  0  0  0  0  0  0  0  0  0  0  0
   26.1156  -20.1919  -10.8870 C   0  0  0  0  0  0  0  0  0  0  0  0
   26.0991  -19.0034  -11.3095 O   0  0  0  0  0  0  0  0  0  0  0  0
   23.7236  -23.1727  -14.7344 N   0  0  0  0  0  0  0  0  0  0  0  0
   22.6072  -22.3268  -14.5845 C   0  0  0  0  0  0  0  0  0  0  0  0
   21.6657  -22.3694  -15.4171 O   0  0  0  0  0  0  0  0  0  0  0  0
   22.5121  -21.3844  -13.4550 C   0  0  0  0  0  0  0  0  0  0  0  0
   23.6993  -21.4742  -12.5680 C   0  0  0  0  0  0  0  0  0  0  0  0
   23.6897  -20.5335  -11.4247 C   0  0  2  0  0  0  0  0  0  0  0  0
   24.8852  -20.8079  -10.5744 N   0  0  0  0  0  0  0  0  0  0  0  0
   22.5640  -20.4466  -10.5288 C   0  0  0  0  0  0  0  0  0  0  0  0
   21.6862  -19.5616  -10.6402 O   0  0  0  0  0  0  0  0  0  0  0  0
   22.3909  -21.3507   -9.4824 O   0  0  0  0  0  0  0  0  0  0  0  0
  2  1  1  6
  2  4  1  0
  3  2  1  0
  4  5  2  0
  6  4  1  0
  6  7  1  0
  7  8  1  1
  9  8  1  0
 10  9  2  0
 11 12  1  0
 11 10  1  0
 12 17  2  0
 13 14  2  0
 13 12  1  0
 14 15  1  0
 15 16  2  0
 17 16  1  0
 17  9  1  0
 18  7  1  0
 18 19  2  0
 20 21  1  0
 21 22  2  0
 23 24  1  0
 23 21  1  0
 25 24  1  6
 25 26  1  0
 26 18  1  0
 27 29  1  0
 27 25  1  0
 28 27  2  0
M  END
$$$$
