AWQ.pdb
     RDKit          3D

 29 30  0  0  1  0  0  0  0  0999 V2000
   27.8965  -23.1891  -18.0190 C   0  0  0  0  0  0  0  0  0  0  0  0
   28.6660  -23.2393  -16.7133 C   0  0  2  0  0  0  0  0  0  0  0  0
   29.2086  -24.5637  -16.4769 N   0  0  0  0  0  0  0  0  0  0  0  0
   27.7528  -22.9006  -15.5890 C   0  0  0  0  0  0  0  0  0  0  0  0
   26.7297  -23.6065  -15.4203 O   0  0  0  0  0  0  0  0  0  0  0  0
   27.9867  -21.8160  -14.7001 N   0  0  0  0  0  0  0  0  0  0  0  0
   27.1244  -21.5753  -13.5594 C   0  0  1  0  0  0  0  0  0  0  0  0
   27.7734  -20.6353  -12.5696 C   0  0  0  0  0  0  0  0  0  0  0  0
   26.9625  -20.5025  -11.3375 C   0  0  0  0  0  0  0  0  0  0  0  0
   25.6323  -20.1777  -11.2459 C   0  0  0  0  0  0  0  0  0  0  0  0
   25.2722  -20.1581   -9.9390 N   0  0  0  0  0  0  0  0  0  0  0  0
   26.3508  -20.4653   -9.1925 C   0  0  0  0  0  0  0  0  0  0  0  0
   26.4915  -20.5734   -7.8241 C   0  0  0  0  0  0  0  0  0  0  0  0
   27.7383  -20.9108   -7.2990 C   0  0  0  0  0  0  0  0  0  0  0  0
   28.8070  -21.1319   -8.1211 C   0  0  0  0  0  0  0  0  0  0  0  0
   28.6408  -21.0177   -9.4852 C   0  0  0  0  0  0  0  0  0  0  0  0
   27.4150  -20.6834  -10.0486 C   0  0  0  0  0  0  0  0  0  0  0  0
   25.8751  -20.8994  -14.0538 C   0  0  0  0  0  0  0  0  0  0  0  0
   25.9592  -19.8389  -14.7317 O   0  0  0  0  0  0  0  0  0  0  0  0
   21.3408  -24.0988  -12.9774 N   0  0  0  0  0  0  0  0  0  0  0  0
   20.7922  -22.8422  -12.6546 C   0  0  0  0  0  0  0  0  0  0  0  0
   19.6712  -22.7684  -12.0893 O   0  0  0  0  0  0  0  0  0  0  0  0
   21.5143  -21.5944  -12.9618 C   0  0  0  0  0  0  0  0  0  0  0  0
   22.2404  -21.6880  -14.2534 C   0  0  0  0  0  0  0  0  0  0  0  0
   23.3922  -20.7668  -14.3836 C   0  0  2  0  0  0  0  0  0  0  0  0
   24.5918  -21.4191  -13.7810 N   0  0  0  0  0  0  0  0  0  0  0  0
   23.3493  -19.4262  -13.8558 C   0  0  0  0  0  0  0  0  0  0  0  0
   23.2616  -18.4189  -14.5930 O   0  0  0  0  0  0  0  0  0  0  0  0
   23.4033  -19.1779  -12.4855 O   0  0  0  0  0  0  0  0  0  0  0  0
  2  1  1  6
  2  4  1  0
  3  2  1  0
  4  5  2  0
  6  4  1  0
  6  7  1  0
  7  8  1  1
  9  8  1  0
 10  9  2  0
 11 12  1  0
 11 10  1  0
 12 17  2  0
 13 14  2  0
 13 12  1  0
 14 15  1  0
 15 16  2  0
 17 16  1  0
 17  9  1  0
 18  7  1  0
 18 19  2  0
 20 21  1  0
 21 22  2  0
 23 24  1  0
 23 21  1  0
 25 24  1  1
 25 26  1  0
 26 18  1  0
 27 29  1  0
 27 25  1  0
 28 27  2  0
M  END
$$$$
