AWQ.pdb
     RDKit          3D

 29 30  0  0  1  0  0  0  0  0999 V2000
   27.5117  -21.5411  -17.2454 C   0  0  0  0  0  0  0  0  0  0  0  0
   28.3553  -21.9346  -16.0483 C   0  0  2  0  0  0  0  0  0  0  0  0
   29.0643  -23.1761  -16.2939 N   0  0  0  0  0  0  0  0  0  0  0  0
   27.4742  -22.1254  -14.8651 C   0  0  0  0  0  0  0  0  0  0  0  0
   26.9401  -23.2477  -14.6960 O   0  0  0  0  0  0  0  0  0  0  0  0
   27.2112  -21.0959  -13.9205 N   0  0  0  0  0  0  0  0  0  0  0  0
   26.3690  -21.3302  -12.7635 C   0  0  1  0  0  0  0  0  0  0  0  0
   26.6546  -20.3315  -11.6657 C   0  0  0  0  0  0  0  0  0  0  0  0
   27.7877  -20.7683  -10.8180 C   0  0  0  0  0  0  0  0  0  0  0  0
   28.9759  -21.3158  -11.2320 C   0  0  0  0  0  0  0  0  0  0  0  0
   29.7426  -21.5790  -10.1453 N   0  0  0  0  0  0  0  0  0  0  0  0
   29.0639  -21.2086   -9.0420 C   0  0  0  0  0  0  0  0  0  0  0  0
   29.4165  -21.2740   -7.7096 C   0  0  0  0  0  0  0  0  0  0  0  0
   28.5148  -20.8152   -6.7501 C   0  0  0  0  0  0  0  0  0  0  0  0
   27.3004  -20.3081   -7.1173 C   0  0  0  0  0  0  0  0  0  0  0  0
   26.9714  -20.2534   -8.4553 C   0  0  0  0  0  0  0  0  0  0  0  0
   27.8416  -20.7003   -9.4427 C   0  0  0  0  0  0  0  0  0  0  0  0
   24.9379  -21.1286  -13.1801 C   0  0  0  0  0  0  0  0  0  0  0  0
   24.6313  -20.1639  -13.9329 O   0  0  0  0  0  0  0  0  0  0  0  0
   22.4434  -25.8734  -14.2078 N   0  0  0  0  0  0  0  0  0  0  0  0
   21.9967  -25.0142  -15.2309 C   0  0  0  0  0  0  0  0  0  0  0  0
   21.8246  -25.4550  -16.3960 O   0  0  0  0  0  0  0  0  0  0  0  0
   21.7154  -23.5924  -14.9625 C   0  0  0  0  0  0  0  0  0  0  0  0
   22.0011  -23.2368  -13.5497 C   0  0  0  0  0  0  0  0  0  0  0  0
   22.5498  -21.8758  -13.3533 C   0  0  2  0  0  0  0  0  0  0  0  0
   23.9102  -21.9951  -12.7510 N   0  0  0  0  0  0  0  0  0  0  0  0
   21.8473  -20.8836  -12.5790 C   0  0  0  0  0  0  0  0  0  0  0  0
   22.1373  -20.6355  -11.3873 O   0  0  0  0  0  0  0  0  0  0  0  0
   20.7992  -20.1413  -13.1203 O   0  0  0  0  0  0  0  0  0  0  0  0
  2  1  1  6
  2  4  1  0
  3  2  1  0
  4  5  2  0
  6  4  1  0
  6  7  1  0
  7  8  1  1
  9  8  1  0
 10  9  2  0
 11 12  1  0
 11 10  1  0
 12 17  2  0
 13 14  2  0
 13 12  1  0
 14 15  1  0
 15 16  2  0
 17 16  1  0
 17  9  1  0
 18  7  1  0
 18 19  2  0
 20 21  1  0
 21 22  2  0
 23 24  1  0
 23 21  1  0
 25 24  1  1
 25 26  1  0
 26 18  1  0
 27 29  1  0
 27 25  1  0
 28 27  2  0
M  END
$$$$
