AWQ.pdb
     RDKit          3D

 29 30  0  0  1  0  0  0  0  0999 V2000
   27.8462  -19.4313  -14.8225 C   0  0  0  0  0  0  0  0  0  0  0  0
   28.4477  -20.2934  -13.7295 C   0  0  2  0  0  0  0  0  0  0  0  0
   29.1235  -21.4492  -14.2878 N   0  0  0  0  0  0  0  0  0  0  0  0
   27.3658  -20.7741  -12.8287 C   0  0  0  0  0  0  0  0  0  0  0  0
   26.6867  -21.7647  -13.1907 O   0  0  0  0  0  0  0  0  0  0  0  0
   27.0680  -20.1629  -11.5802 N   0  0  0  0  0  0  0  0  0  0  0  0
   26.0387  -20.6926  -10.7068 C   0  0  1  0  0  0  0  0  0  0  0  0
   26.1371  -20.0996   -9.3201 C   0  0  0  0  0  0  0  0  0  0  0  0
   27.4066  -20.4785   -8.6583 C   0  0  0  0  0  0  0  0  0  0  0  0
   28.3609  -21.3490   -9.1217 C   0  0  0  0  0  0  0  0  0  0  0  0
   29.3680  -21.4217   -8.2170 N   0  0  0  0  0  0  0  0  0  0  0  0
   29.0736  -20.6114   -7.1817 C   0  0  0  0  0  0  0  0  0  0  0  0
   29.7776  -20.3440   -6.0255 C   0  0  0  0  0  0  0  0  0  0  0  0
   29.2400  -19.4500   -5.1003 C   0  0  0  0  0  0  0  0  0  0  0  0
   28.0362  -18.8457   -5.3294 C   0  0  0  0  0  0  0  0  0  0  0  0
   27.3520  -19.1296   -6.4924 C   0  0  0  0  0  0  0  0  0  0  0  0
   27.8529  -20.0145   -7.4399 C   0  0  0  0  0  0  0  0  0  0  0  0
   24.7013  -20.2886  -11.2640 C   0  0  0  0  0  0  0  0  0  0  0  0
   24.6251  -19.3418  -12.0940 O   0  0  0  0  0  0  0  0  0  0  0  0
   23.8952  -24.5423  -14.2217 N   0  0  0  0  0  0  0  0  0  0  0  0
   22.6025  -24.0560  -14.4986 C   0  0  0  0  0  0  0  0  0  0  0  0
   21.9037  -24.5937  -15.3952 O   0  0  0  0  0  0  0  0  0  0  0  0
   22.0390  -22.9201  -13.7469 C   0  0  0  0  0  0  0  0  0  0  0  0
   22.9731  -22.4443  -12.6956 C   0  0  0  0  0  0  0  0  0  0  0  0
   22.4920  -21.2763  -11.9232 C   0  0  2  0  0  0  0  0  0  0  0  0
   23.5101  -20.9427  -10.8841 N   0  0  0  0  0  0  0  0  0  0  0  0
   21.2156  -21.2885  -11.2538 C   0  0  0  0  0  0  0  0  0  0  0  0
   20.2497  -20.5937  -11.6412 O   0  0  0  0  0  0  0  0  0  0  0  0
   20.9868  -22.0811  -10.1305 O   0  0  0  0  0  0  0  0  0  0  0  0
  2  1  1  6
  2  4  1  0
  3  2  1  0
  4  5  2  0
  6  4  1  0
  6  7  1  0
  7  8  1  1
  9  8  1  0
 10  9  2  0
 11 12  1  0
 11 10  1  0
 12 17  2  0
 13 14  2  0
 13 12  1  0
 14 15  1  0
 15 16  2  0
 17 16  1  0
 17  9  1  0
 18  7  1  0
 18 19  2  0
 20 21  1  0
 21 22  2  0
 23 24  1  0
 23 21  1  0
 25 24  1  1
 25 26  1  0
 26 18  1  0
 27 29  1  0
 27 25  1  0
 28 27  2  0
M  END
$$$$
