AWQ.pdb
     RDKit          3D

 29 30  0  0  1  0  0  0  0  0999 V2000
   29.2351  -22.4751  -15.5618 C   0  0  0  0  0  0  0  0  0  0  0  0
   27.9349  -21.6997  -15.6495 C   0  0  2  0  0  0  0  0  0  0  0  0
   28.1828  -20.2759  -15.7747 N   0  0  0  0  0  0  0  0  0  0  0  0
   27.1394  -21.9290  -14.4137 C   0  0  0  0  0  0  0  0  0  0  0  0
   26.8031  -23.1043  -14.1322 O   0  0  0  0  0  0  0  0  0  0  0  0
   26.7442  -20.8791  -13.5402 N   0  0  0  0  0  0  0  0  0  0  0  0
   25.9505  -21.1413  -12.3553 C   0  0  1  0  0  0  0  0  0  0  0  0
   26.2392  -20.1329  -11.2672 C   0  0  0  0  0  0  0  0  0  0  0  0
   27.4529  -20.4965  -10.5003 C   0  0  0  0  0  0  0  0  0  0  0  0
   28.5649  -21.1546  -10.9624 C   0  0  0  0  0  0  0  0  0  0  0  0
   29.4492  -21.2945   -9.9444 N   0  0  0  0  0  0  0  0  0  0  0  0
   28.9210  -20.7362   -8.8379 C   0  0  0  0  0  0  0  0  0  0  0  0
   29.4304  -20.6252   -7.5603 C   0  0  0  0  0  0  0  0  0  0  0  0
   28.6661  -19.9897   -6.5825 C   0  0  0  0  0  0  0  0  0  0  0  0
   27.4322  -19.4832   -6.8786 C   0  0  0  0  0  0  0  0  0  0  0  0
   26.9452  -19.6068   -8.1628 C   0  0  0  0  0  0  0  0  0  0  0  0
   27.6752  -20.2331   -9.1662 C   0  0  0  0  0  0  0  0  0  0  0  0
   24.5001  -20.9890  -12.7227 C   0  0  0  0  0  0  0  0  0  0  0  0
   24.1167  -19.9734  -13.3653 O   0  0  0  0  0  0  0  0  0  0  0  0
   22.7614  -26.1540  -14.8671 N   0  0  0  0  0  0  0  0  0  0  0  0
   21.8886  -25.0487  -14.8359 C   0  0  0  0  0  0  0  0  0  0  0  0
   20.6686  -25.1992  -15.1011 O   0  0  0  0  0  0  0  0  0  0  0  0
   22.3773  -23.7022  -14.4879 C   0  0  0  0  0  0  0  0  0  0  0  0
   21.6626  -23.1501  -13.3095 C   0  0  0  0  0  0  0  0  0  0  0  0
   22.1378  -21.8200  -12.8654 C   0  0  2  0  0  0  0  0  0  0  0  0
   23.5380  -21.9583  -12.3675 N   0  0  0  0  0  0  0  0  0  0  0  0
   21.4254  -21.0579  -11.8708 C   0  0  0  0  0  0  0  0  0  0  0  0
   21.6461  -21.1842  -10.6455 O   0  0  0  0  0  0  0  0  0  0  0  0
   20.4451  -20.1319  -12.2230 O   0  0  0  0  0  0  0  0  0  0  0  0
  2  1  1  1
  2  4  1  0
  3  2  1  0
  4  5  2  0
  6  4  1  0
  6  7  1  0
  7  8  1  1
  9  8  1  0
 10  9  2  0
 11 12  1  0
 11 10  1  0
 12 17  2  0
 13 14  2  0
 13 12  1  0
 14 15  1  0
 15 16  2  0
 17 16  1  0
 17  9  1  0
 18  7  1  0
 18 19  2  0
 20 21  1  0
 21 22  2  0
 23 24  1  0
 23 21  1  0
 25 24  1  1
 25 26  1  0
 26 18  1  0
 27 29  1  0
 27 25  1  0
 28 27  2  0
M  END
$$$$
