QTV.pdb
     RDKit          3D

 24 23  0  0  1  0  0  0  0  0999 V2000
   11.5491  -20.6527   23.2812 N   0  0  0  0  0  0  0  0  0  0  0  0
   12.6553  -20.1050   22.5927 C   0  0  0  0  0  0  0  0  0  0  0  0
   13.7874  -20.5873   22.8132 O   0  0  0  0  0  0  0  0  0  0  0  0
   12.4043  -18.9890   21.6486 C   0  0  0  0  0  0  0  0  0  0  0  0
   10.9376  -18.6133   21.6036 C   0  0  0  0  0  0  0  0  0  0  0  0
   10.7868  -17.4698   20.6519 C   0  0  2  0  0  0  0  0  0  0  0  0
   12.0627  -17.2212   20.0289 N   0  0  0  0  0  0  0  0  0  0  0  0
   10.3132  -16.2257   21.3013 C   0  0  0  0  0  0  0  0  0  0  0  0
   11.1365  -15.3554   21.7130 O   0  0  0  0  0  0  0  0  0  0  0  0
    7.3936  -13.8984   20.1517 C   0  0  0  0  0  0  0  0  0  0  0  0
    7.0964  -14.4231   21.5419 C   0  0  1  0  0  0  0  0  0  0  0  0
    6.4568  -15.6620   21.3652 O   0  0  0  0  0  0  0  0  0  0  0  0
    8.4553  -14.7495   22.1726 C   0  0  2  0  0  0  0  0  0  0  0  0
    8.9388  -15.9324   21.5010 N   0  0  0  0  0  0  0  0  0  0  0  0
    8.2025  -14.9741   23.6111 C   0  0  0  0  0  0  0  0  0  0  0  0
    8.4809  -16.1114   24.0722 O   0  0  0  0  0  0  0  0  0  0  0  0
    5.6004  -12.5931   25.7804 C   0  0  0  0  0  0  0  0  0  0  0  0
    6.8290  -13.0595   26.5130 C   0  0  2  0  0  0  0  0  0  0  0  0
    7.8998  -11.9894   26.5611 C   0  0  0  0  0  0  0  0  0  0  0  0
    7.4454  -14.2886   25.9000 C   0  0  2  0  0  0  0  0  0  0  0  0
    7.6753  -14.0108   24.4959 N   0  0  0  0  0  0  0  0  0  0  0  0
    6.6303  -15.4917   26.0725 C   0  0  0  0  0  0  0  0  0  0  0  0
    5.9201  -16.0775   25.0402 O   0  0  0  0  0  0  0  0  0  0  0  0
    6.5643  -16.0278   27.2080 O   0  0  0  0  0  0  0  0  0  0  0  0
  2  1  1  0
  2  3  2  0
  4  2  1  0
  5  4  1  0
  6  5  1  0
  6  7  1  1
  8  6  1  0
  8 14  1  0
  9  8  2  0
 11 10  1  6
 12 11  1  0
 13 14  1  6
 13 11  1  0
 15 13  1  0
 16 15  2  0
 18 20  1  0
 18 17  1  6
 19 18  1  0
 20 21  1  6
 21 15  1  0
 22 23  1  0
 22 20  1  0
 24 22  2  0
M  END
$$$$
