QTV.pdb
     RDKit          3D

 24 23  0  0  1  0  0  0  0  0999 V2000
    8.0916  -12.5103   18.7864 N   0  0  0  0  0  0  0  0  0  0  0  0
    8.3022  -13.7199   18.0861 C   0  0  0  0  0  0  0  0  0  0  0  0
    8.9606  -13.6818   17.0241 O   0  0  0  0  0  0  0  0  0  0  0  0
    7.7277  -14.9629   18.6557 C   0  0  0  0  0  0  0  0  0  0  0  0
    8.7113  -15.6677   19.5669 C   0  0  0  0  0  0  0  0  0  0  0  0
    8.0008  -16.8181   20.2054 C   0  0  2  0  0  0  0  0  0  0  0  0
    7.0516  -17.3515   19.2607 N   0  0  0  0  0  0  0  0  0  0  0  0
    7.2902  -16.4490   21.4515 C   0  0  0  0  0  0  0  0  0  0  0  0
    6.0656  -16.1258   21.4280 O   0  0  0  0  0  0  0  0  0  0  0  0
    6.3079  -18.3894   23.8291 C   0  0  0  0  0  0  0  0  0  0  0  0
    7.1206  -17.4679   24.7160 C   0  0  1  0  0  0  0  0  0  0  0  0
    8.4228  -17.9959   24.7415 O   0  0  0  0  0  0  0  0  0  0  0  0
    7.2317  -16.1389   23.9595 C   0  0  2  0  0  0  0  0  0  0  0  0
    7.9184  -16.4332   22.7242 N   0  0  0  0  0  0  0  0  0  0  0  0
    7.9974  -15.2261   24.8337 C   0  0  0  0  0  0  0  0  0  0  0  0
    9.2429  -15.1755   24.6604 O   0  0  0  0  0  0  0  0  0  0  0  0
    6.1323  -12.4842   27.5180 C   0  0  0  0  0  0  0  0  0  0  0  0
    7.4890  -12.2786   26.9010 C   0  0  2  0  0  0  0  0  0  0  0  0
    7.4006  -11.5852   25.5574 C   0  0  0  0  0  0  0  0  0  0  0  0
    8.2408  -13.5668   26.6963 C   0  0  2  0  0  0  0  0  0  0  0  0
    7.4346  -14.4145   25.8402 N   0  0  0  0  0  0  0  0  0  0  0  0
    8.5740  -14.2471   27.9484 C   0  0  0  0  0  0  0  0  0  0  0  0
    9.4454  -13.7214   28.8851 O   0  0  0  0  0  0  0  0  0  0  0  0
    8.0500  -15.3630   28.1962 O   0  0  0  0  0  0  0  0  0  0  0  0
  2  1  1  0
  2  3  2  0
  4  2  1  0
  5  4  1  0
  6  5  1  0
  6  7  1  6
  8  6  1  0
  8 14  1  0
  9  8  2  0
 11 10  1  6
 12 11  1  0
 13 14  1  6
 13 11  1  0
 15 13  1  0
 16 15  2  0
 18 20  1  0
 18 17  1  6
 19 18  1  0
 20 21  1  6
 21 15  1  0
 22 23  1  0
 22 20  1  0
 24 22  2  0
M  END
$$$$
