QTV.pdb
     RDKit          3D

 24 23  0  0  1  0  0  0  0  0999 V2000
   14.8410  -13.7446   20.1957 N   0  0  0  0  0  0  0  0  0  0  0  0
   14.7246  -14.9091   19.4032 C   0  0  0  0  0  0  0  0  0  0  0  0
   15.7631  -15.3856   18.8957 O   0  0  0  0  0  0  0  0  0  0  0  0
   13.3745  -15.4955   19.2219 C   0  0  0  0  0  0  0  0  0  0  0  0
   12.3141  -14.6941   19.9485 C   0  0  0  0  0  0  0  0  0  0  0  0
   10.9960  -15.3600   19.7142 C   0  0  2  0  0  0  0  0  0  0  0  0
   10.7276  -15.3588   18.2979 N   0  0  0  0  0  0  0  0  0  0  0  0
    9.8732  -14.7020   20.4214 C   0  0  0  0  0  0  0  0  0  0  0  0
    9.4925  -13.5393   20.0929 O   0  0  0  0  0  0  0  0  0  0  0  0
    6.4078  -15.2990   20.7018 C   0  0  0  0  0  0  0  0  0  0  0  0
    6.8784  -15.4899   22.1295 C   0  0  1  0  0  0  0  0  0  0  0  0
    7.2970  -16.8278   22.2292 O   0  0  0  0  0  0  0  0  0  0  0  0
    8.1530  -14.6497   22.2729 C   0  0  2  0  0  0  0  0  0  0  0  0
    9.1659  -15.3151   21.4885 N   0  0  0  0  0  0  0  0  0  0  0  0
    8.4741  -14.6247   23.7151 C   0  0  0  0  0  0  0  0  0  0  0  0
    9.4400  -15.3333   24.1006 O   0  0  0  0  0  0  0  0  0  0  0  0
    5.7582  -13.2183   26.6801 C   0  0  0  0  0  0  0  0  0  0  0  0
    7.2295  -12.9300   26.8046 C   0  0  2  0  0  0  0  0  0  0  0  0
    7.5879  -11.5661   26.2520 C   0  0  0  0  0  0  0  0  0  0  0  0
    8.0873  -13.9444   26.0961 C   0  0  2  0  0  0  0  0  0  0  0  0
    7.7793  -13.8685   24.6816 N   0  0  0  0  0  0  0  0  0  0  0  0
    7.9096  -15.3061   26.6019 C   0  0  0  0  0  0  0  0  0  0  0  0
    8.4890  -15.7585   27.7735 O   0  0  0  0  0  0  0  0  0  0  0  0
    7.1988  -16.1126   25.9496 O   0  0  0  0  0  0  0  0  0  0  0  0
  2  1  1  0
  2  3  2  0
  4  2  1  0
  5  4  1  0
  6  5  1  0
  6  7  1  6
  8  6  1  0
  8 14  1  0
  9  8  2  0
 11 10  1  6
 12 11  1  0
 13 14  1  6
 13 11  1  0
 15 13  1  0
 16 15  2  0
 18 20  1  0
 18 17  1  6
 19 18  1  0
 20 21  1  6
 21 15  1  0
 22 23  1  0
 22 20  1  0
 24 22  2  0
M  END
$$$$
