QTV.pdb
     RDKit          3D

 24 23  0  0  1  0  0  0  0  0999 V2000
   10.7409  -21.5076   18.8893 N   0  0  0  0  0  0  0  0  0  0  0  0
    9.3334  -21.6138   18.9630 C   0  0  0  0  0  0  0  0  0  0  0  0
    8.8071  -22.7113   18.6775 O   0  0  0  0  0  0  0  0  0  0  0  0
    8.5656  -20.4138   19.3755 C   0  0  0  0  0  0  0  0  0  0  0  0
    9.4728  -19.2255   19.6192 C   0  0  0  0  0  0  0  0  0  0  0  0
    8.9792  -18.5151   20.8389 C   0  0  2  0  0  0  0  0  0  0  0  0
    7.5439  -18.6376   20.8909 N   0  0  0  0  0  0  0  0  0  0  0  0
    9.3452  -17.0802   20.8695 C   0  0  0  0  0  0  0  0  0  0  0  0
   10.5566  -16.7220   20.9626 O   0  0  0  0  0  0  0  0  0  0  0  0
    7.8556  -12.3928   20.5173 C   0  0  0  0  0  0  0  0  0  0  0  0
    7.5091  -13.8615   20.3787 C   0  0  1  0  0  0  0  0  0  0  0  0
    7.5017  -14.1345   19.0000 O   0  0  0  0  0  0  0  0  0  0  0  0
    8.7060  -14.6357   20.9435 C   0  0  2  0  0  0  0  0  0  0  0  0
    8.3864  -16.0359   20.7983 N   0  0  0  0  0  0  0  0  0  0  0  0
    8.8372  -14.2246   22.3568 C   0  0  0  0  0  0  0  0  0  0  0  0
    9.2994  -13.0755   22.5799 O   0  0  0  0  0  0  0  0  0  0  0  0
    6.4118  -15.2065   25.3643 C   0  0  0  0  0  0  0  0  0  0  0  0
    7.5178  -14.1932   25.4808 C   0  0  2  0  0  0  0  0  0  0  0  0
    7.1354  -12.8644   24.8627 C   0  0  0  0  0  0  0  0  0  0  0  0
    8.7969  -14.6442   24.8275 C   0  0  2  0  0  0  0  0  0  0  0  0
    8.4835  -15.0234   23.4638 N   0  0  0  0  0  0  0  0  0  0  0  0
    9.4556  -15.7392   25.5407 C   0  0  0  0  0  0  0  0  0  0  0  0
   10.0129  -15.5945   26.7983 O   0  0  0  0  0  0  0  0  0  0  0  0
    9.5248  -16.8701   24.9951 O   0  0  0  0  0  0  0  0  0  0  0  0
  2  1  1  0
  2  3  2  0
  4  2  1  0
  5  4  1  0
  6  5  1  0
  6  7  1  6
  8  6  1  0
  8 14  1  0
  9  8  2  0
 11 10  1  6
 12 11  1  0
 13 14  1  1
 13 11  1  0
 15 13  1  0
 16 15  2  0
 18 20  1  0
 18 17  1  6
 19 18  1  0
 20 21  1  6
 21 15  1  0
 22 23  1  0
 22 20  1  0
 24 22  2  0
M  END
$$$$
