QTV.pdb
     RDKit          3D

 24 23  0  0  1  0  0  0  0  0999 V2000
   14.7274  -14.1142   21.1431 N   0  0  0  0  0  0  0  0  0  0  0  0
   14.6707  -15.0199   20.0595 C   0  0  0  0  0  0  0  0  0  0  0  0
   15.7473  -15.4422   19.5845 O   0  0  0  0  0  0  0  0  0  0  0  0
   13.3344  -15.4144   19.5514 C   0  0  0  0  0  0  0  0  0  0  0  0
   12.2213  -14.7053   20.2948 C   0  0  0  0  0  0  0  0  0  0  0  0
   10.9201  -15.1732   19.7258 C   0  0  2  0  0  0  0  0  0  0  0  0
   10.8713  -14.8069   18.3325 N   0  0  0  0  0  0  0  0  0  0  0  0
    9.7400  -14.6057   20.4183 C   0  0  0  0  0  0  0  0  0  0  0  0
    9.2794  -13.4720   20.0910 O   0  0  0  0  0  0  0  0  0  0  0  0
    6.2957  -15.4509   20.7859 C   0  0  0  0  0  0  0  0  0  0  0  0
    6.8173  -15.5849   22.2022 C   0  0  1  0  0  0  0  0  0  0  0  0
    7.3161  -16.8941   22.3144 O   0  0  0  0  0  0  0  0  0  0  0  0
    8.0443  -14.6698   22.2918 C   0  0  2  0  0  0  0  0  0  0  0  0
    9.0629  -15.2779   21.4692 N   0  0  0  0  0  0  0  0  0  0  0  0
    8.4206  -14.6180   23.7199 C   0  0  0  0  0  0  0  0  0  0  0  0
    9.4707  -15.2230   24.0591 O   0  0  0  0  0  0  0  0  0  0  0  0
    5.7621  -13.3972   26.8052 C   0  0  0  0  0  0  0  0  0  0  0  0
    7.2048  -12.9721   26.8444 C   0  0  2  0  0  0  0  0  0  0  0  0
    7.4050  -11.5932   26.2506 C   0  0  0  0  0  0  0  0  0  0  0  0
    8.1146  -13.9182   26.1070 C   0  0  2  0  0  0  0  0  0  0  0  0
    7.6913  -13.9436   24.7208 N   0  0  0  0  0  0  0  0  0  0  0  0
    8.1323  -15.2658   26.6773 C   0  0  0  0  0  0  0  0  0  0  0  0
    8.8316  -15.5911   27.8255 O   0  0  0  0  0  0  0  0  0  0  0  0
    7.4851  -16.1801   26.1059 O   0  0  0  0  0  0  0  0  0  0  0  0
  2  1  1  0
  2  3  2  0
  4  2  1  0
  5  4  1  0
  6  5  1  0
  6  7  1  6
  8  6  1  0
  8 14  1  0
  9  8  2  0
 11 10  1  6
 12 11  1  0
 13 14  1  6
 13 11  1  0
 15 13  1  0
 16 15  2  0
 18 20  1  0
 18 17  1  6
 19 18  1  0
 20 21  1  6
 21 15  1  0
 22 23  1  0
 22 20  1  0
 24 22  2  0
M  END
$$$$
