QTV.pdb
     RDKit          3D

 24 23  0  0  1  0  0  0  0  0999 V2000
   13.2124  -19.4191   24.1162 N   0  0  0  0  0  0  0  0  0  0  0  0
   14.0260  -18.4716   23.4543 C   0  0  0  0  0  0  0  0  0  0  0  0
   15.1946  -18.3048   23.8659 O   0  0  0  0  0  0  0  0  0  0  0  0
   13.4418  -17.7317   22.3093 C   0  0  0  0  0  0  0  0  0  0  0  0
   12.0309  -18.1925   22.0065 C   0  0  0  0  0  0  0  0  0  0  0  0
   11.5035  -17.3493   20.8900 C   0  0  2  0  0  0  0  0  0  0  0  0
   12.6117  -16.6722   20.2645 N   0  0  0  0  0  0  0  0  0  0  0  0
   10.5092  -16.3450   21.3335 C   0  0  0  0  0  0  0  0  0  0  0  0
   10.8432  -15.1358   21.5094 O   0  0  0  0  0  0  0  0  0  0  0  0
    5.7521  -15.2619   21.8744 C   0  0  0  0  0  0  0  0  0  0  0  0
    6.7899  -16.3526   21.7029 C   0  0  1  0  0  0  0  0  0  0  0  0
    6.7856  -16.6871   20.3378 O   0  0  0  0  0  0  0  0  0  0  0  0
    8.1489  -15.6904   21.9585 C   0  0  2  0  0  0  0  0  0  0  0  0
    9.1488  -16.6624   21.5851 N   0  0  0  0  0  0  0  0  0  0  0  0
    8.1856  -15.3593   23.3982 C   0  0  0  0  0  0  0  0  0  0  0  0
    8.8697  -16.1088   24.1424 O   0  0  0  0  0  0  0  0  0  0  0  0
    6.8110  -11.6544   24.8339 C   0  0  0  0  0  0  0  0  0  0  0  0
    6.6489  -12.8644   25.7133 C   0  0  2  0  0  0  0  0  0  0  0  0
    6.7985  -12.5216   27.1810 C   0  0  0  0  0  0  0  0  0  0  0  0
    7.6401  -13.9533   25.4001 C   0  0  2  0  0  0  0  0  0  0  0  0
    7.5130  -14.2710   23.9914 N   0  0  0  0  0  0  0  0  0  0  0  0
    7.4673  -15.1480   26.2274 C   0  0  0  0  0  0  0  0  0  0  0  0
    8.2467  -15.4172   27.3378 O   0  0  0  0  0  0  0  0  0  0  0  0
    6.5713  -15.9768   25.9249 O   0  0  0  0  0  0  0  0  0  0  0  0
  2  1  1  0
  2  3  2  0
  4  2  1  0
  5  4  1  0
  6  5  1  0
  6  7  1  1
  8  6  1  0
  8 14  1  0
  9  8  2  0
 11 10  1  6
 12 11  1  0
 13 14  1  1
 13 11  1  0
 15 13  1  0
 16 15  2  0
 18 20  1  0
 18 17  1  6
 19 18  1  0
 20 21  1  6
 21 15  1  0
 22 23  1  0
 22 20  1  0
 24 22  2  0
M  END
$$$$
