QTV.pdb
     RDKit          3D

 24 23  0  0  1  0  0  0  0  0999 V2000
   16.3143  -16.0665   21.7620 N   0  0  0  0  0  0  0  0  0  0  0  0
   15.9602  -16.5777   20.4928 C   0  0  0  0  0  0  0  0  0  0  0  0
   16.8305  -16.5884   19.5954 O   0  0  0  0  0  0  0  0  0  0  0  0
   14.5745  -17.0713   20.3033 C   0  0  0  0  0  0  0  0  0  0  0  0
   13.7623  -16.9619   21.5772 C   0  0  0  0  0  0  0  0  0  0  0  0
   12.3429  -17.2953   21.2455 C   0  0  2  0  0  0  0  0  0  0  0  0
   12.0790  -16.8782   19.8912 N   0  0  0  0  0  0  0  0  0  0  0  0
   11.3630  -16.6521   22.1510 C   0  0  0  0  0  0  0  0  0  0  0  0
   10.8099  -15.5572   21.8352 O   0  0  0  0  0  0  0  0  0  0  0  0
    8.1951  -17.6873   23.1046 C   0  0  0  0  0  0  0  0  0  0  0  0
    8.8890  -17.6234   24.4502 C   0  0  1  0  0  0  0  0  0  0  0  0
    9.5206  -18.8667   24.6254 O   0  0  0  0  0  0  0  0  0  0  0  0
   10.0246  -16.6050   24.2949 C   0  0  2  0  0  0  0  0  0  0  0  0
   10.9873  -17.2060   23.4028 N   0  0  0  0  0  0  0  0  0  0  0  0
   10.5676  -16.3784   25.6505 C   0  0  0  0  0  0  0  0  0  0  0  0
   11.6697  -16.9203   25.9254 O   0  0  0  0  0  0  0  0  0  0  0  0
    8.4189  -14.2771   28.7214 C   0  0  0  0  0  0  0  0  0  0  0  0
    9.9118  -14.1789   28.5621 C   0  0  2  0  0  0  0  0  0  0  0  0
   10.3118  -13.0104   27.6854 C   0  0  0  0  0  0  0  0  0  0  0  0
   10.5202  -15.4203   27.9660 C   0  0  2  0  0  0  0  0  0  0  0  0
    9.9423  -15.6037   26.6492 N   0  0  0  0  0  0  0  0  0  0  0  0
   10.3321  -16.6117   28.7947 C   0  0  0  0  0  0  0  0  0  0  0  0
    9.5758  -17.6984   28.3946 O   0  0  0  0  0  0  0  0  0  0  0  0
   10.8786  -16.6620   29.9261 O   0  0  0  0  0  0  0  0  0  0  0  0
  2  1  1  0
  2  3  2  0
  4  2  1  0
  5  4  1  0
  6  5  1  0
  6  7  1  6
  8  6  1  0
  8 14  1  0
  9  8  2  0
 11 10  1  6
 12 11  1  0
 13 14  1  6
 13 11  1  0
 15 13  1  0
 16 15  2  0
 18 20  1  0
 18 17  1  6
 19 18  1  0
 20 21  1  6
 21 15  1  0
 22 23  1  0
 22 20  1  0
 24 22  2  0
M  END
$$$$
