QTV.pdb
     RDKit          3D

 24 23  0  0  1  0  0  0  0  0999 V2000
   12.0007  -13.5654   20.5244 N   0  0  0  0  0  0  0  0  0  0  0  0
   11.7994  -13.9721   19.1858 C   0  0  0  0  0  0  0  0  0  0  0  0
   12.5839  -14.8151   18.6993 O   0  0  0  0  0  0  0  0  0  0  0  0
   10.6670  -13.3723   18.4390 C   0  0  0  0  0  0  0  0  0  0  0  0
    9.3804  -13.4245   19.2367 C   0  0  0  0  0  0  0  0  0  0  0  0
    8.9885  -14.8604   19.3802 C   0  0  2  0  0  0  0  0  0  0  0  0
    8.3083  -15.2719   18.1778 N   0  0  0  0  0  0  0  0  0  0  0  0
    8.1103  -15.1143   20.5456 C   0  0  0  0  0  0  0  0  0  0  0  0
    6.8519  -15.0101   20.4440 O   0  0  0  0  0  0  0  0  0  0  0  0
    7.0374  -17.8006   22.1314 C   0  0  0  0  0  0  0  0  0  0  0  0
    7.7566  -17.1500   23.2958 C   0  0  1  0  0  0  0  0  0  0  0  0
    9.0951  -17.5707   23.2147 O   0  0  0  0  0  0  0  0  0  0  0  0
    7.7802  -15.6468   22.9945 C   0  0  2  0  0  0  0  0  0  0  0  0
    8.6076  -15.4824   21.8231 N   0  0  0  0  0  0  0  0  0  0  0  0
    8.3496  -14.9923   24.1908 C   0  0  0  0  0  0  0  0  0  0  0  0
    9.6034  -14.9828   24.2981 O   0  0  0  0  0  0  0  0  0  0  0  0
    5.9715  -12.8424   27.0127 C   0  0  0  0  0  0  0  0  0  0  0  0
    7.4276  -12.5681   26.7520 C   0  0  2  0  0  0  0  0  0  0  0  0
    7.6236  -11.5707   25.6292 C   0  0  0  0  0  0  0  0  0  0  0  0
    8.2026  -13.8085   26.3952 C   0  0  2  0  0  0  0  0  0  0  0  0
    7.5922  -14.3826   25.2122 N   0  0  0  0  0  0  0  0  0  0  0  0
    8.2639  -14.7851   27.4833 C   0  0  0  0  0  0  0  0  0  0  0  0
    8.9762  -14.5728   28.6497 O   0  0  0  0  0  0  0  0  0  0  0  0
    7.6439  -15.8727   27.3644 O   0  0  0  0  0  0  0  0  0  0  0  0
  2  1  1  0
  2  3  2  0
  4  2  1  0
  5  4  1  0
  6  5  1  0
  6  7  1  6
  8  6  1  0
  8 14  1  0
  9  8  2  0
 11 10  1  6
 12 11  1  0
 13 14  1  6
 13 11  1  0
 15 13  1  0
 16 15  2  0
 18 20  1  0
 18 17  1  6
 19 18  1  0
 20 21  1  6
 21 15  1  0
 22 23  1  0
 22 20  1  0
 24 22  2  0
M  END
$$$$
