QTV.pdb
     RDKit          3D

 24 23  0  0  1  0  0  0  0  0999 V2000
   12.3612  -14.6735   20.8171 N   0  0  0  0  0  0  0  0  0  0  0  0
   12.6465  -14.2884   19.4874 C   0  0  0  0  0  0  0  0  0  0  0  0
   13.7639  -14.5858   19.0121 O   0  0  0  0  0  0  0  0  0  0  0  0
   11.6001  -13.5534   18.7360 C   0  0  0  0  0  0  0  0  0  0  0  0
   10.3274  -13.4094   19.5447 C   0  0  0  0  0  0  0  0  0  0  0  0
    9.5454  -14.6753   19.3972 C   0  0  2  0  0  0  0  0  0  0  0  0
    8.8522  -14.6409   18.1338 N   0  0  0  0  0  0  0  0  0  0  0  0
    8.5621  -14.8866   20.4846 C   0  0  0  0  0  0  0  0  0  0  0  0
    7.3781  -14.4484   20.3821 O   0  0  0  0  0  0  0  0  0  0  0  0
    7.2444  -17.8637   21.9194 C   0  0  0  0  0  0  0  0  0  0  0  0
    7.8936  -17.2064   23.1206 C   0  0  1  0  0  0  0  0  0  0  0  0
    9.2268  -17.6506   23.1381 O   0  0  0  0  0  0  0  0  0  0  0  0
    7.9646  -15.7089   22.7990 C   0  0  2  0  0  0  0  0  0  0  0  0
    8.8732  -15.5774   21.6849 N   0  0  0  0  0  0  0  0  0  0  0  0
    8.4621  -15.0446   24.0217 C   0  0  0  0  0  0  0  0  0  0  0  0
    9.7069  -14.8915   24.1258 O   0  0  0  0  0  0  0  0  0  0  0  0
    5.8662  -13.4745   27.0451 C   0  0  0  0  0  0  0  0  0  0  0  0
    7.2592  -12.9663   26.7904 C   0  0  2  0  0  0  0  0  0  0  0  0
    7.2761  -11.8495   25.7674 C   0  0  0  0  0  0  0  0  0  0  0  0
    8.1945  -14.0404   26.3024 C   0  0  2  0  0  0  0  0  0  0  0  0
    7.6462  -14.5741   25.0712 N   0  0  0  0  0  0  0  0  0  0  0  0
    8.4175  -15.1027   27.2840 C   0  0  0  0  0  0  0  0  0  0  0  0
    9.1235  -14.9106   28.4578 O   0  0  0  0  0  0  0  0  0  0  0  0
    7.9502  -16.2487   27.0615 O   0  0  0  0  0  0  0  0  0  0  0  0
  2  1  1  0
  2  3  2  0
  4  2  1  0
  5  4  1  0
  6  5  1  0
  6  7  1  6
  8  6  1  0
  8 14  1  0
  9  8  2  0
 11 10  1  6
 12 11  1  0
 13 14  1  6
 13 11  1  0
 15 13  1  0
 16 15  2  0
 18 20  1  0
 18 17  1  6
 19 18  1  0
 20 21  1  6
 21 15  1  0
 22 23  1  0
 22 20  1  0
 24 22  2  0
M  END
$$$$
