QTV.pdb
     RDKit          3D

 24 23  0  0  1  0  0  0  0  0999 V2000
    7.5907  -13.6460   15.1016 N   0  0  0  0  0  0  0  0  0  0  0  0
    8.4677  -13.9657   16.1630 C   0  0  0  0  0  0  0  0  0  0  0  0
    9.1794  -14.9878   16.0549 O   0  0  0  0  0  0  0  0  0  0  0  0
    8.4896  -13.0667   17.3424 C   0  0  0  0  0  0  0  0  0  0  0  0
    7.6748  -13.6283   18.4892 C   0  0  0  0  0  0  0  0  0  0  0  0
    8.6260  -14.0533   19.5618 C   0  0  2  0  0  0  0  0  0  0  0  0
    9.1772  -15.3360   19.2032 N   0  0  0  0  0  0  0  0  0  0  0  0
    7.9955  -14.1526   20.8984 C   0  0  0  0  0  0  0  0  0  0  0  0
    7.4515  -13.1424   21.4353 O   0  0  0  0  0  0  0  0  0  0  0  0
    8.5294  -17.4853   23.4846 C   0  0  0  0  0  0  0  0  0  0  0  0
    7.1290  -17.0284   23.1290 C   0  0  1  0  0  0  0  0  0  0  0  0
    6.3616  -17.1694   24.2979 O   0  0  0  0  0  0  0  0  0  0  0  0
    7.2247  -15.5184   22.8809 C   0  0  2  0  0  0  0  0  0  0  0  0
    7.9594  -15.3569   21.6488 N   0  0  0  0  0  0  0  0  0  0  0  0
    7.9340  -14.9501   24.0461 C   0  0  0  0  0  0  0  0  0  0  0  0
    9.1919  -14.9802   24.0231 O   0  0  0  0  0  0  0  0  0  0  0  0
    5.9300  -13.2939   27.5017 C   0  0  0  0  0  0  0  0  0  0  0  0
    7.1528  -12.6995   26.8577 C   0  0  2  0  0  0  0  0  0  0  0  0
    6.7946  -11.7009   25.7767 C   0  0  0  0  0  0  0  0  0  0  0  0
    8.0501  -13.7362   26.2359 C   0  0  2  0  0  0  0  0  0  0  0  0
    7.3049  -14.3811   25.1727 N   0  0  0  0  0  0  0  0  0  0  0  0
    8.5525  -14.7180   27.1978 C   0  0  0  0  0  0  0  0  0  0  0  0
    9.4305  -14.3963   28.2169 O   0  0  0  0  0  0  0  0  0  0  0  0
    8.1756  -15.9141   27.1040 O   0  0  0  0  0  0  0  0  0  0  0  0
  2  1  1  0
  2  3  2  0
  4  2  1  0
  5  4  1  0
  6  5  1  0
  6  7  1  6
  8  6  1  0
  8 14  1  0
  9  8  2  0
 11 10  1  1
 12 11  1  0
 13 14  1  6
 13 11  1  0
 15 13  1  0
 16 15  2  0
 18 20  1  0
 18 17  1  6
 19 18  1  0
 20 21  1  6
 21 15  1  0
 22 23  1  0
 22 20  1  0
 24 22  2  0
M  END
$$$$
