CSG.pdb
     RDKit          3D

 17 16  0  0  1  0  0  0  0  0999 V2000
   27.9193  -19.1166  -16.2715 N   0  0  0  0  0  0  0  0  0  0  0  0
   27.2365  -18.7420  -15.0739 C   0  0  1  0  0  0  0  0  0  0  0  0
   26.3394  -17.5541  -15.3457 C   0  0  0  0  0  0  0  0  0  0  0  0
   27.0360  -16.0275  -14.6586 S   0  0  0  0  0  0  0  0  0  0  0  0
   26.4687  -19.8732  -14.4770 C   0  0  0  0  0  0  0  0  0  0  0  0
   25.7918  -20.6484  -15.1993 O   0  0  0  0  0  0  0  0  0  0  0  0
   26.0306  -20.3006  -10.2713 O   0  0  0  0  0  0  0  0  0  0  0  0
   26.0284  -21.4537  -11.0453 C   0  0  0  0  0  0  0  0  0  0  0  0
   25.5720  -21.0692  -12.4561 C   0  0  2  0  0  0  0  0  0  0  0  0
   26.4568  -20.1379  -13.0774 N   0  0  0  0  0  0  0  0  0  0  0  0
   24.1597  -20.5926  -12.4277 C   0  0  0  0  0  0  0  0  0  0  0  0
   23.8843  -19.4207  -12.0616 O   0  0  0  0  0  0  0  0  0  0  0  0
   23.0613  -21.4140  -12.8039 N   0  0  0  0  0  0  0  0  0  0  0  0
   21.6973  -20.9211  -12.7688 C   0  0  0  0  0  0  0  0  0  0  0  0
   20.7207  -21.8846  -13.2630 C   0  0  0  0  0  0  0  0  0  0  0  0
   19.5013  -21.5874  -13.1767 O   0  0  0  0  0  0  0  0  0  0  0  0
   21.0273  -23.1107  -13.8245 O   0  0  0  0  0  0  0  0  0  0  0  0
  2  1  1  6
  2  3  1  0
  4  3  1  0
  5  2  1  0
  6  5  2  0
  8  7  1  0
  9  8  1  1
  9 10  1  0
 10  5  1  0
 11  9  1  0
 11 13  1  0
 12 11  2  0
 14 13  1  0
 14 15  1  0
 15 17  1  0
 16 15  2  0
M  END
$$$$
