CSG.pdb
     RDKit          3D

 17 16  0  0  1  0  0  0  0  0999 V2000
   17.9745  -11.5112  -14.7747 N   0  0  0  0  0  0  0  0  0  0  0  0
   18.1778  -10.4226  -15.6771 C   0  0  1  0  0  0  0  0  0  0  0  0
   16.8702  -10.0622  -16.3482 C   0  0  0  0  0  0  0  0  0  0  0  0
   17.0765   -8.6758  -17.4985 S   0  0  0  0  0  0  0  0  0  0  0  0
   18.7883   -9.2355  -15.0112 C   0  0  0  0  0  0  0  0  0  0  0  0
   18.2151   -8.6687  -14.0463 O   0  0  0  0  0  0  0  0  0  0  0  0
   22.6815   -7.8627  -15.8980 O   0  0  0  0  0  0  0  0  0  0  0  0
   22.0998   -7.5806  -14.6688 C   0  0  0  0  0  0  0  0  0  0  0  0
   20.5856   -7.4832  -14.8791 C   0  0  2  0  0  0  0  0  0  0  0  0
   20.0353   -8.6828  -15.4217 N   0  0  0  0  0  0  0  0  0  0  0  0
   20.2558   -6.2778  -15.6918 C   0  0  0  0  0  0  0  0  0  0  0  0
   20.0807   -6.3689  -16.9345 O   0  0  0  0  0  0  0  0  0  0  0  0
   20.1217   -4.9798  -15.1261 N   0  0  0  0  0  0  0  0  0  0  0  0
   19.9901   -3.7986  -15.9580 C   0  0  0  0  0  0  0  0  0  0  0  0
   19.9234   -2.5578  -15.1951 C   0  0  0  0  0  0  0  0  0  0  0  0
   19.8225   -2.6380  -13.9437 O   0  0  0  0  0  0  0  0  0  0  0  0
   19.9623   -1.2869  -15.7391 O   0  0  0  0  0  0  0  0  0  0  0  0
  2  1  1  1
  2  3  1  0
  4  3  1  0
  5  2  1  0
  6  5  2  0
  8  7  1  0
  9  8  1  6
  9 10  1  0
 10  5  1  0
 11  9  1  0
 11 13  1  0
 12 11  2  0
 14 13  1  0
 14 15  1  0
 15 17  1  0
 16 15  2  0
M  END
$$$$
