CSG.pdb
     RDKit          3D

 17 16  0  0  1  0  0  0  0  0999 V2000
   22.8725  -12.9464  -17.3389 N   0  0  0  0  0  0  0  0  0  0  0  0
   23.4090  -11.9046  -16.5217 C   0  0  1  0  0  0  0  0  0  0  0  0
   24.8396  -11.6219  -16.9256 C   0  0  0  0  0  0  0  0  0  0  0  0
   25.9114  -13.0499  -16.6097 S   0  0  0  0  0  0  0  0  0  0  0  0
   22.5813  -10.6642  -16.5616 C   0  0  0  0  0  0  0  0  0  0  0  0
   22.0914  -10.2475  -17.6420 O   0  0  0  0  0  0  0  0  0  0  0  0
   19.9718   -9.6335  -13.8341 O   0  0  0  0  0  0  0  0  0  0  0  0
   20.0171   -9.0374  -15.0876 C   0  0  0  0  0  0  0  0  0  0  0  0
   21.4826   -8.7226  -15.4033 C   0  0  2  0  0  0  0  0  0  0  0  0
   22.3015   -9.8912  -15.3982 N   0  0  0  0  0  0  0  0  0  0  0  0
   21.9887   -7.6593  -14.4891 C   0  0  0  0  0  0  0  0  0  0  0  0
   22.8124   -7.9336  -13.5783 O   0  0  0  0  0  0  0  0  0  0  0  0
   21.5813   -6.3003  -14.5874 N   0  0  0  0  0  0  0  0  0  0  0  0
   22.0957   -5.2862  -13.6865 C   0  0  0  0  0  0  0  0  0  0  0  0
   21.6243   -3.9420  -13.9983 C   0  0  0  0  0  0  0  0  0  0  0  0
   20.9977   -3.7704  -15.0756 O   0  0  0  0  0  0  0  0  0  0  0  0
   21.8111   -2.8286  -13.1994 O   0  0  0  0  0  0  0  0  0  0  0  0
  2  1  1  6
  2  3  1  0
  4  3  1  0
  5  2  1  0
  6  5  2  0
  8  7  1  0
  9  8  1  1
  9 10  1  0
 10  5  1  0
 11  9  1  0
 11 13  1  0
 12 11  2  0
 14 13  1  0
 14 15  1  0
 15 17  1  0
 16 15  2  0
M  END
$$$$
