CSG.pdb
     RDKit          3D

 17 16  0  0  1  0  0  0  0  0999 V2000
   18.7551  -11.7613  -16.0717 N   0  0  0  0  0  0  0  0  0  0  0  0
   19.8814  -10.9389  -15.7616 C   0  0  1  0  0  0  0  0  0  0  0  0
   20.7982  -10.8515  -16.9623 C   0  0  0  0  0  0  0  0  0  0  0  0
   21.7086  -12.3992  -17.2142 S   0  0  0  0  0  0  0  0  0  0  0  0
   19.4837   -9.5821  -15.2858 C   0  0  0  0  0  0  0  0  0  0  0  0
   18.7582   -8.8358  -15.9911 O   0  0  0  0  0  0  0  0  0  0  0  0
   19.5864   -8.5656  -11.3200 O   0  0  0  0  0  0  0  0  0  0  0  0
   18.7876   -7.8449  -12.1983 C   0  0  0  0  0  0  0  0  0  0  0  0
   19.5184   -7.7715  -13.5426 C   0  0  2  0  0  0  0  0  0  0  0  0
   19.8952   -9.0601  -14.0259 N   0  0  0  0  0  0  0  0  0  0  0  0
   20.6706   -6.8299  -13.4508 C   0  0  0  0  0  0  0  0  0  0  0  0
   21.8208   -7.2486  -13.1592 O   0  0  0  0  0  0  0  0  0  0  0  0
   20.5442   -5.4323  -13.6819 N   0  0  0  0  0  0  0  0  0  0  0  0
   21.7021   -4.5587  -13.7059 C   0  0  0  0  0  0  0  0  0  0  0  0
   21.3584   -3.1441  -13.7889 C   0  0  0  0  0  0  0  0  0  0  0  0
   20.1527   -2.8389  -13.9786 O   0  0  0  0  0  0  0  0  0  0  0  0
   22.2574   -2.0994  -13.6752 O   0  0  0  0  0  0  0  0  0  0  0  0
  2  1  1  6
  2  3  1  0
  4  3  1  0
  5  2  1  0
  6  5  2  0
  8  7  1  0
  9  8  1  1
  9 10  1  0
 10  5  1  0
 11  9  1  0
 11 13  1  0
 12 11  2  0
 14 13  1  0
 14 15  1  0
 15 17  1  0
 16 15  2  0
M  END
$$$$
