CSG.pdb
     RDKit          3D

 17 16  0  0  1  0  0  0  0  0999 V2000
   20.8554  -19.6774   -9.2036 N   0  0  0  0  0  0  0  0  0  0  0  0
   21.6589  -20.7346   -9.7306 C   0  0  1  0  0  0  0  0  0  0  0  0
   20.7701  -21.8427  -10.2521 C   0  0  0  0  0  0  0  0  0  0  0  0
   19.9855  -22.7556   -8.8961 S   0  0  0  0  0  0  0  0  0  0  0  0
   22.6061  -20.2620  -10.7818 C   0  0  0  0  0  0  0  0  0  0  0  0
   22.3414  -19.2544  -11.4857 O   0  0  0  0  0  0  0  0  0  0  0  0
   26.1954  -22.3243  -11.6723 O   0  0  0  0  0  0  0  0  0  0  0  0
   26.2008  -20.9376  -11.7495 C   0  0  0  0  0  0  0  0  0  0  0  0
   24.7690  -20.4798  -12.0438 C   0  0  2  0  0  0  0  0  0  0  0  0
   23.8453  -20.9128  -11.0461 N   0  0  0  0  0  0  0  0  0  0  0  0
   24.3691  -20.8938  -13.4191 C   0  0  0  0  0  0  0  0  0  0  0  0
   23.7826  -21.9896  -13.6151 O   0  0  0  0  0  0  0  0  0  0  0  0
   24.6200  -20.0944  -14.5682 N   0  0  0  0  0  0  0  0  0  0  0  0
   24.2527  -20.5407  -15.8988 C   0  0  0  0  0  0  0  0  0  0  0  0
   23.0881  -19.8501  -16.4402 C   0  0  0  0  0  0  0  0  0  0  0  0
   22.1821  -19.5025  -15.6396 O   0  0  0  0  0  0  0  0  0  0  0  0
   22.8953  -19.5424  -17.7746 O   0  0  0  0  0  0  0  0  0  0  0  0
  2  1  1  6
  2  3  1  0
  4  3  1  0
  5  2  1  0
  6  5  2  0
  8  7  1  0
  9  8  1  1
  9 10  1  0
 10  5  1  0
 11  9  1  0
 11 13  1  0
 12 11  2  0
 14 13  1  0
 14 15  1  0
 15 17  1  0
 16 15  2  0
M  END
$$$$
