FMV.pdb
     RDKit          3D

 27 27  0  0  1  0  0  0  0  0999 V2000
    5.5649  -18.5818   25.2675 N   0  0  0  0  0  0  0  0  0  0  0  0
    5.8188  -17.1731   25.1272 C   0  0  1  0  0  0  0  0  0  0  0  0
    5.8935  -16.5714   26.5141 C   0  0  0  0  0  0  0  0  0  0  0  0
    5.9323  -15.0999   26.4807 C   0  0  0  0  0  0  0  0  0  0  0  0
    7.0641  -14.4516   26.8848 C   0  0  0  0  0  0  0  0  0  0  0  0
    7.0832  -13.0584   26.8472 C   0  0  0  0  0  0  0  0  0  0  0  0
    6.0088  -12.3093   26.4198 C   0  0  0  0  0  0  0  0  0  0  0  0
    4.8841  -13.0080   26.0199 C   0  0  0  0  0  0  0  0  0  0  0  0
    4.8447  -14.3962   26.0496 C   0  0  0  0  0  0  0  0  0  0  0  0
    7.1328  -16.9263   24.4723 C   0  0  0  0  0  0  0  0  0  0  0  0
    8.0882  -17.7358   24.7313 O   0  0  0  0  0  0  0  0  0  0  0  0
    8.6399  -11.6439   20.5436 C   0  0  0  0  0  0  0  0  0  0  0  0
    9.1813  -13.1330   19.6401 S   0  0  0  0  0  0  0  0  0  0  0  0
    9.5583  -14.4109   20.9006 C   0  0  0  0  0  0  0  0  0  0  0  0
    8.3790  -14.5944   21.8085 C   0  0  0  0  0  0  0  0  0  0  0  0
    8.5613  -15.6157   22.8941 C   0  0  2  0  0  0  0  0  0  0  0  0
    7.3031  -15.8343   23.5995 N   0  0  0  0  0  0  0  0  0  0  0  0
    9.6243  -15.2016   23.8135 C   0  0  0  0  0  0  0  0  0  0  0  0
    9.8826  -13.9825   23.9496 O   0  0  0  0  0  0  0  0  0  0  0  0
   11.1636  -14.8907   27.9946 C   0  0  0  0  0  0  0  0  0  0  0  0
   10.3028  -15.2106   26.7985 C   0  0  1  0  0  0  0  0  0  0  0  0
    9.6923  -13.8972   26.3153 C   0  0  0  0  0  0  0  0  0  0  0  0
   11.1626  -15.7336   25.6607 C   0  0  2  0  0  0  0  0  0  0  0  0
   10.3658  -16.1903   24.5547 N   0  0  0  0  0  0  0  0  0  0  0  0
   12.0061  -16.8764   26.1130 C   0  0  0  0  0  0  0  0  0  0  0  0
   11.7608  -18.1357   25.6023 O   0  0  0  0  0  0  0  0  0  0  0  0
   12.9374  -16.7275   26.9485 O   0  0  0  0  0  0  0  0  0  0  0  0
  2  1  1  1
  2  3  1  0
  4  3  1  0
  5  4  2  0
  6  5  1  0
  7  6  2  0
  7  8  1  0
  8  9  2  0
  9  4  1  0
 10 17  1  0
 10  2  1  0
 11 10  2  0
 13 12  1  0
 14 13  1  0
 15 14  1  0
 16 15  1  6
 16 17  1  0
 18 19  2  0
 18 16  1  0
 21 20  1  1
 21 22  1  0
 23 21  1  0
 23 24  1  6
 24 18  1  0
 25 23  1  0
 26 25  1  0
 27 25  2  0
M  END
$$$$
