FMV.pdb
     RDKit          3D

 27 27  0  0  1  0  0  0  0  0999 V2000
    6.8621  -18.0784   25.7228 N   0  0  0  0  0  0  0  0  0  0  0  0
    7.0062  -16.7614   25.1628 C   0  0  1  0  0  0  0  0  0  0  0  0
    8.1126  -16.0527   25.9144 C   0  0  0  0  0  0  0  0  0  0  0  0
    7.8129  -14.6276   26.1318 C   0  0  0  0  0  0  0  0  0  0  0  0
    8.7715  -13.8173   26.6693 C   0  0  0  0  0  0  0  0  0  0  0  0
    8.4705  -12.4711   26.8689 C   0  0  0  0  0  0  0  0  0  0  0  0
    7.2474  -11.9248   26.5466 C   0  0  0  0  0  0  0  0  0  0  0  0
    6.3073  -12.7826   26.0049 C   0  0  0  0  0  0  0  0  0  0  0  0
    6.5873  -14.1273   25.7979 C   0  0  0  0  0  0  0  0  0  0  0  0
    7.4203  -16.8270   23.7344 C   0  0  0  0  0  0  0  0  0  0  0  0
    7.7587  -17.9671   23.2645 O   0  0  0  0  0  0  0  0  0  0  0  0
    7.2676  -11.5580   20.2584 C   0  0  0  0  0  0  0  0  0  0  0  0
    7.4412  -12.6247   18.7891 S   0  0  0  0  0  0  0  0  0  0  0  0
    7.7402  -14.3275   19.4016 C   0  0  0  0  0  0  0  0  0  0  0  0
    7.5995  -14.3640   20.8941 C   0  0  0  0  0  0  0  0  0  0  0  0
    7.7547  -15.7212   21.5174 C   0  0  2  0  0  0  0  0  0  0  0  0
    7.4342  -15.6645   22.9396 N   0  0  0  0  0  0  0  0  0  0  0  0
    9.1086  -16.2352   21.2951 C   0  0  0  0  0  0  0  0  0  0  0  0
    9.4446  -16.6138   20.1483 O   0  0  0  0  0  0  0  0  0  0  0  0
   13.3310  -14.9901   21.1038 C   0  0  0  0  0  0  0  0  0  0  0  0
   11.8406  -15.0159   21.3318 C   0  0  1  0  0  0  0  0  0  0  0  0
   11.1735  -15.0810   19.9599 C   0  0  0  0  0  0  0  0  0  0  0  0
   11.4462  -16.2856   22.0664 C   0  0  2  0  0  0  0  0  0  0  0  0
   10.0452  -16.3037   22.3882 N   0  0  0  0  0  0  0  0  0  0  0  0
   12.2053  -16.4198   23.3422 C   0  0  0  0  0  0  0  0  0  0  0  0
   13.5808  -16.5325   23.2967 O   0  0  0  0  0  0  0  0  0  0  0  0
   11.6287  -16.4335   24.4624 O   0  0  0  0  0  0  0  0  0  0  0  0
  2  1  1  1
  2  3  1  0
  4  3  1  0
  5  4  2  0
  6  5  1  0
  7  6  2  0
  7  8  1  0
  8  9  2  0
  9  4  1  0
 10 17  1  0
 10  2  1  0
 11 10  2  0
 13 12  1  0
 14 13  1  0
 15 14  1  0
 16 15  1  1
 16 17  1  0
 18 19  2  0
 18 16  1  0
 21 20  1  6
 21 22  1  0
 23 21  1  0
 23 24  1  1
 24 18  1  0
 25 23  1  0
 26 25  1  0
 27 25  2  0
M  END
$$$$
