FMV.pdb
     RDKit          3D

 27 27  0  0  1  0  0  0  0  0999 V2000
    5.4873  -17.9204   25.3134 N   0  0  0  0  0  0  0  0  0  0  0  0
    6.0950  -16.6233   25.1825 C   0  0  1  0  0  0  0  0  0  0  0  0
    6.7001  -16.2538   26.5198 C   0  0  0  0  0  0  0  0  0  0  0  0
    7.1246  -14.8447   26.5678 C   0  0  0  0  0  0  0  0  0  0  0  0
    6.1775  -13.8614   26.5903 C   0  0  0  0  0  0  0  0  0  0  0  0
    6.5972  -12.5331   26.6351 C   0  0  0  0  0  0  0  0  0  0  0  0
    7.9264  -12.1715   26.6575 C   0  0  0  0  0  0  0  0  0  0  0  0
    8.8506  -13.2003   26.6334 C   0  0  0  0  0  0  0  0  0  0  0  0
    8.4531  -14.5306   26.5888 C   0  0  0  0  0  0  0  0  0  0  0  0
    7.2058  -16.6477   24.1917 C   0  0  0  0  0  0  0  0  0  0  0  0
    7.9233  -17.7042   24.1278 O   0  0  0  0  0  0  0  0  0  0  0  0
    8.7349  -11.8977   19.9804 C   0  0  0  0  0  0  0  0  0  0  0  0
    7.1860  -12.7914   19.6213 S   0  0  0  0  0  0  0  0  0  0  0  0
    7.1813  -14.2909   20.6774 C   0  0  0  0  0  0  0  0  0  0  0  0
    8.4403  -14.3455   21.4902 C   0  0  0  0  0  0  0  0  0  0  0  0
    8.5553  -15.5257   22.4115 C   0  0  2  0  0  0  0  0  0  0  0  0
    7.4466  -15.5373   23.3596 N   0  0  0  0  0  0  0  0  0  0  0  0
    9.8480  -15.5129   23.1012 C   0  0  0  0  0  0  0  0  0  0  0  0
   10.0573  -14.6695   24.0047 O   0  0  0  0  0  0  0  0  0  0  0  0
   11.0899  -17.5800   25.4313 C   0  0  0  0  0  0  0  0  0  0  0  0
   12.2225  -17.6024   24.4361 C   0  0  1  0  0  0  0  0  0  0  0  0
   12.0619  -18.8666   23.5951 C   0  0  0  0  0  0  0  0  0  0  0  0
   12.1020  -16.4277   23.4806 C   0  0  2  0  0  0  0  0  0  0  0  0
   10.8693  -16.4639   22.7417 N   0  0  0  0  0  0  0  0  0  0  0  0
   13.2204  -16.4266   22.4951 C   0  0  0  0  0  0  0  0  0  0  0  0
   14.4919  -16.0986   22.9224 O   0  0  0  0  0  0  0  0  0  0  0  0
   13.0401  -16.7163   21.2822 O   0  0  0  0  0  0  0  0  0  0  0  0
  2  1  1  1
  2  3  1  0
  4  3  1  0
  5  4  2  0
  6  5  1  0
  7  6  2  0
  7  8  1  0
  8  9  2  0
  9  4  1  0
 10 17  1  0
 10  2  1  0
 11 10  2  0
 13 12  1  0
 14 13  1  0
 15 14  1  0
 16 15  1  1
 16 17  1  0
 18 19  2  0
 18 16  1  0
 21 20  1  1
 21 22  1  0
 23 21  1  0
 23 24  1  6
 24 18  1  0
 25 23  1  0
 26 25  1  0
 27 25  2  0
M  END
$$$$
