FMV.pdb
     RDKit          3D

 27 27  0  0  1  0  0  0  0  0999 V2000
    5.2505  -17.5666   24.0209 N   0  0  0  0  0  0  0  0  0  0  0  0
    5.9918  -16.3749   24.3356 C   0  0  1  0  0  0  0  0  0  0  0  0
    5.3529  -15.7341   25.5490 C   0  0  0  0  0  0  0  0  0  0  0  0
    5.7735  -14.3340   25.7249 C   0  0  0  0  0  0  0  0  0  0  0  0
    5.0561  -13.5194   26.5532 C   0  0  0  0  0  0  0  0  0  0  0  0
    5.4680  -12.1968   26.7073 C   0  0  0  0  0  0  0  0  0  0  0  0
    6.5677  -11.6780   26.0594 C   0  0  0  0  0  0  0  0  0  0  0  0
    7.2640  -12.5392   25.2308 C   0  0  0  0  0  0  0  0  0  0  0  0
    6.8701  -13.8606   25.0634 C   0  0  0  0  0  0  0  0  0  0  0  0
    7.3983  -16.6977   24.7014 C   0  0  0  0  0  0  0  0  0  0  0  0
    7.7603  -16.4950   25.9109 O   0  0  0  0  0  0  0  0  0  0  0  0
    7.7140  -13.8498   19.7926 C   0  0  0  0  0  0  0  0  0  0  0  0
    8.9381  -12.9980   20.8428 S   0  0  0  0  0  0  0  0  0  0  0  0
    9.7913  -14.2937   21.8211 C   0  0  0  0  0  0  0  0  0  0  0  0
    8.7833  -15.2399   22.4020 C   0  0  0  0  0  0  0  0  0  0  0  0
    9.3589  -16.3867   23.1818 C   0  0  2  0  0  0  0  0  0  0  0  0
    8.2889  -17.2084   23.7373 N   0  0  0  0  0  0  0  0  0  0  0  0
   10.2541  -15.8940   24.2319 C   0  0  0  0  0  0  0  0  0  0  0  0
   11.3517  -15.3779   23.9153 O   0  0  0  0  0  0  0  0  0  0  0  0
   11.1562  -14.3013   28.7191 C   0  0  0  0  0  0  0  0  0  0  0  0
   10.1722  -14.6340   27.6260 C   0  0  1  0  0  0  0  0  0  0  0  0
    9.8484  -13.3324   26.8964 C   0  0  0  0  0  0  0  0  0  0  0  0
   10.8174  -15.5547   26.6044 C   0  0  2  0  0  0  0  0  0  0  0  0
    9.8732  -16.0032   25.6174 N   0  0  0  0  0  0  0  0  0  0  0  0
   11.3907  -16.7623   27.2638 C   0  0  0  0  0  0  0  0  0  0  0  0
   12.4173  -16.6069   28.1742 O   0  0  0  0  0  0  0  0  0  0  0  0
   10.9662  -17.9222   27.0150 O   0  0  0  0  0  0  0  0  0  0  0  0
  2  1  1  1
  2  3  1  0
  4  3  1  0
  5  4  2  0
  6  5  1  0
  7  6  2  0
  7  8  1  0
  8  9  2  0
  9  4  1  0
 10 17  1  0
 10  2  1  0
 11 10  2  0
 13 12  1  0
 14 13  1  0
 15 14  1  0
 16 15  1  1
 16 17  1  0
 18 19  2  0
 18 16  1  0
 21 20  1  1
 21 22  1  0
 23 21  1  0
 23 24  1  6
 24 18  1  0
 25 23  1  0
 26 25  1  0
 27 25  2  0
M  END
$$$$
