FMV.pdb
     RDKit          3D

 27 27  0  0  1  0  0  0  0  0999 V2000
   10.2014  -17.6461   20.3434 N   0  0  0  0  0  0  0  0  0  0  0  0
    9.6443  -16.4496   20.9150 C   0  0  1  0  0  0  0  0  0  0  0  0
    8.2187  -16.3170   20.4238 C   0  0  0  0  0  0  0  0  0  0  0  0
    7.7549  -14.9196   20.4332 C   0  0  0  0  0  0  0  0  0  0  0  0
    8.2460  -14.0458   19.5059 C   0  0  0  0  0  0  0  0  0  0  0  0
    7.7965  -12.7267   19.5299 C   0  0  0  0  0  0  0  0  0  0  0  0
    6.8783  -12.2685   20.4492 C   0  0  0  0  0  0  0  0  0  0  0  0
    6.4082  -13.1882   21.3691 C   0  0  0  0  0  0  0  0  0  0  0  0
    6.8434  -14.5074   21.3623 C   0  0  0  0  0  0  0  0  0  0  0  0
    9.5885  -16.5388   22.4000 C   0  0  0  0  0  0  0  0  0  0  0  0
   10.1261  -17.5573   22.9557 O   0  0  0  0  0  0  0  0  0  0  0  0
    6.1248  -12.4349   26.6928 C   0  0  0  0  0  0  0  0  0  0  0  0
    7.9105  -12.3825   27.0606 S   0  0  0  0  0  0  0  0  0  0  0  0
    8.5910  -14.0287   26.6236 C   0  0  0  0  0  0  0  0  0  0  0  0
    8.3699  -14.3006   25.1656 C   0  0  0  0  0  0  0  0  0  0  0  0
    9.3111  -15.2965   24.5515 C   0  0  2  0  0  0  0  0  0  0  0  0
    8.9615  -15.5282   23.1542 N   0  0  0  0  0  0  0  0  0  0  0  0
    9.3063  -16.5455   25.3176 C   0  0  0  0  0  0  0  0  0  0  0  0
    8.2394  -17.1926   25.4367 O   0  0  0  0  0  0  0  0  0  0  0  0
   11.6830  -20.3712   27.1880 C   0  0  0  0  0  0  0  0  0  0  0  0
   11.6669  -19.1577   26.2930 C   0  0  1  0  0  0  0  0  0  0  0  0
   11.4716  -19.6527   24.8619 C   0  0  0  0  0  0  0  0  0  0  0  0
   10.4667  -18.2849   26.6175 C   0  0  2  0  0  0  0  0  0  0  0  0
   10.5206  -17.0243   25.9285 N   0  0  0  0  0  0  0  0  0  0  0  0
   10.3961  -17.9992   28.0787 C   0  0  0  0  0  0  0  0  0  0  0  0
    9.7379  -18.8877   28.9058 O   0  0  0  0  0  0  0  0  0  0  0  0
   10.9197  -16.9698   28.5826 O   0  0  0  0  0  0  0  0  0  0  0  0
  2  1  1  6
  2  3  1  0
  4  3  1  0
  5  4  2  0
  6  5  1  0
  7  6  2  0
  7  8  1  0
  8  9  2  0
  9  4  1  0
 10 17  1  0
 10  2  1  0
 11 10  2  0
 13 12  1  0
 14 13  1  0
 15 14  1  0
 16 15  1  1
 16 17  1  0
 18 19  2  0
 18 16  1  0
 21 20  1  1
 21 22  1  0
 23 21  1  0
 23 24  1  6
 24 18  1  0
 25 23  1  0
 26 25  1  0
 27 25  2  0
M  END
$$$$
