FMV.pdb
     RDKit          3D

 27 27  0  0  1  0  0  0  0  0999 V2000
   10.9627  -16.9512   20.5254 N   0  0  0  0  0  0  0  0  0  0  0  0
   10.0924  -15.9760   21.1255 C   0  0  1  0  0  0  0  0  0  0  0  0
    8.6988  -16.1922   20.5757 C   0  0  0  0  0  0  0  0  0  0  0  0
    7.9812  -14.9240   20.3645 C   0  0  0  0  0  0  0  0  0  0  0  0
    8.4957  -14.0007   19.5000 C   0  0  0  0  0  0  0  0  0  0  0  0
    7.8037  -12.8054   19.3127 C   0  0  0  0  0  0  0  0  0  0  0  0
    6.6235  -12.5173   19.9626 C   0  0  0  0  0  0  0  0  0  0  0  0
    6.1398  -13.4814   20.8284 C   0  0  0  0  0  0  0  0  0  0  0  0
    6.8142  -14.6791   21.0293 C   0  0  0  0  0  0  0  0  0  0  0  0
   10.0140  -16.1609   22.6006 C   0  0  0  0  0  0  0  0  0  0  0  0
   10.9697  -16.7881   23.1735 O   0  0  0  0  0  0  0  0  0  0  0  0
    7.6028  -11.0779   26.6317 C   0  0  0  0  0  0  0  0  0  0  0  0
    6.8666  -12.7462   26.5918 S   0  0  0  0  0  0  0  0  0  0  0  0
    7.4718  -13.5570   25.0620 C   0  0  0  0  0  0  0  0  0  0  0  0
    7.6466  -15.0273   25.2996 C   0  0  0  0  0  0  0  0  0  0  0  0
    8.9318  -15.6092   24.7855 C   0  0  2  0  0  0  0  0  0  0  0  0
    8.9182  -15.6567   23.3274 N   0  0  0  0  0  0  0  0  0  0  0  0
    9.1592  -16.9372   25.3612 C   0  0  0  0  0  0  0  0  0  0  0  0
    8.3237  -17.8494   25.1581 O   0  0  0  0  0  0  0  0  0  0  0  0
   12.1392  -20.3814   27.0100 C   0  0  0  0  0  0  0  0  0  0  0  0
   11.9404  -19.0263   26.3790 C   0  0  1  0  0  0  0  0  0  0  0  0
   12.0584  -19.2086   24.8676 C   0  0  0  0  0  0  0  0  0  0  0  0
   10.5312  -18.5267   26.6468 C   0  0  2  0  0  0  0  0  0  0  0  0
   10.3353  -17.1902   26.1547 N   0  0  0  0  0  0  0  0  0  0  0  0
   10.2385  -18.5181   28.1084 C   0  0  0  0  0  0  0  0  0  0  0  0
    9.7499  -19.6649   28.7023 O   0  0  0  0  0  0  0  0  0  0  0  0
   10.4239  -17.4943   28.8191 O   0  0  0  0  0  0  0  0  0  0  0  0
  2  1  1  6
  2  3  1  0
  4  3  1  0
  5  4  2  0
  6  5  1  0
  7  6  2  0
  7  8  1  0
  8  9  2  0
  9  4  1  0
 10 17  1  0
 10  2  1  0
 11 10  2  0
 13 12  1  0
 14 13  1  0
 15 14  1  0
 16 15  1  1
 16 17  1  0
 18 19  2  0
 18 16  1  0
 21 20  1  1
 21 22  1  0
 23 21  1  0
 23 24  1  1
 24 18  1  0
 25 23  1  0
 26 25  1  0
 27 25  2  0
M  END
$$$$
