FMV.pdb
     RDKit          3D

 27 27  0  0  1  0  0  0  0  0999 V2000
    5.8756  -18.4505   25.5913 N   0  0  0  0  0  0  0  0  0  0  0  0
    6.0726  -17.0330   25.4478 C   0  0  1  0  0  0  0  0  0  0  0  0
    6.5896  -16.4973   26.7657 C   0  0  0  0  0  0  0  0  0  0  0  0
    6.7190  -15.0306   26.7576 C   0  0  0  0  0  0  0  0  0  0  0  0
    5.6016  -14.2617   26.6000 C   0  0  0  0  0  0  0  0  0  0  0  0
    5.7425  -12.8751   26.5940 C   0  0  0  0  0  0  0  0  0  0  0  0
    6.9610  -12.2488   26.7403 C   0  0  0  0  0  0  0  0  0  0  0  0
    8.0651  -13.0670   26.8972 C   0  0  0  0  0  0  0  0  0  0  0  0
    7.9462  -14.4510   26.9059 C   0  0  0  0  0  0  0  0  0  0  0  0
    7.1067  -16.7354   24.4191 C   0  0  0  0  0  0  0  0  0  0  0  0
    8.1022  -17.5328   24.3278 O   0  0  0  0  0  0  0  0  0  0  0  0
    8.6897  -12.1757   18.1149 C   0  0  0  0  0  0  0  0  0  0  0  0
    7.6483  -12.4237   19.5917 S   0  0  0  0  0  0  0  0  0  0  0  0
    8.3100  -13.8933   20.4671 C   0  0  0  0  0  0  0  0  0  0  0  0
    7.4715  -14.1870   21.6752 C   0  0  0  0  0  0  0  0  0  0  0  0
    7.9170  -15.3666   22.4906 C   0  0  2  0  0  0  0  0  0  0  0  0
    6.9798  -15.6102   23.5818 N   0  0  0  0  0  0  0  0  0  0  0  0
    9.2779  -15.1582   22.9917 C   0  0  0  0  0  0  0  0  0  0  0  0
    9.4580  -14.4606   24.0175 O   0  0  0  0  0  0  0  0  0  0  0  0
   11.1891  -18.1107   23.9347 C   0  0  0  0  0  0  0  0  0  0  0  0
   11.5024  -16.6788   24.2889 C   0  0  1  0  0  0  0  0  0  0  0  0
   12.8689  -16.6691   24.9700 C   0  0  0  0  0  0  0  0  0  0  0  0
   11.6416  -15.8464   23.0259 C   0  0  2  0  0  0  0  0  0  0  0  0
   10.3994  -15.7518   22.3084 N   0  0  0  0  0  0  0  0  0  0  0  0
   12.6517  -16.4412   22.1052 C   0  0  0  0  0  0  0  0  0  0  0  0
   13.9913  -16.3473   22.4268 O   0  0  0  0  0  0  0  0  0  0  0  0
   12.3194  -17.0280   21.0409 O   0  0  0  0  0  0  0  0  0  0  0  0
  2  1  1  1
  2  3  1  0
  4  3  1  0
  5  4  2  0
  6  5  1  0
  7  6  2  0
  7  8  1  0
  8  9  2  0
  9  4  1  0
 10 17  1  0
 10  2  1  0
 11 10  2  0
 13 12  1  0
 14 13  1  0
 15 14  1  0
 16 15  1  1
 16 17  1  0
 18 19  2  0
 18 16  1  0
 21 20  1  6
 21 22  1  0
 23 21  1  0
 23 24  1  6
 24 18  1  0
 25 23  1  0
 26 25  1  0
 27 25  2  0
M  END
$$$$
