FMV.pdb
     RDKit          3D

 27 27  0  0  1  0  0  0  0  0999 V2000
    6.7362  -17.8336   20.3940 N   0  0  0  0  0  0  0  0  0  0  0  0
    6.1758  -17.2859   21.6001 C   0  0  1  0  0  0  0  0  0  0  0  0
    5.5441  -18.4199   22.3787 C   0  0  0  0  0  0  0  0  0  0  0  0
    4.1272  -18.6135   22.0285 C   0  0  0  0  0  0  0  0  0  0  0  0
    3.6858  -18.2336   20.7934 C   0  0  0  0  0  0  0  0  0  0  0  0
    2.3412  -18.4235   20.4790 C   0  0  0  0  0  0  0  0  0  0  0  0
    1.4402  -18.9780   21.3615 C   0  0  0  0  0  0  0  0  0  0  0  0
    1.9315  -19.3478   22.6005 C   0  0  0  0  0  0  0  0  0  0  0  0
    3.2679  -19.1671   22.9336 C   0  0  0  0  0  0  0  0  0  0  0  0
    7.2343  -16.6976   22.4659 C   0  0  0  0  0  0  0  0  0  0  0  0
    8.4393  -17.0816   22.2770 O   0  0  0  0  0  0  0  0  0  0  0  0
    6.2565  -12.5416   27.9615 C   0  0  0  0  0  0  0  0  0  0  0  0
    7.5150  -11.8926   26.8119 S   0  0  0  0  0  0  0  0  0  0  0  0
    8.3190  -13.3441   26.0304 C   0  0  0  0  0  0  0  0  0  0  0  0
    7.3724  -13.9922   25.0647 C   0  0  0  0  0  0  0  0  0  0  0  0
    7.9253  -15.1764   24.3254 C   0  0  2  0  0  0  0  0  0  0  0  0
    6.9049  -15.7513   23.4555 N   0  0  0  0  0  0  0  0  0  0  0  0
    8.4463  -16.1705   25.2673 C   0  0  0  0  0  0  0  0  0  0  0  0
    7.6465  -16.8922   25.9083 O   0  0  0  0  0  0  0  0  0  0  0  0
   12.1403  -19.1351   26.4780 C   0  0  0  0  0  0  0  0  0  0  0  0
   11.6142  -18.0264   25.6016 C   0  0  1  0  0  0  0  0  0  0  0  0
   11.2463  -18.6480   24.2564 C   0  0  0  0  0  0  0  0  0  0  0  0
   10.3295  -17.4638   26.1851 C   0  0  2  0  0  0  0  0  0  0  0  0
    9.8679  -16.3156   25.4535 N   0  0  0  0  0  0  0  0  0  0  0  0
   10.5266  -17.0477   27.6028 C   0  0  0  0  0  0  0  0  0  0  0  0
   10.5449  -18.0133   28.5899 O   0  0  0  0  0  0  0  0  0  0  0  0
   10.6771  -15.8398   27.9281 O   0  0  0  0  0  0  0  0  0  0  0  0
  2  1  1  6
  2  3  1  0
  4  3  1  0
  5  4  2  0
  6  5  1  0
  7  6  2  0
  7  8  1  0
  8  9  2  0
  9  4  1  0
 10 17  1  0
 10  2  1  0
 11 10  2  0
 13 12  1  0
 14 13  1  0
 15 14  1  0
 16 15  1  1
 16 17  1  0
 18 19  2  0
 18 16  1  0
 21 20  1  1
 21 22  1  0
 23 21  1  0
 23 24  1  6
 24 18  1  0
 25 23  1  0
 26 25  1  0
 27 25  2  0
M  END
$$$$
