FMV.pdb
     RDKit          3D

 27 27  0  0  1  0  0  0  0  0999 V2000
    6.1389  -19.1578   24.8902 N   0  0  0  0  0  0  0  0  0  0  0  0
    6.2707  -17.7332   25.0392 C   0  0  1  0  0  0  0  0  0  0  0  0
    6.3912  -17.4272   26.5167 C   0  0  0  0  0  0  0  0  0  0  0  0
    6.3900  -15.9798   26.7868 C   0  0  0  0  0  0  0  0  0  0  0  0
    5.4834  -15.1816   26.1501 C   0  0  0  0  0  0  0  0  0  0  0  0
    5.4969  -13.8136   26.4170 C   0  0  0  0  0  0  0  0  0  0  0  0
    6.3860  -13.2342   27.2957 C   0  0  0  0  0  0  0  0  0  0  0  0
    7.2858  -14.0808   27.9176 C   0  0  0  0  0  0  0  0  0  0  0  0
    7.2889  -15.4468   27.6654 C   0  0  0  0  0  0  0  0  0  0  0  0
    7.5138  -17.2373   24.3873 C   0  0  0  0  0  0  0  0  0  0  0  0
    8.5628  -17.9632   24.4762 O   0  0  0  0  0  0  0  0  0  0  0  0
    7.0164  -12.3848   20.2250 C   0  0  0  0  0  0  0  0  0  0  0  0
    8.8373  -12.3486   20.3236 S   0  0  0  0  0  0  0  0  0  0  0  0
    9.3571  -13.9183   21.1172 C   0  0  0  0  0  0  0  0  0  0  0  0
    8.3148  -14.3621   22.0997 C   0  0  0  0  0  0  0  0  0  0  0  0
    8.6462  -15.6130   22.8613 C   0  0  2  0  0  0  0  0  0  0  0  0
    7.5195  -16.0084   23.6995 N   0  0  0  0  0  0  0  0  0  0  0  0
    9.8621  -15.4218   23.6561 C   0  0  0  0  0  0  0  0  0  0  0  0
   10.9487  -15.1892   23.0760 O   0  0  0  0  0  0  0  0  0  0  0  0
   10.2390  -13.0797   26.6360 C   0  0  0  0  0  0  0  0  0  0  0  0
   10.8124  -14.4133   27.0443 C   0  0  1  0  0  0  0  0  0  0  0  0
    9.7610  -15.1156   27.9002 C   0  0  0  0  0  0  0  0  0  0  0  0
   11.0286  -15.2862   25.8200 C   0  0  2  0  0  0  0  0  0  0  0  0
    9.8065  -15.5009   25.0940 N   0  0  0  0  0  0  0  0  0  0  0  0
   11.5657  -16.6217   26.2070 C   0  0  0  0  0  0  0  0  0  0  0  0
   12.8000  -16.6969   26.8215 O   0  0  0  0  0  0  0  0  0  0  0  0
   10.9264  -17.6855   25.9899 O   0  0  0  0  0  0  0  0  0  0  0  0
  2  1  1  1
  2  3  1  0
  4  3  1  0
  5  4  2  0
  6  5  1  0
  7  6  2  0
  7  8  1  0
  8  9  2  0
  9  4  1  0
 10 17  1  0
 10  2  1  0
 11 10  2  0
 13 12  1  0
 14 13  1  0
 15 14  1  0
 16 15  1  1
 16 17  1  0
 18 19  2  0
 18 16  1  0
 21 20  1  6
 21 22  1  0
 23 21  1  0
 23 24  1  1
 24 18  1  0
 25 23  1  0
 26 25  1  0
 27 25  2  0
M  END
$$$$
