FMV.pdb
     RDKit          3D

 27 27  0  0  1  0  0  0  0  0999 V2000
    8.8199  -17.9768   21.2125 N   0  0  0  0  0  0  0  0  0  0  0  0
    8.9785  -16.5533   21.0807 C   0  0  1  0  0  0  0  0  0  0  0  0
    7.7679  -16.0140   20.3495 C   0  0  0  0  0  0  0  0  0  0  0  0
    7.8830  -14.5729   20.0704 C   0  0  0  0  0  0  0  0  0  0  0  0
    8.8123  -14.1385   19.1693 C   0  0  0  0  0  0  0  0  0  0  0  0
    8.9080  -12.7709   18.9178 C   0  0  0  0  0  0  0  0  0  0  0  0
    8.1047  -11.8404   19.5400 C   0  0  0  0  0  0  0  0  0  0  0  0
    7.1780  -12.3257   20.4449 C   0  0  0  0  0  0  0  0  0  0  0  0
    7.0666  -13.6847   20.7097 C   0  0  0  0  0  0  0  0  0  0  0  0
    9.0153  -15.8908   22.4133 C   0  0  0  0  0  0  0  0  0  0  0  0
    9.7766  -14.8727   22.5511 O   0  0  0  0  0  0  0  0  0  0  0  0
    5.7183  -11.8527   26.1473 C   0  0  0  0  0  0  0  0  0  0  0  0
    6.8678  -13.2687   26.1599 S   0  0  0  0  0  0  0  0  0  0  0  0
    5.9611  -14.6947   25.4470 C   0  0  0  0  0  0  0  0  0  0  0  0
    6.8512  -15.9012   25.4174 C   0  0  0  0  0  0  0  0  0  0  0  0
    8.1870  -15.6937   24.7638 C   0  0  2  0  0  0  0  0  0  0  0  0
    8.2328  -16.3800   23.4772 N   0  0  0  0  0  0  0  0  0  0  0  0
    9.2653  -16.1436   25.6479 C   0  0  0  0  0  0  0  0  0  0  0  0
    9.8969  -17.1897   25.3683 O   0  0  0  0  0  0  0  0  0  0  0  0
   11.4776  -13.5623   27.9983 C   0  0  0  0  0  0  0  0  0  0  0  0
   11.1005  -14.8506   28.6853 C   0  0  1  0  0  0  0  0  0  0  0  0
    9.8832  -14.5584   29.5595 C   0  0  0  0  0  0  0  0  0  0  0  0
   10.6604  -15.8807   27.6594 C   0  0  2  0  0  0  0  0  0  0  0  0
    9.5951  -15.3875   26.8295 N   0  0  0  0  0  0  0  0  0  0  0  0
   10.1763  -17.1227   28.3264 C   0  0  0  0  0  0  0  0  0  0  0  0
    8.8210  -17.3860   28.3537 O   0  0  0  0  0  0  0  0  0  0  0  0
   10.9678  -17.9408   28.8668 O   0  0  0  0  0  0  0  0  0  0  0  0
  2  1  1  1
  2  3  1  0
  4  3  1  0
  5  4  2  0
  6  5  1  0
  7  6  2  0
  7  8  1  0
  8  9  2  0
  9  4  1  0
 10 17  1  0
 10  2  1  0
 11 10  2  0
 13 12  1  0
 14 13  1  0
 15 14  1  0
 16 15  1  1
 16 17  1  0
 18 19  2  0
 18 16  1  0
 21 20  1  6
 21 22  1  0
 23 21  1  0
 23 24  1  1
 24 18  1  0
 25 23  1  0
 26 25  1  0
 27 25  2  0
M  END
$$$$
