FMV.pdb
     RDKit          3D

 27 27  0  0  1  0  0  0  0  0999 V2000
    8.6024  -13.8996   19.3881 N   0  0  0  0  0  0  0  0  0  0  0  0
    8.5140  -15.1047   20.1683 C   0  0  1  0  0  0  0  0  0  0  0  0
    9.4504  -16.1257   19.5586 C   0  0  0  0  0  0  0  0  0  0  0  0
    9.3626  -17.4325   20.2314 C   0  0  0  0  0  0  0  0  0  0  0  0
   10.5095  -18.0593   20.6269 C   0  0  0  0  0  0  0  0  0  0  0  0
   10.4078  -19.2960   21.2616 C   0  0  0  0  0  0  0  0  0  0  0  0
    9.1997  -19.9114   21.5062 C   0  0  0  0  0  0  0  0  0  0  0  0
    8.0648  -19.2402   21.0885 C   0  0  0  0  0  0  0  0  0  0  0  0
    8.1443  -18.0070   20.4542 C   0  0  0  0  0  0  0  0  0  0  0  0
    8.9691  -14.8743   21.5668 C   0  0  0  0  0  0  0  0  0  0  0  0
   10.1270  -14.3598   21.7388 O   0  0  0  0  0  0  0  0  0  0  0  0
    6.3330  -11.1984   26.2390 C   0  0  0  0  0  0  0  0  0  0  0  0
    6.1898  -12.9188   26.8275 S   0  0  0  0  0  0  0  0  0  0  0  0
    7.6293  -13.8326   26.1517 C   0  0  0  0  0  0  0  0  0  0  0  0
    7.4107  -14.1236   24.6969 C   0  0  0  0  0  0  0  0  0  0  0  0
    8.5153  -14.8872   24.0251 C   0  0  2  0  0  0  0  0  0  0  0  0
    8.1416  -15.2163   22.6539 N   0  0  0  0  0  0  0  0  0  0  0  0
    8.8459  -16.0910   24.7923 C   0  0  0  0  0  0  0  0  0  0  0  0
    8.0317  -17.0435   24.8276 O   0  0  0  0  0  0  0  0  0  0  0  0
   11.7178  -18.1944   24.2143 C   0  0  0  0  0  0  0  0  0  0  0  0
   11.7293  -17.9919   25.7085 C   0  0  1  0  0  0  0  0  0  0  0  0
   12.7929  -16.9403   26.0151 C   0  0  0  0  0  0  0  0  0  0  0  0
   10.4021  -17.4131   26.1678 C   0  0  2  0  0  0  0  0  0  0  0  0
   10.0983  -16.1767   25.5000 N   0  0  0  0  0  0  0  0  0  0  0  0
   10.4179  -17.1436   27.6337 C   0  0  0  0  0  0  0  0  0  0  0  0
   10.5309  -18.2044   28.5105 O   0  0  0  0  0  0  0  0  0  0  0  0
   10.3312  -15.9753   28.0974 O   0  0  0  0  0  0  0  0  0  0  0  0
  2  1  1  6
  2  3  1  0
  4  3  1  0
  5  4  2  0
  6  5  1  0
  7  6  2  0
  7  8  1  0
  8  9  2  0
  9  4  1  0
 10 17  1  0
 10  2  1  0
 11 10  2  0
 13 12  1  0
 14 13  1  0
 15 14  1  0
 16 15  1  1
 16 17  1  0
 18 19  2  0
 18 16  1  0
 21 20  1  6
 21 22  1  0
 23 21  1  0
 23 24  1  6
 24 18  1  0
 25 23  1  0
 26 25  1  0
 27 25  2  0
M  END
$$$$
