FMV.pdb
     RDKit          3D

 27 27  0  0  1  0  0  0  0  0999 V2000
    7.7284  -17.3596   21.2241 N   0  0  0  0  0  0  0  0  0  0  0  0
    9.0553  -16.8069   21.1724 C   0  0  1  0  0  0  0  0  0  0  0  0
    9.1588  -15.9564   19.9245 C   0  0  0  0  0  0  0  0  0  0  0  0
    8.4678  -14.6648   20.0729 C   0  0  0  0  0  0  0  0  0  0  0  0
    9.2052  -13.5209   20.1838 C   0  0  0  0  0  0  0  0  0  0  0  0
    8.5346  -12.3070   20.3243 C   0  0  0  0  0  0  0  0  0  0  0  0
    7.1604  -12.2137   20.3556 C   0  0  0  0  0  0  0  0  0  0  0  0
    6.4545  -13.3975   20.2399 C   0  0  0  0  0  0  0  0  0  0  0  0
    7.1036  -14.6175   20.0991 C   0  0  0  0  0  0  0  0  0  0  0  0
    9.3102  -15.9114   22.3341 C   0  0  0  0  0  0  0  0  0  0  0  0
   10.4429  -15.3209   22.3930 O   0  0  0  0  0  0  0  0  0  0  0  0
    6.1339  -11.1003   25.8873 C   0  0  0  0  0  0  0  0  0  0  0  0
    6.0682  -12.6812   26.7946 S   0  0  0  0  0  0  0  0  0  0  0  0
    7.6042  -13.5945   26.3816 C   0  0  0  0  0  0  0  0  0  0  0  0
    7.3964  -14.4041   25.1366 C   0  0  0  0  0  0  0  0  0  0  0  0
    8.6327  -15.0502   24.5809 C   0  0  2  0  0  0  0  0  0  0  0  0
    8.3279  -15.7305   23.3269 N   0  0  0  0  0  0  0  0  0  0  0  0
    9.2138  -15.9713   25.5610 C   0  0  0  0  0  0  0  0  0  0  0  0
    8.8719  -17.1773   25.5531 O   0  0  0  0  0  0  0  0  0  0  0  0
   12.9573  -15.2404   27.2476 C   0  0  0  0  0  0  0  0  0  0  0  0
   11.9429  -15.8585   28.1764 C   0  0  1  0  0  0  0  0  0  0  0  0
   11.3406  -14.7276   29.0068 C   0  0  0  0  0  0  0  0  0  0  0  0
   10.8023  -16.4639   27.3764 C   0  0  2  0  0  0  0  0  0  0  0  0
   10.1712  -15.4920   26.5256 N   0  0  0  0  0  0  0  0  0  0  0  0
    9.7561  -17.0217   28.2798 C   0  0  0  0  0  0  0  0  0  0  0  0
    9.9909  -18.2236   28.9178 O   0  0  0  0  0  0  0  0  0  0  0  0
    8.6624  -16.4286   28.4790 O   0  0  0  0  0  0  0  0  0  0  0  0
  2  1  1  1
  2  3  1  0
  4  3  1  0
  5  4  2  0
  6  5  1  0
  7  6  2  0
  7  8  1  0
  8  9  2  0
  9  4  1  0
 10 17  1  0
 10  2  1  0
 11 10  2  0
 13 12  1  0
 14 13  1  0
 15 14  1  0
 16 15  1  1
 16 17  1  0
 18 19  2  0
 18 16  1  0
 21 20  1  6
 21 22  1  0
 23 21  1  0
 23 24  1  1
 24 18  1  0
 25 23  1  0
 26 25  1  0
 27 25  2  0
M  END
$$$$
