FMV.pdb
     RDKit          3D

 27 27  0  0  1  0  0  0  0  0999 V2000
    5.2932  -18.9938   23.0822 N   0  0  0  0  0  0  0  0  0  0  0  0
    5.8722  -17.7456   23.5011 C   0  0  1  0  0  0  0  0  0  0  0  0
    5.7573  -17.6597   25.0079 C   0  0  0  0  0  0  0  0  0  0  0  0
    6.3072  -16.4003   25.5367 C   0  0  0  0  0  0  0  0  0  0  0  0
    5.8775  -15.2129   25.0173 C   0  0  0  0  0  0  0  0  0  0  0  0
    6.4092  -14.0305   25.5292 C   0  0  0  0  0  0  0  0  0  0  0  0
    7.3491  -14.0103   26.5364 C   0  0  0  0  0  0  0  0  0  0  0  0
    7.7549  -15.2361   27.0321 C   0  0  0  0  0  0  0  0  0  0  0  0
    7.2374  -16.4259   26.5357 C   0  0  0  0  0  0  0  0  0  0  0  0
    7.3222  -17.6875   23.1692 C   0  0  0  0  0  0  0  0  0  0  0  0
    7.7536  -18.4627   22.2483 O   0  0  0  0  0  0  0  0  0  0  0  0
    7.6600  -12.9606   20.7570 C   0  0  0  0  0  0  0  0  0  0  0  0
    9.3743  -13.3272   20.2536 S   0  0  0  0  0  0  0  0  0  0  0  0
   10.0514  -14.5001   21.4905 C   0  0  0  0  0  0  0  0  0  0  0  0
    8.9330  -15.2656   22.1322 C   0  0  0  0  0  0  0  0  0  0  0  0
    9.3513  -16.2277   23.2065 C   0  0  2  0  0  0  0  0  0  0  0  0
    8.1780  -16.8037   23.8547 N   0  0  0  0  0  0  0  0  0  0  0  0
   10.2256  -15.5635   24.1767 C   0  0  0  0  0  0  0  0  0  0  0  0
   11.3189  -15.0836   23.7952 O   0  0  0  0  0  0  0  0  0  0  0  0
    8.9414  -14.1064   27.9434 C   0  0  0  0  0  0  0  0  0  0  0  0
   10.2141  -13.7191   27.2334 C   0  0  1  0  0  0  0  0  0  0  0  0
   11.2371  -13.3513   28.3056 C   0  0  0  0  0  0  0  0  0  0  0  0
   10.7801  -14.9142   26.4859 C   0  0  2  0  0  0  0  0  0  0  0  0
    9.8290  -15.4641   25.5586 N   0  0  0  0  0  0  0  0  0  0  0  0
   11.1683  -15.9985   27.4322 C   0  0  0  0  0  0  0  0  0  0  0  0
   10.4781  -17.1942   27.4033 O   0  0  0  0  0  0  0  0  0  0  0  0
   12.1087  -15.8566   28.2587 O   0  0  0  0  0  0  0  0  0  0  0  0
  2  1  1  1
  2  3  1  0
  4  3  1  0
  5  4  2  0
  6  5  1  0
  7  6  2  0
  7  8  1  0
  8  9  2  0
  9  4  1  0
 10 17  1  0
 10  2  1  0
 11 10  2  0
 13 12  1  0
 14 13  1  0
 15 14  1  0
 16 15  1  6
 16 17  1  0
 18 19  2  0
 18 16  1  0
 21 20  1  1
 21 22  1  0
 23 21  1  0
 23 24  1  6
 24 18  1  0
 25 23  1  0
 26 25  1  0
 27 25  2  0
M  END
$$$$
