FMV.pdb
     RDKit          3D

 27 27  0  0  1  0  0  0  0  0999 V2000
    5.8383  -19.5925   23.9767 N   0  0  0  0  0  0  0  0  0  0  0  0
    6.0833  -18.2436   24.4117 C   0  0  1  0  0  0  0  0  0  0  0  0
    6.2453  -18.2601   25.9166 C   0  0  0  0  0  0  0  0  0  0  0  0
    6.5590  -16.9268   26.4568 C   0  0  0  0  0  0  0  0  0  0  0  0
    5.7845  -15.8609   26.0982 C   0  0  0  0  0  0  0  0  0  0  0  0
    6.0962  -14.6060   26.6184 C   0  0  0  0  0  0  0  0  0  0  0  0
    7.1519  -14.3966   27.4786 C   0  0  0  0  0  0  0  0  0  0  0  0
    7.9087  -15.5046   27.8143 C   0  0  0  0  0  0  0  0  0  0  0  0
    7.6149  -16.7638   27.3068 C   0  0  0  0  0  0  0  0  0  0  0  0
    7.3535  -17.7171   23.8410 C   0  0  0  0  0  0  0  0  0  0  0  0
    8.3741  -18.4873   23.8495 O   0  0  0  0  0  0  0  0  0  0  0  0
    8.1998  -11.5749   21.1427 C   0  0  0  0  0  0  0  0  0  0  0  0
    8.9380  -12.7825   19.9922 S   0  0  0  0  0  0  0  0  0  0  0  0
    9.4753  -14.2168   21.0011 C   0  0  0  0  0  0  0  0  0  0  0  0
    8.3097  -14.7649   21.7689 C   0  0  0  0  0  0  0  0  0  0  0  0
    8.6333  -15.8987   22.6987 C   0  0  2  0  0  0  0  0  0  0  0  0
    7.4141  -16.4128   23.3132 N   0  0  0  0  0  0  0  0  0  0  0  0
    9.6020  -15.4702   23.7110 C   0  0  0  0  0  0  0  0  0  0  0  0
   10.7037  -14.9944   23.3489 O   0  0  0  0  0  0  0  0  0  0  0  0
   10.3688  -13.5656   28.0920 C   0  0  0  0  0  0  0  0  0  0  0  0
    9.4166  -14.1218   27.0635 C   0  0  1  0  0  0  0  0  0  0  0  0
    8.8357  -12.9366   26.2960 C   0  0  0  0  0  0  0  0  0  0  0  0
   10.1740  -14.9645   26.0517 C   0  0  2  0  0  0  0  0  0  0  0  0
    9.2881  -15.5960   25.1119 N   0  0  0  0  0  0  0  0  0  0  0  0
   10.9534  -16.0383   26.7307 C   0  0  0  0  0  0  0  0  0  0  0  0
   12.0339  -15.6895   27.5166 O   0  0  0  0  0  0  0  0  0  0  0  0
   10.6556  -17.2566   26.6088 O   0  0  0  0  0  0  0  0  0  0  0  0
  2  1  1  6
  2  3  1  0
  4  3  1  0
  5  4  2  0
  6  5  1  0
  7  6  2  0
  7  8  1  0
  8  9  2  0
  9  4  1  0
 10 17  1  0
 10  2  1  0
 11 10  2  0
 13 12  1  0
 14 13  1  0
 15 14  1  0
 16 15  1  6
 16 17  1  0
 18 19  2  0
 18 16  1  0
 21 20  1  1
 21 22  1  0
 23 21  1  0
 23 24  1  6
 24 18  1  0
 25 23  1  0
 26 25  1  0
 27 25  2  0
M  END
$$$$
