FMV.pdb
     RDKit          3D

 27 27  0  0  1  0  0  0  0  0999 V2000
    7.1392  -17.0811   21.1392 N   0  0  0  0  0  0  0  0  0  0  0  0
    8.5535  -16.8234   21.1869 C   0  0  1  0  0  0  0  0  0  0  0  0
    8.9343  -16.0733   19.9285 C   0  0  0  0  0  0  0  0  0  0  0  0
    8.4374  -14.6874   19.9351 C   0  0  0  0  0  0  0  0  0  0  0  0
    7.0911  -14.4597   19.9201 C   0  0  0  0  0  0  0  0  0  0  0  0
    6.6383  -13.1415   19.9259 C   0  0  0  0  0  0  0  0  0  0  0  0
    7.4917  -12.0601   19.9463 C   0  0  0  0  0  0  0  0  0  0  0  0
    8.8465  -12.3381   19.9611 C   0  0  0  0  0  0  0  0  0  0  0  0
    9.3184  -13.6445   19.9555 C   0  0  0  0  0  0  0  0  0  0  0  0
    8.9019  -15.9483   22.3397 C   0  0  0  0  0  0  0  0  0  0  0  0
    9.6406  -14.9297   22.1119 O   0  0  0  0  0  0  0  0  0  0  0  0
    6.6198  -12.1722   26.9313 C   0  0  0  0  0  0  0  0  0  0  0  0
    5.5478  -12.9604   25.6838 S   0  0  0  0  0  0  0  0  0  0  0  0
    6.6420  -13.9447   24.5894 C   0  0  0  0  0  0  0  0  0  0  0  0
    7.4512  -14.9053   25.4086 C   0  0  0  0  0  0  0  0  0  0  0  0
    8.7240  -15.3777   24.7671 C   0  0  2  0  0  0  0  0  0  0  0  0
    8.4268  -16.2446   23.6319 N   0  0  0  0  0  0  0  0  0  0  0  0
    9.5718  -16.0568   25.7503 C   0  0  0  0  0  0  0  0  0  0  0  0
    9.9655  -17.2251   25.5239 O   0  0  0  0  0  0  0  0  0  0  0  0
   11.8735  -13.8634   28.4438 C   0  0  0  0  0  0  0  0  0  0  0  0
   11.3238  -15.1602   28.9823 C   0  0  1  0  0  0  0  0  0  0  0  0
   10.0704  -14.8221   29.7861 C   0  0  0  0  0  0  0  0  0  0  0  0
   10.8770  -16.0537   27.8379 C   0  0  2  0  0  0  0  0  0  0  0  0
    9.9488  -15.3842   26.9679 N   0  0  0  0  0  0  0  0  0  0  0  0
   10.2091  -17.2830   28.3523 C   0  0  0  0  0  0  0  0  0  0  0  0
    8.8324  -17.3740   28.2935 O   0  0  0  0  0  0  0  0  0  0  0  0
   10.8638  -18.2428   28.8398 O   0  0  0  0  0  0  0  0  0  0  0  0
  2  1  1  6
  2  3  1  0
  4  3  1  0
  5  4  2  0
  6  5  1  0
  7  6  2  0
  7  8  1  0
  8  9  2  0
  9  4  1  0
 10 17  1  0
 10  2  1  0
 11 10  2  0
 13 12  1  0
 14 13  1  0
 15 14  1  0
 16 15  1  1
 16 17  1  0
 18 19  2  0
 18 16  1  0
 21 20  1  6
 21 22  1  0
 23 21  1  0
 23 24  1  6
 24 18  1  0
 25 23  1  0
 26 25  1  0
 27 25  2  0
M  END
$$$$
