MWN.pdb
     RDKit          3D

 31 32  0  0  1  0  0  0  0  0999 V2000
    3.5109  -20.1405   19.0801 C   0  0  0  0  0  0  0  0  0  0  0  0
    4.7509  -19.7066   20.3292 S   0  0  0  0  0  0  0  0  0  0  0  0
    6.2242  -19.1046   19.4538 C   0  0  0  0  0  0  0  0  0  0  0  0
    7.3147  -18.7052   20.4196 C   0  0  0  0  0  0  0  0  0  0  0  0
    7.8948  -17.3887   19.9367 C   0  0  2  0  0  0  0  0  0  0  0  0
    8.5890  -17.6361   18.6897 N   0  0  0  0  0  0  0  0  0  0  0  0
    8.7797  -16.7859   20.9736 C   0  0  0  0  0  0  0  0  0  0  0  0
    9.9789  -17.1600   20.9537 O   0  0  0  0  0  0  0  0  0  0  0  0
    8.3731  -15.8535   21.9431 N   0  0  0  0  0  0  0  0  0  0  0  0
    9.3286  -15.4308   22.9958 C   0  0  1  0  0  0  0  0  0  0  0  0
    8.8419  -14.0966   23.4487 C   0  0  0  0  0  0  0  0  0  0  0  0
    7.8126  -14.1215   24.4924 C   0  0  0  0  0  0  0  0  0  0  0  0
    7.0104  -15.2065   24.8094 C   0  0  0  0  0  0  0  0  0  0  0  0
    6.1656  -14.8599   25.8006 N   0  0  0  0  0  0  0  0  0  0  0  0
    6.3791  -13.5805   26.1535 C   0  0  0  0  0  0  0  0  0  0  0  0
    5.7694  -12.7847   27.1105 C   0  0  0  0  0  0  0  0  0  0  0  0
    6.1875  -11.4873   27.2688 C   0  0  0  0  0  0  0  0  0  0  0  0
    7.2178  -11.0067   26.4585 C   0  0  0  0  0  0  0  0  0  0  0  0
    7.8153  -11.8131   25.5091 C   0  0  0  0  0  0  0  0  0  0  0  0
    7.3927  -13.1229   25.3498 C   0  0  0  0  0  0  0  0  0  0  0  0
    9.4510  -16.4757   23.9955 C   0  0  0  0  0  0  0  0  0  0  0  0
    8.4710  -17.2352   24.2288 O   0  0  0  0  0  0  0  0  0  0  0  0
   10.3321  -20.7075   23.9889 N   0  0  0  0  0  0  0  0  0  0  0  0
   11.1517  -20.2222   25.0642 C   0  0  0  0  0  0  0  0  0  0  0  0
   11.3930  -21.0256   25.9923 O   0  0  0  0  0  0  0  0  0  0  0  0
   11.6285  -18.8462   24.9833 C   0  0  0  0  0  0  0  0  0  0  0  0
   10.6752  -17.8750   25.6739 C   0  0  2  0  0  0  0  0  0  0  0  0
   10.6254  -16.7143   24.7450 N   0  0  0  0  0  0  0  0  0  0  0  0
   11.3249  -17.4200   26.9124 C   0  0  0  0  0  0  0  0  0  0  0  0
   10.9830  -17.8108   28.0526 O   0  0  0  0  0  0  0  0  0  0  0  0
   12.3663  -16.5210   26.8632 O   0  0  0  0  0  0  0  0  0  0  0  0
  1  2  1  0
  3  2  1  0
  4  3  1  0
  5  4  1  0
  5  6  1  6
  7  5  1  0
  8  7  2  0
  9  7  1  0
 10  9  1  0
 10 11  1  1
 11 12  1  0
 12 20  1  0
 12 13  2  0
 13 14  1  0
 15 14  1  0
 15 16  2  0
 17 16  1  0
 18 17  2  0
 19 20  2  0
 19 18  1  0
 20 15  1  0
 21 28  1  0
 21 10  1  0
 22 21  2  0
 23 24  1  0
 24 25  2  0
 26 24  1  0
 27 26  1  6
 27 28  1  0
 29 31  1  0
 29 27  1  0
 30 29  2  0
M  END
$$$$
