MWN.pdb
     RDKit          3D

 31 32  0  0  1  0  0  0  0  0999 V2000
    7.6309  -20.0539   28.3315 C   0  0  0  0  0  0  0  0  0  0  0  0
    7.4537  -21.8388   28.5937 S   0  0  0  0  0  0  0  0  0  0  0  0
    7.1433  -22.6030   26.9754 C   0  0  0  0  0  0  0  0  0  0  0  0
    7.6683  -21.7435   25.8498 C   0  0  0  0  0  0  0  0  0  0  0  0
    6.4853  -21.0142   25.2401 C   0  0  2  0  0  0  0  0  0  0  0  0
    5.9020  -21.8733   24.2303 N   0  0  0  0  0  0  0  0  0  0  0  0
    6.9009  -19.6910   24.6942 C   0  0  0  0  0  0  0  0  0  0  0  0
    7.3290  -19.6969   23.5129 O   0  0  0  0  0  0  0  0  0  0  0  0
    6.8465  -18.4730   25.3928 N   0  0  0  0  0  0  0  0  0  0  0  0
    7.3474  -17.2364   24.7448 C   0  0  1  0  0  0  0  0  0  0  0  0
    6.6527  -16.1208   25.4484 C   0  0  0  0  0  0  0  0  0  0  0  0
    6.9180  -14.7793   24.9198 C   0  0  0  0  0  0  0  0  0  0  0  0
    7.4168  -14.4924   23.6589 C   0  0  0  0  0  0  0  0  0  0  0  0
    7.5544  -13.1581   23.5285 N   0  0  0  0  0  0  0  0  0  0  0  0
    7.1636  -12.5480   24.6606 C   0  0  0  0  0  0  0  0  0  0  0  0
    7.1204  -11.2061   25.0051 C   0  0  0  0  0  0  0  0  0  0  0  0
    6.6695  -10.8480   26.2507 C   0  0  0  0  0  0  0  0  0  0  0  0
    6.2666  -11.8493   27.1362 C   0  0  0  0  0  0  0  0  0  0  0  0
    6.3159  -13.1825   26.7773 C   0  0  0  0  0  0  0  0  0  0  0  0
    6.7711  -13.5434   25.5195 C   0  0  0  0  0  0  0  0  0  0  0  0
    8.7987  -17.2332   24.7502 C   0  0  0  0  0  0  0  0  0  0  0  0
    9.4210  -17.7163   25.7356 O   0  0  0  0  0  0  0  0  0  0  0  0
   13.2909  -17.9048   21.3369 N   0  0  0  0  0  0  0  0  0  0  0  0
   12.9014  -16.7216   22.0524 C   0  0  0  0  0  0  0  0  0  0  0  0
   13.8231  -15.9612   22.4231 O   0  0  0  0  0  0  0  0  0  0  0  0
   11.4770  -16.5094   22.2840 C   0  0  0  0  0  0  0  0  0  0  0  0
   11.0373  -17.0500   23.6416 C   0  0  2  0  0  0  0  0  0  0  0  0
    9.5885  -16.7176   23.6975 N   0  0  0  0  0  0  0  0  0  0  0  0
   11.7121  -16.2527   24.6770 C   0  0  0  0  0  0  0  0  0  0  0  0
   12.9276  -16.3735   24.9556 O   0  0  0  0  0  0  0  0  0  0  0  0
   11.0117  -15.3135   25.4000 O   0  0  0  0  0  0  0  0  0  0  0  0
  1  2  1  0
  3  2  1  0
  4  3  1  0
  5  4  1  0
  5  6  1  6
  7  5  1  0
  8  7  2  0
  9  7  1  0
 10  9  1  0
 10 11  1  1
 11 12  1  0
 12 20  1  0
 12 13  2  0
 13 14  1  0
 15 14  1  0
 15 16  2  0
 17 16  1  0
 18 17  2  0
 19 20  2  0
 19 18  1  0
 20 15  1  0
 21 28  1  0
 21 10  1  0
 22 21  2  0
 23 24  1  0
 24 25  2  0
 26 24  1  0
 27 26  1  6
 27 28  1  0
 29 31  1  0
 29 27  1  0
 30 29  2  0
M  END
$$$$
