MWN.pdb
     RDKit          3D

 31 32  0  0  1  0  0  0  0  0999 V2000
    6.9746  -12.5369   16.9821 C   0  0  0  0  0  0  0  0  0  0  0  0
    7.6374  -12.4059   18.6642 S   0  0  0  0  0  0  0  0  0  0  0  0
    7.5784  -14.0621   19.4078 C   0  0  0  0  0  0  0  0  0  0  0  0
    8.0504  -14.0397   20.8424 C   0  0  0  0  0  0  0  0  0  0  0  0
    8.6550  -15.3979   21.1471 C   0  0  2  0  0  0  0  0  0  0  0  0
    7.6116  -16.3931   21.0099 N   0  0  0  0  0  0  0  0  0  0  0  0
    9.2814  -15.4092   22.4995 C   0  0  0  0  0  0  0  0  0  0  0  0
   10.2141  -14.5862   22.6769 O   0  0  0  0  0  0  0  0  0  0  0  0
    8.9081  -16.2542   23.5582 N   0  0  0  0  0  0  0  0  0  0  0  0
    9.6648  -16.2057   24.8330 C   0  0  1  0  0  0  0  0  0  0  0  0
    8.6447  -16.4219   25.8983 C   0  0  0  0  0  0  0  0  0  0  0  0
    7.5884  -15.4082   25.9754 C   0  0  0  0  0  0  0  0  0  0  0  0
    6.2396  -15.6284   25.7445 C   0  0  0  0  0  0  0  0  0  0  0  0
    5.5699  -14.4669   25.8814 N   0  0  0  0  0  0  0  0  0  0  0  0
    6.4284  -13.4814   26.1956 C   0  0  0  0  0  0  0  0  0  0  0  0
    6.2199  -12.1321   26.4340 C   0  0  0  0  0  0  0  0  0  0  0  0
    7.2917  -11.3322   26.7415 C   0  0  0  0  0  0  0  0  0  0  0  0
    8.5639  -11.9037   26.8050 C   0  0  0  0  0  0  0  0  0  0  0  0
    8.7549  -13.2507   26.5646 C   0  0  0  0  0  0  0  0  0  0  0  0
    7.6723  -14.0577   26.2543 C   0  0  0  0  0  0  0  0  0  0  0  0
   10.7821  -17.1301   24.7757 C   0  0  0  0  0  0  0  0  0  0  0  0
   10.5750  -18.3447   24.5047 O   0  0  0  0  0  0  0  0  0  0  0  0
   14.4885  -14.9593   23.1284 N   0  0  0  0  0  0  0  0  0  0  0  0
   14.3582  -16.3858   23.2360 C   0  0  0  0  0  0  0  0  0  0  0  0
   14.1806  -17.0150   22.1694 O   0  0  0  0  0  0  0  0  0  0  0  0
   14.4434  -16.9742   24.5679 C   0  0  0  0  0  0  0  0  0  0  0  0
   13.1962  -17.7844   24.9098 C   0  0  2  0  0  0  0  0  0  0  0  0
   12.1259  -16.7555   25.0031 N   0  0  0  0  0  0  0  0  0  0  0  0
   13.3861  -18.3453   26.2560 C   0  0  0  0  0  0  0  0  0  0  0  0
   14.2696  -19.1899   26.5314 O   0  0  0  0  0  0  0  0  0  0  0  0
   12.5759  -17.9496   27.2964 O   0  0  0  0  0  0  0  0  0  0  0  0
  1  2  1  0
  3  2  1  0
  4  3  1  0
  5  4  1  0
  5  6  1  1
  7  5  1  0
  8  7  2  0
  9  7  1  0
 10  9  1  0
 10 11  1  1
 11 12  1  0
 12 20  1  0
 12 13  2  0
 13 14  1  0
 15 14  1  0
 15 16  2  0
 17 16  1  0
 18 17  2  0
 19 20  2  0
 19 18  1  0
 20 15  1  0
 21 28  1  0
 21 10  1  0
 22 21  2  0
 23 24  1  0
 24 25  2  0
 26 24  1  0
 27 26  1  1
 27 28  1  0
 29 31  1  0
 29 27  1  0
 30 29  2  0
M  END
$$$$
