MWN.pdb
     RDKit          3D

 31 32  0  0  1  0  0  0  0  0999 V2000
    7.3510  -11.6730   19.4647 C   0  0  0  0  0  0  0  0  0  0  0  0
    6.9233  -12.9833   18.2873 S   0  0  0  0  0  0  0  0  0  0  0  0
    7.2735  -14.5759   19.0875 C   0  0  0  0  0  0  0  0  0  0  0  0
    8.2206  -14.4112   20.2525 C   0  0  0  0  0  0  0  0  0  0  0  0
    8.5817  -15.7990   20.7492 C   0  0  2  0  0  0  0  0  0  0  0  0
    7.3534  -16.5484   20.9153 N   0  0  0  0  0  0  0  0  0  0  0  0
    9.3792  -15.7225   22.0061 C   0  0  0  0  0  0  0  0  0  0  0  0
   10.4516  -15.0719   21.9345 O   0  0  0  0  0  0  0  0  0  0  0  0
    9.0207  -16.3123   23.2301 N   0  0  0  0  0  0  0  0  0  0  0  0
    9.8444  -16.0510   24.4356 C   0  0  1  0  0  0  0  0  0  0  0  0
    8.9385  -16.3158   25.5895 C   0  0  0  0  0  0  0  0  0  0  0  0
    7.7508  -15.4600   25.6685 C   0  0  0  0  0  0  0  0  0  0  0  0
    6.4377  -15.8886   25.5531 C   0  0  0  0  0  0  0  0  0  0  0  0
    5.6134  -14.8269   25.6525 N   0  0  0  0  0  0  0  0  0  0  0  0
    6.3345  -13.7065   25.8300 C   0  0  0  0  0  0  0  0  0  0  0  0
    5.9439  -12.3855   25.9831 C   0  0  0  0  0  0  0  0  0  0  0  0
    6.9026  -11.4183   26.1521 C   0  0  0  0  0  0  0  0  0  0  0  0
    8.2468  -11.7955   26.1648 C   0  0  0  0  0  0  0  0  0  0  0  0
    8.6195  -13.1168   26.0109 C   0  0  0  0  0  0  0  0  0  0  0  0
    7.6511  -14.0928   25.8404 C   0  0  0  0  0  0  0  0  0  0  0  0
   11.0776  -16.8125   24.3616 C   0  0  0  0  0  0  0  0  0  0  0  0
   11.0309  -18.0652   24.2201 O   0  0  0  0  0  0  0  0  0  0  0  0
   16.1634  -17.6407   22.6481 N   0  0  0  0  0  0  0  0  0  0  0  0
   15.9634  -16.7555   23.7616 C   0  0  0  0  0  0  0  0  0  0  0  0
   16.9276  -16.6139   24.5460 O   0  0  0  0  0  0  0  0  0  0  0  0
   14.6645  -16.1028   23.8818 C   0  0  0  0  0  0  0  0  0  0  0  0
   13.5637  -17.0950   24.2457 C   0  0  2  0  0  0  0  0  0  0  0  0
   12.3653  -16.2340   24.4333 N   0  0  0  0  0  0  0  0  0  0  0  0
   13.9008  -17.6717   25.5560 C   0  0  0  0  0  0  0  0  0  0  0  0
   14.6334  -18.6782   25.6971 O   0  0  0  0  0  0  0  0  0  0  0  0
   13.4098  -17.1085   26.7122 O   0  0  0  0  0  0  0  0  0  0  0  0
  1  2  1  0
  3  2  1  0
  4  3  1  0
  5  4  1  0
  5  6  1  1
  7  5  1  0
  8  7  2  0
  9  7  1  0
 10  9  1  0
 10 11  1  1
 11 12  1  0
 12 20  1  0
 12 13  2  0
 13 14  1  0
 15 14  1  0
 15 16  2  0
 17 16  1  0
 18 17  2  0
 19 20  2  0
 19 18  1  0
 20 15  1  0
 21 28  1  0
 21 10  1  0
 22 21  2  0
 23 24  1  0
 24 25  2  0
 26 24  1  0
 27 26  1  1
 27 28  1  0
 29 31  1  0
 29 27  1  0
 30 29  2  0
M  END
$$$$
