MWN.pdb
     RDKit          3D

 31 32  0  0  1  0  0  0  0  0999 V2000
    6.6315  -12.3736   17.6114 C   0  0  0  0  0  0  0  0  0  0  0  0
    7.8359  -12.3718   18.9663 S   0  0  0  0  0  0  0  0  0  0  0  0
    7.9661  -14.0738   19.5870 C   0  0  0  0  0  0  0  0  0  0  0  0
    8.9345  -14.1668   20.7424 C   0  0  0  0  0  0  0  0  0  0  0  0
    9.0387  -15.6287   21.1363 C   0  0  2  0  0  0  0  0  0  0  0  0
    7.7227  -16.2208   21.0109 N   0  0  0  0  0  0  0  0  0  0  0  0
    9.6005  -15.7701   22.5096 C   0  0  0  0  0  0  0  0  0  0  0  0
   10.7045  -15.2046   22.7095 O   0  0  0  0  0  0  0  0  0  0  0  0
    8.9943  -16.4728   23.5646 N   0  0  0  0  0  0  0  0  0  0  0  0
    9.5886  -16.4080   24.9220 C   0  0  1  0  0  0  0  0  0  0  0  0
    8.4415  -16.5877   25.8570 C   0  0  0  0  0  0  0  0  0  0  0  0
    7.4354  -15.5217   25.8334 C   0  0  0  0  0  0  0  0  0  0  0  0
    6.0926  -15.6853   25.5313 C   0  0  0  0  0  0  0  0  0  0  0  0
    5.4760  -14.4881   25.5846 N   0  0  0  0  0  0  0  0  0  0  0  0
    6.3640  -13.5336   25.9121 C   0  0  0  0  0  0  0  0  0  0  0  0
    6.2109  -12.1672   26.0871 C   0  0  0  0  0  0  0  0  0  0  0  0
    7.3025  -11.4086   26.4274 C   0  0  0  0  0  0  0  0  0  0  0  0
    8.5383  -12.0380   26.5876 C   0  0  0  0  0  0  0  0  0  0  0  0
    8.6741  -13.4013   26.4095 C   0  0  0  0  0  0  0  0  0  0  0  0
    7.5716  -14.1667   26.0660 C   0  0  0  0  0  0  0  0  0  0  0  0
   10.6892  -17.3487   25.0210 C   0  0  0  0  0  0  0  0  0  0  0  0
   10.6248  -18.4521   24.4127 O   0  0  0  0  0  0  0  0  0  0  0  0
   13.8765  -17.9125   23.5059 N   0  0  0  0  0  0  0  0  0  0  0  0
   14.7105  -17.4262   24.5697 C   0  0  0  0  0  0  0  0  0  0  0  0
   15.8243  -16.9608   24.2413 O   0  0  0  0  0  0  0  0  0  0  0  0
   14.1923  -17.5158   25.9302 C   0  0  0  0  0  0  0  0  0  0  0  0
   12.8369  -18.2155   25.9750 C   0  0  2  0  0  0  0  0  0  0  0  0
   11.8652  -17.1085   25.7675 N   0  0  0  0  0  0  0  0  0  0  0  0
   12.6429  -18.7209   27.3424 C   0  0  0  0  0  0  0  0  0  0  0  0
   13.3057  -19.6674   27.8269 O   0  0  0  0  0  0  0  0  0  0  0  0
   11.6975  -18.1542   28.1672 O   0  0  0  0  0  0  0  0  0  0  0  0
  1  2  1  0
  3  2  1  0
  4  3  1  0
  5  4  1  0
  5  6  1  1
  7  5  1  0
  8  7  2  0
  9  7  1  0
 10  9  1  0
 10 11  1  1
 11 12  1  0
 12 20  1  0
 12 13  2  0
 13 14  1  0
 15 14  1  0
 15 16  2  0
 17 16  1  0
 18 17  2  0
 19 20  2  0
 19 18  1  0
 20 15  1  0
 21 28  1  0
 21 10  1  0
 22 21  2  0
 23 24  1  0
 24 25  2  0
 26 24  1  0
 27 26  1  1
 27 28  1  0
 29 31  1  0
 29 27  1  0
 30 29  2  0
M  END
$$$$
