MWN.pdb
     RDKit          3D

 31 32  0  0  1  0  0  0  0  0999 V2000
    7.7214  -11.8903   17.9107 C   0  0  0  0  0  0  0  0  0  0  0  0
    7.9902  -13.1728   16.6581 S   0  0  0  0  0  0  0  0  0  0  0  0
    8.5255  -14.6789   17.5208 C   0  0  0  0  0  0  0  0  0  0  0  0
    9.3139  -14.3501   18.7665 C   0  0  0  0  0  0  0  0  0  0  0  0
    9.6265  -15.6583   19.4694 C   0  0  2  0  0  0  0  0  0  0  0  0
    8.6696  -16.6481   19.0190 N   0  0  0  0  0  0  0  0  0  0  0  0
    9.6133  -15.4825   20.9494 C   0  0  0  0  0  0  0  0  0  0  0  0
   10.5171  -14.7480   21.4208 O   0  0  0  0  0  0  0  0  0  0  0  0
    8.6835  -16.0664   21.8264 N   0  0  0  0  0  0  0  0  0  0  0  0
    8.6978  -15.6913   23.2613 C   0  0  1  0  0  0  0  0  0  0  0  0
    7.2626  -15.5601   23.6425 C   0  0  0  0  0  0  0  0  0  0  0  0
    7.0120  -15.1922   25.0393 C   0  0  0  0  0  0  0  0  0  0  0  0
    6.6489  -16.0664   26.0517 C   0  0  0  0  0  0  0  0  0  0  0  0
    6.4804  -15.3752   27.1964 N   0  0  0  0  0  0  0  0  0  0  0  0
    6.7194  -14.0705   26.9790 C   0  0  0  0  0  0  0  0  0  0  0  0
    6.6766  -12.9808   27.8346 C   0  0  0  0  0  0  0  0  0  0  0  0
    6.9712  -11.7329   27.3457 C   0  0  0  0  0  0  0  0  0  0  0  0
    7.3064  -11.5982   25.9972 C   0  0  0  0  0  0  0  0  0  0  0  0
    7.3445  -12.6946   25.1575 C   0  0  0  0  0  0  0  0  0  0  0  0
    7.0470  -13.9543   25.6517 C   0  0  0  0  0  0  0  0  0  0  0  0
    9.5069  -16.6372   24.0075 C   0  0  0  0  0  0  0  0  0  0  0  0
    9.3756  -17.8742   23.7971 O   0  0  0  0  0  0  0  0  0  0  0  0
   12.8498  -18.1454   23.6981 N   0  0  0  0  0  0  0  0  0  0  0  0
   13.4730  -17.2612   24.6433 C   0  0  0  0  0  0  0  0  0  0  0  0
   14.6804  -16.9959   24.4517 O   0  0  0  0  0  0  0  0  0  0  0  0
   12.6522  -16.7526   25.7366 C   0  0  0  0  0  0  0  0  0  0  0  0
   11.2345  -17.3154   25.6896 C   0  0  2  0  0  0  0  0  0  0  0  0
   10.4635  -16.2611   24.9778 N   0  0  0  0  0  0  0  0  0  0  0  0
   10.7326  -17.3709   27.0709 C   0  0  0  0  0  0  0  0  0  0  0  0
    9.8826  -16.5713   27.5270 O   0  0  0  0  0  0  0  0  0  0  0  0
   11.1911  -18.3345   27.9406 O   0  0  0  0  0  0  0  0  0  0  0  0
  1  2  1  0
  3  2  1  0
  4  3  1  0
  5  4  1  0
  5  6  1  1
  7  5  1  0
  8  7  2  0
  9  7  1  0
 10  9  1  0
 10 11  1  1
 11 12  1  0
 12 20  1  0
 12 13  2  0
 13 14  1  0
 15 14  1  0
 15 16  2  0
 17 16  1  0
 18 17  2  0
 19 20  2  0
 19 18  1  0
 20 15  1  0
 21 28  1  0
 21 10  1  0
 22 21  2  0
 23 24  1  0
 24 25  2  0
 26 24  1  0
 27 26  1  1
 27 28  1  0
 29 31  1  0
 29 27  1  0
 30 29  2  0
M  END
$$$$
