MWN.pdb
     RDKit          3D

 31 32  0  0  1  0  0  0  0  0999 V2000
   13.9694  -17.2613   17.8645 C   0  0  0  0  0  0  0  0  0  0  0  0
   12.7115  -18.3177   17.0979 S   0  0  0  0  0  0  0  0  0  0  0  0
   11.0898  -17.5705   17.4315 C   0  0  0  0  0  0  0  0  0  0  0  0
   11.0731  -16.8618   18.7653 C   0  0  0  0  0  0  0  0  0  0  0  0
    9.6550  -16.3800   19.0103 C   0  0  2  0  0  0  0  0  0  0  0  0
    9.3302  -15.4066   17.9880 N   0  0  0  0  0  0  0  0  0  0  0  0
    9.5112  -15.8311   20.3885 C   0  0  0  0  0  0  0  0  0  0  0  0
   10.3603  -14.9683   20.7248 O   0  0  0  0  0  0  0  0  0  0  0  0
    8.5172  -16.2036   21.3093 N   0  0  0  0  0  0  0  0  0  0  0  0
    8.5644  -15.6677   22.6915 C   0  0  1  0  0  0  0  0  0  0  0  0
    7.1393  -15.4558   23.0745 C   0  0  0  0  0  0  0  0  0  0  0  0
    6.9126  -15.0607   24.4679 C   0  0  0  0  0  0  0  0  0  0  0  0
    6.4892  -15.9000   25.4865 C   0  0  0  0  0  0  0  0  0  0  0  0
    6.3670  -15.1900   26.6254 N   0  0  0  0  0  0  0  0  0  0  0  0
    6.6951  -13.9064   26.3984 C   0  0  0  0  0  0  0  0  0  0  0  0
    6.7259  -12.8096   27.2454 C   0  0  0  0  0  0  0  0  0  0  0  0
    7.1059  -11.5887   26.7475 C   0  0  0  0  0  0  0  0  0  0  0  0
    7.4513  -11.4878   25.3985 C   0  0  0  0  0  0  0  0  0  0  0  0
    7.4153  -12.5909   24.5675 C   0  0  0  0  0  0  0  0  0  0  0  0
    7.0316  -13.8233   25.0708 C   0  0  0  0  0  0  0  0  0  0  0  0
    9.3619  -16.5434   23.5301 C   0  0  0  0  0  0  0  0  0  0  0  0
    9.2302  -17.7942   23.4306 O   0  0  0  0  0  0  0  0  0  0  0  0
   13.2630  -15.5386   23.0976 N   0  0  0  0  0  0  0  0  0  0  0  0
   13.1646  -16.6767   23.9686 C   0  0  0  0  0  0  0  0  0  0  0  0
   13.6563  -17.7480   23.5496 O   0  0  0  0  0  0  0  0  0  0  0  0
   12.5055  -16.4881   25.2560 C   0  0  0  0  0  0  0  0  0  0  0  0
   11.0947  -17.0698   25.2605 C   0  0  2  0  0  0  0  0  0  0  0  0
   10.3072  -16.0825   24.4744 N   0  0  0  0  0  0  0  0  0  0  0  0
   10.6001  -17.0251   26.6449 C   0  0  0  0  0  0  0  0  0  0  0  0
    9.7031  -16.2399   27.0303 O   0  0  0  0  0  0  0  0  0  0  0  0
   11.1195  -17.8718   27.5980 O   0  0  0  0  0  0  0  0  0  0  0  0
  1  2  1  0
  3  2  1  0
  4  3  1  0
  5  4  1  0
  5  6  1  6
  7  5  1  0
  8  7  2  0
  9  7  1  0
 10  9  1  0
 10 11  1  1
 11 12  1  0
 12 20  1  0
 12 13  2  0
 13 14  1  0
 15 14  1  0
 15 16  2  0
 17 16  1  0
 18 17  2  0
 19 20  2  0
 19 18  1  0
 20 15  1  0
 21 28  1  0
 21 10  1  0
 22 21  2  0
 23 24  1  0
 24 25  2  0
 26 24  1  0
 27 26  1  1
 27 28  1  0
 29 31  1  0
 29 27  1  0
 30 29  2  0
M  END
$$$$
