MWN.pdb
     RDKit          3D

 31 32  0  0  1  0  0  0  0  0999 V2000
    7.8577  -11.7203   19.6790 C   0  0  0  0  0  0  0  0  0  0  0  0
    7.0665  -12.9245   18.5790 S   0  0  0  0  0  0  0  0  0  0  0  0
    6.9966  -14.5106   19.4614 C   0  0  0  0  0  0  0  0  0  0  0  0
    7.6192  -14.4062   20.8335 C   0  0  0  0  0  0  0  0  0  0  0  0
    8.3758  -15.6959   21.0926 C   0  0  2  0  0  0  0  0  0  0  0  0
    7.4202  -16.7845   21.0858 N   0  0  0  0  0  0  0  0  0  0  0  0
    9.1414  -15.6154   22.3690 C   0  0  0  0  0  0  0  0  0  0  0  0
   10.0399  -14.7383   22.4132 O   0  0  0  0  0  0  0  0  0  0  0  0
    8.9303  -16.4315   23.4932 N   0  0  0  0  0  0  0  0  0  0  0  0
    9.7614  -16.2337   24.7056 C   0  0  1  0  0  0  0  0  0  0  0  0
    8.8357  -16.4597   25.8520 C   0  0  0  0  0  0  0  0  0  0  0  0
    7.6528  -15.5944   25.8876 C   0  0  0  0  0  0  0  0  0  0  0  0
    6.3469  -16.0025   25.6656 C   0  0  0  0  0  0  0  0  0  0  0  0
    5.5270  -14.9367   25.7550 N   0  0  0  0  0  0  0  0  0  0  0  0
    6.2440  -13.8332   26.0290 C   0  0  0  0  0  0  0  0  0  0  0  0
    5.8552  -12.5155   26.2125 C   0  0  0  0  0  0  0  0  0  0  0  0
    6.8086  -11.5675   26.4874 C   0  0  0  0  0  0  0  0  0  0  0  0
    8.1455  -11.9603   26.5743 C   0  0  0  0  0  0  0  0  0  0  0  0
    8.5164  -13.2781   26.3889 C   0  0  0  0  0  0  0  0  0  0  0  0
    7.5535  -14.2347   26.1114 C   0  0  0  0  0  0  0  0  0  0  0  0
   10.9486  -17.0648   24.6274 C   0  0  0  0  0  0  0  0  0  0  0  0
   10.8293  -18.3157   24.5146 O   0  0  0  0  0  0  0  0  0  0  0  0
   13.6094  -16.7776   22.0646 N   0  0  0  0  0  0  0  0  0  0  0  0
   14.6353  -16.2414   22.9153 C   0  0  0  0  0  0  0  0  0  0  0  0
   15.4753  -15.4881   22.3750 O   0  0  0  0  0  0  0  0  0  0  0  0
   14.6105  -16.6177   24.3243 C   0  0  0  0  0  0  0  0  0  0  0  0
   13.4140  -17.5063   24.6522 C   0  0  2  0  0  0  0  0  0  0  0  0
   12.2677  -16.5584   24.6641 N   0  0  0  0  0  0  0  0  0  0  0  0
   13.5908  -18.0004   26.0261 C   0  0  0  0  0  0  0  0  0  0  0  0
   12.8846  -17.6226   26.9897 O   0  0  0  0  0  0  0  0  0  0  0  0
   14.5683  -18.9264   26.3132 O   0  0  0  0  0  0  0  0  0  0  0  0
  1  2  1  0
  3  2  1  0
  4  3  1  0
  5  4  1  0
  5  6  1  1
  7  5  1  0
  8  7  2  0
  9  7  1  0
 10  9  1  0
 10 11  1  1
 11 12  1  0
 12 20  1  0
 12 13  2  0
 13 14  1  0
 15 14  1  0
 15 16  2  0
 17 16  1  0
 18 17  2  0
 19 20  2  0
 19 18  1  0
 20 15  1  0
 21 28  1  0
 21 10  1  0
 22 21  2  0
 23 24  1  0
 24 25  2  0
 26 24  1  0
 27 26  1  1
 27 28  1  0
 29 31  1  0
 29 27  1  0
 30 29  2  0
M  END
$$$$
