MWN.pdb
     RDKit          3D

 31 32  0  0  1  0  0  0  0  0999 V2000
    7.8376  -11.6606   19.7917 C   0  0  0  0  0  0  0  0  0  0  0  0
    7.1906  -12.8691   18.6054 S   0  0  0  0  0  0  0  0  0  0  0  0
    7.4486  -14.5229   19.3109 C   0  0  0  0  0  0  0  0  0  0  0  0
    8.2218  -14.4552   20.6066 C   0  0  0  0  0  0  0  0  0  0  0  0
    8.5512  -15.8782   21.0185 C   0  0  2  0  0  0  0  0  0  0  0  0
    7.3312  -16.6564   20.9544 N   0  0  0  0  0  0  0  0  0  0  0  0
    9.1782  -15.9083   22.3704 C   0  0  0  0  0  0  0  0  0  0  0  0
   10.2062  -15.2000   22.5122 O   0  0  0  0  0  0  0  0  0  0  0  0
    8.7086  -16.6542   23.4647 N   0  0  0  0  0  0  0  0  0  0  0  0
    9.4925  -16.6763   24.7237 C   0  0  1  0  0  0  0  0  0  0  0  0
    8.4792  -16.8034   25.8096 C   0  0  0  0  0  0  0  0  0  0  0  0
    7.5034  -15.7124   25.8927 C   0  0  0  0  0  0  0  0  0  0  0  0
    6.1655  -15.7973   25.5406 C   0  0  0  0  0  0  0  0  0  0  0  0
    5.5803  -14.5974   25.7255 N   0  0  0  0  0  0  0  0  0  0  0  0
    6.4845  -13.7172   26.1887 C   0  0  0  0  0  0  0  0  0  0  0  0
    6.3637  -12.3783   26.5262 C   0  0  0  0  0  0  0  0  0  0  0  0
    7.4657  -11.7002   26.9831 C   0  0  0  0  0  0  0  0  0  0  0  0
    8.6791  -12.3816   27.0947 C   0  0  0  0  0  0  0  0  0  0  0  0
    8.7828  -13.7165   26.7541 C   0  0  0  0  0  0  0  0  0  0  0  0
    7.6698  -14.4006   26.2929 C   0  0  0  0  0  0  0  0  0  0  0  0
   10.5215  -17.6965   24.6429 C   0  0  0  0  0  0  0  0  0  0  0  0
   10.2143  -18.8672   24.2870 O   0  0  0  0  0  0  0  0  0  0  0  0
   15.3768  -19.5403   22.9029 N   0  0  0  0  0  0  0  0  0  0  0  0
   15.2447  -18.7467   24.0929 C   0  0  0  0  0  0  0  0  0  0  0  0
   16.1332  -18.8870   24.9623 O   0  0  0  0  0  0  0  0  0  0  0  0
   14.0960  -17.8526   24.1856 C   0  0  0  0  0  0  0  0  0  0  0  0
   12.8690  -18.5637   24.7491 C   0  0  2  0  0  0  0  0  0  0  0  0
   11.8844  -17.4648   24.9378 N   0  0  0  0  0  0  0  0  0  0  0  0
   13.2233  -19.0710   26.0833 C   0  0  0  0  0  0  0  0  0  0  0  0
   12.9727  -18.4526   27.1438 O   0  0  0  0  0  0  0  0  0  0  0  0
   13.8620  -20.2828   26.2209 O   0  0  0  0  0  0  0  0  0  0  0  0
  1  2  1  0
  3  2  1  0
  4  3  1  0
  5  4  1  0
  5  6  1  1
  7  5  1  0
  8  7  2  0
  9  7  1  0
 10  9  1  0
 10 11  1  1
 11 12  1  0
 12 20  1  0
 12 13  2  0
 13 14  1  0
 15 14  1  0
 15 16  2  0
 17 16  1  0
 18 17  2  0
 19 20  2  0
 19 18  1  0
 20 15  1  0
 21 28  1  0
 21 10  1  0
 22 21  2  0
 23 24  1  0
 24 25  2  0
 26 24  1  0
 27 26  1  1
 27 28  1  0
 29 31  1  0
 29 27  1  0
 30 29  2  0
M  END
$$$$
