MWN.pdb
     RDKit          3D

 31 32  0  0  1  0  0  0  0  0999 V2000
    7.0533  -11.8019   19.6388 C   0  0  0  0  0  0  0  0  0  0  0  0
    6.9236  -13.0599   18.3401 S   0  0  0  0  0  0  0  0  0  0  0  0
    7.2605  -14.6734   19.1033 C   0  0  0  0  0  0  0  0  0  0  0  0
    8.0890  -14.5278   20.3578 C   0  0  0  0  0  0  0  0  0  0  0  0
    8.4353  -15.9235   20.8428 C   0  0  2  0  0  0  0  0  0  0  0  0
    7.2057  -16.6838   20.9329 N   0  0  0  0  0  0  0  0  0  0  0  0
    9.1697  -15.8686   22.1386 C   0  0  0  0  0  0  0  0  0  0  0  0
   10.2214  -15.1813   22.1423 O   0  0  0  0  0  0  0  0  0  0  0  0
    8.7746  -16.5155   23.3218 N   0  0  0  0  0  0  0  0  0  0  0  0
    9.6405  -16.4332   24.5232 C   0  0  1  0  0  0  0  0  0  0  0  0
    8.7261  -16.6658   25.6773 C   0  0  0  0  0  0  0  0  0  0  0  0
    7.5903  -15.7443   25.7780 C   0  0  0  0  0  0  0  0  0  0  0  0
    6.2729  -16.0505   25.4751 C   0  0  0  0  0  0  0  0  0  0  0  0
    5.5082  -14.9566   25.6618 N   0  0  0  0  0  0  0  0  0  0  0  0
    6.2731  -13.9330   26.0788 C   0  0  0  0  0  0  0  0  0  0  0  0
    5.9489  -12.6241   26.3994 C   0  0  0  0  0  0  0  0  0  0  0  0
    6.9414  -11.7682   26.8062 C   0  0  0  0  0  0  0  0  0  0  0  0
    8.2518  -12.2432   26.8852 C   0  0  0  0  0  0  0  0  0  0  0  0
    8.5583  -13.5510   26.5620 C   0  0  0  0  0  0  0  0  0  0  0  0
    7.5559  -14.4146   26.1514 C   0  0  0  0  0  0  0  0  0  0  0  0
   10.7735  -17.3277   24.3734 C   0  0  0  0  0  0  0  0  0  0  0  0
   10.7023  -18.2971   23.5692 O   0  0  0  0  0  0  0  0  0  0  0  0
   15.0703  -18.7492   22.0993 N   0  0  0  0  0  0  0  0  0  0  0  0
   15.0592  -17.7177   23.0990 C   0  0  0  0  0  0  0  0  0  0  0  0
   16.1713  -17.3508   23.5390 O   0  0  0  0  0  0  0  0  0  0  0  0
   13.7635  -17.1905   23.5124 C   0  0  0  0  0  0  0  0  0  0  0  0
   13.1713  -17.9879   24.6710 C   0  0  2  0  0  0  0  0  0  0  0  0
   11.9890  -17.1836   25.0804 N   0  0  0  0  0  0  0  0  0  0  0  0
   14.1375  -17.9456   25.7791 C   0  0  0  0  0  0  0  0  0  0  0  0
   14.1000  -17.0890   26.6926 O   0  0  0  0  0  0  0  0  0  0  0  0
   15.1494  -18.8757   25.8570 O   0  0  0  0  0  0  0  0  0  0  0  0
  1  2  1  0
  3  2  1  0
  4  3  1  0
  5  4  1  0
  5  6  1  1
  7  5  1  0
  8  7  2  0
  9  7  1  0
 10  9  1  0
 10 11  1  1
 11 12  1  0
 12 20  1  0
 12 13  2  0
 13 14  1  0
 15 14  1  0
 15 16  2  0
 17 16  1  0
 18 17  2  0
 19 20  2  0
 19 18  1  0
 20 15  1  0
 21 28  1  0
 21 10  1  0
 22 21  2  0
 23 24  1  0
 24 25  2  0
 26 24  1  0
 27 26  1  6
 27 28  1  0
 29 31  1  0
 29 27  1  0
 30 29  2  0
M  END
$$$$
