MCC.pdb
     RDKit          3D

 21 20  0  0  1  0  0  0  0  0999 V2000
    9.5937  -13.0095   18.2457 C   0  0  0  0  0  0  0  0  0  0  0  0
    8.2021  -12.3832   19.2443 S   0  0  0  0  0  0  0  0  0  0  0  0
    7.7434  -13.6135   20.5172 C   0  0  0  0  0  0  0  0  0  0  0  0
    6.9896  -14.7379   19.8390 C   0  0  0  0  0  0  0  0  0  0  0  0
    7.7184  -16.0289   20.0690 C   0  0  2  0  0  0  0  0  0  0  0  0
    7.0938  -17.1688   19.4562 N   0  0  0  0  0  0  0  0  0  0  0  0
    7.9072  -16.2649   21.5326 C   0  0  0  0  0  0  0  0  0  0  0  0
    6.9569  -16.5943   22.2861 O   0  0  0  0  0  0  0  0  0  0  0  0
    9.1673  -16.1346   22.1740 N   0  0  0  0  0  0  0  0  0  0  0  0
    9.3502  -16.3814   23.5575 C   0  0  1  0  0  0  0  0  0  0  0  0
   10.6731  -17.1486   23.7025 C   0  0  0  0  0  0  0  0  0  0  0  0
   10.9028  -17.6875   25.4197 S   0  0  0  0  0  0  0  0  0  0  0  0
    9.3859  -15.2282   24.4298 C   0  0  0  0  0  0  0  0  0  0  0  0
    9.4296  -14.0495   24.0105 O   0  0  0  0  0  0  0  0  0  0  0  0
    9.3715  -15.4051   25.8358 N   0  0  0  0  0  0  0  0  0  0  0  0
    8.9821  -14.3330   26.7215 C   0  0  1  0  0  0  0  0  0  0  0  0
    7.5084  -13.9936   26.4923 C   0  0  0  0  0  0  0  0  0  0  0  0
    6.9870  -12.7733   27.7103 S   0  0  0  0  0  0  0  0  0  0  0  0
    9.2549  -14.6400   28.1342 C   0  0  0  0  0  0  0  0  0  0  0  0
    9.8635  -13.6721   28.9178 O   0  0  0  0  0  0  0  0  0  0  0  0
    8.9670  -15.7349   28.6769 O   0  0  0  0  0  0  0  0  0  0  0  0
  2  1  1  0
  3  2  1  0
  3  4  1  0
  4  5  1  0
  5  7  1  0
  5  6  1  1
  7  8  2  0
  9  7  1  0
  9 10  1  0
 10 13  1  0
 10 11  1  6
 12 11  1  0
 13 14  2  0
 15 13  1  0
 15 16  1  0
 16 19  1  0
 16 17  1  1
 18 17  1  0
 19 21  2  0
 19 20  1  0
M  END
$$$$
