MCC.pdb
     RDKit          3D

 21 20  0  0  1  0  0  0  0  0999 V2000
    6.4225  -12.2754   26.4804 C   0  0  0  0  0  0  0  0  0  0  0  0
    7.7401  -13.4118   27.0270 S   0  0  0  0  0  0  0  0  0  0  0  0
    7.4399  -15.0856   26.3542 C   0  0  0  0  0  0  0  0  0  0  0  0
    6.5534  -14.9535   25.1340 C   0  0  0  0  0  0  0  0  0  0  0  0
    6.2651  -16.3192   24.5840 C   0  0  2  0  0  0  0  0  0  0  0  0
    5.9995  -17.3095   25.5908 N   0  0  0  0  0  0  0  0  0  0  0  0
    7.3805  -16.7675   23.6963 C   0  0  0  0  0  0  0  0  0  0  0  0
    7.1757  -17.4083   22.6348 O   0  0  0  0  0  0  0  0  0  0  0  0
    8.7451  -16.5033   23.9867 N   0  0  0  0  0  0  0  0  0  0  0  0
    9.7822  -16.7146   23.0442 C   0  0  1  0  0  0  0  0  0  0  0  0
    9.4629  -15.8360   21.8254 C   0  0  0  0  0  0  0  0  0  0  0  0
   10.7194  -16.0667   20.5370 S   0  0  0  0  0  0  0  0  0  0  0  0
   11.1316  -16.4293   23.4797 C   0  0  0  0  0  0  0  0  0  0  0  0
   11.4729  -15.3399   23.9935 O   0  0  0  0  0  0  0  0  0  0  0  0
   12.1438  -17.4102   23.3326 N   0  0  0  0  0  0  0  0  0  0  0  0
   13.0669  -17.7002   24.4046 C   0  0  1  0  0  0  0  0  0  0  0  0
   12.5344  -18.8715   25.2317 C   0  0  0  0  0  0  0  0  0  0  0  0
   12.9045  -18.5831   26.9708 S   0  0  0  0  0  0  0  0  0  0  0  0
   14.4328  -17.9545   23.9207 C   0  0  0  0  0  0  0  0  0  0  0  0
   15.4810  -17.8826   24.8247 O   0  0  0  0  0  0  0  0  0  0  0  0
   14.7081  -18.2349   22.7283 O   0  0  0  0  0  0  0  0  0  0  0  0
  2  1  1  0
  3  2  1  0
  3  4  1  0
  4  5  1  0
  5  7  1  0
  5  6  1  1
  7  8  2  0
  9  7  1  0
  9 10  1  0
 10 13  1  0
 10 11  1  6
 12 11  1  0
 13 14  2  0
 15 13  1  0
 15 16  1  0
 16 19  1  0
 16 17  1  6
 18 17  1  0
 19 21  2  0
 19 20  1  0
M  END
$$$$
