MCC.pdb
     RDKit          3D

 21 20  0  0  1  0  0  0  0  0999 V2000
   12.5339  -20.7860   33.1348 C   0  0  0  0  0  0  0  0  0  0  0  0
   12.6479  -20.3771   31.3612 S   0  0  0  0  0  0  0  0  0  0  0  0
   11.4396  -21.3695   30.4127 C   0  0  0  0  0  0  0  0  0  0  0  0
   11.5746  -21.0071   28.9488 C   0  0  0  0  0  0  0  0  0  0  0  0
   11.5747  -22.2629   28.1281 C   0  0  2  0  0  0  0  0  0  0  0  0
   12.6356  -23.1748   28.4570 N   0  0  0  0  0  0  0  0  0  0  0  0
   11.6084  -21.9312   26.6713 C   0  0  0  0  0  0  0  0  0  0  0  0
   12.6839  -21.7164   26.0579 O   0  0  0  0  0  0  0  0  0  0  0  0
   10.4336  -21.8351   25.8795 N   0  0  0  0  0  0  0  0  0  0  0  0
   10.4287  -21.2564   24.5858 C   0  0  1  0  0  0  0  0  0  0  0  0
    9.0826  -21.6184   23.9405 C   0  0  0  0  0  0  0  0  0  0  0  0
    8.9695  -20.9023   22.2773 S   0  0  0  0  0  0  0  0  0  0  0  0
   10.6089  -19.8234   24.5083 C   0  0  0  0  0  0  0  0  0  0  0  0
    9.9058  -19.0063   25.1447 O   0  0  0  0  0  0  0  0  0  0  0  0
   11.6234  -19.2827   23.6797 N   0  0  0  0  0  0  0  0  0  0  0  0
   11.9278  -17.8711   23.6930 C   0  0  1  0  0  0  0  0  0  0  0  0
   12.3000  -17.4443   25.1139 C   0  0  0  0  0  0  0  0  0  0  0  0
   11.9270  -15.6944   25.3219 S   0  0  0  0  0  0  0  0  0  0  0  0
   12.9761  -17.5100   22.7259 C   0  0  0  0  0  0  0  0  0  0  0  0
   13.3059  -16.1724   22.5737 O   0  0  0  0  0  0  0  0  0  0  0  0
   13.5948  -18.3477   22.0247 O   0  0  0  0  0  0  0  0  0  0  0  0
  2  1  1  0
  3  2  1  0
  3  4  1  0
  4  5  1  0
  5  7  1  0
  5  6  1  1
  7  8  2  0
  9  7  1  0
  9 10  1  0
 10 13  1  0
 10 11  1  1
 12 11  1  0
 13 14  2  0
 15 13  1  0
 15 16  1  0
 16 19  1  0
 16 17  1  1
 18 17  1  0
 19 21  2  0
 19 20  1  0
M  END
$$$$
