MCC.pdb
     RDKit          3D

 21 20  0  0  1  0  0  0  0  0999 V2000
    6.1564  -12.2297   27.0539 C   0  0  0  0  0  0  0  0  0  0  0  0
    6.8565  -13.1424   25.6387 S   0  0  0  0  0  0  0  0  0  0  0  0
    7.8880  -14.5284   26.2381 C   0  0  0  0  0  0  0  0  0  0  0  0
    7.0099  -15.7562   26.3545 C   0  0  0  0  0  0  0  0  0  0  0  0
    6.4882  -16.1196   24.9956 C   0  0  2  0  0  0  0  0  0  0  0  0
    5.5518  -17.2097   25.0024 N   0  0  0  0  0  0  0  0  0  0  0  0
    7.6208  -16.4141   24.0662 C   0  0  0  0  0  0  0  0  0  0  0  0
    8.3388  -17.4382   24.1886 O   0  0  0  0  0  0  0  0  0  0  0  0
    7.9657  -15.5625   22.9836 N   0  0  0  0  0  0  0  0  0  0  0  0
    9.0900  -15.7980   22.1536 C   0  0  1  0  0  0  0  0  0  0  0  0
    9.0583  -14.7330   21.0472 C   0  0  0  0  0  0  0  0  0  0  0  0
    7.5426  -14.8932   20.0629 S   0  0  0  0  0  0  0  0  0  0  0  0
   10.3899  -15.7688   22.7872 C   0  0  0  0  0  0  0  0  0  0  0  0
   10.8776  -14.7411   23.3097 O   0  0  0  0  0  0  0  0  0  0  0  0
   11.1781  -16.9455   22.8371 N   0  0  0  0  0  0  0  0  0  0  0  0
   12.4879  -16.9440   23.4454 C   0  0  1  0  0  0  0  0  0  0  0  0
   12.3660  -16.5370   24.9148 C   0  0  0  0  0  0  0  0  0  0  0  0
   11.0046  -17.4445   25.6681 S   0  0  0  0  0  0  0  0  0  0  0  0
   13.1820  -18.2324   23.2950 C   0  0  0  0  0  0  0  0  0  0  0  0
   14.5124  -18.3174   23.6746 O   0  0  0  0  0  0  0  0  0  0  0  0
   12.6372  -19.2679   22.8398 O   0  0  0  0  0  0  0  0  0  0  0  0
  2  1  1  0
  3  2  1  0
  3  4  1  0
  4  5  1  0
  5  7  1  0
  5  6  1  1
  7  8  2  0
  9  7  1  0
  9 10  1  0
 10 13  1  0
 10 11  1  6
 12 11  1  0
 13 14  2  0
 15 13  1  0
 15 16  1  0
 16 19  1  0
 16 17  1  1
 18 17  1  0
 19 21  2  0
 19 20  1  0
M  END
$$$$
