NVD.pdb
     RDKit          3D

 24 23  0  0  1  0  0  0  0  0999 V2000
    7.4742  -17.2396   13.6695 N   0  0  0  0  0  0  0  0  0  0  0  0
    7.3549  -17.3330   15.0769 C   0  0  0  0  0  0  0  0  0  0  0  0
    6.5028  -18.1537   15.5334 O   0  0  0  0  0  0  0  0  0  0  0  0
    8.2066  -16.4916   15.9390 C   0  0  0  0  0  0  0  0  0  0  0  0
    8.3399  -17.1287   17.2822 C   0  0  2  0  0  0  0  0  0  0  0  0
    6.9990  -17.3793   17.7776 N   0  0  0  0  0  0  0  0  0  0  0  0
    9.0133  -16.2449   18.2696 C   0  0  0  0  0  0  0  0  0  0  0  0
   10.2131  -15.9262   18.1205 O   0  0  0  0  0  0  0  0  0  0  0  0
    7.4387  -13.0180   19.5141 C   0  0  0  0  0  0  0  0  0  0  0  0
    7.9489  -13.7406   20.7290 C   0  0  1  0  0  0  0  0  0  0  0  0
    6.8199  -14.2767   21.5794 C   0  0  0  0  0  0  0  0  0  0  0  0
    8.9055  -14.8541   20.3905 C   0  0  2  0  0  0  0  0  0  0  0  0
    8.3207  -15.7306   19.4165 N   0  0  0  0  0  0  0  0  0  0  0  0
    9.3753  -15.5753   21.6060 C   0  0  0  0  0  0  0  0  0  0  0  0
    8.5276  -16.3195   22.1616 O   0  0  0  0  0  0  0  0  0  0  0  0
   10.6604  -15.4692   22.1370 N   0  0  0  0  0  0  0  0  0  0  0  0
   11.1684  -16.4200   23.1435 C   0  0  1  0  0  0  0  0  0  0  0  0
   11.0177  -17.8192   22.6755 C   0  0  0  0  0  0  0  0  0  0  0  0
   11.5032  -18.8620   23.5762 C   0  0  0  0  0  0  0  0  0  0  0  0
   11.9723  -18.6864   24.7237 O   0  0  0  0  0  0  0  0  0  0  0  0
   12.6130  -16.0921   23.4040 C   0  0  0  0  0  0  0  0  0  0  0  0
   13.3239  -15.3896   22.6586 O   0  0  0  0  0  0  0  0  0  0  0  0
   11.4646  -20.2142   23.1677 O   0  0  0  0  0  0  0  0  0  0  0  0
   13.2573  -16.5855   24.5483 O   0  0  0  0  0  0  0  0  0  0  0  0
  1  2  1  0
  2  3  2  0
  4  2  1  0
  5  4  1  0
  5  6  1  1
  7  5  1  0
  7  8  2  0
 10  9  1  6
 10 11  1  0
 10 12  1  0
 12 13  1  6
 13  7  1  0
 14 12  1  0
 15 14  2  0
 16 14  1  0
 17 16  1  0
 17 21  1  0
 17 18  1  6
 19 18  1  0
 20 19  2  0
 21 22  2  0
 21 24  1  0
 23 19  1  0
M  END
$$$$
