NVD.pdb
     RDKit          3D

 24 23  0  0  1  0  0  0  0  0999 V2000
    5.5532  -19.1538   16.7968 N   0  0  0  0  0  0  0  0  0  0  0  0
    6.9334  -18.8561   16.6970 C   0  0  0  0  0  0  0  0  0  0  0  0
    7.5379  -19.2512   15.6546 O   0  0  0  0  0  0  0  0  0  0  0  0
    7.6007  -18.1147   17.7841 C   0  0  0  0  0  0  0  0  0  0  0  0
    7.7540  -16.6832   17.3902 C   0  0  2  0  0  0  0  0  0  0  0  0
    8.6001  -16.6466   16.2117 N   0  0  0  0  0  0  0  0  0  0  0  0
    8.4271  -15.8713   18.4377 C   0  0  0  0  0  0  0  0  0  0  0  0
    9.1412  -14.8948   18.1215 O   0  0  0  0  0  0  0  0  0  0  0  0
    7.9695  -12.9389   21.7276 C   0  0  0  0  0  0  0  0  0  0  0  0
    7.7629  -13.9630   20.6474 C   0  0  1  0  0  0  0  0  0  0  0  0
    8.1074  -13.4159   19.2809 C   0  0  0  0  0  0  0  0  0  0  0  0
    8.5270  -15.2378   20.8939 C   0  0  2  0  0  0  0  0  0  0  0  0
    8.2846  -16.1734   19.8334 N   0  0  0  0  0  0  0  0  0  0  0  0
    8.2433  -15.8074   22.2405 C   0  0  0  0  0  0  0  0  0  0  0  0
    7.2621  -16.5909   22.3066 O   0  0  0  0  0  0  0  0  0  0  0  0
    8.9847  -15.5243   23.3871 N   0  0  0  0  0  0  0  0  0  0  0  0
   10.0125  -16.4503   23.8985 C   0  0  1  0  0  0  0  0  0  0  0  0
   10.9837  -16.8048   22.8352 C   0  0  0  0  0  0  0  0  0  0  0  0
   11.3568  -18.2141   22.7387 C   0  0  0  0  0  0  0  0  0  0  0  0
   11.0120  -19.1242   23.5263 O   0  0  0  0  0  0  0  0  0  0  0  0
   10.7022  -15.7840   25.0571 C   0  0  0  0  0  0  0  0  0  0  0  0
   11.2230  -14.6521   25.0138 O   0  0  0  0  0  0  0  0  0  0  0  0
   12.1827  -18.6490   21.6778 O   0  0  0  0  0  0  0  0  0  0  0  0
   10.7975  -16.4355   26.2959 O   0  0  0  0  0  0  0  0  0  0  0  0
  1  2  1  0
  2  3  2  0
  4  2  1  0
  5  4  1  0
  5  6  1  6
  7  5  1  0
  7  8  2  0
 10  9  1  1
 10 11  1  0
 10 12  1  0
 12 13  1  6
 13  7  1  0
 14 12  1  0
 15 14  2  0
 16 14  1  0
 17 16  1  0
 17 21  1  0
 17 18  1  6
 19 18  1  0
 20 19  2  0
 21 22  2  0
 21 24  1  0
 23 19  1  0
M  END
$$$$
