NVD.pdb
     RDKit          3D

 24 23  0  0  1  0  0  0  0  0999 V2000
    9.4361  -16.6277   17.4522 N   0  0  0  0  0  0  0  0  0  0  0  0
    8.2863  -16.2829   18.2023 C   0  0  0  0  0  0  0  0  0  0  0  0
    7.1718  -16.7282   17.7930 O   0  0  0  0  0  0  0  0  0  0  0  0
    8.4250  -15.4383   19.4041 C   0  0  0  0  0  0  0  0  0  0  0  0
    8.3312  -16.2905   20.6259 C   0  0  2  0  0  0  0  0  0  0  0  0
    6.9215  -16.4951   20.9038 N   0  0  0  0  0  0  0  0  0  0  0  0
    8.9235  -15.6394   21.8236 C   0  0  0  0  0  0  0  0  0  0  0  0
   10.0344  -15.0700   21.7515 O   0  0  0  0  0  0  0  0  0  0  0  0
    7.5364  -13.0473   24.1555 C   0  0  0  0  0  0  0  0  0  0  0  0
    7.9103  -14.2224   25.0142 C   0  0  1  0  0  0  0  0  0  0  0  0
    6.6911  -14.9605   25.5183 C   0  0  0  0  0  0  0  0  0  0  0  0
    8.8382  -15.1849   24.3197 C   0  0  2  0  0  0  0  0  0  0  0  0
    8.2515  -15.6395   23.0917 N   0  0  0  0  0  0  0  0  0  0  0  0
    9.2498  -16.3050   25.2108 C   0  0  0  0  0  0  0  0  0  0  0  0
    8.3788  -17.1882   25.4162 O   0  0  0  0  0  0  0  0  0  0  0  0
   10.5063  -16.4171   25.8053 N   0  0  0  0  0  0  0  0  0  0  0  0
   10.8733  -17.5776   26.6382 C   0  0  1  0  0  0  0  0  0  0  0  0
   12.2989  -17.9388   26.4467 C   0  0  0  0  0  0  0  0  0  0  0  0
   12.7289  -18.1831   25.0719 C   0  0  0  0  0  0  0  0  0  0  0  0
   12.0146  -18.6231   24.1425 O   0  0  0  0  0  0  0  0  0  0  0  0
   10.5954  -17.2249   28.0736 C   0  0  0  0  0  0  0  0  0  0  0  0
   10.3183  -16.0790   28.4790 O   0  0  0  0  0  0  0  0  0  0  0  0
   14.0652  -17.9163   24.6980 O   0  0  0  0  0  0  0  0  0  0  0  0
   10.6391  -18.2133   29.0682 O   0  0  0  0  0  0  0  0  0  0  0  0
  1  2  1  0
  2  3  2  0
  4  2  1  0
  5  4  1  0
  5  6  1  1
  7  5  1  0
  7  8  2  0
 10  9  1  6
 10 11  1  0
 10 12  1  0
 12 13  1  6
 13  7  1  0
 14 12  1  0
 15 14  2  0
 16 14  1  0
 17 16  1  0
 17 21  1  0
 17 18  1  1
 19 18  1  0
 20 19  2  0
 21 22  2  0
 21 24  1  0
 23 19  1  0
M  END
$$$$
