NVD.pdb
     RDKit          3D

 24 23  0  0  1  0  0  0  0  0999 V2000
    9.9385  -18.4248   14.3535 N   0  0  0  0  0  0  0  0  0  0  0  0
    8.9708  -17.8707   15.2255 C   0  0  0  0  0  0  0  0  0  0  0  0
    7.7609  -18.1969   15.0313 O   0  0  0  0  0  0  0  0  0  0  0  0
    9.3968  -16.9563   16.3021 C   0  0  0  0  0  0  0  0  0  0  0  0
    9.1282  -17.5876   17.6277 C   0  0  2  0  0  0  0  0  0  0  0  0
    7.6977  -17.8154   17.7169 N   0  0  0  0  0  0  0  0  0  0  0  0
    9.5033  -16.7082   18.7659 C   0  0  0  0  0  0  0  0  0  0  0  0
   10.7020  -16.4225   18.9781 O   0  0  0  0  0  0  0  0  0  0  0  0
    7.8102  -13.8518   22.5344 C   0  0  0  0  0  0  0  0  0  0  0  0
    7.5975  -14.6058   21.2520 C   0  0  1  0  0  0  0  0  0  0  0  0
    7.1336  -13.6973   20.1363 C   0  0  0  0  0  0  0  0  0  0  0  0
    8.8182  -15.3713   20.8122 C   0  0  2  0  0  0  0  0  0  0  0  0
    8.5166  -16.1609   19.6527 N   0  0  0  0  0  0  0  0  0  0  0  0
    9.4022  -16.1760   21.9211 C   0  0  0  0  0  0  0  0  0  0  0  0
    8.7941  -17.2397   22.2032 O   0  0  0  0  0  0  0  0  0  0  0  0
   10.5467  -15.8202   22.6340 N   0  0  0  0  0  0  0  0  0  0  0  0
   11.0666  -16.6496   23.7372 C   0  0  1  0  0  0  0  0  0  0  0  0
   12.5295  -16.4653   23.8959 C   0  0  0  0  0  0  0  0  0  0  0  0
   13.3608  -16.8490   22.7574 C   0  0  0  0  0  0  0  0  0  0  0  0
   13.1612  -17.8196   21.9920 O   0  0  0  0  0  0  0  0  0  0  0  0
   10.3357  -16.2621   24.9932 C   0  0  0  0  0  0  0  0  0  0  0  0
    9.7540  -15.1728   25.1651 O   0  0  0  0  0  0  0  0  0  0  0  0
   14.5108  -16.0907   22.4424 O   0  0  0  0  0  0  0  0  0  0  0  0
   10.2734  -17.1474   26.0797 O   0  0  0  0  0  0  0  0  0  0  0  0
  1  2  1  0
  2  3  2  0
  4  2  1  0
  5  4  1  0
  5  6  1  1
  7  5  1  0
  7  8  2  0
 10  9  1  1
 10 11  1  0
 10 12  1  0
 12 13  1  6
 13  7  1  0
 14 12  1  0
 15 14  2  0
 16 14  1  0
 17 16  1  0
 17 21  1  0
 17 18  1  1
 19 18  1  0
 20 19  2  0
 21 22  2  0
 21 24  1  0
 23 19  1  0
M  END
$$$$
