NVD.pdb
     RDKit          3D

 24 23  0  0  1  0  0  0  0  0999 V2000
    6.7170  -18.7387   18.5216 N   0  0  0  0  0  0  0  0  0  0  0  0
    7.9963  -19.2492   18.1951 C   0  0  0  0  0  0  0  0  0  0  0  0
    8.4469  -20.1893   18.9171 O   0  0  0  0  0  0  0  0  0  0  0  0
    8.7393  -18.6815   17.0540 C   0  0  0  0  0  0  0  0  0  0  0  0
    8.4338  -17.2254   16.9350 C   0  0  2  0  0  0  0  0  0  0  0  0
    9.0765  -16.7456   15.7255 N   0  0  0  0  0  0  0  0  0  0  0  0
    8.9821  -16.4322   18.0662 C   0  0  0  0  0  0  0  0  0  0  0  0
   10.2154  -16.3809   18.2655 O   0  0  0  0  0  0  0  0  0  0  0  0
    7.8692  -13.2084   21.7504 C   0  0  0  0  0  0  0  0  0  0  0  0
    7.5725  -13.8811   20.4398 C   0  0  1  0  0  0  0  0  0  0  0  0
    7.4347  -12.8819   19.3138 C   0  0  0  0  0  0  0  0  0  0  0  0
    8.5937  -14.9259   20.0723 C   0  0  2  0  0  0  0  0  0  0  0  0
    8.1278  -15.7045   18.9608 N   0  0  0  0  0  0  0  0  0  0  0  0
    8.9801  -15.7643   21.2411 C   0  0  0  0  0  0  0  0  0  0  0  0
    8.1510  -16.6476   21.5778 O   0  0  0  0  0  0  0  0  0  0  0  0
   10.1711  -15.6223   21.9525 N   0  0  0  0  0  0  0  0  0  0  0  0
   10.5521  -16.5566   23.0282 C   0  0  1  0  0  0  0  0  0  0  0  0
   12.0142  -16.5158   23.2735 C   0  0  0  0  0  0  0  0  0  0  0  0
   12.8702  -16.9653   22.1781 C   0  0  0  0  0  0  0  0  0  0  0  0
   12.5871  -17.8456   21.3340 O   0  0  0  0  0  0  0  0  0  0  0  0
    9.7877  -16.1754   24.2662 C   0  0  0  0  0  0  0  0  0  0  0  0
    9.1941  -15.0905   24.4244 O   0  0  0  0  0  0  0  0  0  0  0  0
   14.1486  -16.3884   22.0060 O   0  0  0  0  0  0  0  0  0  0  0  0
    9.7052  -17.0622   25.3501 O   0  0  0  0  0  0  0  0  0  0  0  0
  1  2  1  0
  2  3  2  0
  4  2  1  0
  5  4  1  0
  5  6  1  6
  7  5  1  0
  7  8  2  0
 10  9  1  1
 10 11  1  0
 10 12  1  0
 12 13  1  6
 13  7  1  0
 14 12  1  0
 15 14  2  0
 16 14  1  0
 17 16  1  0
 17 21  1  0
 17 18  1  1
 19 18  1  0
 20 19  2  0
 21 22  2  0
 21 24  1  0
 23 19  1  0
M  END
$$$$
