NVD.pdb
     RDKit          3D

 24 23  0  0  1  0  0  0  0  0999 V2000
    7.0504  -12.6620   18.2505 N   0  0  0  0  0  0  0  0  0  0  0  0
    7.7651  -13.6511   18.9679 C   0  0  0  0  0  0  0  0  0  0  0  0
    8.0095  -14.7404   18.3666 O   0  0  0  0  0  0  0  0  0  0  0  0
    8.1888  -13.3831   20.3554 C   0  0  0  0  0  0  0  0  0  0  0  0
    7.9935  -14.6104   21.1821 C   0  0  2  0  0  0  0  0  0  0  0  0
    6.5636  -14.8195   21.3157 N   0  0  0  0  0  0  0  0  0  0  0  0
    8.5453  -14.4684   22.5550 C   0  0  0  0  0  0  0  0  0  0  0  0
    9.7771  -14.3496   22.7340 O   0  0  0  0  0  0  0  0  0  0  0  0
    7.6216  -13.2124   27.2543 C   0  0  0  0  0  0  0  0  0  0  0  0
    7.1265  -13.5802   25.8840 C   0  0  1  0  0  0  0  0  0  0  0  0
    6.6155  -12.3744   25.1288 C   0  0  0  0  0  0  0  0  0  0  0  0
    8.1629  -14.2973   25.0587 C   0  0  2  0  0  0  0  0  0  0  0  0
    7.6962  -14.4624   23.7120 N   0  0  0  0  0  0  0  0  0  0  0  0
    8.5836  -15.5819   25.6841 C   0  0  0  0  0  0  0  0  0  0  0  0
    7.6684  -16.4230   25.8731 O   0  0  0  0  0  0  0  0  0  0  0  0
    9.8931  -15.8849   26.0557 N   0  0  0  0  0  0  0  0  0  0  0  0
   10.2542  -17.1883   26.6440 C   0  0  1  0  0  0  0  0  0  0  0  0
   11.6841  -17.5006   26.4050 C   0  0  0  0  0  0  0  0  0  0  0  0
   12.1228  -17.5146   25.0115 C   0  0  0  0  0  0  0  0  0  0  0  0
   11.4669  -17.9453   24.0358 O   0  0  0  0  0  0  0  0  0  0  0  0
    9.9543  -17.1317   28.1167 C   0  0  0  0  0  0  0  0  0  0  0  0
    9.4541  -18.0665   28.7727 O   0  0  0  0  0  0  0  0  0  0  0  0
   13.3975  -17.0073   24.6732 O   0  0  0  0  0  0  0  0  0  0  0  0
   10.2342  -15.9713   28.8536 O   0  0  0  0  0  0  0  0  0  0  0  0
  1  2  1  0
  2  3  2  0
  4  2  1  0
  5  4  1  0
  5  6  1  1
  7  5  1  0
  7  8  2  0
 10  9  1  1
 10 11  1  0
 10 12  1  0
 12 13  1  6
 13  7  1  0
 14 12  1  0
 15 14  2  0
 16 14  1  0
 17 16  1  0
 17 21  1  0
 17 18  1  1
 19 18  1  0
 20 19  2  0
 21 22  2  0
 21 24  1  0
 23 19  1  0
M  END
$$$$
