NVD.pdb
     RDKit          3D

 24 23  0  0  1  0  0  0  0  0999 V2000
    7.0557  -19.1195   15.9769 N   0  0  0  0  0  0  0  0  0  0  0  0
    7.3788  -19.6891   17.2319 C   0  0  0  0  0  0  0  0  0  0  0  0
    6.9891  -20.8764   17.4473 O   0  0  0  0  0  0  0  0  0  0  0  0
    8.1391  -18.8982   18.2184 C   0  0  0  0  0  0  0  0  0  0  0  0
    8.2460  -17.4854   17.7488 C   0  0  2  0  0  0  0  0  0  0  0  0
    9.1034  -17.4821   16.5779 N   0  0  0  0  0  0  0  0  0  0  0  0
    8.8784  -16.5946   18.7568 C   0  0  0  0  0  0  0  0  0  0  0  0
   10.1234  -16.5231   18.8475 O   0  0  0  0  0  0  0  0  0  0  0  0
    8.1182  -13.1181   22.2943 C   0  0  0  0  0  0  0  0  0  0  0  0
    7.6581  -13.9209   21.1103 C   0  0  1  0  0  0  0  0  0  0  0  0
    7.3503  -13.0409   19.9201 C   0  0  0  0  0  0  0  0  0  0  0  0
    8.6384  -14.9931   20.7118 C   0  0  2  0  0  0  0  0  0  0  0  0
    8.0940  -15.7931   19.6523 N   0  0  0  0  0  0  0  0  0  0  0  0
    9.0811  -15.8063   21.8784 C   0  0  0  0  0  0  0  0  0  0  0  0
    8.2769  -16.6929   22.2631 O   0  0  0  0  0  0  0  0  0  0  0  0
   10.2977  -15.6382   22.5390 N   0  0  0  0  0  0  0  0  0  0  0  0
   10.7007  -16.5051   23.6620 C   0  0  1  0  0  0  0  0  0  0  0  0
   12.1724  -16.4883   23.8440 C   0  0  0  0  0  0  0  0  0  0  0  0
   12.9749  -16.8912   22.6916 C   0  0  0  0  0  0  0  0  0  0  0  0
   12.7490  -17.8666   21.9399 O   0  0  0  0  0  0  0  0  0  0  0  0
    9.9995  -16.0169   24.8998 C   0  0  0  0  0  0  0  0  0  0  0  0
    9.4176  -14.9184   24.9958 O   0  0  0  0  0  0  0  0  0  0  0  0
   14.1256  -16.1479   22.3448 O   0  0  0  0  0  0  0  0  0  0  0  0
    9.9681  -16.8096   26.0568 O   0  0  0  0  0  0  0  0  0  0  0  0
  1  2  1  0
  2  3  2  0
  4  2  1  0
  5  4  1  0
  5  6  1  6
  7  5  1  0
  7  8  2  0
 10  9  1  1
 10 11  1  0
 10 12  1  0
 12 13  1  6
 13  7  1  0
 14 12  1  0
 15 14  2  0
 16 14  1  0
 17 16  1  0
 17 21  1  0
 17 18  1  1
 19 18  1  0
 20 19  2  0
 21 22  2  0
 21 24  1  0
 23 19  1  0
M  END
$$$$
