EAW.pdb
     RDKit          3D

 29 30  0  0  1  0  0  0  0  0999 V2000
    7.5812  -18.9507   21.3953 N   0  0  0  0  0  0  0  0  0  0  0  0
    8.7457  -19.1471   20.5831 C   0  0  1  0  0  0  0  0  0  0  0  0
    8.4358  -19.2261   19.1170 C   0  0  0  0  0  0  0  0  0  0  0  0
    7.4600  -20.3065   18.7470 C   0  0  0  0  0  0  0  0  0  0  0  0
    7.3448  -20.3123   17.2714 C   0  0  0  0  0  0  0  0  0  0  0  0
    7.9844  -19.4965   16.5937 O   0  0  0  0  0  0  0  0  0  0  0  0
    9.7688  -18.1587   20.9268 C   0  0  0  0  0  0  0  0  0  0  0  0
   10.6328  -17.7286   20.1076 O   0  0  0  0  0  0  0  0  0  0  0  0
    6.5240  -21.2264   16.6433 O   0  0  0  0  0  0  0  0  0  0  0  0
    9.7758  -15.2773   21.7763 C   0  0  0  0  0  0  0  0  0  0  0  0
   10.5560  -16.3612   22.4822 C   0  0  2  0  0  0  0  0  0  0  0  0
    9.8366  -17.6222   22.2419 N   0  0  0  0  0  0  0  0  0  0  0  0
   10.5608  -16.0859   23.9443 C   0  0  0  0  0  0  0  0  0  0  0  0
   11.1724  -15.0889   24.4167 O   0  0  0  0  0  0  0  0  0  0  0  0
    9.8823  -16.9344   24.8243 N   0  0  0  0  0  0  0  0  0  0  0  0
    9.9614  -16.8269   26.2992 C   0  0  1  0  0  0  0  0  0  0  0  0
    8.5519  -16.8254   26.7717 C   0  0  0  0  0  0  0  0  0  0  0  0
    7.6343  -15.8510   26.1915 C   0  0  0  0  0  0  0  0  0  0  0  0
    6.6369  -16.0806   25.2292 C   0  0  0  0  0  0  0  0  0  0  0  0
    6.0277  -14.9441   24.9260 N   0  0  0  0  0  0  0  0  0  0  0  0
    6.5561  -13.9326   25.6352 C   0  0  0  0  0  0  0  0  0  0  0  0
    6.3158  -12.5810   25.7369 C   0  0  0  0  0  0  0  0  0  0  0  0
    7.0407  -11.7884   26.5980 C   0  0  0  0  0  0  0  0  0  0  0  0
    8.0338  -12.3177   27.3900 C   0  0  0  0  0  0  0  0  0  0  0  0
    8.2699  -13.6670   27.2839 C   0  0  0  0  0  0  0  0  0  0  0  0
    7.5619  -14.4982   26.4284 C   0  0  0  0  0  0  0  0  0  0  0  0
   10.7843  -17.9435   26.7657 C   0  0  0  0  0  0  0  0  0  0  0  0
   11.0060  -18.1024   28.0052 O   0  0  0  0  0  0  0  0  0  0  0  0
   11.3549  -18.8806   25.8858 O   0  0  0  0  0  0  0  0  0  0  0  0
  2  1  1  1
  3  4  1  0
  3  2  1  0
  4  5  1  0
  5  9  1  0
  5  6  2  0
  7  8  2  0
  7  2  1  0
 11 10  1  6
 11 12  1  0
 11 13  1  0
 12  7  1  0
 13 15  1  0
 14 13  2  0
 15 16  1  0
 16 27  1  0
 16 17  1  1
 18 17  1  0
 19 18  2  0
 20 19  1  0
 21 20  1  0
 21 26  2  0
 22 23  2  0
 22 21  1  0
 23 24  1  0
 24 25  2  0
 26 25  1  0
 26 18  1  0
 27 28  2  0
 27 29  1  0
M  END
$$$$
