EAW.pdb
     RDKit          3D

 29 30  0  0  1  0  0  0  0  0999 V2000
   12.1098  -18.0239   18.7800 N   0  0  0  0  0  0  0  0  0  0  0  0
   11.5016  -16.7748   19.1322 C   0  0  1  0  0  0  0  0  0  0  0  0
   10.7153  -16.1642   18.0094 C   0  0  0  0  0  0  0  0  0  0  0  0
    9.8299  -17.1306   17.2755 C   0  0  0  0  0  0  0  0  0  0  0  0
    9.1079  -16.3658   16.2339 C   0  0  0  0  0  0  0  0  0  0  0  0
    7.9004  -16.5626   16.0416 O   0  0  0  0  0  0  0  0  0  0  0  0
   10.7516  -16.9171   20.3809 C   0  0  0  0  0  0  0  0  0  0  0  0
   10.1413  -15.9628   20.9459 O   0  0  0  0  0  0  0  0  0  0  0  0
    9.7766  -15.4298   15.4721 O   0  0  0  0  0  0  0  0  0  0  0  0
    9.7668  -19.8124   22.5243 C   0  0  0  0  0  0  0  0  0  0  0  0
    9.8388  -18.3317   22.2343 C   0  0  2  0  0  0  0  0  0  0  0  0
   10.6754  -18.1780   21.0336 N   0  0  0  0  0  0  0  0  0  0  0  0
   10.5061  -17.6433   23.3720 C   0  0  0  0  0  0  0  0  0  0  0  0
   11.7609  -17.5223   23.4138 O   0  0  0  0  0  0  0  0  0  0  0  0
    9.7467  -17.1155   24.4207 N   0  0  0  0  0  0  0  0  0  0  0  0
   10.3299  -16.4404   25.6027 C   0  0  1  0  0  0  0  0  0  0  0  0
    9.8378  -15.0390   25.5405 C   0  0  0  0  0  0  0  0  0  0  0  0
    8.3988  -14.8125   25.6176 C   0  0  0  0  0  0  0  0  0  0  0  0
    7.3744  -15.7687   25.5173 C   0  0  0  0  0  0  0  0  0  0  0  0
    6.1917  -15.1784   25.6044 N   0  0  0  0  0  0  0  0  0  0  0  0
    6.3467  -13.8532   25.7617 C   0  0  0  0  0  0  0  0  0  0  0  0
    5.4961  -12.7819   25.9164 C   0  0  0  0  0  0  0  0  0  0  0  0
    5.9789  -11.5029   26.0791 C   0  0  0  0  0  0  0  0  0  0  0  0
    7.3309  -11.2470   26.0931 C   0  0  0  0  0  0  0  0  0  0  0  0
    8.1751  -12.3196   25.9375 C   0  0  0  0  0  0  0  0  0  0  0  0
    7.7277  -13.6219   25.7706 C   0  0  0  0  0  0  0  0  0  0  0  0
    9.9155  -17.2053   26.7795 C   0  0  0  0  0  0  0  0  0  0  0  0
   10.3609  -16.9041   27.9292 O   0  0  0  0  0  0  0  0  0  0  0  0
    9.0186  -18.2856   26.7009 O   0  0  0  0  0  0  0  0  0  0  0  0
  2  1  1  6
  3  4  1  0
  3  2  1  0
  4  5  1  0
  5  9  1  0
  5  6  2  0
  7  8  2  0
  7  2  1  0
 11 10  1  1
 11 12  1  0
 11 13  1  0
 12  7  1  0
 13 15  1  0
 14 13  2  0
 15 16  1  0
 16 27  1  0
 16 17  1  1
 18 17  1  0
 19 18  2  0
 20 19  1  0
 21 20  1  0
 21 26  2  0
 22 23  2  0
 22 21  1  0
 23 24  1  0
 24 25  2  0
 26 25  1  0
 26 18  1  0
 27 28  2  0
 27 29  1  0
M  END
$$$$
