EAW.pdb
     RDKit          3D

 29 30  0  0  1  0  0  0  0  0999 V2000
    6.6019  -19.2613   16.6656 N   0  0  0  0  0  0  0  0  0  0  0  0
    7.9943  -19.0066   16.8910 C   0  0  1  0  0  0  0  0  0  0  0  0
    8.5470  -17.9272   16.0071 C   0  0  0  0  0  0  0  0  0  0  0  0
   10.0297  -17.7216   16.1329 C   0  0  0  0  0  0  0  0  0  0  0  0
   10.4160  -16.6782   15.1567 C   0  0  0  0  0  0  0  0  0  0  0  0
   11.4102  -15.9692   15.3639 O   0  0  0  0  0  0  0  0  0  0  0  0
    8.2407  -18.7971   18.3183 C   0  0  0  0  0  0  0  0  0  0  0  0
    7.4686  -18.1383   19.0748 O   0  0  0  0  0  0  0  0  0  0  0  0
    9.6705  -16.4900   14.0111 O   0  0  0  0  0  0  0  0  0  0  0  0
   10.4289  -20.4678   20.7783 C   0  0  0  0  0  0  0  0  0  0  0  0
    9.5327  -19.3120   20.4004 C   0  0  2  0  0  0  0  0  0  0  0  0
    9.3989  -19.3445   18.9354 N   0  0  0  0  0  0  0  0  0  0  0  0
   10.1905  -18.0360   20.7912 C   0  0  0  0  0  0  0  0  0  0  0  0
   10.9444  -17.4202   19.9890 O   0  0  0  0  0  0  0  0  0  0  0  0
    9.9815  -17.4953   22.0636 N   0  0  0  0  0  0  0  0  0  0  0  0
   10.5125  -16.1833   22.4994 C   0  0  1  0  0  0  0  0  0  0  0  0
    9.3630  -15.4806   23.1279 C   0  0  0  0  0  0  0  0  0  0  0  0
    8.2530  -15.0779   22.2714 C   0  0  0  0  0  0  0  0  0  0  0  0
    6.9505  -15.6039   22.2529 C   0  0  0  0  0  0  0  0  0  0  0  0
    6.2312  -15.0039   21.3162 N   0  0  0  0  0  0  0  0  0  0  0  0
    6.9749  -14.0824   20.6815 C   0  0  0  0  0  0  0  0  0  0  0  0
    6.7536  -13.1786   19.6670 C   0  0  0  0  0  0  0  0  0  0  0  0
    7.7472  -12.3278   19.2376 C   0  0  0  0  0  0  0  0  0  0  0  0
    8.9998  -12.3488   19.8068 C   0  0  0  0  0  0  0  0  0  0  0  0
    9.2154  -13.2532   20.8183 C   0  0  0  0  0  0  0  0  0  0  0  0
    8.2409  -14.1267   21.2781 C   0  0  0  0  0  0  0  0  0  0  0  0
   11.6484  -16.4536   23.3816 C   0  0  0  0  0  0  0  0  0  0  0  0
   12.4042  -15.5074   23.7615 O   0  0  0  0  0  0  0  0  0  0  0  0
   11.9520  -17.7451   23.8482 O   0  0  0  0  0  0  0  0  0  0  0  0
  2  1  1  1
  3  4  1  0
  3  2  1  0
  4  5  1  0
  5  9  1  0
  5  6  2  0
  7  8  2  0
  7  2  1  0
 11 10  1  6
 11 12  1  0
 11 13  1  0
 12  7  1  0
 13 15  1  0
 14 13  2  0
 15 16  1  0
 16 27  1  0
 16 17  1  1
 18 17  1  0
 19 18  2  0
 20 19  1  0
 21 20  1  0
 21 26  2  0
 22 23  2  0
 22 21  1  0
 23 24  1  0
 24 25  2  0
 26 25  1  0
 26 18  1  0
 27 28  2  0
 27 29  1  0
M  END
$$$$
