EAW.pdb
     RDKit          3D

 29 30  0  0  1  0  0  0  0  0999 V2000
   10.5009  -15.9994   17.8600 N   0  0  0  0  0  0  0  0  0  0  0  0
    9.1193  -15.6899   18.0829 C   0  0  1  0  0  0  0  0  0  0  0  0
    8.2384  -16.0562   16.9245 C   0  0  0  0  0  0  0  0  0  0  0  0
    8.4869  -17.4284   16.3664 C   0  0  0  0  0  0  0  0  0  0  0  0
    7.6318  -17.5800   15.1678 C   0  0  0  0  0  0  0  0  0  0  0  0
    6.9762  -16.6181   14.7449 O   0  0  0  0  0  0  0  0  0  0  0  0
    8.6827  -16.2424   19.3658 C   0  0  0  0  0  0  0  0  0  0  0  0
    7.5166  -16.0913   19.8349 O   0  0  0  0  0  0  0  0  0  0  0  0
    7.5606  -18.7938   14.5156 O   0  0  0  0  0  0  0  0  0  0  0  0
    9.3773  -19.0688   21.3449 C   0  0  0  0  0  0  0  0  0  0  0  0
    9.1200  -17.5831   21.4348 C   0  0  2  0  0  0  0  0  0  0  0  0
    9.5826  -16.9982   20.1663 N   0  0  0  0  0  0  0  0  0  0  0  0
    9.9295  -17.0138   22.5459 C   0  0  0  0  0  0  0  0  0  0  0  0
   11.0865  -16.5555   22.3396 O   0  0  0  0  0  0  0  0  0  0  0  0
    9.4164  -16.9775   23.8460 N   0  0  0  0  0  0  0  0  0  0  0  0
   10.1571  -16.4399   25.0101 C   0  0  1  0  0  0  0  0  0  0  0  0
    9.7411  -15.0170   25.1207 C   0  0  0  0  0  0  0  0  0  0  0  0
    8.3271  -14.7298   25.3355 C   0  0  0  0  0  0  0  0  0  0  0  0
    7.2602  -15.6436   25.3529 C   0  0  0  0  0  0  0  0  0  0  0  0
    6.1167  -15.0035   25.5464 N   0  0  0  0  0  0  0  0  0  0  0  0
    6.3397  -13.6840   25.6654 C   0  0  0  0  0  0  0  0  0  0  0  0
    5.5525  -12.5763   25.8853 C   0  0  0  0  0  0  0  0  0  0  0  0
    6.1000  -11.3166   25.9782 C   0  0  0  0  0  0  0  0  0  0  0  0
    7.4559  -11.1170   25.8544 C   0  0  0  0  0  0  0  0  0  0  0  0
    8.2367  -12.2258   25.6342 C   0  0  0  0  0  0  0  0  0  0  0  0
    7.7229  -13.5103   25.5341 C   0  0  0  0  0  0  0  0  0  0  0  0
    9.8256  -17.2873   26.1562 C   0  0  0  0  0  0  0  0  0  0  0  0
    8.8216  -18.0623   26.1111 O   0  0  0  0  0  0  0  0  0  0  0  0
   10.5875  -17.2912   27.3383 O   0  0  0  0  0  0  0  0  0  0  0  0
  2  1  1  6
  3  4  1  0
  3  2  1  0
  4  5  1  0
  5  9  1  0
  5  6  2  0
  7  8  2  0
  7  2  1  0
 11 10  1  6
 11 12  1  0
 11 13  1  0
 12  7  1  0
 13 15  1  0
 14 13  2  0
 15 16  1  0
 16 27  1  0
 16 17  1  1
 18 17  1  0
 19 18  2  0
 20 19  1  0
 21 20  1  0
 21 26  2  0
 22 23  2  0
 22 21  1  0
 23 24  1  0
 24 25  2  0
 26 25  1  0
 26 18  1  0
 27 28  2  0
 27 29  1  0
M  END
$$$$
