EAW.pdb
     RDKit          3D

 29 30  0  0  1  0  0  0  0  0999 V2000
    9.3679  -20.5113   21.8217 N   0  0  0  0  0  0  0  0  0  0  0  0
   10.7370  -20.1790   21.5583 C   0  0  1  0  0  0  0  0  0  0  0  0
   11.2847  -20.8587   20.3377 C   0  0  0  0  0  0  0  0  0  0  0  0
   10.2758  -21.6676   19.5734 C   0  0  0  0  0  0  0  0  0  0  0  0
   10.9805  -22.2857   18.4278 C   0  0  0  0  0  0  0  0  0  0  0  0
   12.2040  -22.1426   18.2988 O   0  0  0  0  0  0  0  0  0  0  0  0
   10.9098  -18.7257   21.5632 C   0  0  0  0  0  0  0  0  0  0  0  0
   12.0192  -18.1499   21.3629 O   0  0  0  0  0  0  0  0  0  0  0  0
   10.2781  -23.0243   17.4980 O   0  0  0  0  0  0  0  0  0  0  0  0
    8.6034  -15.8134   21.5638 C   0  0  0  0  0  0  0  0  0  0  0  0
    9.9766  -16.4107   21.7619 C   0  0  2  0  0  0  0  0  0  0  0  0
    9.7989  -17.8709   21.8018 N   0  0  0  0  0  0  0  0  0  0  0  0
   10.5206  -15.9603   23.0714 C   0  0  0  0  0  0  0  0  0  0  0  0
   11.3484  -15.0110   23.1404 O   0  0  0  0  0  0  0  0  0  0  0  0
   10.1196  -16.5869   24.2552 N   0  0  0  0  0  0  0  0  0  0  0  0
   10.4883  -16.1086   25.6073 C   0  0  1  0  0  0  0  0  0  0  0  0
    9.8471  -14.7743   25.7432 C   0  0  0  0  0  0  0  0  0  0  0  0
    8.3909  -14.7039   25.6925 C   0  0  0  0  0  0  0  0  0  0  0  0
    7.4915  -15.7490   25.4233 C   0  0  0  0  0  0  0  0  0  0  0  0
    6.2480  -15.2925   25.4339 N   0  0  0  0  0  0  0  0  0  0  0  0
    6.2411  -13.9754   25.6992 C   0  0  0  0  0  0  0  0  0  0  0  0
    5.2673  -13.0133   25.8440 C   0  0  0  0  0  0  0  0  0  0  0  0
    5.5894  -11.7089   26.1441 C   0  0  0  0  0  0  0  0  0  0  0  0
    6.8980  -11.3173   26.3107 C   0  0  0  0  0  0  0  0  0  0  0  0
    7.8659  -12.2813   26.1643 C   0  0  0  0  0  0  0  0  0  0  0  0
    7.5817  -13.6049   25.8619 C   0  0  0  0  0  0  0  0  0  0  0  0
   10.0394  -17.1265   26.5580 C   0  0  0  0  0  0  0  0  0  0  0  0
   10.2666  -16.9890   27.7992 O   0  0  0  0  0  0  0  0  0  0  0  0
    9.3441  -18.2811   26.1563 O   0  0  0  0  0  0  0  0  0  0  0  0
  2  1  1  6
  3  4  1  0
  3  2  1  0
  4  5  1  0
  5  9  1  0
  5  6  2  0
  7  8  2  0
  7  2  1  0
 11 10  1  1
 11 12  1  0
 11 13  1  0
 12  7  1  0
 13 15  1  0
 14 13  2  0
 15 16  1  0
 16 27  1  0
 16 17  1  1
 18 17  1  0
 19 18  2  0
 20 19  1  0
 21 20  1  0
 21 26  2  0
 22 23  2  0
 22 21  1  0
 23 24  1  0
 24 25  2  0
 26 25  1  0
 26 18  1  0
 27 28  2  0
 27 29  1  0
M  END
$$$$
