EAW.pdb
     RDKit          3D

 29 30  0  0  1  0  0  0  0  0999 V2000
    6.9427  -17.8083   21.7831 N   0  0  0  0  0  0  0  0  0  0  0  0
    7.8543  -18.8968   21.5870 C   0  0  1  0  0  0  0  0  0  0  0  0
    7.6180  -19.6404   20.3051 C   0  0  0  0  0  0  0  0  0  0  0  0
    6.3225  -19.3041   19.6232 C   0  0  0  0  0  0  0  0  0  0  0  0
    6.3007  -20.0290   18.3328 C   0  0  0  0  0  0  0  0  0  0  0  0
    6.0334  -19.4261   17.2845 O   0  0  0  0  0  0  0  0  0  0  0  0
    9.2316  -18.4356   21.7670 C   0  0  0  0  0  0  0  0  0  0  0  0
   10.2335  -19.2089   21.7900 O   0  0  0  0  0  0  0  0  0  0  0  0
    6.5779  -21.3799   18.2914 O   0  0  0  0  0  0  0  0  0  0  0  0
   11.0235  -15.2854   21.3702 C   0  0  0  0  0  0  0  0  0  0  0  0
   10.8995  -16.5990   22.1056 C   0  0  2  0  0  0  0  0  0  0  0  0
    9.5102  -17.0507   21.9292 N   0  0  0  0  0  0  0  0  0  0  0  0
   11.1471  -16.3725   23.5550 C   0  0  0  0  0  0  0  0  0  0  0  0
   12.2835  -16.0195   23.9737 O   0  0  0  0  0  0  0  0  0  0  0  0
   10.1161  -16.5484   24.4829 N   0  0  0  0  0  0  0  0  0  0  0  0
   10.3036  -16.4655   25.9496 C   0  0  1  0  0  0  0  0  0  0  0  0
    9.7559  -15.1409   26.3438 C   0  0  0  0  0  0  0  0  0  0  0  0
    8.3585  -14.8566   26.0365 C   0  0  0  0  0  0  0  0  0  0  0  0
    7.4125  -15.7254   25.4674 C   0  0  0  0  0  0  0  0  0  0  0  0
    6.2560  -15.0986   25.3112 N   0  0  0  0  0  0  0  0  0  0  0  0
    6.3540  -13.8316   25.7470 C   0  0  0  0  0  0  0  0  0  0  0  0
    5.4934  -12.7611   25.8396 C   0  0  0  0  0  0  0  0  0  0  0  0
    5.9029  -11.5576   26.3680 C   0  0  0  0  0  0  0  0  0  0  0  0
    7.1890  -11.3791   26.8237 C   0  0  0  0  0  0  0  0  0  0  0  0
    8.0439  -12.4503   26.7281 C   0  0  0  0  0  0  0  0  0  0  0  0
    7.6694  -13.6779   26.2019 C   0  0  0  0  0  0  0  0  0  0  0  0
    9.6317  -17.6274   26.5328 C   0  0  0  0  0  0  0  0  0  0  0  0
    9.6048  -17.7872   27.7916 O   0  0  0  0  0  0  0  0  0  0  0  0
    8.9909  -18.6023   25.7476 O   0  0  0  0  0  0  0  0  0  0  0  0
  2  1  1  6
  3  4  1  0
  3  2  1  0
  4  5  1  0
  5  9  1  0
  5  6  2  0
  7  8  2  0
  7  2  1  0
 11 10  1  6
 11 12  1  0
 11 13  1  0
 12  7  1  0
 13 15  1  0
 14 13  2  0
 15 16  1  0
 16 27  1  0
 16 17  1  1
 18 17  1  0
 19 18  2  0
 20 19  1  0
 21 20  1  0
 21 26  2  0
 22 23  2  0
 22 21  1  0
 23 24  1  0
 24 25  2  0
 26 25  1  0
 26 18  1  0
 27 28  2  0
 27 29  1  0
M  END
$$$$
