EAW.pdb
     RDKit          3D

 29 30  0  0  1  0  0  0  0  0999 V2000
    7.6701  -19.0699   21.4053 N   0  0  0  0  0  0  0  0  0  0  0  0
    8.7514  -18.7355   20.5259 C   0  0  1  0  0  0  0  0  0  0  0  0
    8.5329  -19.2048   19.1174 C   0  0  0  0  0  0  0  0  0  0  0  0
    9.7124  -19.0083   18.2085 C   0  0  0  0  0  0  0  0  0  0  0  0
    9.2050  -19.0122   16.8180 C   0  0  0  0  0  0  0  0  0  0  0  0
    8.0887  -19.4846   16.5639 O   0  0  0  0  0  0  0  0  0  0  0  0
    9.0685  -17.3114   20.6407 C   0  0  0  0  0  0  0  0  0  0  0  0
   10.1029  -16.7800   20.1405 O   0  0  0  0  0  0  0  0  0  0  0  0
    9.9730  -18.4896   15.7979 O   0  0  0  0  0  0  0  0  0  0  0  0
    7.2713  -14.2391   21.5403 C   0  0  0  0  0  0  0  0  0  0  0  0
    8.5635  -15.0211   21.5176 C   0  0  2  0  0  0  0  0  0  0  0  0
    8.1967  -16.4355   21.3439 N   0  0  0  0  0  0  0  0  0  0  0  0
    9.2521  -14.8642   22.8271 C   0  0  0  0  0  0  0  0  0  0  0  0
    9.6791  -13.7398   23.2073 O   0  0  0  0  0  0  0  0  0  0  0  0
    9.4382  -15.9692   23.6633 N   0  0  0  0  0  0  0  0  0  0  0  0
   10.1649  -15.9148   24.9525 C   0  0  1  0  0  0  0  0  0  0  0  0
    9.1423  -16.1935   25.9949 C   0  0  0  0  0  0  0  0  0  0  0  0
    7.8792  -15.4667   25.9293 C   0  0  0  0  0  0  0  0  0  0  0  0
    6.6386  -15.9442   25.4750 C   0  0  0  0  0  0  0  0  0  0  0  0
    5.7306  -14.9817   25.5374 N   0  0  0  0  0  0  0  0  0  0  0  0
    6.2836  -13.8546   26.0158 C   0  0  0  0  0  0  0  0  0  0  0  0
    5.8279  -12.5868   26.2988 C   0  0  0  0  0  0  0  0  0  0  0  0
    6.6656  -11.6242   26.8155 C   0  0  0  0  0  0  0  0  0  0  0  0
    7.9912  -11.8933   27.0687 C   0  0  0  0  0  0  0  0  0  0  0  0
    8.4409  -13.1598   26.7836 C   0  0  0  0  0  0  0  0  0  0  0  0
    7.6287  -14.1560   26.2622 C   0  0  0  0  0  0  0  0  0  0  0  0
   11.2609  -16.8806   24.8665 C   0  0  0  0  0  0  0  0  0  0  0  0
   11.3897  -17.6142   23.8388 O   0  0  0  0  0  0  0  0  0  0  0  0
   12.2102  -17.0393   25.8920 O   0  0  0  0  0  0  0  0  0  0  0  0
  2  1  1  1
  3  4  1  0
  3  2  1  0
  4  5  1  0
  5  9  1  0
  5  6  2  0
  7  8  2  0
  7  2  1  0
 11 10  1  1
 11 12  1  0
 11 13  1  0
 12  7  1  0
 13 15  1  0
 14 13  2  0
 15 16  1  0
 16 27  1  0
 16 17  1  1
 18 17  1  0
 19 18  2  0
 20 19  1  0
 21 20  1  0
 21 26  2  0
 22 23  2  0
 22 21  1  0
 23 24  1  0
 24 25  2  0
 26 25  1  0
 26 18  1  0
 27 28  2  0
 27 29  1  0
M  END
$$$$
