EAW.pdb
     RDKit          3D

 29 30  0  0  1  0  0  0  0  0999 V2000
    7.9317  -16.6985   20.7810 N   0  0  0  0  0  0  0  0  0  0  0  0
    8.5568  -17.7871   20.0894 C   0  0  1  0  0  0  0  0  0  0  0  0
    8.7129  -17.5391   18.6177 C   0  0  0  0  0  0  0  0  0  0  0  0
    7.4649  -17.0577   17.9344 C   0  0  0  0  0  0  0  0  0  0  0  0
    7.3702  -17.7643   16.6372 C   0  0  0  0  0  0  0  0  0  0  0  0
    6.8275  -18.8758   16.5717 O   0  0  0  0  0  0  0  0  0  0  0  0
    9.7969  -18.1659   20.7681 C   0  0  0  0  0  0  0  0  0  0  0  0
   10.6231  -19.0051   20.3039 O   0  0  0  0  0  0  0  0  0  0  0  0
    7.8860  -17.1885   15.4944 O   0  0  0  0  0  0  0  0  0  0  0  0
   12.0236  -16.2354   21.4452 C   0  0  0  0  0  0  0  0  0  0  0  0
   11.5478  -17.3417   22.3570 C   0  0  2  0  0  0  0  0  0  0  0  0
   10.1361  -17.5861   22.0213 N   0  0  0  0  0  0  0  0  0  0  0  0
   11.6295  -16.8798   23.7689 C   0  0  0  0  0  0  0  0  0  0  0  0
   12.7386  -16.5926   24.2966 O   0  0  0  0  0  0  0  0  0  0  0  0
   10.4690  -16.7557   24.5389 N   0  0  0  0  0  0  0  0  0  0  0  0
   10.4662  -16.3814   25.9717 C   0  0  1  0  0  0  0  0  0  0  0  0
    9.9231  -14.9983   26.0180 C   0  0  0  0  0  0  0  0  0  0  0  0
    8.4863  -14.8185   25.8413 C   0  0  0  0  0  0  0  0  0  0  0  0
    7.5440  -15.7835   25.4484 C   0  0  0  0  0  0  0  0  0  0  0  0
    6.3401  -15.2369   25.3682 N   0  0  0  0  0  0  0  0  0  0  0  0
    6.4016  -13.9336   25.6886 C   0  0  0  0  0  0  0  0  0  0  0  0
    5.4888  -12.9080   25.7878 C   0  0  0  0  0  0  0  0  0  0  0  0
    5.8731  -11.6429   26.1714 C   0  0  0  0  0  0  0  0  0  0  0  0
    7.1853  -11.3557   26.4703 C   0  0  0  0  0  0  0  0  0  0  0  0
    8.0922  -12.3827   26.3689 C   0  0  0  0  0  0  0  0  0  0  0  0
    7.7444  -13.6695   25.9855 C   0  0  0  0  0  0  0  0  0  0  0  0
    9.6795  -17.3943   26.6765 C   0  0  0  0  0  0  0  0  0  0  0  0
    9.4520  -17.2785   27.9198 O   0  0  0  0  0  0  0  0  0  0  0  0
    9.1423  -18.5202   26.0273 O   0  0  0  0  0  0  0  0  0  0  0  0
  2  1  1  1
  3  4  1  0
  3  2  1  0
  4  5  1  0
  5  9  1  0
  5  6  2  0
  7  8  2  0
  7  2  1  0
 11 10  1  6
 11 12  1  0
 11 13  1  0
 12  7  1  0
 13 15  1  0
 14 13  2  0
 15 16  1  0
 16 27  1  0
 16 17  1  6
 18 17  1  0
 19 18  2  0
 20 19  1  0
 21 20  1  0
 21 26  2  0
 22 23  2  0
 22 21  1  0
 23 24  1  0
 24 25  2  0
 26 25  1  0
 26 18  1  0
 27 28  2  0
 27 29  1  0
M  END
$$$$
