EAW.pdb
     RDKit          3D

 29 30  0  0  1  0  0  0  0  0999 V2000
    8.3115  -19.4818   19.4520 N   0  0  0  0  0  0  0  0  0  0  0  0
    8.0093  -18.8586   20.7069 C   0  0  1  0  0  0  0  0  0  0  0  0
    8.4424  -19.6740   21.8898 C   0  0  0  0  0  0  0  0  0  0  0  0
    9.3567  -20.8174   21.5534 C   0  0  0  0  0  0  0  0  0  0  0  0
    9.3190  -21.7634   22.6912 C   0  0  0  0  0  0  0  0  0  0  0  0
   10.3347  -22.3977   23.0074 O   0  0  0  0  0  0  0  0  0  0  0  0
    8.5047  -17.4815   20.7146 C   0  0  0  0  0  0  0  0  0  0  0  0
    9.6135  -17.1315   20.2140 O   0  0  0  0  0  0  0  0  0  0  0  0
    8.1522  -21.9435   23.4051 O   0  0  0  0  0  0  0  0  0  0  0  0
    6.9646  -14.1793   21.3331 C   0  0  0  0  0  0  0  0  0  0  0  0
    8.1946  -15.0490   21.2206 C   0  0  2  0  0  0  0  0  0  0  0  0
    7.7333  -16.4437   21.3058 N   0  0  0  0  0  0  0  0  0  0  0  0
    9.0947  -14.7729   22.3726 C   0  0  0  0  0  0  0  0  0  0  0  0
    9.6172  -13.6360   22.5324 O   0  0  0  0  0  0  0  0  0  0  0  0
    9.3777  -15.7771   23.3034 N   0  0  0  0  0  0  0  0  0  0  0  0
   10.1832  -15.5637   24.5275 C   0  0  1  0  0  0  0  0  0  0  0  0
    9.3020  -15.9646   25.6556 C   0  0  0  0  0  0  0  0  0  0  0  0
    8.0066  -15.3058   25.7826 C   0  0  0  0  0  0  0  0  0  0  0  0
    6.7345  -15.8772   25.6130 C   0  0  0  0  0  0  0  0  0  0  0  0
    5.7968  -14.9564   25.7793 N   0  0  0  0  0  0  0  0  0  0  0  0
    6.3594  -13.7686   26.0580 C   0  0  0  0  0  0  0  0  0  0  0  0
    5.8877  -12.5043   26.3304 C   0  0  0  0  0  0  0  0  0  0  0  0
    6.7467  -11.4638   26.6036 C   0  0  0  0  0  0  0  0  0  0  0  0
    8.1103  -11.6483   26.6146 C   0  0  0  0  0  0  0  0  0  0  0  0
    8.5756  -12.9118   26.3413 C   0  0  0  0  0  0  0  0  0  0  0  0
    7.7428  -13.9850   26.0610 C   0  0  0  0  0  0  0  0  0  0  0  0
   11.4102  -16.3462   24.3737 C   0  0  0  0  0  0  0  0  0  0  0  0
   12.3193  -16.2933   25.2578 O   0  0  0  0  0  0  0  0  0  0  0  0
   11.6389  -17.1826   23.2665 O   0  0  0  0  0  0  0  0  0  0  0  0
  2  1  1  6
  3  4  1  0
  3  2  1  0
  4  5  1  0
  5  9  1  0
  5  6  2  0
  7  8  2  0
  7  2  1  0
 11 10  1  1
 11 12  1  0
 11 13  1  0
 12  7  1  0
 13 15  1  0
 14 13  2  0
 15 16  1  0
 16 27  1  0
 16 17  1  1
 18 17  1  0
 19 18  2  0
 20 19  1  0
 21 20  1  0
 21 26  2  0
 22 23  2  0
 22 21  1  0
 23 24  1  0
 24 25  2  0
 26 25  1  0
 26 18  1  0
 27 28  2  0
 27 29  1  0
M  END
$$$$
