EAW.pdb
     RDKit          3D

 29 30  0  0  1  0  0  0  0  0999 V2000
   10.3121  -17.8202   17.3428 N   0  0  0  0  0  0  0  0  0  0  0  0
   10.6729  -18.4966   18.5539 C   0  0  1  0  0  0  0  0  0  0  0  0
   12.1550  -18.6671   18.7152 C   0  0  0  0  0  0  0  0  0  0  0  0
   12.9701  -18.1082   17.5841 C   0  0  0  0  0  0  0  0  0  0  0  0
   14.3408  -17.8832   18.0954 C   0  0  0  0  0  0  0  0  0  0  0  0
   15.1745  -18.7987   18.0659 O   0  0  0  0  0  0  0  0  0  0  0  0
   10.0147  -17.8627   19.6970 C   0  0  0  0  0  0  0  0  0  0  0  0
   10.0396  -16.6167   19.9192 O   0  0  0  0  0  0  0  0  0  0  0  0
   14.6967  -16.6526   18.6076 O   0  0  0  0  0  0  0  0  0  0  0  0
    7.5311  -18.9932   22.2161 C   0  0  0  0  0  0  0  0  0  0  0  0
    8.5477  -17.9911   21.7221 C   0  0  2  0  0  0  0  0  0  0  0  0
    9.2949  -18.6486   20.6383 N   0  0  0  0  0  0  0  0  0  0  0  0
    9.4922  -17.6693   22.8258 C   0  0  0  0  0  0  0  0  0  0  0  0
   10.6041  -18.2572   22.9229 O   0  0  0  0  0  0  0  0  0  0  0  0
    9.1597  -16.7028   23.7798 N   0  0  0  0  0  0  0  0  0  0  0  0
   10.0435  -16.3142   24.9027 C   0  0  1  0  0  0  0  0  0  0  0  0
    9.6754  -14.9112   25.2283 C   0  0  0  0  0  0  0  0  0  0  0  0
    8.2656  -14.6032   25.4419 C   0  0  0  0  0  0  0  0  0  0  0  0
    7.1989  -15.5097   25.5600 C   0  0  0  0  0  0  0  0  0  0  0  0
    6.0592  -14.8527   25.7160 N   0  0  0  0  0  0  0  0  0  0  0  0
    6.2848  -13.5282   25.7124 C   0  0  0  0  0  0  0  0  0  0  0  0
    5.5020  -12.4038   25.8464 C   0  0  0  0  0  0  0  0  0  0  0  0
    6.0516  -11.1419   25.8164 C   0  0  0  0  0  0  0  0  0  0  0  0
    7.4051  -10.9568   25.6510 C   0  0  0  0  0  0  0  0  0  0  0  0
    8.1814  -12.0824   25.5169 C   0  0  0  0  0  0  0  0  0  0  0  0
    7.6655  -13.3697   25.5413 C   0  0  0  0  0  0  0  0  0  0  0  0
    9.8294  -17.2895   25.9725 C   0  0  0  0  0  0  0  0  0  0  0  0
   10.5908  -17.3046   26.9879 O   0  0  0  0  0  0  0  0  0  0  0  0
    8.7897  -18.2357   25.9351 O   0  0  0  0  0  0  0  0  0  0  0  0
  2  1  1  6
  3  4  1  0
  3  2  1  0
  4  5  1  0
  5  9  1  0
  5  6  2  0
  7  8  2  0
  7  2  1  0
 11 10  1  1
 11 12  1  0
 11 13  1  0
 12  7  1  0
 13 15  1  0
 14 13  2  0
 15 16  1  0
 16 27  1  0
 16 17  1  1
 18 17  1  0
 19 18  2  0
 20 19  1  0
 21 20  1  0
 21 26  2  0
 22 23  2  0
 22 21  1  0
 23 24  1  0
 24 25  2  0
 26 25  1  0
 26 18  1  0
 27 28  2  0
 27 29  1  0
M  END
$$$$
