EAW.pdb
     RDKit          3D

 29 30  0  0  1  0  0  0  0  0999 V2000
    7.1200  -18.9126   20.4793 N   0  0  0  0  0  0  0  0  0  0  0  0
    8.3787  -18.7377   19.8166 C   0  0  1  0  0  0  0  0  0  0  0  0
    8.3586  -19.1857   18.3845 C   0  0  0  0  0  0  0  0  0  0  0  0
    7.4906  -18.3516   17.4862 C   0  0  0  0  0  0  0  0  0  0  0  0
    7.6020  -18.9103   16.1200 C   0  0  0  0  0  0  0  0  0  0  0  0
    6.9872  -18.3866   15.1811 O   0  0  0  0  0  0  0  0  0  0  0  0
    8.8608  -17.3694   20.0097 C   0  0  0  0  0  0  0  0  0  0  0  0
   10.0147  -16.9769   19.6679 O   0  0  0  0  0  0  0  0  0  0  0  0
    8.3911  -20.0176   15.8858 O   0  0  0  0  0  0  0  0  0  0  0  0
    7.2877  -14.1388   20.9404 C   0  0  0  0  0  0  0  0  0  0  0  0
    8.5096  -15.0117   20.7759 C   0  0  2  0  0  0  0  0  0  0  0  0
    8.0228  -16.3904   20.6106 N   0  0  0  0  0  0  0  0  0  0  0  0
    9.3306  -14.9408   22.0146 C   0  0  0  0  0  0  0  0  0  0  0  0
   10.0717  -13.9471   22.2482 O   0  0  0  0  0  0  0  0  0  0  0  0
    9.2933  -15.9825   22.9464 N   0  0  0  0  0  0  0  0  0  0  0  0
   10.0656  -15.9868   24.2100 C   0  0  1  0  0  0  0  0  0  0  0  0
    9.6512  -14.7545   24.9308 C   0  0  0  0  0  0  0  0  0  0  0  0
    8.2804  -14.6753   25.4233 C   0  0  0  0  0  0  0  0  0  0  0  0
    7.3054  -15.6867   25.4102 C   0  0  0  0  0  0  0  0  0  0  0  0
    6.1696  -15.2297   25.9160 N   0  0  0  0  0  0  0  0  0  0  0  0
    6.3102  -13.9446   26.2817 C   0  0  0  0  0  0  0  0  0  0  0  0
    5.4935  -12.9982   26.8582 C   0  0  0  0  0  0  0  0  0  0  0  0
    5.9524  -11.7300   27.1345 C   0  0  0  0  0  0  0  0  0  0  0  0
    7.2457  -11.3602   26.8445 C   0  0  0  0  0  0  0  0  0  0  0  0
    8.0562  -12.3083   26.2686 C   0  0  0  0  0  0  0  0  0  0  0  0
    7.6310  -13.5955   25.9745 C   0  0  0  0  0  0  0  0  0  0  0  0
    9.7670  -17.2482   24.8891 C   0  0  0  0  0  0  0  0  0  0  0  0
    8.8395  -18.0022   24.4623 O   0  0  0  0  0  0  0  0  0  0  0  0
   10.4791  -17.6837   26.0210 O   0  0  0  0  0  0  0  0  0  0  0  0
  2  1  1  6
  3  4  1  0
  3  2  1  0
  4  5  1  0
  5  9  1  0
  5  6  2  0
  7  8  2  0
  7  2  1  0
 11 10  1  1
 11 12  1  0
 11 13  1  0
 12  7  1  0
 13 15  1  0
 14 13  2  0
 15 16  1  0
 16 27  1  0
 16 17  1  1
 18 17  1  0
 19 18  2  0
 20 19  1  0
 21 20  1  0
 21 26  2  0
 22 23  2  0
 22 21  1  0
 23 24  1  0
 24 25  2  0
 26 25  1  0
 26 18  1  0
 27 28  2  0
 27 29  1  0
M  END
$$$$
