LWY.pdb
     RDKit          3D

 35 37  0  0  1  0  0  0  0  0999 V2000
    7.9688  -12.4938   20.3033 C   0  0  0  0  0  0  0  0  0  0  0  0
    7.8812  -13.8723   20.9179 C   0  0  1  0  0  0  0  0  0  0  0  0
    6.4830  -14.4247   20.8272 C   0  0  0  0  0  0  0  0  0  0  0  0
    8.8719  -14.8420   20.2763 C   0  0  0  0  0  0  0  0  0  0  0  0
    8.9672  -16.0253   21.2170 C   0  0  2  0  0  0  0  0  0  0  0  0
    7.6536  -16.6122   21.3648 N   0  0  0  0  0  0  0  0  0  0  0  0
    9.5461  -15.6570   22.5274 C   0  0  0  0  0  0  0  0  0  0  0  0
   10.5829  -14.9530   22.5359 O   0  0  0  0  0  0  0  0  0  0  0  0
    9.0111  -16.0450   23.7790 N   0  0  0  0  0  0  0  0  0  0  0  0
    9.6163  -15.7593   25.0257 C   0  0  1  0  0  0  0  0  0  0  0  0
    8.7460  -15.6710   26.2236 C   0  0  0  0  0  0  0  0  0  0  0  0
    7.5024  -14.8701   26.0349 C   0  0  0  0  0  0  0  0  0  0  0  0
    6.2567  -15.3518   25.6659 C   0  0  0  0  0  0  0  0  0  0  0  0
    5.4068  -14.3224   25.6217 N   0  0  0  0  0  0  0  0  0  0  0  0
    6.0413  -13.1704   25.9479 C   0  0  0  0  0  0  0  0  0  0  0  0
    5.5688  -11.8773   26.0303 C   0  0  0  0  0  0  0  0  0  0  0  0
    6.4587  -10.8895   26.3881 C   0  0  0  0  0  0  0  0  0  0  0  0
    7.7877  -11.1787   26.6577 C   0  0  0  0  0  0  0  0  0  0  0  0
    8.2137  -12.4829   26.5627 C   0  0  0  0  0  0  0  0  0  0  0  0
    7.3438  -13.5131   26.2040 C   0  0  0  0  0  0  0  0  0  0  0  0
   10.7380  -16.6893   25.3553 C   0  0  0  0  0  0  0  0  0  0  0  0
   10.7079  -17.3943   26.3941 O   0  0  0  0  0  0  0  0  0  0  0  0
    9.8055  -20.7073   29.3718 O   0  0  0  0  0  0  0  0  0  0  0  0
   10.4949  -20.2794   28.2340 C   0  0  0  0  0  0  0  0  0  0  0  0
    9.8187  -20.3505   27.0302 C   0  0  0  0  0  0  0  0  0  0  0  0
   10.4481  -19.9421   25.8759 C   0  0  0  0  0  0  0  0  0  0  0  0
   11.7462  -19.4646   25.9177 C   0  0  0  0  0  0  0  0  0  0  0  0
   12.3564  -19.0519   24.6472 C   0  0  0  0  0  0  0  0  0  0  0  0
   12.9342  -17.6481   24.7198 C   0  0  2  0  0  0  0  0  0  0  0  0
   11.8299  -16.7510   24.4648 N   0  0  0  0  0  0  0  0  0  0  0  0
   14.0109  -17.4288   23.7122 C   0  0  0  0  0  0  0  0  0  0  0  0
   13.8151  -16.6524   22.7424 O   0  0  0  0  0  0  0  0  0  0  0  0
   12.4104  -19.3964   27.1086 C   0  0  0  0  0  0  0  0  0  0  0  0
   11.7768  -19.8046   28.2534 C   0  0  0  0  0  0  0  0  0  0  0  0
   15.2351  -18.0466   23.7929 O   0  0  0  0  0  0  0  0  0  0  0  0
  2  3  1  6
  2  4  1  0
  2  1  1  0
  4  5  1  0
  5  6  1  1
  7  5  1  0
  8  7  2  0
  9  7  1  0
 10 21  1  0
 10  9  1  0
 10 11  1  1
 12 11  1  0
 13 12  2  0
 14 13  1  0
 15 14  1  0
 15 20  2  0
 16 17  2  0
 16 15  1  0
 17 18  1  0
 18 19  2  0
 20 19  1  0
 20 12  1  0
 21 30  1  0
 22 21  2  0
 23 24  1  0
 24 25  2  0
 25 26  1  0
 27 26  2  0
 27 28  1  0
 29 28  1  6
 29 31  1  0
 30 29  1  0
 31 32  2  0
 31 35  1  0
 33 27  1  0
 34 24  1  0
 34 33  2  0
M  END
$$$$
