LWY.pdb
     RDKit          3D

 35 37  0  0  1  0  0  0  0  0999 V2000
    7.2004  -12.2749   18.7566 C   0  0  0  0  0  0  0  0  0  0  0  0
    7.7610  -13.6363   19.0997 C   0  0  1  0  0  0  0  0  0  0  0  0
    8.3602  -14.3030   17.8894 C   0  0  0  0  0  0  0  0  0  0  0  0
    8.7949  -13.5563   20.2214 C   0  0  0  0  0  0  0  0  0  0  0  0
    9.0985  -14.9877   20.6128 C   0  0  2  0  0  0  0  0  0  0  0  0
    7.9112  -15.7890   20.4129 N   0  0  0  0  0  0  0  0  0  0  0  0
    9.5982  -15.0974   22.0006 C   0  0  0  0  0  0  0  0  0  0  0  0
   10.5828  -14.3947   22.3290 O   0  0  0  0  0  0  0  0  0  0  0  0
    9.0422  -15.9436   22.9896 N   0  0  0  0  0  0  0  0  0  0  0  0
    9.4819  -15.9920   24.3337 C   0  0  1  0  0  0  0  0  0  0  0  0
    8.4998  -16.3695   25.3793 C   0  0  0  0  0  0  0  0  0  0  0  0
    7.3969  -15.3872   25.5846 C   0  0  0  0  0  0  0  0  0  0  0  0
    6.0380  -15.6352   25.4765 C   0  0  0  0  0  0  0  0  0  0  0  0
    5.3834  -14.5038   25.7513 N   0  0  0  0  0  0  0  0  0  0  0  0
    6.2575  -13.5091   26.0387 C   0  0  0  0  0  0  0  0  0  0  0  0
    6.0376  -12.1893   26.3734 C   0  0  0  0  0  0  0  0  0  0  0  0
    7.1368  -11.3951   26.6118 C   0  0  0  0  0  0  0  0  0  0  0  0
    8.4251  -11.8994   26.5197 C   0  0  0  0  0  0  0  0  0  0  0  0
    8.5956  -13.2218   26.1829 C   0  0  0  0  0  0  0  0  0  0  0  0
    7.5084  -14.0602   25.9342 C   0  0  0  0  0  0  0  0  0  0  0  0
   10.6882  -16.8530   24.5212 C   0  0  0  0  0  0  0  0  0  0  0  0
   10.7764  -17.9720   23.9580 O   0  0  0  0  0  0  0  0  0  0  0  0
   19.1733  -18.2516   26.1715 O   0  0  0  0  0  0  0  0  0  0  0  0
   17.8780  -17.7272   26.1767 C   0  0  0  0  0  0  0  0  0  0  0  0
   17.4162  -17.1910   24.9889 C   0  0  0  0  0  0  0  0  0  0  0  0
   16.1471  -16.6601   24.9348 C   0  0  0  0  0  0  0  0  0  0  0  0
   15.3390  -16.6620   26.0582 C   0  0  0  0  0  0  0  0  0  0  0  0
   13.9994  -16.0742   25.9286 C   0  0  0  0  0  0  0  0  0  0  0  0
   12.9729  -17.0896   25.4541 C   0  0  2  0  0  0  0  0  0  0  0  0
   11.7233  -16.3709   25.3489 N   0  0  0  0  0  0  0  0  0  0  0  0
   12.8260  -18.2290   26.4043 C   0  0  0  0  0  0  0  0  0  0  0  0
   12.0037  -18.1540   27.3529 O   0  0  0  0  0  0  0  0  0  0  0  0
   15.7990  -17.1923   27.2291 C   0  0  0  0  0  0  0  0  0  0  0  0
   17.0636  -17.7191   27.2749 C   0  0  0  0  0  0  0  0  0  0  0  0
   13.5609  -19.3840   26.2919 O   0  0  0  0  0  0  0  0  0  0  0  0
  2  3  1  6
  2  4  1  0
  2  1  1  0
  4  5  1  0
  5  6  1  1
  7  5  1  0
  8  7  2  0
  9  7  1  0
 10 21  1  0
 10  9  1  0
 10 11  1  1
 12 11  1  0
 13 12  2  0
 14 13  1  0
 15 14  1  0
 15 20  2  0
 16 17  2  0
 16 15  1  0
 17 18  1  0
 18 19  2  0
 20 19  1  0
 20 12  1  0
 21 30  1  0
 22 21  2  0
 23 24  1  0
 24 25  2  0
 25 26  1  0
 27 26  2  0
 27 28  1  0
 29 28  1  1
 29 31  1  0
 30 29  1  0
 31 32  2  0
 31 35  1  0
 33 27  1  0
 34 24  1  0
 34 33  2  0
M  END
$$$$
