LWY.pdb
     RDKit          3D

 35 37  0  0  1  0  0  0  0  0999 V2000
    6.9220  -12.7070   17.9662 C   0  0  0  0  0  0  0  0  0  0  0  0
    7.5709  -13.9899   18.4336 C   0  0  1  0  0  0  0  0  0  0  0  0
    8.3628  -14.6378   17.3284 C   0  0  0  0  0  0  0  0  0  0  0  0
    8.4612  -13.7618   19.6538 C   0  0  0  0  0  0  0  0  0  0  0  0
    8.8666  -15.1384   20.1385 C   0  0  2  0  0  0  0  0  0  0  0  0
    7.7273  -16.0236   20.0388 N   0  0  0  0  0  0  0  0  0  0  0  0
    9.4132  -15.1125   21.5127 C   0  0  0  0  0  0  0  0  0  0  0  0
   10.3844  -14.3551   21.7457 O   0  0  0  0  0  0  0  0  0  0  0  0
    8.9165  -15.8858   22.5890 N   0  0  0  0  0  0  0  0  0  0  0  0
    9.3671  -15.7709   23.9255 C   0  0  1  0  0  0  0  0  0  0  0  0
    8.4535  -16.1996   25.0126 C   0  0  0  0  0  0  0  0  0  0  0  0
    7.2739  -15.3123   25.2239 C   0  0  0  0  0  0  0  0  0  0  0  0
    5.9481  -15.7057   25.3093 C   0  0  0  0  0  0  0  0  0  0  0  0
    5.2018  -14.6178   25.5174 N   0  0  0  0  0  0  0  0  0  0  0  0
    5.9826  -13.5118   25.5736 C   0  0  0  0  0  0  0  0  0  0  0  0
    5.6507  -12.1870   25.7657 C   0  0  0  0  0  0  0  0  0  0  0  0
    6.6715  -11.2631   25.7717 C   0  0  0  0  0  0  0  0  0  0  0  0
    7.9919  -11.6455   25.5907 C   0  0  0  0  0  0  0  0  0  0  0  0
    8.2752  -12.9780   25.4026 C   0  0  0  0  0  0  0  0  0  0  0  0
    7.2702  -13.9457   25.3906 C   0  0  0  0  0  0  0  0  0  0  0  0
   10.6824  -16.4406   24.1562 C   0  0  0  0  0  0  0  0  0  0  0  0
   11.0824  -17.3567   23.3961 O   0  0  0  0  0  0  0  0  0  0  0  0
    9.8256  -16.0648   31.1507 O   0  0  0  0  0  0  0  0  0  0  0  0
   10.7171  -16.0819   30.0746 C   0  0  0  0  0  0  0  0  0  0  0  0
   10.6536  -15.0182   29.1937 C   0  0  0  0  0  0  0  0  0  0  0  0
   11.5082  -14.9817   28.1150 C   0  0  0  0  0  0  0  0  0  0  0  0
   12.4234  -15.9996   27.9120 C   0  0  0  0  0  0  0  0  0  0  0  0
   13.2995  -15.8973   26.7378 C   0  0  0  0  0  0  0  0  0  0  0  0
   12.7331  -16.6351   25.5359 C   0  0  2  0  0  0  0  0  0  0  0  0
   11.4596  -16.0126   25.2525 N   0  0  0  0  0  0  0  0  0  0  0  0
   12.5400  -18.0885   25.8060 C   0  0  0  0  0  0  0  0  0  0  0  0
   11.3794  -18.5538   25.9403 O   0  0  0  0  0  0  0  0  0  0  0  0
   12.4825  -17.0483   28.7843 C   0  0  0  0  0  0  0  0  0  0  0  0
   11.6284  -17.0773   29.8559 C   0  0  0  0  0  0  0  0  0  0  0  0
   13.5916  -18.9652   25.9172 O   0  0  0  0  0  0  0  0  0  0  0  0
  2  3  1  6
  2  4  1  0
  2  1  1  0
  4  5  1  0
  5  6  1  1
  7  5  1  0
  8  7  2  0
  9  7  1  0
 10 21  1  0
 10  9  1  0
 10 11  1  1
 12 11  1  0
 13 12  2  0
 14 13  1  0
 15 14  1  0
 15 20  2  0
 16 17  2  0
 16 15  1  0
 17 18  1  0
 18 19  2  0
 20 19  1  0
 20 12  1  0
 21 30  1  0
 22 21  2  0
 23 24  1  0
 24 25  2  0
 25 26  1  0
 27 26  2  0
 27 28  1  0
 29 28  1  1
 29 31  1  0
 30 29  1  0
 31 32  2  0
 31 35  1  0
 33 27  1  0
 34 24  1  0
 34 33  2  0
M  END
$$$$
