LWY.pdb
     RDKit          3D

 35 37  0  0  1  0  0  0  0  0999 V2000
    9.3535  -22.0792   18.2410 C   0  0  0  0  0  0  0  0  0  0  0  0
    8.9781  -20.6314   18.0208 C   0  0  1  0  0  0  0  0  0  0  0  0
    7.4855  -20.4629   17.9111 C   0  0  0  0  0  0  0  0  0  0  0  0
    9.5290  -19.7299   19.1242 C   0  0  0  0  0  0  0  0  0  0  0  0
    8.9869  -18.3441   18.8412 C   0  0  2  0  0  0  0  0  0  0  0  0
    9.5886  -17.8462   17.6240 N   0  0  0  0  0  0  0  0  0  0  0  0
    9.2023  -17.4143   19.9712 C   0  0  0  0  0  0  0  0  0  0  0  0
   10.3793  -17.0780   20.2407 O   0  0  0  0  0  0  0  0  0  0  0  0
    8.1697  -16.8746   20.7747 N   0  0  0  0  0  0  0  0  0  0  0  0
    8.3863  -16.0054   21.8702 C   0  0  1  0  0  0  0  0  0  0  0  0
    7.2645  -15.1409   22.3115 C   0  0  0  0  0  0  0  0  0  0  0  0
    7.6320  -14.1075   23.3217 C   0  0  0  0  0  0  0  0  0  0  0  0
    8.5227  -13.0606   23.1471 C   0  0  0  0  0  0  0  0  0  0  0  0
    8.5622  -12.3522   24.2788 N   0  0  0  0  0  0  0  0  0  0  0  0
    7.7295  -12.8896   25.2028 C   0  0  0  0  0  0  0  0  0  0  0  0
    7.4527  -12.5002   26.4966 C   0  0  0  0  0  0  0  0  0  0  0  0
    6.5507  -13.2526   27.2151 C   0  0  0  0  0  0  0  0  0  0  0  0
    5.9377  -14.3665   26.6621 C   0  0  0  0  0  0  0  0  0  0  0  0
    6.2448  -14.7168   25.3681 C   0  0  0  0  0  0  0  0  0  0  0  0
    7.1525  -13.9807   24.6060 C   0  0  0  0  0  0  0  0  0  0  0  0
    8.9097  -16.7106   23.0786 C   0  0  0  0  0  0  0  0  0  0  0  0
    8.4100  -17.7985   23.4582 O   0  0  0  0  0  0  0  0  0  0  0  0
    9.9428  -14.3780   30.6587 O   0  0  0  0  0  0  0  0  0  0  0  0
   10.3790  -14.7984   29.3994 C   0  0  0  0  0  0  0  0  0  0  0  0
   10.1366  -13.9465   28.3377 C   0  0  0  0  0  0  0  0  0  0  0  0
   10.5444  -14.3084   27.0736 C   0  0  0  0  0  0  0  0  0  0  0  0
   11.1912  -15.5138   26.8649 C   0  0  0  0  0  0  0  0  0  0  0  0
   11.5928  -15.8368   25.4897 C   0  0  0  0  0  0  0  0  0  0  0  0
   10.6510  -16.8364   24.8389 C   0  0  2  0  0  0  0  0  0  0  0  0
    9.9809  -16.1178   23.7787 N   0  0  0  0  0  0  0  0  0  0  0  0
    9.6480  -17.3752   25.8013 C   0  0  0  0  0  0  0  0  0  0  0  0
    8.4779  -16.9145   25.8130 O   0  0  0  0  0  0  0  0  0  0  0  0
   11.4284  -16.3521   27.9161 C   0  0  0  0  0  0  0  0  0  0  0  0
   11.0195  -15.9846   29.1716 C   0  0  0  0  0  0  0  0  0  0  0  0
    9.9454  -18.3739   26.6963 O   0  0  0  0  0  0  0  0  0  0  0  0
  2  3  1  1
  2  4  1  0
  2  1  1  0
  4  5  1  0
  5  6  1  6
  7  5  1  0
  8  7  2  0
  9  7  1  0
 10 21  1  0
 10  9  1  0
 10 11  1  1
 12 11  1  0
 13 12  2  0
 14 13  1  0
 15 14  1  0
 15 20  2  0
 16 17  2  0
 16 15  1  0
 17 18  1  0
 18 19  2  0
 20 19  1  0
 20 12  1  0
 21 30  1  0
 22 21  2  0
 23 24  1  0
 24 25  2  0
 25 26  1  0
 27 26  2  0
 27 28  1  0
 29 28  1  1
 29 31  1  0
 30 29  1  0
 31 32  2  0
 31 35  1  0
 33 27  1  0
 34 24  1  0
 34 33  2  0
M  END
$$$$
