LWY.pdb
     RDKit          3D

 35 37  0  0  1  0  0  0  0  0999 V2000
    6.8849  -13.1371   18.0696 C   0  0  0  0  0  0  0  0  0  0  0  0
    7.6173  -14.2946   18.7094 C   0  0  1  0  0  0  0  0  0  0  0  0
    8.6654  -14.8575   17.7859 C   0  0  0  0  0  0  0  0  0  0  0  0
    8.2498  -13.8969   20.0419 C   0  0  0  0  0  0  0  0  0  0  0  0
    8.8797  -15.1571   20.5981 C   0  0  2  0  0  0  0  0  0  0  0  0
    7.9010  -16.2215   20.5684 N   0  0  0  0  0  0  0  0  0  0  0  0
    9.4242  -14.9603   21.9592 C   0  0  0  0  0  0  0  0  0  0  0  0
   10.3356  -14.1135   22.1118 O   0  0  0  0  0  0  0  0  0  0  0  0
    8.9884  -15.6633   23.1076 N   0  0  0  0  0  0  0  0  0  0  0  0
    9.5225  -15.4769   24.4047 C   0  0  1  0  0  0  0  0  0  0  0  0
    8.6401  -15.7320   25.5694 C   0  0  0  0  0  0  0  0  0  0  0  0
    7.4073  -14.8944   25.6148 C   0  0  0  0  0  0  0  0  0  0  0  0
    6.0991  -15.3434   25.5315 C   0  0  0  0  0  0  0  0  0  0  0  0
    5.2876  -14.2869   25.6278 N   0  0  0  0  0  0  0  0  0  0  0  0
    6.0079  -13.1484   25.7721 C   0  0  0  0  0  0  0  0  0  0  0  0
    5.5992  -11.8377   25.9037 C   0  0  0  0  0  0  0  0  0  0  0  0
    6.5714  -10.8712   26.0317 C   0  0  0  0  0  0  0  0  0  0  0  0
    7.9188  -11.1981   26.0287 C   0  0  0  0  0  0  0  0  0  0  0  0
    8.2791  -12.5185   25.8948 C   0  0  0  0  0  0  0  0  0  0  0  0
    7.3252  -13.5282   25.7635 C   0  0  0  0  0  0  0  0  0  0  0  0
   10.7889  -16.2370   24.6279 C   0  0  0  0  0  0  0  0  0  0  0  0
   10.7652  -17.4317   25.0143 O   0  0  0  0  0  0  0  0  0  0  0  0
    9.8890  -15.8166   30.5163 O   0  0  0  0  0  0  0  0  0  0  0  0
   10.6243  -16.0904   29.3599 C   0  0  0  0  0  0  0  0  0  0  0  0
   10.8411  -17.4221   29.0579 C   0  0  0  0  0  0  0  0  0  0  0  0
   11.5590  -17.7516   27.9304 C   0  0  0  0  0  0  0  0  0  0  0  0
   12.0604  -16.7604   27.1051 C   0  0  0  0  0  0  0  0  0  0  0  0
   12.8212  -17.1853   25.9229 C   0  0  0  0  0  0  0  0  0  0  0  0
   13.2217  -16.0091   25.0477 C   0  0  2  0  0  0  0  0  0  0  0  0
   12.0101  -15.5724   24.3914 N   0  0  0  0  0  0  0  0  0  0  0  0
   14.2441  -16.3858   24.0302 C   0  0  0  0  0  0  0  0  0  0  0  0
   13.9523  -16.3606   22.8072 O   0  0  0  0  0  0  0  0  0  0  0  0
   11.8443  -15.4467   27.4072 C   0  0  0  0  0  0  0  0  0  0  0  0
   11.1284  -15.1267   28.5314 C   0  0  0  0  0  0  0  0  0  0  0  0
   15.5191  -16.7673   24.3703 O   0  0  0  0  0  0  0  0  0  0  0  0
  2  3  1  6
  2  4  1  0
  2  1  1  0
  4  5  1  0
  5  6  1  1
  7  5  1  0
  8  7  2  0
  9  7  1  0
 10 21  1  0
 10  9  1  0
 10 11  1  1
 12 11  1  0
 13 12  2  0
 14 13  1  0
 15 14  1  0
 15 20  2  0
 16 17  2  0
 16 15  1  0
 17 18  1  0
 18 19  2  0
 20 19  1  0
 20 12  1  0
 21 30  1  0
 22 21  2  0
 23 24  1  0
 24 25  2  0
 25 26  1  0
 27 26  2  0
 27 28  1  0
 29 28  1  1
 29 31  1  0
 30 29  1  0
 31 32  2  0
 31 35  1  0
 33 27  1  0
 34 24  1  0
 34 33  2  0
M  END
$$$$
