LWY.pdb
     RDKit          3D

 35 37  0  0  1  0  0  0  0  0999 V2000
    6.8392  -12.0119   18.6689 C   0  0  0  0  0  0  0  0  0  0  0  0
    7.3756  -13.3799   19.0244 C   0  0  1  0  0  0  0  0  0  0  0  0
    8.1925  -13.9577   17.8987 C   0  0  0  0  0  0  0  0  0  0  0  0
    8.2008  -13.3477   20.3096 C   0  0  0  0  0  0  0  0  0  0  0  0
    8.6320  -14.7770   20.5653 C   0  0  2  0  0  0  0  0  0  0  0  0
    7.4585  -15.6219   20.5917 N   0  0  0  0  0  0  0  0  0  0  0  0
    9.4242  -14.9119   21.8071 C   0  0  0  0  0  0  0  0  0  0  0  0
   10.4109  -14.1545   21.9610 O   0  0  0  0  0  0  0  0  0  0  0  0
    9.1473  -15.8400   22.8391 N   0  0  0  0  0  0  0  0  0  0  0  0
    9.8825  -15.9316   24.0447 C   0  0  1  0  0  0  0  0  0  0  0  0
    9.1303  -15.9834   25.3222 C   0  0  0  0  0  0  0  0  0  0  0  0
    7.8292  -15.2550   25.3112 C   0  0  0  0  0  0  0  0  0  0  0  0
    6.5730  -15.8091   25.1249 C   0  0  0  0  0  0  0  0  0  0  0  0
    5.6685  -14.8292   25.2004 N   0  0  0  0  0  0  0  0  0  0  0  0
    6.2767  -13.6404   25.4301 C   0  0  0  0  0  0  0  0  0  0  0  0
    5.7483  -12.3748   25.5763 C   0  0  0  0  0  0  0  0  0  0  0  0
    6.6228  -11.3354   25.8012 C   0  0  0  0  0  0  0  0  0  0  0  0
    7.9908  -11.5472   25.8788 C   0  0  0  0  0  0  0  0  0  0  0  0
    8.4721  -12.8265   25.7268 C   0  0  0  0  0  0  0  0  0  0  0  0
    7.6197  -13.9072   25.4983 C   0  0  0  0  0  0  0  0  0  0  0  0
   10.8526  -17.0676   24.0505 C   0  0  0  0  0  0  0  0  0  0  0  0
   10.4542  -18.2570   23.9898 O   0  0  0  0  0  0  0  0  0  0  0  0
   10.6170  -16.7727   31.2770 O   0  0  0  0  0  0  0  0  0  0  0  0
   10.9684  -16.3673   29.9866 C   0  0  0  0  0  0  0  0  0  0  0  0
   11.6459  -17.2856   29.2059 C   0  0  0  0  0  0  0  0  0  0  0  0
   12.0174  -16.9414   27.9258 C   0  0  0  0  0  0  0  0  0  0  0  0
   11.7166  -15.6879   27.4226 C   0  0  0  0  0  0  0  0  0  0  0  0
   12.1484  -15.3880   26.0513 C   0  0  0  0  0  0  0  0  0  0  0  0
   12.8652  -16.5634   25.4077 C   0  0  2  0  0  0  0  0  0  0  0  0
   12.2276  -16.7632   24.1259 N   0  0  0  0  0  0  0  0  0  0  0  0
   12.7607  -17.8047   26.2268 C   0  0  0  0  0  0  0  0  0  0  0  0
   11.6771  -18.4418   26.2666 O   0  0  0  0  0  0  0  0  0  0  0  0
   11.0477  -14.7841   28.1970 C   0  0  0  0  0  0  0  0  0  0  0  0
   10.6811  -15.1343   29.4704 C   0  0  0  0  0  0  0  0  0  0  0  0
   13.8141  -18.2990   26.9566 O   0  0  0  0  0  0  0  0  0  0  0  0
  2  3  1  6
  2  4  1  0
  2  1  1  0
  4  5  1  0
  5  6  1  1
  7  5  1  0
  8  7  2  0
  9  7  1  0
 10 21  1  0
 10  9  1  0
 10 11  1  1
 12 11  1  0
 13 12  2  0
 14 13  1  0
 15 14  1  0
 15 20  2  0
 16 17  2  0
 16 15  1  0
 17 18  1  0
 18 19  2  0
 20 19  1  0
 20 12  1  0
 21 30  1  0
 22 21  2  0
 23 24  1  0
 24 25  2  0
 25 26  1  0
 27 26  2  0
 27 28  1  0
 29 28  1  1
 29 31  1  0
 30 29  1  0
 31 32  2  0
 31 35  1  0
 33 27  1  0
 34 24  1  0
 34 33  2  0
M  END
$$$$
