MIA.pdb
     RDKit          3D

 22 21  0  0  1  0  0  0  0  0999 V2000
   17.9268  -12.0680  -23.5151 C   0  0  0  0  0  0  0  0  0  0  0  0
   17.7398  -11.3891  -21.8664 S   0  0  0  0  0  0  0  0  0  0  0  0
   18.8431  -12.2050  -20.6911 C   0  0  0  0  0  0  0  0  0  0  0  0
   18.7333  -11.4770  -19.3699 C   0  0  0  0  0  0  0  0  0  0  0  0
   19.6410  -12.0760  -18.3174 C   0  0  2  0  0  0  0  0  0  0  0  0
   19.2683  -13.4117  -17.9766 N   0  0  0  0  0  0  0  0  0  0  0  0
   19.5752  -11.1535  -17.1340 C   0  0  0  0  0  0  0  0  0  0  0  0
   18.6798  -11.2818  -16.2602 O   0  0  0  0  0  0  0  0  0  0  0  0
   23.5173  -10.5418  -14.0270 C   0  0  0  0  0  0  0  0  0  0  0  0
   22.1344  -10.5191  -14.6724 C   0  0  0  0  0  0  0  0  0  0  0  0
   21.7388   -9.1642  -15.1082 C   0  0  2  0  0  0  0  0  0  0  0  0
   21.8484   -8.1185  -14.0243 C   0  0  0  0  0  0  0  0  0  0  0  0
   20.4147   -9.1578  -15.8240 C   0  0  2  0  0  0  0  0  0  0  0  0
   20.5223  -10.1103  -16.9682 N   0  0  0  0  0  0  0  0  0  0  0  0
   19.9737   -7.8524  -16.3296 C   0  0  0  0  0  0  0  0  0  0  0  0
   20.7497   -7.1595  -17.0849 O   0  0  0  0  0  0  0  0  0  0  0  0
   16.9527   -5.8055  -16.9723 C   0  0  0  0  0  0  0  0  0  0  0  0
   18.3958   -5.9097  -16.5465 C   0  0  2  0  0  0  0  0  0  0  0  0
   18.7236   -7.2497  -16.0650 N   0  0  0  0  0  0  0  0  0  0  0  0
   18.7665   -4.8738  -15.5580 C   0  0  0  0  0  0  0  0  0  0  0  0
   19.0676   -3.5726  -15.9388 O   0  0  0  0  0  0  0  0  0  0  0  0
   18.8291   -5.1136  -14.3248 O   0  0  0  0  0  0  0  0  0  0  0  0
  1  2  1  0
  3  2  1  0
  4  3  1  0
  5  6  1  1
  5  4  1  0
  7  5  1  0
  8  7  2  0
  9 10  1  0
 10 11  1  0
 11 12  1  1
 13 11  1  0
 13 14  1  6
 14  7  1  0
 15 19  1  0
 15 13  1  0
 16 15  2  0
 18 17  1  1
 18 19  1  0
 20 18  1  0
 20 21  1  0
 22 20  2  0
M  END
$$$$
