MIA.pdb
     RDKit          3D

 22 21  0  0  1  0  0  0  0  0999 V2000
   20.6716  -23.5668  -16.5376 C   0  0  0  0  0  0  0  0  0  0  0  0
   19.2059  -22.5459  -16.3836 S   0  0  0  0  0  0  0  0  0  0  0  0
   19.3051  -21.4681  -14.9369 C   0  0  0  0  0  0  0  0  0  0  0  0
   20.7417  -21.0180  -14.7917 C   0  0  0  0  0  0  0  0  0  0  0  0
   21.0740  -20.6400  -13.3644 C   0  0  2  0  0  0  0  0  0  0  0  0
   20.2179  -19.6136  -12.8621 N   0  0  0  0  0  0  0  0  0  0  0  0
   22.5158  -20.2195  -13.3678 C   0  0  0  0  0  0  0  0  0  0  0  0
   22.8452  -19.0332  -13.6251 O   0  0  0  0  0  0  0  0  0  0  0  0
   25.4298  -20.7866   -9.2730 C   0  0  0  0  0  0  0  0  0  0  0  0
   24.8639  -20.4014  -10.6372 C   0  0  0  0  0  0  0  0  0  0  0  0
   25.5617  -21.0804  -11.7481 C   0  0  2  0  0  0  0  0  0  0  0  0
   27.0658  -20.9605  -11.6877 C   0  0  0  0  0  0  0  0  0  0  0  0
   24.9795  -20.7263  -13.0903 C   0  0  2  0  0  0  0  0  0  0  0  0
   23.5482  -21.1493  -13.0805 N   0  0  0  0  0  0  0  0  0  0  0  0
   25.6474  -21.3291  -14.2499 C   0  0  0  0  0  0  0  0  0  0  0  0
   25.6470  -22.6059  -14.4008 O   0  0  0  0  0  0  0  0  0  0  0  0
   27.4591  -20.3382  -17.4305 C   0  0  0  0  0  0  0  0  0  0  0  0
   26.9965  -21.3045  -16.3689 C   0  0  2  0  0  0  0  0  0  0  0  0
   26.3193  -20.6195  -15.2702 N   0  0  0  0  0  0  0  0  0  0  0  0
   28.0936  -22.1652  -15.8756 C   0  0  0  0  0  0  0  0  0  0  0  0
   28.4759  -23.3203  -16.5452 O   0  0  0  0  0  0  0  0  0  0  0  0
   28.7370  -21.8993  -14.8279 O   0  0  0  0  0  0  0  0  0  0  0  0
  1  2  1  0
  3  2  1  0
  4  3  1  0
  5  6  1  6
  5  4  1  0
  7  5  1  0
  8  7  2  0
  9 10  1  0
 10 11  1  0
 11 12  1  6
 13 11  1  0
 13 14  1  1
 14  7  1  0
 15 19  1  0
 15 13  1  0
 16 15  2  0
 18 17  1  6
 18 19  1  0
 20 18  1  0
 20 21  1  0
 22 20  2  0
M  END
$$$$
