MIA.pdb
     RDKit          3D

 22 21  0  0  1  0  0  0  0  0999 V2000
   28.8667  -22.5032  -19.6592 C   0  0  0  0  0  0  0  0  0  0  0  0
   28.1647  -20.8835  -19.3461 S   0  0  0  0  0  0  0  0  0  0  0  0
   28.4460  -20.3645  -17.6385 C   0  0  0  0  0  0  0  0  0  0  0  0
   27.3240  -20.9247  -16.7929 C   0  0  0  0  0  0  0  0  0  0  0  0
   27.8297  -21.4796  -15.4788 C   0  0  2  0  0  0  0  0  0  0  0  0
   28.6771  -22.6145  -15.6597 N   0  0  0  0  0  0  0  0  0  0  0  0
   26.6100  -21.8109  -14.6675 C   0  0  0  0  0  0  0  0  0  0  0  0
   26.0234  -22.9156  -14.7990 O   0  0  0  0  0  0  0  0  0  0  0  0
   26.7156  -20.6428   -9.5459 C   0  0  0  0  0  0  0  0  0  0  0  0
   26.3550  -21.3089  -10.8710 C   0  0  0  0  0  0  0  0  0  0  0  0
   25.1666  -20.6995  -11.5022 C   0  0  2  0  0  0  0  0  0  0  0  0
   23.9441  -20.6870  -10.6160 C   0  0  0  0  0  0  0  0  0  0  0  0
   24.9090  -21.2448  -12.8814 C   0  0  2  0  0  0  0  0  0  0  0  0
   26.0843  -20.8860  -13.7288 N   0  0  0  0  0  0  0  0  0  0  0  0
   23.6855  -20.7646  -13.5345 C   0  0  0  0  0  0  0  0  0  0  0  0
   23.5930  -19.5369  -13.9045 O   0  0  0  0  0  0  0  0  0  0  0  0
   20.7806  -21.9275  -15.4878 C   0  0  0  0  0  0  0  0  0  0  0  0
   21.3621  -20.9847  -14.4642 C   0  0  2  0  0  0  0  0  0  0  0  0
   22.5449  -21.5487  -13.8178 N   0  0  0  0  0  0  0  0  0  0  0  0
   20.3590  -20.5465  -13.4696 C   0  0  0  0  0  0  0  0  0  0  0  0
   19.4451  -19.5381  -13.7465 O   0  0  0  0  0  0  0  0  0  0  0  0
   20.2793  -21.0606  -12.3243 O   0  0  0  0  0  0  0  0  0  0  0  0
  1  2  1  0
  3  2  1  0
  4  3  1  0
  5  6  1  6
  5  4  1  0
  7  5  1  0
  8  7  2  0
  9 10  1  0
 10 11  1  0
 11 12  1  1
 13 11  1  0
 13 14  1  6
 14  7  1  0
 15 19  1  0
 15 13  1  0
 16 15  2  0
 18 17  1  6
 18 19  1  0
 20 18  1  0
 20 21  1  0
 22 20  2  0
M  END
$$$$
