MIA.pdb
     RDKit          3D

 22 21  0  0  1  0  0  0  0  0999 V2000
   26.5135  -15.0762  -14.7827 C   0  0  0  0  0  0  0  0  0  0  0  0
   27.4381  -15.7802  -16.1479 S   0  0  0  0  0  0  0  0  0  0  0  0
   28.3111  -17.2802  -15.6457 C   0  0  0  0  0  0  0  0  0  0  0  0
   27.2845  -18.2628  -15.1278 C   0  0  0  0  0  0  0  0  0  0  0  0
   27.9301  -19.5093  -14.5624 C   0  0  2  0  0  0  0  0  0  0  0  0
   28.6784  -20.2257  -15.5451 N   0  0  0  0  0  0  0  0  0  0  0  0
   26.8141  -20.3361  -13.9909 C   0  0  0  0  0  0  0  0  0  0  0  0
   26.4294  -21.3894  -14.5605 O   0  0  0  0  0  0  0  0  0  0  0  0
   26.6392  -20.6038   -8.6495 C   0  0  0  0  0  0  0  0  0  0  0  0
   26.4958  -21.0113  -10.1134 C   0  0  0  0  0  0  0  0  0  0  0  0
   25.1905  -20.6176  -10.6820 C   0  0  2  0  0  0  0  0  0  0  0  0
   24.0050  -21.1826   -9.9364 C   0  0  0  0  0  0  0  0  0  0  0  0
   25.1274  -20.8316  -12.1706 C   0  0  2  0  0  0  0  0  0  0  0  0
   26.1615  -19.9520  -12.7911 N   0  0  0  0  0  0  0  0  0  0  0  0
   23.8287  -20.5559  -12.7962 C   0  0  0  0  0  0  0  0  0  0  0  0
   23.3933  -19.3485  -12.8697 O   0  0  0  0  0  0  0  0  0  0  0  0
   21.2184  -22.1159  -14.9823 C   0  0  0  0  0  0  0  0  0  0  0  0
   21.6524  -21.1709  -13.8899 C   0  0  2  0  0  0  0  0  0  0  0  0
   22.9667  -21.5240  -13.3580 N   0  0  0  0  0  0  0  0  0  0  0  0
   20.6455  -21.0567  -12.8125 C   0  0  0  0  0  0  0  0  0  0  0  0
   19.4997  -20.2859  -12.9597 O   0  0  0  0  0  0  0  0  0  0  0  0
   20.7714  -21.6485  -11.7097 O   0  0  0  0  0  0  0  0  0  0  0  0
  1  2  1  0
  3  2  1  0
  4  3  1  0
  5  6  1  6
  5  4  1  0
  7  5  1  0
  8  7  2  0
  9 10  1  0
 10 11  1  0
 11 12  1  1
 13 11  1  0
 13 14  1  6
 14  7  1  0
 15 19  1  0
 15 13  1  0
 16 15  2  0
 18 17  1  6
 18 19  1  0
 20 18  1  0
 20 21  1  0
 22 20  2  0
M  END
$$$$
