MIA.pdb
     RDKit          3D

 22 21  0  0  1  0  0  0  0  0999 V2000
   22.4591  -20.0532   -8.4370 C   0  0  0  0  0  0  0  0  0  0  0  0
   23.9689  -20.2850   -7.4984 S   0  0  0  0  0  0  0  0  0  0  0  0
   25.3044  -20.9055   -8.5452 C   0  0  0  0  0  0  0  0  0  0  0  0
   24.9558  -20.5832   -9.9812 C   0  0  0  0  0  0  0  0  0  0  0  0
   25.9955  -21.1093  -10.9469 C   0  0  2  0  0  0  0  0  0  0  0  0
   27.2826  -20.5322  -10.7252 N   0  0  0  0  0  0  0  0  0  0  0  0
   25.4750  -20.8133  -12.3243 C   0  0  0  0  0  0  0  0  0  0  0  0
   25.7972  -19.7573  -12.9267 O   0  0  0  0  0  0  0  0  0  0  0  0
   25.9749  -24.5375  -15.7994 C   0  0  0  0  0  0  0  0  0  0  0  0
   25.7792  -23.1853  -15.1192 C   0  0  0  0  0  0  0  0  0  0  0  0
   24.3750  -22.7292  -15.1668 C   0  0  2  0  0  0  0  0  0  0  0  0
   23.7925  -22.6927  -16.5596 C   0  0  0  0  0  0  0  0  0  0  0  0
   24.1593  -21.4600  -14.3869 C   0  0  2  0  0  0  0  0  0  0  0  0
   24.6043  -21.7174  -12.9856 N   0  0  0  0  0  0  0  0  0  0  0  0
   22.7810  -20.9559  -14.3650 C   0  0  0  0  0  0  0  0  0  0  0  0
   21.8588  -21.6300  -13.7752 O   0  0  0  0  0  0  0  0  0  0  0  0
   20.7193  -18.0016  -15.5576 C   0  0  0  0  0  0  0  0  0  0  0  0
   20.9241  -19.3937  -15.0146 C   0  0  2  0  0  0  0  0  0  0  0  0
   22.3404  -19.7468  -14.9479 N   0  0  0  0  0  0  0  0  0  0  0  0
   20.1482  -20.4081  -15.7608 C   0  0  0  0  0  0  0  0  0  0  0  0
   20.6978  -21.1159  -16.8217 O   0  0  0  0  0  0  0  0  0  0  0  0
   18.9542  -20.6835  -15.4765 O   0  0  0  0  0  0  0  0  0  0  0  0
  1  2  1  0
  3  2  1  0
  4  3  1  0
  5  6  1  1
  5  4  1  0
  7  5  1  0
  8  7  2  0
  9 10  1  0
 10 11  1  0
 11 12  1  6
 13 11  1  0
 13 14  1  1
 14  7  1  0
 15 19  1  0
 15 13  1  0
 16 15  2  0
 18 17  1  6
 18 19  1  0
 20 18  1  0
 20 21  1  0
 22 20  2  0
M  END
$$$$
