MIA.pdb
     RDKit          3D

 22 21  0  0  1  0  0  0  0  0999 V2000
   26.1957  -17.7814  -17.8257 C   0  0  0  0  0  0  0  0  0  0  0  0
   27.8803  -17.3396  -17.4001 S   0  0  0  0  0  0  0  0  0  0  0  0
   28.6296  -18.5758  -16.3161 C   0  0  0  0  0  0  0  0  0  0  0  0
   27.5127  -19.3745  -15.6821 C   0  0  0  0  0  0  0  0  0  0  0  0
   28.0412  -20.4482  -14.7557 C   0  0  2  0  0  0  0  0  0  0  0  0
   28.7729  -21.4555  -15.4548 N   0  0  0  0  0  0  0  0  0  0  0  0
   26.8451  -21.0126  -14.0439 C   0  0  0  0  0  0  0  0  0  0  0  0
   26.2589  -22.0391  -14.4735 O   0  0  0  0  0  0  0  0  0  0  0  0
   26.8343  -20.6458   -8.6937 C   0  0  0  0  0  0  0  0  0  0  0  0
   26.5785  -21.1703  -10.1039 C   0  0  0  0  0  0  0  0  0  0  0  0
   25.3296  -20.6367  -10.6850 C   0  0  2  0  0  0  0  0  0  0  0  0
   24.0997  -20.9260   -9.8580 C   0  0  0  0  0  0  0  0  0  0  0  0
   25.1784  -20.9923  -12.1398 C   0  0  2  0  0  0  0  0  0  0  0  0
   26.3420  -20.4032  -12.8656 N   0  0  0  0  0  0  0  0  0  0  0  0
   23.9376  -20.5370  -12.7781 C   0  0  0  0  0  0  0  0  0  0  0  0
   23.7088  -19.2794  -12.9154 O   0  0  0  0  0  0  0  0  0  0  0  0
   21.1969  -21.7640  -14.9960 C   0  0  0  0  0  0  0  0  0  0  0  0
   21.7260  -20.8359  -13.9314 C   0  0  2  0  0  0  0  0  0  0  0  0
   22.9208  -21.3758  -13.2865 N   0  0  0  0  0  0  0  0  0  0  0  0
   20.6923  -20.4725  -12.9379 C   0  0  0  0  0  0  0  0  0  0  0  0
   19.7623  -19.4704  -13.1819 O   0  0  0  0  0  0  0  0  0  0  0  0
   20.5996  -21.0483  -11.8234 O   0  0  0  0  0  0  0  0  0  0  0  0
  1  2  1  0
  3  2  1  0
  4  3  1  0
  5  6  1  6
  5  4  1  0
  7  5  1  0
  8  7  2  0
  9 10  1  0
 10 11  1  0
 11 12  1  1
 13 11  1  0
 13 14  1  6
 14  7  1  0
 15 19  1  0
 15 13  1  0
 16 15  2  0
 18 17  1  6
 18 19  1  0
 20 18  1  0
 20 21  1  0
 22 20  2  0
M  END
$$$$
