MIA.pdb
     RDKit          3D

 22 21  0  0  1  0  0  0  0  0999 V2000
   14.6869  -30.0393   -3.4486 C   0  0  0  0  0  0  0  0  0  0  0  0
   15.9004  -30.4666   -2.1999 S   0  0  0  0  0  0  0  0  0  0  0  0
   17.4595  -29.5956   -2.4739 C   0  0  0  0  0  0  0  0  0  0  0  0
   17.1363  -28.2407   -3.0631 C   0  0  0  0  0  0  0  0  0  0  0  0
   18.3867  -27.4720   -3.4318 C   0  0  2  0  0  0  0  0  0  0  0  0
   19.2034  -27.1880   -2.2955 N   0  0  0  0  0  0  0  0  0  0  0  0
   17.9210  -26.2198   -4.1180 C   0  0  0  0  0  0  0  0  0  0  0  0
   17.8903  -25.1194   -3.5096 O   0  0  0  0  0  0  0  0  0  0  0  0
   19.4778  -25.3488   -9.1525 C   0  0  0  0  0  0  0  0  0  0  0  0
   19.0151  -25.1845   -7.7074 C   0  0  0  0  0  0  0  0  0  0  0  0
   17.5454  -25.0881   -7.5945 C   0  0  2  0  0  0  0  0  0  0  0  0
   16.9304  -24.0518   -8.5045 C   0  0  0  0  0  0  0  0  0  0  0  0
   17.0874  -24.9862   -6.1642 C   0  0  2  0  0  0  0  0  0  0  0  0
   17.5020  -26.2426   -5.4733 N   0  0  0  0  0  0  0  0  0  0  0  0
   15.6455  -24.7898   -5.9728 C   0  0  0  0  0  0  0  0  0  0  0  0
   15.0821  -23.7120   -6.3895 O   0  0  0  0  0  0  0  0  0  0  0  0
   12.5400  -26.6955   -5.0285 C   0  0  0  0  0  0  0  0  0  0  0  0
   13.3409  -25.4297   -5.2047 C   0  0  2  0  0  0  0  0  0  0  0  0
   14.7677  -25.7072   -5.3531 N   0  0  0  0  0  0  0  0  0  0  0  0
   13.0895  -24.4505   -4.1250 C   0  0  0  0  0  0  0  0  0  0  0  0
   14.1035  -24.0119   -3.2835 O   0  0  0  0  0  0  0  0  0  0  0  0
   11.9494  -23.9641   -3.9111 O   0  0  0  0  0  0  0  0  0  0  0  0
  1  2  1  0
  3  2  1  0
  4  3  1  0
  5  6  1  1
  5  4  1  0
  7  5  1  0
  8  7  2  0
  9 10  1  0
 10 11  1  0
 11 12  1  6
 13 11  1  0
 13 14  1  1
 14  7  1  0
 15 19  1  0
 15 13  1  0
 16 15  2  0
 18 17  1  1
 18 19  1  0
 20 18  1  0
 20 21  1  0
 22 20  2  0
M  END
$$$$
