SLL.pdb
     RDKit          3D

 23 22  0  0  1  0  0  0  0  0999 V2000
   40.9634   -9.2384   -7.9795 O   0  0  0  0  0  0  0  0  0  0  0  0
   40.4444  -10.0516   -8.9651 C   0  0  0  0  0  0  0  0  0  0  0  0
   39.9983  -11.3390   -8.3205 C   0  0  2  0  0  0  0  0  0  0  0  0
   39.2012  -11.0244   -7.1736 N   0  0  0  0  0  0  0  0  0  0  0  0
   41.1826  -12.1557   -7.9353 C   0  0  0  0  0  0  0  0  0  0  0  0
   41.5533  -12.1850   -6.7149 O   0  0  0  0  0  0  0  0  0  0  0  0
   43.0695  -16.8048   -8.0496 C   0  0  0  0  0  0  0  0  0  0  0  0
   42.7020  -16.1551   -9.3443 C   0  0  2  0  0  0  0  0  0  0  0  0
   42.9421  -17.1577  -10.4480 C   0  0  0  0  0  0  0  0  0  0  0  0
   43.2728  -14.8193   -9.5940 C   0  0  0  0  0  0  0  0  0  0  0  0
   42.9998  -13.7599   -8.5650 C   0  0  2  0  0  0  0  0  0  0  0  0
   41.8966  -12.8962   -8.9098 N   0  0  0  0  0  0  0  0  0  0  0  0
   44.2244  -12.9222   -8.5003 C   0  0  0  0  0  0  0  0  0  0  0  0
   44.4383  -12.0967   -9.4177 O   0  0  0  0  0  0  0  0  0  0  0  0
   45.5642   -9.6032   -6.2234 C   0  0  0  0  0  0  0  0  0  0  0  0
   45.6185  -10.9110   -5.4175 C   0  0  2  0  0  0  0  0  0  0  0  0
   45.9374  -10.5625   -3.9923 C   0  0  0  0  0  0  0  0  0  0  0  0
   46.6581  -11.7576   -6.0684 C   0  0  0  0  0  0  0  0  0  0  0  0
   46.3595  -12.1797   -7.4753 C   0  0  2  0  0  0  0  0  0  0  0  0
   45.1662  -13.0042   -7.4571 N   0  0  0  0  0  0  0  0  0  0  0  0
   47.4684  -12.8702   -8.1503 C   0  0  0  0  0  0  0  0  0  0  0  0
   48.6125  -12.1268   -8.4899 O   0  0  0  0  0  0  0  0  0  0  0  0
   47.4227  -14.0921   -8.4288 O   0  0  0  0  0  0  0  0  0  0  0  0
  2  1  1  0
  3  4  1  1
  3  2  1  0
  3  5  1  0
  5 12  1  0
  5  6  2  0
  8  7  1  1
  8  9  1  0
  8 10  1  0
 11 10  1  6
 11 13  1  0
 12 11  1  0
 13 14  2  0
 16 18  1  0
 16 15  1  6
 17 16  1  0
 19 18  1  1
 19 21  1  0
 20 13  1  0
 20 19  1  0
 21 22  1  0
 23 21  2  0
M  END
$$$$
