SLL.pdb
     RDKit          3D

 23 22  0  0  1  0  0  0  0  0999 V2000
   25.8410  -24.6865  -16.9402 O   0  0  0  0  0  0  0  0  0  0  0  0
   26.7660  -25.0333  -15.9778 C   0  0  0  0  0  0  0  0  0  0  0  0
   27.9458  -25.6652  -16.6711 C   0  0  2  0  0  0  0  0  0  0  0  0
   28.3999  -24.7799  -17.7005 N   0  0  0  0  0  0  0  0  0  0  0  0
   27.5578  -26.9856  -17.2403 C   0  0  0  0  0  0  0  0  0  0  0  0
   27.4804  -27.1237  -18.5062 O   0  0  0  0  0  0  0  0  0  0  0  0
   28.4800  -32.7308  -15.6332 C   0  0  0  0  0  0  0  0  0  0  0  0
   28.1622  -31.5890  -16.5434 C   0  0  2  0  0  0  0  0  0  0  0  0
   29.4554  -31.1249  -17.1702 C   0  0  0  0  0  0  0  0  0  0  0  0
   27.3324  -30.5098  -15.9781 C   0  0  0  0  0  0  0  0  0  0  0  0
   26.9484  -29.3913  -16.9040 C   0  0  2  0  0  0  0  0  0  0  0  0
   27.2757  -28.0834  -16.3900 N   0  0  0  0  0  0  0  0  0  0  0  0
   25.4718  -29.4625  -17.0468 C   0  0  0  0  0  0  0  0  0  0  0  0
   24.7555  -29.0653  -16.0992 O   0  0  0  0  0  0  0  0  0  0  0  0
   22.7210  -27.2940  -19.2299 C   0  0  0  0  0  0  0  0  0  0  0  0
   23.3964  -28.3266  -20.1466 C   0  0  2  0  0  0  0  0  0  0  0  0
   22.9739  -28.0376  -21.5581 C   0  0  0  0  0  0  0  0  0  0  0  0
   22.9589  -29.6651  -19.6584 C   0  0  0  0  0  0  0  0  0  0  0  0
   23.3785  -30.0121  -18.2619 C   0  0  2  0  0  0  0  0  0  0  0  0
   24.8265  -29.9552  -18.1968 N   0  0  0  0  0  0  0  0  0  0  0  0
   22.8788  -31.3093  -17.7825 C   0  0  0  0  0  0  0  0  0  0  0  0
   23.7888  -32.3743  -17.6620 O   0  0  0  0  0  0  0  0  0  0  0  0
   21.6751  -31.4903  -17.4809 O   0  0  0  0  0  0  0  0  0  0  0  0
  2  1  1  0
  3  4  1  6
  3  2  1  0
  3  5  1  0
  5 12  1  0
  5  6  2  0
  8  7  1  1
  8  9  1  0
  8 10  1  0
 11 10  1  1
 11 13  1  0
 12 11  1  0
 13 14  2  0
 16 18  1  0
 16 15  1  1
 17 16  1  0
 19 18  1  6
 19 21  1  0
 20 13  1  0
 20 19  1  0
 21 22  1  0
 23 21  2  0
M  END
$$$$
