SLL.pdb
     RDKit          3D

 23 22  0  0  1  0  0  0  0  0999 V2000
   18.3459  -12.1884  -16.7006 O   0  0  0  0  0  0  0  0  0  0  0  0
   18.3637  -11.0621  -17.4962 C   0  0  0  0  0  0  0  0  0  0  0  0
   19.4231  -11.2531  -18.5513 C   0  0  2  0  0  0  0  0  0  0  0  0
   19.8147  -12.6302  -18.5627 N   0  0  0  0  0  0  0  0  0  0  0  0
   20.5904  -10.3721  -18.2699 C   0  0  0  0  0  0  0  0  0  0  0  0
   21.5665  -10.8253  -17.5846 O   0  0  0  0  0  0  0  0  0  0  0  0
   23.0353   -4.9170  -20.1774 C   0  0  0  0  0  0  0  0  0  0  0  0
   22.9776   -6.0941  -19.2584 C   0  0  2  0  0  0  0  0  0  0  0  0
   24.3398   -6.7462  -19.2580 C   0  0  0  0  0  0  0  0  0  0  0  0
   21.8517   -7.0251  -19.4537 C   0  0  0  0  0  0  0  0  0  0  0  0
   21.7108   -8.1402  -18.4575 C   0  0  2  0  0  0  0  0  0  0  0  0
   20.6240   -9.0413  -18.7553 N   0  0  0  0  0  0  0  0  0  0  0  0
   21.4153   -7.4937  -17.1535 C   0  0  0  0  0  0  0  0  0  0  0  0
   20.2863   -6.9804  -16.9782 O   0  0  0  0  0  0  0  0  0  0  0  0
   20.4575   -8.8950  -13.2691 C   0  0  0  0  0  0  0  0  0  0  0  0
   21.9364   -9.0537  -13.6568 C   0  0  2  0  0  0  0  0  0  0  0  0
   22.5952   -9.9186  -12.6213 C   0  0  0  0  0  0  0  0  0  0  0  0
   22.4990   -7.6751  -13.7237 C   0  0  0  0  0  0  0  0  0  0  0  0
   21.9702   -6.8149  -14.8315 C   0  0  2  0  0  0  0  0  0  0  0  0
   22.3403   -7.4247  -16.0945 N   0  0  0  0  0  0  0  0  0  0  0  0
   22.4089   -5.4126  -14.7734 C   0  0  0  0  0  0  0  0  0  0  0  0
   21.8581   -4.5792  -13.7840 O   0  0  0  0  0  0  0  0  0  0  0  0
   23.2526   -4.9438  -15.5740 O   0  0  0  0  0  0  0  0  0  0  0  0
  2  1  1  0
  3  4  1  1
  3  2  1  0
  3  5  1  0
  5 12  1  0
  5  6  2  0
  8  7  1  6
  8  9  1  0
  8 10  1  0
 11 10  1  6
 11 13  1  0
 12 11  1  0
 13 14  2  0
 16 18  1  0
 16 15  1  1
 17 16  1  0
 19 18  1  1
 19 21  1  0
 20 13  1  0
 20 19  1  0
 21 22  1  0
 23 21  2  0
M  END
$$$$
