SLL.pdb
     RDKit          3D

 23 22  0  0  1  0  0  0  0  0999 V2000
   19.5226  -23.4544  -13.5545 O   0  0  0  0  0  0  0  0  0  0  0  0
   20.4517  -22.4643  -13.7963 C   0  0  0  0  0  0  0  0  0  0  0  0
   20.8660  -21.8796  -12.4702 C   0  0  2  0  0  0  0  0  0  0  0  0
   19.7827  -21.0972  -11.9564 N   0  0  0  0  0  0  0  0  0  0  0  0
   22.0890  -21.0465  -12.6380 C   0  0  0  0  0  0  0  0  0  0  0  0
   21.9699  -19.7928  -12.8422 O   0  0  0  0  0  0  0  0  0  0  0  0
   25.3347  -19.6870   -9.9766 C   0  0  0  0  0  0  0  0  0  0  0  0
   25.6158  -21.0991  -10.3768 C   0  0  2  0  0  0  0  0  0  0  0  0
   26.8012  -21.5791   -9.5735 C   0  0  0  0  0  0  0  0  0  0  0  0
   25.7066  -21.3661  -11.8236 C   0  0  0  0  0  0  0  0  0  0  0  0
   24.5856  -20.8531  -12.6814 C   0  0  2  0  0  0  0  0  0  0  0  0
   23.3770  -21.6337  -12.5728 N   0  0  0  0  0  0  0  0  0  0  0  0
   25.0612  -20.9524  -14.0849 C   0  0  0  0  0  0  0  0  0  0  0  0
   25.2791  -22.0874  -14.5678 O   0  0  0  0  0  0  0  0  0  0  0  0
   23.2322  -20.3713  -17.7221 C   0  0  0  0  0  0  0  0  0  0  0  0
   23.5964  -18.9780  -17.1848 C   0  0  2  0  0  0  0  0  0  0  0  0
   23.0120  -17.9562  -18.1167 C   0  0  0  0  0  0  0  0  0  0  0  0
   25.0846  -18.9353  -17.1150 C   0  0  0  0  0  0  0  0  0  0  0  0
   25.7231  -20.0049  -16.2813 C   0  0  2  0  0  0  0  0  0  0  0  0
   25.2828  -19.8334  -14.9099 N   0  0  0  0  0  0  0  0  0  0  0  0
   27.1907  -20.0439  -16.3639 C   0  0  0  0  0  0  0  0  0  0  0  0
   27.9356  -19.5863  -15.2627 O   0  0  0  0  0  0  0  0  0  0  0  0
   27.7907  -20.4698  -17.3794 O   0  0  0  0  0  0  0  0  0  0  0  0
  2  1  1  0
  3  4  1  6
  3  2  1  0
  3  5  1  0
  5 12  1  0
  5  6  2  0
  8  7  1  6
  8  9  1  0
  8 10  1  0
 11 10  1  1
 11 13  1  0
 12 11  1  0
 13 14  2  0
 16 18  1  0
 16 15  1  6
 17 16  1  0
 19 18  1  6
 19 21  1  0
 20 13  1  0
 20 19  1  0
 21 22  1  0
 23 21  2  0
M  END
$$$$
