SLL.pdb
     RDKit          3D

 23 22  0  0  1  0  0  0  0  0999 V2000
   25.8357  -18.1341  -16.4183 O   0  0  0  0  0  0  0  0  0  0  0  0
   26.6586  -17.6970  -15.4015 C   0  0  0  0  0  0  0  0  0  0  0  0
   27.3817  -18.8942  -14.8395 C   0  0  2  0  0  0  0  0  0  0  0  0
   28.1432  -19.5028  -15.8881 N   0  0  0  0  0  0  0  0  0  0  0  0
   26.4038  -19.8596  -14.2653 C   0  0  0  0  0  0  0  0  0  0  0  0
   26.1705  -20.9541  -14.8779 O   0  0  0  0  0  0  0  0  0  0  0  0
   26.5076  -22.0194  -10.3228 C   0  0  0  0  0  0  0  0  0  0  0  0
   25.9330  -20.6494  -10.1609 C   0  0  2  0  0  0  0  0  0  0  0  0
   25.8091  -20.3729   -8.6814 C   0  0  0  0  0  0  0  0  0  0  0  0
   24.7215  -20.3485  -10.9448 C   0  0  0  0  0  0  0  0  0  0  0  0
   24.8200  -20.5039  -12.4354 C   0  0  2  0  0  0  0  0  0  0  0  0
   25.7345  -19.5722  -13.0499 N   0  0  0  0  0  0  0  0  0  0  0  0
   23.4634  -20.2225  -12.9702 C   0  0  0  0  0  0  0  0  0  0  0  0
   23.0414  -19.0433  -12.9512 O   0  0  0  0  0  0  0  0  0  0  0  0
   21.5989  -20.1251  -16.7636 C   0  0  0  0  0  0  0  0  0  0  0  0
   21.7914  -21.5761  -16.2946 C   0  0  2  0  0  0  0  0  0  0  0  0
   21.4241  -22.4825  -17.4338 C   0  0  0  0  0  0  0  0  0  0  0  0
   20.9203  -21.7452  -15.0971 C   0  0  0  0  0  0  0  0  0  0  0  0
   21.2680  -20.8861  -13.9190 C   0  0  2  0  0  0  0  0  0  0  0  0
   22.6179  -21.2146  -13.5017 N   0  0  0  0  0  0  0  0  0  0  0  0
   20.3273  -20.9895  -12.7936 C   0  0  0  0  0  0  0  0  0  0  0  0
   20.7397  -21.6746  -11.6371 O   0  0  0  0  0  0  0  0  0  0  0  0
   19.1786  -20.4884  -12.8361 O   0  0  0  0  0  0  0  0  0  0  0  0
  2  1  1  0
  3  4  1  6
  3  2  1  0
  3  5  1  0
  5 12  1  0
  5  6  2  0
  8  7  1  1
  8  9  1  0
  8 10  1  0
 11 10  1  1
 11 13  1  0
 12 11  1  0
 13 14  2  0
 16 18  1  0
 16 15  1  6
 17 16  1  0
 19 18  1  6
 19 21  1  0
 20 13  1  0
 20 19  1  0
 21 22  1  0
 23 21  2  0
M  END
$$$$
