KLC.pdb
     RDKit          3D

 24 23  0  0  1  0  0  0  0  0999 V2000
   19.6747  -15.7405  -18.2794 N   0  0  0  0  0  0  0  0  0  0  0  0
   19.7563  -14.3232  -18.5302 C   0  0  1  0  0  0  0  0  0  0  0  0
   18.4730  -13.7704  -19.0972 C   0  0  0  0  0  0  0  0  0  0  0  0
   18.0953  -14.4508  -20.3685 C   0  0  0  0  0  0  0  0  0  0  0  0
   16.9074  -15.3550  -20.2263 C   0  0  0  0  0  0  0  0  0  0  0  0
   16.5386  -15.8533  -21.6341 C   0  0  0  0  0  0  0  0  0  0  0  0
   15.3448  -16.6726  -21.5546 N   0  0  0  0  0  0  0  0  0  0  0  0
   20.1017  -13.5747  -17.2725 C   0  0  0  0  0  0  0  0  0  0  0  0
   19.3954  -13.6769  -16.2444 O   0  0  0  0  0  0  0  0  0  0  0  0
   25.1719  -13.4746  -15.3682 C   0  0  0  0  0  0  0  0  0  0  0  0
   23.6090  -13.6192  -15.4505 C   0  0  1  0  0  0  0  0  0  0  0  0
   23.2484  -14.0654  -14.0487 C   0  0  0  0  0  0  0  0  0  0  0  0
   23.1262  -12.2914  -15.8498 C   0  0  0  0  0  0  0  0  0  0  0  0
   21.6799  -12.0529  -16.0079 C   0  0  2  0  0  0  0  0  0  0  0  0
   21.2426  -12.7469  -17.2624 N   0  0  0  0  0  0  0  0  0  0  0  0
   21.3180  -10.6641  -16.2286 C   0  0  0  0  0  0  0  0  0  0  0  0
   21.6786  -10.1030  -17.3171 O   0  0  0  0  0  0  0  0  0  0  0  0
   20.5698   -9.8642  -15.3259 N   0  0  0  0  0  0  0  0  0  0  0  0
   20.2857   -8.4976  -15.7137 C   0  0  1  0  0  0  0  0  0  0  0  0
   18.9509   -8.0662  -15.0486 C   0  0  0  0  0  0  0  0  0  0  0  0
   18.7429   -6.3167  -15.4088 S   0  0  0  0  0  0  0  0  0  0  0  0
   21.3587   -7.6018  -15.2981 C   0  0  0  0  0  0  0  0  0  0  0  0
   21.9056   -7.7722  -14.1779 O   0  0  0  0  0  0  0  0  0  0  0  0
   21.7995   -6.5751  -16.0880 O   0  0  0  0  0  0  0  0  0  0  0  0
  2  1  1  1
  3  2  1  0
  4  3  1  0
  5  4  1  0
  6  5  1  0
  6  7  1  0
  8  9  2  0
  8  2  1  0
 11 10  1  1
 12 11  1  0
 13 11  1  0
 14 15  1  0
 14 13  1  6
 15  8  1  0
 16 14  1  0
 17 16  2  0
 18 16  1  0
 19 18  1  0
 20 21  1  0
 19 20  1  1
 22 19  1  0
 22 24  1  0
 23 22  2  0
M  END
$$$$
