KLC.pdb
     RDKit          3D

 24 23  0  0  1  0  0  0  0  0999 V2000
   22.7277  -16.0677  -16.2098 N   0  0  0  0  0  0  0  0  0  0  0  0
   22.5481  -14.7861  -16.8452 C   0  0  1  0  0  0  0  0  0  0  0  0
   21.2227  -14.6840  -17.5569 C   0  0  0  0  0  0  0  0  0  0  0  0
   21.0573  -15.7655  -18.5693 C   0  0  0  0  0  0  0  0  0  0  0  0
   20.0647  -16.8128  -18.1607 C   0  0  0  0  0  0  0  0  0  0  0  0
   19.9432  -17.8096  -19.3260 C   0  0  0  0  0  0  0  0  0  0  0  0
   18.9673  -18.8270  -18.9861 N   0  0  0  0  0  0  0  0  0  0  0  0
   22.6561  -13.6704  -15.8428 C   0  0  0  0  0  0  0  0  0  0  0  0
   22.0287  -13.7103  -14.7606 O   0  0  0  0  0  0  0  0  0  0  0  0
   27.4273  -11.4219  -15.4237 C   0  0  0  0  0  0  0  0  0  0  0  0
   26.0458  -12.1709  -15.4466 C   0  0  1  0  0  0  0  0  0  0  0  0
   26.2899  -13.3342  -14.5077 C   0  0  0  0  0  0  0  0  0  0  0  0
   25.0664  -11.1734  -14.9980 C   0  0  0  0  0  0  0  0  0  0  0  0
   23.6248  -11.4317  -15.1676 C   0  0  2  0  0  0  0  0  0  0  0  0
   23.4806  -12.5657  -16.1372 N   0  0  0  0  0  0  0  0  0  0  0  0
   22.8854  -10.3445  -15.7839 C   0  0  0  0  0  0  0  0  0  0  0  0
   23.1180  -10.0620  -17.0069 O   0  0  0  0  0  0  0  0  0  0  0  0
   21.8955   -9.5619  -15.1343 N   0  0  0  0  0  0  0  0  0  0  0  0
   21.2254   -8.5412  -15.9139 C   0  0  1  0  0  0  0  0  0  0  0  0
   19.6927   -8.7266  -15.7510 C   0  0  0  0  0  0  0  0  0  0  0  0
   19.3184  -10.3960  -16.3049 S   0  0  0  0  0  0  0  0  0  0  0  0
   21.6128   -7.2066  -15.4721 C   0  0  0  0  0  0  0  0  0  0  0  0
   22.3830   -7.0829  -14.4848 O   0  0  0  0  0  0  0  0  0  0  0  0
   21.1690   -6.0732  -16.0972 O   0  0  0  0  0  0  0  0  0  0  0  0
  2  1  1  1
  3  2  1  0
  4  3  1  0
  5  4  1  0
  6  5  1  0
  6  7  1  0
  8  9  2  0
  8  2  1  0
 11 10  1  1
 12 11  1  0
 13 11  1  0
 14 15  1  0
 14 13  1  6
 15  8  1  0
 16 14  1  0
 17 16  2  0
 18 16  1  0
 19 18  1  0
 20 21  1  0
 19 20  1  1
 22 19  1  0
 22 24  1  0
 23 22  2  0
M  END
$$$$
