KLC.pdb
     RDKit          3D

 24 23  0  0  1  0  0  0  0  0999 V2000
   17.7405  -25.6686   -6.5076 N   0  0  0  0  0  0  0  0  0  0  0  0
   16.7348  -25.7342   -5.4768 C   0  0  1  0  0  0  0  0  0  0  0  0
   15.3586  -25.9870   -6.0390 C   0  0  0  0  0  0  0  0  0  0  0  0
   14.7139  -24.7258   -6.5031 C   0  0  0  0  0  0  0  0  0  0  0  0
   13.2708  -24.8992   -6.8725 C   0  0  0  0  0  0  0  0  0  0  0  0
   12.7614  -23.5407   -7.3838 C   0  0  0  0  0  0  0  0  0  0  0  0
   11.3446  -23.6399   -7.6766 N   0  0  0  0  0  0  0  0  0  0  0  0
   17.0623  -26.8070   -4.4752 C   0  0  0  0  0  0  0  0  0  0  0  0
   17.3241  -27.9750   -4.8407 O   0  0  0  0  0  0  0  0  0  0  0  0
   20.5882  -26.1094   -0.2083 C   0  0  0  0  0  0  0  0  0  0  0  0
   19.9243  -26.8054   -1.4513 C   0  0  1  0  0  0  0  0  0  0  0  0
   20.5633  -28.1786   -1.4362 C   0  0  0  0  0  0  0  0  0  0  0  0
   18.4813  -26.7615   -1.1842 C   0  0  0  0  0  0  0  0  0  0  0  0
   17.5470  -27.4670   -2.0803 C   0  0  2  0  0  0  0  0  0  0  0  0
   17.0718  -26.4806   -3.1039 N   0  0  0  0  0  0  0  0  0  0  0  0
   16.3273  -27.9260   -1.4399 C   0  0  0  0  0  0  0  0  0  0  0  0
   15.4252  -27.0686   -1.1555 O   0  0  0  0  0  0  0  0  0  0  0  0
   16.0395  -29.2759   -1.1089 N   0  0  0  0  0  0  0  0  0  0  0  0
   14.7975  -29.5490   -0.4150 C   0  0  1  0  0  0  0  0  0  0  0  0
   14.4111  -31.0315   -0.6656 C   0  0  0  0  0  0  0  0  0  0  0  0
   14.4342  -31.2711   -2.4477 S   0  0  0  0  0  0  0  0  0  0  0  0
   14.9339  -29.3076    1.0167 C   0  0  0  0  0  0  0  0  0  0  0  0
   16.0772  -29.3367    1.5411 O   0  0  0  0  0  0  0  0  0  0  0  0
   13.8566  -29.0458    1.8186 O   0  0  0  0  0  0  0  0  0  0  0  0
  2  1  1  6
  3  2  1  0
  4  3  1  0
  5  4  1  0
  6  5  1  0
  6  7  1  0
  8  9  2  0
  8  2  1  0
 11 10  1  1
 12 11  1  0
 13 11  1  0
 14 15  1  0
 14 13  1  1
 15  8  1  0
 16 14  1  0
 17 16  2  0
 18 16  1  0
 19 18  1  0
 20 21  1  0
 19 20  1  1
 22 19  1  0
 22 24  1  0
 23 22  2  0
M  END
$$$$
