KLC.pdb
     RDKit          3D

 24 23  0  0  1  0  0  0  0  0999 V2000
   19.0743  -13.1491  -17.9268 N   0  0  0  0  0  0  0  0  0  0  0  0
   19.1818  -11.7166  -18.0483 C   0  0  1  0  0  0  0  0  0  0  0  0
   17.8436  -11.0326  -17.9256 C   0  0  0  0  0  0  0  0  0  0  0  0
   16.9292  -11.4090  -19.0409 C   0  0  0  0  0  0  0  0  0  0  0  0
   15.8539  -12.3690  -18.6272 C   0  0  0  0  0  0  0  0  0  0  0  0
   14.9473  -12.5971  -19.8489 C   0  0  0  0  0  0  0  0  0  0  0  0
   13.8913  -13.5257  -19.4948 N   0  0  0  0  0  0  0  0  0  0  0  0
   20.1170  -11.1588  -17.0112 C   0  0  0  0  0  0  0  0  0  0  0  0
   20.1328  -11.6112  -15.8443 O   0  0  0  0  0  0  0  0  0  0  0  0
   24.7630   -8.1554  -16.1891 C   0  0  0  0  0  0  0  0  0  0  0  0
   24.6065   -9.7119  -16.3406 C   0  0  1  0  0  0  0  0  0  0  0  0
   24.5922  -10.1800  -14.9001 C   0  0  0  0  0  0  0  0  0  0  0  0
   23.3586   -9.8959  -17.0919 C   0  0  0  0  0  0  0  0  0  0  0  0
   22.0625   -9.6458  -16.4352 C   0  0  2  0  0  0  0  0  0  0  0  0
   20.9862  -10.1087  -17.3700 N   0  0  0  0  0  0  0  0  0  0  0  0
   21.7587   -8.2432  -16.2143 C   0  0  0  0  0  0  0  0  0  0  0  0
   21.6259   -7.4786  -17.2280 O   0  0  0  0  0  0  0  0  0  0  0  0
   21.5787   -7.6394  -14.9425 N   0  0  0  0  0  0  0  0  0  0  0  0
   21.3026   -6.2177  -14.9051 C   0  0  1  0  0  0  0  0  0  0  0  0
   19.7928   -6.0189  -14.6034 C   0  0  0  0  0  0  0  0  0  0  0  0
   19.5574   -4.2599  -14.3129 S   0  0  0  0  0  0  0  0  0  0  0  0
   22.1037   -5.5558  -13.8821 C   0  0  0  0  0  0  0  0  0  0  0  0
   22.5665   -6.2321  -12.9274 O   0  0  0  0  0  0  0  0  0  0  0  0
   22.3761   -4.2154  -13.9222 O   0  0  0  0  0  0  0  0  0  0  0  0
  2  1  1  1
  3  2  1  0
  4  3  1  0
  5  4  1  0
  6  5  1  0
  6  7  1  0
  8  9  2  0
  8  2  1  0
 11 10  1  1
 12 11  1  0
 13 11  1  0
 14 15  1  0
 14 13  1  6
 15  8  1  0
 16 14  1  0
 17 16  2  0
 18 16  1  0
 19 18  1  0
 20 21  1  0
 19 20  1  1
 22 19  1  0
 22 24  1  0
 23 22  2  0
M  END
$$$$
