KLC.pdb
     RDKit          3D

 24 23  0  0  1  0  0  0  0  0999 V2000
   17.3978  -13.3413  -17.7008 N   0  0  0  0  0  0  0  0  0  0  0  0
   18.1212  -12.2082  -18.2216 C   0  0  1  0  0  0  0  0  0  0  0  0
   17.2163  -11.2302  -18.9276 C   0  0  0  0  0  0  0  0  0  0  0  0
   16.5258  -11.8596  -20.0890 C   0  0  0  0  0  0  0  0  0  0  0  0
   17.4028  -11.9936  -21.2982 C   0  0  0  0  0  0  0  0  0  0  0  0
   16.5289  -12.5384  -22.4409 C   0  0  0  0  0  0  0  0  0  0  0  0
   17.3718  -12.8631  -23.5753 N   0  0  0  0  0  0  0  0  0  0  0  0
   18.8593  -11.4924  -17.1242 C   0  0  0  0  0  0  0  0  0  0  0  0
   18.2578  -11.0595  -16.1156 O   0  0  0  0  0  0  0  0  0  0  0  0
   22.9504  -10.8844  -13.8060 C   0  0  0  0  0  0  0  0  0  0  0  0
   23.4034  -10.5717  -15.2781 C   0  0  1  0  0  0  0  0  0  0  0  0
   24.7757  -11.2097  -15.3397 C   0  0  0  0  0  0  0  0  0  0  0  0
   22.3710  -11.1769  -16.1289 C   0  0  0  0  0  0  0  0  0  0  0  0
   21.0265  -10.5754  -16.1924 C   0  0  2  0  0  0  0  0  0  0  0  0
   20.2521  -11.3114  -17.2437 N   0  0  0  0  0  0  0  0  0  0  0  0
   21.0040   -9.1942  -16.6397 C   0  0  0  0  0  0  0  0  0  0  0  0
   21.4207   -8.9248  -17.8160 O   0  0  0  0  0  0  0  0  0  0  0  0
   20.5353   -8.0968  -15.8712 N   0  0  0  0  0  0  0  0  0  0  0  0
   20.6405   -6.7740  -16.4524 C   0  0  1  0  0  0  0  0  0  0  0  0
   19.2612   -6.3907  -17.0529 C   0  0  0  0  0  0  0  0  0  0  0  0
   18.0783   -6.4602  -15.7003 S   0  0  0  0  0  0  0  0  0  0  0  0
   21.0345   -5.7915  -15.4493 C   0  0  0  0  0  0  0  0  0  0  0  0
   21.1697   -6.1526  -14.2517 O   0  0  0  0  0  0  0  0  0  0  0  0
   21.2675   -4.4803  -15.7639 O   0  0  0  0  0  0  0  0  0  0  0  0
  2  1  1  1
  3  2  1  0
  4  3  1  0
  5  4  1  0
  6  5  1  0
  6  7  1  0
  8  9  2  0
  8  2  1  0
 11 10  1  1
 12 11  1  0
 13 11  1  0
 14 15  1  0
 14 13  1  6
 15  8  1  0
 16 14  1  0
 17 16  2  0
 18 16  1  0
 19 18  1  0
 20 21  1  0
 19 20  1  1
 22 19  1  0
 22 24  1  0
 23 22  2  0
M  END
$$$$
