KLC.pdb
     RDKit          3D

 24 23  0  0  1  0  0  0  0  0999 V2000
   20.3040  -20.7919  -12.0501 N   0  0  0  0  0  0  0  0  0  0  0  0
   21.2795  -21.4228  -12.9037 C   0  0  1  0  0  0  0  0  0  0  0  0
   20.7811  -21.5814  -14.3180 C   0  0  0  0  0  0  0  0  0  0  0  0
   19.6146  -22.5066  -14.3895 C   0  0  0  0  0  0  0  0  0  0  0  0
   19.9911  -23.9488  -14.2242 C   0  0  0  0  0  0  0  0  0  0  0  0
   18.7252  -24.7856  -14.4764 C   0  0  0  0  0  0  0  0  0  0  0  0
   19.0409  -26.1918  -14.3158 N   0  0  0  0  0  0  0  0  0  0  0  0
   22.5643  -20.6416  -12.9191 C   0  0  0  0  0  0  0  0  0  0  0  0
   22.5787  -19.4260  -13.2166 O   0  0  0  0  0  0  0  0  0  0  0  0
   27.5094  -19.5943  -11.0382 C   0  0  0  0  0  0  0  0  0  0  0  0
   27.4508  -20.9738  -11.7890 C   0  0  1  0  0  0  0  0  0  0  0  0
   28.3592  -21.8435  -10.9447 C   0  0  0  0  0  0  0  0  0  0  0  0
   26.0293  -21.3411  -11.7965 C   0  0  0  0  0  0  0  0  0  0  0  0
   25.0758  -20.5690  -12.6139 C   0  0  2  0  0  0  0  0  0  0  0  0
   23.7672  -21.2994  -12.5912 N   0  0  0  0  0  0  0  0  0  0  0  0
   25.4132  -20.4935  -14.0242 C   0  0  0  0  0  0  0  0  0  0  0  0
   25.3408  -21.5556  -14.7287 O   0  0  0  0  0  0  0  0  0  0  0  0
   25.8109  -19.3129  -14.7044 N   0  0  0  0  0  0  0  0  0  0  0  0
   26.1460  -19.4256  -16.1092 C   0  0  1  0  0  0  0  0  0  0  0  0
   25.4526  -18.2660  -16.8737 C   0  0  0  0  0  0  0  0  0  0  0  0
   25.9339  -18.4315  -18.5984 S   0  0  0  0  0  0  0  0  0  0  0  0
   27.5889  -19.3585  -16.3100 C   0  0  0  0  0  0  0  0  0  0  0  0
   28.2785  -18.5989  -15.5818 O   0  0  0  0  0  0  0  0  0  0  0  0
   28.2278  -20.0989  -17.2671 O   0  0  0  0  0  0  0  0  0  0  0  0
  2  1  1  1
  3  2  1  0
  4  3  1  0
  5  4  1  0
  6  5  1  0
  6  7  1  0
  8  9  2  0
  8  2  1  0
 11 10  1  1
 12 11  1  0
 13 11  1  0
 14 15  1  0
 14 13  1  1
 15  8  1  0
 16 14  1  0
 17 16  2  0
 18 16  1  0
 19 18  1  0
 20 21  1  0
 19 20  1  6
 22 19  1  0
 22 24  1  0
 23 22  2  0
M  END
$$$$
