KLC.pdb
     RDKit          3D

 24 23  0  0  1  0  0  0  0  0999 V2000
   28.3466  -21.4772  -15.5903 N   0  0  0  0  0  0  0  0  0  0  0  0
   27.3614  -20.5153  -15.1631 C   0  0  1  0  0  0  0  0  0  0  0  0
   26.6887  -19.8335  -16.3278 C   0  0  0  0  0  0  0  0  0  0  0  0
   27.2632  -18.4815  -16.5803 C   0  0  0  0  0  0  0  0  0  0  0  0
   28.1106  -18.4192  -17.8160 C   0  0  0  0  0  0  0  0  0  0  0  0
   28.6340  -16.9782  -17.9416 C   0  0  0  0  0  0  0  0  0  0  0  0
   29.4792  -16.8763  -19.1155 N   0  0  0  0  0  0  0  0  0  0  0  0
   26.3146  -21.1659  -14.3016 C   0  0  0  0  0  0  0  0  0  0  0  0
   25.9232  -22.3327  -14.5293 O   0  0  0  0  0  0  0  0  0  0  0  0
   26.1377  -19.9383   -8.9022 C   0  0  0  0  0  0  0  0  0  0  0  0
   26.2511  -20.7582  -10.2382 C   0  0  1  0  0  0  0  0  0  0  0  0
   26.4454  -22.1741   -9.7365 C   0  0  0  0  0  0  0  0  0  0  0  0
   24.9965  -20.4929  -10.9533 C   0  0  0  0  0  0  0  0  0  0  0  0
   24.7785  -21.0697  -12.2924 C   0  0  2  0  0  0  0  0  0  0  0  0
   25.7715  -20.4403  -13.2220 N   0  0  0  0  0  0  0  0  0  0  0  0
   23.4910  -20.7520  -12.8838 C   0  0  0  0  0  0  0  0  0  0  0  0
   23.3537  -19.6362  -13.4886 O   0  0  0  0  0  0  0  0  0  0  0  0
   22.3523  -21.5990  -12.8595 N   0  0  0  0  0  0  0  0  0  0  0  0
   21.2460  -21.2653  -13.7332 C   0  0  1  0  0  0  0  0  0  0  0  0
   21.3426  -22.1482  -15.0064 C   0  0  0  0  0  0  0  0  0  0  0  0
   19.8662  -21.8100  -15.9757 S   0  0  0  0  0  0  0  0  0  0  0  0
   19.9677  -21.4919  -13.0688 C   0  0  0  0  0  0  0  0  0  0  0  0
   19.8671  -22.4191  -12.2244 O   0  0  0  0  0  0  0  0  0  0  0  0
   18.8641  -20.7260  -13.3291 O   0  0  0  0  0  0  0  0  0  0  0  0
  2  1  1  6
  3  2  1  0
  4  3  1  0
  5  4  1  0
  6  5  1  0
  6  7  1  0
  8  9  2  0
  8  2  1  0
 11 10  1  1
 12 11  1  0
 13 11  1  0
 14 15  1  0
 14 13  1  1
 15  8  1  0
 16 14  1  0
 17 16  2  0
 18 16  1  0
 19 18  1  0
 20 21  1  0
 19 20  1  6
 22 19  1  0
 22 24  1  0
 23 22  2  0
M  END
$$$$
