KLC.pdb
     RDKit          3D

 24 23  0  0  1  0  0  0  0  0999 V2000
   28.1419  -18.8887  -15.6810 N   0  0  0  0  0  0  0  0  0  0  0  0
   26.8308  -18.5129  -15.2140 C   0  0  1  0  0  0  0  0  0  0  0  0
   26.0108  -17.8495  -16.2916 C   0  0  0  0  0  0  0  0  0  0  0  0
   26.8299  -16.9044  -17.1026 C   0  0  0  0  0  0  0  0  0  0  0  0
   27.0656  -15.5895  -16.4212 C   0  0  0  0  0  0  0  0  0  0  0  0
   27.7835  -14.6734  -17.4270 C   0  0  0  0  0  0  0  0  0  0  0  0
   26.9831  -13.4845  -17.6478 N   0  0  0  0  0  0  0  0  0  0  0  0
   26.0836  -19.7094  -14.6928 C   0  0  0  0  0  0  0  0  0  0  0  0
   26.0909  -20.7968  -15.3124 O   0  0  0  0  0  0  0  0  0  0  0  0
   25.8409  -20.3703   -9.1984 C   0  0  0  0  0  0  0  0  0  0  0  0
   26.1519  -20.5228  -10.7314 C   0  0  1  0  0  0  0  0  0  0  0  0
   26.9963  -21.7797  -10.7695 C   0  0  0  0  0  0  0  0  0  0  0  0
   24.8366  -20.6086  -11.3782 C   0  0  0  0  0  0  0  0  0  0  0  0
   24.7468  -20.7949  -12.8379 C   0  0  2  0  0  0  0  0  0  0  0  0
   25.3660  -19.5931  -13.4851 N   0  0  0  0  0  0  0  0  0  0  0  0
   23.3925  -20.8188  -13.3609 C   0  0  0  0  0  0  0  0  0  0  0  0
   22.7546  -19.7173  -13.4589 O   0  0  0  0  0  0  0  0  0  0  0  0
   22.7076  -21.9836  -13.7952 N   0  0  0  0  0  0  0  0  0  0  0  0
   21.3875  -21.8146  -14.3674 C   0  0  1  0  0  0  0  0  0  0  0  0
   21.1334  -22.9754  -15.3665 C   0  0  0  0  0  0  0  0  0  0  0  0
   19.4549  -22.7658  -15.9766 S   0  0  0  0  0  0  0  0  0  0  0  0
   20.3627  -21.8205  -13.3299 C   0  0  0  0  0  0  0  0  0  0  0  0
   20.5498  -22.4908  -12.2817 O   0  0  0  0  0  0  0  0  0  0  0  0
   19.1958  -21.1165  -13.4525 O   0  0  0  0  0  0  0  0  0  0  0  0
  2  1  1  6
  3  2  1  0
  4  3  1  0
  5  4  1  0
  6  5  1  0
  6  7  1  0
  8  9  2  0
  8  2  1  0
 11 10  1  1
 12 11  1  0
 13 11  1  0
 14 15  1  0
 14 13  1  1
 15  8  1  0
 16 14  1  0
 17 16  2  0
 18 16  1  0
 19 18  1  0
 20 21  1  0
 19 20  1  6
 22 19  1  0
 22 24  1  0
 23 22  2  0
M  END
$$$$
