KLC.pdb
     RDKit          3D

 24 23  0  0  1  0  0  0  0  0999 V2000
   22.7367  -22.6029  -12.3758 N   0  0  0  0  0  0  0  0  0  0  0  0
   22.5569  -21.2343  -12.7914 C   0  0  1  0  0  0  0  0  0  0  0  0
   21.1156  -20.7988  -12.7096 C   0  0  0  0  0  0  0  0  0  0  0  0
   20.2724  -21.4948  -13.7227 C   0  0  0  0  0  0  0  0  0  0  0  0
   20.3907  -22.9887  -13.6665 C   0  0  0  0  0  0  0  0  0  0  0  0
   19.4580  -23.5640  -14.7462 C   0  0  0  0  0  0  0  0  0  0  0  0
   19.6262  -25.0030  -14.8069 N   0  0  0  0  0  0  0  0  0  0  0  0
   23.3997  -20.3062  -11.9609 C   0  0  0  0  0  0  0  0  0  0  0  0
   23.2894  -19.0639  -12.0660 O   0  0  0  0  0  0  0  0  0  0  0  0
   25.9464  -19.0247   -7.3998 C   0  0  0  0  0  0  0  0  0  0  0  0
   26.7255  -20.1218   -8.2120 C   0  0  1  0  0  0  0  0  0  0  0  0
   27.2546  -21.0243   -7.1166 C   0  0  0  0  0  0  0  0  0  0  0  0
   25.7237  -20.7127   -9.1080 C   0  0  0  0  0  0  0  0  0  0  0  0
   25.2915  -19.9792  -10.3116 C   0  0  2  0  0  0  0  0  0  0  0  0
   24.3265  -20.8553  -11.0518 N   0  0  0  0  0  0  0  0  0  0  0  0
   26.3478  -19.7252  -11.2751 C   0  0  0  0  0  0  0  0  0  0  0  0
   26.8306  -18.5463  -11.3576 O   0  0  0  0  0  0  0  0  0  0  0  0
   26.9115  -20.6983  -12.1410 N   0  0  0  0  0  0  0  0  0  0  0  0
   27.9032  -20.2536  -13.0988 C   0  0  1  0  0  0  0  0  0  0  0  0
   29.3092  -20.4174  -12.4613 C   0  0  0  0  0  0  0  0  0  0  0  0
   29.4618  -22.1486  -11.9993 S   0  0  0  0  0  0  0  0  0  0  0  0
   27.8247  -21.0287  -14.3316 C   0  0  0  0  0  0  0  0  0  0  0  0
   26.9710  -21.9478  -14.4292 O   0  0  0  0  0  0  0  0  0  0  0  0
   28.6496  -20.7909  -15.3971 O   0  0  0  0  0  0  0  0  0  0  0  0
  2  1  1  1
  3  2  1  0
  4  3  1  0
  5  4  1  0
  6  5  1  0
  6  7  1  0
  8  9  2  0
  8  2  1  0
 11 10  1  1
 12 11  1  0
 13 11  1  0
 14 15  1  0
 14 13  1  1
 15  8  1  0
 16 14  1  0
 17 16  2  0
 18 16  1  0
 19 18  1  0
 20 21  1  0
 19 20  1  1
 22 19  1  0
 22 24  1  0
 23 22  2  0
M  END
$$$$
