KLC.pdb
     RDKit          3D

 24 23  0  0  1  0  0  0  0  0999 V2000
   20.7966  -13.1208  -16.9863 N   0  0  0  0  0  0  0  0  0  0  0  0
   20.8688  -11.8058  -17.5727 C   0  0  1  0  0  0  0  0  0  0  0  0
   19.5209  -11.3141  -18.0364 C   0  0  0  0  0  0  0  0  0  0  0  0
   18.8368  -12.3177  -18.9004 C   0  0  0  0  0  0  0  0  0  0  0  0
   19.3043  -12.2900  -20.3250 C   0  0  0  0  0  0  0  0  0  0  0  0
   18.4415  -13.2922  -21.1109 C   0  0  0  0  0  0  0  0  0  0  0  0
   18.8441  -13.2814  -22.5040 N   0  0  0  0  0  0  0  0  0  0  0  0
   21.4463  -10.8153  -16.5996 C   0  0  0  0  0  0  0  0  0  0  0  0
   20.8524  -10.5335  -15.5346 O   0  0  0  0  0  0  0  0  0  0  0  0
   26.9925  -10.1521  -16.1795 C   0  0  0  0  0  0  0  0  0  0  0  0
   25.5010  -10.4648  -15.7951 C   0  0  1  0  0  0  0  0  0  0  0  0
   25.6017  -10.7631  -14.3135 C   0  0  0  0  0  0  0  0  0  0  0  0
   24.7538   -9.2552  -16.1612 C   0  0  0  0  0  0  0  0  0  0  0  0
   23.2936   -9.2063  -15.9638 C   0  0  2  0  0  0  0  0  0  0  0  0
   22.6778  -10.1999  -16.9020 N   0  0  0  0  0  0  0  0  0  0  0  0
   22.6769   -7.9443  -16.3319 C   0  0  0  0  0  0  0  0  0  0  0  0
   22.6288   -7.6237  -17.5667 O   0  0  0  0  0  0  0  0  0  0  0  0
   22.0980   -7.0240  -15.4196 N   0  0  0  0  0  0  0  0  0  0  0  0
   21.4489   -5.8505  -15.9676 C   0  0  1  0  0  0  0  0  0  0  0  0
   19.9245   -5.9606  -15.6949 C   0  0  0  0  0  0  0  0  0  0  0  0
   19.2117   -4.3680  -16.1298 S   0  0  0  0  0  0  0  0  0  0  0  0
   21.9737   -4.6317  -15.3629 C   0  0  0  0  0  0  0  0  0  0  0  0
   22.4666   -4.6796  -14.2063 O   0  0  0  0  0  0  0  0  0  0  0  0
   21.9529   -3.4274  -16.0121 O   0  0  0  0  0  0  0  0  0  0  0  0
  2  1  1  1
  3  2  1  0
  4  3  1  0
  5  4  1  0
  6  5  1  0
  6  7  1  0
  8  9  2  0
  8  2  1  0
 11 10  1  1
 12 11  1  0
 13 11  1  0
 14 15  1  0
 14 13  1  6
 15  8  1  0
 16 14  1  0
 17 16  2  0
 18 16  1  0
 19 18  1  0
 20 21  1  0
 19 20  1  1
 22 19  1  0
 22 24  1  0
 23 22  2  0
M  END
$$$$
