KLC.pdb
     RDKit          3D

 24 23  0  0  1  0  0  0  0  0999 V2000
   25.6186  -24.3608  -18.4419 N   0  0  0  0  0  0  0  0  0  0  0  0
   25.7376  -24.8317  -17.0845 C   0  0  1  0  0  0  0  0  0  0  0  0
   27.1758  -25.0071  -16.6666 C   0  0  0  0  0  0  0  0  0  0  0  0
   27.7755  -26.2353  -17.2614 C   0  0  0  0  0  0  0  0  0  0  0  0
   27.3171  -27.4996  -16.5979 C   0  0  0  0  0  0  0  0  0  0  0  0
   28.0657  -28.6659  -17.2654 C   0  0  0  0  0  0  0  0  0  0  0  0
   27.7815  -29.8921  -16.5453 N   0  0  0  0  0  0  0  0  0  0  0  0
   25.0583  -23.8904  -16.1286 C   0  0  0  0  0  0  0  0  0  0  0  0
   25.2514  -23.9708  -14.8947 O   0  0  0  0  0  0  0  0  0  0  0  0
   23.2612  -19.0418  -14.6805 C   0  0  0  0  0  0  0  0  0  0  0  0
   22.4117  -19.6592  -15.8499 C   0  0  1  0  0  0  0  0  0  0  0  0
   22.1406  -18.4548  -16.7274 C   0  0  0  0  0  0  0  0  0  0  0  0
   23.2673  -20.7017  -16.4303 C   0  0  0  0  0  0  0  0  0  0  0  0
   23.4421  -21.9848  -15.7256 C   0  0  2  0  0  0  0  0  0  0  0  0
   24.1913  -22.9045  -16.6418 N   0  0  0  0  0  0  0  0  0  0  0  0
   22.2057  -22.6938  -15.4478 C   0  0  0  0  0  0  0  0  0  0  0  0
   21.5033  -23.1077  -16.4303 O   0  0  0  0  0  0  0  0  0  0  0  0
   21.7076  -22.9851  -14.1510 N   0  0  0  0  0  0  0  0  0  0  0  0
   20.4333  -23.6677  -14.0568 C   0  0  1  0  0  0  0  0  0  0  0  0
   20.4228  -24.5095  -12.7525 C   0  0  0  0  0  0  0  0  0  0  0  0
   21.8889  -25.5495  -12.8040 S   0  0  0  0  0  0  0  0  0  0  0  0
   19.3293  -22.7151  -14.0407 C   0  0  0  0  0  0  0  0  0  0  0  0
   19.5785  -21.4819  -14.0272 O   0  0  0  0  0  0  0  0  0  0  0  0
   18.0205  -23.1145  -14.0424 O   0  0  0  0  0  0  0  0  0  0  0  0
  2  1  1  6
  3  2  1  0
  4  3  1  0
  5  4  1  0
  6  5  1  0
  6  7  1  0
  8  9  2  0
  8  2  1  0
 11 10  1  1
 12 11  1  0
 13 11  1  0
 14 15  1  0
 14 13  1  6
 15  8  1  0
 16 14  1  0
 17 16  2  0
 18 16  1  0
 19 18  1  0
 20 21  1  0
 19 20  1  1
 22 19  1  0
 22 24  1  0
 23 22  2  0
M  END
$$$$
