TCF.pdb
     RDKit          3D

 25 25  0  0  1  0  0  0  0  0999 V2000
   13.3938  -17.2400   19.8419 C   0  0  0  0  0  0  0  0  0  0  0  0
   12.1173  -17.5861   19.1006 C   0  0  1  0  0  0  0  0  0  0  0  0
   12.4222  -18.6279   18.2260 O   0  0  0  0  0  0  0  0  0  0  0  0
   11.1143  -18.0388   20.1310 C   0  0  2  0  0  0  0  0  0  0  0  0
    9.9651  -18.5729   19.4423 N   0  0  0  0  0  0  0  0  0  0  0  0
   10.6553  -16.9263   21.0053 C   0  0  0  0  0  0  0  0  0  0  0  0
   11.4721  -16.1995   21.6397 O   0  0  0  0  0  0  0  0  0  0  0  0
    9.2766  -16.6187   21.1760 N   0  0  0  0  0  0  0  0  0  0  0  0
    8.7697  -15.5599   21.9879 C   0  0  1  0  0  0  0  0  0  0  0  0
    7.4675  -14.9804   21.4668 C   0  0  0  0  0  0  0  0  0  0  0  0
    6.1102  -16.1472   21.5460 S   0  0  0  0  0  0  0  0  0  0  0  0
    8.6902  -15.9059   23.4250 C   0  0  0  0  0  0  0  0  0  0  0  0
    8.1948  -17.0183   23.7372 O   0  0  0  0  0  0  0  0  0  0  0  0
    9.1343  -15.0679   24.4622 N   0  0  0  0  0  0  0  0  0  0  0  0
    9.0363  -15.3823   25.8764 C   0  0  1  0  0  0  0  0  0  0  0  0
    7.6523  -15.2401   26.4005 C   0  0  0  0  0  0  0  0  0  0  0  0
    7.2094  -13.8334   26.3231 C   0  0  0  0  0  0  0  0  0  0  0  0
    5.8539  -13.4814   26.3946 C   0  0  0  0  0  0  0  0  0  0  0  0
    5.4595  -12.1659   26.3352 C   0  0  0  0  0  0  0  0  0  0  0  0
    6.3825  -11.1647   26.2045 C   0  0  0  0  0  0  0  0  0  0  0  0
    7.7075  -11.4725   26.1323 C   0  0  0  0  0  0  0  0  0  0  0  0
    8.0977  -12.7864   26.1920 C   0  0  0  0  0  0  0  0  0  0  0  0
    9.6529  -16.7070   26.0892 C   0  0  0  0  0  0  0  0  0  0  0  0
   10.0716  -17.3801   25.0851 O   0  0  0  0  0  0  0  0  0  0  0  0
    9.8362  -17.3254   27.3084 O   0  0  0  0  0  0  0  0  0  0  0  0
  2  1  1  1
  2  3  1  0
  4  2  1  0
  4  5  1  6
  6  4  1  0
  6  7  2  0
  8  6  1  0
  9  8  1  0
  9 12  1  0
  9 10  1  6
 11 10  1  0
 12 13  2  0
 12 14  1  0
 14 15  1  0
 15 16  1  6
 16 17  1  0
 17 22  2  0
 18 17  1  0
 18 19  2  0
 19 20  1  0
 20 21  2  0
 22 21  1  0
 23 25  1  0
 23 15  1  0
 24 23  2  0
M  END
$$$$
