TCF.pdb
     RDKit          3D

 25 25  0  0  1  0  0  0  0  0999 V2000
    8.4140  -12.4552   20.3351 C   0  0  0  0  0  0  0  0  0  0  0  0
    7.9400  -13.0228   19.0115 C   0  0  1  0  0  0  0  0  0  0  0  0
    8.4203  -12.1804   18.0100 O   0  0  0  0  0  0  0  0  0  0  0  0
    8.5418  -14.3985   18.8772 C   0  0  2  0  0  0  0  0  0  0  0  0
    8.1602  -14.9382   17.5953 N   0  0  0  0  0  0  0  0  0  0  0  0
    8.0675  -15.3324   19.9334 C   0  0  0  0  0  0  0  0  0  0  0  0
    7.1341  -16.1577   19.7203 O   0  0  0  0  0  0  0  0  0  0  0  0
    8.6354  -15.3493   21.2380 N   0  0  0  0  0  0  0  0  0  0  0  0
    8.3486  -16.3226   22.2419 C   0  0  1  0  0  0  0  0  0  0  0  0
    8.5643  -17.7482   21.7686 C   0  0  0  0  0  0  0  0  0  0  0  0
   10.2596  -18.0678   21.2852 S   0  0  0  0  0  0  0  0  0  0  0  0
    9.0243  -16.0552   23.5315 C   0  0  0  0  0  0  0  0  0  0  0  0
   10.2025  -15.6181   23.5006 O   0  0  0  0  0  0  0  0  0  0  0  0
    8.4301  -16.2597   24.7888 N   0  0  0  0  0  0  0  0  0  0  0  0
    9.0579  -15.9438   26.0594 C   0  0  1  0  0  0  0  0  0  0  0  0
    8.0915  -15.4241   27.0626 C   0  0  0  0  0  0  0  0  0  0  0  0
    7.6315  -14.0714   26.6888 C   0  0  0  0  0  0  0  0  0  0  0  0
    8.4905  -12.9636   26.7245 C   0  0  0  0  0  0  0  0  0  0  0  0
    8.0500  -11.7136   26.3597 C   0  0  0  0  0  0  0  0  0  0  0  0
    6.7590  -11.5190   25.9515 C   0  0  0  0  0  0  0  0  0  0  0  0
    5.8987  -12.5742   25.9052 C   0  0  0  0  0  0  0  0  0  0  0  0
    6.3415  -13.8204   26.2699 C   0  0  0  0  0  0  0  0  0  0  0  0
    9.8302  -17.1267   26.4889 C   0  0  0  0  0  0  0  0  0  0  0  0
    9.5416  -18.2790   26.0141 O   0  0  0  0  0  0  0  0  0  0  0  0
   10.8776  -17.1244   27.3863 O   0  0  0  0  0  0  0  0  0  0  0  0
  2  1  1  1
  2  3  1  0
  4  2  1  0
  4  5  1  6
  6  4  1  0
  6  7  2  0
  8  6  1  0
  9  8  1  0
  9 12  1  0
  9 10  1  6
 11 10  1  0
 12 13  2  0
 12 14  1  0
 14 15  1  0
 15 16  1  1
 16 17  1  0
 17 22  2  0
 18 17  1  0
 18 19  2  0
 19 20  1  0
 20 21  2  0
 22 21  1  0
 23 25  1  0
 23 15  1  0
 24 23  2  0
M  END
$$$$
