TCF.pdb
     RDKit          3D

 25 25  0  0  1  0  0  0  0  0999 V2000
    9.0819  -12.9756   19.4661 C   0  0  0  0  0  0  0  0  0  0  0  0
    8.2729  -13.6565   18.3796 C   0  0  1  0  0  0  0  0  0  0  0  0
    8.8925  -13.3653   17.1653 O   0  0  0  0  0  0  0  0  0  0  0  0
    8.3197  -15.1382   18.6537 C   0  0  2  0  0  0  0  0  0  0  0  0
    7.7176  -15.8258   17.5379 N   0  0  0  0  0  0  0  0  0  0  0  0
    7.5749  -15.5126   19.8858 C   0  0  0  0  0  0  0  0  0  0  0  0
    6.4048  -15.0897   20.1092 O   0  0  0  0  0  0  0  0  0  0  0  0
    8.1355  -16.3643   20.8782 N   0  0  0  0  0  0  0  0  0  0  0  0
    7.5730  -16.5954   22.1695 C   0  0  1  0  0  0  0  0  0  0  0  0
    6.8611  -17.9311   22.2791 C   0  0  0  0  0  0  0  0  0  0  0  0
    6.4682  -18.3690   23.9714 S   0  0  0  0  0  0  0  0  0  0  0  0
    8.5325  -16.3828   23.2765 C   0  0  0  0  0  0  0  0  0  0  0  0
    9.6296  -16.9949   23.2318 O   0  0  0  0  0  0  0  0  0  0  0  0
    8.2931  -15.5389   24.3747 N   0  0  0  0  0  0  0  0  0  0  0  0
    9.2449  -15.2815   25.4407 C   0  0  1  0  0  0  0  0  0  0  0  0
    9.4299  -13.8304   25.7058 C   0  0  0  0  0  0  0  0  0  0  0  0
    8.1644  -13.2198   26.1603 C   0  0  0  0  0  0  0  0  0  0  0  0
    7.9346  -12.9153   27.5097 C   0  0  0  0  0  0  0  0  0  0  0  0
    6.7565  -12.3339   27.9141 C   0  0  0  0  0  0  0  0  0  0  0  0
    5.7762  -12.0371   27.0074 C   0  0  0  0  0  0  0  0  0  0  0  0
    5.9676  -12.3198   25.6886 C   0  0  0  0  0  0  0  0  0  0  0  0
    7.1446  -12.9000   25.2884 C   0  0  0  0  0  0  0  0  0  0  0  0
    8.8406  -16.0850   26.6117 C   0  0  0  0  0  0  0  0  0  0  0  0
    7.6738  -16.6080   26.6496 O   0  0  0  0  0  0  0  0  0  0  0  0
    9.6202  -16.3460   27.7193 O   0  0  0  0  0  0  0  0  0  0  0  0
  2  1  1  1
  2  3  1  0
  4  2  1  0
  4  5  1  6
  6  4  1  0
  6  7  2  0
  8  6  1  0
  9  8  1  0
  9 12  1  0
  9 10  1  6
 11 10  1  0
 12 13  2  0
 12 14  1  0
 14 15  1  0
 15 16  1  1
 16 17  1  0
 17 22  2  0
 18 17  1  0
 18 19  2  0
 19 20  1  0
 20 21  2  0
 22 21  1  0
 23 25  1  0
 23 15  1  0
 24 23  2  0
M  END
$$$$
