TCF.pdb
     RDKit          3D

 25 25  0  0  1  0  0  0  0  0999 V2000
    8.1464  -12.4149   18.7257 C   0  0  0  0  0  0  0  0  0  0  0  0
    8.3894  -13.2719   19.9526 C   0  0  1  0  0  0  0  0  0  0  0  0
    7.3587  -13.0008   20.8513 O   0  0  0  0  0  0  0  0  0  0  0  0
    8.3355  -14.7110   19.5068 C   0  0  2  0  0  0  0  0  0  0  0  0
    7.0598  -14.9436   18.8754 N   0  0  0  0  0  0  0  0  0  0  0  0
    8.4719  -15.6634   20.6414 C   0  0  0  0  0  0  0  0  0  0  0  0
    7.4622  -16.1435   21.2310 O   0  0  0  0  0  0  0  0  0  0  0  0
    9.7418  -16.0860   21.1249 N   0  0  0  0  0  0  0  0  0  0  0  0
    9.9469  -16.9074   22.2740 C   0  0  1  0  0  0  0  0  0  0  0  0
   11.3233  -17.5453   22.3125 C   0  0  0  0  0  0  0  0  0  0  0  0
   11.5308  -18.8187   21.0693 S   0  0  0  0  0  0  0  0  0  0  0  0
    9.6092  -16.2332   23.5478 C   0  0  0  0  0  0  0  0  0  0  0  0
    9.5316  -14.9785   23.5485 O   0  0  0  0  0  0  0  0  0  0  0  0
    9.3698  -16.9089   24.7568 N   0  0  0  0  0  0  0  0  0  0  0  0
    8.8364  -16.2894   25.9568 C   0  0  1  0  0  0  0  0  0  0  0  0
    7.4408  -15.8080   25.7815 C   0  0  0  0  0  0  0  0  0  0  0  0
    7.3494  -14.3628   26.0714 C   0  0  0  0  0  0  0  0  0  0  0  0
    6.1425  -13.6598   25.9462 C   0  0  0  0  0  0  0  0  0  0  0  0
    6.0715  -12.3174   26.2338 C   0  0  0  0  0  0  0  0  0  0  0  0
    7.1798  -11.6323   26.6505 C   0  0  0  0  0  0  0  0  0  0  0  0
    8.3679  -12.2855   26.7826 C   0  0  0  0  0  0  0  0  0  0  0  0
    8.4352  -13.6252   26.4949 C   0  0  0  0  0  0  0  0  0  0  0  0
    9.0382  -17.2282   27.0785 C   0  0  0  0  0  0  0  0  0  0  0  0
    8.7691  -18.4692   26.9230 O   0  0  0  0  0  0  0  0  0  0  0  0
    9.5080  -16.8981   28.3327 O   0  0  0  0  0  0  0  0  0  0  0  0
  2  1  1  6
  2  3  1  0
  4  2  1  0
  4  5  1  1
  6  4  1  0
  6  7  2  0
  8  6  1  0
  9  8  1  0
  9 12  1  0
  9 10  1  1
 11 10  1  0
 12 13  2  0
 12 14  1  0
 14 15  1  0
 15 16  1  6
 16 17  1  0
 17 22  2  0
 18 17  1  0
 18 19  2  0
 19 20  1  0
 20 21  2  0
 22 21  1  0
 23 25  1  0
 23 15  1  0
 24 23  2  0
M  END
$$$$
