TCF.pdb
     RDKit          3D

 25 25  0  0  1  0  0  0  0  0999 V2000
    8.8864  -12.5190   20.4700 C   0  0  0  0  0  0  0  0  0  0  0  0
    8.0912  -13.2722   19.4217 C   0  0  1  0  0  0  0  0  0  0  0  0
    8.3683  -12.6763   18.1923 O   0  0  0  0  0  0  0  0  0  0  0  0
    8.5763  -14.6996   19.4372 C   0  0  2  0  0  0  0  0  0  0  0  0
    8.0138  -15.3829   18.2983 N   0  0  0  0  0  0  0  0  0  0  0  0
    8.1617  -15.4279   20.6662 C   0  0  0  0  0  0  0  0  0  0  0  0
    7.0674  -16.0575   20.7282 O   0  0  0  0  0  0  0  0  0  0  0  0
    8.9704  -15.4567   21.8367 N   0  0  0  0  0  0  0  0  0  0  0  0
    8.7654  -16.3250   22.9508 C   0  0  1  0  0  0  0  0  0  0  0  0
    9.1228  -17.7696   22.6540 C   0  0  0  0  0  0  0  0  0  0  0  0
   10.8528  -17.9836   22.2404 S   0  0  0  0  0  0  0  0  0  0  0  0
    9.3957  -15.8400   24.1993 C   0  0  0  0  0  0  0  0  0  0  0  0
   10.5203  -15.2845   24.1150 O   0  0  0  0  0  0  0  0  0  0  0  0
    8.8149  -15.9621   25.4733 N   0  0  0  0  0  0  0  0  0  0  0  0
    9.4516  -15.5546   26.7131 C   0  0  1  0  0  0  0  0  0  0  0  0
    8.4865  -14.9952   27.6960 C   0  0  0  0  0  0  0  0  0  0  0  0
    7.7496  -13.8571   27.1107 C   0  0  0  0  0  0  0  0  0  0  0  0
    6.5030  -14.0254   26.4908 C   0  0  0  0  0  0  0  0  0  0  0  0
    5.8236  -12.9531   25.9635 C   0  0  0  0  0  0  0  0  0  0  0  0
    6.3483  -11.6915   26.0307 C   0  0  0  0  0  0  0  0  0  0  0  0
    7.5573  -11.4935   26.6264 C   0  0  0  0  0  0  0  0  0  0  0  0
    8.2327  -12.5659   27.1517 C   0  0  0  0  0  0  0  0  0  0  0  0
   10.2560  -16.6915   27.2035 C   0  0  0  0  0  0  0  0  0  0  0  0
   10.9832  -16.5507   28.2465 O   0  0  0  0  0  0  0  0  0  0  0  0
   10.3103  -17.9467   26.6342 O   0  0  0  0  0  0  0  0  0  0  0  0
  2  1  1  1
  2  3  1  0
  4  2  1  0
  4  5  1  6
  6  4  1  0
  6  7  2  0
  8  6  1  0
  9  8  1  0
  9 12  1  0
  9 10  1  6
 11 10  1  0
 12 13  2  0
 12 14  1  0
 14 15  1  0
 15 16  1  1
 16 17  1  0
 17 22  2  0
 18 17  1  0
 18 19  2  0
 19 20  1  0
 20 21  2  0
 22 21  1  0
 23 25  1  0
 23 15  1  0
 24 23  2  0
M  END
$$$$
