TCF.pdb
     RDKit          3D

 25 25  0  0  1  0  0  0  0  0999 V2000
   10.1954  -20.0081   20.8541 C   0  0  0  0  0  0  0  0  0  0  0  0
   11.1113  -19.4416   19.7869 C   0  0  1  0  0  0  0  0  0  0  0  0
   11.3502  -20.4631   18.8689 O   0  0  0  0  0  0  0  0  0  0  0  0
   10.3751  -18.3025   19.1288 C   0  0  2  0  0  0  0  0  0  0  0  0
   11.1518  -17.8511   18.0005 N   0  0  0  0  0  0  0  0  0  0  0  0
   10.1758  -17.1485   20.0461 C   0  0  0  0  0  0  0  0  0  0  0  0
   11.1336  -16.3972   20.3865 O   0  0  0  0  0  0  0  0  0  0  0  0
    8.9008  -16.8267   20.5898 N   0  0  0  0  0  0  0  0  0  0  0  0
    8.6613  -15.8169   21.5697 C   0  0  1  0  0  0  0  0  0  0  0  0
    7.3493  -15.0834   21.3611 C   0  0  0  0  0  0  0  0  0  0  0  0
    5.9206  -16.1232   21.6572 S   0  0  0  0  0  0  0  0  0  0  0  0
    8.8160  -16.2978   22.9611 C   0  0  0  0  0  0  0  0  0  0  0  0
    8.3807  -17.4435   23.2409 O   0  0  0  0  0  0  0  0  0  0  0  0
    9.4194  -15.5530   23.9890 N   0  0  0  0  0  0  0  0  0  0  0  0
    8.9467  -15.5066   25.3612 C   0  0  1  0  0  0  0  0  0  0  0  0
    7.4914  -15.2179   25.4566 C   0  0  0  0  0  0  0  0  0  0  0  0
    7.2651  -13.8587   25.9879 C   0  0  0  0  0  0  0  0  0  0  0  0
    6.0029  -13.2494   25.9430 C   0  0  0  0  0  0  0  0  0  0  0  0
    5.8060  -11.9889   26.4549 C   0  0  0  0  0  0  0  0  0  0  0  0
    6.8398  -11.2958   27.0225 C   0  0  0  0  0  0  0  0  0  0  0  0
    8.0788  -11.8590   27.0822 C   0  0  0  0  0  0  0  0  0  0  0  0
    8.2717  -13.1172   26.5704 C   0  0  0  0  0  0  0  0  0  0  0  0
    9.3839  -16.7469   26.0325 C   0  0  0  0  0  0  0  0  0  0  0  0
   10.0387  -16.6774   27.1293 O   0  0  0  0  0  0  0  0  0  0  0  0
    9.1515  -18.0311   25.5860 O   0  0  0  0  0  0  0  0  0  0  0  0
  2  1  1  1
  2  3  1  0
  4  2  1  0
  4  5  1  6
  6  4  1  0
  6  7  2  0
  8  6  1  0
  9  8  1  0
  9 12  1  0
  9 10  1  1
 11 10  1  0
 12 13  2  0
 12 14  1  0
 14 15  1  0
 15 16  1  6
 16 17  1  0
 17 22  2  0
 18 17  1  0
 18 19  2  0
 19 20  1  0
 20 21  2  0
 22 21  1  0
 23 25  1  0
 23 15  1  0
 24 23  2  0
M  END
$$$$
