IRH.pdb
     RDKit          3D

 30 30  0  0  1  0  0  0  0  0999 V2000
    8.3804  -12.0188   27.7716 C   0  0  0  0  0  0  0  0  0  0  0  0
    7.5085  -13.1456   27.2365 C   0  0  0  0  0  0  0  0  0  0  0  0
    6.7526  -12.7266   26.0056 C   0  0  2  0  0  0  0  0  0  0  0  0
    5.9451  -11.5022   26.2371 C   0  0  0  0  0  0  0  0  0  0  0  0
    5.9757  -13.9211   25.4952 C   0  0  2  0  0  0  0  0  0  0  0  0
    5.1841  -14.4137   26.6238 N   0  0  0  0  0  0  0  0  0  0  0  0
    6.8525  -14.9869   24.9947 C   0  0  0  0  0  0  0  0  0  0  0  0
    7.1042  -16.0446   25.6445 O   0  0  0  0  0  0  0  0  0  0  0  0
    8.3080  -14.4270   16.7717 N   0  0  0  0  0  0  0  0  0  0  0  0
    8.3065  -13.6321   17.9726 C   0  0  0  0  0  0  0  0  0  0  0  0
    8.5583  -12.3732   17.9151 N   0  0  0  0  0  0  0  0  0  0  0  0
    8.0281  -14.2105   19.2381 N   0  0  0  0  0  0  0  0  0  0  0  0
    7.7509  -15.6246   19.4098 C   0  0  0  0  0  0  0  0  0  0  0  0
    7.4460  -15.9075   20.8765 C   0  0  0  0  0  0  0  0  0  0  0  0
    8.6285  -15.5941   21.7359 C   0  0  0  0  0  0  0  0  0  0  0  0
    8.3950  -15.8627   23.2258 C   0  0  2  0  0  0  0  0  0  0  0  0
    7.4567  -14.8445   23.7174 N   0  0  0  0  0  0  0  0  0  0  0  0
    9.6104  -15.9194   24.0227 C   0  0  0  0  0  0  0  0  0  0  0  0
   10.3917  -14.9099   24.1639 O   0  0  0  0  0  0  0  0  0  0  0  0
    8.6087  -11.7428   18.7191 N   0  0  0  0  0  0  0  0  0  0  0  0
   10.0209  -17.0932   24.7086 C   0  0  2  0  0  0  0  0  0  0  0  0
   11.1887  -17.0715   25.5772 C   0  0  0  0  0  0  0  0  0  0  0  0
   10.8946  -18.1492   26.6390 C   0  0  0  0  0  0  0  0  0  0  0  0
   11.9651  -18.1825   27.6378 C   0  0  0  0  0  0  0  0  0  0  0  0
   12.4611  -17.0269   28.2402 N   0  0  0  0  0  0  0  0  0  0  0  0
   13.4252  -17.4595   29.0817 C   0  0  0  0  0  0  0  0  0  0  0  0
   13.5174  -18.8059   29.0021 N   0  0  0  0  0  0  0  0  0  0  0  0
   12.6111  -19.2562   28.1051 C   0  0  0  0  0  0  0  0  0  0  0  0
   12.4279  -17.3438   24.8369 O   0  0  0  0  0  0  0  0  0  0  0  0
   13.5748  -16.9587   25.2450 O   0  0  0  0  0  0  0  0  0  0  0  0
  2  3  1  0
  2  1  1  0
  3  4  1  1
  5  7  1  0
  5  3  1  0
  5  6  1  1
  7  8  2  0
 10 12  1  0
 10  9  1  0
 11 10  2  0
 13 14  1  0
 13 12  1  0
 14 15  1  0
 16 15  1  6
 17 16  1  0
 17  7  1  0
 18 16  1  0
 19 18  2  0
 20 18  1  0
 21 20  1  0
 21 22  1  6
 22 23  1  0
 23 27  1  0
 23 24  2  0
 24 25  1  0
 26 25  1  0
 27 26  2  0
 28 21  1  0
 29 28  2  0
 30 28  1  0
M  END
$$$$
