IRH.pdb
     RDKit          3D

 30 30  0  0  1  0  0  0  0  0999 V2000
    7.8966  -11.2157   19.6111 C   0  0  0  0  0  0  0  0  0  0  0  0
    8.0455  -12.6325   19.0753 C   0  0  0  0  0  0  0  0  0  0  0  0
    8.0340  -13.6494   20.1832 C   0  0  2  0  0  0  0  0  0  0  0  0
    8.9750  -13.2945   21.2757 C   0  0  0  0  0  0  0  0  0  0  0  0
    8.2451  -15.0188   19.5738 C   0  0  2  0  0  0  0  0  0  0  0  0
    7.1531  -15.2206   18.6198 N   0  0  0  0  0  0  0  0  0  0  0  0
    8.2352  -16.0872   20.5806 C   0  0  0  0  0  0  0  0  0  0  0  0
    7.1771  -16.5225   21.1241 O   0  0  0  0  0  0  0  0  0  0  0  0
   11.3495  -21.9097   24.8518 N   0  0  0  0  0  0  0  0  0  0  0  0
   12.5804  -21.4281   24.2799 C   0  0  0  0  0  0  0  0  0  0  0  0
   13.6307  -21.3108   25.0111 N   0  0  0  0  0  0  0  0  0  0  0  0
   12.6667  -21.0756   22.9081 N   0  0  0  0  0  0  0  0  0  0  0  0
   11.5046  -21.0086   22.0414 C   0  0  0  0  0  0  0  0  0  0  0  0
   10.5487  -19.9385   22.5565 C   0  0  0  0  0  0  0  0  0  0  0  0
   10.4262  -18.8173   21.5751 C   0  0  0  0  0  0  0  0  0  0  0  0
    9.4883  -17.6968   22.0346 C   0  0  2  0  0  0  0  0  0  0  0  0
    9.4646  -16.6776   20.9765 N   0  0  0  0  0  0  0  0  0  0  0  0
    9.8198  -17.1320   23.3333 C   0  0  0  0  0  0  0  0  0  0  0  0
   10.8245  -16.3521   23.5114 O   0  0  0  0  0  0  0  0  0  0  0  0
   14.5489  -21.0026   24.6821 N   0  0  0  0  0  0  0  0  0  0  0  0
    9.0542  -17.3961   24.4998 C   0  0  1  0  0  0  0  0  0  0  0  0
    9.4532  -16.8445   25.7864 C   0  0  0  0  0  0  0  0  0  0  0  0
    8.1259  -16.4363   26.4549 C   0  0  0  0  0  0  0  0  0  0  0  0
    7.7039  -15.1168   25.9803 C   0  0  0  0  0  0  0  0  0  0  0  0
    8.4786  -14.3537   25.1075 N   0  0  0  0  0  0  0  0  0  0  0  0
    7.7695  -13.2205   24.9129 C   0  0  0  0  0  0  0  0  0  0  0  0
    6.6225  -13.2825   25.6256 N   0  0  0  0  0  0  0  0  0  0  0  0
    6.5808  -14.4599   26.2896 C   0  0  0  0  0  0  0  0  0  0  0  0
   10.2049  -17.8171   26.5908 O   0  0  0  0  0  0  0  0  0  0  0  0
   10.3069  -19.0482   26.2680 O   0  0  0  0  0  0  0  0  0  0  0  0
  2  3  1  0
  2  1  1  0
  3  4  1  1
  5  7  1  0
  5  3  1  0
  5  6  1  6
  7  8  2  0
 10 12  1  0
 10  9  1  0
 11 10  2  0
 13 14  1  0
 13 12  1  0
 14 15  1  0
 16 15  1  6
 17 16  1  0
 17  7  1  0
 18 16  1  0
 19 18  2  0
 20 18  1  0
 21 20  1  0
 21 22  1  1
 22 23  1  0
 23 27  1  0
 23 24  2  0
 24 25  1  0
 26 25  1  0
 27 26  2  0
 28 21  1  0
 29 28  2  0
 30 28  1  0
M  END
$$$$
