IRH.pdb
     RDKit          3D

 30 30  0  0  1  0  0  0  0  0999 V2000
    2.6197  -19.0380   21.6162 C   0  0  0  0  0  0  0  0  0  0  0  0
    3.7517  -18.6638   22.5622 C   0  0  0  0  0  0  0  0  0  0  0  0
    4.4992  -19.8776   23.0416 C   0  0  2  0  0  0  0  0  0  0  0  0
    3.5996  -20.8684   23.6850 C   0  0  0  0  0  0  0  0  0  0  0  0
    5.6598  -19.4145   23.8959 C   0  0  2  0  0  0  0  0  0  0  0  0
    5.0762  -18.7891   25.0839 N   0  0  0  0  0  0  0  0  0  0  0  0
    6.5218  -18.4541   23.1960 C   0  0  0  0  0  0  0  0  0  0  0  0
    7.2772  -18.7712   22.2300 O   0  0  0  0  0  0  0  0  0  0  0  0
    7.7709  -14.0702   17.4151 N   0  0  0  0  0  0  0  0  0  0  0  0
    8.3867  -13.1129   18.2973 C   0  0  0  0  0  0  0  0  0  0  0  0
    8.9968  -12.0892   17.8162 N   0  0  0  0  0  0  0  0  0  0  0  0
    8.3357  -13.2710   19.7065 N   0  0  0  0  0  0  0  0  0  0  0  0
    7.2369  -13.9369   20.3813 C   0  0  0  0  0  0  0  0  0  0  0  0
    7.4429  -13.8540   21.8896 C   0  0  0  0  0  0  0  0  0  0  0  0
    6.6384  -14.8983   22.5948 C   0  0  0  0  0  0  0  0  0  0  0  0
    7.4490  -16.1359   22.9918 C   0  0  2  0  0  0  0  0  0  0  0  0
    6.5206  -17.0946   23.6066 N   0  0  0  0  0  0  0  0  0  0  0  0
    8.5929  -15.8552   23.8451 C   0  0  0  0  0  0  0  0  0  0  0  0
    8.4849  -15.2310   24.9622 O   0  0  0  0  0  0  0  0  0  0  0  0
    9.3911  -11.3228   18.3670 N   0  0  0  0  0  0  0  0  0  0  0  0
    9.9135  -16.2554   23.5095 C   0  0  1  0  0  0  0  0  0  0  0  0
   11.0298  -15.9287   24.3847 C   0  0  0  0  0  0  0  0  0  0  0  0
   10.7259  -16.6885   25.6907 C   0  0  0  0  0  0  0  0  0  0  0  0
   10.0715  -15.8003   26.6536 C   0  0  0  0  0  0  0  0  0  0  0  0
    9.6041  -14.5338   26.3042 N   0  0  0  0  0  0  0  0  0  0  0  0
    9.0808  -14.0296   27.4428 C   0  0  0  0  0  0  0  0  0  0  0  0
    9.2179  -14.9348   28.4375 N   0  0  0  0  0  0  0  0  0  0  0  0
    9.8337  -16.0350   27.9486 C   0  0  0  0  0  0  0  0  0  0  0  0
   12.3186  -16.3217   23.7996 O   0  0  0  0  0  0  0  0  0  0  0  0
   12.4102  -16.9788   22.7087 O   0  0  0  0  0  0  0  0  0  0  0  0
  2  3  1  0
  2  1  1  0
  3  4  1  1
  5  7  1  0
  5  3  1  0
  5  6  1  1
  7  8  2  0
 10 12  1  0
 10  9  1  0
 11 10  2  0
 13 14  1  0
 13 12  1  0
 14 15  1  0
 16 15  1  1
 17 16  1  0
 17  7  1  0
 18 16  1  0
 19 18  2  0
 20 18  1  0
 21 20  1  0
 21 22  1  1
 22 23  1  0
 23 27  1  0
 23 24  2  0
 24 25  1  0
 26 25  1  0
 27 26  2  0
 28 21  1  0
 29 28  2  0
 30 28  1  0
M  END
$$$$
