IRH.pdb
     RDKit          3D

 30 30  0  0  1  0  0  0  0  0999 V2000
    6.8124  -11.6890   19.4219 C   0  0  0  0  0  0  0  0  0  0  0  0
    7.4350  -12.9076   18.7558 C   0  0  0  0  0  0  0  0  0  0  0  0
    8.1563  -13.7760   19.7495 C   0  0  2  0  0  0  0  0  0  0  0  0
    9.2211  -13.0330   20.4700 C   0  0  0  0  0  0  0  0  0  0  0  0
    8.6174  -15.0301   19.0384 C   0  0  2  0  0  0  0  0  0  0  0  0
    7.4336  -15.5987   18.3915 N   0  0  0  0  0  0  0  0  0  0  0  0
    9.2059  -16.0111   19.9584 C   0  0  0  0  0  0  0  0  0  0  0  0
    8.5231  -16.6966   20.7759 O   0  0  0  0  0  0  0  0  0  0  0  0
   14.6235  -15.0201   17.5746 N   0  0  0  0  0  0  0  0  0  0  0  0
   15.6428  -14.9048   18.5855 C   0  0  0  0  0  0  0  0  0  0  0  0
   16.3685  -13.8464   18.6543 N   0  0  0  0  0  0  0  0  0  0  0  0
   15.8699  -15.9445   19.5242 N   0  0  0  0  0  0  0  0  0  0  0  0
   14.9198  -17.0179   19.7501 C   0  0  0  0  0  0  0  0  0  0  0  0
   13.5982  -16.4320   20.2343 C   0  0  0  0  0  0  0  0  0  0  0  0
   12.5901  -17.5117   20.4648 C   0  0  0  0  0  0  0  0  0  0  0  0
   11.2534  -16.9995   21.0101 C   0  0  2  0  0  0  0  0  0  0  0  0
   10.6107  -16.2186   19.9442 N   0  0  0  0  0  0  0  0  0  0  0  0
   11.3599  -16.2497   22.2518 C   0  0  0  0  0  0  0  0  0  0  0  0
   11.6802  -15.0064   22.2828 O   0  0  0  0  0  0  0  0  0  0  0  0
   17.0340  -13.6331   19.4012 N   0  0  0  0  0  0  0  0  0  0  0  0
   11.1122  -16.8348   23.5219 C   0  0  1  0  0  0  0  0  0  0  0  0
   10.3895  -16.0968   24.5474 C   0  0  0  0  0  0  0  0  0  0  0  0
    9.0646  -15.6980   23.8686 C   0  0  0  0  0  0  0  0  0  0  0  0
    8.2822  -14.8321   24.7531 C   0  0  0  0  0  0  0  0  0  0  0  0
    8.7721  -14.3748   25.9759 N   0  0  0  0  0  0  0  0  0  0  0  0
    7.7745  -13.6241   26.4917 C   0  0  0  0  0  0  0  0  0  0  0  0
    6.7292  -13.6191   25.6344 N   0  0  0  0  0  0  0  0  0  0  0  0
    7.0432  -14.3696   24.5542 C   0  0  0  0  0  0  0  0  0  0  0  0
   10.1744  -16.9044   25.7554 O   0  0  0  0  0  0  0  0  0  0  0  0
   10.0065  -16.3876   26.9108 O   0  0  0  0  0  0  0  0  0  0  0  0
  2  3  1  0
  2  1  1  0
  3  4  1  6
  5  7  1  0
  5  3  1  0
  5  6  1  1
  7  8  2  0
 10 12  1  0
 10  9  1  0
 11 10  2  0
 13 14  1  0
 13 12  1  0
 14 15  1  0
 16 15  1  6
 17 16  1  0
 17  7  1  0
 18 16  1  0
 19 18  2  0
 20 18  1  0
 21 20  1  0
 21 22  1  1
 22 23  1  0
 23 27  1  0
 23 24  2  0
 24 25  1  0
 26 25  1  0
 27 26  2  0
 28 21  1  0
 29 28  2  0
 30 28  1  0
M  END
$$$$
