IRH.pdb
     RDKit          3D

 30 30  0  0  1  0  0  0  0  0999 V2000
    8.4214  -12.2492   27.8393 C   0  0  0  0  0  0  0  0  0  0  0  0
    7.6603  -13.4223   27.2385 C   0  0  0  0  0  0  0  0  0  0  0  0
    6.8320  -13.0002   26.0563 C   0  0  2  0  0  0  0  0  0  0  0  0
    5.8767  -11.9174   26.4028 C   0  0  0  0  0  0  0  0  0  0  0  0
    6.2070  -14.2372   25.4478 C   0  0  2  0  0  0  0  0  0  0  0  0
    5.4464  -14.8861   26.5171 N   0  0  0  0  0  0  0  0  0  0  0  0
    7.2102  -15.1653   24.9117 C   0  0  0  0  0  0  0  0  0  0  0  0
    7.6250  -16.1828   25.5418 O   0  0  0  0  0  0  0  0  0  0  0  0
    8.6494  -15.0994   16.6346 N   0  0  0  0  0  0  0  0  0  0  0  0
    8.6402  -14.1422   17.7105 C   0  0  0  0  0  0  0  0  0  0  0  0
    8.9032  -12.9059   17.4783 N   0  0  0  0  0  0  0  0  0  0  0  0
    8.3419  -14.5333   19.0415 N   0  0  0  0  0  0  0  0  0  0  0  0
    7.6866  -15.7879   19.3616 C   0  0  0  0  0  0  0  0  0  0  0  0
    7.5381  -15.9113   20.8739 C   0  0  0  0  0  0  0  0  0  0  0  0
    8.8304  -15.6084   21.5620 C   0  0  0  0  0  0  0  0  0  0  0  0
    8.7854  -15.8227   23.0781 C   0  0  2  0  0  0  0  0  0  0  0  0
    7.7533  -14.9288   23.6210 N   0  0  0  0  0  0  0  0  0  0  0  0
   10.0660  -15.6522   23.7463 C   0  0  0  0  0  0  0  0  0  0  0  0
   10.7065  -14.5391   23.7385 O   0  0  0  0  0  0  0  0  0  0  0  0
    8.9587  -12.1699   18.1866 N   0  0  0  0  0  0  0  0  0  0  0  0
   10.7008  -16.7019   24.4617 C   0  0  1  0  0  0  0  0  0  0  0  0
   12.1068  -16.6037   24.8253 C   0  0  0  0  0  0  0  0  0  0  0  0
   12.2802  -17.6319   25.9602 C   0  0  0  0  0  0  0  0  0  0  0  0
   11.6986  -17.1189   27.2024 C   0  0  0  0  0  0  0  0  0  0  0  0
   11.3195  -15.7857   27.3553 N   0  0  0  0  0  0  0  0  0  0  0  0
   10.8428  -15.7019   28.6164 C   0  0  0  0  0  0  0  0  0  0  0  0
   10.9235  -16.9154   29.2068 N   0  0  0  0  0  0  0  0  0  0  0  0
   11.4554  -17.7964   28.3296 C   0  0  0  0  0  0  0  0  0  0  0  0
   12.9891  -16.8811   23.6840 O   0  0  0  0  0  0  0  0  0  0  0  0
   12.5510  -17.2838   22.5544 O   0  0  0  0  0  0  0  0  0  0  0  0
  2  3  1  0
  2  1  1  0
  3  4  1  1
  5  7  1  0
  5  3  1  0
  5  6  1  1
  7  8  2  0
 10 12  1  0
 10  9  1  0
 11 10  2  0
 13 14  1  0
 13 12  1  0
 14 15  1  0
 16 15  1  6
 17 16  1  0
 17  7  1  0
 18 16  1  0
 19 18  2  0
 20 18  1  0
 21 20  1  0
 21 22  1  6
 22 23  1  0
 23 27  1  0
 23 24  2  0
 24 25  1  0
 26 25  1  0
 27 26  2  0
 28 21  1  0
 29 28  2  0
 30 28  1  0
M  END
$$$$
