IRH.pdb
     RDKit          3D

 30 30  0  0  1  0  0  0  0  0999 V2000
    7.4879  -11.1348   20.0115 C   0  0  0  0  0  0  0  0  0  0  0  0
    7.8927  -12.5338   19.5695 C   0  0  0  0  0  0  0  0  0  0  0  0
    7.7828  -13.5255   20.6949 C   0  0  2  0  0  0  0  0  0  0  0  0
    8.5153  -13.0775   21.9064 C   0  0  0  0  0  0  0  0  0  0  0  0
    8.1834  -14.8872   20.1694 C   0  0  2  0  0  0  0  0  0  0  0  0
    7.2032  -15.2391   19.1405 N   0  0  0  0  0  0  0  0  0  0  0  0
    8.1961  -15.9116   21.2210 C   0  0  0  0  0  0  0  0  0  0  0  0
    7.1493  -16.4776   21.6548 O   0  0  0  0  0  0  0  0  0  0  0  0
   13.7060  -19.7870   19.1997 N   0  0  0  0  0  0  0  0  0  0  0  0
   13.8274  -19.3590   20.5694 C   0  0  0  0  0  0  0  0  0  0  0  0
   14.9546  -18.9333   21.0164 N   0  0  0  0  0  0  0  0  0  0  0  0
   12.7174  -19.3935   21.4527 N   0  0  0  0  0  0  0  0  0  0  0  0
   11.4591  -20.0278   21.1060 C   0  0  0  0  0  0  0  0  0  0  0  0
   10.3125  -19.0586   21.3706 C   0  0  0  0  0  0  0  0  0  0  0  0
   10.5495  -18.2841   22.6272 C   0  0  0  0  0  0  0  0  0  0  0  0
    9.4661  -17.2421   22.9216 C   0  0  2  0  0  0  0  0  0  0  0  0
    9.4361  -16.3034   21.7916 N   0  0  0  0  0  0  0  0  0  0  0  0
    9.6201  -16.5606   24.1973 C   0  0  0  0  0  0  0  0  0  0  0  0
   10.1654  -15.4025   24.3005 O   0  0  0  0  0  0  0  0  0  0  0  0
   15.1410  -18.6570   21.9834 N   0  0  0  0  0  0  0  0  0  0  0  0
    9.1741  -17.1224   25.4229 C   0  0  1  0  0  0  0  0  0  0  0  0
    9.1819  -16.3314   26.6448 C   0  0  0  0  0  0  0  0  0  0  0  0
    7.7080  -15.9301   26.8491 C   0  0  0  0  0  0  0  0  0  0  0  0
    7.4852  -14.5612   26.3788 C   0  0  0  0  0  0  0  0  0  0  0  0
    8.5029  -13.7876   25.8219 N   0  0  0  0  0  0  0  0  0  0  0  0
    7.9189  -12.6066   25.5240 C   0  0  0  0  0  0  0  0  0  0  0  0
    6.6147  -12.6507   25.8772 N   0  0  0  0  0  0  0  0  0  0  0  0
    6.3442  -13.8643   26.4089 C   0  0  0  0  0  0  0  0  0  0  0  0
    9.7153  -17.0886   27.7850 O   0  0  0  0  0  0  0  0  0  0  0  0
    9.7749  -18.3639   27.7997 O   0  0  0  0  0  0  0  0  0  0  0  0
  2  3  1  0
  2  1  1  0
  3  4  1  1
  5  7  1  0
  5  3  1  0
  5  6  1  6
  7  8  2  0
 10 12  1  0
 10  9  1  0
 11 10  2  0
 13 14  1  0
 13 12  1  0
 14 15  1  0
 16 15  1  6
 17 16  1  0
 17  7  1  0
 18 16  1  0
 19 18  2  0
 20 18  1  0
 21 20  1  0
 21 22  1  1
 22 23  1  0
 23 27  1  0
 23 24  2  0
 24 25  1  0
 26 25  1  0
 27 26  2  0
 28 21  1  0
 29 28  2  0
 30 28  1  0
M  END
$$$$
