IRH.pdb
     RDKit          3D

 30 30  0  0  1  0  0  0  0  0999 V2000
    7.4047  -11.2496   27.1604 C   0  0  0  0  0  0  0  0  0  0  0  0
    7.4339  -12.7707   27.2007 C   0  0  0  0  0  0  0  0  0  0  0  0
    6.4383  -13.3710   26.2467 C   0  0  2  0  0  0  0  0  0  0  0  0
    5.0638  -12.8601   26.4805 C   0  0  0  0  0  0  0  0  0  0  0  0
    6.5805  -14.8772   26.2966 C   0  0  2  0  0  0  0  0  0  0  0  0
    7.6080  -15.1634   27.2993 N   0  0  0  0  0  0  0  0  0  0  0  0
    6.9720  -15.4458   25.0010 C   0  0  0  0  0  0  0  0  0  0  0  0
    6.3612  -16.4087   24.4496 O   0  0  0  0  0  0  0  0  0  0  0  0
   10.1535  -14.2525   18.0427 N   0  0  0  0  0  0  0  0  0  0  0  0
    8.8565  -13.8000   17.6102 C   0  0  0  0  0  0  0  0  0  0  0  0
    8.7530  -12.9763   16.6292 N   0  0  0  0  0  0  0  0  0  0  0  0
    7.6703  -14.2479   18.2473 N   0  0  0  0  0  0  0  0  0  0  0  0
    7.3218  -13.8758   19.6060 C   0  0  0  0  0  0  0  0  0  0  0  0
    7.8381  -14.9372   20.5709 C   0  0  0  0  0  0  0  0  0  0  0  0
    7.9730  -14.3805   21.9519 C   0  0  0  0  0  0  0  0  0  0  0  0
    8.4566  -15.4043   22.9836 C   0  0  2  0  0  0  0  0  0  0  0  0
    8.0885  -14.8999   24.3137 N   0  0  0  0  0  0  0  0  0  0  0  0
    9.8720  -15.7263   22.8911 C   0  0  0  0  0  0  0  0  0  0  0  0
   10.7914  -14.9161   23.2753 O   0  0  0  0  0  0  0  0  0  0  0  0
    7.8754  -12.5973   16.2653 N   0  0  0  0  0  0  0  0  0  0  0  0
   10.3425  -16.9626   22.3745 C   0  0  2  0  0  0  0  0  0  0  0  0
   11.7706  -17.2258   22.2733 C   0  0  0  0  0  0  0  0  0  0  0  0
   11.8844  -18.7592   22.3776 C   0  0  0  0  0  0  0  0  0  0  0  0
   11.6642  -19.1912   23.7594 C   0  0  0  0  0  0  0  0  0  0  0  0
   11.6349  -18.2946   24.8270 N   0  0  0  0  0  0  0  0  0  0  0  0
   11.4198  -19.0604   25.9188 C   0  0  0  0  0  0  0  0  0  0  0  0
   11.3217  -20.3557   25.5445 N   0  0  0  0  0  0  0  0  0  0  0  0
   11.4739  -20.4383   24.2033 C   0  0  0  0  0  0  0  0  0  0  0  0
   12.3357  -16.7102   21.0193 O   0  0  0  0  0  0  0  0  0  0  0  0
   11.6116  -16.2579   20.0699 O   0  0  0  0  0  0  0  0  0  0  0  0
  2  3  1  0
  2  1  1  0
  3  4  1  1
  5  7  1  0
  5  3  1  0
  5  6  1  1
  7  8  2  0
 10 12  1  0
 10  9  1  0
 11 10  2  0
 13 14  1  0
 13 12  1  0
 14 15  1  0
 16 15  1  6
 17 16  1  0
 17  7  1  0
 18 16  1  0
 19 18  2  0
 20 18  1  0
 21 20  1  0
 21 22  1  1
 22 23  1  0
 23 27  1  0
 23 24  2  0
 24 25  1  0
 26 25  1  0
 27 26  2  0
 28 21  1  0
 29 28  2  0
 30 28  1  0
M  END
$$$$
