IRH.pdb
     RDKit          3D

 30 30  0  0  1  0  0  0  0  0999 V2000
   10.4777  -13.6296   29.1200 C   0  0  0  0  0  0  0  0  0  0  0  0
    9.6363  -14.8519   28.7817 C   0  0  0  0  0  0  0  0  0  0  0  0
    9.7019  -15.1831   27.3161 C   0  0  2  0  0  0  0  0  0  0  0  0
    9.5564  -13.9754   26.4644 C   0  0  0  0  0  0  0  0  0  0  0  0
    8.7096  -16.2908   27.0342 C   0  0  2  0  0  0  0  0  0  0  0  0
    8.8509  -17.2605   28.1217 N   0  0  0  0  0  0  0  0  0  0  0  0
    8.9539  -16.9460   25.7433 C   0  0  0  0  0  0  0  0  0  0  0  0
    9.4547  -18.1042   25.6337 O   0  0  0  0  0  0  0  0  0  0  0  0
    9.7540  -12.9580   19.9648 N   0  0  0  0  0  0  0  0  0  0  0  0
    8.6015  -13.4248   19.2383 C   0  0  0  0  0  0  0  0  0  0  0  0
    8.4447  -13.1089   18.0024 N   0  0  0  0  0  0  0  0  0  0  0  0
    7.6193  -14.2389   19.8596 N   0  0  0  0  0  0  0  0  0  0  0  0
    7.1784  -14.0300   21.2263 C   0  0  0  0  0  0  0  0  0  0  0  0
    8.1473  -14.7163   22.1826 C   0  0  0  0  0  0  0  0  0  0  0  0
    7.8891  -16.1879   22.2365 C   0  0  0  0  0  0  0  0  0  0  0  0
    8.7707  -16.9308   23.2450 C   0  0  2  0  0  0  0  0  0  0  0  0
    8.6153  -16.2635   24.5448 N   0  0  0  0  0  0  0  0  0  0  0  0
   10.1660  -17.0466   22.8509 C   0  0  0  0  0  0  0  0  0  0  0  0
   10.5386  -17.7059   21.8137 O   0  0  0  0  0  0  0  0  0  0  0  0
    7.6837  -13.4337   17.4010 N   0  0  0  0  0  0  0  0  0  0  0  0
   11.2197  -16.4348   23.5804 C   0  0  1  0  0  0  0  0  0  0  0  0
   12.6055  -16.6255   23.1776 C   0  0  0  0  0  0  0  0  0  0  0  0
   13.0588  -15.2327   22.6983 C   0  0  0  0  0  0  0  0  0  0  0  0
   12.9540  -15.1390   21.2407 C   0  0  0  0  0  0  0  0  0  0  0  0
   12.5088  -16.2006   20.4538 N   0  0  0  0  0  0  0  0  0  0  0  0
   12.5584  -15.7384   19.1855 C   0  0  0  0  0  0  0  0  0  0  0  0
   13.0086  -14.4637   19.1911 N   0  0  0  0  0  0  0  0  0  0  0  0
   13.2551  -14.0904   20.4673 C   0  0  0  0  0  0  0  0  0  0  0  0
   13.4329  -17.1303   24.2814 O   0  0  0  0  0  0  0  0  0  0  0  0
   12.9735  -17.3218   25.4572 O   0  0  0  0  0  0  0  0  0  0  0  0
  2  3  1  0
  2  1  1  0
  3  4  1  6
  5  7  1  0
  5  3  1  0
  5  6  1  1
  7  8  2  0
 10 12  1  0
 10  9  1  0
 11 10  2  0
 13 14  1  0
 13 12  1  0
 14 15  1  0
 16 15  1  6
 17 16  1  0
 17  7  1  0
 18 16  1  0
 19 18  2  0
 20 18  1  0
 21 20  1  0
 21 22  1  6
 22 23  1  0
 23 27  1  0
 23 24  2  0
 24 25  1  0
 26 25  1  0
 27 26  2  0
 28 21  1  0
 29 28  2  0
 30 28  1  0
M  END
$$$$
