IRH.pdb
     RDKit          3D

 30 30  0  0  1  0  0  0  0  0999 V2000
    6.3789  -10.5453   26.5985 C   0  0  0  0  0  0  0  0  0  0  0  0
    5.8030  -11.8335   26.0283 C   0  0  0  0  0  0  0  0  0  0  0  0
    6.8807  -12.8388   25.7282 C   0  0  2  0  0  0  0  0  0  0  0  0
    7.9446  -12.2734   24.8603 C   0  0  0  0  0  0  0  0  0  0  0  0
    6.2240  -14.0969   25.2020 C   0  0  2  0  0  0  0  0  0  0  0  0
    5.2055  -14.4744   26.1834 N   0  0  0  0  0  0  0  0  0  0  0  0
    7.1811  -15.1959   25.0248 C   0  0  0  0  0  0  0  0  0  0  0  0
    7.5958  -15.9192   25.9783 O   0  0  0  0  0  0  0  0  0  0  0  0
    9.9452  -13.7777   19.3113 N   0  0  0  0  0  0  0  0  0  0  0  0
    8.6447  -13.8924   18.7033 C   0  0  0  0  0  0  0  0  0  0  0  0
    8.1744  -12.9281   17.9958 N   0  0  0  0  0  0  0  0  0  0  0  0
    7.8565  -15.0612   18.8654 N   0  0  0  0  0  0  0  0  0  0  0  0
    8.2723  -16.1784   19.6930 C   0  0  0  0  0  0  0  0  0  0  0  0
    8.3155  -15.7401   21.1525 C   0  0  0  0  0  0  0  0  0  0  0  0
    8.7081  -16.8784   22.0387 C   0  0  0  0  0  0  0  0  0  0  0  0
    8.6824  -16.5339   23.5310 C   0  0  2  0  0  0  0  0  0  0  0  0
    7.6770  -15.4800   23.7247 N   0  0  0  0  0  0  0  0  0  0  0  0
    9.9764  -16.1662   24.0840 C   0  0  0  0  0  0  0  0  0  0  0  0
   10.5079  -15.0131   23.8909 O   0  0  0  0  0  0  0  0  0  0  0  0
    7.2386  -12.8985   17.5839 N   0  0  0  0  0  0  0  0  0  0  0  0
   10.7460  -17.0525   24.8833 C   0  0  1  0  0  0  0  0  0  0  0  0
   12.0121  -16.6203   25.4568 C   0  0  0  0  0  0  0  0  0  0  0  0
   12.0343  -17.2601   26.8587 C   0  0  0  0  0  0  0  0  0  0  0  0
   11.1299  -16.5412   27.7586 C   0  0  0  0  0  0  0  0  0  0  0  0
   10.4586  -15.3813   27.3733 N   0  0  0  0  0  0  0  0  0  0  0  0
    9.7407  -15.0180   28.4583 C   0  0  0  0  0  0  0  0  0  0  0  0
    9.9575  -15.9046   29.4556 N   0  0  0  0  0  0  0  0  0  0  0  0
   10.8206  -16.8511   29.0223 C   0  0  0  0  0  0  0  0  0  0  0  0
   13.1568  -17.0384   24.6366 O   0  0  0  0  0  0  0  0  0  0  0  0
   14.3651  -16.7675   24.9479 O   0  0  0  0  0  0  0  0  0  0  0  0
  2  3  1  0
  2  1  1  0
  3  4  1  6
  5  7  1  0
  5  3  1  0
  5  6  1  1
  7  8  2  0
 10 12  1  0
 10  9  1  0
 11 10  2  0
 13 14  1  0
 13 12  1  0
 14 15  1  0
 16 15  1  6
 17 16  1  0
 17  7  1  0
 18 16  1  0
 19 18  2  0
 20 18  1  0
 21 20  1  0
 21 22  1  6
 22 23  1  0
 23 27  1  0
 23 24  2  0
 24 25  1  0
 26 25  1  0
 27 26  2  0
 28 21  1  0
 29 28  2  0
 30 28  1  0
M  END
$$$$
