FFG.pdb
     RDKit          3D

 27 28  0  0  1  0  0  0  0  0999 V2000
   10.0811  -17.0818   26.2086 N   0  0  0  0  0  0  0  0  0  0  0  0
    8.6892  -17.4657   26.2270 C   0  0  1  0  0  0  0  0  0  0  0  0
    8.0732  -17.0765   27.5307 C   0  0  0  0  0  0  0  0  0  0  0  0
    8.8985  -15.9822   28.1241 C   0  0  0  0  0  0  0  0  0  0  0  0
    8.6580  -14.6680   27.7836 C   0  0  0  0  0  0  0  0  0  0  0  0
    9.4009  -13.6378   28.3135 C   0  0  0  0  0  0  0  0  0  0  0  0
   10.4134  -13.8967   29.2062 C   0  0  0  0  0  0  0  0  0  0  0  0
   10.6356  -15.2188   29.5318 C   0  0  0  0  0  0  0  0  0  0  0  0
    9.9072  -16.2692   29.0164 C   0  0  0  0  0  0  0  0  0  0  0  0
    7.9286  -16.8370   25.1150 C   0  0  0  0  0  0  0  0  0  0  0  0
    6.7183  -17.1562   24.9201 O   0  0  0  0  0  0  0  0  0  0  0  0
    8.4769  -15.8840   24.2389 N   0  0  0  0  0  0  0  0  0  0  0  0
    7.6852  -15.2941   23.1613 C   0  0  1  0  0  0  0  0  0  0  0  0
    7.8434  -13.7928   23.3714 C   0  0  0  0  0  0  0  0  0  0  0  0
    7.4242  -13.2963   24.6697 C   0  0  0  0  0  0  0  0  0  0  0  0
    8.0928  -12.2234   25.2671 C   0  0  0  0  0  0  0  0  0  0  0  0
    7.7278  -11.7294   26.4863 C   0  0  0  0  0  0  0  0  0  0  0  0
    6.6711  -12.3059   27.1441 C   0  0  0  0  0  0  0  0  0  0  0  0
    5.9930  -13.3685   26.5747 C   0  0  0  0  0  0  0  0  0  0  0  0
    6.3556  -13.8693   25.3491 C   0  0  0  0  0  0  0  0  0  0  0  0
    8.1646  -15.6542   21.8418 C   0  0  0  0  0  0  0  0  0  0  0  0
    7.5573  -15.2735   20.8183 O   0  0  0  0  0  0  0  0  0  0  0  0
    9.3292  -16.4388   21.6935 N   0  0  0  0  0  0  0  0  0  0  0  0
    9.7299  -16.8803   20.3876 C   0  0  0  0  0  0  0  0  0  0  0  0
   10.1189  -18.3041   20.4518 C   0  0  0  0  0  0  0  0  0  0  0  0
    9.3206  -19.1792   20.8892 O   0  0  0  0  0  0  0  0  0  0  0  0
   11.3789  -18.6793   20.0253 O   0  0  0  0  0  0  0  0  0  0  0  0
  2  1  1  1
  3  2  1  0
  4  3  1  0
  5  4  2  0
  6  5  1  0
  7  6  2  0
  7  8  1  0
  8  9  2  0
  9  4  1  0
 10 11  2  0
 10  2  1  0
 12 10  1  0
 13 12  1  0
 13 14  1  6
 15 14  1  0
 15 16  2  0
 17 16  1  0
 18 17  2  0
 19 20  2  0
 19 18  1  0
 20 15  1  0
 21 13  1  0
 22 21  2  0
 23 21  1  0
 24 23  1  0
 25 24  1  0
 25 27  1  0
 26 25  2  0
M  END
$$$$
