FFG.pdb
     RDKit          3D

 27 28  0  0  1  0  0  0  0  0999 V2000
    8.9932  -19.7366   27.6919 N   0  0  0  0  0  0  0  0  0  0  0  0
    9.0032  -18.2989   27.5578 C   0  0  1  0  0  0  0  0  0  0  0  0
   10.3586  -17.7681   27.8920 C   0  0  0  0  0  0  0  0  0  0  0  0
   10.2330  -16.3004   28.1390 C   0  0  0  0  0  0  0  0  0  0  0  0
   10.6765  -15.3969   27.1968 C   0  0  0  0  0  0  0  0  0  0  0  0
   10.5745  -14.0389   27.3951 C   0  0  0  0  0  0  0  0  0  0  0  0
   10.0210  -13.5436   28.5516 C   0  0  0  0  0  0  0  0  0  0  0  0
    9.5842  -14.4664   29.4796 C   0  0  0  0  0  0  0  0  0  0  0  0
    9.6743  -15.8307   29.3066 C   0  0  0  0  0  0  0  0  0  0  0  0
    8.6306  -17.8701   26.1839 C   0  0  0  0  0  0  0  0  0  0  0  0
    8.9703  -18.5774   25.1895 O   0  0  0  0  0  0  0  0  0  0  0  0
    7.9055  -16.6985   25.9046 N   0  0  0  0  0  0  0  0  0  0  0  0
    7.6270  -16.2832   24.5313 C   0  0  1  0  0  0  0  0  0  0  0  0
    6.8283  -14.9953   24.6939 C   0  0  0  0  0  0  0  0  0  0  0  0
    6.7780  -14.1396   23.5221 C   0  0  0  0  0  0  0  0  0  0  0  0
    6.5166  -14.6818   22.2601 C   0  0  0  0  0  0  0  0  0  0  0  0
    6.4617  -13.9093   21.1358 C   0  0  0  0  0  0  0  0  0  0  0  0
    6.6698  -12.5583   21.2509 C   0  0  0  0  0  0  0  0  0  0  0  0
    6.9302  -11.9971   22.4880 C   0  0  0  0  0  0  0  0  0  0  0  0
    6.9866  -12.7690   23.6218 C   0  0  0  0  0  0  0  0  0  0  0  0
    8.8274  -16.0181   23.7637 C   0  0  0  0  0  0  0  0  0  0  0  0
    8.7710  -15.8727   22.5239 O   0  0  0  0  0  0  0  0  0  0  0  0
   10.0800  -15.9161   24.4076 N   0  0  0  0  0  0  0  0  0  0  0  0
   11.2328  -15.4964   23.6621 C   0  0  0  0  0  0  0  0  0  0  0  0
   12.2670  -16.5494   23.7285 C   0  0  0  0  0  0  0  0  0  0  0  0
   13.4007  -16.3844   23.1974 O   0  0  0  0  0  0  0  0  0  0  0  0
   11.9837  -17.7330   24.3834 O   0  0  0  0  0  0  0  0  0  0  0  0
  2  1  1  6
  3  2  1  0
  4  3  1  0
  5  4  2  0
  6  5  1  0
  7  6  2  0
  7  8  1  0
  8  9  2  0
  9  4  1  0
 10 11  2  0
 10  2  1  0
 12 10  1  0
 13 12  1  0
 13 14  1  1
 15 14  1  0
 15 16  2  0
 17 16  1  0
 18 17  2  0
 19 20  2  0
 19 18  1  0
 20 15  1  0
 21 13  1  0
 22 21  2  0
 23 21  1  0
 24 23  1  0
 25 24  1  0
 25 27  1  0
 26 25  2  0
M  END
$$$$
