FFG.pdb
     RDKit          3D

 27 28  0  0  1  0  0  0  0  0999 V2000
    5.5765  -20.4007   23.0679 N   0  0  0  0  0  0  0  0  0  0  0  0
    6.0491  -19.8365   24.3102 C   0  0  1  0  0  0  0  0  0  0  0  0
    7.1291  -20.6969   24.8792 C   0  0  0  0  0  0  0  0  0  0  0  0
    7.5178  -20.1343   26.2070 C   0  0  0  0  0  0  0  0  0  0  0  0
    8.6372  -19.3379   26.3233 C   0  0  0  0  0  0  0  0  0  0  0  0
    9.0211  -18.8047   27.5325 C   0  0  0  0  0  0  0  0  0  0  0  0
    8.2890  -19.0561   28.6683 C   0  0  0  0  0  0  0  0  0  0  0  0
    7.1733  -19.8554   28.5277 C   0  0  0  0  0  0  0  0  0  0  0  0
    6.7666  -20.4018   27.3296 C   0  0  0  0  0  0  0  0  0  0  0  0
    6.5648  -18.4541   24.1276 C   0  0  0  0  0  0  0  0  0  0  0  0
    7.3021  -18.1830   23.1339 O   0  0  0  0  0  0  0  0  0  0  0  0
    6.2818  -17.3957   25.0085 N   0  0  0  0  0  0  0  0  0  0  0  0
    6.8864  -16.0765   24.8348 C   0  0  1  0  0  0  0  0  0  0  0  0
    6.0981  -15.1850   25.7871 C   0  0  0  0  0  0  0  0  0  0  0  0
    6.5175  -13.7959   25.8334 C   0  0  0  0  0  0  0  0  0  0  0  0
    7.5257  -13.3319   24.9829 C   0  0  0  0  0  0  0  0  0  0  0  0
    7.9467  -12.0333   24.9977 C   0  0  0  0  0  0  0  0  0  0  0  0
    7.3603  -11.1579   25.8760 C   0  0  0  0  0  0  0  0  0  0  0  0
    6.3607  -11.5918   26.7280 C   0  0  0  0  0  0  0  0  0  0  0  0
    5.9334  -12.8963   26.7175 C   0  0  0  0  0  0  0  0  0  0  0  0
    8.2915  -16.0447   25.1890 C   0  0  0  0  0  0  0  0  0  0  0  0
    8.6450  -16.0035   26.3868 O   0  0  0  0  0  0  0  0  0  0  0  0
    9.2830  -16.0638   24.1838 N   0  0  0  0  0  0  0  0  0  0  0  0
   10.6641  -15.9049   24.5417 C   0  0  0  0  0  0  0  0  0  0  0  0
   11.4945  -15.9643   23.3211 C   0  0  0  0  0  0  0  0  0  0  0  0
   10.9704  -16.1177   22.1826 O   0  0  0  0  0  0  0  0  0  0  0  0
   12.8673  -15.8500   23.4328 O   0  0  0  0  0  0  0  0  0  0  0  0
  2  1  1  6
  3  2  1  0
  4  3  1  0
  5  4  2  0
  6  5  1  0
  7  6  2  0
  7  8  1  0
  8  9  2  0
  9  4  1  0
 10 11  2  0
 10  2  1  0
 12 10  1  0
 13 12  1  0
 13 14  1  1
 15 14  1  0
 15 16  2  0
 17 16  1  0
 18 17  2  0
 19 20  2  0
 19 18  1  0
 20 15  1  0
 21 13  1  0
 22 21  2  0
 23 21  1  0
 24 23  1  0
 25 24  1  0
 25 27  1  0
 26 25  2  0
M  END
$$$$
