FFG.pdb
     RDKit          3D

 27 28  0  0  1  0  0  0  0  0999 V2000
    7.2962  -13.8025   22.4861 N   0  0  0  0  0  0  0  0  0  0  0  0
    8.2791  -14.8592   22.4401 C   0  0  1  0  0  0  0  0  0  0  0  0
    9.3069  -14.5505   21.4014 C   0  0  0  0  0  0  0  0  0  0  0  0
    8.5952  -14.1533   20.1497 C   0  0  0  0  0  0  0  0  0  0  0  0
    7.8878  -15.0895   19.4259 C   0  0  0  0  0  0  0  0  0  0  0  0
    7.2217  -14.7545   18.2692 C   0  0  0  0  0  0  0  0  0  0  0  0
    7.2455  -13.4624   17.8011 C   0  0  0  0  0  0  0  0  0  0  0  0
    7.9596  -12.5432   18.5418 C   0  0  0  0  0  0  0  0  0  0  0  0
    8.6352  -12.8515   19.7028 C   0  0  0  0  0  0  0  0  0  0  0  0
    8.9478  -15.0486   23.7543 C   0  0  0  0  0  0  0  0  0  0  0  0
    9.9439  -14.3299   24.0636 O   0  0  0  0  0  0  0  0  0  0  0  0
    8.5379  -15.9991   24.7057 N   0  0  0  0  0  0  0  0  0  0  0  0
    9.1320  -16.0476   26.0401 C   0  0  1  0  0  0  0  0  0  0  0  0
    7.9711  -15.7129   26.9692 C   0  0  0  0  0  0  0  0  0  0  0  0
    7.5529  -14.3226   26.9704 C   0  0  0  0  0  0  0  0  0  0  0  0
    6.2938  -13.9615   26.4812 C   0  0  0  0  0  0  0  0  0  0  0  0
    5.8659  -12.6652   26.4658 C   0  0  0  0  0  0  0  0  0  0  0  0
    6.6998  -11.6877   26.9462 C   0  0  0  0  0  0  0  0  0  0  0  0
    7.9505  -12.0187   27.4357 C   0  0  0  0  0  0  0  0  0  0  0  0
    8.3860  -13.3204   27.4536 C   0  0  0  0  0  0  0  0  0  0  0  0
    9.6649  -17.3525   26.3774 C   0  0  0  0  0  0  0  0  0  0  0  0
   10.0460  -17.6029   27.5408 O   0  0  0  0  0  0  0  0  0  0  0  0
    9.7577  -18.3627   25.3952 N   0  0  0  0  0  0  0  0  0  0  0  0
   10.3074  -19.6434   25.7395 C   0  0  0  0  0  0  0  0  0  0  0  0
   11.7776  -19.5967   25.6009 C   0  0  0  0  0  0  0  0  0  0  0  0
   12.4852  -20.6214   25.8101 O   0  0  0  0  0  0  0  0  0  0  0  0
   12.3836  -18.4093   25.2366 O   0  0  0  0  0  0  0  0  0  0  0  0
  2  1  1  1
  3  2  1  0
  4  3  1  0
  5  4  2  0
  6  5  1  0
  7  6  2  0
  7  8  1  0
  8  9  2  0
  9  4  1  0
 10 11  2  0
 10  2  1  0
 12 10  1  0
 13 12  1  0
 13 14  1  1
 15 14  1  0
 15 16  2  0
 17 16  1  0
 18 17  2  0
 19 20  2  0
 19 18  1  0
 20 15  1  0
 21 13  1  0
 22 21  2  0
 23 21  1  0
 24 23  1  0
 25 24  1  0
 25 27  1  0
 26 25  2  0
M  END
$$$$
