FFG.pdb
     RDKit          3D

 27 28  0  0  1  0  0  0  0  0999 V2000
   10.3245  -16.6594   21.3781 N   0  0  0  0  0  0  0  0  0  0  0  0
    9.6108  -15.7500   22.2434 C   0  0  1  0  0  0  0  0  0  0  0  0
    8.1433  -15.8509   21.9848 C   0  0  0  0  0  0  0  0  0  0  0  0
    7.7300  -14.6554   21.1907 C   0  0  0  0  0  0  0  0  0  0  0  0
    6.9015  -14.7997   20.0981 C   0  0  0  0  0  0  0  0  0  0  0  0
    6.5031  -13.7178   19.3467 C   0  0  0  0  0  0  0  0  0  0  0  0
    6.9263  -12.4510   19.6709 C   0  0  0  0  0  0  0  0  0  0  0  0
    7.7544  -12.3311   20.7678 C   0  0  0  0  0  0  0  0  0  0  0  0
    8.1685  -13.3970   21.5372 C   0  0  0  0  0  0  0  0  0  0  0  0
    9.8789  -16.0290   23.6788 C   0  0  0  0  0  0  0  0  0  0  0  0
   11.0565  -16.3010   24.0583 O   0  0  0  0  0  0  0  0  0  0  0  0
    8.8855  -16.0112   24.6734 N   0  0  0  0  0  0  0  0  0  0  0  0
    9.2251  -15.8719   26.0881 C   0  0  1  0  0  0  0  0  0  0  0  0
    7.9061  -15.4801   26.7436 C   0  0  0  0  0  0  0  0  0  0  0  0
    7.4841  -14.1081   26.5265 C   0  0  0  0  0  0  0  0  0  0  0  0
    6.2611  -13.8330   25.9070 C   0  0  0  0  0  0  0  0  0  0  0  0
    5.8309  -12.5564   25.6857 C   0  0  0  0  0  0  0  0  0  0  0  0
    6.6257  -11.5121   26.0849 C   0  0  0  0  0  0  0  0  0  0  0  0
    7.8401  -11.7574   26.7001 C   0  0  0  0  0  0  0  0  0  0  0  0
    8.2778  -13.0389   26.9250 C   0  0  0  0  0  0  0  0  0  0  0  0
    9.7157  -17.1014   26.6781 C   0  0  0  0  0  0  0  0  0  0  0  0
   10.1900  -17.1076   27.8341 O   0  0  0  0  0  0  0  0  0  0  0  0
    9.6612  -18.3131   25.9550 N   0  0  0  0  0  0  0  0  0  0  0  0
   10.2361  -19.5036   26.5145 C   0  0  0  0  0  0  0  0  0  0  0  0
    9.4155  -19.9508   27.6587 C   0  0  0  0  0  0  0  0  0  0  0  0
    8.2627  -19.4761   27.8595 O   0  0  0  0  0  0  0  0  0  0  0  0
    9.9226  -20.9044   28.5210 O   0  0  0  0  0  0  0  0  0  0  0  0
  2  1  1  6
  3  2  1  0
  4  3  1  0
  5  4  2  0
  6  5  1  0
  7  6  2  0
  7  8  1  0
  8  9  2  0
  9  4  1  0
 10 11  2  0
 10  2  1  0
 12 10  1  0
 13 12  1  0
 13 14  1  1
 15 14  1  0
 15 16  2  0
 17 16  1  0
 18 17  2  0
 19 20  2  0
 19 18  1  0
 20 15  1  0
 21 13  1  0
 22 21  2  0
 23 21  1  0
 24 23  1  0
 25 24  1  0
 25 27  1  0
 26 25  2  0
M  END
$$$$
