FFG.pdb
     RDKit          3D

 27 28  0  0  1  0  0  0  0  0999 V2000
    6.9703  -13.9211   22.0496 N   0  0  0  0  0  0  0  0  0  0  0  0
    8.2519  -14.5862   22.0293 C   0  0  1  0  0  0  0  0  0  0  0  0
    9.1760  -13.8773   21.0945 C   0  0  0  0  0  0  0  0  0  0  0  0
    8.5300  -13.8347   19.7486 C   0  0  0  0  0  0  0  0  0  0  0  0
    8.5776  -14.9356   18.9200 C   0  0  0  0  0  0  0  0  0  0  0  0
    7.9919  -14.9273   17.6747 C   0  0  0  0  0  0  0  0  0  0  0  0
    7.3368  -13.8076   17.2206 C   0  0  0  0  0  0  0  0  0  0  0  0
    7.3021  -12.7185   18.0668 C   0  0  0  0  0  0  0  0  0  0  0  0
    7.8799  -12.6998   19.3180 C   0  0  0  0  0  0  0  0  0  0  0  0
    8.8661  -14.6420   23.3821 C   0  0  0  0  0  0  0  0  0  0  0  0
    9.2740  -13.5768   23.9331 O   0  0  0  0  0  0  0  0  0  0  0  0
    9.0302  -15.8314   24.1133 N   0  0  0  0  0  0  0  0  0  0  0  0
    9.1021  -15.8255   25.5730 C   0  0  1  0  0  0  0  0  0  0  0  0
    7.6623  -15.5797   26.0087 C   0  0  0  0  0  0  0  0  0  0  0  0
    7.3326  -14.2020   26.3265 C   0  0  0  0  0  0  0  0  0  0  0  0
    8.2807  -13.3672   26.9258 C   0  0  0  0  0  0  0  0  0  0  0  0
    8.0074  -12.0669   27.2394 C   0  0  0  0  0  0  0  0  0  0  0  0
    6.7622  -11.5660   26.9565 C   0  0  0  0  0  0  0  0  0  0  0  0
    5.8063  -12.3712   26.3637 C   0  0  0  0  0  0  0  0  0  0  0  0
    6.0755  -13.6793   26.0462 C   0  0  0  0  0  0  0  0  0  0  0  0
    9.5696  -17.0820   26.1237 C   0  0  0  0  0  0  0  0  0  0  0  0
   10.0765  -17.1273   27.2649 O   0  0  0  0  0  0  0  0  0  0  0  0
    9.4552  -18.2760   25.3786 N   0  0  0  0  0  0  0  0  0  0  0  0
   10.2818  -18.4765   24.2220 C   0  0  0  0  0  0  0  0  0  0  0  0
   10.8747  -19.8287   24.2745 C   0  0  0  0  0  0  0  0  0  0  0  0
   11.6305  -20.2456   23.3527 O   0  0  0  0  0  0  0  0  0  0  0  0
   10.5941  -20.6472   25.3521 O   0  0  0  0  0  0  0  0  0  0  0  0
  2  1  1  1
  3  2  1  0
  4  3  1  0
  5  4  2  0
  6  5  1  0
  7  6  2  0
  7  8  1  0
  8  9  2  0
  9  4  1  0
 10 11  2  0
 10  2  1  0
 12 10  1  0
 13 12  1  0
 13 14  1  1
 15 14  1  0
 15 16  2  0
 17 16  1  0
 18 17  2  0
 19 20  2  0
 19 18  1  0
 20 15  1  0
 21 13  1  0
 22 21  2  0
 23 21  1  0
 24 23  1  0
 25 24  1  0
 25 27  1  0
 26 25  2  0
M  END
$$$$
