FFG.pdb
     RDKit          3D

 27 28  0  0  1  0  0  0  0  0999 V2000
    8.9173  -12.7211   21.6266 N   0  0  0  0  0  0  0  0  0  0  0  0
    8.6021  -14.1204   21.7928 C   0  0  1  0  0  0  0  0  0  0  0  0
    9.0491  -14.8868   20.5914 C   0  0  0  0  0  0  0  0  0  0  0  0
    8.2632  -14.4050   19.4162 C   0  0  0  0  0  0  0  0  0  0  0  0
    6.9068  -14.6411   19.3436 C   0  0  0  0  0  0  0  0  0  0  0  0
    6.1555  -14.2098   18.2743 C   0  0  0  0  0  0  0  0  0  0  0  0
    6.7460  -13.5246   17.2395 C   0  0  0  0  0  0  0  0  0  0  0  0
    8.1040  -13.3001   17.3340 C   0  0  0  0  0  0  0  0  0  0  0  0
    8.8797  -13.7206   18.3927 C   0  0  0  0  0  0  0  0  0  0  0  0
    9.2428  -14.6899   23.0074 C   0  0  0  0  0  0  0  0  0  0  0  0
   10.4501  -14.4120   23.2719 O   0  0  0  0  0  0  0  0  0  0  0  0
    8.5809  -15.5412   23.9094 N   0  0  0  0  0  0  0  0  0  0  0  0
    8.9788  -15.6224   25.3134 C   0  0  1  0  0  0  0  0  0  0  0  0
    7.6704  -15.4458   26.0748 C   0  0  0  0  0  0  0  0  0  0  0  0
    7.2718  -14.0717   26.3213 C   0  0  0  0  0  0  0  0  0  0  0  0
    5.9183  -13.7307   26.4022 C   0  0  0  0  0  0  0  0  0  0  0  0
    5.5053  -12.4499   26.6324 C   0  0  0  0  0  0  0  0  0  0  0  0
    6.4506  -11.4683   26.7888 C   0  0  0  0  0  0  0  0  0  0  0  0
    7.7962  -11.7795   26.7132 C   0  0  0  0  0  0  0  0  0  0  0  0
    8.2172  -13.0654   26.4820 C   0  0  0  0  0  0  0  0  0  0  0  0
    9.5765  -16.8961   25.6614 C   0  0  0  0  0  0  0  0  0  0  0  0
    9.8163  -17.1819   26.8540 O   0  0  0  0  0  0  0  0  0  0  0  0
    9.8935  -17.8358   24.6562 N   0  0  0  0  0  0  0  0  0  0  0  0
   11.2670  -18.1533   24.3848 C   0  0  0  0  0  0  0  0  0  0  0  0
   11.4443  -19.6197   24.4159 C   0  0  0  0  0  0  0  0  0  0  0  0
   12.4331  -20.1692   23.8547 O   0  0  0  0  0  0  0  0  0  0  0  0
   10.5093  -20.3987   25.0710 O   0  0  0  0  0  0  0  0  0  0  0  0
  2  1  1  6
  3  2  1  0
  4  3  1  0
  5  4  2  0
  6  5  1  0
  7  6  2  0
  7  8  1  0
  8  9  2  0
  9  4  1  0
 10 11  2  0
 10  2  1  0
 12 10  1  0
 13 12  1  0
 13 14  1  1
 15 14  1  0
 15 16  2  0
 17 16  1  0
 18 17  2  0
 19 20  2  0
 19 18  1  0
 20 15  1  0
 21 13  1  0
 22 21  2  0
 23 21  1  0
 24 23  1  0
 25 24  1  0
 25 27  1  0
 26 25  2  0
M  END
$$$$
