FFG.pdb
     RDKit          3D

 27 28  0  0  1  0  0  0  0  0999 V2000
   10.8308  -16.7302   21.4135 N   0  0  0  0  0  0  0  0  0  0  0  0
    9.8608  -15.9596   22.1555 C   0  0  1  0  0  0  0  0  0  0  0  0
    8.5029  -16.1490   21.5633 C   0  0  0  0  0  0  0  0  0  0  0  0
    8.0497  -14.8357   21.0153 C   0  0  0  0  0  0  0  0  0  0  0  0
    8.5024  -14.4017   19.7875 C   0  0  0  0  0  0  0  0  0  0  0  0
    8.1031  -13.1969   19.2558 C   0  0  0  0  0  0  0  0  0  0  0  0
    7.2321  -12.3864   19.9440 C   0  0  0  0  0  0  0  0  0  0  0  0
    6.7925  -12.8413   21.1701 C   0  0  0  0  0  0  0  0  0  0  0  0
    7.1763  -14.0428   21.7256 C   0  0  0  0  0  0  0  0  0  0  0  0
    9.8310  -16.3454   23.5910 C   0  0  0  0  0  0  0  0  0  0  0  0
   10.8813  -16.7834   24.1475 O   0  0  0  0  0  0  0  0  0  0  0  0
    8.6828  -16.2546   24.3970 N   0  0  0  0  0  0  0  0  0  0  0  0
    8.7691  -16.3006   25.8553 C   0  0  1  0  0  0  0  0  0  0  0  0
    7.4539  -15.6853   26.3187 C   0  0  0  0  0  0  0  0  0  0  0  0
    7.3558  -14.2435   26.1796 C   0  0  0  0  0  0  0  0  0  0  0  0
    6.2387  -13.6656   25.5686 C   0  0  0  0  0  0  0  0  0  0  0  0
    6.1111  -12.3145   25.4196 C   0  0  0  0  0  0  0  0  0  0  0  0
    7.1122  -11.5004   25.8851 C   0  0  0  0  0  0  0  0  0  0  0  0
    8.2277  -12.0472   26.4934 C   0  0  0  0  0  0  0  0  0  0  0  0
    8.3613  -13.4048   26.6458 C   0  0  0  0  0  0  0  0  0  0  0  0
    8.8858  -17.6486   26.3749 C   0  0  0  0  0  0  0  0  0  0  0  0
    8.8629  -17.8601   27.6062 O   0  0  0  0  0  0  0  0  0  0  0  0
    9.0234  -18.7447   25.4954 N   0  0  0  0  0  0  0  0  0  0  0  0
    9.2169  -20.0645   26.0259 C   0  0  0  0  0  0  0  0  0  0  0  0
   10.5165  -20.1233   26.7263 C   0  0  0  0  0  0  0  0  0  0  0  0
   11.5941  -19.8559   26.1249 O   0  0  0  0  0  0  0  0  0  0  0  0
   10.5478  -20.4780   28.0617 O   0  0  0  0  0  0  0  0  0  0  0  0
  2  1  1  6
  3  2  1  0
  4  3  1  0
  5  4  2  0
  6  5  1  0
  7  6  2  0
  7  8  1  0
  8  9  2  0
  9  4  1  0
 10 11  2  0
 10  2  1  0
 12 10  1  0
 13 12  1  0
 13 14  1  1
 15 14  1  0
 15 16  2  0
 17 16  1  0
 18 17  2  0
 19 20  2  0
 19 18  1  0
 20 15  1  0
 21 13  1  0
 22 21  2  0
 23 21  1  0
 24 23  1  0
 25 24  1  0
 25 27  1  0
 26 25  2  0
M  END
$$$$
