TKV.pdb
     RDKit          3D

 24 23  0  0  1  0  0  0  0  0999 V2000
    9.6987  -13.9750   18.1307 C   0  0  0  0  0  0  0  0  0  0  0  0
    9.2785  -14.2728   19.5511 C   0  0  1  0  0  0  0  0  0  0  0  0
    9.6667  -13.1925   20.3468 O   0  0  0  0  0  0  0  0  0  0  0  0
    7.7775  -14.4562   19.6324 C   0  0  2  0  0  0  0  0  0  0  0  0
    7.1698  -13.2641   19.1023 N   0  0  0  0  0  0  0  0  0  0  0  0
    7.3413  -14.7410   21.0215 C   0  0  0  0  0  0  0  0  0  0  0  0
    6.7467  -13.8399   21.6580 O   0  0  0  0  0  0  0  0  0  0  0  0
    7.5716  -15.9808   21.6435 N   0  0  0  0  0  0  0  0  0  0  0  0
    7.1282  -16.3408   22.9631 C   0  0  1  0  0  0  0  0  0  0  0  0
    7.4424  -17.7931   23.2883 C   0  0  0  0  0  0  0  0  0  0  0  0
    6.9922  -18.2094   24.6476 C   0  0  0  0  0  0  0  0  0  0  0  0
    7.2647  -19.6539   24.9534 C   0  0  0  0  0  0  0  0  0  0  0  0
    6.6994  -19.9178   26.3551 C   0  0  0  0  0  0  0  0  0  0  0  0
    6.9596  -21.2524   26.8006 N   0  0  0  0  0  0  0  0  0  0  0  0
    7.8572  -15.5321   23.9708 C   0  0  0  0  0  0  0  0  0  0  0  0
    9.1085  -15.4933   23.9021 O   0  0  0  0  0  0  0  0  0  0  0  0
    6.2360  -12.0764   25.2332 C   0  0  0  0  0  0  0  0  0  0  0  0
    6.9443  -12.7833   26.3624 C   0  0  2  0  0  0  0  0  0  0  0  0
    7.6242  -11.8341   27.3100 C   0  0  0  0  0  0  0  0  0  0  0  0
    7.8749  -13.8668   25.8713 C   0  0  2  0  0  0  0  0  0  0  0  0
    7.2213  -14.8051   25.0009 N   0  0  0  0  0  0  0  0  0  0  0  0
    8.3968  -14.5892   27.0430 C   0  0  0  0  0  0  0  0  0  0  0  0
    9.3074  -13.9924   27.8881 O   0  0  0  0  0  0  0  0  0  0  0  0
    8.0239  -15.7513   27.2895 O   0  0  0  0  0  0  0  0  0  0  0  0
  2  1  1  6
  2  3  1  0
  4  2  1  0
  4  5  1  1
  6  7  2  0
  6  4  1  0
  8  6  1  0
  9 10  1  1
  9  8  1  0
 10 11  1  0
 11 12  1  0
 13 14  1  0
 13 12  1  0
 15  9  1  0
 16 15  2  0
 18 20  1  0
 18 17  1  6
 19 18  1  0
 20 21  1  6
 21 15  1  0
 22 23  1  0
 22 20  1  0
 24 22  2  0
M  END
$$$$
