TKV.pdb
     RDKit          3D

 24 23  0  0  1  0  0  0  0  0999 V2000
    8.6924  -12.7274   20.2852 C   0  0  0  0  0  0  0  0  0  0  0  0
    8.0257  -13.5103   19.1784 C   0  0  1  0  0  0  0  0  0  0  0  0
    8.6502  -13.1679   17.9769 O   0  0  0  0  0  0  0  0  0  0  0  0
    8.1657  -14.9982   19.4230 C   0  0  2  0  0  0  0  0  0  0  0  0
    7.5963  -15.6757   18.2881 N   0  0  0  0  0  0  0  0  0  0  0  0
    7.5240  -15.3999   20.6990 C   0  0  0  0  0  0  0  0  0  0  0  0
    6.2776  -15.3120   20.7950 O   0  0  0  0  0  0  0  0  0  0  0  0
    8.2637  -15.8730   21.7973 N   0  0  0  0  0  0  0  0  0  0  0  0
    7.7113  -16.2329   23.0751 C   0  0  1  0  0  0  0  0  0  0  0  0
    8.1557  -17.6202   23.5125 C   0  0  0  0  0  0  0  0  0  0  0  0
    7.6411  -18.0142   24.8554 C   0  0  0  0  0  0  0  0  0  0  0  0
    8.1574  -19.3419   25.3298 C   0  0  0  0  0  0  0  0  0  0  0  0
    7.4914  -19.6105   26.6856 C   0  0  0  0  0  0  0  0  0  0  0  0
    7.8731  -20.8756   27.2343 N   0  0  0  0  0  0  0  0  0  0  0  0
    8.2119  -15.2997   24.1142 C   0  0  0  0  0  0  0  0  0  0  0  0
    9.4324  -15.0128   24.1100 O   0  0  0  0  0  0  0  0  0  0  0  0
    5.9976  -12.1414   25.4021 C   0  0  0  0  0  0  0  0  0  0  0  0
    6.6946  -12.8512   26.5364 C   0  0  2  0  0  0  0  0  0  0  0  0
    7.1258  -11.9166   27.6326 C   0  0  0  0  0  0  0  0  0  0  0  0
    7.8240  -13.7328   26.0582 C   0  0  2  0  0  0  0  0  0  0  0  0
    7.3917  -14.7179   25.1055 N   0  0  0  0  0  0  0  0  0  0  0  0
    8.3956  -14.4207   27.2274 C   0  0  0  0  0  0  0  0  0  0  0  0
    9.3553  -13.8077   28.0036 O   0  0  0  0  0  0  0  0  0  0  0  0
    8.0210  -15.5679   27.5340 O   0  0  0  0  0  0  0  0  0  0  0  0
  2  1  1  1
  2  3  1  0
  4  2  1  0
  4  5  1  6
  6  7  2  0
  6  4  1  0
  8  6  1  0
  9 10  1  1
  9  8  1  0
 10 11  1  0
 11 12  1  0
 13 14  1  0
 13 12  1  0
 15  9  1  0
 16 15  2  0
 18 20  1  0
 18 17  1  6
 19 18  1  0
 20 21  1  6
 21 15  1  0
 22 23  1  0
 22 20  1  0
 24 22  2  0
M  END
$$$$
