TKV.pdb
     RDKit          3D

 24 23  0  0  1  0  0  0  0  0999 V2000
    9.8248  -13.8304   20.8708 C   0  0  0  0  0  0  0  0  0  0  0  0
    8.9395  -14.3139   19.7461 C   0  0  1  0  0  0  0  0  0  0  0  0
    9.7044  -14.3308   18.5776 O   0  0  0  0  0  0  0  0  0  0  0  0
    8.4219  -15.7063   20.0402 C   0  0  2  0  0  0  0  0  0  0  0  0
    7.6194  -16.1126   18.9166 N   0  0  0  0  0  0  0  0  0  0  0  0
    7.6652  -15.7444   21.3158 C   0  0  0  0  0  0  0  0  0  0  0  0
    6.5807  -15.1205   21.3865 O   0  0  0  0  0  0  0  0  0  0  0  0
    8.1221  -16.4531   22.4411 N   0  0  0  0  0  0  0  0  0  0  0  0
    7.4966  -16.4445   23.7358 C   0  0  1  0  0  0  0  0  0  0  0  0
    7.6730  -17.7717   24.4576 C   0  0  0  0  0  0  0  0  0  0  0  0
    6.8534  -18.8761   23.8813 C   0  0  0  0  0  0  0  0  0  0  0  0
    6.9969  -20.1767   24.6175 C   0  0  0  0  0  0  0  0  0  0  0  0
    6.1351  -21.2007   23.8674 C   0  0  0  0  0  0  0  0  0  0  0  0
    6.3049  -22.5269   24.3770 N   0  0  0  0  0  0  0  0  0  0  0  0
    8.1468  -15.4251   24.5956 C   0  0  0  0  0  0  0  0  0  0  0  0
    9.3995  -15.4054   24.6419 O   0  0  0  0  0  0  0  0  0  0  0  0
    5.8448  -12.6200   27.0774 C   0  0  0  0  0  0  0  0  0  0  0  0
    7.1496  -12.2744   26.4034 C   0  0  2  0  0  0  0  0  0  0  0  0
    6.9610  -11.4933   25.1324 C   0  0  0  0  0  0  0  0  0  0  0  0
    8.0353  -13.4821   26.2072 C   0  0  2  0  0  0  0  0  0  0  0  0
    7.4344  -14.4778   25.3631 N   0  0  0  0  0  0  0  0  0  0  0  0
    8.3007  -14.0757   27.5279 C   0  0  0  0  0  0  0  0  0  0  0  0
    7.8588  -15.3460   27.8289 O   0  0  0  0  0  0  0  0  0  0  0  0
    8.9289  -13.4396   28.3946 O   0  0  0  0  0  0  0  0  0  0  0  0
  2  1  1  1
  2  3  1  0
  4  2  1  0
  4  5  1  6
  6  7  2  0
  6  4  1  0
  8  6  1  0
  9 10  1  1
  9  8  1  0
 10 11  1  0
 11 12  1  0
 13 14  1  0
 13 12  1  0
 15  9  1  0
 16 15  2  0
 18 20  1  0
 18 17  1  6
 19 18  1  0
 20 21  1  6
 21 15  1  0
 22 23  1  0
 22 20  1  0
 24 22  2  0
M  END
$$$$
