TKV.pdb
     RDKit          3D

 24 23  0  0  1  0  0  0  0  0999 V2000
   11.0205  -13.8231   20.5799 C   0  0  0  0  0  0  0  0  0  0  0  0
   10.1483  -13.1310   19.5588 C   0  0  1  0  0  0  0  0  0  0  0  0
   10.9165  -12.9245   18.4107 O   0  0  0  0  0  0  0  0  0  0  0  0
    8.9445  -13.9863   19.2232 C   0  0  2  0  0  0  0  0  0  0  0  0
    8.2052  -13.3027   18.1948 N   0  0  0  0  0  0  0  0  0  0  0  0
    8.1190  -14.2551   20.4262 C   0  0  0  0  0  0  0  0  0  0  0  0
    7.1477  -13.5002   20.6657 O   0  0  0  0  0  0  0  0  0  0  0  0
    8.3889  -15.3222   21.3012 N   0  0  0  0  0  0  0  0  0  0  0  0
    7.5744  -15.6988   22.4247 C   0  0  1  0  0  0  0  0  0  0  0  0
    7.4660  -17.2097   22.5630 C   0  0  0  0  0  0  0  0  0  0  0  0
    6.6726  -17.8515   21.4757 C   0  0  0  0  0  0  0  0  0  0  0  0
    6.6428  -19.3503   21.5594 C   0  0  0  0  0  0  0  0  0  0  0  0
    5.8646  -19.8410   20.3317 C   0  0  0  0  0  0  0  0  0  0  0  0
    5.6952  -21.2618   20.3313 N   0  0  0  0  0  0  0  0  0  0  0  0
    8.2054  -15.2204   23.6793 C   0  0  0  0  0  0  0  0  0  0  0  0
    9.4439  -15.3660   23.8088 O   0  0  0  0  0  0  0  0  0  0  0  0
    5.9050  -13.5175   27.0296 C   0  0  0  0  0  0  0  0  0  0  0  0
    7.1980  -12.9419   26.5069 C   0  0  2  0  0  0  0  0  0  0  0  0
    6.9867  -11.7625   25.5984 C   0  0  0  0  0  0  0  0  0  0  0  0
    8.0873  -13.9922   25.8844 C   0  0  2  0  0  0  0  0  0  0  0  0
    7.4899  -14.6114   24.7334 N   0  0  0  0  0  0  0  0  0  0  0  0
    8.3530  -15.0271   26.8969 C   0  0  0  0  0  0  0  0  0  0  0  0
    9.1576  -14.7575   27.9829 O   0  0  0  0  0  0  0  0  0  0  0  0
    7.8549  -16.1632   26.7885 O   0  0  0  0  0  0  0  0  0  0  0  0
  2  1  1  1
  2  3  1  0
  4  2  1  0
  4  5  1  6
  6  7  2  0
  6  4  1  0
  8  6  1  0
  9 10  1  1
  9  8  1  0
 10 11  1  0
 11 12  1  0
 13 14  1  0
 13 12  1  0
 15  9  1  0
 16 15  2  0
 18 20  1  0
 18 17  1  6
 19 18  1  0
 20 21  1  6
 21 15  1  0
 22 23  1  0
 22 20  1  0
 24 22  2  0
M  END
$$$$
