TKV.pdb
     RDKit          3D

 24 23  0  0  1  0  0  0  0  0999 V2000
    8.9328  -12.8847   20.1610 C   0  0  0  0  0  0  0  0  0  0  0  0
    8.1055  -13.5901   19.1119 C   0  0  1  0  0  0  0  0  0  0  0  0
    8.7023  -13.3587   17.8705 O   0  0  0  0  0  0  0  0  0  0  0  0
    8.0565  -15.0782   19.3879 C   0  0  2  0  0  0  0  0  0  0  0  0
    7.3324  -15.6921   18.3061 N   0  0  0  0  0  0  0  0  0  0  0  0
    7.4447  -15.3641   20.7089 C   0  0  0  0  0  0  0  0  0  0  0  0
    6.2273  -15.1143   20.8706 O   0  0  0  0  0  0  0  0  0  0  0  0
    8.1813  -15.9027   21.7788 N   0  0  0  0  0  0  0  0  0  0  0  0
    7.6358  -16.2740   23.0563 C   0  0  1  0  0  0  0  0  0  0  0  0
    8.0637  -17.6743   23.4682 C   0  0  0  0  0  0  0  0  0  0  0  0
    7.5149  -18.1005   24.7875 C   0  0  0  0  0  0  0  0  0  0  0  0
    7.9456  -19.4785   25.1996 C   0  0  0  0  0  0  0  0  0  0  0  0
    7.2540  -19.7706   26.5376 C   0  0  0  0  0  0  0  0  0  0  0  0
    7.4787  -21.1124   26.9808 N   0  0  0  0  0  0  0  0  0  0  0  0
    8.1601  -15.3644   24.1045 C   0  0  0  0  0  0  0  0  0  0  0  0
    9.3975  -15.1668   24.1483 O   0  0  0  0  0  0  0  0  0  0  0  0
    5.8659  -12.2609   25.5696 C   0  0  0  0  0  0  0  0  0  0  0  0
    6.6997  -12.9418   26.6268 C   0  0  2  0  0  0  0  0  0  0  0  0
    7.1946  -11.9912   27.6816 C   0  0  0  0  0  0  0  0  0  0  0  0
    7.8143  -13.7726   26.0362 C   0  0  2  0  0  0  0  0  0  0  0  0
    7.3446  -14.7101   25.0536 N   0  0  0  0  0  0  0  0  0  0  0  0
    8.4622  -14.5148   27.1300 C   0  0  0  0  0  0  0  0  0  0  0  0
    9.5608  -13.9934   27.7786 O   0  0  0  0  0  0  0  0  0  0  0  0
    8.0281  -15.6259   27.4868 O   0  0  0  0  0  0  0  0  0  0  0  0
  2  1  1  1
  2  3  1  0
  4  2  1  0
  4  5  1  6
  6  7  2  0
  6  4  1  0
  8  6  1  0
  9 10  1  1
  9  8  1  0
 10 11  1  0
 11 12  1  0
 13 14  1  0
 13 12  1  0
 15  9  1  0
 16 15  2  0
 18 20  1  0
 18 17  1  6
 19 18  1  0
 20 21  1  6
 21 15  1  0
 22 23  1  0
 22 20  1  0
 24 22  2  0
M  END
$$$$
