TKV.pdb
     RDKit          3D

 24 23  0  0  1  0  0  0  0  0999 V2000
    4.2514  -20.0485   24.0016 C   0  0  0  0  0  0  0  0  0  0  0  0
    4.7843  -21.0829   23.0380 C   0  0  1  0  0  0  0  0  0  0  0  0
    3.7956  -22.0539   22.8638 O   0  0  0  0  0  0  0  0  0  0  0  0
    5.1164  -20.4446   21.7055 C   0  0  2  0  0  0  0  0  0  0  0  0
    5.4593  -21.5050   20.7948 N   0  0  0  0  0  0  0  0  0  0  0  0
    6.2038  -19.4443   21.8404 C   0  0  0  0  0  0  0  0  0  0  0  0
    7.3405  -19.8403   22.1894 O   0  0  0  0  0  0  0  0  0  0  0  0
    6.0023  -18.0752   21.5910 N   0  0  0  0  0  0  0  0  0  0  0  0
    7.0085  -17.0548   21.7084 C   0  0  1  0  0  0  0  0  0  0  0  0
    6.5717  -15.7524   21.0553 C   0  0  0  0  0  0  0  0  0  0  0  0
    7.6440  -14.7170   21.0166 C   0  0  0  0  0  0  0  0  0  0  0  0
    7.2516  -13.4746   20.2704 C   0  0  0  0  0  0  0  0  0  0  0  0
    8.5276  -12.6372   20.1146 C   0  0  0  0  0  0  0  0  0  0  0  0
    8.3131  -11.4680   19.3182 N   0  0  0  0  0  0  0  0  0  0  0  0
    7.2298  -16.7367   23.1405 C   0  0  0  0  0  0  0  0  0  0  0  0
    6.2884  -16.2097   23.7794 O   0  0  0  0  0  0  0  0  0  0  0  0
   10.1390  -18.6530   25.6439 C   0  0  0  0  0  0  0  0  0  0  0  0
    8.9305  -17.8546   26.0665 C   0  0  2  0  0  0  0  0  0  0  0  0
    7.6934  -18.6981   26.2057 C   0  0  0  0  0  0  0  0  0  0  0  0
    8.7032  -16.6448   25.1913 C   0  0  2  0  0  0  0  0  0  0  0  0
    8.4392  -16.9939   23.8225 N   0  0  0  0  0  0  0  0  0  0  0  0
    9.9125  -15.8071   25.2435 C   0  0  0  0  0  0  0  0  0  0  0  0
   10.2485  -15.1292   26.3954 O   0  0  0  0  0  0  0  0  0  0  0  0
   10.6516  -15.6975   24.2474 O   0  0  0  0  0  0  0  0  0  0  0  0
  2  1  1  1
  2  3  1  0
  4  2  1  0
  4  5  1  6
  6  7  2  0
  6  4  1  0
  8  6  1  0
  9 10  1  6
  9  8  1  0
 10 11  1  0
 11 12  1  0
 13 14  1  0
 13 12  1  0
 15  9  1  0
 16 15  2  0
 18 20  1  0
 18 17  1  6
 19 18  1  0
 20 21  1  6
 21 15  1  0
 22 23  1  0
 22 20  1  0
 24 22  2  0
M  END
$$$$
