RCT.pdb
     RDKit          3D

 25 24  0  0  1  0  0  0  0  0999 V2000
    8.6750  -12.2351   17.1924 N   0  0  0  0  0  0  0  0  0  0  0  0
    8.3729  -13.4684   16.5414 C   0  0  0  0  0  0  0  0  0  0  0  0
    8.2699  -13.4557   15.2490 N   0  0  0  0  0  0  0  0  0  0  0  0
    8.1936  -14.6606   17.2931 N   0  0  0  0  0  0  0  0  0  0  0  0
    8.2571  -14.5310   18.7392 C   0  0  0  0  0  0  0  0  0  0  0  0
    6.9414  -14.2144   19.3516 C   0  0  0  0  0  0  0  0  0  0  0  0
    7.0935  -14.1194   20.8435 C   0  0  0  0  0  0  0  0  0  0  0  0
    7.8016  -15.3306   21.3486 C   0  0  2  0  0  0  0  0  0  0  0  0
    6.7780  -16.3554   21.5885 N   0  0  0  0  0  0  0  0  0  0  0  0
    8.4410  -15.0588   22.6961 C   0  0  0  0  0  0  0  0  0  0  0  0
    9.4583  -14.3292   22.8125 O   0  0  0  0  0  0  0  0  0  0  0  0
    8.0179  -14.3045   14.7004 N   0  0  0  0  0  0  0  0  0  0  0  0
    7.9015  -15.6281   23.8787 C   0  0  1  0  0  0  0  0  0  0  0  0
    8.4670  -15.4347   25.1981 C   0  0  0  0  0  0  0  0  0  0  0  0
    7.6580  -14.4842   26.0341 S   0  0  0  0  0  0  0  0  0  0  0  0
    5.9677  -15.0940   26.2745 C   0  0  0  0  0  0  0  0  0  0  0  0
    8.7757  -16.7038   25.8521 O   0  0  0  0  0  0  0  0  0  0  0  0
    7.8352  -17.5271   26.0205 C   0  0  0  0  0  0  0  0  0  0  0  0
   11.0409  -19.3712   24.7991 C   0  0  2  0  0  0  0  0  0  0  0  0
   11.4833  -18.9915   26.1841 O   0  0  0  0  0  0  0  0  0  0  0  0
   12.4830  -18.0178   26.0655 C   0  0  2  0  0  0  0  0  0  0  0  0
   10.3378  -18.3477   26.9717 N   0  0  0  0  0  0  0  0  0  0  0  0
   10.0512  -17.0880   26.3153 C   0  0  0  0  0  0  0  0  0  0  0  0
   10.8593  -18.0680   28.3432 O   0  0  0  0  0  0  0  0  0  0  0  0
   11.1290  -19.1216   29.1929 O   0  0  0  0  0  0  0  0  0  0  0  0
  2  3  2  0
  2  1  1  0
  4  2  1  0
  5  4  1  0
  6  5  1  0
  7  8  1  0
  7  6  1  0
  8  9  1  1
 10  8  1  0
 10 12  1  0
 11 10  2  0
 13 16  1  0
 13 12  1  0
 13 14  1  1
 14 15  1  0
 16 17  2  0
 19 18  1  6
 19 21  1  0
 20 19  1  0
 21 23  1  0
 21 22  1  1
 22 16  1  0
 23 25  2  0
 23 24  1  0
M  END
$$$$
