RCT.pdb
     RDKit          3D

 25 24  0  0  1  0  0  0  0  0999 V2000
    6.1579  -17.1570   17.7542 N   0  0  0  0  0  0  0  0  0  0  0  0
    6.6659  -18.4588   18.0424 C   0  0  0  0  0  0  0  0  0  0  0  0
    7.4045  -19.0282   17.1417 N   0  0  0  0  0  0  0  0  0  0  0  0
    6.3663  -19.0979   19.2755 N   0  0  0  0  0  0  0  0  0  0  0  0
    6.7844  -18.4055   20.4829 C   0  0  0  0  0  0  0  0  0  0  0  0
    8.2437  -18.1308   20.5182 C   0  0  0  0  0  0  0  0  0  0  0  0
    8.6008  -17.4896   21.8295 C   0  0  0  0  0  0  0  0  0  0  0  0
    8.7395  -16.0170   21.6408 C   0  0  2  0  0  0  0  0  0  0  0  0
    9.9213  -15.8037   20.7962 N   0  0  0  0  0  0  0  0  0  0  0  0
    9.0413  -15.3304   22.9584 C   0  0  0  0  0  0  0  0  0  0  0  0
   10.1715  -15.4087   23.5035 O   0  0  0  0  0  0  0  0  0  0  0  0
    7.8690  -19.9471   17.2993 N   0  0  0  0  0  0  0  0  0  0  0  0
    8.0429  -14.5705   23.6212 C   0  0  2  0  0  0  0  0  0  0  0  0
    8.1702  -14.0801   24.9782 C   0  0  0  0  0  0  0  0  0  0  0  0
    7.1252  -13.0552   25.3169 S   0  0  0  0  0  0  0  0  0  0  0  0
    7.2353  -12.5527   27.0553 C   0  0  0  0  0  0  0  0  0  0  0  0
    8.2854  -15.1692   25.9447 O   0  0  0  0  0  0  0  0  0  0  0  0
    7.2372  -15.7977   26.2561 C   0  0  0  0  0  0  0  0  0  0  0  0
   10.2329  -18.1818   25.6846 C   0  0  2  0  0  0  0  0  0  0  0  0
   10.6312  -17.6212   27.0208 O   0  0  0  0  0  0  0  0  0  0  0  0
   11.8079  -16.8823   26.8447 C   0  0  2  0  0  0  0  0  0  0  0  0
    9.5753  -16.6427   27.5450 N   0  0  0  0  0  0  0  0  0  0  0  0
    9.4840  -15.5798   26.5644 C   0  0  0  0  0  0  0  0  0  0  0  0
   10.1063  -16.0760   28.8209 O   0  0  0  0  0  0  0  0  0  0  0  0
   10.2437  -16.8976   29.9213 O   0  0  0  0  0  0  0  0  0  0  0  0
  2  3  2  0
  2  1  1  0
  4  2  1  0
  5  4  1  0
  6  5  1  0
  7  8  1  0
  7  6  1  0
  8  9  1  6
 10  8  1  0
 10 12  1  0
 11 10  2  0
 13 16  1  0
 13 12  1  0
 13 14  1  6
 14 15  1  0
 16 17  2  0
 19 18  1  1
 19 21  1  0
 20 19  1  0
 21 23  1  0
 21 22  1  1
 22 16  1  0
 23 25  2  0
 23 24  1  0
M  END
$$$$
