RCT.pdb
     RDKit          3D

 25 24  0  0  1  0  0  0  0  0999 V2000
    8.5125  -13.9782   16.9782 N   0  0  0  0  0  0  0  0  0  0  0  0
    8.7465  -13.5411   18.3162 C   0  0  0  0  0  0  0  0  0  0  0  0
    9.4061  -12.4371   18.4807 N   0  0  0  0  0  0  0  0  0  0  0  0
    8.2691  -14.2972   19.4203 N   0  0  0  0  0  0  0  0  0  0  0  0
    7.5065  -13.5710   20.4220 C   0  0  0  0  0  0  0  0  0  0  0  0
    7.1501  -14.4060   21.5976 C   0  0  0  0  0  0  0  0  0  0  0  0
    6.4649  -15.6596   21.1319 C   0  0  0  0  0  0  0  0  0  0  0  0
    7.3672  -16.8274   21.3456 C   0  0  2  0  0  0  0  0  0  0  0  0
    6.6013  -18.0295   20.9934 N   0  0  0  0  0  0  0  0  0  0  0  0
    7.7203  -16.9750   22.8125 C   0  0  0  0  0  0  0  0  0  0  0  0
    6.8405  -17.1628   23.6909 O   0  0  0  0  0  0  0  0  0  0  0  0
    9.5436  -12.0027   19.4174 N   0  0  0  0  0  0  0  0  0  0  0  0
    9.0714  -16.9041   23.2401 C   0  0  2  0  0  0  0  0  0  0  0  0
    9.4939  -17.0867   24.6135 C   0  0  0  0  0  0  0  0  0  0  0  0
   10.5715  -18.1248   24.7478 S   0  0  0  0  0  0  0  0  0  0  0  0
   11.1533  -18.2519   26.4601 C   0  0  0  0  0  0  0  0  0  0  0  0
    9.7935  -15.8152   25.2671 O   0  0  0  0  0  0  0  0  0  0  0  0
   10.7111  -15.1006   24.7791 C   0  0  0  0  0  0  0  0  0  0  0  0
    7.7196  -12.7069   26.1388 C   0  0  2  0  0  0  0  0  0  0  0  0
    8.2458  -13.3351   27.3984 O   0  0  0  0  0  0  0  0  0  0  0  0
    7.2976  -14.2639   27.8455 C   0  0  2  0  0  0  0  0  0  0  0  0
    9.5325  -14.1211   27.1266 N   0  0  0  0  0  0  0  0  0  0  0  0
    9.1349  -15.3161   26.4099 C   0  0  0  0  0  0  0  0  0  0  0  0
   10.0856  -14.5187   28.4558 O   0  0  0  0  0  0  0  0  0  0  0  0
   10.1072  -15.8529   28.8085 O   0  0  0  0  0  0  0  0  0  0  0  0
  2  3  2  0
  2  1  1  0
  4  2  1  0
  5  4  1  0
  6  5  1  0
  7  8  1  0
  7  6  1  0
  8  9  1  1
 10  8  1  0
 10 12  1  0
 11 10  2  0
 13 16  1  0
 13 12  1  0
 13 14  1  6
 14 15  1  0
 16 17  2  0
 19 18  1  1
 19 21  1  0
 20 19  1  0
 21 23  1  0
 21 22  1  1
 22 16  1  0
 23 25  2  0
 23 24  1  0
M  END
$$$$
