RCT.pdb
     RDKit          3D

 25 24  0  0  1  0  0  0  0  0999 V2000
    9.0279  -13.0466   17.9096 N   0  0  0  0  0  0  0  0  0  0  0  0
    8.7339  -12.5938   19.2304 C   0  0  0  0  0  0  0  0  0  0  0  0
    9.5551  -11.7497   19.7726 N   0  0  0  0  0  0  0  0  0  0  0  0
    7.5799  -13.0587   19.9166 N   0  0  0  0  0  0  0  0  0  0  0  0
    6.7819  -14.0644   19.2355 C   0  0  0  0  0  0  0  0  0  0  0  0
    7.4904  -15.3608   19.0821 C   0  0  0  0  0  0  0  0  0  0  0  0
    6.9420  -16.3511   20.0703 C   0  0  0  0  0  0  0  0  0  0  0  0
    8.0643  -17.1303   20.6675 C   0  0  2  0  0  0  0  0  0  0  0  0
    7.8651  -18.5323   20.2799 N   0  0  0  0  0  0  0  0  0  0  0  0
    7.9936  -17.1040   22.1817 C   0  0  0  0  0  0  0  0  0  0  0  0
    6.9533  -17.4393   22.8030 O   0  0  0  0  0  0  0  0  0  0  0  0
    9.3892  -11.3344   20.7133 N   0  0  0  0  0  0  0  0  0  0  0  0
    9.1146  -16.6946   22.9493 C   0  0  2  0  0  0  0  0  0  0  0  0
    9.1357  -16.6707   24.3975 C   0  0  0  0  0  0  0  0  0  0  0  0
   10.2538  -17.4965   24.9675 S   0  0  0  0  0  0  0  0  0  0  0  0
   11.8707  -16.8679   24.4413 C   0  0  0  0  0  0  0  0  0  0  0  0
    9.0595  -15.3100   24.9231 O   0  0  0  0  0  0  0  0  0  0  0  0
    9.7321  -14.4135   24.3446 C   0  0  0  0  0  0  0  0  0  0  0  0
    6.5944  -12.4998   25.4347 C   0  0  2  0  0  0  0  0  0  0  0  0
    7.0158  -13.0347   26.7743 O   0  0  0  0  0  0  0  0  0  0  0  0
    6.1486  -14.0812   27.1127 C   0  0  2  0  0  0  0  0  0  0  0  0
    8.4229  -13.6371   26.7097 N   0  0  0  0  0  0  0  0  0  0  0  0
    8.2883  -14.9123   26.0349 C   0  0  0  0  0  0  0  0  0  0  0  0
    8.8541  -13.8814   28.1187 O   0  0  0  0  0  0  0  0  0  0  0  0
    9.1095  -12.8057   28.9448 O   0  0  0  0  0  0  0  0  0  0  0  0
  2  3  2  0
  2  1  1  0
  4  2  1  0
  5  4  1  0
  6  5  1  0
  7  8  1  0
  7  6  1  0
  8  9  1  6
 10  8  1  0
 10 12  1  0
 11 10  2  0
 13 16  1  0
 13 12  1  0
 13 14  1  6
 14 15  1  0
 16 17  2  0
 19 18  1  1
 19 21  1  0
 20 19  1  0
 21 23  1  0
 21 22  1  1
 22 16  1  0
 23 25  2  0
 23 24  1  0
M  END
$$$$
