RCT.pdb
     RDKit          3D

 25 24  0  0  1  0  0  0  0  0999 V2000
    8.9165  -15.3086   16.2657 N   0  0  0  0  0  0  0  0  0  0  0  0
    8.3920  -14.0954   15.7279 C   0  0  0  0  0  0  0  0  0  0  0  0
    8.2779  -14.0097   14.4393 N   0  0  0  0  0  0  0  0  0  0  0  0
    8.0123  -13.0269   16.5838 N   0  0  0  0  0  0  0  0  0  0  0  0
    8.4596  -13.1114   17.9640 C   0  0  0  0  0  0  0  0  0  0  0  0
    7.5112  -13.8495   18.8370 C   0  0  0  0  0  0  0  0  0  0  0  0
    7.7616  -13.4812   20.2721 C   0  0  0  0  0  0  0  0  0  0  0  0
    8.0696  -14.7127   21.0544 C   0  0  2  0  0  0  0  0  0  0  0  0
    6.8006  -15.4254   21.2470 N   0  0  0  0  0  0  0  0  0  0  0  0
    8.5628  -14.3598   22.4439 C   0  0  0  0  0  0  0  0  0  0  0  0
    9.7129  -13.8913   22.6404 O   0  0  0  0  0  0  0  0  0  0  0  0
    7.9921  -13.1296   13.9610 N   0  0  0  0  0  0  0  0  0  0  0  0
    7.7287  -14.5512   23.5758 C   0  0  1  0  0  0  0  0  0  0  0  0
    8.1701  -14.3698   24.9434 C   0  0  0  0  0  0  0  0  0  0  0  0
    7.3111  -13.3950   25.6976 S   0  0  0  0  0  0  0  0  0  0  0  0
    7.8826  -13.1995   27.4069 C   0  0  0  0  0  0  0  0  0  0  0  0
    8.3793  -15.6451   25.6242 O   0  0  0  0  0  0  0  0  0  0  0  0
    7.3656  -16.3451   25.8945 C   0  0  0  0  0  0  0  0  0  0  0  0
    9.8070  -18.5958   24.4385 C   0  0  2  0  0  0  0  0  0  0  0  0
   10.6133  -18.3126   25.6744 O   0  0  0  0  0  0  0  0  0  0  0  0
   11.7370  -17.5677   25.2946 C   0  0  2  0  0  0  0  0  0  0  0  0
    9.8255  -17.4430   26.6595 N   0  0  0  0  0  0  0  0  0  0  0  0
    9.6337  -16.1630   26.0080 C   0  0  0  0  0  0  0  0  0  0  0  0
   10.6968  -17.2478   27.8569 O   0  0  0  0  0  0  0  0  0  0  0  0
   10.9275  -18.3104   28.7069 O   0  0  0  0  0  0  0  0  0  0  0  0
  2  3  2  0
  2  1  1  0
  4  2  1  0
  5  4  1  0
  6  5  1  0
  7  8  1  0
  7  6  1  0
  8  9  1  1
 10  8  1  0
 10 12  1  0
 11 10  2  0
 13 16  1  0
 13 12  1  0
 13 14  1  1
 14 15  1  0
 16 17  2  0
 19 18  1  6
 19 21  1  0
 20 19  1  0
 21 23  1  0
 21 22  1  1
 22 16  1  0
 23 25  2  0
 23 24  1  0
M  END
$$$$
