AEN.pdb
     RDKit          3D

 23 22  0  0  1  0  0  0  0  0999 V2000
   17.4572  -13.1942  -15.8493 C   0  0  0  0  0  0  0  0  0  0  0  0
   17.0813  -12.0104  -14.9967 C   0  0  2  0  0  0  0  0  0  0  0  0
   15.9470  -11.3219  -15.5605 N   0  0  0  0  0  0  0  0  0  0  0  0
   18.2526  -11.1128  -14.8406 C   0  0  0  0  0  0  0  0  0  0  0  0
   19.2163  -11.4352  -14.1003 O   0  0  0  0  0  0  0  0  0  0  0  0
   18.3319   -9.8682  -15.5125 N   0  0  0  0  0  0  0  0  0  0  0  0
   19.4719   -9.0310  -15.3390 C   0  0  1  0  0  0  0  0  0  0  0  0
   19.8950   -8.4746  -16.6644 C   0  0  0  0  0  0  0  0  0  0  0  0
   21.1142   -7.6034  -16.5857 C   0  0  0  0  0  0  0  0  0  0  0  0
   21.4223   -7.0765  -17.9343 C   0  0  0  0  0  0  0  0  0  0  0  0
   22.1580   -7.7167  -18.7198 O   0  0  0  0  0  0  0  0  0  0  0  0
   19.2263   -7.9067  -14.3945 C   0  0  0  0  0  0  0  0  0  0  0  0
   18.1670   -7.2500  -14.5575 O   0  0  0  0  0  0  0  0  0  0  0  0
   20.8984   -5.8642  -18.3458 O   0  0  0  0  0  0  0  0  0  0  0  0
   19.0813   -4.7035  -10.4820 N   0  0  0  0  0  0  0  0  0  0  0  0
   19.1836   -6.1033  -10.0939 C   0  0  0  0  0  0  0  0  0  0  0  0
   18.9983   -6.4105   -8.9022 O   0  0  0  0  0  0  0  0  0  0  0  0
   19.5001   -7.1193  -11.1042 C   0  0  0  0  0  0  0  0  0  0  0  0
   19.8101   -6.4861  -12.4290 C   0  0  2  0  0  0  0  0  0  0  0  0
   20.1304   -7.5814  -13.3599 N   0  0  0  0  0  0  0  0  0  0  0  0
   20.8417   -5.4747  -12.4256 C   0  0  0  0  0  0  0  0  0  0  0  0
   21.9328   -5.5681  -12.9861 O   0  0  0  0  0  0  0  0  0  0  0  0
   20.6041   -4.2716  -11.7295 O   0  0  0  0  0  0  0  0  0  0  0  0
  2  4  1  0
  2  1  1  6
  2  3  1  0
  4  5  2  0
  6  7  1  0
  6  4  1  0
  7 12  1  0
  7  8  1  6
  9  8  1  0
 10  9  1  0
 11 10  2  0
 12 13  2  0
 12 20  1  0
 14 10  1  0
 16 15  1  0
 17 16  2  0
 18 16  1  0
 19 18  1  1
 19 21  1  0
 20 19  1  0
 21 22  2  0
 21 23  1  0
M  END
$$$$
