AEN.pdb
     RDKit          3D

 23 22  0  0  1  0  0  0  0  0999 V2000
   17.5386  -12.2653  -14.8342 C   0  0  0  0  0  0  0  0  0  0  0  0
   16.9750  -10.8683  -14.8209 C   0  0  2  0  0  0  0  0  0  0  0  0
   17.3176  -10.1739  -16.0371 N   0  0  0  0  0  0  0  0  0  0  0  0
   17.4542  -10.1458  -13.6166 C   0  0  0  0  0  0  0  0  0  0  0  0
   17.2483  -10.6068  -12.4652 O   0  0  0  0  0  0  0  0  0  0  0  0
   18.1560   -8.9191  -13.7142 N   0  0  0  0  0  0  0  0  0  0  0  0
   18.6003   -8.2515  -12.5363 C   0  0  1  0  0  0  0  0  0  0  0  0
   19.7252   -7.3222  -12.8776 C   0  0  0  0  0  0  0  0  0  0  0  0
   20.2685   -6.5801  -11.6920 C   0  0  0  0  0  0  0  0  0  0  0  0
   21.3189   -5.6412  -12.1467 C   0  0  0  0  0  0  0  0  0  0  0  0
   21.0795   -4.4172  -12.2590 O   0  0  0  0  0  0  0  0  0  0  0  0
   17.5183   -7.4808  -11.8643 C   0  0  0  0  0  0  0  0  0  0  0  0
   16.7729   -6.7881  -12.6023 O   0  0  0  0  0  0  0  0  0  0  0  0
   22.5846   -6.1068  -12.4545 O   0  0  0  0  0  0  0  0  0  0  0  0
   13.0842   -6.7440   -9.0129 N   0  0  0  0  0  0  0  0  0  0  0  0
   14.3560   -6.9227   -8.3265 C   0  0  0  0  0  0  0  0  0  0  0  0
   14.4880   -6.4613   -7.1782 O   0  0  0  0  0  0  0  0  0  0  0  0
   15.4509   -7.6370   -8.9930 C   0  0  0  0  0  0  0  0  0  0  0  0
   16.2546   -6.7095   -9.8567 C   0  0  2  0  0  0  0  0  0  0  0  0
   17.3256   -7.5161  -10.4660 N   0  0  0  0  0  0  0  0  0  0  0  0
   16.7822   -5.5317   -9.2075 C   0  0  0  0  0  0  0  0  0  0  0  0
   17.9071   -5.4306   -8.7198 O   0  0  0  0  0  0  0  0  0  0  0  0
   15.9605   -4.3898   -9.1110 O   0  0  0  0  0  0  0  0  0  0  0  0
  2  4  1  0
  2  1  1  6
  2  3  1  0
  4  5  2  0
  6  7  1  0
  6  4  1  0
  7 12  1  0
  7  8  1  6
  9  8  1  0
 10  9  1  0
 11 10  2  0
 12 13  2  0
 12 20  1  0
 14 10  1  0
 16 15  1  0
 17 16  2  0
 18 16  1  0
 19 18  1  1
 19 21  1  0
 20 19  1  0
 21 22  2  0
 21 23  1  0
M  END
$$$$
