AEN.pdb
     RDKit          3D

 23 22  0  0  1  0  0  0  0  0999 V2000
   24.0590  -20.6952   -9.0671 C   0  0  0  0  0  0  0  0  0  0  0  0
   25.4671  -21.0828   -9.4363 C   0  0  2  0  0  0  0  0  0  0  0  0
   26.4186  -20.3392   -8.6486 N   0  0  0  0  0  0  0  0  0  0  0  0
   25.6768  -20.8833  -10.8918 C   0  0  0  0  0  0  0  0  0  0  0  0
   26.4769  -20.0096  -11.3128 O   0  0  0  0  0  0  0  0  0  0  0  0
   24.9907  -21.6612  -11.8566 N   0  0  0  0  0  0  0  0  0  0  0  0
   25.2568  -21.4800  -13.2447 C   0  0  1  0  0  0  0  0  0  0  0  0
   25.4315  -22.8148  -13.9029 C   0  0  0  0  0  0  0  0  0  0  0  0
   25.7735  -22.7225  -15.3610 C   0  0  0  0  0  0  0  0  0  0  0  0
   25.8809  -24.0883  -15.9218 C   0  0  0  0  0  0  0  0  0  0  0  0
   25.6202  -25.0918  -15.2196 O   0  0  0  0  0  0  0  0  0  0  0  0
   24.1814  -20.7273  -13.9471 C   0  0  0  0  0  0  0  0  0  0  0  0
   22.9961  -21.0156  -13.6435 O   0  0  0  0  0  0  0  0  0  0  0  0
   26.2725  -24.2739  -17.2355 O   0  0  0  0  0  0  0  0  0  0  0  0
   22.9203  -15.8099  -17.1604 N   0  0  0  0  0  0  0  0  0  0  0  0
   22.9463  -17.2645  -17.2228 C   0  0  0  0  0  0  0  0  0  0  0  0
   22.0878  -17.8510  -17.9069 O   0  0  0  0  0  0  0  0  0  0  0  0
   23.9740  -18.0083  -16.4855 C   0  0  0  0  0  0  0  0  0  0  0  0
   23.3552  -19.0371  -15.5850 C   0  0  2  0  0  0  0  0  0  0  0  0
   24.4633  -19.7341  -14.9104 N   0  0  0  0  0  0  0  0  0  0  0  0
   22.4468  -19.9688  -16.2125 C   0  0  0  0  0  0  0  0  0  0  0  0
   22.7778  -20.9247  -16.9126 O   0  0  0  0  0  0  0  0  0  0  0  0
   21.0609  -19.7905  -16.0232 O   0  0  0  0  0  0  0  0  0  0  0  0
  2  4  1  0
  2  1  1  1
  2  3  1  0
  4  5  2  0
  6  7  1  0
  6  4  1  0
  7 12  1  0
  7  8  1  6
  9  8  1  0
 10  9  1  0
 11 10  2  0
 12 13  2  0
 12 20  1  0
 14 10  1  0
 16 15  1  0
 17 16  2  0
 18 16  1  0
 19 18  1  6
 19 21  1  0
 20 19  1  0
 21 22  2  0
 21 23  1  0
M  END
$$$$
