AEN.pdb
     RDKit          3D

 23 22  0  0  1  0  0  0  0  0999 V2000
   18.8662  -14.4570  -15.9668 C   0  0  0  0  0  0  0  0  0  0  0  0
   17.8785  -13.3210  -16.0257 C   0  0  2  0  0  0  0  0  0  0  0  0
   17.6501  -12.9206  -17.3918 N   0  0  0  0  0  0  0  0  0  0  0  0
   18.3613  -12.1930  -15.1911 C   0  0  0  0  0  0  0  0  0  0  0  0
   18.4704  -12.3153  -13.9446 O   0  0  0  0  0  0  0  0  0  0  0  0
   18.7153  -10.9445  -15.7592 N   0  0  0  0  0  0  0  0  0  0  0  0
   19.1293   -9.8677  -14.9228 C   0  0  1  0  0  0  0  0  0  0  0  0
   20.1898   -9.0688  -15.6174 C   0  0  0  0  0  0  0  0  0  0  0  0
   20.7279   -7.9401  -14.7880 C   0  0  0  0  0  0  0  0  0  0  0  0
   21.8480   -7.2971  -15.5115 C   0  0  0  0  0  0  0  0  0  0  0  0
   22.9985   -7.7905  -15.4800 O   0  0  0  0  0  0  0  0  0  0  0  0
   18.0081   -8.9643  -14.5445 C   0  0  0  0  0  0  0  0  0  0  0  0
   17.1746   -8.6873  -15.4437 O   0  0  0  0  0  0  0  0  0  0  0  0
   21.6365   -6.1374  -16.2352 O   0  0  0  0  0  0  0  0  0  0  0  0
   16.2368   -9.7259   -9.8202 N   0  0  0  0  0  0  0  0  0  0  0  0
   15.8939   -9.0787  -11.0788 C   0  0  0  0  0  0  0  0  0  0  0  0
   15.0995   -9.6482  -11.8493 O   0  0  0  0  0  0  0  0  0  0  0  0
   16.4845   -7.7783  -11.4152 C   0  0  0  0  0  0  0  0  0  0  0  0
   16.6825   -7.6416  -12.8965 C   0  0  2  0  0  0  0  0  0  0  0  0
   17.8735   -8.4359  -13.2419 N   0  0  0  0  0  0  0  0  0  0  0  0
   16.7797   -6.2925  -13.4042 C   0  0  0  0  0  0  0  0  0  0  0  0
   17.7456   -5.8259  -14.0064 O   0  0  0  0  0  0  0  0  0  0  0  0
   15.6917   -5.4176  -13.2063 O   0  0  0  0  0  0  0  0  0  0  0  0
  2  4  1  0
  2  1  1  6
  2  3  1  0
  4  5  2  0
  6  7  1  0
  6  4  1  0
  7 12  1  0
  7  8  1  6
  9  8  1  0
 10  9  1  0
 11 10  2  0
 12 13  2  0
 12 20  1  0
 14 10  1  0
 16 15  1  0
 17 16  2  0
 18 16  1  0
 19 18  1  1
 19 21  1  0
 20 19  1  0
 21 22  2  0
 21 23  1  0
M  END
$$$$
