AEN.pdb
     RDKit          3D

 23 22  0  0  1  0  0  0  0  0999 V2000
   17.6077  -12.3610  -15.0537 C   0  0  0  0  0  0  0  0  0  0  0  0
   17.0960  -10.9442  -15.0455 C   0  0  2  0  0  0  0  0  0  0  0  0
   17.5200  -10.2471  -16.2342 N   0  0  0  0  0  0  0  0  0  0  0  0
   17.5451  -10.2559  -13.8099 C   0  0  0  0  0  0  0  0  0  0  0  0
   17.3157  -10.7517  -12.6775 O   0  0  0  0  0  0  0  0  0  0  0  0
   18.2435   -9.0243  -13.8554 N   0  0  0  0  0  0  0  0  0  0  0  0
   18.6492   -8.3850  -12.6482 C   0  0  1  0  0  0  0  0  0  0  0  0
   19.7280   -7.3880  -12.9438 C   0  0  0  0  0  0  0  0  0  0  0  0
   20.2053   -6.6458  -11.7302 C   0  0  0  0  0  0  0  0  0  0  0  0
   21.2467   -5.6741  -12.1337 C   0  0  0  0  0  0  0  0  0  0  0  0
   22.4324   -5.8112  -11.7550 O   0  0  0  0  0  0  0  0  0  0  0  0
   17.5274   -7.6972  -11.9520 C   0  0  0  0  0  0  0  0  0  0  0  0
   16.8610   -6.8725  -12.6273 O   0  0  0  0  0  0  0  0  0  0  0  0
   20.9213   -4.5972  -12.9386 O   0  0  0  0  0  0  0  0  0  0  0  0
   13.8371   -6.3612   -8.6686 N   0  0  0  0  0  0  0  0  0  0  0  0
   14.0913   -7.7936   -8.6054 C   0  0  0  0  0  0  0  0  0  0  0  0
   13.2887   -8.5188   -7.9899 O   0  0  0  0  0  0  0  0  0  0  0  0
   15.2781   -8.3538   -9.2619 C   0  0  0  0  0  0  0  0  0  0  0  0
   16.0495   -7.2884   -9.9844 C   0  0  2  0  0  0  0  0  0  0  0  0
   17.2142   -7.9484  -10.5982 N   0  0  0  0  0  0  0  0  0  0  0  0
   16.4435   -6.1428   -9.1973 C   0  0  0  0  0  0  0  0  0  0  0  0
   15.6788   -5.2906   -8.7474 O   0  0  0  0  0  0  0  0  0  0  0  0
   17.8115   -5.9627   -8.9067 O   0  0  0  0  0  0  0  0  0  0  0  0
  2  4  1  0
  2  1  1  6
  2  3  1  0
  4  5  2  0
  6  7  1  0
  6  4  1  0
  7 12  1  0
  7  8  1  6
  9  8  1  0
 10  9  1  0
 11 10  2  0
 12 13  2  0
 12 20  1  0
 14 10  1  0
 16 15  1  0
 17 16  2  0
 18 16  1  0
 19 18  1  1
 19 21  1  0
 20 19  1  0
 21 22  2  0
 21 23  1  0
M  END
$$$$
