AEN.pdb
     RDKit          3D

 23 22  0  0  1  0  0  0  0  0999 V2000
   12.2765  -10.8720  -11.5819 C   0  0  0  0  0  0  0  0  0  0  0  0
   13.5910  -11.4939  -11.9755 C   0  0  2  0  0  0  0  0  0  0  0  0
   13.6256  -12.8844  -11.5958 N   0  0  0  0  0  0  0  0  0  0  0  0
   14.7091  -10.7271  -11.3724 C   0  0  0  0  0  0  0  0  0  0  0  0
   14.8161  -10.6195  -10.1243 O   0  0  0  0  0  0  0  0  0  0  0  0
   15.6916  -10.0910  -12.1703 N   0  0  0  0  0  0  0  0  0  0  0  0
   16.6906   -9.2759  -11.5635 C   0  0  1  0  0  0  0  0  0  0  0  0
   17.8090   -9.0435  -12.5333 C   0  0  0  0  0  0  0  0  0  0  0  0
   18.9706   -8.3016  -11.9401 C   0  0  0  0  0  0  0  0  0  0  0  0
   20.0414   -8.1842  -12.9555 C   0  0  0  0  0  0  0  0  0  0  0  0
   21.0781   -8.8822  -12.8771 O   0  0  0  0  0  0  0  0  0  0  0  0
   16.1644   -7.9619  -11.1024 C   0  0  0  0  0  0  0  0  0  0  0  0
   15.1763   -7.4965  -11.7246 O   0  0  0  0  0  0  0  0  0  0  0  0
   19.9092   -7.2977  -14.0091 O   0  0  0  0  0  0  0  0  0  0  0  0
   14.8868   -3.9236   -8.2806 N   0  0  0  0  0  0  0  0  0  0  0  0
   14.1535   -5.1784   -8.3714 C   0  0  0  0  0  0  0  0  0  0  0  0
   12.9992   -5.2334   -7.9092 O   0  0  0  0  0  0  0  0  0  0  0  0
   14.7808   -6.3464   -9.0002 C   0  0  0  0  0  0  0  0  0  0  0  0
   16.1274   -5.9987   -9.5639 C   0  0  2  0  0  0  0  0  0  0  0  0
   16.7369   -7.2597  -10.0193 N   0  0  0  0  0  0  0  0  0  0  0  0
   17.0144   -5.2670   -8.6891 C   0  0  0  0  0  0  0  0  0  0  0  0
   17.8663   -5.7685   -7.9570 O   0  0  0  0  0  0  0  0  0  0  0  0
   16.9160   -3.8608   -8.6521 O   0  0  0  0  0  0  0  0  0  0  0  0
  2  4  1  0
  2  1  1  1
  2  3  1  0
  4  5  2  0
  6  7  1  0
  6  4  1  0
  7 12  1  0
  7  8  1  6
  9  8  1  0
 10  9  1  0
 11 10  2  0
 12 13  2  0
 12 20  1  0
 14 10  1  0
 16 15  1  0
 17 16  2  0
 18 16  1  0
 19 18  1  1
 19 21  1  0
 20 19  1  0
 21 22  2  0
 21 23  1  0
M  END
$$$$
