AEN.pdb
     RDKit          3D

 23 22  0  0  1  0  0  0  0  0999 V2000
   27.5412  -17.3427  -16.8181 C   0  0  0  0  0  0  0  0  0  0  0  0
   28.0214  -18.7099  -16.4062 C   0  0  2  0  0  0  0  0  0  0  0  0
   28.5955  -19.4039  -17.5321 N   0  0  0  0  0  0  0  0  0  0  0  0
   26.9030  -19.4719  -15.7975 C   0  0  0  0  0  0  0  0  0  0  0  0
   26.1769  -20.2204  -16.4998 O   0  0  0  0  0  0  0  0  0  0  0  0
   26.6105  -19.3877  -14.4139 N   0  0  0  0  0  0  0  0  0  0  0  0
   25.5456  -20.1543  -13.8582 C   0  0  1  0  0  0  0  0  0  0  0  0
   25.8181  -20.4191  -12.4088 C   0  0  0  0  0  0  0  0  0  0  0  0
   24.7790  -21.2798  -11.7523 C   0  0  0  0  0  0  0  0  0  0  0  0
   25.1272  -21.4575  -10.3245 C   0  0  0  0  0  0  0  0  0  0  0  0
   26.1605  -22.0806   -9.9896 O   0  0  0  0  0  0  0  0  0  0  0  0
   24.2213  -19.4873  -13.9912 C   0  0  0  0  0  0  0  0  0  0  0  0
   24.2263  -18.2369  -14.1200 O   0  0  0  0  0  0  0  0  0  0  0  0
   24.3112  -20.9347   -9.3374 O   0  0  0  0  0  0  0  0  0  0  0  0
   19.6118  -18.2880  -15.5331 N   0  0  0  0  0  0  0  0  0  0  0  0
   20.7599  -18.5286  -16.3958 C   0  0  0  0  0  0  0  0  0  0  0  0
   20.6897  -18.1986  -17.5938 O   0  0  0  0  0  0  0  0  0  0  0  0
   21.9695  -19.1501  -15.8445 C   0  0  0  0  0  0  0  0  0  0  0  0
   21.7641  -19.5579  -14.4150 C   0  0  2  0  0  0  0  0  0  0  0  0
   23.0088  -20.2109  -13.9755 N   0  0  0  0  0  0  0  0  0  0  0  0
   20.6094  -20.3841  -14.1481 C   0  0  0  0  0  0  0  0  0  0  0  0
   20.5551  -21.6035  -14.3016 O   0  0  0  0  0  0  0  0  0  0  0  0
   19.4344  -19.7669  -13.6716 O   0  0  0  0  0  0  0  0  0  0  0  0
  2  4  1  0
  2  1  1  6
  2  3  1  0
  4  5  2  0
  6  7  1  0
  6  4  1  0
  7 12  1  0
  7  8  1  1
  9  8  1  0
 10  9  1  0
 11 10  2  0
 12 13  2  0
 12 20  1  0
 14 10  1  0
 16 15  1  0
 17 16  2  0
 18 16  1  0
 19 18  1  6
 19 21  1  0
 20 19  1  0
 21 22  2  0
 21 23  1  0
M  END
$$$$
