AEN.pdb
     RDKit          3D

 23 22  0  0  1  0  0  0  0  0999 V2000
   39.8552   -8.9991  -15.1048 C   0  0  0  0  0  0  0  0  0  0  0  0
   38.4972   -9.1375  -14.4675 C   0  0  2  0  0  0  0  0  0  0  0  0
   38.4007  -10.3846  -13.7503 N   0  0  0  0  0  0  0  0  0  0  0  0
   37.4420   -9.0110  -15.5031 C   0  0  0  0  0  0  0  0  0  0  0  0
   37.2759   -7.9304  -16.1239 O   0  0  0  0  0  0  0  0  0  0  0  0
   36.5870  -10.0918  -15.8311 N   0  0  0  0  0  0  0  0  0  0  0  0
   35.5220   -9.9073  -16.7596 C   0  0  1  0  0  0  0  0  0  0  0  0
   35.1440  -11.2264  -17.3616 C   0  0  0  0  0  0  0  0  0  0  0  0
   34.0365  -11.1286  -18.3693 C   0  0  0  0  0  0  0  0  0  0  0  0
   33.8208  -12.4579  -18.9842 C   0  0  0  0  0  0  0  0  0  0  0  0
   32.8866  -12.6440  -19.7970 O   0  0  0  0  0  0  0  0  0  0  0  0
   34.3161   -9.2899  -16.1424 C   0  0  0  0  0  0  0  0  0  0  0  0
   34.2759   -9.2560  -14.8865 O   0  0  0  0  0  0  0  0  0  0  0  0
   34.6531  -13.5163  -18.6670 O   0  0  0  0  0  0  0  0  0  0  0  0
   31.6480   -5.0749  -15.7155 N   0  0  0  0  0  0  0  0  0  0  0  0
   33.0771   -5.3133  -15.5704 C   0  0  0  0  0  0  0  0  0  0  0  0
   33.7884   -4.4165  -15.0817 O   0  0  0  0  0  0  0  0  0  0  0  0
   33.6503   -6.5945  -15.9983 C   0  0  0  0  0  0  0  0  0  0  0  0
   32.5816   -7.5298  -16.4831 C   0  0  2  0  0  0  0  0  0  0  0  0
   33.2598   -8.7629  -16.9172 N   0  0  0  0  0  0  0  0  0  0  0  0
   31.7049   -7.0173  -17.5106 C   0  0  0  0  0  0  0  0  0  0  0  0
   31.9685   -6.9651  -18.7111 O   0  0  0  0  0  0  0  0  0  0  0  0
   30.4365   -6.5302  -17.1334 O   0  0  0  0  0  0  0  0  0  0  0  0
  2  4  1  0
  2  1  1  6
  2  3  1  0
  4  5  2  0
  6  7  1  0
  6  4  1  0
  7 12  1  0
  7  8  1  1
  9  8  1  0
 10  9  1  0
 11 10  2  0
 12 13  2  0
 12 20  1  0
 14 10  1  0
 16 15  1  0
 17 16  2  0
 18 16  1  0
 19 18  1  6
 19 21  1  0
 20 19  1  0
 21 22  2  0
 21 23  1  0
M  END
$$$$
