AEN.pdb
     RDKit          3D

 23 22  0  0  1  0  0  0  0  0999 V2000
   21.7763  -13.0578  -17.9102 C   0  0  0  0  0  0  0  0  0  0  0  0
   20.3001  -13.0294  -17.6113 C   0  0  2  0  0  0  0  0  0  0  0  0
   19.5604  -13.6930  -18.6560 N   0  0  0  0  0  0  0  0  0  0  0  0
   19.8537  -11.6270  -17.4216 C   0  0  0  0  0  0  0  0  0  0  0  0
   19.8785  -10.8091  -18.3762 O   0  0  0  0  0  0  0  0  0  0  0  0
   19.3863  -11.1570  -16.1697 N   0  0  0  0  0  0  0  0  0  0  0  0
   18.8683   -9.8351  -16.0479 C   0  0  1  0  0  0  0  0  0  0  0  0
   17.6040   -9.8613  -15.2441 C   0  0  0  0  0  0  0  0  0  0  0  0
   16.4291  -10.4153  -15.9952 C   0  0  0  0  0  0  0  0  0  0  0  0
   15.2352  -10.3843  -15.1205 C   0  0  0  0  0  0  0  0  0  0  0  0
   15.2122  -11.0248  -14.0446 O   0  0  0  0  0  0  0  0  0  0  0  0
   19.8300   -8.8926  -15.4131 C   0  0  0  0  0  0  0  0  0  0  0  0
   20.5207   -9.3409  -14.4634 O   0  0  0  0  0  0  0  0  0  0  0  0
   14.1245   -9.6435  -15.4825 O   0  0  0  0  0  0  0  0  0  0  0  0
   22.7635   -4.8333  -14.2865 N   0  0  0  0  0  0  0  0  0  0  0  0
   22.3302   -4.7016  -15.6705 C   0  0  0  0  0  0  0  0  0  0  0  0
   22.7767   -3.7608  -16.3520 O   0  0  0  0  0  0  0  0  0  0  0  0
   21.3835   -5.6708  -16.2341 C   0  0  0  0  0  0  0  0  0  0  0  0
   20.9716   -6.6842  -15.2068 C   0  0  2  0  0  0  0  0  0  0  0  0
   19.9712   -7.5559  -15.8458 N   0  0  0  0  0  0  0  0  0  0  0  0
   20.4905   -6.1580  -13.9503 C   0  0  0  0  0  0  0  0  0  0  0  0
   19.3380   -5.7908  -13.7262 O   0  0  0  0  0  0  0  0  0  0  0  0
   21.3964   -6.0451  -12.8755 O   0  0  0  0  0  0  0  0  0  0  0  0
  2  4  1  0
  2  1  1  6
  2  3  1  0
  4  5  2  0
  6  7  1  0
  6  4  1  0
  7 12  1  0
  7  8  1  1
  9  8  1  0
 10  9  1  0
 11 10  2  0
 12 13  2  0
 12 20  1  0
 14 10  1  0
 16 15  1  0
 17 16  2  0
 18 16  1  0
 19 18  1  6
 19 21  1  0
 20 19  1  0
 21 22  2  0
 21 23  1  0
M  END
$$$$
