AEN.pdb
     RDKit          3D

 23 22  0  0  1  0  0  0  0  0999 V2000
   18.9945  -11.0089  -15.3012 C   0  0  0  0  0  0  0  0  0  0  0  0
   17.7723  -10.6112  -14.5154 C   0  0  2  0  0  0  0  0  0  0  0  0
   16.6157  -10.5555  -15.3743 N   0  0  0  0  0  0  0  0  0  0  0  0
   18.0159   -9.3179  -13.8297 C   0  0  0  0  0  0  0  0  0  0  0  0
   18.9656   -9.1900  -13.0158 O   0  0  0  0  0  0  0  0  0  0  0  0
   17.1964   -8.1860  -14.0618 N   0  0  0  0  0  0  0  0  0  0  0  0
   17.4161   -6.9805  -13.3345 C   0  0  1  0  0  0  0  0  0  0  0  0
   17.2432   -5.8035  -14.2457 C   0  0  0  0  0  0  0  0  0  0  0  0
   18.3788   -5.6212  -15.2094 C   0  0  0  0  0  0  0  0  0  0  0  0
   18.1445   -4.3983  -16.0101 C   0  0  0  0  0  0  0  0  0  0  0  0
   18.2688   -4.4146  -17.2561 O   0  0  0  0  0  0  0  0  0  0  0  0
   16.5021   -6.8327  -12.1688 C   0  0  0  0  0  0  0  0  0  0  0  0
   15.6466   -7.7382  -12.0002 O   0  0  0  0  0  0  0  0  0  0  0  0
   17.7833   -3.2165  -15.3887 O   0  0  0  0  0  0  0  0  0  0  0  0
   14.5322   -5.7524   -7.6250 N   0  0  0  0  0  0  0  0  0  0  0  0
   15.4518   -6.8376   -7.9365 C   0  0  0  0  0  0  0  0  0  0  0  0
   15.6666   -7.7083   -7.0736 O   0  0  0  0  0  0  0  0  0  0  0  0
   16.1041   -6.8869   -9.2500 C   0  0  0  0  0  0  0  0  0  0  0  0
   15.7254   -5.6999  -10.0865 C   0  0  2  0  0  0  0  0  0  0  0  0
   16.5800   -5.7338  -11.2854 N   0  0  0  0  0  0  0  0  0  0  0  0
   15.7836   -4.4140   -9.4305 C   0  0  0  0  0  0  0  0  0  0  0  0
   16.8143   -3.8168   -9.1236 O   0  0  0  0  0  0  0  0  0  0  0  0
   14.5732   -3.7685   -9.1036 O   0  0  0  0  0  0  0  0  0  0  0  0
  2  4  1  0
  2  1  1  6
  2  3  1  0
  4  5  2  0
  6  7  1  0
  6  4  1  0
  7 12  1  0
  7  8  1  6
  9  8  1  0
 10  9  1  0
 11 10  2  0
 12 13  2  0
 12 20  1  0
 14 10  1  0
 16 15  1  0
 17 16  2  0
 18 16  1  0
 19 18  1  1
 19 21  1  0
 20 19  1  0
 21 22  2  0
 21 23  1  0
M  END
$$$$
