LKW.pdb
     RDKit          3D

 32 33  0  0  1  0  0  0  0  0999 V2000
    7.8393  -11.7549   19.7528 C   0  0  0  0  0  0  0  0  0  0  0  0
    8.0713  -13.2010   19.3626 C   0  0  1  0  0  0  0  0  0  0  0  0
    9.5250  -13.3765   18.9176 C   0  0  0  0  0  0  0  0  0  0  0  0
    7.8802  -14.1119   20.5351 C   0  0  0  0  0  0  0  0  0  0  0  0
    8.1360  -15.5504   20.1727 C   0  0  2  0  0  0  0  0  0  0  0  0
    6.9301  -16.0247   19.4607 N   0  0  0  0  0  0  0  0  0  0  0  0
    8.2674  -16.3828   21.4154 C   0  0  0  0  0  0  0  0  0  0  0  0
    7.2914  -16.5756   22.1865 O   0  0  0  0  0  0  0  0  0  0  0  0
    9.5024  -16.9760   21.7503 N   0  0  0  0  0  0  0  0  0  0  0  0
    9.4988  -17.9683   22.8934 C   0  0  1  0  0  0  0  0  0  0  0  0
   10.5247  -18.9836   22.5790 C   0  0  0  0  0  0  0  0  0  0  0  0
   10.8505  -20.1294   23.4057 C   0  0  0  0  0  0  0  0  0  0  0  0
   11.8955  -21.0904   23.0085 C   0  0  0  0  0  0  0  0  0  0  0  0
   11.9709  -22.2079   24.0879 C   0  0  0  0  0  0  0  0  0  0  0  0
   12.8806  -23.2111   23.5809 N   0  0  0  0  0  0  0  0  0  0  0  0
    9.9537  -17.0859   24.0092 C   0  0  0  0  0  0  0  0  0  0  0  0
   10.7870  -16.2042   23.7894 O   0  0  0  0  0  0  0  0  0  0  0  0
    9.4813  -17.1876   25.3615 N   0  0  0  0  0  0  0  0  0  0  0  0
   10.0586  -16.4190   26.4509 C   0  0  1  0  0  0  0  0  0  0  0  0
    9.0538  -15.9245   27.4058 C   0  0  0  0  0  0  0  0  0  0  0  0
    7.8737  -15.2563   26.8152 C   0  0  0  0  0  0  0  0  0  0  0  0
    6.7713  -15.9536   26.2923 C   0  0  0  0  0  0  0  0  0  0  0  0
    5.9113  -15.0753   25.8099 N   0  0  0  0  0  0  0  0  0  0  0  0
    6.3830  -13.8353   25.9856 C   0  0  0  0  0  0  0  0  0  0  0  0
    5.8697  -12.5751   25.6753 C   0  0  0  0  0  0  0  0  0  0  0  0
    6.6069  -11.4693   26.0100 C   0  0  0  0  0  0  0  0  0  0  0  0
    7.8404  -11.5688   26.6440 C   0  0  0  0  0  0  0  0  0  0  0  0
    8.3365  -12.8022   26.9433 C   0  0  0  0  0  0  0  0  0  0  0  0
    7.6043  -13.9285   26.6109 C   0  0  0  0  0  0  0  0  0  0  0  0
   11.2337  -17.1230   26.9763 C   0  0  0  0  0  0  0  0  0  0  0  0
   12.2094  -16.5396   27.7745 O   0  0  0  0  0  0  0  0  0  0  0  0
   11.4132  -18.3443   26.7042 O   0  0  0  0  0  0  0  0  0  0  0  0
  2  3  1  1
  2  1  1  0
  4  2  1  0
  5  6  1  6
  5  4  1  0
  7  5  1  0
  8  7  2  0
  9  7  1  0
 10 16  1  0
 10  9  1  0
 10 11  1  6
 12 11  1  0
 13 14  1  0
 13 12  1  0
 15 14  1  0
 16 18  1  0
 17 16  2  0
 18 19  1  0
 19 20  1  1
 20 21  1  0
 21 29  1  0
 21 22  2  0
 22 23  1  0
 24 25  2  0
 24 23  1  0
 26 25  1  0
 27 26  2  0
 28 27  1  0
 28 29  2  0
 29 24  1  0
 30 31  1  0
 30 19  1  0
 32 30  2  0
M  END
$$$$
