LKW.pdb
     RDKit          3D

 32 33  0  0  1  0  0  0  0  0999 V2000
    7.2566  -11.8203   19.9645 C   0  0  0  0  0  0  0  0  0  0  0  0
    7.8110  -13.1709   19.5571 C   0  0  1  0  0  0  0  0  0  0  0  0
    9.2676  -13.0065   19.1175 C   0  0  0  0  0  0  0  0  0  0  0  0
    7.8287  -14.1172   20.7169 C   0  0  0  0  0  0  0  0  0  0  0  0
    8.4121  -15.4526   20.3397 C   0  0  2  0  0  0  0  0  0  0  0  0
    7.3997  -16.1317   19.5030 N   0  0  0  0  0  0  0  0  0  0  0  0
    8.6071  -16.2982   21.5650 C   0  0  0  0  0  0  0  0  0  0  0  0
    7.6344  -16.6669   22.2737 O   0  0  0  0  0  0  0  0  0  0  0  0
    9.9006  -16.7046   21.9537 N   0  0  0  0  0  0  0  0  0  0  0  0
    9.9917  -17.7518   23.0430 C   0  0  1  0  0  0  0  0  0  0  0  0
   11.1850  -18.5709   22.7474 C   0  0  0  0  0  0  0  0  0  0  0  0
   11.6326  -19.7103   23.5243 C   0  0  0  0  0  0  0  0  0  0  0  0
   12.8129  -20.4973   23.1231 C   0  0  0  0  0  0  0  0  0  0  0  0
   13.0608  -21.5937   24.1982 C   0  0  0  0  0  0  0  0  0  0  0  0
   12.2496  -22.7306   23.8233 N   0  0  0  0  0  0  0  0  0  0  0  0
   10.2325  -16.8769   24.2293 C   0  0  0  0  0  0  0  0  0  0  0  0
   10.8917  -15.8430   24.1017 O   0  0  0  0  0  0  0  0  0  0  0  0
    9.7402  -17.1551   25.5494 N   0  0  0  0  0  0  0  0  0  0  0  0
   10.1745  -16.4099   26.7185 C   0  0  1  0  0  0  0  0  0  0  0  0
    9.0630  -16.0167   27.5995 C   0  0  0  0  0  0  0  0  0  0  0  0
    7.9593  -15.2720   26.9553 C   0  0  0  0  0  0  0  0  0  0  0  0
    6.8809  -15.8964   26.3055 C   0  0  0  0  0  0  0  0  0  0  0  0
    6.0941  -14.9603   25.8071 N   0  0  0  0  0  0  0  0  0  0  0  0
    6.5914  -13.7509   26.0920 C   0  0  0  0  0  0  0  0  0  0  0  0
    6.1486  -12.4567   25.8150 C   0  0  0  0  0  0  0  0  0  0  0  0
    6.8927  -11.4003   26.2717 C   0  0  0  0  0  0  0  0  0  0  0  0
    8.0654  -11.5820   26.9964 C   0  0  0  0  0  0  0  0  0  0  0  0
    8.4928  -12.8483   27.2627 C   0  0  0  0  0  0  0  0  0  0  0  0
    7.7529  -13.9255   26.8074 C   0  0  0  0  0  0  0  0  0  0  0  0
   11.3379  -17.0741   27.3168 C   0  0  0  0  0  0  0  0  0  0  0  0
   12.2630  -16.4488   28.1431 O   0  0  0  0  0  0  0  0  0  0  0  0
   11.5549  -18.2979   27.0867 O   0  0  0  0  0  0  0  0  0  0  0  0
  2  3  1  1
  2  1  1  0
  4  2  1  0
  5  6  1  6
  5  4  1  0
  7  5  1  0
  8  7  2  0
  9  7  1  0
 10 16  1  0
 10  9  1  0
 10 11  1  6
 12 11  1  0
 13 14  1  0
 13 12  1  0
 15 14  1  0
 16 18  1  0
 17 16  2  0
 18 19  1  0
 19 20  1  1
 20 21  1  0
 21 29  1  0
 21 22  2  0
 22 23  1  0
 24 25  2  0
 24 23  1  0
 26 25  1  0
 27 26  2  0
 28 27  1  0
 28 29  2  0
 29 24  1  0
 30 31  1  0
 30 19  1  0
 32 30  2  0
M  END
$$$$
