LKW.pdb
     RDKit          3D

 32 33  0  0  1  0  0  0  0  0999 V2000
    9.0288  -13.1423   19.8179 C   0  0  0  0  0  0  0  0  0  0  0  0
    8.2945  -13.4619   21.1048 C   0  0  1  0  0  0  0  0  0  0  0  0
    7.6412  -12.1868   21.6429 C   0  0  0  0  0  0  0  0  0  0  0  0
    7.1803  -14.4317   20.8619 C   0  0  0  0  0  0  0  0  0  0  0  0
    7.6939  -15.7677   20.3959 C   0  0  2  0  0  0  0  0  0  0  0  0
    6.5150  -16.5348   19.9400 N   0  0  0  0  0  0  0  0  0  0  0  0
    8.2908  -16.5242   21.5474 C   0  0  0  0  0  0  0  0  0  0  0  0
    7.5788  -16.9645   22.4874 O   0  0  0  0  0  0  0  0  0  0  0  0
    9.6799  -16.7626   21.6018 N   0  0  0  0  0  0  0  0  0  0  0  0
   10.1685  -17.7303   22.6585 C   0  0  1  0  0  0  0  0  0  0  0  0
   11.4363  -18.3010   22.1594 C   0  0  0  0  0  0  0  0  0  0  0  0
   12.1944  -19.3529   22.8082 C   0  0  0  0  0  0  0  0  0  0  0  0
   11.9186  -20.7759   22.5392 C   0  0  0  0  0  0  0  0  0  0  0  0
   12.8787  -21.6355   23.4104 C   0  0  0  0  0  0  0  0  0  0  0  0
   12.0940  -22.7342   23.9283 N   0  0  0  0  0  0  0  0  0  0  0  0
   10.4230  -16.7832   23.7849 C   0  0  0  0  0  0  0  0  0  0  0  0
   11.1724  -15.8192   23.6146 O   0  0  0  0  0  0  0  0  0  0  0  0
    9.8444  -16.9120   25.0929 N   0  0  0  0  0  0  0  0  0  0  0  0
   10.3626  -16.2025   26.2500 C   0  0  1  0  0  0  0  0  0  0  0  0
    9.3186  -15.8423   27.2229 C   0  0  0  0  0  0  0  0  0  0  0  0
    8.0661  -15.2971   26.6557 C   0  0  0  0  0  0  0  0  0  0  0  0
    7.0238  -16.1028   26.1663 C   0  0  0  0  0  0  0  0  0  0  0  0
    6.0721  -15.3166   25.6975 N   0  0  0  0  0  0  0  0  0  0  0  0
    6.4262  -14.0351   25.8506 C   0  0  0  0  0  0  0  0  0  0  0  0
    5.7868  -12.8336   25.5419 C   0  0  0  0  0  0  0  0  0  0  0  0
    6.4219  -11.6584   25.8484 C   0  0  0  0  0  0  0  0  0  0  0  0
    7.6739  -11.6319   26.4526 C   0  0  0  0  0  0  0  0  0  0  0  0
    8.2934  -12.8086   26.7506 C   0  0  0  0  0  0  0  0  0  0  0  0
    7.6653  -14.0037   26.4463 C   0  0  0  0  0  0  0  0  0  0  0  0
   11.5684  -16.8803   26.7390 C   0  0  0  0  0  0  0  0  0  0  0  0
   12.0298  -18.1032   26.2687 O   0  0  0  0  0  0  0  0  0  0  0  0
   12.2625  -16.3535   27.6546 O   0  0  0  0  0  0  0  0  0  0  0  0
  2  3  1  6
  2  1  1  0
  4  2  1  0
  5  6  1  1
  5  4  1  0
  7  5  1  0
  8  7  2  0
  9  7  1  0
 10 16  1  0
 10  9  1  0
 10 11  1  6
 12 11  1  0
 13 14  1  0
 13 12  1  0
 15 14  1  0
 16 18  1  0
 17 16  2  0
 18 19  1  0
 19 20  1  1
 20 21  1  0
 21 29  1  0
 21 22  2  0
 22 23  1  0
 24 25  2  0
 24 23  1  0
 26 25  1  0
 27 26  2  0
 28 27  1  0
 28 29  2  0
 29 24  1  0
 30 31  1  0
 30 19  1  0
 32 30  2  0
M  END
$$$$
