LKW.pdb
     RDKit          3D

 32 33  0  0  1  0  0  0  0  0999 V2000
   10.2374  -21.5257   22.8706 C   0  0  0  0  0  0  0  0  0  0  0  0
    9.8761  -20.6382   21.6963 C   0  0  1  0  0  0  0  0  0  0  0  0
    9.5958  -21.5117   20.4712 C   0  0  0  0  0  0  0  0  0  0  0  0
    8.6149  -19.8777   21.9647 C   0  0  0  0  0  0  0  0  0  0  0  0
    8.2514  -18.9751   20.8162 C   0  0  2  0  0  0  0  0  0  0  0  0
    8.7998  -19.6060   19.5967 N   0  0  0  0  0  0  0  0  0  0  0  0
    8.9324  -17.6453   20.9661 C   0  0  0  0  0  0  0  0  0  0  0  0
   10.0582  -17.4189   20.4508 O   0  0  0  0  0  0  0  0  0  0  0  0
    8.3176  -16.6065   21.6957 N   0  0  0  0  0  0  0  0  0  0  0  0
    9.0405  -15.2771   21.7372 C   0  0  1  0  0  0  0  0  0  0  0  0
    8.0293  -14.2341   21.4690 C   0  0  0  0  0  0  0  0  0  0  0  0
    7.4207  -13.9690   20.1800 C   0  0  0  0  0  0  0  0  0  0  0  0
    8.2157  -13.9805   18.9386 C   0  0  0  0  0  0  0  0  0  0  0  0
    7.2708  -13.6530   17.7471 C   0  0  0  0  0  0  0  0  0  0  0  0
    7.8783  -12.5554   17.0279 N   0  0  0  0  0  0  0  0  0  0  0  0
    9.4594  -15.2501   23.1706 C   0  0  0  0  0  0  0  0  0  0  0  0
   10.0714  -14.2741   23.6096 O   0  0  0  0  0  0  0  0  0  0  0  0
    9.1966  -16.3064   24.1073 N   0  0  0  0  0  0  0  0  0  0  0  0
    9.8013  -16.3485   25.4277 C   0  0  1  0  0  0  0  0  0  0  0  0
    8.8160  -16.2679   26.5179 C   0  0  0  0  0  0  0  0  0  0  0  0
    7.7050  -15.3123   26.3166 C   0  0  0  0  0  0  0  0  0  0  0  0
    6.4167  -15.6990   25.9094 C   0  0  0  0  0  0  0  0  0  0  0  0
    5.6739  -14.6143   25.7858 N   0  0  0  0  0  0  0  0  0  0  0  0
    6.3989  -13.5312   26.0897 C   0  0  0  0  0  0  0  0  0  0  0  0
    6.0938  -12.1700   26.1319 C   0  0  0  0  0  0  0  0  0  0  0  0
    7.0764  -11.2921   26.5092 C   0  0  0  0  0  0  0  0  0  0  0  0
    8.3561  -11.7176   26.8475 C   0  0  0  0  0  0  0  0  0  0  0  0
    8.6478  -13.0480   26.8033 C   0  0  0  0  0  0  0  0  0  0  0  0
    7.6666  -13.9469   26.4233 C   0  0  0  0  0  0  0  0  0  0  0  0
   10.8049  -17.4177   25.4715 C   0  0  0  0  0  0  0  0  0  0  0  0
   11.1000  -18.2647   24.4109 O   0  0  0  0  0  0  0  0  0  0  0  0
   11.4664  -17.6210   26.5293 O   0  0  0  0  0  0  0  0  0  0  0  0
  2  3  1  6
  2  1  1  0
  4  2  1  0
  5  6  1  6
  5  4  1  0
  7  5  1  0
  8  7  2  0
  9  7  1  0
 10 16  1  0
 10  9  1  0
 10 11  1  1
 12 11  1  0
 13 14  1  0
 13 12  1  0
 15 14  1  0
 16 18  1  0
 17 16  2  0
 18 19  1  0
 19 20  1  1
 20 21  1  0
 21 29  1  0
 21 22  2  0
 22 23  1  0
 24 25  2  0
 24 23  1  0
 26 25  1  0
 27 26  2  0
 28 27  1  0
 28 29  2  0
 29 24  1  0
 30 31  1  0
 30 19  1  0
 32 30  2  0
M  END
$$$$
