LKW.pdb
     RDKit          3D

 32 33  0  0  1  0  0  0  0  0999 V2000
    7.1536  -11.8024   19.9187 C   0  0  0  0  0  0  0  0  0  0  0  0
    7.8775  -13.0921   19.5875 C   0  0  1  0  0  0  0  0  0  0  0  0
    9.3648  -12.7970   19.3803 C   0  0  0  0  0  0  0  0  0  0  0  0
    7.7983  -14.0612   20.7258 C   0  0  0  0  0  0  0  0  0  0  0  0
    8.6065  -15.3029   20.4599 C   0  0  2  0  0  0  0  0  0  0  0  0
    7.9136  -16.0304   19.3751 N   0  0  0  0  0  0  0  0  0  0  0  0
    8.5943  -16.1977   21.6655 C   0  0  0  0  0  0  0  0  0  0  0  0
    7.5673  -16.3254   22.3820 O   0  0  0  0  0  0  0  0  0  0  0  0
    9.7473  -16.9257   22.0262 N   0  0  0  0  0  0  0  0  0  0  0  0
    9.5970  -17.9405   23.1394 C   0  0  1  0  0  0  0  0  0  0  0  0
   10.4892  -19.0705   22.8085 C   0  0  0  0  0  0  0  0  0  0  0  0
   10.6343  -20.2810   23.5933 C   0  0  0  0  0  0  0  0  0  0  0  0
   11.7967  -20.4892   24.4758 C   0  0  0  0  0  0  0  0  0  0  0  0
   11.8096  -21.9774   24.9282 C   0  0  0  0  0  0  0  0  0  0  0  0
   10.7432  -22.1249   25.8937 N   0  0  0  0  0  0  0  0  0  0  0  0
   10.1428  -17.1553   24.2866 C   0  0  0  0  0  0  0  0  0  0  0  0
   11.1240  -16.4284   24.1172 O   0  0  0  0  0  0  0  0  0  0  0  0
    9.5962  -17.1818   25.6143 N   0  0  0  0  0  0  0  0  0  0  0  0
   10.3183  -16.6715   26.7671 C   0  0  1  0  0  0  0  0  0  0  0  0
    9.5573  -15.6680   27.5286 C   0  0  0  0  0  0  0  0  0  0  0  0
    8.3305  -15.1569   26.8794 C   0  0  0  0  0  0  0  0  0  0  0  0
    7.3085  -15.9900   26.3929 C   0  0  0  0  0  0  0  0  0  0  0  0
    6.3785  -15.2324   25.8409 N   0  0  0  0  0  0  0  0  0  0  0  0
    6.7277  -13.9439   25.9362 C   0  0  0  0  0  0  0  0  0  0  0  0
    6.1034  -12.7624   25.5337 C   0  0  0  0  0  0  0  0  0  0  0  0
    6.7268  -11.5712   25.8000 C   0  0  0  0  0  0  0  0  0  0  0  0
    7.9523  -11.5094   26.4539 C   0  0  0  0  0  0  0  0  0  0  0  0
    8.5570  -12.6668   26.8434 C   0  0  0  0  0  0  0  0  0  0  0  0
    7.9407  -13.8778   26.5809 C   0  0  0  0  0  0  0  0  0  0  0  0
   10.9248  -17.7899   27.4979 C   0  0  0  0  0  0  0  0  0  0  0  0
   11.8726  -17.6517   28.5039 O   0  0  0  0  0  0  0  0  0  0  0  0
   10.5950  -18.9785   27.2218 O   0  0  0  0  0  0  0  0  0  0  0  0
  2  3  1  1
  2  1  1  0
  4  2  1  0
  5  6  1  6
  5  4  1  0
  7  5  1  0
  8  7  2  0
  9  7  1  0
 10 16  1  0
 10  9  1  0
 10 11  1  6
 12 11  1  0
 13 14  1  0
 13 12  1  0
 15 14  1  0
 16 18  1  0
 17 16  2  0
 18 19  1  0
 19 20  1  1
 20 21  1  0
 21 29  1  0
 21 22  2  0
 22 23  1  0
 24 25  2  0
 24 23  1  0
 26 25  1  0
 27 26  2  0
 28 27  1  0
 28 29  2  0
 29 24  1  0
 30 31  1  0
 30 19  1  0
 32 30  2  0
M  END
$$$$
