LKW.pdb
     RDKit          3D

 32 33  0  0  1  0  0  0  0  0999 V2000
    8.5801  -23.4836   23.3114 C   0  0  0  0  0  0  0  0  0  0  0  0
    7.7936  -22.5408   22.4227 C   0  0  1  0  0  0  0  0  0  0  0  0
    6.3206  -22.5677   22.8374 C   0  0  0  0  0  0  0  0  0  0  0  0
    8.2518  -21.1267   22.5998 C   0  0  0  0  0  0  0  0  0  0  0  0
    7.4965  -20.1786   21.7073 C   0  0  2  0  0  0  0  0  0  0  0  0
    7.4647  -20.8001   20.3661 N   0  0  0  0  0  0  0  0  0  0  0  0
    8.2458  -18.8844   21.5733 C   0  0  0  0  0  0  0  0  0  0  0  0
    9.4405  -18.8517   21.1785 O   0  0  0  0  0  0  0  0  0  0  0  0
    7.6196  -17.6607   21.8893 N   0  0  0  0  0  0  0  0  0  0  0  0
    8.4514  -16.4053   21.7358 C   0  0  1  0  0  0  0  0  0  0  0  0
    7.5292  -15.3333   21.3086 C   0  0  0  0  0  0  0  0  0  0  0  0
    7.9306  -14.0329   20.8082 C   0  0  0  0  0  0  0  0  0  0  0  0
    8.0584  -13.7724   19.3629 C   0  0  0  0  0  0  0  0  0  0  0  0
    8.5156  -12.2984   19.1681 C   0  0  0  0  0  0  0  0  0  0  0  0
    8.5538  -12.0629   17.7419 N   0  0  0  0  0  0  0  0  0  0  0  0
    8.8806  -16.1995   23.1515 C   0  0  0  0  0  0  0  0  0  0  0  0
    8.0691  -16.3620   24.0653 O   0  0  0  0  0  0  0  0  0  0  0  0
   10.2073  -15.8146   23.5439 N   0  0  0  0  0  0  0  0  0  0  0  0
   10.5945  -15.6515   24.9347 C   0  0  1  0  0  0  0  0  0  0  0  0
   10.0225  -14.4467   25.5568 C   0  0  0  0  0  0  0  0  0  0  0  0
    8.5740  -14.4964   25.8518 C   0  0  0  0  0  0  0  0  0  0  0  0
    7.8121  -15.6757   25.7892 C   0  0  0  0  0  0  0  0  0  0  0  0
    6.5564  -15.3779   26.0688 N   0  0  0  0  0  0  0  0  0  0  0  0
    6.4452  -14.0669   26.3141 C   0  0  0  0  0  0  0  0  0  0  0  0
    5.3627  -13.2585   26.6641 C   0  0  0  0  0  0  0  0  0  0  0  0
    5.5854  -11.9218   26.8687 C   0  0  0  0  0  0  0  0  0  0  0  0
    6.8485  -11.3554   26.7380 C   0  0  0  0  0  0  0  0  0  0  0  0
    7.9011  -12.1500   26.3950 C   0  0  0  0  0  0  0  0  0  0  0  0
    7.6921  -13.5018   26.1841 C   0  0  0  0  0  0  0  0  0  0  0  0
   10.4526  -16.9330   25.6348 C   0  0  0  0  0  0  0  0  0  0  0  0
   10.7544  -17.1356   26.9754 O   0  0  0  0  0  0  0  0  0  0  0  0
   10.0353  -17.9508   25.0121 O   0  0  0  0  0  0  0  0  0  0  0  0
  2  3  1  1
  2  1  1  0
  4  2  1  0
  5  6  1  6
  5  4  1  0
  7  5  1  0
  8  7  2  0
  9  7  1  0
 10 16  1  0
 10  9  1  0
 10 11  1  1
 12 11  1  0
 13 14  1  0
 13 12  1  0
 15 14  1  0
 16 18  1  0
 17 16  2  0
 18 19  1  0
 19 20  1  1
 20 21  1  0
 21 29  1  0
 21 22  2  0
 22 23  1  0
 24 25  2  0
 24 23  1  0
 26 25  1  0
 27 26  2  0
 28 27  1  0
 28 29  2  0
 29 24  1  0
 30 31  1  0
 30 19  1  0
 32 30  2  0
M  END
$$$$
