LKW.pdb
     RDKit          3D

 32 33  0  0  1  0  0  0  0  0999 V2000
    8.0740  -12.7497   20.7040 C   0  0  0  0  0  0  0  0  0  0  0  0
    6.9507  -13.6966   20.3316 C   0  0  1  0  0  0  0  0  0  0  0  0
    6.6011  -13.5081   18.8536 C   0  0  0  0  0  0  0  0  0  0  0  0
    7.3779  -15.1235   20.4814 C   0  0  0  0  0  0  0  0  0  0  0  0
    7.5039  -15.5203   21.9279 C   0  0  2  0  0  0  0  0  0  0  0  0
    7.7220  -14.2711   22.6883 N   0  0  0  0  0  0  0  0  0  0  0  0
    8.7231  -16.3736   22.1273 C   0  0  0  0  0  0  0  0  0  0  0  0
    8.8446  -17.4924   21.5635 O   0  0  0  0  0  0  0  0  0  0  0  0
    9.7733  -15.9349   22.9603 N   0  0  0  0  0  0  0  0  0  0  0  0
   10.9364  -16.8841   23.1546 C   0  0  1  0  0  0  0  0  0  0  0  0
   12.0896  -16.2955   22.4433 C   0  0  0  0  0  0  0  0  0  0  0  0
   13.4003  -16.9038   22.3249 C   0  0  0  0  0  0  0  0  0  0  0  0
   13.5657  -18.2795   21.8215 C   0  0  0  0  0  0  0  0  0  0  0  0
   15.0761  -18.6465   21.8823 C   0  0  0  0  0  0  0  0  0  0  0  0
   15.6712  -18.1499   20.6615 N   0  0  0  0  0  0  0  0  0  0  0  0
   11.1181  -16.7781   24.6333 C   0  0  0  0  0  0  0  0  0  0  0  0
   12.2474  -16.8751   25.1182 O   0  0  0  0  0  0  0  0  0  0  0  0
   10.0454  -16.5655   25.5642 N   0  0  0  0  0  0  0  0  0  0  0  0
   10.2397  -16.6081   27.0034 C   0  0  1  0  0  0  0  0  0  0  0  0
    9.2609  -15.7955   27.7434 C   0  0  0  0  0  0  0  0  0  0  0  0
    8.1826  -15.1862   26.9348 C   0  0  0  0  0  0  0  0  0  0  0  0
    7.1412  -15.9273   26.3506 C   0  0  0  0  0  0  0  0  0  0  0  0
    6.3710  -15.1001   25.6678 N   0  0  0  0  0  0  0  0  0  0  0  0
    6.8443  -13.8523   25.7687 C   0  0  0  0  0  0  0  0  0  0  0  0
    6.4043  -12.6297   25.2596 C   0  0  0  0  0  0  0  0  0  0  0  0
    7.1173  -11.5001   25.5663 C   0  0  0  0  0  0  0  0  0  0  0  0
    8.2561  -11.5398   26.3632 C   0  0  0  0  0  0  0  0  0  0  0  0
    8.6810  -12.7370   26.8564 C   0  0  0  0  0  0  0  0  0  0  0  0
    7.9722  -13.8867   26.5547 C   0  0  0  0  0  0  0  0  0  0  0  0
   10.4563  -17.9963   27.4261 C   0  0  0  0  0  0  0  0  0  0  0  0
   10.9263  -18.3741   28.6774 O   0  0  0  0  0  0  0  0  0  0  0  0
   10.2168  -18.9455   26.6265 O   0  0  0  0  0  0  0  0  0  0  0  0
  2  3  1  6
  2  1  1  0
  4  2  1  0
  5  6  1  1
  5  4  1  0
  7  5  1  0
  8  7  2  0
  9  7  1  0
 10 16  1  0
 10  9  1  0
 10 11  1  6
 12 11  1  0
 13 14  1  0
 13 12  1  0
 15 14  1  0
 16 18  1  0
 17 16  2  0
 18 19  1  0
 19 20  1  1
 20 21  1  0
 21 29  1  0
 21 22  2  0
 22 23  1  0
 24 25  2  0
 24 23  1  0
 26 25  1  0
 27 26  2  0
 28 27  1  0
 28 29  2  0
 29 24  1  0
 30 31  1  0
 30 19  1  0
 32 30  2  0
M  END
$$$$
