LKW.pdb
     RDKit          3D

 32 33  0  0  1  0  0  0  0  0999 V2000
    7.5407  -11.8242   19.1853 C   0  0  0  0  0  0  0  0  0  0  0  0
    8.2837  -13.0651   18.7321 C   0  0  1  0  0  0  0  0  0  0  0  0
    9.7885  -12.7869   18.7499 C   0  0  0  0  0  0  0  0  0  0  0  0
    8.0579  -14.2031   19.6782 C   0  0  0  0  0  0  0  0  0  0  0  0
    8.8156  -15.4351   19.2615 C   0  0  2  0  0  0  0  0  0  0  0  0
    8.0027  -16.0948   18.2175 N   0  0  0  0  0  0  0  0  0  0  0  0
    8.9163  -16.3957   20.4111 C   0  0  0  0  0  0  0  0  0  0  0  0
    7.9210  -17.0561   20.8080 O   0  0  0  0  0  0  0  0  0  0  0  0
   10.1440  -16.5830   21.0798 N   0  0  0  0  0  0  0  0  0  0  0  0
   10.2118  -17.7130   22.0848 C   0  0  1  0  0  0  0  0  0  0  0  0
   11.3031  -18.6072   21.6468 C   0  0  0  0  0  0  0  0  0  0  0  0
   11.4482  -19.1620   20.3152 C   0  0  0  0  0  0  0  0  0  0  0  0
   12.5983  -20.0128   19.9590 C   0  0  0  0  0  0  0  0  0  0  0  0
   12.4724  -20.4061   18.4593 C   0  0  0  0  0  0  0  0  0  0  0  0
   13.6146  -21.2386   18.1534 N   0  0  0  0  0  0  0  0  0  0  0  0
   10.6099  -16.9538   23.3077 C   0  0  0  0  0  0  0  0  0  0  0  0
   11.6179  -16.2442   23.2847 O   0  0  0  0  0  0  0  0  0  0  0  0
    9.8871  -16.9870   24.5482 N   0  0  0  0  0  0  0  0  0  0  0  0
   10.4024  -16.3915   25.7691 C   0  0  1  0  0  0  0  0  0  0  0  0
    9.9122  -15.0226   25.9966 C   0  0  0  0  0  0  0  0  0  0  0  0
    8.4504  -14.8795   26.1714 C   0  0  0  0  0  0  0  0  0  0  0  0
    7.5564  -15.9629   26.1247 C   0  0  0  0  0  0  0  0  0  0  0  0
    6.3293  -15.4994   26.2769 N   0  0  0  0  0  0  0  0  0  0  0  0
    6.3618  -14.1695   26.4228 C   0  0  0  0  0  0  0  0  0  0  0  0
    5.3635  -13.2154   26.6252 C   0  0  0  0  0  0  0  0  0  0  0  0
    5.7327  -11.9021   26.7570 C   0  0  0  0  0  0  0  0  0  0  0  0
    7.0620  -11.4992   26.6951 C   0  0  0  0  0  0  0  0  0  0  0  0
    8.0319  -12.4357   26.4963 C   0  0  0  0  0  0  0  0  0  0  0  0
    7.6750  -13.7659   26.3603 C   0  0  0  0  0  0  0  0  0  0  0  0
   10.3008  -17.3606   26.8660 C   0  0  0  0  0  0  0  0  0  0  0  0
   10.8952  -17.2051   28.1117 O   0  0  0  0  0  0  0  0  0  0  0  0
    9.6410  -18.4272   26.7082 O   0  0  0  0  0  0  0  0  0  0  0  0
  2  3  1  1
  2  1  1  0
  4  2  1  0
  5  6  1  6
  5  4  1  0
  7  5  1  0
  8  7  2  0
  9  7  1  0
 10 16  1  0
 10  9  1  0
 10 11  1  6
 12 11  1  0
 13 14  1  0
 13 12  1  0
 15 14  1  0
 16 18  1  0
 17 16  2  0
 18 19  1  0
 19 20  1  1
 20 21  1  0
 21 29  1  0
 21 22  2  0
 22 23  1  0
 24 25  2  0
 24 23  1  0
 26 25  1  0
 27 26  2  0
 28 27  1  0
 28 29  2  0
 29 24  1  0
 30 31  1  0
 30 19  1  0
 32 30  2  0
M  END
$$$$
