LKW.pdb
     RDKit          3D

 32 33  0  0  1  0  0  0  0  0999 V2000
    7.1040  -12.3531   19.7439 C   0  0  0  0  0  0  0  0  0  0  0  0
    7.8462  -13.5994   19.3045 C   0  0  1  0  0  0  0  0  0  0  0  0
    9.2130  -13.2009   18.7429 C   0  0  0  0  0  0  0  0  0  0  0  0
    8.1192  -14.5013   20.4677 C   0  0  0  0  0  0  0  0  0  0  0  0
    8.8645  -15.7409   20.0509 C   0  0  2  0  0  0  0  0  0  0  0  0
    7.9974  -16.4466   19.0834 N   0  0  0  0  0  0  0  0  0  0  0  0
    9.0459  -16.6570   21.2267 C   0  0  0  0  0  0  0  0  0  0  0  0
    8.5008  -17.7906   21.2699 O   0  0  0  0  0  0  0  0  0  0  0  0
    9.8422  -16.2635   22.3223 N   0  0  0  0  0  0  0  0  0  0  0  0
   10.6446  -17.3469   23.0108 C   0  0  1  0  0  0  0  0  0  0  0  0
   11.7963  -17.6452   22.1351 C   0  0  0  0  0  0  0  0  0  0  0  0
   12.8428  -18.6057   22.4254 C   0  0  0  0  0  0  0  0  0  0  0  0
   13.3934  -19.4821   21.3756 C   0  0  0  0  0  0  0  0  0  0  0  0
   14.4745  -20.3981   22.0175 C   0  0  0  0  0  0  0  0  0  0  0  0
   14.8836  -21.3340   20.9939 N   0  0  0  0  0  0  0  0  0  0  0  0
   11.0870  -16.6104   24.2325 C   0  0  0  0  0  0  0  0  0  0  0  0
   12.2802  -16.6029   24.5423 O   0  0  0  0  0  0  0  0  0  0  0  0
   10.2024  -15.8870   25.1024 N   0  0  0  0  0  0  0  0  0  0  0  0
    9.9085  -16.3235   26.4566 C   0  0  1  0  0  0  0  0  0  0  0  0
    8.4991  -16.7010   26.6494 C   0  0  0  0  0  0  0  0  0  0  0  0
    7.5011  -15.6519   26.3477 C   0  0  0  0  0  0  0  0  0  0  0  0
    6.1643  -15.9292   26.0143 C   0  0  0  0  0  0  0  0  0  0  0  0
    5.5493  -14.7872   25.7671 N   0  0  0  0  0  0  0  0  0  0  0  0
    6.4046  -13.7692   25.9195 C   0  0  0  0  0  0  0  0  0  0  0  0
    6.2616  -12.3866   25.7945 C   0  0  0  0  0  0  0  0  0  0  0  0
    7.3511  -11.5926   26.0413 C   0  0  0  0  0  0  0  0  0  0  0  0
    8.5827  -12.1227   26.4091 C   0  0  0  0  0  0  0  0  0  0  0  0
    8.7160  -13.4737   26.5285 C   0  0  0  0  0  0  0  0  0  0  0  0
    7.6253  -14.2890   26.2817 C   0  0  0  0  0  0  0  0  0  0  0  0
   10.9486  -17.2555   26.9060 C   0  0  0  0  0  0  0  0  0  0  0  0
   11.5379  -18.2243   26.1038 O   0  0  0  0  0  0  0  0  0  0  0  0
   11.3631  -17.2127   28.0994 O   0  0  0  0  0  0  0  0  0  0  0  0
  2  3  1  1
  2  1  1  0
  4  2  1  0
  5  6  1  6
  5  4  1  0
  7  5  1  0
  8  7  2  0
  9  7  1  0
 10 16  1  0
 10  9  1  0
 10 11  1  6
 12 11  1  0
 13 14  1  0
 13 12  1  0
 15 14  1  0
 16 18  1  0
 17 16  2  0
 18 19  1  0
 19 20  1  6
 20 21  1  0
 21 29  1  0
 21 22  2  0
 22 23  1  0
 24 25  2  0
 24 23  1  0
 26 25  1  0
 27 26  2  0
 28 27  1  0
 28 29  2  0
 29 24  1  0
 30 31  1  0
 30 19  1  0
 32 30  2  0
M  END
$$$$
