LKW.pdb
     RDKit          3D

 32 33  0  0  1  0  0  0  0  0999 V2000
    7.5016  -11.8214   19.9130 C   0  0  0  0  0  0  0  0  0  0  0  0
    7.7652  -13.2549   19.4972 C   0  0  1  0  0  0  0  0  0  0  0  0
    9.0148  -13.3027   18.6149 C   0  0  0  0  0  0  0  0  0  0  0  0
    8.0603  -14.1145   20.6868 C   0  0  0  0  0  0  0  0  0  0  0  0
    8.3868  -15.5286   20.2872 C   0  0  2  0  0  0  0  0  0  0  0  0
    7.1615  -16.0853   19.6750 N   0  0  0  0  0  0  0  0  0  0  0  0
    8.6838  -16.3560   21.5043 C   0  0  0  0  0  0  0  0  0  0  0  0
    7.7710  -16.7320   22.2852 O   0  0  0  0  0  0  0  0  0  0  0  0
   10.0087  -16.7366   21.8032 N   0  0  0  0  0  0  0  0  0  0  0  0
   10.1934  -17.8043   22.8603 C   0  0  1  0  0  0  0  0  0  0  0  0
   11.4763  -18.4757   22.5677 C   0  0  0  0  0  0  0  0  0  0  0  0
   11.7071  -19.4026   21.4769 C   0  0  0  0  0  0  0  0  0  0  0  0
   13.0466  -19.9584   21.2121 C   0  0  0  0  0  0  0  0  0  0  0  0
   12.9359  -20.9656   20.0319 C   0  0  0  0  0  0  0  0  0  0  0  0
   14.2868  -21.3541   19.6924 N   0  0  0  0  0  0  0  0  0  0  0  0
   10.3107  -16.9497   24.0795 C   0  0  0  0  0  0  0  0  0  0  0  0
   10.9910  -15.9223   24.0418 O   0  0  0  0  0  0  0  0  0  0  0  0
    9.6725  -17.2409   25.3326 N   0  0  0  0  0  0  0  0  0  0  0  0
   10.0780  -16.6160   26.5800 C   0  0  1  0  0  0  0  0  0  0  0  0
    8.9404  -16.1678   27.3990 C   0  0  0  0  0  0  0  0  0  0  0  0
    7.8270  -15.5280   26.6649 C   0  0  0  0  0  0  0  0  0  0  0  0
    6.8072  -16.2512   26.0231 C   0  0  0  0  0  0  0  0  0  0  0  0
    5.9950  -15.3942   25.4319 N   0  0  0  0  0  0  0  0  0  0  0  0
    6.4201  -14.1437   25.6479 C   0  0  0  0  0  0  0  0  0  0  0  0
    5.9247  -12.8966   25.2642 C   0  0  0  0  0  0  0  0  0  0  0  0
    6.5970  -11.7738   25.6711 C   0  0  0  0  0  0  0  0  0  0  0  0
    7.7480  -11.8435   26.4480 C   0  0  0  0  0  0  0  0  0  0  0  0
    8.2271  -13.0643   26.8184 C   0  0  0  0  0  0  0  0  0  0  0  0
    7.5599  -14.2076   26.4146 C   0  0  0  0  0  0  0  0  0  0  0  0
   11.1197  -17.4291   27.2176 C   0  0  0  0  0  0  0  0  0  0  0  0
   11.8721  -17.0266   28.3136 O   0  0  0  0  0  0  0  0  0  0  0  0
   11.3876  -18.5796   26.7678 O   0  0  0  0  0  0  0  0  0  0  0  0
  2  3  1  6
  2  1  1  0
  4  2  1  0
  5  6  1  1
  5  4  1  0
  7  5  1  0
  8  7  2  0
  9  7  1  0
 10 16  1  0
 10  9  1  0
 10 11  1  6
 12 11  1  0
 13 14  1  0
 13 12  1  0
 15 14  1  0
 16 18  1  0
 17 16  2  0
 18 19  1  0
 19 20  1  1
 20 21  1  0
 21 29  1  0
 21 22  2  0
 22 23  1  0
 24 25  2  0
 24 23  1  0
 26 25  1  0
 27 26  2  0
 28 27  1  0
 28 29  2  0
 29 24  1  0
 30 31  1  0
 30 19  1  0
 32 30  2  0
M  END
$$$$
