LKW.pdb
     RDKit          3D

 32 33  0  0  1  0  0  0  0  0999 V2000
    8.2485  -20.9837   17.0215 C   0  0  0  0  0  0  0  0  0  0  0  0
    8.1212  -20.4998   18.4523 C   0  0  1  0  0  0  0  0  0  0  0  0
    7.5231  -21.6164   19.3112 C   0  0  0  0  0  0  0  0  0  0  0  0
    9.4645  -20.1954   19.0388 C   0  0  0  0  0  0  0  0  0  0  0  0
    9.3555  -19.6903   20.4526 C   0  0  2  0  0  0  0  0  0  0  0  0
    7.9290  -19.7954   20.8270 N   0  0  0  0  0  0  0  0  0  0  0  0
    9.7184  -18.2346   20.5126 C   0  0  0  0  0  0  0  0  0  0  0  0
   10.8202  -17.8108   20.0758 O   0  0  0  0  0  0  0  0  0  0  0  0
    8.8213  -17.2972   21.0657 N   0  0  0  0  0  0  0  0  0  0  0  0
    9.3282  -15.8810   21.2360 C   0  0  1  0  0  0  0  0  0  0  0  0
    8.4491  -15.0138   20.4253 C   0  0  0  0  0  0  0  0  0  0  0  0
    8.7861  -14.4555   19.1304 C   0  0  0  0  0  0  0  0  0  0  0  0
    7.8237  -13.6333   18.3746 C   0  0  0  0  0  0  0  0  0  0  0  0
    8.4702  -13.2469   17.0136 C   0  0  0  0  0  0  0  0  0  0  0  0
    7.4564  -12.5436   16.2596 N   0  0  0  0  0  0  0  0  0  0  0  0
    9.0680  -15.6820   22.6932 C   0  0  0  0  0  0  0  0  0  0  0  0
    8.0133  -16.0878   23.1860 O   0  0  0  0  0  0  0  0  0  0  0  0
    9.9797  -15.0340   23.5939 N   0  0  0  0  0  0  0  0  0  0  0  0
   10.1444  -15.4536   24.9750 C   0  0  1  0  0  0  0  0  0  0  0  0
    8.9644  -16.1496   25.5128 C   0  0  0  0  0  0  0  0  0  0  0  0
    7.7456  -15.3272   25.6733 C   0  0  0  0  0  0  0  0  0  0  0  0
    6.4519  -15.7989   25.3923 C   0  0  0  0  0  0  0  0  0  0  0  0
    5.5942  -14.8164   25.5995 N   0  0  0  0  0  0  0  0  0  0  0  0
    6.2485  -13.7209   26.0031 C   0  0  0  0  0  0  0  0  0  0  0  0
    5.8206  -12.4417   26.3613 C   0  0  0  0  0  0  0  0  0  0  0  0
    6.7604  -11.5258   26.7567 C   0  0  0  0  0  0  0  0  0  0  0  0
    8.1152  -11.8343   26.8099 C   0  0  0  0  0  0  0  0  0  0  0  0
    8.5265  -13.0849   26.4579 C   0  0  0  0  0  0  0  0  0  0  0  0
    7.5897  -14.0206   26.0554 C   0  0  0  0  0  0  0  0  0  0  0  0
   11.4605  -16.0803   25.1415 C   0  0  0  0  0  0  0  0  0  0  0  0
   12.1688  -16.1192   26.3357 O   0  0  0  0  0  0  0  0  0  0  0  0
   12.0284  -16.6300   24.1550 O   0  0  0  0  0  0  0  0  0  0  0  0
  2  3  1  1
  2  1  1  0
  4  2  1  0
  5  6  1  6
  5  4  1  0
  7  5  1  0
  8  7  2  0
  9  7  1  0
 10 16  1  0
 10  9  1  0
 10 11  1  6
 12 11  1  0
 13 14  1  0
 13 12  1  0
 15 14  1  0
 16 18  1  0
 17 16  2  0
 18 19  1  0
 19 20  1  6
 20 21  1  0
 21 29  1  0
 21 22  2  0
 22 23  1  0
 24 25  2  0
 24 23  1  0
 26 25  1  0
 27 26  2  0
 28 27  1  0
 28 29  2  0
 29 24  1  0
 30 31  1  0
 30 19  1  0
 32 30  2  0
M  END
$$$$
