PRC.pdb
     RDKit          3D

 25 25  0  0  1  0  0  0  0  0999 V2000
    7.8897  -15.2288   19.0790 N   0  0  0  0  0  0  0  0  0  0  0  0
    7.7221  -14.3364   17.9780 C   0  0  0  0  0  0  0  0  0  0  0  0
    7.6912  -12.9324   18.4995 C   0  0  0  0  0  0  0  0  0  0  0  0
    8.0120  -13.0934   19.9478 C   0  0  0  0  0  0  0  0  0  0  0  0
    8.3510  -14.5120   20.2223 C   0  0  1  0  0  0  0  0  0  0  0  0
    7.8344  -15.0168   21.5111 C   0  0  0  0  0  0  0  0  0  0  0  0
    6.5743  -15.1507   21.5873 O   0  0  0  0  0  0  0  0  0  0  0  0
   11.0621  -18.5579   21.6104 N   0  0  0  0  0  0  0  0  0  0  0  0
   11.0915  -19.6443   22.5660 C   0  0  0  0  0  0  0  0  0  0  0  0
   11.7871  -20.6332   22.2754 N   0  0  0  0  0  0  0  0  0  0  0  0
   10.3564  -19.5709   23.7688 N   0  0  0  0  0  0  0  0  0  0  0  0
    8.9650  -19.4217   23.9131 C   0  0  0  0  0  0  0  0  0  0  0  0
    8.2877  -18.1999   23.4298 C   0  0  0  0  0  0  0  0  0  0  0  0
    8.6644  -17.0345   24.3327 C   0  0  0  0  0  0  0  0  0  0  0  0
    8.0719  -15.7410   23.9312 C   0  0  2  0  0  0  0  0  0  0  0  0
    8.6053  -15.3513   22.6290 N   0  0  0  0  0  0  0  0  0  0  0  0
    8.5255  -14.7004   24.9284 C   0  0  0  0  0  0  0  0  0  0  0  0
    9.7088  -14.3614   24.9851 O   0  0  0  0  0  0  0  0  0  0  0  0
   11.9444  -21.4683   22.7948 N   0  0  0  0  0  0  0  0  0  0  0  0
    7.5718  -14.1364   25.7797 C   0  0  1  0  0  0  0  0  0  0  0  0
    7.8794  -13.3215   26.9328 C   0  0  0  0  0  0  0  0  0  0  0  0
    6.7520  -12.4538   27.3675 S   0  0  0  0  0  0  0  0  0  0  0  0
    5.9168  -11.8216   25.8838 C   0  0  0  0  0  0  0  0  0  0  0  0
    8.2807  -14.1918   28.0463 O   0  0  0  0  0  0  0  0  0  0  0  0
    8.7794  -13.6816   29.2142 O   0  0  0  0  0  0  0  0  0  0  0  0
  1  2  1  0
  3  2  1  0
  4  3  1  0
  5  4  1  0
  5  1  1  0
  6 16  1  0
  5  6  1  1
  7  6  2  0
  9  8  1  0
  9 11  1  0
 10  9  2  0
 12 11  1  0
 13 12  1  0
 14 13  1  0
 15 14  1  1
 15 16  1  0
 17 18  2  0
 17 15  1  0
 19 17  1  0
 20 23  1  0
 20 19  1  0
 20 21  1  6
 22 21  1  0
 23 24  1  0
 25 23  2  0
M  END
$$$$
