PRC.pdb
     RDKit          3D

 25 25  0  0  1  0  0  0  0  0999 V2000
    8.8257  -15.0201   19.0609 N   0  0  0  0  0  0  0  0  0  0  0  0
    8.4400  -14.7323   17.7174 C   0  0  0  0  0  0  0  0  0  0  0  0
    7.5571  -13.5221   17.7212 C   0  0  0  0  0  0  0  0  0  0  0  0
    7.6062  -13.0615   19.1395 C   0  0  0  0  0  0  0  0  0  0  0  0
    8.5845  -13.8863   19.8915 C   0  0  1  0  0  0  0  0  0  0  0  0
    8.1635  -14.2146   21.2690 C   0  0  0  0  0  0  0  0  0  0  0  0
    7.8770  -13.2246   22.0103 O   0  0  0  0  0  0  0  0  0  0  0  0
    6.1470  -21.2578   25.7525 N   0  0  0  0  0  0  0  0  0  0  0  0
    6.8806  -20.5342   26.7685 C   0  0  0  0  0  0  0  0  0  0  0  0
    6.6016  -20.7864   27.9538 N   0  0  0  0  0  0  0  0  0  0  0  0
    7.8645  -19.5860   26.4143 N   0  0  0  0  0  0  0  0  0  0  0  0
    8.0525  -18.9762   25.1605 C   0  0  0  0  0  0  0  0  0  0  0  0
    7.5662  -17.6022   24.9144 C   0  0  0  0  0  0  0  0  0  0  0  0
    7.9025  -17.2063   23.4843 C   0  0  0  0  0  0  0  0  0  0  0  0
    7.5512  -15.8113   23.1433 C   0  0  2  0  0  0  0  0  0  0  0  0
    8.0578  -15.5000   21.8098 N   0  0  0  0  0  0  0  0  0  0  0  0
    8.2712  -14.9070   24.1164 C   0  0  0  0  0  0  0  0  0  0  0  0
    9.4905  -14.7475   24.0381 O   0  0  0  0  0  0  0  0  0  0  0  0
    7.0665  -20.4983   28.7861 N   0  0  0  0  0  0  0  0  0  0  0  0
    7.5207  -14.2603   25.1016 C   0  0  2  0  0  0  0  0  0  0  0  0
    8.0335  -13.2407   25.9881 C   0  0  0  0  0  0  0  0  0  0  0  0
    7.1623  -12.0385   26.0814 S   0  0  0  0  0  0  0  0  0  0  0  0
    5.5741  -12.5426   26.8041 C   0  0  0  0  0  0  0  0  0  0  0  0
    8.2172  -13.8136   27.3284 O   0  0  0  0  0  0  0  0  0  0  0  0
    7.8245  -15.0907   27.6246 O   0  0  0  0  0  0  0  0  0  0  0  0
  1  2  1  0
  3  2  1  0
  4  3  1  0
  5  4  1  0
  5  1  1  0
  6 16  1  0
  5  6  1  1
  7  6  2  0
  9  8  1  0
  9 11  1  0
 10  9  2  0
 12 11  1  0
 13 12  1  0
 14 13  1  0
 15 14  1  1
 15 16  1  0
 17 18  2  0
 17 15  1  0
 19 17  1  0
 20 23  1  0
 20 19  1  0
 20 21  1  6
 22 21  1  0
 23 24  1  0
 25 23  2  0
M  END
$$$$
