PRC.pdb
     RDKit          3D

 25 25  0  0  1  0  0  0  0  0999 V2000
    8.6754  -14.8067   19.5524 N   0  0  0  0  0  0  0  0  0  0  0  0
    8.3944  -14.2692   18.2606 C   0  0  0  0  0  0  0  0  0  0  0  0
    7.7280  -12.9383   18.4301 C   0  0  0  0  0  0  0  0  0  0  0  0
    7.8003  -12.6990   19.9011 C   0  0  0  0  0  0  0  0  0  0  0  0
    8.5971  -13.7778   20.5367 C   0  0  1  0  0  0  0  0  0  0  0  0
    8.0755  -14.2211   21.8459 C   0  0  0  0  0  0  0  0  0  0  0  0
    8.0171  -13.3300   22.7483 O   0  0  0  0  0  0  0  0  0  0  0  0
    8.4110  -20.3554   26.7131 N   0  0  0  0  0  0  0  0  0  0  0  0
    7.8953  -21.0652   25.5624 C   0  0  0  0  0  0  0  0  0  0  0  0
    8.0355  -22.3008   25.5516 N   0  0  0  0  0  0  0  0  0  0  0  0
    7.2655  -20.3720   24.5063 N   0  0  0  0  0  0  0  0  0  0  0  0
    6.2185  -19.4371   24.6010 C   0  0  0  0  0  0  0  0  0  0  0  0
    6.5109  -17.9995   24.7816 C   0  0  0  0  0  0  0  0  0  0  0  0
    6.9223  -17.4055   23.4425 C   0  0  0  0  0  0  0  0  0  0  0  0
    7.2513  -15.9651   23.4942 C   0  0  2  0  0  0  0  0  0  0  0  0
    7.6502  -15.5150   22.1637 N   0  0  0  0  0  0  0  0  0  0  0  0
    8.4507  -15.8017   24.3986 C   0  0  0  0  0  0  0  0  0  0  0  0
    9.5931  -15.8692   23.9418 O   0  0  0  0  0  0  0  0  0  0  0  0
    7.7750  -22.9590   24.8511 N   0  0  0  0  0  0  0  0  0  0  0  0
    8.2299  -15.5732   25.7592 C   0  0  2  0  0  0  0  0  0  0  0  0
    9.2487  -15.1661   26.6998 C   0  0  0  0  0  0  0  0  0  0  0  0
    8.8076  -14.0908   27.6283 S   0  0  0  0  0  0  0  0  0  0  0  0
   10.1896  -13.6969   28.7390 C   0  0  0  0  0  0  0  0  0  0  0  0
    9.6816  -16.3341   27.4787 O   0  0  0  0  0  0  0  0  0  0  0  0
   10.8542  -16.3334   28.1844 O   0  0  0  0  0  0  0  0  0  0  0  0
  1  2  1  0
  3  2  1  0
  4  3  1  0
  5  4  1  0
  5  1  1  0
  6 16  1  0
  5  6  1  1
  7  6  2  0
  9  8  1  0
  9 11  1  0
 10  9  2  0
 12 11  1  0
 13 12  1  0
 14 13  1  0
 15 14  1  6
 15 16  1  0
 17 18  2  0
 17 15  1  0
 19 17  1  0
 20 23  1  0
 20 19  1  0
 20 21  1  1
 22 21  1  0
 23 24  1  0
 25 23  2  0
M  END
$$$$
