PRC.pdb
     RDKit          3D

 25 25  0  0  1  0  0  0  0  0999 V2000
    8.9695  -14.5933   19.3372 N   0  0  0  0  0  0  0  0  0  0  0  0
    8.3683  -14.2142   18.0996 C   0  0  0  0  0  0  0  0  0  0  0  0
    7.2246  -13.2900   18.3858 C   0  0  0  0  0  0  0  0  0  0  0  0
    7.3287  -13.0542   19.8555 C   0  0  0  0  0  0  0  0  0  0  0  0
    8.5605  -13.7013   20.3719 C   0  0  1  0  0  0  0  0  0  0  0  0
    8.3990  -14.3336   21.6973 C   0  0  0  0  0  0  0  0  0  0  0  0
    7.9614  -13.5795   22.6201 O   0  0  0  0  0  0  0  0  0  0  0  0
   10.9623  -21.1601   22.5768 N   0  0  0  0  0  0  0  0  0  0  0  0
    9.6796  -20.7840   22.0224 C   0  0  0  0  0  0  0  0  0  0  0  0
    9.5963  -20.7220   20.7833 N   0  0  0  0  0  0  0  0  0  0  0  0
    8.5820  -20.5010   22.8636 N   0  0  0  0  0  0  0  0  0  0  0  0
    8.6178  -19.9877   24.1730 C   0  0  0  0  0  0  0  0  0  0  0  0
    8.3376  -18.5585   24.4260 C   0  0  0  0  0  0  0  0  0  0  0  0
    8.6852  -17.7573   23.1801 C   0  0  0  0  0  0  0  0  0  0  0  0
    8.3782  -16.3148   23.2824 C   0  0  2  0  0  0  0  0  0  0  0  0
    8.6833  -15.6668   22.0100 N   0  0  0  0  0  0  0  0  0  0  0  0
    9.3048  -15.7219   24.3183 C   0  0  0  0  0  0  0  0  0  0  0  0
   10.4405  -15.3585   24.0077 O   0  0  0  0  0  0  0  0  0  0  0  0
   10.2779  -20.9482   20.0933 N   0  0  0  0  0  0  0  0  0  0  0  0
    8.8411  -15.5977   25.6304 C   0  0  1  0  0  0  0  0  0  0  0  0
    9.5364  -14.8948   26.6844 C   0  0  0  0  0  0  0  0  0  0  0  0
    8.7215  -13.8307   27.3299 S   0  0  0  0  0  0  0  0  0  0  0  0
    9.7216  -13.0638   28.6376 C   0  0  0  0  0  0  0  0  0  0  0  0
    9.9714  -15.8597   27.7033 O   0  0  0  0  0  0  0  0  0  0  0  0
   10.9996  -15.5831   28.5631 O   0  0  0  0  0  0  0  0  0  0  0  0
  1  2  1  0
  3  2  1  0
  4  3  1  0
  5  4  1  0
  5  1  1  0
  6 16  1  0
  5  6  1  1
  7  6  2  0
  9  8  1  0
  9 11  1  0
 10  9  2  0
 12 11  1  0
 13 12  1  0
 14 13  1  0
 15 14  1  6
 15 16  1  0
 17 18  2  0
 17 15  1  0
 19 17  1  0
 20 23  1  0
 20 19  1  0
 20 21  1  1
 22 21  1  0
 23 24  1  0
 25 23  2  0
M  END
$$$$
