PRC.pdb
     RDKit          3D

 25 25  0  0  1  0  0  0  0  0999 V2000
    9.2447  -14.6022   18.9575 N   0  0  0  0  0  0  0  0  0  0  0  0
    9.0502  -14.2767   17.5817 C   0  0  0  0  0  0  0  0  0  0  0  0
    8.0423  -13.1723   17.4885 C   0  0  0  0  0  0  0  0  0  0  0  0
    7.8070  -12.7965   18.9132 C   0  0  0  0  0  0  0  0  0  0  0  0
    8.7409  -13.5542   19.7830 C   0  0  1  0  0  0  0  0  0  0  0  0
    8.1443  -14.0098   21.0554 C   0  0  0  0  0  0  0  0  0  0  0  0
    7.5001  -13.1328   21.7093 O   0  0  0  0  0  0  0  0  0  0  0  0
    8.3683  -19.7348   19.1462 N   0  0  0  0  0  0  0  0  0  0  0  0
    7.7665  -20.7042   20.0362 C   0  0  0  0  0  0  0  0  0  0  0  0
    7.2457  -21.7046   19.5125 N   0  0  0  0  0  0  0  0  0  0  0  0
    7.7762  -20.5079   21.4340 N   0  0  0  0  0  0  0  0  0  0  0  0
    8.3069  -19.4131   22.1404 C   0  0  0  0  0  0  0  0  0  0  0  0
    7.9305  -18.0312   21.7748 C   0  0  0  0  0  0  0  0  0  0  0  0
    7.8917  -17.1786   23.0345 C   0  0  0  0  0  0  0  0  0  0  0  0
    7.5534  -15.7595   22.7953 C   0  0  2  0  0  0  0  0  0  0  0  0
    8.2304  -15.3011   21.5855 N   0  0  0  0  0  0  0  0  0  0  0  0
    8.1080  -14.9560   23.9485 C   0  0  0  0  0  0  0  0  0  0  0  0
    9.3233  -14.7945   24.0718 O   0  0  0  0  0  0  0  0  0  0  0  0
    6.8151  -22.4912   19.9458 N   0  0  0  0  0  0  0  0  0  0  0  0
    7.2100  -14.4043   24.8658 C   0  0  2  0  0  0  0  0  0  0  0  0
    7.5866  -13.5695   25.9837 C   0  0  0  0  0  0  0  0  0  0  0  0
    6.5296  -12.6049   26.3902 S   0  0  0  0  0  0  0  0  0  0  0  0
    7.1267  -11.6844   27.8376 C   0  0  0  0  0  0  0  0  0  0  0  0
    7.9331  -14.4225   27.1285 O   0  0  0  0  0  0  0  0  0  0  0  0
    8.9333  -14.0855   27.9998 O   0  0  0  0  0  0  0  0  0  0  0  0
  1  2  1  0
  3  2  1  0
  4  3  1  0
  5  4  1  0
  5  1  1  0
  6 16  1  0
  5  6  1  1
  7  6  2  0
  9  8  1  0
  9 11  1  0
 10  9  2  0
 12 11  1  0
 13 12  1  0
 14 13  1  0
 15 14  1  1
 15 16  1  0
 17 18  2  0
 17 15  1  0
 19 17  1  0
 20 23  1  0
 20 19  1  0
 20 21  1  6
 22 21  1  0
 23 24  1  0
 25 23  2  0
M  END
$$$$
