PRC.pdb
     RDKit          3D

 25 25  0  0  1  0  0  0  0  0999 V2000
    8.3709  -15.2595   19.3527 N   0  0  0  0  0  0  0  0  0  0  0  0
    7.9667  -14.5182   18.2021 C   0  0  0  0  0  0  0  0  0  0  0  0
    7.5142  -13.1596   18.6422 C   0  0  0  0  0  0  0  0  0  0  0  0
    7.8434  -13.1389   20.0974 C   0  0  0  0  0  0  0  0  0  0  0  0
    8.5807  -14.3769   20.4530 C   0  0  1  0  0  0  0  0  0  0  0  0
    8.2140  -14.9402   21.7685 C   0  0  0  0  0  0  0  0  0  0  0  0
    7.0234  -14.7214   22.1512 O   0  0  0  0  0  0  0  0  0  0  0  0
   11.9726  -18.8921   20.5817 N   0  0  0  0  0  0  0  0  0  0  0  0
   12.7404  -19.1968   21.7699 C   0  0  0  0  0  0  0  0  0  0  0  0
   13.9696  -19.0181   21.7091 N   0  0  0  0  0  0  0  0  0  0  0  0
   12.1085  -19.6767   22.9373 N   0  0  0  0  0  0  0  0  0  0  0  0
   10.9427  -19.1770   23.5458 C   0  0  0  0  0  0  0  0  0  0  0  0
   10.5566  -17.7602   23.3763 C   0  0  0  0  0  0  0  0  0  0  0  0
    9.2704  -17.5016   24.1470 C   0  0  0  0  0  0  0  0  0  0  0  0
    8.7034  -16.1515   23.9436 C   0  0  2  0  0  0  0  0  0  0  0  0
    9.0545  -15.6787   22.6075 N   0  0  0  0  0  0  0  0  0  0  0  0
    9.3663  -15.2227   24.9340 C   0  0  0  0  0  0  0  0  0  0  0  0
   10.5229  -14.8378   24.7541 O   0  0  0  0  0  0  0  0  0  0  0  0
   14.6639  -19.1677   22.4073 N   0  0  0  0  0  0  0  0  0  0  0  0
    8.6358  -14.8145   26.0530 C   0  0  1  0  0  0  0  0  0  0  0  0
    9.1056  -13.8703   27.0410 C   0  0  0  0  0  0  0  0  0  0  0  0
    8.0325  -12.9984   27.5900 S   0  0  0  0  0  0  0  0  0  0  0  0
    7.1015  -12.2976   26.1968 C   0  0  0  0  0  0  0  0  0  0  0  0
    9.7484  -14.6017   28.1410 O   0  0  0  0  0  0  0  0  0  0  0  0
    9.7861  -15.9694   28.1700 O   0  0  0  0  0  0  0  0  0  0  0  0
  1  2  1  0
  3  2  1  0
  4  3  1  0
  5  4  1  0
  5  1  1  0
  6 16  1  0
  5  6  1  1
  7  6  2  0
  9  8  1  0
  9 11  1  0
 10  9  2  0
 12 11  1  0
 13 12  1  0
 14 13  1  0
 15 14  1  1
 15 16  1  0
 17 18  2  0
 17 15  1  0
 19 17  1  0
 20 23  1  0
 20 19  1  0
 20 21  1  1
 22 21  1  0
 23 24  1  0
 25 23  2  0
M  END
$$$$
