YRV.pdb
     RDKit          3D

 31 31  0  0  1  0  0  0  0  0999 V2000
    5.3609  -25.1767   28.4253 O   0  0  0  0  0  0  0  0  0  0  0  0
    5.7745  -23.8836   28.1352 C   0  0  0  0  0  0  0  0  0  0  0  0
    6.8217  -23.3560   28.8847 C   0  0  0  0  0  0  0  0  0  0  0  0
    7.2442  -22.0708   28.6078 C   0  0  0  0  0  0  0  0  0  0  0  0
    6.6742  -21.2967   27.6264 C   0  0  0  0  0  0  0  0  0  0  0  0
    7.1372  -19.9235   27.3466 C   0  0  0  0  0  0  0  0  0  0  0  0
    7.8903  -19.9565   26.0141 C   0  0  2  0  0  0  0  0  0  0  0  0
    9.1086  -20.6931   26.2432 N   0  0  0  0  0  0  0  0  0  0  0  0
    8.0884  -18.5995   25.4918 C   0  0  0  0  0  0  0  0  0  0  0  0
    9.0127  -17.9023   26.0026 O   0  0  0  0  0  0  0  0  0  0  0  0
    5.6358  -21.8539   26.9013 C   0  0  0  0  0  0  0  0  0  0  0  0
    5.1894  -23.1350   27.1528 C   0  0  0  0  0  0  0  0  0  0  0  0
    9.1385  -14.1347   19.8257 N   0  0  0  0  0  0  0  0  0  0  0  0
    8.0168  -13.2588   19.7262 C   0  0  0  0  0  0  0  0  0  0  0  0
    8.1681  -12.0703   19.2866 N   0  0  0  0  0  0  0  0  0  0  0  0
    6.7481  -13.7301   20.1196 N   0  0  0  0  0  0  0  0  0  0  0  0
    6.5969  -15.0174   20.7234 C   0  0  0  0  0  0  0  0  0  0  0  0
    7.1108  -15.0833   22.1453 C   0  0  0  0  0  0  0  0  0  0  0  0
    6.9296  -16.4774   22.6812 C   0  0  0  0  0  0  0  0  0  0  0  0
    7.5032  -16.6523   24.0628 C   0  0  2  0  0  0  0  0  0  0  0  0
    7.3202  -18.0348   24.4681 N   0  0  0  0  0  0  0  0  0  0  0  0
    6.8957  -15.7839   25.0667 C   0  0  0  0  0  0  0  0  0  0  0  0
    5.6835  -15.9064   25.3745 O   0  0  0  0  0  0  0  0  0  0  0  0
    7.3769  -11.4011   19.2885 C   0  0  0  0  0  0  0  0  0  0  0  0
    8.8483  -12.2439   26.6306 C   0  0  1  0  0  0  0  0  0  0  0  0
    7.9492  -13.0824   27.5236 C   0  0  0  0  0  0  0  0  0  0  0  0
    8.8361  -14.0745   28.2464 C   0  0  1  0  0  0  0  0  0  0  0  0
    6.9494  -13.8703   26.7074 N   0  0  0  0  0  0  0  0  0  0  0  0
    7.6121  -14.7534   25.7608 C   0  0  0  0  0  0  0  0  0  0  0  0
    6.0492  -12.9474   26.0111 O   0  0  0  0  0  0  0  0  0  0  0  0
    5.1441  -12.1716   26.7542 O   0  0  0  0  0  0  0  0  0  0  0  0
  2 12  2  0
  2  1  1  0
  3  2  1  0
  4  5  1  0
  4  3  2  0
  5 11  2  0
  6  7  1  0
  6  5  1  0
  7  8  1  1
  9  7  1  0
  9 21  1  0
 10  9  2  0
 11 12  1  0
 14 13  1  0
 14 16  1  0
 15 14  2  0
 17 16  1  0
 18 19  1  0
 18 17  1  0
 20 19  1  6
 20 21  1  0
 22 23  2  0
 22 20  1  0
 25 24  1  1
 26 25  1  0
 27 28  1  6
 27 25  1  0
 28 22  1  0
 29 27  1  0
 30 29  1  0
 31 29  2  0
M  END
$$$$
