YRV.pdb
     RDKit          3D

 31 31  0  0  1  0  0  0  0  0999 V2000
    7.9500  -13.4312   14.7597 O   0  0  0  0  0  0  0  0  0  0  0  0
    7.7124  -13.7525   16.0892 C   0  0  0  0  0  0  0  0  0  0  0  0
    7.3723  -15.0690   16.3856 C   0  0  0  0  0  0  0  0  0  0  0  0
    7.1329  -15.4039   17.7038 C   0  0  0  0  0  0  0  0  0  0  0  0
    7.2171  -14.4930   18.7288 C   0  0  0  0  0  0  0  0  0  0  0  0
    6.9546  -14.8686   20.1317 C   0  0  0  0  0  0  0  0  0  0  0  0
    8.2910  -14.8186   20.8769 C   0  0  2  0  0  0  0  0  0  0  0  0
    9.2168  -15.6293   20.1253 N   0  0  0  0  0  0  0  0  0  0  0  0
    8.1242  -15.2247   22.2773 C   0  0  0  0  0  0  0  0  0  0  0  0
    7.1878  -14.6872   22.9374 O   0  0  0  0  0  0  0  0  0  0  0  0
    7.5579  -13.1937   18.3969 C   0  0  0  0  0  0  0  0  0  0  0  0
    7.8032  -12.8260   17.0898 C   0  0  0  0  0  0  0  0  0  0  0  0
   10.7550  -19.0838   20.0980 N   0  0  0  0  0  0  0  0  0  0  0  0
   10.0671  -20.2581   20.5259 C   0  0  0  0  0  0  0  0  0  0  0  0
    9.6572  -21.1097   19.6682 N   0  0  0  0  0  0  0  0  0  0  0  0
    9.8521  -20.4569   21.9045 N   0  0  0  0  0  0  0  0  0  0  0  0
   10.1625  -19.4321   22.8521 C   0  0  0  0  0  0  0  0  0  0  0  0
    8.9563  -18.9255   23.6128 C   0  0  0  0  0  0  0  0  0  0  0  0
    9.3837  -17.8500   24.5743 C   0  0  0  0  0  0  0  0  0  0  0  0
    8.7118  -16.5282   24.3099 C   0  0  2  0  0  0  0  0  0  0  0  0
    8.9345  -16.1657   22.9213 N   0  0  0  0  0  0  0  0  0  0  0  0
    9.1907  -15.4437   25.1614 C   0  0  0  0  0  0  0  0  0  0  0  0
   10.3848  -15.0569   25.1001 O   0  0  0  0  0  0  0  0  0  0  0  0
    9.1174  -21.9425   19.9663 C   0  0  0  0  0  0  0  0  0  0  0  0
    6.6083  -13.0299   27.6701 C   0  0  1  0  0  0  0  0  0  0  0  0
    7.9766  -12.5840   27.1826 C   0  0  0  0  0  0  0  0  0  0  0  0
    7.7832  -11.9585   25.8170 C   0  0  1  0  0  0  0  0  0  0  0  0
    8.9097  -13.7626   27.0194 N   0  0  0  0  0  0  0  0  0  0  0  0
    8.3619  -14.7538   26.1070 C   0  0  0  0  0  0  0  0  0  0  0  0
    9.1796  -14.3593   28.3302 O   0  0  0  0  0  0  0  0  0  0  0  0
    9.8471  -13.6050   29.3093 O   0  0  0  0  0  0  0  0  0  0  0  0
  2 12  2  0
  2  1  1  0
  3  2  1  0
  4  5  1  0
  4  3  2  0
  5 11  2  0
  6  7  1  0
  6  5  1  0
  7  8  1  6
  9  7  1  0
  9 21  1  0
 10  9  2  0
 11 12  1  0
 14 13  1  0
 14 16  1  0
 15 14  2  0
 17 16  1  0
 18 19  1  0
 18 17  1  0
 20 19  1  1
 20 21  1  0
 22 23  2  0
 22 20  1  0
 25 24  1  1
 26 25  1  0
 27 28  1  6
 27 25  1  0
 28 22  1  0
 29 27  1  0
 30 29  1  0
 31 29  2  0
M  END
$$$$
