YRV.pdb
     RDKit          3D

 31 31  0  0  1  0  0  0  0  0999 V2000
   12.2464  -13.1949   17.0996 O   0  0  0  0  0  0  0  0  0  0  0  0
   11.1058  -13.3840   17.8680 C   0  0  0  0  0  0  0  0  0  0  0  0
    9.9010  -12.8996   17.3674 C   0  0  0  0  0  0  0  0  0  0  0  0
    8.7577  -13.0801   18.1206 C   0  0  0  0  0  0  0  0  0  0  0  0
    8.7630  -13.7160   19.3384 C   0  0  0  0  0  0  0  0  0  0  0  0
    7.5312  -13.8970   20.1310 C   0  0  0  0  0  0  0  0  0  0  0  0
    7.2955  -15.4030   20.2734 C   0  0  2  0  0  0  0  0  0  0  0  0
    6.3639  -15.7778   19.2385 N   0  0  0  0  0  0  0  0  0  0  0  0
    6.8603  -15.7376   21.6344 C   0  0  0  0  0  0  0  0  0  0  0  0
    5.6250  -15.6501   21.8946 O   0  0  0  0  0  0  0  0  0  0  0  0
    9.9786  -14.1847   19.8044 C   0  0  0  0  0  0  0  0  0  0  0  0
   11.1394  -14.0205   19.0770 C   0  0  0  0  0  0  0  0  0  0  0  0
    8.9524  -21.4058   27.4409 N   0  0  0  0  0  0  0  0  0  0  0  0
    7.7354  -20.9571   28.0351 C   0  0  0  0  0  0  0  0  0  0  0  0
    7.4065  -21.3556   29.2021 N   0  0  0  0  0  0  0  0  0  0  0  0
    6.9113  -20.0711   27.3126 N   0  0  0  0  0  0  0  0  0  0  0  0
    7.2609  -19.6551   25.9900 C   0  0  0  0  0  0  0  0  0  0  0  0
    7.0922  -18.1691   25.7584 C   0  0  0  0  0  0  0  0  0  0  0  0
    7.4165  -17.8437   24.3257 C   0  0  0  0  0  0  0  0  0  0  0  0
    7.2425  -16.3826   24.0038 C   0  0  2  0  0  0  0  0  0  0  0  0
    7.7258  -16.1455   22.6550 N   0  0  0  0  0  0  0  0  0  0  0  0
    7.9470  -15.4902   24.9192 C   0  0  0  0  0  0  0  0  0  0  0  0
    9.2000  -15.5199   25.0096 O   0  0  0  0  0  0  0  0  0  0  0  0
    6.5511  -20.9947   29.6623 C   0  0  0  0  0  0  0  0  0  0  0  0
    5.8631  -12.8051   27.5893 C   0  0  1  0  0  0  0  0  0  0  0  0
    7.2650  -12.4821   27.1002 C   0  0  0  0  0  0  0  0  0  0  0  0
    7.1198  -11.6497   25.8435 C   0  0  1  0  0  0  0  0  0  0  0  0
    8.0192  -13.7401   26.7327 N   0  0  0  0  0  0  0  0  0  0  0  0
    7.2855  -14.5371   25.7624 C   0  0  0  0  0  0  0  0  0  0  0  0
    8.2911  -14.5199   27.9431 O   0  0  0  0  0  0  0  0  0  0  0  0
    9.1394  -13.9915   28.9302 O   0  0  0  0  0  0  0  0  0  0  0  0
  2 12  2  0
  2  1  1  0
  3  2  1  0
  4  5  1  0
  4  3  2  0
  5 11  2  0
  6  7  1  0
  6  5  1  0
  7  8  1  6
  9  7  1  0
  9 21  1  0
 10  9  2  0
 11 12  1  0
 14 13  1  0
 14 16  1  0
 15 14  2  0
 17 16  1  0
 18 19  1  0
 18 17  1  0
 20 19  1  1
 20 21  1  0
 22 23  2  0
 22 20  1  0
 25 24  1  1
 26 25  1  0
 27 28  1  6
 27 25  1  0
 28 22  1  0
 29 27  1  0
 30 29  1  0
 31 29  2  0
M  END
$$$$
