YRV.pdb
     RDKit          3D

 31 31  0  0  1  0  0  0  0  0999 V2000
    7.9707  -12.0740   16.7029 O   0  0  0  0  0  0  0  0  0  0  0  0
    7.8437  -12.7633   17.9012 C   0  0  0  0  0  0  0  0  0  0  0  0
    8.7184  -12.4345   18.9324 C   0  0  0  0  0  0  0  0  0  0  0  0
    8.6044  -13.1117   20.1304 C   0  0  0  0  0  0  0  0  0  0  0  0
    7.6659  -14.0921   20.3432 C   0  0  0  0  0  0  0  0  0  0  0  0
    7.5608  -14.8076   21.6298 C   0  0  0  0  0  0  0  0  0  0  0  0
    8.4593  -16.0439   21.5410 C   0  0  2  0  0  0  0  0  0  0  0  0
    7.9701  -16.8354   20.4393 N   0  0  0  0  0  0  0  0  0  0  0  0
    8.5038  -16.7512   22.8261 C   0  0  0  0  0  0  0  0  0  0  0  0
    7.6715  -17.6863   23.0113 O   0  0  0  0  0  0  0  0  0  0  0  0
    6.8130  -14.3924   19.2959 C   0  0  0  0  0  0  0  0  0  0  0  0
    6.9004  -13.7349   18.0860 C   0  0  0  0  0  0  0  0  0  0  0  0
   13.7541  -19.0424   21.3077 N   0  0  0  0  0  0  0  0  0  0  0  0
   12.4886  -19.4868   20.8215 C   0  0  0  0  0  0  0  0  0  0  0  0
   12.1734  -19.3090   19.5977 N   0  0  0  0  0  0  0  0  0  0  0  0
   11.6014  -20.1218   21.7137 N   0  0  0  0  0  0  0  0  0  0  0  0
   11.6902  -19.8972   23.1231 C   0  0  0  0  0  0  0  0  0  0  0  0
   11.2204  -18.5228   23.5479 C   0  0  0  0  0  0  0  0  0  0  0  0
   10.0836  -18.6594   24.5238 C   0  0  0  0  0  0  0  0  0  0  0  0
    9.5587  -17.3306   25.0004 C   0  0  2  0  0  0  0  0  0  0  0  0
    9.4071  -16.4544   23.8522 N   0  0  0  0  0  0  0  0  0  0  0  0
   10.4186  -16.6755   25.9813 C   0  0  0  0  0  0  0  0  0  0  0  0
   11.5560  -16.2504   25.6576 O   0  0  0  0  0  0  0  0  0  0  0  0
   11.2520  -19.6190   19.2387 C   0  0  0  0  0  0  0  0  0  0  0  0
    8.9019  -14.8592   29.4951 C   0  0  1  0  0  0  0  0  0  0  0  0
   10.2074  -14.5025   28.8044 C   0  0  0  0  0  0  0  0  0  0  0  0
    9.8619  -13.6226   27.6213 C   0  0  1  0  0  0  0  0  0  0  0  0
   10.8991  -15.7370   28.2715 N   0  0  0  0  0  0  0  0  0  0  0  0
   10.0453  -16.4708   27.3508 C   0  0  0  0  0  0  0  0  0  0  0  0
   11.3083  -16.5909   29.3898 O   0  0  0  0  0  0  0  0  0  0  0  0
   12.2431  -16.1097   30.3214 O   0  0  0  0  0  0  0  0  0  0  0  0
  2 12  2  0
  2  1  1  0
  3  2  1  0
  4  5  1  0
  4  3  2  0
  5 11  2  0
  6  7  1  0
  6  5  1  0
  7  8  1  6
  9  7  1  0
  9 21  1  0
 10  9  2  0
 11 12  1  0
 14 13  1  0
 14 16  1  0
 15 14  2  0
 17 16  1  0
 18 19  1  0
 18 17  1  0
 20 19  1  6
 20 21  1  0
 22 23  2  0
 22 20  1  0
 25 24  1  1
 26 25  1  0
 27 28  1  6
 27 25  1  0
 28 22  1  0
 29 27  1  0
 30 29  1  0
 31 29  2  0
M  END
$$$$
