YRV.pdb
     RDKit          3D

 31 31  0  0  1  0  0  0  0  0999 V2000
    7.6358  -11.8871   16.4368 O   0  0  0  0  0  0  0  0  0  0  0  0
    7.5686  -12.7143   17.5496 C   0  0  0  0  0  0  0  0  0  0  0  0
    8.2090  -12.2905   18.7102 C   0  0  0  0  0  0  0  0  0  0  0  0
    8.1510  -13.1029   19.8255 C   0  0  0  0  0  0  0  0  0  0  0  0
    7.4891  -14.3067   19.8341 C   0  0  0  0  0  0  0  0  0  0  0  0
    7.4404  -15.1633   21.0350 C   0  0  0  0  0  0  0  0  0  0  0  0
    8.6044  -16.1530   20.9391 C   0  0  2  0  0  0  0  0  0  0  0  0
    8.3236  -17.0182   19.8202 N   0  0  0  0  0  0  0  0  0  0  0  0
    8.8028  -16.8519   22.2142 C   0  0  0  0  0  0  0  0  0  0  0  0
    8.2424  -17.9769   22.3610 O   0  0  0  0  0  0  0  0  0  0  0  0
    6.8638  -14.6957   18.6627 C   0  0  0  0  0  0  0  0  0  0  0  0
    6.9029  -13.9078   17.5307 C   0  0  0  0  0  0  0  0  0  0  0  0
   15.3856  -20.3290   24.9528 N   0  0  0  0  0  0  0  0  0  0  0  0
   14.5031  -20.8505   25.9451 C   0  0  0  0  0  0  0  0  0  0  0  0
   14.9345  -21.6776   26.8161 N   0  0  0  0  0  0  0  0  0  0  0  0
   13.1561  -20.4360   25.9438 N   0  0  0  0  0  0  0  0  0  0  0  0
   12.6643  -19.5381   24.9455 C   0  0  0  0  0  0  0  0  0  0  0  0
   11.1950  -19.2091   25.0982 C   0  0  0  0  0  0  0  0  0  0  0  0
   10.7589  -18.3190   23.9663 C   0  0  0  0  0  0  0  0  0  0  0  0
    9.8958  -17.1723   24.4230 C   0  0  2  0  0  0  0  0  0  0  0  0
    9.5707  -16.3505   23.2706 N   0  0  0  0  0  0  0  0  0  0  0  0
   10.5228  -16.3313   25.4381 C   0  0  0  0  0  0  0  0  0  0  0  0
   11.7131  -15.9488   25.3110 O   0  0  0  0  0  0  0  0  0  0  0  0
   14.3181  -22.0108   27.5796 C   0  0  0  0  0  0  0  0  0  0  0  0
    8.3740  -13.9700   28.2402 C   0  0  1  0  0  0  0  0  0  0  0  0
    9.8267  -13.7615   27.8461 C   0  0  0  0  0  0  0  0  0  0  0  0
    9.8302  -13.0165   26.5277 C   0  0  1  0  0  0  0  0  0  0  0  0
   10.5292  -15.0827   27.6284 N   0  0  0  0  0  0  0  0  0  0  0  0
    9.8510  -15.8879   26.6251 C   0  0  0  0  0  0  0  0  0  0  0  0
   10.6171  -15.8063   28.8995 O   0  0  0  0  0  0  0  0  0  0  0  0
   11.3738  -15.2655   29.9523 O   0  0  0  0  0  0  0  0  0  0  0  0
  2 12  2  0
  2  1  1  0
  3  2  1  0
  4  5  1  0
  4  3  2  0
  5 11  2  0
  6  7  1  0
  6  5  1  0
  7  8  1  6
  9  7  1  0
  9 21  1  0
 10  9  2  0
 11 12  1  0
 14 13  1  0
 14 16  1  0
 15 14  2  0
 17 16  1  0
 18 19  1  0
 18 17  1  0
 20 19  1  6
 20 21  1  0
 22 23  2  0
 22 20  1  0
 25 24  1  1
 26 25  1  0
 27 28  1  6
 27 25  1  0
 28 22  1  0
 29 27  1  0
 30 29  1  0
 31 29  2  0
M  END
$$$$
