YRV.pdb
     RDKit          3D

 31 31  0  0  1  0  0  0  0  0999 V2000
    6.1247  -10.2100   27.2190 O   0  0  0  0  0  0  0  0  0  0  0  0
    6.4754  -11.5234   26.9376 C   0  0  0  0  0  0  0  0  0  0  0  0
    6.8400  -12.3384   28.0051 C   0  0  0  0  0  0  0  0  0  0  0  0
    7.1915  -13.6475   27.7410 C   0  0  0  0  0  0  0  0  0  0  0  0
    7.1953  -14.1741   26.4721 C   0  0  0  0  0  0  0  0  0  0  0  0
    7.5771  -15.5751   26.2084 C   0  0  0  0  0  0  0  0  0  0  0  0
    6.5931  -16.1315   25.1760 C   0  0  2  0  0  0  0  0  0  0  0  0
    6.0347  -17.3353   25.7403 N   0  0  0  0  0  0  0  0  0  0  0  0
    7.2481  -16.3156   23.8757 C   0  0  0  0  0  0  0  0  0  0  0  0
    7.7451  -17.4519   23.6238 O   0  0  0  0  0  0  0  0  0  0  0  0
    6.8270  -13.3349   25.4355 C   0  0  0  0  0  0  0  0  0  0  0  0
    6.4705  -12.0219   25.6651 C   0  0  0  0  0  0  0  0  0  0  0  0
    9.6904  -15.2904   17.0519 N   0  0  0  0  0  0  0  0  0  0  0  0
    8.6699  -14.5090   16.4327 C   0  0  0  0  0  0  0  0  0  0  0  0
    8.5438  -14.5092   15.1627 N   0  0  0  0  0  0  0  0  0  0  0  0
    7.8104  -13.7438   17.2463 N   0  0  0  0  0  0  0  0  0  0  0  0
    8.2160  -13.3215   18.5509 C   0  0  0  0  0  0  0  0  0  0  0  0
    8.6071  -14.4642   19.4627 C   0  0  0  0  0  0  0  0  0  0  0  0
    7.7942  -14.3993   20.7271 C   0  0  0  0  0  0  0  0  0  0  0  0
    8.0866  -15.5371   21.6696 C   0  0  2  0  0  0  0  0  0  0  0  0
    7.3544  -15.3149   22.9040 N   0  0  0  0  0  0  0  0  0  0  0  0
    9.5034  -15.6913   21.9848 C   0  0  0  0  0  0  0  0  0  0  0  0
   10.1312  -14.7837   22.5860 O   0  0  0  0  0  0  0  0  0  0  0  0
    7.8056  -13.9443   14.7047 C   0  0  0  0  0  0  0  0  0  0  0  0
   11.5102  -19.4322   21.6055 C   0  0  1  0  0  0  0  0  0  0  0  0
   12.0139  -18.3344   22.5275 C   0  0  0  0  0  0  0  0  0  0  0  0
   11.2893  -18.4915   23.8479 C   0  0  1  0  0  0  0  0  0  0  0  0
   11.6794  -16.9649   21.9806 N   0  0  0  0  0  0  0  0  0  0  0  0
   10.2688  -16.8554   21.6441 C   0  0  0  0  0  0  0  0  0  0  0  0
   12.5139  -16.6879   20.8084 O   0  0  0  0  0  0  0  0  0  0  0  0
   13.8913  -16.4695   20.9761 O   0  0  0  0  0  0  0  0  0  0  0  0
  2 12  2  0
  2  1  1  0
  3  2  1  0
  4  5  1  0
  4  3  2  0
  5 11  2  0
  6  7  1  0
  6  5  1  0
  7  8  1  1
  9  7  1  0
  9 21  1  0
 10  9  2  0
 11 12  1  0
 14 13  1  0
 14 16  1  0
 15 14  2  0
 17 16  1  0
 18 19  1  0
 18 17  1  0
 20 19  1  6
 20 21  1  0
 22 23  2  0
 22 20  1  0
 25 24  1  1
 26 25  1  0
 27 28  1  1
 27 25  1  0
 28 22  1  0
 29 27  1  0
 30 29  1  0
 31 29  2  0
M  END
$$$$
