AQN.pdb
     RDKit          3D

 23 22  0  0  1  0  0  0  0  0999 V2000
   19.0020  -10.5837  -20.9132 C   0  0  0  0  0  0  0  0  0  0  0  0
   20.0658  -10.7505  -19.8349 C   0  0  2  0  0  0  0  0  0  0  0  0
   19.7500  -12.0147  -19.1693 N   0  0  0  0  0  0  0  0  0  0  0  0
   19.9820   -9.6302  -18.8351 C   0  0  0  0  0  0  0  0  0  0  0  0
   18.9010   -9.0519  -18.5839 O   0  0  0  0  0  0  0  0  0  0  0  0
   20.3356   -8.9651  -13.9033 N   0  0  0  0  0  0  0  0  0  0  0  0
   20.9401   -7.7026  -13.8662 C   0  0  0  0  0  0  0  0  0  0  0  0
   20.7124   -6.9161  -12.9225 O   0  0  0  0  0  0  0  0  0  0  0  0
   21.8615   -7.3136  -14.9753 C   0  0  0  0  0  0  0  0  0  0  0  0
   21.9666   -8.4039  -16.0009 C   0  0  0  0  0  0  0  0  0  0  0  0
   21.0490   -8.1502  -17.1388 C   0  0  2  0  0  0  0  0  0  0  0  0
   21.1393   -9.2007  -18.1482 N   0  0  0  0  0  0  0  0  0  0  0  0
   21.2197   -6.8371  -17.7411 C   0  0  0  0  0  0  0  0  0  0  0  0
   22.1370   -6.5145  -18.5123 O   0  0  0  0  0  0  0  0  0  0  0  0
   18.7980   -2.3187  -20.4866 N   0  0  0  0  0  0  0  0  0  0  0  0
   19.1758   -2.6508  -19.1611 C   0  0  0  0  0  0  0  0  0  0  0  0
   19.5940   -1.7427  -18.3963 O   0  0  0  0  0  0  0  0  0  0  0  0
   19.0997   -4.0326  -18.6320 C   0  0  0  0  0  0  0  0  0  0  0  0
   20.4070   -4.4795  -17.9990 C   0  0  2  0  0  0  0  0  0  0  0  0
   20.2623   -5.7943  -17.4416 N   0  0  0  0  0  0  0  0  0  0  0  0
   20.8613   -3.5125  -16.9679 C   0  0  0  0  0  0  0  0  0  0  0  0
   20.4259   -3.6353  -15.7944 O   0  0  0  0  0  0  0  0  0  0  0  0
   21.7407   -2.4877  -17.2507 O   0  0  0  0  0  0  0  0  0  0  0  0
  2  1  1  6
  2  4  1  0
  3  2  1  0
  4  5  2  0
  6  7  1  0
  7  9  1  0
  8  7  2  0
  9 10  1  0
 11 10  1  1
 11 13  1  0
 12  4  1  0
 12 11  1  0
 13 14  2  0
 16 15  1  0
 16 18  1  0
 17 16  2  0
 19 18  1  1
 19 21  1  0
 20 13  1  0
 20 19  1  0
 21 22  2  0
 21 23  1  0
M  END
$$$$
