AQN.pdb
     RDKit          3D

 23 22  0  0  1  0  0  0  0  0999 V2000
   21.4627  -25.7499  -16.7624 C   0  0  0  0  0  0  0  0  0  0  0  0
   22.9446  -25.3981  -16.8097 C   0  0  2  0  0  0  0  0  0  0  0  0
   23.6279  -26.5007  -16.1327 N   0  0  0  0  0  0  0  0  0  0  0  0
   23.2062  -24.1199  -16.0618 C   0  0  0  0  0  0  0  0  0  0  0  0
   22.6989  -23.8985  -14.9395 O   0  0  0  0  0  0  0  0  0  0  0  0
   26.9867  -17.8199  -16.0211 N   0  0  0  0  0  0  0  0  0  0  0  0
   26.9632  -19.2079  -16.2045 C   0  0  0  0  0  0  0  0  0  0  0  0
   27.8555  -19.7766  -16.8689 O   0  0  0  0  0  0  0  0  0  0  0  0
   25.8520  -19.9955  -15.5919 C   0  0  0  0  0  0  0  0  0  0  0  0
   25.4993  -21.1840  -16.4371 C   0  0  0  0  0  0  0  0  0  0  0  0
   24.3299  -21.9042  -15.8759 C   0  0  2  0  0  0  0  0  0  0  0  0
   24.0429  -23.1273  -16.6190 N   0  0  0  0  0  0  0  0  0  0  0  0
   23.1388  -21.0770  -15.7603 C   0  0  0  0  0  0  0  0  0  0  0  0
   22.3761  -20.7820  -16.6938 O   0  0  0  0  0  0  0  0  0  0  0  0
   19.1654  -18.4698  -13.6025 N   0  0  0  0  0  0  0  0  0  0  0  0
   20.1388  -18.6661  -12.5907 C   0  0  0  0  0  0  0  0  0  0  0  0
   19.8952  -18.2730  -11.4200 O   0  0  0  0  0  0  0  0  0  0  0  0
   21.4426  -19.3192  -12.8533 C   0  0  0  0  0  0  0  0  0  0  0  0
   21.5883  -19.7515  -14.3029 C   0  0  2  0  0  0  0  0  0  0  0  0
   22.7797  -20.5348  -14.4677 N   0  0  0  0  0  0  0  0  0  0  0  0
   21.5931  -18.5790  -15.2139 C   0  0  0  0  0  0  0  0  0  0  0  0
   22.6354  -17.8793  -15.2886 O   0  0  0  0  0  0  0  0  0  0  0  0
   20.4984  -18.2313  -15.9784 O   0  0  0  0  0  0  0  0  0  0  0  0
  2  1  1  1
  2  4  1  0
  3  2  1  0
  4  5  2  0
  6  7  1  0
  7  9  1  0
  8  7  2  0
  9 10  1  0
 11 10  1  6
 11 13  1  0
 12  4  1  0
 12 11  1  0
 13 14  2  0
 16 15  1  0
 16 18  1  0
 17 16  2  0
 19 18  1  1
 19 21  1  0
 20 13  1  0
 20 19  1  0
 21 22  2  0
 21 23  1  0
M  END
$$$$
