AQN.pdb
     RDKit          3D

 23 22  0  0  1  0  0  0  0  0999 V2000
   19.3836  -23.0198  -12.9396 C   0  0  0  0  0  0  0  0  0  0  0  0
   20.6944  -22.6994  -12.2316 C   0  0  2  0  0  0  0  0  0  0  0  0
   20.3359  -22.4795  -10.8301 N   0  0  0  0  0  0  0  0  0  0  0  0
   21.3008  -21.4418  -12.7905 C   0  0  0  0  0  0  0  0  0  0  0  0
   20.9274  -20.3080  -12.4152 O   0  0  0  0  0  0  0  0  0  0  0  0
   26.4584  -21.1488  -16.3072 N   0  0  0  0  0  0  0  0  0  0  0  0
   26.4101  -21.3575  -14.9234 C   0  0  0  0  0  0  0  0  0  0  0  0
   27.4163  -21.7679  -14.3069 O   0  0  0  0  0  0  0  0  0  0  0  0
   25.1340  -21.0811  -14.1985 C   0  0  0  0  0  0  0  0  0  0  0  0
   24.0877  -20.5410  -15.1287 C   0  0  0  0  0  0  0  0  0  0  0  0
   22.8127  -20.3011  -14.4090 C   0  0  2  0  0  0  0  0  0  0  0  0
   22.3202  -21.5153  -13.7658 N   0  0  0  0  0  0  0  0  0  0  0  0
   21.7808  -19.7001  -15.2399 C   0  0  0  0  0  0  0  0  0  0  0  0
   20.8905  -20.3216  -15.8409 O   0  0  0  0  0  0  0  0  0  0  0  0
   17.8901  -15.8435  -16.2695 N   0  0  0  0  0  0  0  0  0  0  0  0
   19.2848  -15.6400  -16.4222 C   0  0  0  0  0  0  0  0  0  0  0  0
   19.6953  -14.8329  -17.2965 O   0  0  0  0  0  0  0  0  0  0  0  0
   20.2896  -16.3427  -15.5905 C   0  0  0  0  0  0  0  0  0  0  0  0
   20.7692  -17.6330  -16.2343 C   0  0  2  0  0  0  0  0  0  0  0  0
   21.7563  -18.2627  -15.4040 N   0  0  0  0  0  0  0  0  0  0  0  0
   21.3017  -17.3858  -17.5981 C   0  0  0  0  0  0  0  0  0  0  0  0
   22.5284  -17.1419  -17.7301 O   0  0  0  0  0  0  0  0  0  0  0  0
   20.5012  -17.4137  -18.7215 O   0  0  0  0  0  0  0  0  0  0  0  0
  2  1  1  6
  2  4  1  0
  3  2  1  0
  4  5  2  0
  6  7  1  0
  7  9  1  0
  8  7  2  0
  9 10  1  0
 11 10  1  6
 11 13  1  0
 12  4  1  0
 12 11  1  0
 13 14  2  0
 16 15  1  0
 16 18  1  0
 17 16  2  0
 19 18  1  1
 19 21  1  0
 20 13  1  0
 20 19  1  0
 21 22  2  0
 21 23  1  0
M  END
$$$$
