AQN.pdb
     RDKit          3D

 23 22  0  0  1  0  0  0  0  0999 V2000
   27.3355  -20.0238  -17.0948 C   0  0  0  0  0  0  0  0  0  0  0  0
   27.8889  -20.7778  -15.8918 C   0  0  2  0  0  0  0  0  0  0  0  0
   28.5549  -21.9574  -16.4449 N   0  0  0  0  0  0  0  0  0  0  0  0
   26.7712  -21.2190  -14.9874 C   0  0  0  0  0  0  0  0  0  0  0  0
   26.0152  -22.1690  -15.2909 O   0  0  0  0  0  0  0  0  0  0  0  0
   26.1920  -20.0541   -8.8171 N   0  0  0  0  0  0  0  0  0  0  0  0
   25.1089  -20.9006   -9.0834 C   0  0  0  0  0  0  0  0  0  0  0  0
   24.4256  -21.3717   -8.1495 O   0  0  0  0  0  0  0  0  0  0  0  0
   24.7860  -21.2302  -10.5038 C   0  0  0  0  0  0  0  0  0  0  0  0
   25.8056  -20.6514  -11.4402 C   0  0  0  0  0  0  0  0  0  0  0  0
   25.5163  -21.0390  -12.8428 C   0  0  2  0  0  0  0  0  0  0  0  0
   26.5479  -20.5602  -13.7578 N   0  0  0  0  0  0  0  0  0  0  0  0
   24.1942  -20.6356  -13.2961 C   0  0  0  0  0  0  0  0  0  0  0  0
   23.8506  -19.4736  -13.5644 O   0  0  0  0  0  0  0  0  0  0  0  0
   18.9139  -22.9550  -15.4561 N   0  0  0  0  0  0  0  0  0  0  0  0
   19.9775  -22.0204  -15.3839 C   0  0  0  0  0  0  0  0  0  0  0  0
   19.7926  -20.8468  -15.7996 O   0  0  0  0  0  0  0  0  0  0  0  0
   21.3095  -22.3680  -14.8360 C   0  0  0  0  0  0  0  0  0  0  0  0
   21.8543  -21.2867  -13.9176 C   0  0  2  0  0  0  0  0  0  0  0  0
   23.1677  -21.6421  -13.4604 N   0  0  0  0  0  0  0  0  0  0  0  0
   20.9404  -21.0456  -12.7725 C   0  0  0  0  0  0  0  0  0  0  0  0
   21.0488  -21.7733  -11.7525 O   0  0  0  0  0  0  0  0  0  0  0  0
   19.9798  -20.0553  -12.7881 O   0  0  0  0  0  0  0  0  0  0  0  0
  2  1  1  6
  2  4  1  0
  3  2  1  0
  4  5  2  0
  6  7  1  0
  7  9  1  0
  8  7  2  0
  9 10  1  0
 11 10  1  1
 11 13  1  0
 12  4  1  0
 12 11  1  0
 13 14  2  0
 16 15  1  0
 16 18  1  0
 17 16  2  0
 19 18  1  6
 19 21  1  0
 20 13  1  0
 20 19  1  0
 21 22  2  0
 21 23  1  0
M  END
$$$$
