AQN.pdb
     RDKit          3D

 23 22  0  0  1  0  0  0  0  0999 V2000
   34.4554  -10.2876  -21.8677 C   0  0  0  0  0  0  0  0  0  0  0  0
   32.9885   -9.8842  -21.9557 C   0  0  2  0  0  0  0  0  0  0  0  0
   32.8841   -9.0570  -23.1581 N   0  0  0  0  0  0  0  0  0  0  0  0
   32.5947   -9.0664  -20.7565 C   0  0  0  0  0  0  0  0  0  0  0  0
   32.9087   -7.8596  -20.6512 O   0  0  0  0  0  0  0  0  0  0  0  0
   27.5965  -10.2855  -17.4218 N   0  0  0  0  0  0  0  0  0  0  0  0
   27.6382   -9.5802  -18.6308 C   0  0  0  0  0  0  0  0  0  0  0  0
   26.5980   -9.4037  -19.3000 O   0  0  0  0  0  0  0  0  0  0  0  0
   28.9486   -9.0435  -19.1053 C   0  0  0  0  0  0  0  0  0  0  0  0
   30.0399   -9.3218  -18.1139 C   0  0  0  0  0  0  0  0  0  0  0  0
   31.3471   -8.8288  -18.6134 C   0  0  2  0  0  0  0  0  0  0  0  0
   31.8510   -9.6523  -19.7081 N   0  0  0  0  0  0  0  0  0  0  0  0
   32.3504   -8.6839  -17.5700 C   0  0  0  0  0  0  0  0  0  0  0  0
   33.0163   -9.6097  -17.0806 O   0  0  0  0  0  0  0  0  0  0  0  0
   35.8053   -6.8045  -14.2587 N   0  0  0  0  0  0  0  0  0  0  0  0
   36.0646   -6.8417  -15.6520 C   0  0  0  0  0  0  0  0  0  0  0  0
   37.2495   -6.7205  -16.0592 O   0  0  0  0  0  0  0  0  0  0  0  0
   34.9922   -7.0179  -16.6590 C   0  0  0  0  0  0  0  0  0  0  0  0
   33.6231   -7.1798  -16.0198 C   0  0  2  0  0  0  0  0  0  0  0  0
   32.6238   -7.3685  -17.0327 N   0  0  0  0  0  0  0  0  0  0  0  0
   33.2930   -6.0165  -15.1581 C   0  0  0  0  0  0  0  0  0  0  0  0
   32.3301   -5.2776  -15.4875 O   0  0  0  0  0  0  0  0  0  0  0  0
   34.0029   -5.7185  -14.0132 O   0  0  0  0  0  0  0  0  0  0  0  0
  2  1  1  1
  2  4  1  0
  3  2  1  0
  4  5  2  0
  6  7  1  0
  7  9  1  0
  8  7  2  0
  9 10  1  0
 11 10  1  1
 11 13  1  0
 12  4  1  0
 12 11  1  0
 13 14  2  0
 16 15  1  0
 16 18  1  0
 17 16  2  0
 19 18  1  6
 19 21  1  0
 20 13  1  0
 20 19  1  0
 21 22  2  0
 21 23  1  0
M  END
$$$$
