AQN.pdb
     RDKit          3D

 23 22  0  0  1  0  0  0  0  0999 V2000
   19.5447  -12.9261  -16.8445 C   0  0  0  0  0  0  0  0  0  0  0  0
   19.3303  -11.5713  -17.5083 C   0  0  2  0  0  0  0  0  0  0  0  0
   20.0988  -11.6219  -18.7524 N   0  0  0  0  0  0  0  0  0  0  0  0
   19.8681  -10.4683  -16.6388 C   0  0  0  0  0  0  0  0  0  0  0  0
   19.3869  -10.2269  -15.5092 O   0  0  0  0  0  0  0  0  0  0  0  0
   25.6071   -9.0710  -15.7581 N   0  0  0  0  0  0  0  0  0  0  0  0
   24.7883   -9.9473  -15.0352 C   0  0  0  0  0  0  0  0  0  0  0  0
   25.2892  -10.8319  -14.3089 O   0  0  0  0  0  0  0  0  0  0  0  0
   23.3060   -9.8052  -15.1489 C   0  0  0  0  0  0  0  0  0  0  0  0
   22.9379   -8.6926  -16.0859 C   0  0  0  0  0  0  0  0  0  0  0  0
   21.4656   -8.5982  -16.2430 C   0  0  2  0  0  0  0  0  0  0  0  0
   20.9440   -9.6694  -17.0861 N   0  0  0  0  0  0  0  0  0  0  0  0
   21.0142   -7.2992  -16.7175 C   0  0  0  0  0  0  0  0  0  0  0  0
   21.1588   -6.8663  -17.8715 O   0  0  0  0  0  0  0  0  0  0  0  0
   18.1342   -3.4653  -18.9345 N   0  0  0  0  0  0  0  0  0  0  0  0
   18.0807   -4.0854  -17.6607 C   0  0  0  0  0  0  0  0  0  0  0  0
   17.3840   -3.5623  -16.7522 O   0  0  0  0  0  0  0  0  0  0  0  0
   18.8162   -5.3332  -17.3490 C   0  0  0  0  0  0  0  0  0  0  0  0
   19.8359   -5.1385  -16.2393 C   0  0  2  0  0  0  0  0  0  0  0  0
   20.3363   -6.4098  -15.7991 N   0  0  0  0  0  0  0  0  0  0  0  0
   19.2555   -4.3749  -15.1059 C   0  0  0  0  0  0  0  0  0  0  0  0
   19.1862   -3.1225  -15.1969 O   0  0  0  0  0  0  0  0  0  0  0  0
   18.7914   -4.9885  -13.9606 O   0  0  0  0  0  0  0  0  0  0  0  0
  2  1  1  1
  2  4  1  0
  3  2  1  0
  4  5  2  0
  6  7  1  0
  7  9  1  0
  8  7  2  0
  9 10  1  0
 11 10  1  6
 11 13  1  0
 12  4  1  0
 12 11  1  0
 13 14  2  0
 16 15  1  0
 16 18  1  0
 17 16  2  0
 19 18  1  6
 19 21  1  0
 20 13  1  0
 20 19  1  0
 21 22  2  0
 21 23  1  0
M  END
$$$$
