AQN.pdb
     RDKit          3D

 23 22  0  0  1  0  0  0  0  0999 V2000
   20.3608  -15.1992  -16.9609 C   0  0  0  0  0  0  0  0  0  0  0  0
   20.7148  -13.9951  -17.8251 C   0  0  2  0  0  0  0  0  0  0  0  0
   21.7862  -14.4531  -18.7102 N   0  0  0  0  0  0  0  0  0  0  0  0
   21.2259  -12.8669  -16.9721 C   0  0  0  0  0  0  0  0  0  0  0  0
   20.7987  -12.6735  -15.8119 O   0  0  0  0  0  0  0  0  0  0  0  0
   27.2706  -11.9880  -15.1505 N   0  0  0  0  0  0  0  0  0  0  0  0
   26.3964  -11.2854  -15.9890 C   0  0  0  0  0  0  0  0  0  0  0  0
   26.8372  -10.4720  -16.8286 O   0  0  0  0  0  0  0  0  0  0  0  0
   24.9281  -11.5262  -15.8608 C   0  0  0  0  0  0  0  0  0  0  0  0
   24.1522  -10.6675  -16.8157 C   0  0  0  0  0  0  0  0  0  0  0  0
   22.6928  -10.8790  -16.6517 C   0  0  2  0  0  0  0  0  0  0  0  0
   22.2139  -11.9886  -17.4702 N   0  0  0  0  0  0  0  0  0  0  0  0
   21.9020   -9.6813  -16.8891 C   0  0  0  0  0  0  0  0  0  0  0  0
   21.5482   -9.2634  -18.0028 O   0  0  0  0  0  0  0  0  0  0  0  0
   18.7545   -5.6271  -16.1238 N   0  0  0  0  0  0  0  0  0  0  0  0
   18.5209   -6.6555  -15.1762 C   0  0  0  0  0  0  0  0  0  0  0  0
   17.5011   -6.5927  -14.4411 O   0  0  0  0  0  0  0  0  0  0  0  0
   19.4334   -7.8112  -15.0115 C   0  0  0  0  0  0  0  0  0  0  0  0
   20.6297   -7.7380  -15.9457 C   0  0  2  0  0  0  0  0  0  0  0  0
   21.4728   -8.8847  -15.7599 N   0  0  0  0  0  0  0  0  0  0  0  0
   21.3918   -6.4799  -15.7430 C   0  0  0  0  0  0  0  0  0  0  0  0
   22.4466   -6.5188  -15.0593 O   0  0  0  0  0  0  0  0  0  0  0  0
   20.9850   -5.2741  -16.2761 O   0  0  0  0  0  0  0  0  0  0  0  0
  2  1  1  1
  2  4  1  0
  3  2  1  0
  4  5  2  0
  6  7  1  0
  7  9  1  0
  8  7  2  0
  9 10  1  0
 11 10  1  6
 11 13  1  0
 12  4  1  0
 12 11  1  0
 13 14  2  0
 16 15  1  0
 16 18  1  0
 17 16  2  0
 19 18  1  1
 19 21  1  0
 20 13  1  0
 20 19  1  0
 21 22  2  0
 21 23  1  0
M  END
$$$$
