CHH.pdb
     RDKit          3D

 27 28  0  0  1  0  0  0  0  0999 V2000
   22.0497  -14.0586  -18.1314 N   0  0  0  0  0  0  0  0  0  0  0  0
   22.3273  -13.3011  -16.9268 C   0  0  1  0  0  0  0  0  0  0  0  0
   23.8395  -13.1307  -16.8383 C   0  0  0  0  0  0  0  0  0  0  0  0
   24.6049  -14.6037  -16.1435 S   0  0  0  0  0  0  0  0  0  0  0  0
   21.6576  -11.9797  -16.9705 C   0  0  0  0  0  0  0  0  0  0  0  0
   21.5669  -11.2874  -18.0068 O   0  0  0  0  0  0  0  0  0  0  0  0
   21.0830  -11.4487  -15.7976 N   0  0  0  0  0  0  0  0  0  0  0  0
   20.3282  -10.2383  -15.7297 C   0  0  1  0  0  0  0  0  0  0  0  0
   19.2484  -10.1902  -14.7141 C   0  0  0  0  0  0  0  0  0  0  0  0
   18.1052  -11.0150  -15.1745 C   0  0  0  0  0  0  0  0  0  0  0  0
   17.8512  -11.3551  -16.4858 C   0  0  0  0  0  0  0  0  0  0  0  0
   16.7383  -12.1112  -16.5580 N   0  0  0  0  0  0  0  0  0  0  0  0
   16.2969  -12.2441  -15.2954 C   0  0  0  0  0  0  0  0  0  0  0  0
   17.1176  -11.5867  -14.4701 N   0  0  0  0  0  0  0  0  0  0  0  0
   21.2910   -9.1416  -15.4648 C   0  0  0  0  0  0  0  0  0  0  0  0
   22.1730   -9.3310  -14.5997 O   0  0  0  0  0  0  0  0  0  0  0  0
   21.2597   -7.9007  -16.1386 N   0  0  0  0  0  0  0  0  0  0  0  0
   22.3311   -6.8921  -15.9410 C   0  0  1  0  0  0  0  0  0  0  0  0
   22.5631   -6.1548  -17.2161 C   0  0  0  0  0  0  0  0  0  0  0  0
   23.5086   -5.0336  -17.1030 C   0  0  0  0  0  0  0  0  0  0  0  0
   24.9056   -5.1717  -17.1615 C   0  0  0  0  0  0  0  0  0  0  0  0
   25.4712   -3.9634  -17.0263 N   0  0  0  0  0  0  0  0  0  0  0  0
   24.4910   -3.0565  -16.8835 C   0  0  0  0  0  0  0  0  0  0  0  0
   23.3160   -3.7136  -16.9315 N   0  0  0  0  0  0  0  0  0  0  0  0
   21.8216   -5.9913  -14.8882 C   0  0  0  0  0  0  0  0  0  0  0  0
   22.7322   -5.3277  -14.0439 O   0  0  0  0  0  0  0  0  0  0  0  0
   20.5932   -5.8064  -14.7321 O   0  0  0  0  0  0  0  0  0  0  0  0
  2  1  1  6
  2  5  1  0
  3  4  1  0
  3  2  1  0
  5  6  2  0
  5  7  1  0
  7  8  1  0
  8 15  1  0
  8  9  1  1
 10  9  1  0
 10 11  2  0
 12 11  1  0
 13 14  2  0
 13 12  1  0
 14 10  1  0
 15 16  2  0
 17 18  1  0
 17 15  1  0
 19 20  1  0
 18 19  1  6
 20 24  1  0
 21 20  2  0
 21 22  1  0
 22 23  1  0
 24 23  2  0
 25 26  1  0
 25 18  1  0
 27 25  2  0
M  END
$$$$
