CHH.pdb
     RDKit          3D

 27 28  0  0  1  0  0  0  0  0999 V2000
   33.1023   -9.6858  -20.5353 N   0  0  0  0  0  0  0  0  0  0  0  0
   32.4096   -9.2965  -19.3227 C   0  0  1  0  0  0  0  0  0  0  0  0
   32.0621   -7.8182  -19.4553 C   0  0  0  0  0  0  0  0  0  0  0  0
   33.5568   -6.8216  -19.5607 S   0  0  0  0  0  0  0  0  0  0  0  0
   31.1808  -10.1039  -19.1367 C   0  0  0  0  0  0  0  0  0  0  0  0
   30.6751  -10.8062  -20.0380 O   0  0  0  0  0  0  0  0  0  0  0  0
   30.5249  -10.1003  -17.8886 N   0  0  0  0  0  0  0  0  0  0  0  0
   29.4313  -10.9477  -17.5346 C   0  0  1  0  0  0  0  0  0  0  0  0
   29.7286  -12.0458  -16.5830 C   0  0  0  0  0  0  0  0  0  0  0  0
   28.5059  -12.8587  -16.3747 C   0  0  0  0  0  0  0  0  0  0  0  0
   28.0005  -13.7736  -17.2732 C   0  0  0  0  0  0  0  0  0  0  0  0
   26.8827  -14.3381  -16.7757 N   0  0  0  0  0  0  0  0  0  0  0  0
   26.6891  -13.7782  -15.5692 C   0  0  0  0  0  0  0  0  0  0  0  0
   27.6625  -12.8932  -15.3326 N   0  0  0  0  0  0  0  0  0  0  0  0
   28.3787  -10.0777  -16.9559 C   0  0  0  0  0  0  0  0  0  0  0  0
   28.7013   -9.3025  -16.0301 O   0  0  0  0  0  0  0  0  0  0  0  0
   27.0372  -10.0826  -17.3976 N   0  0  0  0  0  0  0  0  0  0  0  0
   26.0113   -9.2288  -16.7474 C   0  0  1  0  0  0  0  0  0  0  0  0
   25.2858   -8.4424  -17.7861 C   0  0  0  0  0  0  0  0  0  0  0  0
   24.1388   -7.6771  -17.2739 C   0  0  0  0  0  0  0  0  0  0  0  0
   24.1277   -6.2804  -17.1222 C   0  0  0  0  0  0  0  0  0  0  0  0
   22.9372   -5.9023  -16.6345 N   0  0  0  0  0  0  0  0  0  0  0  0
   22.1850   -7.0023  -16.4677 C   0  0  0  0  0  0  0  0  0  0  0  0
   22.9198   -8.0625  -16.8560 N   0  0  0  0  0  0  0  0  0  0  0  0
   25.1054  -10.1713  -16.0615 C   0  0  0  0  0  0  0  0  0  0  0  0
   24.2658   -9.7013  -15.0335 O   0  0  0  0  0  0  0  0  0  0  0  0
   25.0699  -11.3822  -16.3774 O   0  0  0  0  0  0  0  0  0  0  0  0
  2  1  1  6
  2  5  1  0
  3  4  1  0
  3  2  1  0
  5  6  2  0
  5  7  1  0
  7  8  1  0
  8 15  1  0
  8  9  1  1
 10  9  1  0
 10 11  2  0
 12 11  1  0
 13 14  2  0
 13 12  1  0
 14 10  1  0
 15 16  2  0
 17 18  1  0
 17 15  1  0
 19 20  1  0
 18 19  1  6
 20 24  1  0
 21 20  2  0
 21 22  1  0
 22 23  1  0
 24 23  2  0
 25 26  1  0
 25 18  1  0
 27 25  2  0
M  END
$$$$
