CHH.pdb
     RDKit          3D

 27 28  0  0  1  0  0  0  0  0999 V2000
   32.5647  -39.1491   -8.0866 N   0  0  0  0  0  0  0  0  0  0  0  0
   31.5334  -38.6370   -7.2056 C   0  0  1  0  0  0  0  0  0  0  0  0
   30.8713  -39.8373   -6.5390 C   0  0  0  0  0  0  0  0  0  0  0  0
   29.7540  -40.6627   -7.6830 S   0  0  0  0  0  0  0  0  0  0  0  0
   32.1145  -37.7320   -6.1859 C   0  0  0  0  0  0  0  0  0  0  0  0
   33.2088  -37.9433   -5.6209 O   0  0  0  0  0  0  0  0  0  0  0  0
   31.4201  -36.5632   -5.8123 N   0  0  0  0  0  0  0  0  0  0  0  0
   31.8831  -35.6027   -4.8623 C   0  0  1  0  0  0  0  0  0  0  0  0
   31.4099  -34.2094   -5.0486 C   0  0  0  0  0  0  0  0  0  0  0  0
   32.2705  -33.5287   -6.0463 C   0  0  0  0  0  0  0  0  0  0  0  0
   33.3764  -34.0869   -6.6506 C   0  0  0  0  0  0  0  0  0  0  0  0
   33.9293  -33.2035   -7.5047 N   0  0  0  0  0  0  0  0  0  0  0  0
   33.1716  -32.0954   -7.4353 C   0  0  0  0  0  0  0  0  0  0  0  0
   32.1797  -32.2938   -6.5614 N   0  0  0  0  0  0  0  0  0  0  0  0
   31.4634  -36.0812   -3.5227 C   0  0  0  0  0  0  0  0  0  0  0  0
   30.3369  -36.6119   -3.4153 O   0  0  0  0  0  0  0  0  0  0  0  0
   32.2701  -35.9669   -2.3691 N   0  0  0  0  0  0  0  0  0  0  0  0
   31.7776  -36.4098   -1.0404 C   0  0  1  0  0  0  0  0  0  0  0  0
   32.8847  -36.3261   -0.0449 C   0  0  0  0  0  0  0  0  0  0  0  0
   32.5176  -36.7748    1.3070 C   0  0  0  0  0  0  0  0  0  0  0  0
   31.7917  -37.9466    1.5785 C   0  0  0  0  0  0  0  0  0  0  0  0
   31.6271  -38.0627    2.9043 N   0  0  0  0  0  0  0  0  0  0  0  0
   32.2194  -37.0108    3.4928 C   0  0  0  0  0  0  0  0  0  0  0  0
   32.7509  -36.2444    2.5208 N   0  0  0  0  0  0  0  0  0  0  0  0
   30.6853  -35.4753   -0.7042 C   0  0  0  0  0  0  0  0  0  0  0  0
   29.6611  -35.8916    0.1677 O   0  0  0  0  0  0  0  0  0  0  0  0
   30.6528  -34.3180   -1.1809 O   0  0  0  0  0  0  0  0  0  0  0  0
  2  1  1  6
  2  5  1  0
  3  4  1  0
  3  2  1  0
  5  6  2  0
  5  7  1  0
  7  8  1  0
  8 15  1  0
  8  9  1  6
 10  9  1  0
 10 11  2  0
 12 11  1  0
 13 14  2  0
 13 12  1  0
 14 10  1  0
 15 16  2  0
 17 18  1  0
 17 15  1  0
 19 20  1  0
 18 19  1  1
 20 24  1  0
 21 20  2  0
 21 22  1  0
 22 23  1  0
 24 23  2  0
 25 26  1  0
 25 18  1  0
 27 25  2  0
M  END
$$$$
