CHH.pdb
     RDKit          3D

 27 28  0  0  1  0  0  0  0  0999 V2000
   25.4179  -12.0755  -20.7290 N   0  0  0  0  0  0  0  0  0  0  0  0
   24.1982  -11.9567  -19.9544 C   0  0  1  0  0  0  0  0  0  0  0  0
   24.3708  -12.8130  -18.7051 C   0  0  0  0  0  0  0  0  0  0  0  0
   24.2837  -14.5625  -19.1175 S   0  0  0  0  0  0  0  0  0  0  0  0
   23.9454  -10.5440  -19.5845 C   0  0  0  0  0  0  0  0  0  0  0  0
   24.8492   -9.7453  -19.2578 O   0  0  0  0  0  0  0  0  0  0  0  0
   22.6267  -10.0452  -19.5921 N   0  0  0  0  0  0  0  0  0  0  0  0
   22.2469   -8.7258  -19.1989 C   0  0  1  0  0  0  0  0  0  0  0  0
   21.4162   -7.9636  -20.1627 C   0  0  0  0  0  0  0  0  0  0  0  0
   22.2156   -7.6750  -21.3780 C   0  0  0  0  0  0  0  0  0  0  0  0
   23.1621   -6.6788  -21.4852 C   0  0  0  0  0  0  0  0  0  0  0  0
   23.7028   -6.6885  -22.7194 N   0  0  0  0  0  0  0  0  0  0  0  0
   23.0965   -7.6881  -23.3828 C   0  0  0  0  0  0  0  0  0  0  0  0
   22.2070   -8.2762  -22.5766 N   0  0  0  0  0  0  0  0  0  0  0  0
   21.5100   -8.8507  -17.9178 C   0  0  0  0  0  0  0  0  0  0  0  0
   21.1954   -9.9969  -17.5310 O   0  0  0  0  0  0  0  0  0  0  0  0
   21.1486   -7.7440  -17.1184 N   0  0  0  0  0  0  0  0  0  0  0  0
   20.5086   -7.9309  -15.7919 C   0  0  1  0  0  0  0  0  0  0  0  0
   21.4404   -8.6640  -14.8875 C   0  0  0  0  0  0  0  0  0  0  0  0
   20.9365   -8.8445  -13.5174 C   0  0  0  0  0  0  0  0  0  0  0  0
   19.6530   -8.4621  -13.0930 C   0  0  0  0  0  0  0  0  0  0  0  0
   19.5130   -8.7646  -11.7941 N   0  0  0  0  0  0  0  0  0  0  0  0
   20.6569   -9.3260  -11.3697 C   0  0  0  0  0  0  0  0  0  0  0  0
   21.5043   -9.3679  -12.4161 N   0  0  0  0  0  0  0  0  0  0  0  0
   20.2466   -6.5654  -15.2956 C   0  0  0  0  0  0  0  0  0  0  0  0
   19.0885   -6.3151  -14.5350 O   0  0  0  0  0  0  0  0  0  0  0  0
   21.0361   -5.6248  -15.5391 O   0  0  0  0  0  0  0  0  0  0  0  0
  2  1  1  6
  2  5  1  0
  3  4  1  0
  3  2  1  0
  5  6  2  0
  5  7  1  0
  7  8  1  0
  8 15  1  0
  8  9  1  6
 10  9  1  0
 10 11  2  0
 12 11  1  0
 13 14  2  0
 13 12  1  0
 14 10  1  0
 15 16  2  0
 17 18  1  0
 17 15  1  0
 19 20  1  0
 18 19  1  1
 20 24  1  0
 21 20  2  0
 21 22  1  0
 22 23  1  0
 24 23  2  0
 25 26  1  0
 25 18  1  0
 27 25  2  0
M  END
$$$$
