CHH.pdb
     RDKit          3D

 27 28  0  0  1  0  0  0  0  0999 V2000
   25.7783  -15.3609  -16.8739 N   0  0  0  0  0  0  0  0  0  0  0  0
   25.4125  -14.3924  -15.8591 C   0  0  1  0  0  0  0  0  0  0  0  0
   26.6523  -13.5559  -15.5646 C   0  0  0  0  0  0  0  0  0  0  0  0
   28.0049  -14.6013  -15.0026 S   0  0  0  0  0  0  0  0  0  0  0  0
   24.3040  -13.5293  -16.3310 C   0  0  0  0  0  0  0  0  0  0  0  0
   24.0488  -13.3347  -17.5387 O   0  0  0  0  0  0  0  0  0  0  0  0
   23.4761  -12.8800  -15.3925 N   0  0  0  0  0  0  0  0  0  0  0  0
   22.3474  -12.0679  -15.7182 C   0  0  1  0  0  0  0  0  0  0  0  0
   21.0503  -12.4718  -15.1229 C   0  0  0  0  0  0  0  0  0  0  0  0
   20.6121  -13.7538  -15.7259 C   0  0  0  0  0  0  0  0  0  0  0  0
   20.5104  -13.9991  -17.0783 C   0  0  0  0  0  0  0  0  0  0  0  0
   20.0863  -15.2610  -17.2867 N   0  0  0  0  0  0  0  0  0  0  0  0
   19.9230  -15.8040  -16.0680 C   0  0  0  0  0  0  0  0  0  0  0  0
   20.2387  -14.8990  -15.1363 N   0  0  0  0  0  0  0  0  0  0  0  0
   22.6687  -10.6860  -15.2862 C   0  0  0  0  0  0  0  0  0  0  0  0
   22.9772  -10.5020  -14.0890 O   0  0  0  0  0  0  0  0  0  0  0  0
   22.6432   -9.5741  -16.1568 N   0  0  0  0  0  0  0  0  0  0  0  0
   22.9085   -8.2014  -15.6575 C   0  0  1  0  0  0  0  0  0  0  0  0
   23.5374   -7.3902  -16.7392 C   0  0  0  0  0  0  0  0  0  0  0  0
   24.9057   -7.8031  -17.0871 C   0  0  0  0  0  0  0  0  0  0  0  0
   25.6712   -8.7087  -16.3337 C   0  0  0  0  0  0  0  0  0  0  0  0
   26.8661   -8.8672  -16.9215 N   0  0  0  0  0  0  0  0  0  0  0  0
   26.8959   -8.0983  -18.0222 C   0  0  0  0  0  0  0  0  0  0  0  0
   25.7107   -7.4639  -18.1098 N   0  0  0  0  0  0  0  0  0  0  0  0
   21.5840   -7.6639  -15.2882 C   0  0  0  0  0  0  0  0  0  0  0  0
   21.5018   -6.4474  -14.5841 O   0  0  0  0  0  0  0  0  0  0  0  0
   20.5313   -8.2707  -15.5900 O   0  0  0  0  0  0  0  0  0  0  0  0
  2  1  1  6
  2  5  1  0
  3  4  1  0
  3  2  1  0
  5  6  2  0
  5  7  1  0
  7  8  1  0
  8 15  1  0
  8  9  1  1
 10  9  1  0
 10 11  2  0
 12 11  1  0
 13 14  2  0
 13 12  1  0
 14 10  1  0
 15 16  2  0
 17 18  1  0
 17 15  1  0
 19 20  1  0
 18 19  1  6
 20 24  1  0
 21 20  2  0
 21 22  1  0
 22 23  1  0
 24 23  2  0
 25 26  1  0
 25 18  1  0
 27 25  2  0
M  END
$$$$
