CHH.pdb
     RDKit          3D

 27 28  0  0  1  0  0  0  0  0999 V2000
   26.8071  -28.8664  -18.5669 N   0  0  0  0  0  0  0  0  0  0  0  0
   26.5263  -29.0403  -17.1553 C   0  0  1  0  0  0  0  0  0  0  0  0
   27.7495  -29.6997  -16.5288 C   0  0  0  0  0  0  0  0  0  0  0  0
   28.8918  -30.2583  -17.8021 S   0  0  0  0  0  0  0  0  0  0  0  0
   26.2518  -27.7353  -16.5089 C   0  0  0  0  0  0  0  0  0  0  0  0
   26.0471  -27.6032  -15.2833 O   0  0  0  0  0  0  0  0  0  0  0  0
   26.2131  -26.5628  -17.2910 N   0  0  0  0  0  0  0  0  0  0  0  0
   25.9634  -25.2496  -16.7882 C   0  0  1  0  0  0  0  0  0  0  0  0
   26.7336  -24.1466  -17.4127 C   0  0  0  0  0  0  0  0  0  0  0  0
   28.1741  -24.3189  -17.1050 C   0  0  0  0  0  0  0  0  0  0  0  0
   28.6978  -25.2971  -16.2875 C   0  0  0  0  0  0  0  0  0  0  0  0
   30.0380  -25.1734  -16.2221 N   0  0  0  0  0  0  0  0  0  0  0  0
   30.3522  -24.1207  -16.9966 C   0  0  0  0  0  0  0  0  0  0  0  0
   29.2340  -23.6119  -17.5234 N   0  0  0  0  0  0  0  0  0  0  0  0
   24.5141  -24.9872  -16.9626 C   0  0  0  0  0  0  0  0  0  0  0  0
   23.9649  -25.3976  -18.0076 O   0  0  0  0  0  0  0  0  0  0  0  0
   23.7290  -24.3000  -16.0107 N   0  0  0  0  0  0  0  0  0  0  0  0
   22.2665  -24.1291  -16.2007 C   0  0  1  0  0  0  0  0  0  0  0  0
   21.5801  -24.2019  -14.8789 C   0  0  0  0  0  0  0  0  0  0  0  0
   21.4310  -25.5661  -14.3492 C   0  0  0  0  0  0  0  0  0  0  0  0
   21.7745  -26.7290  -15.0588 C   0  0  0  0  0  0  0  0  0  0  0  0
   21.5164  -27.8005  -14.2950 N   0  0  0  0  0  0  0  0  0  0  0  0
   21.0208  -27.3694  -13.1235 C   0  0  0  0  0  0  0  0  0  0  0  0
   20.9748  -26.0238  -13.1697 N   0  0  0  0  0  0  0  0  0  0  0  0
   22.1116  -22.7934  -16.8100 C   0  0  0  0  0  0  0  0  0  0  0  0
   20.8448  -22.3836  -17.2682 O   0  0  0  0  0  0  0  0  0  0  0  0
   23.0871  -22.0173  -16.9271 O   0  0  0  0  0  0  0  0  0  0  0  0
  2  1  1  6
  2  5  1  0
  3  4  1  0
  3  2  1  0
  5  6  2  0
  5  7  1  0
  7  8  1  0
  8 15  1  0
  8  9  1  6
 10  9  1  0
 10 11  2  0
 12 11  1  0
 13 14  2  0
 13 12  1  0
 14 10  1  0
 15 16  2  0
 17 18  1  0
 17 15  1  0
 19 20  1  0
 18 19  1  1
 20 24  1  0
 21 20  2  0
 21 22  1  0
 22 23  1  0
 24 23  2  0
 25 26  1  0
 25 18  1  0
 27 25  2  0
M  END
$$$$
