CHH.pdb
     RDKit          3D

 27 28  0  0  1  0  0  0  0  0999 V2000
   34.6543  -31.5971  -14.5020 N   0  0  0  0  0  0  0  0  0  0  0  0
   35.6976  -32.5899  -14.6681 C   0  0  1  0  0  0  0  0  0  0  0  0
   36.9001  -32.1222  -13.8563 C   0  0  0  0  0  0  0  0  0  0  0  0
   37.6738  -30.6948  -14.6324 S   0  0  0  0  0  0  0  0  0  0  0  0
   35.2390  -33.9185  -14.1981 C   0  0  0  0  0  0  0  0  0  0  0  0
   34.2399  -34.0829  -13.4659 O   0  0  0  0  0  0  0  0  0  0  0  0
   35.9462  -35.0769  -14.5802 N   0  0  0  0  0  0  0  0  0  0  0  0
   35.5781  -36.4131  -14.2359 C   0  0  1  0  0  0  0  0  0  0  0  0
   35.9084  -37.4648  -15.2282 C   0  0  0  0  0  0  0  0  0  0  0  0
   35.0170  -37.3257  -16.4052 C   0  0  0  0  0  0  0  0  0  0  0  0
   33.7948  -36.6887  -16.4022 C   0  0  0  0  0  0  0  0  0  0  0  0
   33.2457  -36.7404  -17.6316 N   0  0  0  0  0  0  0  0  0  0  0  0
   34.1219  -37.4079  -18.4020 C   0  0  0  0  0  0  0  0  0  0  0  0
   35.1808  -37.7566  -17.6645 N   0  0  0  0  0  0  0  0  0  0  0  0
   36.2500  -36.7306  -12.9524 C   0  0  0  0  0  0  0  0  0  0  0  0
   37.1175  -35.9353  -12.5315 O   0  0  0  0  0  0  0  0  0  0  0  0
   35.9590  -37.8814  -12.1870 N   0  0  0  0  0  0  0  0  0  0  0  0
   36.6410  -38.1361  -10.8931 C   0  0  1  0  0  0  0  0  0  0  0  0
   36.2933  -37.0564   -9.9252 C   0  0  0  0  0  0  0  0  0  0  0  0
   36.7458  -37.3095   -8.5486 C   0  0  0  0  0  0  0  0  0  0  0  0
   37.9946  -37.8622   -8.2186 C   0  0  0  0  0  0  0  0  0  0  0  0
   38.0915  -37.9600   -6.8847 N   0  0  0  0  0  0  0  0  0  0  0  0
   36.9534  -37.4915   -6.3472 C   0  0  0  0  0  0  0  0  0  0  0  0
   36.1530  -37.1037   -7.3590 N   0  0  0  0  0  0  0  0  0  0  0  0
   36.1296  -39.4447  -10.4400 C   0  0  0  0  0  0  0  0  0  0  0  0
   34.7537  -39.7247  -10.5444 O   0  0  0  0  0  0  0  0  0  0  0  0
   36.8978  -40.3111   -9.9640 O   0  0  0  0  0  0  0  0  0  0  0  0
  2  1  1  1
  2  5  1  0
  3  4  1  0
  3  2  1  0
  5  6  2  0
  5  7  1  0
  7  8  1  0
  8 15  1  0
  8  9  1  6
 10  9  1  0
 10 11  2  0
 12 11  1  0
 13 14  2  0
 13 12  1  0
 14 10  1  0
 15 16  2  0
 17 18  1  0
 17 15  1  0
 19 20  1  0
 18 19  1  1
 20 24  1  0
 21 20  2  0
 21 22  1  0
 22 23  1  0
 24 23  2  0
 25 26  1  0
 25 18  1  0
 27 25  2  0
M  END
$$$$
