CHH.pdb
     RDKit          3D

 27 28  0  0  1  0  0  0  0  0999 V2000
   27.8492  -12.2665  -17.0848 N   0  0  0  0  0  0  0  0  0  0  0  0
   27.1925  -11.1671  -16.4053 C   0  0  1  0  0  0  0  0  0  0  0  0
   27.7453   -9.8753  -16.9964 C   0  0  0  0  0  0  0  0  0  0  0  0
   29.5004   -9.7114  -16.6341 S   0  0  0  0  0  0  0  0  0  0  0  0
   25.7238  -11.2361  -16.5911 C   0  0  0  0  0  0  0  0  0  0  0  0
   25.1802  -11.6954  -17.6182 O   0  0  0  0  0  0  0  0  0  0  0  0
   24.8681  -10.7667  -15.5735 N   0  0  0  0  0  0  0  0  0  0  0  0
   23.4413  -10.7790  -15.6315 C   0  0  1  0  0  0  0  0  0  0  0  0
   22.7580  -11.8335  -14.8435 C   0  0  0  0  0  0  0  0  0  0  0  0
   21.2944  -11.7387  -15.0629 C   0  0  0  0  0  0  0  0  0  0  0  0
   20.6493  -12.0396  -16.2431 C   0  0  0  0  0  0  0  0  0  0  0  0
   19.3227  -11.8485  -16.1043 N   0  0  0  0  0  0  0  0  0  0  0  0
   19.1380  -11.4291  -14.8407 C   0  0  0  0  0  0  0  0  0  0  0  0
   20.3203  -11.3647  -14.2205 N   0  0  0  0  0  0  0  0  0  0  0  0
   22.9772   -9.4495  -15.1656 C   0  0  0  0  0  0  0  0  0  0  0  0
   23.3910   -9.0375  -14.0605 O   0  0  0  0  0  0  0  0  0  0  0  0
   22.0955   -8.6313  -15.9057 N   0  0  0  0  0  0  0  0  0  0  0  0
   21.6888   -7.2931  -15.4075 C   0  0  1  0  0  0  0  0  0  0  0  0
   21.4855   -6.3717  -16.5621 C   0  0  0  0  0  0  0  0  0  0  0  0
   21.1024   -5.0029  -16.1835 C   0  0  0  0  0  0  0  0  0  0  0  0
   21.8391   -4.1935  -15.3026 C   0  0  0  0  0  0  0  0  0  0  0  0
   21.2198   -3.0113  -15.1724 N   0  0  0  0  0  0  0  0  0  0  0  0
   20.1149   -3.0317  -15.9357 C   0  0  0  0  0  0  0  0  0  0  0  0
   20.0565   -4.2352  -16.5380 N   0  0  0  0  0  0  0  0  0  0  0  0
   20.4258   -7.5221  -14.6781 C   0  0  0  0  0  0  0  0  0  0  0  0
   20.2429   -6.9390  -13.4096 O   0  0  0  0  0  0  0  0  0  0  0  0
   19.5134   -8.2260  -15.1674 O   0  0  0  0  0  0  0  0  0  0  0  0
  2  1  1  6
  2  5  1  0
  3  4  1  0
  3  2  1  0
  5  6  2  0
  5  7  1  0
  7  8  1  0
  8 15  1  0
  8  9  1  1
 10  9  1  0
 10 11  2  0
 12 11  1  0
 13 14  2  0
 13 12  1  0
 14 10  1  0
 15 16  2  0
 17 18  1  0
 17 15  1  0
 19 20  1  0
 18 19  1  6
 20 24  1  0
 21 20  2  0
 21 22  1  0
 22 23  1  0
 24 23  2  0
 25 26  1  0
 25 18  1  0
 27 25  2  0
M  END
$$$$
