CHH.pdb
     RDKit          3D

 27 28  0  0  1  0  0  0  0  0999 V2000
   38.6501   -5.1325   -9.0747 N   0  0  0  0  0  0  0  0  0  0  0  0
   39.9208   -5.7836   -9.3261 C   0  0  1  0  0  0  0  0  0  0  0  0
   40.9894   -4.6967   -9.3474 C   0  0  0  0  0  0  0  0  0  0  0  0
   40.8206   -3.6690  -10.8149 S   0  0  0  0  0  0  0  0  0  0  0  0
   40.2174   -6.7827   -8.2724 C   0  0  0  0  0  0  0  0  0  0  0  0
   39.8172   -6.6795   -7.0932 O   0  0  0  0  0  0  0  0  0  0  0  0
   40.9894   -7.9201   -8.5857 N   0  0  0  0  0  0  0  0  0  0  0  0
   41.3620   -8.9394   -7.6574 C   0  0  1  0  0  0  0  0  0  0  0  0
   40.9162  -10.3175   -7.9766 C   0  0  0  0  0  0  0  0  0  0  0  0
   39.5358  -10.5155   -7.4720 C   0  0  0  0  0  0  0  0  0  0  0  0
   38.8156   -9.5879   -6.7505 C   0  0  0  0  0  0  0  0  0  0  0  0
   37.5988  -10.0825   -6.4498 N   0  0  0  0  0  0  0  0  0  0  0  0
   37.5575  -11.3163   -6.9817 C   0  0  0  0  0  0  0  0  0  0  0  0
   38.7186  -11.5719   -7.5927 N   0  0  0  0  0  0  0  0  0  0  0  0
   42.8420   -8.9192   -7.5627 C   0  0  0  0  0  0  0  0  0  0  0  0
   43.4827   -8.3900   -8.4962 O   0  0  0  0  0  0  0  0  0  0  0  0
   43.5583   -9.4659   -6.4752 N   0  0  0  0  0  0  0  0  0  0  0  0
   44.9777   -9.1051   -6.2312 C   0  0  1  0  0  0  0  0  0  0  0  0
   45.0979   -7.6262   -6.0830 C   0  0  0  0  0  0  0  0  0  0  0  0
   46.4734   -7.1493   -5.8730 C   0  0  0  0  0  0  0  0  0  0  0  0
   47.6039   -7.7050   -6.4951 C   0  0  0  0  0  0  0  0  0  0  0  0
   48.6970   -7.0421   -6.0902 N   0  0  0  0  0  0  0  0  0  0  0  0
   48.3109   -6.0832   -5.2327 C   0  0  0  0  0  0  0  0  0  0  0  0
   46.9714   -6.1589   -5.1112 N   0  0  0  0  0  0  0  0  0  0  0  0
   45.3409   -9.7986   -4.9796 C   0  0  0  0  0  0  0  0  0  0  0  0
   46.6463  -10.3016   -4.8200 O   0  0  0  0  0  0  0  0  0  0  0  0
   44.5085   -9.9479   -4.0563 O   0  0  0  0  0  0  0  0  0  0  0  0
  2  1  1  1
  2  5  1  0
  3  4  1  0
  3  2  1  0
  5  6  2  0
  5  7  1  0
  7  8  1  0
  8 15  1  0
  8  9  1  6
 10  9  1  0
 10 11  2  0
 12 11  1  0
 13 14  2  0
 13 12  1  0
 14 10  1  0
 15 16  2  0
 17 18  1  0
 17 15  1  0
 19 20  1  0
 18 19  1  1
 20 24  1  0
 21 20  2  0
 21 22  1  0
 22 23  1  0
 24 23  2  0
 25 26  1  0
 25 18  1  0
 27 25  2  0
M  END
$$$$
