CHH.pdb
     RDKit          3D

 27 28  0  0  1  0  0  0  0  0999 V2000
   15.9333  -22.0969    1.7521 N   0  0  0  0  0  0  0  0  0  0  0  0
   15.6855  -21.5210    3.0593 C   0  0  1  0  0  0  0  0  0  0  0  0
   15.8263  -22.6428    4.0816 C   0  0  0  0  0  0  0  0  0  0  0  0
   14.6561  -23.9659    3.7378 S   0  0  0  0  0  0  0  0  0  0  0  0
   16.6502  -20.4331    3.3461 C   0  0  0  0  0  0  0  0  0  0  0  0
   17.8510  -20.4690    3.0024 O   0  0  0  0  0  0  0  0  0  0  0  0
   16.2209  -19.2843    4.0418 N   0  0  0  0  0  0  0  0  0  0  0  0
   17.0267  -18.1342    4.3015 C   0  0  1  0  0  0  0  0  0  0  0  0
   16.3034  -16.8591    4.5265 C   0  0  0  0  0  0  0  0  0  0  0  0
   17.0220  -15.7597    3.8378 C   0  0  0  0  0  0  0  0  0  0  0  0
   18.1994  -15.9009    3.1354 C   0  0  0  0  0  0  0  0  0  0  0  0
   18.5821  -14.7102    2.6341 N   0  0  0  0  0  0  0  0  0  0  0  0
   17.6467  -13.8261    3.0216 C   0  0  0  0  0  0  0  0  0  0  0  0
   16.7145  -14.4579    3.7418 N   0  0  0  0  0  0  0  0  0  0  0  0
   17.8484  -18.4419    5.4973 C   0  0  0  0  0  0  0  0  0  0  0  0
   17.3555  -19.1854    6.3728 O   0  0  0  0  0  0  0  0  0  0  0  0
   19.1533  -17.9386    5.6937 N   0  0  0  0  0  0  0  0  0  0  0  0
   19.8875  -18.1813    6.9611 C   0  0  1  0  0  0  0  0  0  0  0  0
   21.3252  -17.8295    6.7797 C   0  0  0  0  0  0  0  0  0  0  0  0
   22.1253  -17.9005    8.0119 C   0  0  0  0  0  0  0  0  0  0  0  0
   21.6074  -18.2561    9.2686 C   0  0  0  0  0  0  0  0  0  0  0  0
   22.5954  -18.2236   10.1747 N   0  0  0  0  0  0  0  0  0  0  0  0
   23.7262  -17.8610    9.5476 C   0  0  0  0  0  0  0  0  0  0  0  0
   23.4293  -17.6699    8.2476 N   0  0  0  0  0  0  0  0  0  0  0  0
   19.2429  -17.2991    7.9539 C   0  0  0  0  0  0  0  0  0  0  0  0
   19.0329  -17.7683    9.2647 O   0  0  0  0  0  0  0  0  0  0  0  0
   18.8791  -16.1400    7.6512 O   0  0  0  0  0  0  0  0  0  0  0  0
  2  1  1  6
  2  5  1  0
  3  4  1  0
  3  2  1  0
  5  6  2  0
  5  7  1  0
  7  8  1  0
  8 15  1  0
  8  9  1  1
 10  9  1  0
 10 11  2  0
 12 11  1  0
 13 14  2  0
 13 12  1  0
 14 10  1  0
 15 16  2  0
 17 18  1  0
 17 15  1  0
 19 20  1  0
 18 19  1  6
 20 24  1  0
 21 20  2  0
 21 22  1  0
 22 23  1  0
 24 23  2  0
 25 26  1  0
 25 18  1  0
 27 25  2  0
M  END
$$$$
