CHH.pdb
     RDKit          3D

 27 28  0  0  1  0  0  0  0  0999 V2000
   25.2327  -18.5438  -17.0912 N   0  0  0  0  0  0  0  0  0  0  0  0
   24.1972  -18.1205  -16.1690 C   0  0  1  0  0  0  0  0  0  0  0  0
   23.2643  -17.1886  -16.9337 C   0  0  0  0  0  0  0  0  0  0  0  0
   22.3502  -18.0961  -18.1904 S   0  0  0  0  0  0  0  0  0  0  0  0
   23.4499  -19.2882  -15.6453 C   0  0  0  0  0  0  0  0  0  0  0  0
   23.5181  -20.4308  -16.1465 O   0  0  0  0  0  0  0  0  0  0  0  0
   22.6093  -19.1338  -14.5239 N   0  0  0  0  0  0  0  0  0  0  0  0
   21.8740  -20.1867  -13.8992 C   0  0  1  0  0  0  0  0  0  0  0  0
   21.9883  -20.2861  -12.4238 C   0  0  0  0  0  0  0  0  0  0  0  0
   23.3167  -20.8431  -12.0714 C   0  0  0  0  0  0  0  0  0  0  0  0
   24.3021  -21.1742  -12.9764 C   0  0  0  0  0  0  0  0  0  0  0  0
   25.3822  -21.6510  -12.3270 N   0  0  0  0  0  0  0  0  0  0  0  0
   25.0737  -21.6184  -11.0192 C   0  0  0  0  0  0  0  0  0  0  0  0
   23.8367  -21.1342  -10.8701 N   0  0  0  0  0  0  0  0  0  0  0  0
   20.4489  -19.9945  -14.2624 C   0  0  0  0  0  0  0  0  0  0  0  0
   19.9842  -18.8348  -14.2223 O   0  0  0  0  0  0  0  0  0  0  0  0
   19.5962  -21.0519  -14.6489 N   0  0  0  0  0  0  0  0  0  0  0  0
   18.1753  -20.8037  -15.0003 C   0  0  1  0  0  0  0  0  0  0  0  0
   17.7293  -21.8051  -16.0112 C   0  0  0  0  0  0  0  0  0  0  0  0
   18.0845  -21.4647  -17.3974 C   0  0  0  0  0  0  0  0  0  0  0  0
   18.6854  -20.2545  -17.7825 C   0  0  0  0  0  0  0  0  0  0  0  0
   18.8752  -20.2627  -19.1100 N   0  0  0  0  0  0  0  0  0  0  0  0
   18.4193  -21.4311  -19.5904 C   0  0  0  0  0  0  0  0  0  0  0  0
   17.9466  -22.1442  -18.5499 N   0  0  0  0  0  0  0  0  0  0  0  0
   17.4334  -20.9570  -13.7332 C   0  0  0  0  0  0  0  0  0  0  0  0
   16.1321  -20.4306  -13.6243 O   0  0  0  0  0  0  0  0  0  0  0  0
   17.9408  -21.5472  -12.7525 O   0  0  0  0  0  0  0  0  0  0  0  0
  2  1  1  6
  2  5  1  0
  3  4  1  0
  3  2  1  0
  5  6  2  0
  5  7  1  0
  7  8  1  0
  8 15  1  0
  8  9  1  1
 10  9  1  0
 10 11  2  0
 12 11  1  0
 13 14  2  0
 13 12  1  0
 14 10  1  0
 15 16  2  0
 17 18  1  0
 17 15  1  0
 19 20  1  0
 18 19  1  6
 20 24  1  0
 21 20  2  0
 21 22  1  0
 22 23  1  0
 24 23  2  0
 25 26  1  0
 25 18  1  0
 27 25  2  0
M  END
$$$$
