CHH.pdb
     RDKit          3D

 27 28  0  0  1  0  0  0  0  0999 V2000
   33.1240  -35.1557   -7.2821 N   0  0  0  0  0  0  0  0  0  0  0  0
   33.1455  -35.3783   -5.8497 C   0  0  1  0  0  0  0  0  0  0  0  0
   33.3424  -34.0212   -5.1842 C   0  0  0  0  0  0  0  0  0  0  0  0
   33.4758  -34.2028   -3.3988 S   0  0  0  0  0  0  0  0  0  0  0  0
   31.8797  -36.0007   -5.3951 C   0  0  0  0  0  0  0  0  0  0  0  0
   30.7680  -35.7563   -5.9106 O   0  0  0  0  0  0  0  0  0  0  0  0
   31.8979  -36.9208   -4.3269 N   0  0  0  0  0  0  0  0  0  0  0  0
   30.7587  -37.6263   -3.8329 C   0  0  1  0  0  0  0  0  0  0  0  0
   31.0330  -38.8456   -3.0343 C   0  0  0  0  0  0  0  0  0  0  0  0
   29.7763  -39.6148   -2.8664 C   0  0  0  0  0  0  0  0  0  0  0  0
   29.0456  -40.1722   -3.8936 C   0  0  0  0  0  0  0  0  0  0  0  0
   27.9625  -40.8027   -3.3988 N   0  0  0  0  0  0  0  0  0  0  0  0
   28.0151  -40.6404   -2.0655 C   0  0  0  0  0  0  0  0  0  0  0  0
   29.1020  -39.9290   -1.7506 N   0  0  0  0  0  0  0  0  0  0  0  0
   29.9823  -36.6707   -3.0060 C   0  0  0  0  0  0  0  0  0  0  0  0
   30.6120  -35.9173   -2.2327 O   0  0  0  0  0  0  0  0  0  0  0  0
   28.5741  -36.5713   -3.0497 N   0  0  0  0  0  0  0  0  0  0  0  0
   27.8513  -35.5474   -2.2539 C   0  0  1  0  0  0  0  0  0  0  0  0
   26.4342  -35.4693   -2.7112 C   0  0  0  0  0  0  0  0  0  0  0  0
   26.2404  -34.7041   -3.9524 C   0  0  0  0  0  0  0  0  0  0  0  0
   27.2836  -34.1131   -4.6849 C   0  0  0  0  0  0  0  0  0  0  0  0
   26.7695  -33.4937   -5.7574 N   0  0  0  0  0  0  0  0  0  0  0  0
   25.4376  -33.6649   -5.7407 C   0  0  0  0  0  0  0  0  0  0  0  0
   25.1329  -34.3945   -4.6500 N   0  0  0  0  0  0  0  0  0  0  0  0
   27.9366  -36.0159   -0.8565 C   0  0  0  0  0  0  0  0  0  0  0  0
   28.6609  -37.1866   -0.5612 O   0  0  0  0  0  0  0  0  0  0  0  0
   27.3759  -35.3905    0.0720 O   0  0  0  0  0  0  0  0  0  0  0  0
  2  1  1  6
  2  5  1  0
  3  4  1  0
  3  2  1  0
  5  6  2  0
  5  7  1  0
  7  8  1  0
  8 15  1  0
  8  9  1  1
 10  9  1  0
 10 11  2  0
 12 11  1  0
 13 14  2  0
 13 12  1  0
 14 10  1  0
 15 16  2  0
 17 18  1  0
 17 15  1  0
 19 20  1  0
 18 19  1  6
 20 24  1  0
 21 20  2  0
 21 22  1  0
 22 23  1  0
 24 23  2  0
 25 26  1  0
 25 18  1  0
 27 25  2  0
M  END
$$$$
