YDK.pdb
     RDKit          3D

 30 30  0  0  1  0  0  0  0  0999 V2000
   21.7221  -11.8279  -20.2571 O   0  0  0  0  0  0  0  0  0  0  0  0
   21.5238  -13.0230  -19.5561 C   0  0  0  0  0  0  0  0  0  0  0  0
   20.9714  -13.0099  -18.2908 C   0  0  0  0  0  0  0  0  0  0  0  0
   20.7699  -14.1803  -17.5874 C   0  0  0  0  0  0  0  0  0  0  0  0
   21.1089  -15.4099  -18.1126 C   0  0  0  0  0  0  0  0  0  0  0  0
   20.9156  -16.6826  -17.4062 C   0  0  0  0  0  0  0  0  0  0  0  0
   22.0962  -17.0771  -16.5571 C   0  0  2  0  0  0  0  0  0  0  0  0
   23.2524  -17.4241  -17.3169 N   0  0  0  0  0  0  0  0  0  0  0  0
   21.7137  -18.2474  -15.7254 C   0  0  0  0  0  0  0  0  0  0  0  0
   22.0938  -19.3906  -16.1454 O   0  0  0  0  0  0  0  0  0  0  0  0
   21.6647  -15.4041  -19.3898 C   0  0  0  0  0  0  0  0  0  0  0  0
   21.8679  -14.2450  -20.0948 C   0  0  0  0  0  0  0  0  0  0  0  0
   20.9652  -18.1392  -14.5208 N   0  0  0  0  0  0  0  0  0  0  0  0
   20.6809  -19.3017  -13.7145 C   0  0  1  0  0  0  0  0  0  0  0  0
   20.8068  -19.0617  -12.2363 C   0  0  0  0  0  0  0  0  0  0  0  0
   20.5980  -20.2525  -11.4124 C   0  0  0  0  0  0  0  0  0  0  0  0
   20.4099  -21.3807  -11.9251 O   0  0  0  0  0  0  0  0  0  0  0  0
   19.2755  -19.7528  -13.9739 C   0  0  0  0  0  0  0  0  0  0  0  0
   18.2977  -18.9496  -13.9177 O   0  0  0  0  0  0  0  0  0  0  0  0
   20.6039  -20.1546  -10.0331 O   0  0  0  0  0  0  0  0  0  0  0  0
   18.9696  -21.1024  -14.2957 N   0  0  0  0  0  0  0  0  0  0  0  0
   17.6030  -21.5518  -14.5387 C   0  0  1  0  0  0  0  0  0  0  0  0
   17.5880  -22.9477  -15.1246 C   0  0  0  0  0  0  0  0  0  0  0  0
   17.9629  -22.9390  -16.5913 C   0  0  0  0  0  0  0  0  0  0  0  0
   17.8369  -24.3726  -17.0910 C   0  0  0  0  0  0  0  0  0  0  0  0
   18.2732  -24.3903  -18.5411 C   0  0  0  0  0  0  0  0  0  0  0  0
   18.1208  -25.7610  -19.0014 N   0  0  0  0  0  0  0  0  0  0  0  0
   16.9476  -21.6245  -13.2079 C   0  0  0  0  0  0  0  0  0  0  0  0
   15.7497  -21.2587  -13.1230 O   0  0  0  0  0  0  0  0  0  0  0  0
   17.5790  -22.0712  -12.0583 O   0  0  0  0  0  0  0  0  0  0  0  0
  1  2  1  0
  2 12  2  0
  3  2  1  0
  3  4  2  0
  4  5  1  0
  5 11  2  0
  5  6  1  0
  6  7  1  0
  7  8  1  6
  9 10  2  0
  9  7  1  0
 12 11  1  0
 13  9  1  0
 14 13  1  0
 14 15  1  1
 16 15  1  0
 16 20  1  0
 17 16  2  0
 18 14  1  0
 19 18  2  0
 21 18  1  0
 22 21  1  0
 23 24  1  0
 22 23  1  1
 25 24  1  0
 26 25  1  0
 27 26  1  0
 28 30  1  0
 28 22  1  0
 29 28  2  0
M  END
$$$$
