YDK.pdb
     RDKit          3D

 30 30  0  0  1  0  0  0  0  0999 V2000
   32.2337  -22.3764  -11.5583 O   0  0  0  0  0  0  0  0  0  0  0  0
   30.9874  -21.8777  -11.9547 C   0  0  0  0  0  0  0  0  0  0  0  0
   30.4643  -22.2006  -13.1909 C   0  0  0  0  0  0  0  0  0  0  0  0
   29.2367  -21.7163  -13.5955 C   0  0  0  0  0  0  0  0  0  0  0  0
   28.4800  -20.8923  -12.7886 C   0  0  0  0  0  0  0  0  0  0  0  0
   27.1700  -20.3508  -13.1715 C   0  0  0  0  0  0  0  0  0  0  0  0
   27.2058  -19.5549  -14.4504 C   0  0  2  0  0  0  0  0  0  0  0  0
   28.0793  -18.4286  -14.3949 N   0  0  0  0  0  0  0  0  0  0  0  0
   25.8333  -19.0692  -14.7467 C   0  0  0  0  0  0  0  0  0  0  0  0
   25.5903  -17.8487  -14.4654 O   0  0  0  0  0  0  0  0  0  0  0  0
   29.0231  -20.5771  -11.5452 C   0  0  0  0  0  0  0  0  0  0  0  0
   30.2424  -21.0546  -11.1364 C   0  0  0  0  0  0  0  0  0  0  0  0
   24.8188  -19.8898  -15.3127 N   0  0  0  0  0  0  0  0  0  0  0  0
   23.5176  -19.3523  -15.6294 C   0  0  1  0  0  0  0  0  0  0  0  0
   23.3879  -18.8691  -17.0465 C   0  0  0  0  0  0  0  0  0  0  0  0
   22.0742  -18.3168  -17.3773 C   0  0  0  0  0  0  0  0  0  0  0  0
   21.3806  -17.7165  -16.5231 O   0  0  0  0  0  0  0  0  0  0  0  0
   22.4799  -20.4139  -15.4246 C   0  0  0  0  0  0  0  0  0  0  0  0
   22.5686  -21.5476  -15.9826 O   0  0  0  0  0  0  0  0  0  0  0  0
   21.5654  -18.4487  -18.6562 O   0  0  0  0  0  0  0  0  0  0  0  0
   21.3459  -20.2026  -14.5952 N   0  0  0  0  0  0  0  0  0  0  0  0
   20.2883  -21.1982  -14.4579 C   0  0  1  0  0  0  0  0  0  0  0  0
   19.2661  -20.7641  -13.4289 C   0  0  0  0  0  0  0  0  0  0  0  0
   18.0690  -21.6905  -13.4094 C   0  0  0  0  0  0  0  0  0  0  0  0
   18.3129  -22.7092  -12.3033 C   0  0  0  0  0  0  0  0  0  0  0  0
   17.1507  -23.6800  -12.3126 C   0  0  0  0  0  0  0  0  0  0  0  0
   17.4081  -24.6425  -11.2536 N   0  0  0  0  0  0  0  0  0  0  0  0
   19.5970  -21.2528  -15.7712 C   0  0  0  0  0  0  0  0  0  0  0  0
   18.8674  -22.2462  -16.0096 O   0  0  0  0  0  0  0  0  0  0  0  0
   19.7098  -20.2742  -16.7458 O   0  0  0  0  0  0  0  0  0  0  0  0
  1  2  1  0
  2 12  2  0
  3  2  1  0
  3  4  2  0
  4  5  1  0
  5 11  2  0
  5  6  1  0
  6  7  1  0
  7  8  1  1
  9 10  2  0
  9  7  1  0
 12 11  1  0
 13  9  1  0
 14 13  1  0
 14 15  1  6
 16 15  1  0
 16 20  1  0
 17 16  2  0
 18 14  1  0
 19 18  2  0
 21 18  1  0
 22 21  1  0
 23 24  1  0
 22 23  1  1
 25 24  1  0
 26 25  1  0
 27 26  1  0
 28 30  1  0
 28 22  1  0
 29 28  2  0
M  END
$$$$
