YDK.pdb
     RDKit          3D

 30 30  0  0  1  0  0  0  0  0999 V2000
   28.1595  -16.9092  -16.1068 O   0  0  0  0  0  0  0  0  0  0  0  0
   27.1681  -15.9214  -16.1304 C   0  0  0  0  0  0  0  0  0  0  0  0
   26.9876  -15.0837  -15.0479 C   0  0  0  0  0  0  0  0  0  0  0  0
   26.0142  -14.1051  -15.0567 C   0  0  0  0  0  0  0  0  0  0  0  0
   25.1815  -13.9197  -16.1407 C   0  0  0  0  0  0  0  0  0  0  0  0
   24.1316  -12.8950  -16.2000 C   0  0  0  0  0  0  0  0  0  0  0  0
   22.9233  -13.2320  -15.3653 C   0  0  2  0  0  0  0  0  0  0  0  0
   22.3050  -14.4642  -15.7316 N   0  0  0  0  0  0  0  0  0  0  0  0
   21.9232  -12.1434  -15.5151 C   0  0  0  0  0  0  0  0  0  0  0  0
   20.9860  -12.3459  -16.3567 O   0  0  0  0  0  0  0  0  0  0  0  0
   25.3779  -14.7736  -17.2236 C   0  0  0  0  0  0  0  0  0  0  0  0
   26.3432  -15.7483  -17.2220 C   0  0  0  0  0  0  0  0  0  0  0  0
   21.9746  -10.9279  -14.7784 N   0  0  0  0  0  0  0  0  0  0  0  0
   20.9107   -9.9572  -14.8693 C   0  0  1  0  0  0  0  0  0  0  0  0
   20.2220   -9.6859  -13.5614 C   0  0  0  0  0  0  0  0  0  0  0  0
   19.0643   -8.7972  -13.6627 C   0  0  0  0  0  0  0  0  0  0  0  0
   19.0548   -7.6673  -13.1201 O   0  0  0  0  0  0  0  0  0  0  0  0
   21.4688   -8.6548  -15.3570 C   0  0  0  0  0  0  0  0  0  0  0  0
   22.5880   -8.2183  -14.9553 O   0  0  0  0  0  0  0  0  0  0  0  0
   17.9428   -9.1923  -14.3684 O   0  0  0  0  0  0  0  0  0  0  0  0
   20.7716   -7.8450  -16.2933 N   0  0  0  0  0  0  0  0  0  0  0  0
   21.3454   -6.6192  -16.8382 C   0  0  1  0  0  0  0  0  0  0  0  0
   20.7637   -6.3080  -18.2008 C   0  0  0  0  0  0  0  0  0  0  0  0
   21.2827   -4.9919  -18.7395 C   0  0  0  0  0  0  0  0  0  0  0  0
   20.6248   -4.7763  -20.0964 C   0  0  0  0  0  0  0  0  0  0  0  0
   21.1241   -3.4542  -20.6407 C   0  0  0  0  0  0  0  0  0  0  0  0
   20.4677   -3.2615  -21.9237 N   0  0  0  0  0  0  0  0  0  0  0  0
   20.9334   -5.5254  -15.9219 C   0  0  0  0  0  0  0  0  0  0  0  0
   19.8006   -5.6036  -15.3866 O   0  0  0  0  0  0  0  0  0  0  0  0
   21.7239   -4.4269  -15.6243 O   0  0  0  0  0  0  0  0  0  0  0  0
  1  2  1  0
  2 12  2  0
  3  2  1  0
  3  4  2  0
  4  5  1  0
  5 11  2  0
  5  6  1  0
  6  7  1  0
  7  8  1  6
  9 10  2  0
  9  7  1  0
 12 11  1  0
 13  9  1  0
 14 13  1  0
 14 15  1  1
 16 15  1  0
 16 20  1  0
 17 16  2  0
 18 14  1  0
 19 18  2  0
 21 18  1  0
 22 21  1  0
 23 24  1  0
 22 23  1  6
 25 24  1  0
 26 25  1  0
 27 26  1  0
 28 30  1  0
 28 22  1  0
 29 28  2  0
M  END
$$$$
