YDK.pdb
     RDKit          3D

 30 30  0  0  1  0  0  0  0  0999 V2000
   28.4089  -20.2140   -5.0006 O   0  0  0  0  0  0  0  0  0  0  0  0
   27.7562  -20.1556   -6.2374 C   0  0  0  0  0  0  0  0  0  0  0  0
   28.1906  -19.2869   -7.2187 C   0  0  0  0  0  0  0  0  0  0  0  0
   27.5570  -19.2181   -8.4431 C   0  0  0  0  0  0  0  0  0  0  0  0
   26.4671  -20.0092   -8.7414 C   0  0  0  0  0  0  0  0  0  0  0  0
   25.7582  -19.9742  -10.0268 C   0  0  0  0  0  0  0  0  0  0  0  0
   26.1203  -21.1188  -10.9374 C   0  0  2  0  0  0  0  0  0  0  0  0
   27.5061  -21.1622  -11.2725 N   0  0  0  0  0  0  0  0  0  0  0  0
   25.3382  -20.9922  -12.1943 C   0  0  0  0  0  0  0  0  0  0  0  0
   25.8751  -20.3120  -13.1307 O   0  0  0  0  0  0  0  0  0  0  0  0
   26.0428  -20.8794   -7.7400 C   0  0  0  0  0  0  0  0  0  0  0  0
   26.6675  -20.9532   -6.5209 C   0  0  0  0  0  0  0  0  0  0  0  0
   24.0578  -21.5825  -12.3811 N   0  0  0  0  0  0  0  0  0  0  0  0
   23.3705  -21.4844  -13.6462 C   0  0  1  0  0  0  0  0  0  0  0  0
   23.8090  -22.5063  -14.6570 C   0  0  0  0  0  0  0  0  0  0  0  0
   24.5431  -23.6380  -14.0907 C   0  0  0  0  0  0  0  0  0  0  0  0
   25.7962  -23.6694  -14.0823 O   0  0  0  0  0  0  0  0  0  0  0  0
   21.9005  -21.6769  -13.4276 C   0  0  0  0  0  0  0  0  0  0  0  0
   21.4570  -22.4176  -12.5006 O   0  0  0  0  0  0  0  0  0  0  0  0
   23.8592  -24.7096  -13.5468 O   0  0  0  0  0  0  0  0  0  0  0  0
   20.9316  -21.0392  -14.2479 N   0  0  0  0  0  0  0  0  0  0  0  0
   19.4989  -21.2294  -14.0479 C   0  0  1  0  0  0  0  0  0  0  0  0
   18.7017  -20.4784  -15.0932 C   0  0  0  0  0  0  0  0  0  0  0  0
   17.2119  -20.6356  -14.8752 C   0  0  0  0  0  0  0  0  0  0  0  0
   16.5164  -19.7506  -15.9016 C   0  0  0  0  0  0  0  0  0  0  0  0
   15.0236  -19.9387  -15.7295 C   0  0  0  0  0  0  0  0  0  0  0  0
   14.3829  -19.0674  -16.7012 N   0  0  0  0  0  0  0  0  0  0  0  0
   19.2404  -22.6776  -14.2518 C   0  0  0  0  0  0  0  0  0  0  0  0
   19.9250  -23.2803  -15.1144 O   0  0  0  0  0  0  0  0  0  0  0  0
   18.2906  -23.4002  -13.5476 O   0  0  0  0  0  0  0  0  0  0  0  0
  1  2  1  0
  2 12  2  0
  3  2  1  0
  3  4  2  0
  4  5  1  0
  5 11  2  0
  5  6  1  0
  6  7  1  0
  7  8  1  6
  9 10  2  0
  9  7  1  0
 12 11  1  0
 13  9  1  0
 14 13  1  0
 14 15  1  6
 16 15  1  0
 16 20  1  0
 17 16  2  0
 18 14  1  0
 19 18  2  0
 21 18  1  0
 22 21  1  0
 23 24  1  0
 22 23  1  6
 25 24  1  0
 26 25  1  0
 27 26  1  0
 28 30  1  0
 28 22  1  0
 29 28  2  0
M  END
$$$$
