YDK.pdb
     RDKit          3D

 30 30  0  0  1  0  0  0  0  0999 V2000
   21.8706  -20.4194  -14.0963 O   0  0  0  0  0  0  0  0  0  0  0  0
   21.6195  -19.1127  -14.5304 C   0  0  0  0  0  0  0  0  0  0  0  0
   20.7630  -18.2920  -13.8240 C   0  0  0  0  0  0  0  0  0  0  0  0
   20.5056  -17.0012  -14.2399 C   0  0  0  0  0  0  0  0  0  0  0  0
   21.0886  -16.4744  -15.3736 C   0  0  0  0  0  0  0  0  0  0  0  0
   20.8481  -15.1095  -15.8584 C   0  0  0  0  0  0  0  0  0  0  0  0
   19.6057  -14.9879  -16.7022 C   0  0  2  0  0  0  0  0  0  0  0  0
   19.6918  -15.6838  -17.9443 N   0  0  0  0  0  0  0  0  0  0  0  0
   19.3630  -13.5500  -16.9867 C   0  0  0  0  0  0  0  0  0  0  0  0
   19.8096  -13.1080  -18.0971 O   0  0  0  0  0  0  0  0  0  0  0  0
   21.9497  -17.3163  -16.0736 C   0  0  0  0  0  0  0  0  0  0  0  0
   22.2102  -18.6001  -15.6663 C   0  0  0  0  0  0  0  0  0  0  0  0
   18.6747  -12.6819  -16.0947 N   0  0  0  0  0  0  0  0  0  0  0  0
   18.3932  -11.3138  -16.4570 C   0  0  1  0  0  0  0  0  0  0  0  0
   17.0817  -10.8030  -15.9301 C   0  0  0  0  0  0  0  0  0  0  0  0
   15.9419  -11.6804  -16.1971 C   0  0  0  0  0  0  0  0  0  0  0  0
   15.2333  -12.1367  -15.2693 O   0  0  0  0  0  0  0  0  0  0  0  0
   19.4688  -10.4252  -15.9100 C   0  0  0  0  0  0  0  0  0  0  0  0
   20.0081  -10.6478  -14.7857 O   0  0  0  0  0  0  0  0  0  0  0  0
   15.6204  -12.0284  -17.4961 O   0  0  0  0  0  0  0  0  0  0  0  0
   19.9374   -9.2898  -16.6241 N   0  0  0  0  0  0  0  0  0  0  0  0
   20.8882   -8.3468  -16.0453 C   0  0  1  0  0  0  0  0  0  0  0  0
   21.3487   -7.3396  -17.0775 C   0  0  0  0  0  0  0  0  0  0  0  0
   22.2315   -6.2755  -16.4608 C   0  0  0  0  0  0  0  0  0  0  0  0
   22.5026   -5.2397  -17.5444 C   0  0  0  0  0  0  0  0  0  0  0  0
   23.3521   -4.1474  -16.9291 C   0  0  0  0  0  0  0  0  0  0  0  0
   23.5055   -3.1207  -17.9473 N   0  0  0  0  0  0  0  0  0  0  0  0
   20.1457   -7.5987  -14.9990 C   0  0  0  0  0  0  0  0  0  0  0  0
   18.9697   -7.2419  -15.2556 O   0  0  0  0  0  0  0  0  0  0  0  0
   20.6734   -7.2725  -13.7600 O   0  0  0  0  0  0  0  0  0  0  0  0
  1  2  1  0
  2 12  2  0
  3  2  1  0
  3  4  2  0
  4  5  1  0
  5 11  2  0
  5  6  1  0
  6  7  1  0
  7  8  1  6
  9 10  2  0
  9  7  1  0
 12 11  1  0
 13  9  1  0
 14 13  1  0
 14 15  1  1
 16 15  1  0
 16 20  1  0
 17 16  2  0
 18 14  1  0
 19 18  2  0
 21 18  1  0
 22 21  1  0
 23 24  1  0
 22 23  1  6
 25 24  1  0
 26 25  1  0
 27 26  1  0
 28 30  1  0
 28 22  1  0
 29 28  2  0
M  END
$$$$
