YDK.pdb
     RDKit          3D

 30 30  0  0  1  0  0  0  0  0999 V2000
   19.1160  -14.0589  -21.9954 O   0  0  0  0  0  0  0  0  0  0  0  0
   19.0733  -13.1495  -20.9322 C   0  0  0  0  0  0  0  0  0  0  0  0
   19.5086  -11.8505  -21.1031 C   0  0  0  0  0  0  0  0  0  0  0  0
   19.4726  -10.9427  -20.0640 C   0  0  0  0  0  0  0  0  0  0  0  0
   19.0029  -11.2889  -18.8141 C   0  0  0  0  0  0  0  0  0  0  0  0
   18.9441  -10.3622  -17.6767 C   0  0  0  0  0  0  0  0  0  0  0  0
   20.1992  -10.3629  -16.8429 C   0  0  2  0  0  0  0  0  0  0  0  0
   20.3972  -11.5733  -16.1147 N   0  0  0  0  0  0  0  0  0  0  0  0
   20.1265   -9.2394  -15.8733 C   0  0  0  0  0  0  0  0  0  0  0  0
   19.4379   -9.4436  -14.8189 O   0  0  0  0  0  0  0  0  0  0  0  0
   18.5680  -12.6031  -18.6598 C   0  0  0  0  0  0  0  0  0  0  0  0
   18.6008  -13.5108  -19.6879 C   0  0  0  0  0  0  0  0  0  0  0  0
   20.7754   -7.9899  -16.0747 N   0  0  0  0  0  0  0  0  0  0  0  0
   20.6897   -6.9396  -15.0889 C   0  0  1  0  0  0  0  0  0  0  0  0
   22.0141   -6.3168  -14.7474 C   0  0  0  0  0  0  0  0  0  0  0  0
   21.9548   -5.3245  -13.6741 C   0  0  0  0  0  0  0  0  0  0  0  0
   21.3477   -5.5533  -12.6015 O   0  0  0  0  0  0  0  0  0  0  0  0
   19.8039   -5.8467  -15.6053 C   0  0  0  0  0  0  0  0  0  0  0  0
   19.9682   -5.3452  -16.7568 O   0  0  0  0  0  0  0  0  0  0  0  0
   22.5755   -4.0981  -13.8245 O   0  0  0  0  0  0  0  0  0  0  0  0
   18.7366   -5.3186  -14.8303 N   0  0  0  0  0  0  0  0  0  0  0  0
   17.8316   -4.2985  -15.3488 C   0  0  1  0  0  0  0  0  0  0  0  0
   16.5027   -4.3347  -14.6244 C   0  0  0  0  0  0  0  0  0  0  0  0
   15.4187   -4.9523  -15.4820 C   0  0  0  0  0  0  0  0  0  0  0  0
   14.1417   -4.9545  -14.6514 C   0  0  0  0  0  0  0  0  0  0  0  0
   13.0187   -5.4425  -15.5425 C   0  0  0  0  0  0  0  0  0  0  0  0
   11.8269   -5.4987  -14.7115 N   0  0  0  0  0  0  0  0  0  0  0  0
   18.4644   -2.9897  -15.0451 C   0  0  0  0  0  0  0  0  0  0  0  0
   19.3821   -2.9660  -14.1888 O   0  0  0  0  0  0  0  0  0  0  0  0
   18.1022   -1.7967  -15.6499 O   0  0  0  0  0  0  0  0  0  0  0  0
  1  2  1  0
  2 12  2  0
  3  2  1  0
  3  4  2  0
  4  5  1  0
  5 11  2  0
  5  6  1  0
  6  7  1  0
  7  8  1  1
  9 10  2  0
  9  7  1  0
 12 11  1  0
 13  9  1  0
 14 13  1  0
 14 15  1  6
 16 15  1  0
 16 20  1  0
 17 16  2  0
 18 14  1  0
 19 18  2  0
 21 18  1  0
 22 21  1  0
 23 24  1  0
 22 23  1  1
 25 24  1  0
 26 25  1  0
 27 26  1  0
 28 30  1  0
 28 22  1  0
 29 28  2  0
M  END
$$$$
