AHT.pdb
     RDKit          3D

 23 23  0  0  1  0  0  0  0  0999 V2000
   28.7813  -16.0724  -19.3610 C   0  0  0  0  0  0  0  0  0  0  0  0
   28.2796  -17.4135  -18.8471 C   0  0  2  0  0  0  0  0  0  0  0  0
   28.5067  -18.4359  -19.8776 N   0  0  0  0  0  0  0  0  0  0  0  0
   26.8242  -17.3639  -18.5647 C   0  0  0  0  0  0  0  0  0  0  0  0
   26.0364  -17.3418  -19.5383 O   0  0  0  0  0  0  0  0  0  0  0  0
   26.2990  -17.3411  -17.2677 N   0  0  0  0  0  0  0  0  0  0  0  0
   24.8605  -17.2980  -17.0419 C   0  0  1  0  0  0  0  0  0  0  0  0
   24.4956  -18.0563  -15.8228 C   0  0  0  0  0  0  0  0  0  0  0  0
   23.0608  -18.0240  -15.5291 C   0  0  0  0  0  0  0  0  0  0  0  0
   22.0722  -17.2862  -16.1950 C   0  0  0  0  0  0  0  0  0  0  0  0
   20.8813  -17.4821  -15.6035 N   0  0  0  0  0  0  0  0  0  0  0  0
   21.0684  -18.3253  -14.5734 C   0  0  0  0  0  0  0  0  0  0  0  0
   22.3731  -18.6439  -14.5363 N   0  0  0  0  0  0  0  0  0  0  0  0
   24.4641  -15.8915  -17.1167 C   0  0  0  0  0  0  0  0  0  0  0  0
   25.1429  -15.0387  -16.4408 O   0  0  0  0  0  0  0  0  0  0  0  0
   24.5392  -13.5084  -19.7928 C   0  0  0  0  0  0  0  0  0  0  0  0
   23.0907  -13.4440  -19.3156 C   0  0  1  0  0  0  0  0  0  0  0  0
   22.2649  -14.2291  -20.0883 O   0  0  0  0  0  0  0  0  0  0  0  0
   23.0951  -13.9151  -17.8565 C   0  0  2  0  0  0  0  0  0  0  0  0
   23.4012  -15.3324  -17.8661 N   0  0  0  0  0  0  0  0  0  0  0  0
   21.8398  -13.5428  -17.2357 C   0  0  0  0  0  0  0  0  0  0  0  0
   21.5231  -12.2270  -16.9824 O   0  0  0  0  0  0  0  0  0  0  0  0
   21.0245  -14.4434  -16.9224 O   0  0  0  0  0  0  0  0  0  0  0  0
  2  1  1  6
  3  2  1  0
  4  5  2  0
  4  2  1  0
  6  4  1  0
  7 14  1  0
  7  6  1  0
  7  8  1  1
  9  8  1  0
 10  9  2  0
 11 10  1  0
 12 11  1  0
 12 13  2  0
 13  9  1  0
 14 20  1  0
 15 14  2  0
 17 18  1  0
 17 19  1  0
 17 16  1  6
 19 21  1  0
 19 20  1  6
 21 23  2  0
 21 22  1  0
M  END
$$$$
