AHT.pdb
     RDKit          3D

 23 23  0  0  1  0  0  0  0  0999 V2000
   18.5004  -14.7108  -18.1209 C   0  0  0  0  0  0  0  0  0  0  0  0
   18.9188  -14.0421  -16.8202 C   0  0  2  0  0  0  0  0  0  0  0  0
   17.9936  -14.4494  -15.7538 N   0  0  0  0  0  0  0  0  0  0  0  0
   18.8585  -12.5646  -16.9385 C   0  0  0  0  0  0  0  0  0  0  0  0
   19.5686  -12.0150  -17.8119 O   0  0  0  0  0  0  0  0  0  0  0  0
   18.0490  -11.7662  -16.1226 N   0  0  0  0  0  0  0  0  0  0  0  0
   17.9221  -10.3350  -16.3629 C   0  0  1  0  0  0  0  0  0  0  0  0
   16.5041   -9.9125  -16.2921 C   0  0  0  0  0  0  0  0  0  0  0  0
   15.7632  -10.1626  -17.5308 C   0  0  0  0  0  0  0  0  0  0  0  0
   15.9305   -9.5222  -18.7666 C   0  0  0  0  0  0  0  0  0  0  0  0
   15.0325   -9.9929  -19.6490 N   0  0  0  0  0  0  0  0  0  0  0  0
   14.2877  -10.9197  -19.0219 C   0  0  0  0  0  0  0  0  0  0  0  0
   14.7310  -11.0148  -17.7571 N   0  0  0  0  0  0  0  0  0  0  0  0
   18.8785   -9.6722  -15.4756 C   0  0  0  0  0  0  0  0  0  0  0  0
   18.7225   -9.8136  -14.2105 O   0  0  0  0  0  0  0  0  0  0  0  0
   22.5628  -10.0355  -15.1017 C   0  0  0  0  0  0  0  0  0  0  0  0
   22.3134   -8.5478  -15.3350 C   0  0  1  0  0  0  0  0  0  0  0  0
   22.4813   -8.2048  -16.6577 O   0  0  0  0  0  0  0  0  0  0  0  0
   20.8785   -8.2720  -14.8701 C   0  0  2  0  0  0  0  0  0  0  0  0
   19.9904   -8.8772  -15.8436 N   0  0  0  0  0  0  0  0  0  0  0  0
   20.7142   -6.8473  -14.6630 C   0  0  0  0  0  0  0  0  0  0  0  0
   21.3762   -6.1843  -13.6541 O   0  0  0  0  0  0  0  0  0  0  0  0
   19.9493   -6.2056  -15.4227 O   0  0  0  0  0  0  0  0  0  0  0  0
  2  1  1  6
  3  2  1  0
  4  5  2  0
  4  2  1  0
  6  4  1  0
  7 14  1  0
  7  6  1  0
  7  8  1  1
  9  8  1  0
 10  9  2  0
 11 10  1  0
 12 11  1  0
 12 13  2  0
 13  9  1  0
 14 20  1  0
 15 14  2  0
 17 18  1  0
 17 19  1  0
 17 16  1  6
 19 21  1  0
 19 20  1  6
 21 23  2  0
 21 22  1  0
M  END
$$$$
