AHT.pdb
     RDKit          3D

 23 23  0  0  1  0  0  0  0  0999 V2000
   17.5840  -12.9850  -17.8389 C   0  0  0  0  0  0  0  0  0  0  0  0
   18.7676  -13.8550  -17.4433 C   0  0  2  0  0  0  0  0  0  0  0  0
   18.3045  -14.9032  -16.5237 N   0  0  0  0  0  0  0  0  0  0  0  0
   19.8035  -13.0569  -16.7430 C   0  0  0  0  0  0  0  0  0  0  0  0
   19.7214  -12.9497  -15.4977 O   0  0  0  0  0  0  0  0  0  0  0  0
   20.8592  -12.4245  -17.4092 N   0  0  0  0  0  0  0  0  0  0  0  0
   21.8712  -11.6790  -16.6729 C   0  0  1  0  0  0  0  0  0  0  0  0
   23.2328  -12.0686  -17.1073 C   0  0  0  0  0  0  0  0  0  0  0  0
   24.2946  -11.3710  -16.3780 C   0  0  0  0  0  0  0  0  0  0  0  0
   24.1441  -10.3994  -15.3787 C   0  0  0  0  0  0  0  0  0  0  0  0
   25.3517   -9.9604  -14.9843 N   0  0  0  0  0  0  0  0  0  0  0  0
   26.2810  -10.6186  -15.6985 C   0  0  0  0  0  0  0  0  0  0  0  0
   25.6409  -11.4592  -16.5285 N   0  0  0  0  0  0  0  0  0  0  0  0
   21.5026  -10.2657  -16.7634 C   0  0  0  0  0  0  0  0  0  0  0  0
   21.4327   -9.7361  -17.9293 O   0  0  0  0  0  0  0  0  0  0  0  0
   18.5206   -8.5863  -16.3244 C   0  0  0  0  0  0  0  0  0  0  0  0
   19.4298   -7.7877  -15.3940 C   0  0  1  0  0  0  0  0  0  0  0  0
   19.3108   -8.2023  -14.0866 O   0  0  0  0  0  0  0  0  0  0  0  0
   20.8597   -7.9886  -15.9099 C   0  0  2  0  0  0  0  0  0  0  0  0
   21.1976   -9.3829  -15.6997 N   0  0  0  0  0  0  0  0  0  0  0  0
   21.7322   -7.0228  -15.2729 C   0  0  0  0  0  0  0  0  0  0  0  0
   21.6638   -5.6809  -15.5736 O   0  0  0  0  0  0  0  0  0  0  0  0
   22.5691   -7.4223  -14.4279 O   0  0  0  0  0  0  0  0  0  0  0  0
  2  1  1  1
  3  2  1  0
  4  5  2  0
  4  2  1  0
  6  4  1  0
  7 14  1  0
  7  6  1  0
  7  8  1  6
  9  8  1  0
 10  9  2  0
 11 10  1  0
 12 11  1  0
 12 13  2  0
 13  9  1  0
 14 20  1  0
 15 14  2  0
 17 18  1  0
 17 19  1  0
 17 16  1  6
 19 21  1  0
 19 20  1  1
 21 23  2  0
 21 22  1  0
M  END
$$$$
