AHT.pdb
     RDKit          3D

 23 23  0  0  1  0  0  0  0  0999 V2000
   18.2303  -14.8581  -15.5441 C   0  0  0  0  0  0  0  0  0  0  0  0
   17.6107  -14.0424  -16.6687 C   0  0  2  0  0  0  0  0  0  0  0  0
   17.5054  -14.8842  -17.8683 N   0  0  0  0  0  0  0  0  0  0  0  0
   18.4568  -12.8711  -17.0046 C   0  0  0  0  0  0  0  0  0  0  0  0
   19.6517  -13.0791  -17.3177 O   0  0  0  0  0  0  0  0  0  0  0  0
   17.9805  -11.5554  -16.9864 N   0  0  0  0  0  0  0  0  0  0  0  0
   18.7904  -10.4575  -17.4971 C   0  0  1  0  0  0  0  0  0  0  0  0
   18.0673   -9.7181  -18.5576 C   0  0  0  0  0  0  0  0  0  0  0  0
   18.0471  -10.4215  -19.8424 C   0  0  0  0  0  0  0  0  0  0  0  0
   19.0971  -10.5415  -20.7636 C   0  0  0  0  0  0  0  0  0  0  0  0
   18.6787  -11.2204  -21.8455 N   0  0  0  0  0  0  0  0  0  0  0  0
   17.3883  -11.5442  -21.6533 C   0  0  0  0  0  0  0  0  0  0  0  0
   17.0191  -11.0631  -20.4543 N   0  0  0  0  0  0  0  0  0  0  0  0
   19.2581   -9.7025  -16.3342 C   0  0  0  0  0  0  0  0  0  0  0  0
   18.4109   -9.4387  -15.4082 O   0  0  0  0  0  0  0  0  0  0  0  0
   22.4100  -10.3149  -14.2079 C   0  0  0  0  0  0  0  0  0  0  0  0
   22.3800   -8.8312  -14.5651 C   0  0  1  0  0  0  0  0  0  0  0  0
   23.1990   -8.5486  -15.6350 O   0  0  0  0  0  0  0  0  0  0  0  0
   20.9187   -8.4927  -14.8828 C   0  0  2  0  0  0  0  0  0  0  0  0
   20.5648   -9.2168  -16.0882 N   0  0  0  0  0  0  0  0  0  0  0  0
   20.7692   -7.0526  -14.9425 C   0  0  0  0  0  0  0  0  0  0  0  0
   20.9274   -6.2644  -13.8248 O   0  0  0  0  0  0  0  0  0  0  0  0
   20.4884   -6.5144  -16.0405 O   0  0  0  0  0  0  0  0  0  0  0  0
  2  1  1  1
  3  2  1  0
  4  5  2  0
  4  2  1  0
  6  4  1  0
  7 14  1  0
  7  6  1  0
  7  8  1  6
  9  8  1  0
 10  9  2  0
 11 10  1  0
 12 11  1  0
 12 13  2  0
 13  9  1  0
 14 20  1  0
 15 14  2  0
 17 18  1  0
 17 19  1  0
 17 16  1  6
 19 21  1  0
 19 20  1  6
 21 23  2  0
 21 22  1  0
M  END
$$$$
