AHT.pdb
     RDKit          3D

 23 23  0  0  1  0  0  0  0  0999 V2000
   17.6137  -11.1629  -17.6846 C   0  0  0  0  0  0  0  0  0  0  0  0
   18.9093  -11.5945  -17.0142 C   0  0  2  0  0  0  0  0  0  0  0  0
   18.6227  -12.6945  -16.0832 N   0  0  0  0  0  0  0  0  0  0  0  0
   19.5026  -10.4795  -16.2363 C   0  0  0  0  0  0  0  0  0  0  0  0
   19.2182  -10.3946  -15.0193 O   0  0  0  0  0  0  0  0  0  0  0  0
   20.3590   -9.5269  -16.7998 N   0  0  0  0  0  0  0  0  0  0  0  0
   20.8968   -8.4352  -15.9992 C   0  0  1  0  0  0  0  0  0  0  0  0
   22.3768   -8.4870  -15.9640 C   0  0  0  0  0  0  0  0  0  0  0  0
   22.8981   -9.6199  -15.1955 C   0  0  0  0  0  0  0  0  0  0  0  0
   23.6297  -10.7129  -15.6807 C   0  0  0  0  0  0  0  0  0  0  0  0
   23.8881  -11.5697  -14.6779 N   0  0  0  0  0  0  0  0  0  0  0  0
   23.3457  -11.0645  -13.5564 C   0  0  0  0  0  0  0  0  0  0  0  0
   22.7564   -9.8997  -13.8747 N   0  0  0  0  0  0  0  0  0  0  0  0
   20.2667   -7.2068  -16.4841 C   0  0  0  0  0  0  0  0  0  0  0  0
   20.4147   -6.9031  -17.7213 O   0  0  0  0  0  0  0  0  0  0  0  0
   16.9821   -3.5581  -16.0942 C   0  0  0  0  0  0  0  0  0  0  0  0
   17.6988   -4.7189  -15.4096 C   0  0  1  0  0  0  0  0  0  0  0  0
   16.8420   -5.7654  -15.1523 O   0  0  0  0  0  0  0  0  0  0  0  0
   18.8273   -5.1479  -16.3548 C   0  0  2  0  0  0  0  0  0  0  0  0
   19.4862   -6.2863  -15.7443 N   0  0  0  0  0  0  0  0  0  0  0  0
   19.6708   -4.0033  -16.6343 C   0  0  0  0  0  0  0  0  0  0  0  0
   19.5188   -3.2590  -17.7826 O   0  0  0  0  0  0  0  0  0  0  0  0
   20.5601   -3.6858  -15.8083 O   0  0  0  0  0  0  0  0  0  0  0  0
  2  1  1  1
  3  2  1  0
  4  5  2  0
  4  2  1  0
  6  4  1  0
  7 14  1  0
  7  6  1  0
  7  8  1  6
  9  8  1  0
 10  9  2  0
 11 10  1  0
 12 11  1  0
 12 13  2  0
 13  9  1  0
 14 20  1  0
 15 14  2  0
 17 18  1  0
 17 19  1  0
 17 16  1  6
 19 21  1  0
 19 20  1  1
 21 23  2  0
 21 22  1  0
M  END
$$$$
