AHT.pdb
     RDKit          3D

 23 23  0  0  1  0  0  0  0  0999 V2000
   15.4180   -5.8697  -17.4215 C   0  0  0  0  0  0  0  0  0  0  0  0
   16.7721   -6.4873  -17.1067 C   0  0  2  0  0  0  0  0  0  0  0  0
   17.0567   -7.5422  -18.0892 N   0  0  0  0  0  0  0  0  0  0  0  0
   16.7741   -7.1054  -15.7583 C   0  0  0  0  0  0  0  0  0  0  0  0
   15.7278   -7.6747  -15.3706 O   0  0  0  0  0  0  0  0  0  0  0  0
   17.8858   -7.0795  -14.9086 N   0  0  0  0  0  0  0  0  0  0  0  0
   17.8473   -7.7253  -13.6034 C   0  0  1  0  0  0  0  0  0  0  0  0
   18.9390   -8.7182  -13.4744 C   0  0  0  0  0  0  0  0  0  0  0  0
   18.7026   -9.9415  -14.2447 C   0  0  0  0  0  0  0  0  0  0  0  0
   17.6875  -10.8882  -14.0482 C   0  0  0  0  0  0  0  0  0  0  0  0
   17.8289  -11.8967  -14.9254 N   0  0  0  0  0  0  0  0  0  0  0  0
   18.9058  -11.6321  -15.6851 C   0  0  0  0  0  0  0  0  0  0  0  0
   19.4216  -10.4623  -15.2717 N   0  0  0  0  0  0  0  0  0  0  0  0
   17.7732   -6.6567  -12.6065 C   0  0  0  0  0  0  0  0  0  0  0  0
   18.7135   -5.7848  -12.5888 O   0  0  0  0  0  0  0  0  0  0  0  0
   15.2818   -4.0339  -12.0846 C   0  0  0  0  0  0  0  0  0  0  0  0
   15.4190   -4.6892  -10.7129 C   0  0  1  0  0  0  0  0  0  0  0  0
   14.4211   -5.6104  -10.4868 O   0  0  0  0  0  0  0  0  0  0  0  0
   16.8008   -5.3533  -10.6874 C   0  0  2  0  0  0  0  0  0  0  0  0
   16.7648   -6.4506  -11.6346 N   0  0  0  0  0  0  0  0  0  0  0  0
   17.1303   -5.7068   -9.3213 C   0  0  0  0  0  0  0  0  0  0  0  0
   17.3365   -4.7454   -8.3575 O   0  0  0  0  0  0  0  0  0  0  0  0
   17.2297   -6.9188   -9.0129 O   0  0  0  0  0  0  0  0  0  0  0  0
  2  1  1  6
  3  2  1  0
  4  5  2  0
  4  2  1  0
  6  4  1  0
  7 14  1  0
  7  6  1  0
  7  8  1  1
  9  8  1  0
 10  9  2  0
 11 10  1  0
 12 11  1  0
 12 13  2  0
 13  9  1  0
 14 20  1  0
 15 14  2  0
 17 18  1  0
 17 19  1  0
 17 16  1  6
 19 21  1  0
 19 20  1  6
 21 23  2  0
 21 22  1  0
M  END
$$$$
