AHT.pdb
     RDKit          3D

 23 23  0  0  1  0  0  0  0  0999 V2000
   23.1174  -13.7245  -20.1409 C   0  0  0  0  0  0  0  0  0  0  0  0
   23.3231  -12.2362  -19.9027 C   0  0  2  0  0  0  0  0  0  0  0  0
   24.4419  -12.0514  -18.9684 N   0  0  0  0  0  0  0  0  0  0  0  0
   22.1156  -11.6226  -19.2978 C   0  0  0  0  0  0  0  0  0  0  0  0
   21.2057  -11.2338  -20.0658 O   0  0  0  0  0  0  0  0  0  0  0  0
   21.9518  -11.4613  -17.9173 N   0  0  0  0  0  0  0  0  0  0  0  0
   20.7308  -10.8861  -17.3692 C   0  0  1  0  0  0  0  0  0  0  0  0
   20.0989  -11.8139  -16.4027 C   0  0  0  0  0  0  0  0  0  0  0  0
   19.3451  -12.8934  -17.0448 C   0  0  0  0  0  0  0  0  0  0  0  0
   19.7631  -14.2149  -17.2555 C   0  0  0  0  0  0  0  0  0  0  0  0
   18.8116  -14.8935  -17.9192 N   0  0  0  0  0  0  0  0  0  0  0  0
   17.7887  -14.0512  -18.1452 C   0  0  0  0  0  0  0  0  0  0  0  0
   18.1158  -12.8587  -17.6196 N   0  0  0  0  0  0  0  0  0  0  0  0
   21.0705   -9.5409  -16.9042 C   0  0  0  0  0  0  0  0  0  0  0  0
   22.1272   -9.4003  -16.1911 O   0  0  0  0  0  0  0  0  0  0  0  0
   20.4585   -4.6401  -16.7812 C   0  0  0  0  0  0  0  0  0  0  0  0
   19.9225   -5.9818  -17.2736 C   0  0  1  0  0  0  0  0  0  0  0  0
   19.9902   -6.0847  -18.6448 O   0  0  0  0  0  0  0  0  0  0  0  0
   20.7732   -7.0623  -16.5954 C   0  0  2  0  0  0  0  0  0  0  0  0
   20.3668   -8.3380  -17.1522 N   0  0  0  0  0  0  0  0  0  0  0  0
   20.6472   -6.9301  -15.1579 C   0  0  0  0  0  0  0  0  0  0  0  0
   19.8861   -7.8064  -14.4172 O   0  0  0  0  0  0  0  0  0  0  0  0
   21.2469   -5.9933  -14.5775 O   0  0  0  0  0  0  0  0  0  0  0  0
  2  1  1  1
  3  2  1  0
  4  5  2  0
  4  2  1  0
  6  4  1  0
  7 14  1  0
  7  6  1  0
  7  8  1  1
  9  8  1  0
 10  9  2  0
 11 10  1  0
 12 11  1  0
 12 13  2  0
 13  9  1  0
 14 20  1  0
 15 14  2  0
 17 18  1  0
 17 19  1  0
 17 16  1  6
 19 21  1  0
 19 20  1  6
 21 23  2  0
 21 22  1  0
M  END
$$$$
