AHT.pdb
     RDKit          3D

 23 23  0  0  1  0  0  0  0  0999 V2000
   19.7910  -13.8225  -16.6594 C   0  0  0  0  0  0  0  0  0  0  0  0
   18.7679  -12.7106  -16.4830 C   0  0  2  0  0  0  0  0  0  0  0  0
   18.6178  -11.9923  -17.7560 N   0  0  0  0  0  0  0  0  0  0  0  0
   19.2134  -11.7358  -15.4575 C   0  0  0  0  0  0  0  0  0  0  0  0
   19.4272  -12.1584  -14.2978 O   0  0  0  0  0  0  0  0  0  0  0  0
   19.4031  -10.3761  -15.7287 N   0  0  0  0  0  0  0  0  0  0  0  0
   19.8422   -9.4577  -14.6866 C   0  0  1  0  0  0  0  0  0  0  0  0
   21.0455   -8.7087  -15.1170 C   0  0  0  0  0  0  0  0  0  0  0  0
   22.2336   -9.5540  -15.2578 C   0  0  0  0  0  0  0  0  0  0  0  0
   23.0694  -10.0246  -14.2353 C   0  0  0  0  0  0  0  0  0  0  0  0
   24.0830  -10.7313  -14.7642 N   0  0  0  0  0  0  0  0  0  0  0  0
   23.9293  -10.7329  -16.0997 C   0  0  0  0  0  0  0  0  0  0  0  0
   22.8222  -10.0274  -16.3858 N   0  0  0  0  0  0  0  0  0  0  0  0
   18.6661   -8.6876  -14.2806 C   0  0  0  0  0  0  0  0  0  0  0  0
   17.8445   -8.3187  -15.1937 O   0  0  0  0  0  0  0  0  0  0  0  0
   16.1808   -9.4239  -11.3754 C   0  0  0  0  0  0  0  0  0  0  0  0
   16.6348   -7.9700  -11.2750 C   0  0  1  0  0  0  0  0  0  0  0  0
   17.6548   -7.8171  -10.3631 O   0  0  0  0  0  0  0  0  0  0  0  0
   17.0849   -7.5597  -12.6821 C   0  0  2  0  0  0  0  0  0  0  0  0
   18.3032   -8.2909  -12.9711 N   0  0  0  0  0  0  0  0  0  0  0  0
   17.1835   -6.1153  -12.7446 C   0  0  0  0  0  0  0  0  0  0  0  0
   16.0697   -5.3117  -12.6472 O   0  0  0  0  0  0  0  0  0  0  0  0
   18.3122   -5.5877  -12.8914 O   0  0  0  0  0  0  0  0  0  0  0  0
  2  1  1  6
  3  2  1  0
  4  5  2  0
  4  2  1  0
  6  4  1  0
  7 14  1  0
  7  6  1  0
  7  8  1  6
  9  8  1  0
 10  9  2  0
 11 10  1  0
 12 11  1  0
 12 13  2  0
 13  9  1  0
 14 20  1  0
 15 14  2  0
 17 18  1  0
 17 19  1  0
 17 16  1  6
 19 21  1  0
 19 20  1  1
 21 23  2  0
 21 22  1  0
M  END
$$$$
