AHT.pdb
     RDKit          3D

 23 23  0  0  1  0  0  0  0  0999 V2000
   15.1143  -15.3416  -17.3008 C   0  0  0  0  0  0  0  0  0  0  0  0
   15.1777  -13.8228  -17.2436 C   0  0  2  0  0  0  0  0  0  0  0  0
   14.9641  -13.2839  -18.5938 N   0  0  0  0  0  0  0  0  0  0  0  0
   16.5072  -13.3634  -16.7726 C   0  0  0  0  0  0  0  0  0  0  0  0
   16.8780  -13.7109  -15.6277 O   0  0  0  0  0  0  0  0  0  0  0  0
   17.3569  -12.5652  -17.5467 N   0  0  0  0  0  0  0  0  0  0  0  0
   18.6094  -12.0571  -17.0035 C   0  0  1  0  0  0  0  0  0  0  0  0
   19.7662  -12.5861  -17.7626 C   0  0  0  0  0  0  0  0  0  0  0  0
   19.9900  -14.0185  -17.5526 C   0  0  0  0  0  0  0  0  0  0  0  0
   20.5251  -14.6384  -16.4147 C   0  0  0  0  0  0  0  0  0  0  0  0
   20.6184  -15.9635  -16.6190 N   0  0  0  0  0  0  0  0  0  0  0  0
   20.1595  -16.2214  -17.8560 C   0  0  0  0  0  0  0  0  0  0  0  0
   19.7863  -15.0540  -18.4064 N   0  0  0  0  0  0  0  0  0  0  0  0
   18.4656  -10.6045  -16.9003 C   0  0  0  0  0  0  0  0  0  0  0  0
   18.8126   -9.8929  -17.9092 O   0  0  0  0  0  0  0  0  0  0  0  0
   15.4644   -8.5690  -16.3988 C   0  0  0  0  0  0  0  0  0  0  0  0
   16.4318   -8.0830  -15.3229 C   0  0  1  0  0  0  0  0  0  0  0  0
   16.1836   -8.6805  -14.1077 O   0  0  0  0  0  0  0  0  0  0  0  0
   17.8411   -8.4175  -15.8259 C   0  0  2  0  0  0  0  0  0  0  0  0
   17.9719   -9.8614  -15.8013 N   0  0  0  0  0  0  0  0  0  0  0  0
   18.8107   -7.6805  -15.0407 C   0  0  0  0  0  0  0  0  0  0  0  0
   18.8994   -6.3082  -15.1078 O   0  0  0  0  0  0  0  0  0  0  0  0
   19.5868   -8.3112  -14.2831 O   0  0  0  0  0  0  0  0  0  0  0  0
  2  1  1  6
  3  2  1  0
  4  5  2  0
  4  2  1  0
  6  4  1  0
  7 14  1  0
  7  6  1  0
  7  8  1  6
  9  8  1  0
 10  9  2  0
 11 10  1  0
 12 11  1  0
 12 13  2  0
 13  9  1  0
 14 20  1  0
 15 14  2  0
 17 18  1  0
 17 19  1  0
 17 16  1  6
 19 21  1  0
 19 20  1  1
 21 23  2  0
 21 22  1  0
M  END
$$$$
