AHT.pdb
     RDKit          3D

 23 23  0  0  1  0  0  0  0  0999 V2000
   18.3308  -10.1634  -20.0838 C   0  0  0  0  0  0  0  0  0  0  0  0
   19.5325  -10.4372  -19.1921 C   0  0  2  0  0  0  0  0  0  0  0  0
   19.4383  -11.8073  -18.6698 N   0  0  0  0  0  0  0  0  0  0  0  0
   19.5597   -9.5077  -18.0364 C   0  0  0  0  0  0  0  0  0  0  0  0
   18.7707   -9.7250  -17.0880 O   0  0  0  0  0  0  0  0  0  0  0  0
   20.4221   -8.4081  -17.9616 N   0  0  0  0  0  0  0  0  0  0  0  0
   20.4833   -7.5832  -16.7625 C   0  0  1  0  0  0  0  0  0  0  0  0
   21.8544   -7.5690  -16.2021 C   0  0  0  0  0  0  0  0  0  0  0  0
   22.1575   -8.7459  -15.3842 C   0  0  0  0  0  0  0  0  0  0  0  0
   21.2748   -9.7645  -14.9985 C   0  0  0  0  0  0  0  0  0  0  0  0
   21.9133  -10.6466  -14.2106 N   0  0  0  0  0  0  0  0  0  0  0  0
   23.1841  -10.2302  -14.0739 C   0  0  0  0  0  0  0  0  0  0  0  0
   23.3212   -9.0941  -14.7781 N   0  0  0  0  0  0  0  0  0  0  0  0
   19.8701   -6.2989  -17.1027 C   0  0  0  0  0  0  0  0  0  0  0  0
   20.3736   -5.6311  -18.0751 O   0  0  0  0  0  0  0  0  0  0  0  0
   16.4721   -4.7195  -15.2383 C   0  0  0  0  0  0  0  0  0  0  0  0
   16.7215   -4.4296  -16.7160 C   0  0  1  0  0  0  0  0  0  0  0  0
   16.1447   -3.2419  -17.1060 O   0  0  0  0  0  0  0  0  0  0  0  0
   18.2435   -4.3911  -16.8979 C   0  0  2  0  0  0  0  0  0  0  0  0
   18.7560   -5.6828  -16.4839 N   0  0  0  0  0  0  0  0  0  0  0  0
   18.7753   -3.2431  -16.1916 C   0  0  0  0  0  0  0  0  0  0  0  0
   18.7429   -1.9806  -16.7401 O   0  0  0  0  0  0  0  0  0  0  0  0
   19.2768   -3.4070  -15.0534 O   0  0  0  0  0  0  0  0  0  0  0  0
  2  1  1  6
  3  2  1  0
  4  5  2  0
  4  2  1  0
  6  4  1  0
  7 14  1  0
  7  6  1  0
  7  8  1  6
  9  8  1  0
 10  9  2  0
 11 10  1  0
 12 11  1  0
 12 13  2  0
 13  9  1  0
 14 20  1  0
 15 14  2  0
 17 18  1  0
 17 19  1  0
 17 16  1  1
 19 21  1  0
 19 20  1  1
 21 23  2  0
 21 22  1  0
M  END
$$$$
