AHT.pdb
     RDKit          3D

 23 23  0  0  1  0  0  0  0  0999 V2000
   18.7974  -13.2939  -17.5052 C   0  0  0  0  0  0  0  0  0  0  0  0
   19.7934  -12.5076  -16.6663 C   0  0  2  0  0  0  0  0  0  0  0  0
   19.4069  -12.6018  -15.2518 N   0  0  0  0  0  0  0  0  0  0  0  0
   19.7934  -11.0737  -17.0460 C   0  0  0  0  0  0  0  0  0  0  0  0
   20.1549  -10.7726  -18.2069 O   0  0  0  0  0  0  0  0  0  0  0  0
   19.4100  -10.0522  -16.1696 N   0  0  0  0  0  0  0  0  0  0  0  0
   19.3869   -8.6616  -16.6030 C   0  0  1  0  0  0  0  0  0  0  0  0
   18.0085   -8.1207  -16.5652 C   0  0  0  0  0  0  0  0  0  0  0  0
   17.2805   -8.3032  -17.8232 C   0  0  0  0  0  0  0  0  0  0  0  0
   17.4151   -7.5545  -19.0008 C   0  0  0  0  0  0  0  0  0  0  0  0
   16.5414   -7.9940  -19.9227 N   0  0  0  0  0  0  0  0  0  0  0  0
   15.8440   -9.0058  -19.3778 C   0  0  0  0  0  0  0  0  0  0  0  0
   16.2919   -9.1838  -18.1236 N   0  0  0  0  0  0  0  0  0  0  0  0
   20.4171   -7.9632  -15.8335 C   0  0  0  0  0  0  0  0  0  0  0  0
   20.5027   -8.2127  -14.5784 O   0  0  0  0  0  0  0  0  0  0  0  0
   24.3564   -5.0108  -15.4134 C   0  0  0  0  0  0  0  0  0  0  0  0
   23.2891   -5.5909  -16.3376 C   0  0  1  0  0  0  0  0  0  0  0  0
   23.8359   -6.4258  -17.2858 O   0  0  0  0  0  0  0  0  0  0  0  0
   22.3030   -6.3461  -15.4385 C   0  0  2  0  0  0  0  0  0  0  0  0
   21.3641   -7.0252  -16.3102 N   0  0  0  0  0  0  0  0  0  0  0  0
   21.7259   -5.4188  -14.4862 C   0  0  0  0  0  0  0  0  0  0  0  0
   22.2221   -5.2963  -13.2078 O   0  0  0  0  0  0  0  0  0  0  0  0
   20.7505   -4.7127  -14.8382 O   0  0  0  0  0  0  0  0  0  0  0  0
  2  1  1  6
  3  2  1  0
  4  5  2  0
  4  2  1  0
  6  4  1  0
  7 14  1  0
  7  6  1  0
  7  8  1  1
  9  8  1  0
 10  9  2  0
 11 10  1  0
 12 11  1  0
 12 13  2  0
 13  9  1  0
 14 20  1  0
 15 14  2  0
 17 18  1  0
 17 19  1  0
 17 16  1  1
 19 21  1  0
 19 20  1  6
 21 23  2  0
 21 22  1  0
M  END
$$$$
