QKQ.pdb
     RDKit          3D

 28 27  0  0  1  0  0  0  0  0999 V2000
   13.4137  -17.9040   15.2281 N   0  0  0  0  0  0  0  0  0  0  0  0
   12.8649  -19.1834   14.9202 C   0  0  0  0  0  0  0  0  0  0  0  0
   13.5406  -19.9527   14.2079 O   0  0  0  0  0  0  0  0  0  0  0  0
   11.5337  -19.5844   15.4325 C   0  0  0  0  0  0  0  0  0  0  0  0
   10.8464  -18.5163   16.2391 C   0  0  0  0  0  0  0  0  0  0  0  0
   10.2790  -19.0211   17.5407 C   0  0  2  0  0  0  0  0  0  0  0  0
    8.9426  -19.4851   17.2911 N   0  0  0  0  0  0  0  0  0  0  0  0
   10.3040  -17.8780   18.4963 C   0  0  0  0  0  0  0  0  0  0  0  0
   11.3879  -17.3491   18.8497 O   0  0  0  0  0  0  0  0  0  0  0  0
    9.1073  -17.3500   19.0377 N   0  0  0  0  0  0  0  0  0  0  0  0
    9.1719  -16.2467   20.0029 C   0  0  1  0  0  0  0  0  0  0  0  0
    7.7158  -15.7770   20.1122 C   0  0  0  0  0  0  0  0  0  0  0  0
    7.5243  -14.7092   21.1466 C   0  0  0  0  0  0  0  0  0  0  0  0
    7.7918  -13.3622   20.5222 C   0  0  0  0  0  0  0  0  0  0  0  0
    7.4638  -12.2775   21.5054 C   0  0  0  0  0  0  0  0  0  0  0  0
    7.7982  -10.9982   20.8909 N   0  0  0  0  0  0  0  0  0  0  0  0
    9.7330  -16.7000   21.2856 C   0  0  0  0  0  0  0  0  0  0  0  0
    9.3971  -17.8185   21.7356 O   0  0  0  0  0  0  0  0  0  0  0  0
   16.0521  -17.1779   22.3426 N   0  0  0  0  0  0  0  0  0  0  0  0
   15.3550  -16.4872   23.3542 C   0  0  0  0  0  0  0  0  0  0  0  0
   16.0068  -15.6127   23.9805 O   0  0  0  0  0  0  0  0  0  0  0  0
   13.9560  -16.7183   23.7135 C   0  0  0  0  0  0  0  0  0  0  0  0
   12.9324  -16.2264   22.7668 C   0  0  0  0  0  0  0  0  0  0  0  0
   11.5152  -16.4661   23.0845 C   0  0  2  0  0  0  0  0  0  0  0  0
   10.6515  -15.9296   22.0606 N   0  0  0  0  0  0  0  0  0  0  0  0
   11.0909  -16.0043   24.4206 C   0  0  0  0  0  0  0  0  0  0  0  0
   11.7181  -16.4169   25.4209 O   0  0  0  0  0  0  0  0  0  0  0  0
   10.0370  -15.1389   24.6355 O   0  0  0  0  0  0  0  0  0  0  0  0
  1  2  1  0
  2  3  2  0
  4  2  1  0
  4  5  1  0
  5  6  1  0
  6  8  1  0
  6  7  1  6
  8  9  2  0
 10 11  1  0
 10  8  1  0
 11 12  1  1
 13 14  1  0
 13 12  1  0
 14 15  1  0
 16 15  1  0
 17 25  1  0
 17 11  1  0
 18 17  2  0
 19 20  1  0
 20 22  1  0
 21 20  2  0
 22 23  1  0
 24 23  1  6
 24 26  1  0
 24 25  1  0
 26 28  1  0
 27 26  2  0
M  END
$$$$
