QKQ.pdb
     RDKit          3D

 28 27  0  0  1  0  0  0  0  0999 V2000
    9.6602  -12.8164   18.2157 N   0  0  0  0  0  0  0  0  0  0  0  0
    8.4009  -13.1866   17.6590 C   0  0  0  0  0  0  0  0  0  0  0  0
    8.3053  -13.2422   16.4166 O   0  0  0  0  0  0  0  0  0  0  0  0
    7.2440  -13.4960   18.5314 C   0  0  0  0  0  0  0  0  0  0  0  0
    7.6026  -13.6477   19.9847 C   0  0  0  0  0  0  0  0  0  0  0  0
    8.5389  -14.7975   20.2533 C   0  0  2  0  0  0  0  0  0  0  0  0
    8.4158  -15.7317   19.1691 N   0  0  0  0  0  0  0  0  0  0  0  0
    8.1282  -15.3954   21.5551 C   0  0  0  0  0  0  0  0  0  0  0  0
    7.9116  -14.6753   22.5622 O   0  0  0  0  0  0  0  0  0  0  0  0
    7.9684  -16.7944   21.7003 N   0  0  0  0  0  0  0  0  0  0  0  0
    7.5680  -17.3485   22.9986 C   0  0  1  0  0  0  0  0  0  0  0  0
    7.1895  -18.7985   22.6709 C   0  0  0  0  0  0  0  0  0  0  0  0
    6.8584  -19.6039   23.8909 C   0  0  0  0  0  0  0  0  0  0  0  0
    6.5809  -21.0293   23.4822 C   0  0  0  0  0  0  0  0  0  0  0  0
    6.2682  -21.8500   24.6986 C   0  0  0  0  0  0  0  0  0  0  0  0
    6.0440  -23.2246   24.2673 N   0  0  0  0  0  0  0  0  0  0  0  0
    8.6613  -17.2416   23.9777 C   0  0  0  0  0  0  0  0  0  0  0  0
    9.8435  -17.3657   23.5861 O   0  0  0  0  0  0  0  0  0  0  0  0
    8.3613  -13.4313   29.0584 N   0  0  0  0  0  0  0  0  0  0  0  0
    9.5862  -14.1188   29.1733 C   0  0  0  0  0  0  0  0  0  0  0  0
   10.3294  -13.7744   30.1277 O   0  0  0  0  0  0  0  0  0  0  0  0
   10.0370  -15.1810   28.2742 C   0  0  0  0  0  0  0  0  0  0  0  0
    9.1230  -15.5599   27.1756 C   0  0  0  0  0  0  0  0  0  0  0  0
    9.4974  -16.6950   26.3164 C   0  0  2  0  0  0  0  0  0  0  0  0
    8.4527  -17.0012   25.3694 N   0  0  0  0  0  0  0  0  0  0  0  0
    9.9189  -17.9102   27.0403 C   0  0  0  0  0  0  0  0  0  0  0  0
    9.0523  -18.7667   27.3224 O   0  0  0  0  0  0  0  0  0  0  0  0
   11.2199  -18.1612   27.4279 O   0  0  0  0  0  0  0  0  0  0  0  0
  1  2  1  0
  2  3  2  0
  4  2  1  0
  4  5  1  0
  5  6  1  0
  6  8  1  0
  6  7  1  6
  8  9  2  0
 10 11  1  0
 10  8  1  0
 11 12  1  6
 13 14  1  0
 13 12  1  0
 14 15  1  0
 16 15  1  0
 17 25  1  0
 17 11  1  0
 18 17  2  0
 19 20  1  0
 20 22  1  0
 21 20  2  0
 22 23  1  0
 24 23  1  1
 24 26  1  0
 24 25  1  0
 26 28  1  0
 27 26  2  0
M  END
$$$$
