QKQ.pdb
     RDKit          3D

 28 27  0  0  1  0  0  0  0  0999 V2000
   13.8179  -14.6541   17.7002 N   0  0  0  0  0  0  0  0  0  0  0  0
   14.3423  -14.6180   19.0255 C   0  0  0  0  0  0  0  0  0  0  0  0
   15.5522  -14.8778   19.1821 O   0  0  0  0  0  0  0  0  0  0  0  0
   13.4752  -14.2813   20.1788 C   0  0  0  0  0  0  0  0  0  0  0  0
   12.0312  -14.0712   19.8120 C   0  0  0  0  0  0  0  0  0  0  0  0
   11.3144  -15.3459   19.4483 C   0  0  2  0  0  0  0  0  0  0  0  0
   10.6478  -15.1367   18.1932 N   0  0  0  0  0  0  0  0  0  0  0  0
   10.3530  -15.6317   20.5505 C   0  0  0  0  0  0  0  0  0  0  0  0
    9.8942  -14.7085   21.2693 O   0  0  0  0  0  0  0  0  0  0  0  0
    9.9247  -16.9529   20.8241 N   0  0  0  0  0  0  0  0  0  0  0  0
    9.0509  -17.2092   21.9747 C   0  0  1  0  0  0  0  0  0  0  0  0
    8.4964  -18.6130   21.7012 C   0  0  0  0  0  0  0  0  0  0  0  0
    7.7370  -19.1760   22.8644 C   0  0  0  0  0  0  0  0  0  0  0  0
    7.3016  -20.5827   22.5366 C   0  0  0  0  0  0  0  0  0  0  0  0
    6.5375  -21.1557   23.6935 C   0  0  0  0  0  0  0  0  0  0  0  0
    6.1981  -22.5359   23.3680 N   0  0  0  0  0  0  0  0  0  0  0  0
    9.8009  -17.1176   23.2375 C   0  0  0  0  0  0  0  0  0  0  0  0
   10.9773  -17.5426   23.2790 O   0  0  0  0  0  0  0  0  0  0  0  0
    8.9785  -12.7394   27.8594 N   0  0  0  0  0  0  0  0  0  0  0  0
    9.9057  -13.6776   28.3557 C   0  0  0  0  0  0  0  0  0  0  0  0
   10.4283  -13.4076   29.4674 O   0  0  0  0  0  0  0  0  0  0  0  0
   10.2897  -14.9146   27.6760 C   0  0  0  0  0  0  0  0  0  0  0  0
    9.6167  -15.2092   26.3930 C   0  0  0  0  0  0  0  0  0  0  0  0
    9.9763  -16.4485   25.6847 C   0  0  2  0  0  0  0  0  0  0  0  0
    9.2599  -16.5651   24.4375 N   0  0  0  0  0  0  0  0  0  0  0  0
    9.8398  -17.6826   26.4828 C   0  0  0  0  0  0  0  0  0  0  0  0
    8.7353  -18.2693   26.4890 O   0  0  0  0  0  0  0  0  0  0  0  0
   10.8634  -18.2328   27.2280 O   0  0  0  0  0  0  0  0  0  0  0  0
  1  2  1  0
  2  3  2  0
  4  2  1  0
  4  5  1  0
  5  6  1  0
  6  8  1  0
  6  7  1  6
  8  9  2  0
 10 11  1  0
 10  8  1  0
 11 12  1  6
 13 14  1  0
 13 12  1  0
 14 15  1  0
 16 15  1  0
 17 25  1  0
 17 11  1  0
 18 17  2  0
 19 20  1  0
 20 22  1  0
 21 20  2  0
 22 23  1  0
 24 23  1  1
 24 26  1  0
 24 25  1  0
 26 28  1  0
 27 26  2  0
M  END
$$$$
