QKQ.pdb
     RDKit          3D

 28 27  0  0  1  0  0  0  0  0999 V2000
    8.1327  -11.9566   17.9366 N   0  0  0  0  0  0  0  0  0  0  0  0
    7.7269  -13.1490   17.2684 C   0  0  0  0  0  0  0  0  0  0  0  0
    7.4899  -13.0815   16.0457 O   0  0  0  0  0  0  0  0  0  0  0  0
    7.5926  -14.4271   18.0058 C   0  0  0  0  0  0  0  0  0  0  0  0
    7.7657  -14.2907   19.4941 C   0  0  0  0  0  0  0  0  0  0  0  0
    8.5314  -15.4306   20.1146 C   0  0  2  0  0  0  0  0  0  0  0  0
    8.4652  -16.5497   19.2164 N   0  0  0  0  0  0  0  0  0  0  0  0
    7.8833  -15.7260   21.4236 C   0  0  0  0  0  0  0  0  0  0  0  0
    7.7088  -14.8240   22.2813 O   0  0  0  0  0  0  0  0  0  0  0  0
    7.4426  -17.0325   21.7441 N   0  0  0  0  0  0  0  0  0  0  0  0
    6.7997  -17.2846   23.0388 C   0  0  1  0  0  0  0  0  0  0  0  0
    5.9242  -18.5158   22.7733 C   0  0  0  0  0  0  0  0  0  0  0  0
    4.6115  -18.1709   22.1373 C   0  0  0  0  0  0  0  0  0  0  0  0
    3.7915  -19.4276   21.9826 C   0  0  0  0  0  0  0  0  0  0  0  0
    2.4912  -19.1006   21.3094 C   0  0  0  0  0  0  0  0  0  0  0  0
    1.7356  -20.3393   21.1665 N   0  0  0  0  0  0  0  0  0  0  0  0
    7.8034  -17.5029   24.0927 C   0  0  0  0  0  0  0  0  0  0  0  0
    8.8839  -18.0613   23.7980 O   0  0  0  0  0  0  0  0  0  0  0  0
    8.9282  -13.3961   28.7539 N   0  0  0  0  0  0  0  0  0  0  0  0
    9.6798  -14.5404   29.0885 C   0  0  0  0  0  0  0  0  0  0  0  0
   10.4181  -14.4434   30.1021 O   0  0  0  0  0  0  0  0  0  0  0  0
    9.6566  -15.8023   28.3491 C   0  0  0  0  0  0  0  0  0  0  0  0
    8.7290  -15.8877   27.2010 C   0  0  0  0  0  0  0  0  0  0  0  0
    8.6380  -17.1625   26.4706 C   0  0  2  0  0  0  0  0  0  0  0  0
    7.6168  -17.1104   25.4525 N   0  0  0  0  0  0  0  0  0  0  0  0
    8.4664  -18.3559   27.3220 C   0  0  0  0  0  0  0  0  0  0  0  0
    7.3329  -18.8795   27.3929 O   0  0  0  0  0  0  0  0  0  0  0  0
    9.4873  -18.9335   28.0499 O   0  0  0  0  0  0  0  0  0  0  0  0
  1  2  1  0
  2  3  2  0
  4  2  1  0
  4  5  1  0
  5  6  1  0
  6  8  1  0
  6  7  1  6
  8  9  2  0
 10 11  1  0
 10  8  1  0
 11 12  1  6
 13 14  1  0
 13 12  1  0
 14 15  1  0
 16 15  1  0
 17 25  1  0
 17 11  1  0
 18 17  2  0
 19 20  1  0
 20 22  1  0
 21 20  2  0
 22 23  1  0
 24 23  1  1
 24 26  1  0
 24 25  1  0
 26 28  1  0
 27 26  2  0
M  END
$$$$
