QKQ.pdb
     RDKit          3D

 28 27  0  0  1  0  0  0  0  0999 V2000
   14.9028  -19.8396   13.1921 N   0  0  0  0  0  0  0  0  0  0  0  0
   15.5147  -19.1290   14.2661 C   0  0  0  0  0  0  0  0  0  0  0  0
   16.4521  -19.6834   14.8741 O   0  0  0  0  0  0  0  0  0  0  0  0
   15.0500  -17.7742   14.6454 C   0  0  0  0  0  0  0  0  0  0  0  0
   14.3522  -17.7222   15.9774 C   0  0  0  0  0  0  0  0  0  0  0  0
   12.8928  -18.0900   15.9033 C   0  0  2  0  0  0  0  0  0  0  0  0
   12.2134  -17.0611   15.1663 N   0  0  0  0  0  0  0  0  0  0  0  0
   12.3997  -18.1906   17.3060 C   0  0  0  0  0  0  0  0  0  0  0  0
   12.1856  -17.1619   17.9956 O   0  0  0  0  0  0  0  0  0  0  0  0
   12.1561  -19.4484   17.9080 N   0  0  0  0  0  0  0  0  0  0  0  0
   11.6065  -19.5084   19.2672 C   0  0  1  0  0  0  0  0  0  0  0  0
   10.5955  -20.6599   19.1971 C   0  0  0  0  0  0  0  0  0  0  0  0
    9.9873  -20.9828   20.5285 C   0  0  0  0  0  0  0  0  0  0  0  0
    9.0814  -22.1800   20.3811 C   0  0  0  0  0  0  0  0  0  0  0  0
    8.5245  -22.5580   21.7219 C   0  0  0  0  0  0  0  0  0  0  0  0
    7.7086  -23.7539   21.5483 N   0  0  0  0  0  0  0  0  0  0  0  0
   12.6718  -19.7314   20.2577 C   0  0  0  0  0  0  0  0  0  0  0  0
   13.5210  -20.6262   20.0473 O   0  0  0  0  0  0  0  0  0  0  0  0
   14.3365  -15.3499   24.5763 N   0  0  0  0  0  0  0  0  0  0  0  0
   14.8280  -15.5699   23.2739 C   0  0  0  0  0  0  0  0  0  0  0  0
   15.4802  -14.6256   22.7592 O   0  0  0  0  0  0  0  0  0  0  0  0
   14.6317  -16.7966   22.5016 C   0  0  0  0  0  0  0  0  0  0  0  0
   14.0824  -17.9623   23.2264 C   0  0  0  0  0  0  0  0  0  0  0  0
   13.8129  -19.1934   22.4657 C   0  0  2  0  0  0  0  0  0  0  0  0
   12.7976  -18.9774   21.4633 N   0  0  0  0  0  0  0  0  0  0  0  0
   13.4906  -20.3751   23.2894 C   0  0  0  0  0  0  0  0  0  0  0  0
   12.2885  -20.6824   23.4463 O   0  0  0  0  0  0  0  0  0  0  0  0
   14.4412  -21.1673   23.9014 O   0  0  0  0  0  0  0  0  0  0  0  0
  1  2  1  0
  2  3  2  0
  4  2  1  0
  4  5  1  0
  5  6  1  0
  6  8  1  0
  6  7  1  6
  8  9  2  0
 10 11  1  0
 10  8  1  0
 11 12  1  6
 13 14  1  0
 13 12  1  0
 14 15  1  0
 16 15  1  0
 17 25  1  0
 17 11  1  0
 18 17  2  0
 19 20  1  0
 20 22  1  0
 21 20  2  0
 22 23  1  0
 24 23  1  1
 24 26  1  0
 24 25  1  0
 26 28  1  0
 27 26  2  0
M  END
$$$$
