QKQ.pdb
     RDKit          3D

 28 27  0  0  1  0  0  0  0  0999 V2000
   13.5314  -14.3060   17.4201 N   0  0  0  0  0  0  0  0  0  0  0  0
   13.6632  -14.1557   18.8318 C   0  0  0  0  0  0  0  0  0  0  0  0
   14.1195  -13.0784   19.2643 O   0  0  0  0  0  0  0  0  0  0  0  0
   13.2690  -15.2464   19.7539 C   0  0  0  0  0  0  0  0  0  0  0  0
   11.7839  -15.3512   19.9709 C   0  0  0  0  0  0  0  0  0  0  0  0
   11.3895  -16.4940   20.8705 C   0  0  2  0  0  0  0  0  0  0  0  0
   11.3656  -17.6927   20.0793 N   0  0  0  0  0  0  0  0  0  0  0  0
   10.0465  -16.1646   21.4259 C   0  0  0  0  0  0  0  0  0  0  0  0
    9.8280  -15.0625   21.9891 O   0  0  0  0  0  0  0  0  0  0  0  0
    8.9724  -17.0823   21.3373 N   0  0  0  0  0  0  0  0  0  0  0  0
    7.7003  -16.7774   22.0021 C   0  0  1  0  0  0  0  0  0  0  0  0
    6.6897  -17.6748   21.2766 C   0  0  0  0  0  0  0  0  0  0  0  0
    5.3209  -17.6208   21.8851 C   0  0  0  0  0  0  0  0  0  0  0  0
    4.3979  -18.5257   21.1074 C   0  0  0  0  0  0  0  0  0  0  0  0
    3.0279  -18.4923   21.7179 C   0  0  0  0  0  0  0  0  0  0  0  0
    2.1284  -19.2357   20.8436 N   0  0  0  0  0  0  0  0  0  0  0  0
    7.7823  -17.0461   23.4466 C   0  0  0  0  0  0  0  0  0  0  0  0
    6.7904  -16.7998   24.1688 O   0  0  0  0  0  0  0  0  0  0  0  0
    6.8385  -20.2263   27.3827 N   0  0  0  0  0  0  0  0  0  0  0  0
    8.1041  -20.0474   27.9765 C   0  0  0  0  0  0  0  0  0  0  0  0
    8.1884  -20.3270   29.1999 O   0  0  0  0  0  0  0  0  0  0  0  0
    9.2961  -19.5679   27.2773 C   0  0  0  0  0  0  0  0  0  0  0  0
    9.1333  -19.1969   25.8554 C   0  0  0  0  0  0  0  0  0  0  0  0
    9.0847  -17.7671   25.5084 C   0  0  2  0  0  0  0  0  0  0  0  0
    8.9428  -17.5788   24.0848 N   0  0  0  0  0  0  0  0  0  0  0  0
   10.2049  -16.9617   26.0329 C   0  0  0  0  0  0  0  0  0  0  0  0
   10.3394  -16.8636   27.2724 O   0  0  0  0  0  0  0  0  0  0  0  0
   11.1194  -16.3054   25.2337 O   0  0  0  0  0  0  0  0  0  0  0  0
  1  2  1  0
  2  3  2  0
  4  2  1  0
  4  5  1  0
  5  6  1  0
  6  8  1  0
  6  7  1  6
  8  9  2  0
 10 11  1  0
 10  8  1  0
 11 12  1  6
 13 14  1  0
 13 12  1  0
 14 15  1  0
 16 15  1  0
 17 25  1  0
 17 11  1  0
 18 17  2  0
 19 20  1  0
 20 22  1  0
 21 20  2  0
 22 23  1  0
 24 23  1  6
 24 26  1  0
 24 25  1  0
 26 28  1  0
 27 26  2  0
M  END
$$$$
