QKQ.pdb
     RDKit          3D

 28 27  0  0  1  0  0  0  0  0999 V2000
    8.4883  -12.4007   19.6764 N   0  0  0  0  0  0  0  0  0  0  0  0
    8.4008  -13.2325   18.5216 C   0  0  0  0  0  0  0  0  0  0  0  0
    8.7765  -12.7587   17.4308 O   0  0  0  0  0  0  0  0  0  0  0  0
    7.8803  -14.6164   18.6176 C   0  0  0  0  0  0  0  0  0  0  0  0
    7.4675  -15.0149   20.0085 C   0  0  0  0  0  0  0  0  0  0  0  0
    6.8501  -16.3877   20.0794 C   0  0  2  0  0  0  0  0  0  0  0  0
    5.6256  -16.3622   19.3289 N   0  0  0  0  0  0  0  0  0  0  0  0
    6.6156  -16.6832   21.5211 C   0  0  0  0  0  0  0  0  0  0  0  0
    5.8911  -15.9384   22.2283 O   0  0  0  0  0  0  0  0  0  0  0  0
    7.2011  -17.8128   22.1416 N   0  0  0  0  0  0  0  0  0  0  0  0
    6.9555  -18.0675   23.5657 C   0  0  1  0  0  0  0  0  0  0  0  0
    6.6772  -19.5750   23.6199 C   0  0  0  0  0  0  0  0  0  0  0  0
    5.3536  -19.9448   23.0216 C   0  0  0  0  0  0  0  0  0  0  0  0
    5.2101  -21.4465   23.0282 C   0  0  0  0  0  0  0  0  0  0  0  0
    3.9146  -21.8313   22.3769 C   0  0  0  0  0  0  0  0  0  0  0  0
    3.8603  -23.2869   22.3105 N   0  0  0  0  0  0  0  0  0  0  0  0
    8.1111  -17.6612   24.3813 C   0  0  0  0  0  0  0  0  0  0  0  0
    9.2641  -17.7993   23.9147 O   0  0  0  0  0  0  0  0  0  0  0  0
    8.0895  -13.1836   29.0096 N   0  0  0  0  0  0  0  0  0  0  0  0
    9.2903  -13.9036   29.1708 C   0  0  0  0  0  0  0  0  0  0  0  0
   10.0507  -13.5162   30.0946 O   0  0  0  0  0  0  0  0  0  0  0  0
    9.6983  -15.0445   28.3512 C   0  0  0  0  0  0  0  0  0  0  0  0
    8.7418  -15.5045   27.3219 C   0  0  0  0  0  0  0  0  0  0  0  0
    9.1072  -16.6704   26.5009 C   0  0  2  0  0  0  0  0  0  0  0  0
    7.9954  -17.1107   25.6933 N   0  0  0  0  0  0  0  0  0  0  0  0
    9.6883  -17.8011   27.2508 C   0  0  0  0  0  0  0  0  0  0  0  0
    8.9645  -18.7927   27.4897 O   0  0  0  0  0  0  0  0  0  0  0  0
   10.9906  -17.8317   27.7077 O   0  0  0  0  0  0  0  0  0  0  0  0
  1  2  1  0
  2  3  2  0
  4  2  1  0
  4  5  1  0
  5  6  1  0
  6  8  1  0
  6  7  1  6
  8  9  2  0
 10 11  1  0
 10  8  1  0
 11 12  1  6
 13 14  1  0
 13 12  1  0
 14 15  1  0
 16 15  1  0
 17 25  1  0
 17 11  1  0
 18 17  2  0
 19 20  1  0
 20 22  1  0
 21 20  2  0
 22 23  1  0
 24 23  1  1
 24 26  1  0
 24 25  1  0
 26 28  1  0
 27 26  2  0
M  END
$$$$
