QKQ.pdb
     RDKit          3D

 28 27  0  0  1  0  0  0  0  0999 V2000
   12.3220  -13.6808   21.6865 N   0  0  0  0  0  0  0  0  0  0  0  0
   12.5416  -14.1403   20.3548 C   0  0  0  0  0  0  0  0  0  0  0  0
   13.6997  -14.0718   19.8968 O   0  0  0  0  0  0  0  0  0  0  0  0
   11.4271  -14.6827   19.5429 C   0  0  0  0  0  0  0  0  0  0  0  0
   10.1129  -14.7349   20.2734 C   0  0  0  0  0  0  0  0  0  0  0  0
    8.9551  -15.1330   19.3948 C   0  0  2  0  0  0  0  0  0  0  0  0
    8.8155  -14.1382   18.3680 N   0  0  0  0  0  0  0  0  0  0  0  0
    7.7514  -15.2046   20.2705 C   0  0  0  0  0  0  0  0  0  0  0  0
    7.0907  -14.1736   20.5535 O   0  0  0  0  0  0  0  0  0  0  0  0
    7.3125  -16.4365   20.8125 N   0  0  0  0  0  0  0  0  0  0  0  0
    6.1179  -16.4705   21.6637 C   0  0  1  0  0  0  0  0  0  0  0  0
    5.3055  -17.6426   21.0988 C   0  0  0  0  0  0  0  0  0  0  0  0
    4.1037  -17.9732   21.9314 C   0  0  0  0  0  0  0  0  0  0  0  0
    3.4091  -19.1755   21.3418 C   0  0  0  0  0  0  0  0  0  0  0  0
    2.1376  -19.4407   22.0926 C   0  0  0  0  0  0  0  0  0  0  0  0
    1.5479  -20.6630   21.5594 N   0  0  0  0  0  0  0  0  0  0  0  0
    6.4829  -16.6463   23.0784 C   0  0  0  0  0  0  0  0  0  0  0  0
    5.5757  -16.7027   23.9387 O   0  0  0  0  0  0  0  0  0  0  0  0
    9.9485  -20.8462   25.8231 N   0  0  0  0  0  0  0  0  0  0  0  0
    9.8642  -19.8230   26.7887 C   0  0  0  0  0  0  0  0  0  0  0  0
   10.3201  -20.0960   27.9287 O   0  0  0  0  0  0  0  0  0  0  0  0
    9.2934  -18.4967   26.5548 C   0  0  0  0  0  0  0  0  0  0  0  0
    8.7986  -18.2128   25.1908 C   0  0  0  0  0  0  0  0  0  0  0  0
    8.2196  -16.8867   24.9204 C   0  0  2  0  0  0  0  0  0  0  0  0
    7.8302  -16.7580   23.5370 N   0  0  0  0  0  0  0  0  0  0  0  0
    9.0590  -15.7456   25.3351 C   0  0  0  0  0  0  0  0  0  0  0  0
    9.0237  -15.3835   26.5317 O   0  0  0  0  0  0  0  0  0  0  0  0
    9.8862  -15.0486   24.4774 O   0  0  0  0  0  0  0  0  0  0  0  0
  1  2  1  0
  2  3  2  0
  4  2  1  0
  4  5  1  0
  5  6  1  0
  6  8  1  0
  6  7  1  6
  8  9  2  0
 10 11  1  0
 10  8  1  0
 11 12  1  6
 13 14  1  0
 13 12  1  0
 14 15  1  0
 16 15  1  0
 17 25  1  0
 17 11  1  0
 18 17  2  0
 19 20  1  0
 20 22  1  0
 21 20  2  0
 22 23  1  0
 24 23  1  6
 24 26  1  0
 24 25  1  0
 26 28  1  0
 27 26  2  0
M  END
$$$$
