QKQ.pdb
     RDKit          3D

 28 27  0  0  1  0  0  0  0  0999 V2000
   16.3880  -18.7352   16.0685 N   0  0  0  0  0  0  0  0  0  0  0  0
   15.2997  -19.3946   15.4254 C   0  0  0  0  0  0  0  0  0  0  0  0
   15.5436  -20.0566   14.3968 O   0  0  0  0  0  0  0  0  0  0  0  0
   13.9233  -19.2957   15.9648 C   0  0  0  0  0  0  0  0  0  0  0  0
   13.8059  -18.4025   17.1698 C   0  0  0  0  0  0  0  0  0  0  0  0
   13.1073  -19.0564   18.3340 C   0  0  2  0  0  0  0  0  0  0  0  0
   11.9811  -19.7863   17.8217 N   0  0  0  0  0  0  0  0  0  0  0  0
   12.6914  -17.9643   19.2585 C   0  0  0  0  0  0  0  0  0  0  0  0
   13.5134  -17.4285   20.0439 O   0  0  0  0  0  0  0  0  0  0  0  0
   11.3564  -17.4941   19.2826 N   0  0  0  0  0  0  0  0  0  0  0  0
   10.9780  -16.4305   20.2200 C   0  0  1  0  0  0  0  0  0  0  0  0
    9.8092  -15.7287   19.5169 C   0  0  0  0  0  0  0  0  0  0  0  0
    9.2438  -14.5950   20.3179 C   0  0  0  0  0  0  0  0  0  0  0  0
    8.1625  -13.9140   19.5163 C   0  0  0  0  0  0  0  0  0  0  0  0
    7.5921  -12.7736   20.3069 C   0  0  0  0  0  0  0  0  0  0  0  0
    6.6145  -12.0904   19.4682 N   0  0  0  0  0  0  0  0  0  0  0  0
   10.6148  -16.9885   21.5324 C   0  0  0  0  0  0  0  0  0  0  0  0
    9.8279  -17.9602   21.5840 O   0  0  0  0  0  0  0  0  0  0  0  0
   13.8628  -19.6575   25.6352 N   0  0  0  0  0  0  0  0  0  0  0  0
   13.3469  -19.7797   24.3294 C   0  0  0  0  0  0  0  0  0  0  0  0
   13.8587  -20.6767   23.6115 O   0  0  0  0  0  0  0  0  0  0  0  0
   12.2807  -18.9492   23.7699 C   0  0  0  0  0  0  0  0  0  0  0  0
   11.7556  -17.8667   24.6292 C   0  0  0  0  0  0  0  0  0  0  0  0
   10.7300  -16.9693   24.0727 C   0  0  2  0  0  0  0  0  0  0  0  0
   11.1131  -16.4809   22.7701 N   0  0  0  0  0  0  0  0  0  0  0  0
   10.3365  -15.8527   24.9543 C   0  0  0  0  0  0  0  0  0  0  0  0
    9.9063  -16.1193   26.0979 O   0  0  0  0  0  0  0  0  0  0  0  0
   10.4147  -14.5231   24.5914 O   0  0  0  0  0  0  0  0  0  0  0  0
  1  2  1  0
  2  3  2  0
  4  2  1  0
  4  5  1  0
  5  6  1  0
  6  8  1  0
  6  7  1  6
  8  9  2  0
 10 11  1  0
 10  8  1  0
 11 12  1  6
 13 14  1  0
 13 12  1  0
 14 15  1  0
 16 15  1  0
 17 25  1  0
 17 11  1  0
 18 17  2  0
 19 20  1  0
 20 22  1  0
 21 20  2  0
 22 23  1  0
 24 23  1  1
 24 26  1  0
 24 25  1  0
 26 28  1  0
 27 26  2  0
M  END
$$$$
