YLY.pdb
     RDKit          3D

 33 34  0  0  1  0  0  0  0  0999 V2000
   19.4272  -17.4927  -15.0536 O   0  0  0  0  0  0  0  0  0  0  0  0
   19.0334  -16.1627  -15.2430 C   0  0  0  0  0  0  0  0  0  0  0  0
   19.3267  -15.4683  -16.4028 C   0  0  0  0  0  0  0  0  0  0  0  0
   18.9240  -14.1571  -16.5590 C   0  0  0  0  0  0  0  0  0  0  0  0
   18.2218  -13.4941  -15.5779 C   0  0  0  0  0  0  0  0  0  0  0  0
   17.8196  -12.1053  -15.7952 C   0  0  0  0  0  0  0  0  0  0  0  0
   16.3530  -11.9607  -16.1586 C   0  0  2  0  0  0  0  0  0  0  0  0
   16.0517  -12.5475  -17.4350 N   0  0  0  0  0  0  0  0  0  0  0  0
   16.0705  -10.5079  -16.2350 C   0  0  0  0  0  0  0  0  0  0  0  0
   16.2847   -9.9211  -17.3197 O   0  0  0  0  0  0  0  0  0  0  0  0
   17.9216  -14.1706  -14.4174 C   0  0  0  0  0  0  0  0  0  0  0  0
   18.3287  -15.4756  -14.2753 C   0  0  0  0  0  0  0  0  0  0  0  0
   12.6328   -7.4212  -16.4077 C   0  0  0  0  0  0  0  0  0  0  0  0
   12.7786   -8.3751  -15.1876 C   0  0  2  0  0  0  0  0  0  0  0  0
   11.5296   -8.1545  -14.3648 C   0  0  0  0  0  0  0  0  0  0  0  0
   14.0401   -8.0499  -14.4596 C   0  0  0  0  0  0  0  0  0  0  0  0
   15.2976   -8.3219  -15.2107 C   0  0  2  0  0  0  0  0  0  0  0  0
   15.5734   -9.7888  -15.1256 N   0  0  0  0  0  0  0  0  0  0  0  0
   16.4904   -7.6425  -14.6808 C   0  0  0  0  0  0  0  0  0  0  0  0
   16.9625   -8.0238  -13.5360 O   0  0  0  0  0  0  0  0  0  0  0  0
   23.4966   -2.1534  -14.6302 O   0  0  0  0  0  0  0  0  0  0  0  0
   22.4877   -3.0833  -14.8930 C   0  0  0  0  0  0  0  0  0  0  0  0
   22.4905   -4.3578  -14.3728 C   0  0  0  0  0  0  0  0  0  0  0  0
   21.4895   -5.2563  -14.6432 C   0  0  0  0  0  0  0  0  0  0  0  0
   20.4445   -4.8675  -15.4652 C   0  0  0  0  0  0  0  0  0  0  0  0
   19.3289   -5.7562  -15.8191 C   0  0  0  0  0  0  0  0  0  0  0  0
   18.2912   -5.8964  -14.7175 C   0  0  2  0  0  0  0  0  0  0  0  0
   17.1626   -6.5984  -15.3496 N   0  0  0  0  0  0  0  0  0  0  0  0
   17.8235   -4.5877  -14.2567 C   0  0  0  0  0  0  0  0  0  0  0  0
   18.4549   -3.9826  -13.3582 O   0  0  0  0  0  0  0  0  0  0  0  0
   20.4573   -3.5867  -15.9783 C   0  0  0  0  0  0  0  0  0  0  0  0
   21.4589   -2.6718  -15.7140 C   0  0  0  0  0  0  0  0  0  0  0  0
   16.6979   -4.0099  -14.7972 O   0  0  0  0  0  0  0  0  0  0  0  0
  2  1  1  0
  3  2  2  0
  4  3  1  0
  5  4  2  0
  5 11  1  0
  6  5  1  0
  7  8  1  6
  7  6  1  0
  9  7  1  0
 10  9  2  0
 11 12  2  0
 12  2  1  0
 14 13  1  6
 14 16  1  0
 15 14  1  0
 17 16  1  1
 17 19  1  0
 17 18  1  0
 18  9  1  0
 19 28  1  0
 20 19  2  0
 22 32  2  0
 22 21  1  0
 23 22  1  0
 24 25  1  0
 24 23  2  0
 25 31  2  0
 26 25  1  0
 27 26  1  6
 27 29  1  0
 28 27  1  0
 29 30  2  0
 29 33  1  0
 31 32  1  0
M  END
$$$$
