YLY.pdb
     RDKit          3D

 33 34  0  0  1  0  0  0  0  0999 V2000
   28.3657  -15.2864  -18.0374 O   0  0  0  0  0  0  0  0  0  0  0  0
   27.8343  -16.2310  -17.1513 C   0  0  0  0  0  0  0  0  0  0  0  0
   27.6799  -15.9668  -15.8024 C   0  0  0  0  0  0  0  0  0  0  0  0
   27.1524  -16.9199  -14.9544 C   0  0  0  0  0  0  0  0  0  0  0  0
   26.7626  -18.1587  -15.4112 C   0  0  0  0  0  0  0  0  0  0  0  0
   26.2099  -19.1312  -14.4697 C   0  0  0  0  0  0  0  0  0  0  0  0
   27.2702  -19.7975  -13.6120 C   0  0  2  0  0  0  0  0  0  0  0  0
   28.1491  -20.6289  -14.3872 N   0  0  0  0  0  0  0  0  0  0  0  0
   26.5570  -20.6553  -12.6364 C   0  0  0  0  0  0  0  0  0  0  0  0
   26.2187  -21.8050  -12.9978 O   0  0  0  0  0  0  0  0  0  0  0  0
   26.9095  -18.4380  -16.7510 C   0  0  0  0  0  0  0  0  0  0  0  0
   27.4361  -17.4798  -17.5838 C   0  0  0  0  0  0  0  0  0  0  0  0
   27.1725  -21.9083   -8.4727 C   0  0  0  0  0  0  0  0  0  0  0  0
   26.7153  -20.4242   -8.5625 C   0  0  2  0  0  0  0  0  0  0  0  0
   26.8297  -19.8916   -7.1522 C   0  0  0  0  0  0  0  0  0  0  0  0
   25.3287  -20.3711   -9.1116 C   0  0  0  0  0  0  0  0  0  0  0  0
   25.1809  -20.8454  -10.5162 C   0  0  2  0  0  0  0  0  0  0  0  0
   26.2586  -20.2056  -11.3312 N   0  0  0  0  0  0  0  0  0  0  0  0
   23.9057  -20.4861  -11.1564 C   0  0  0  0  0  0  0  0  0  0  0  0
   23.7616  -19.2834  -11.6166 O   0  0  0  0  0  0  0  0  0  0  0  0
   17.6592  -20.7110  -17.0862 O   0  0  0  0  0  0  0  0  0  0  0  0
   18.7391  -20.7623  -16.2014 C   0  0  0  0  0  0  0  0  0  0  0  0
   19.3868  -19.6368  -15.7449 C   0  0  0  0  0  0  0  0  0  0  0  0
   20.4460  -19.7088  -14.8757 C   0  0  0  0  0  0  0  0  0  0  0  0
   20.8756  -20.9534  -14.4451 C   0  0  0  0  0  0  0  0  0  0  0  0
   22.0027  -21.1372  -13.5202 C   0  0  0  0  0  0  0  0  0  0  0  0
   21.6186  -20.9864  -12.0574 C   0  0  2  0  0  0  0  0  0  0  0  0
   22.8237  -21.3779  -11.3087 N   0  0  0  0  0  0  0  0  0  0  0  0
   20.5316  -21.8981  -11.6954 C   0  0  0  0  0  0  0  0  0  0  0  0
   19.3408  -21.5208  -11.8052 O   0  0  0  0  0  0  0  0  0  0  0  0
   20.2154  -22.0713  -14.9125 C   0  0  0  0  0  0  0  0  0  0  0  0
   19.1475  -22.0130  -15.7879 C   0  0  0  0  0  0  0  0  0  0  0  0
   20.7982  -23.1671  -11.2356 O   0  0  0  0  0  0  0  0  0  0  0  0
  2  1  1  0
  3  2  2  0
  4  3  1  0
  5  4  2  0
  5 11  1  0
  6  5  1  0
  7  8  1  6
  7  6  1  0
  9  7  1  0
 10  9  2  0
 11 12  2  0
 12  2  1  0
 14 13  1  1
 14 16  1  0
 15 14  1  0
 17 16  1  1
 17 19  1  0
 17 18  1  0
 18  9  1  0
 19 28  1  0
 20 19  2  0
 22 32  2  0
 22 21  1  0
 23 22  1  0
 24 25  1  0
 24 23  2  0
 25 31  2  0
 26 25  1  0
 27 26  1  6
 27 29  1  0
 28 27  1  0
 29 30  2  0
 29 33  1  0
 31 32  1  0
M  END
$$$$
