YLY.pdb
     RDKit          3D

 33 34  0  0  1  0  0  0  0  0999 V2000
   25.3203  -21.2379  -26.5979 O   0  0  0  0  0  0  0  0  0  0  0  0
   25.3535  -21.5577  -25.2354 C   0  0  0  0  0  0  0  0  0  0  0  0
   24.2371  -22.0206  -24.5627 C   0  0  0  0  0  0  0  0  0  0  0  0
   24.3024  -22.3274  -23.2183 C   0  0  0  0  0  0  0  0  0  0  0  0
   25.4684  -22.1868  -22.4998 C   0  0  0  0  0  0  0  0  0  0  0  0
   25.4821  -22.5262  -21.0778 C   0  0  0  0  0  0  0  0  0  0  0  0
   26.4714  -23.6262  -20.7384 C   0  0  2  0  0  0  0  0  0  0  0  0
   26.0577  -24.9030  -21.2515 N   0  0  0  0  0  0  0  0  0  0  0  0
   26.5265  -23.7135  -19.2600 C   0  0  0  0  0  0  0  0  0  0  0  0
   25.6277  -24.3570  -18.6727 O   0  0  0  0  0  0  0  0  0  0  0  0
   26.5887  -21.7273  -23.1541 C   0  0  0  0  0  0  0  0  0  0  0  0
   26.5094  -21.4257  -24.4927 C   0  0  0  0  0  0  0  0  0  0  0  0
   29.5114  -25.4343  -16.3499 C   0  0  0  0  0  0  0  0  0  0  0  0
   29.9401  -24.1009  -17.0268 C   0  0  2  0  0  0  0  0  0  0  0  0
   31.3723  -23.8834  -16.5943 C   0  0  0  0  0  0  0  0  0  0  0  0
   29.0133  -23.0131  -16.5968 C   0  0  0  0  0  0  0  0  0  0  0  0
   27.5958  -23.1771  -17.0253 C   0  0  2  0  0  0  0  0  0  0  0  0
   27.5563  -23.0945  -18.5175 N   0  0  0  0  0  0  0  0  0  0  0  0
   26.6780  -22.1408  -16.5264 C   0  0  0  0  0  0  0  0  0  0  0  0
   26.8359  -20.9231  -16.9402 O   0  0  0  0  0  0  0  0  0  0  0  0
   21.1609  -26.4644  -13.8315 O   0  0  0  0  0  0  0  0  0  0  0  0
   21.7400  -25.3067  -14.3567 C   0  0  0  0  0  0  0  0  0  0  0  0
   22.7195  -25.3321  -15.3235 C   0  0  0  0  0  0  0  0  0  0  0  0
   23.2756  -24.1831  -15.8265 C   0  0  0  0  0  0  0  0  0  0  0  0
   22.8366  -22.9605  -15.3456 C   0  0  0  0  0  0  0  0  0  0  0  0
   23.3718  -21.6748  -15.8151 C   0  0  0  0  0  0  0  0  0  0  0  0
   24.7147  -21.3154  -15.2008 C   0  0  2  0  0  0  0  0  0  0  0  0
   25.6236  -22.3928  -15.6242 N   0  0  0  0  0  0  0  0  0  0  0  0
   24.6481  -21.3134  -13.7382 C   0  0  0  0  0  0  0  0  0  0  0  0
   25.2515  -22.1988  -13.0869 O   0  0  0  0  0  0  0  0  0  0  0  0
   21.8543  -22.9528  -14.3766 C   0  0  0  0  0  0  0  0  0  0  0  0
   21.2858  -24.1025  -13.8614 C   0  0  0  0  0  0  0  0  0  0  0  0
   23.9312  -20.3508  -13.0655 O   0  0  0  0  0  0  0  0  0  0  0  0
  2  1  1  0
  3  2  2  0
  4  3  1  0
  5  4  2  0
  5 11  1  0
  6  5  1  0
  7  8  1  6
  7  6  1  0
  9  7  1  0
 10  9  2  0
 11 12  2  0
 12  2  1  0
 14 13  1  1
 14 16  1  0
 15 14  1  0
 17 16  1  1
 17 19  1  0
 17 18  1  0
 18  9  1  0
 19 28  1  0
 20 19  2  0
 22 32  2  0
 22 21  1  0
 23 22  1  0
 24 25  1  0
 24 23  2  0
 25 31  2  0
 26 25  1  0
 27 26  1  6
 27 29  1  0
 28 27  1  0
 29 30  2  0
 29 33  1  0
 31 32  1  0
M  END
$$$$
