YLY.pdb
     RDKit          3D

 33 34  0  0  1  0  0  0  0  0999 V2000
   23.4624  -16.5514  -24.2034 O   0  0  0  0  0  0  0  0  0  0  0  0
   23.5309  -17.2790  -23.0093 C   0  0  0  0  0  0  0  0  0  0  0  0
   23.1057  -18.5925  -22.9247 C   0  0  0  0  0  0  0  0  0  0  0  0
   23.1865  -19.2829  -21.7320 C   0  0  0  0  0  0  0  0  0  0  0  0
   23.6880  -18.6990  -20.5904 C   0  0  0  0  0  0  0  0  0  0  0  0
   23.7510  -19.4760  -19.3535 C   0  0  0  0  0  0  0  0  0  0  0  0
   25.1713  -19.7914  -18.9210 C   0  0  2  0  0  0  0  0  0  0  0  0
   25.8259  -20.6920  -19.8294 N   0  0  0  0  0  0  0  0  0  0  0  0
   25.0810  -20.4494  -17.5962 C   0  0  0  0  0  0  0  0  0  0  0  0
   24.8573  -21.6806  -17.5626 O   0  0  0  0  0  0  0  0  0  0  0  0
   24.1155  -17.3924  -20.6574 C   0  0  0  0  0  0  0  0  0  0  0  0
   24.0292  -16.7170  -21.8513 C   0  0  0  0  0  0  0  0  0  0  0  0
   28.1574  -21.2658  -15.0772 C   0  0  0  0  0  0  0  0  0  0  0  0
   27.6646  -19.8036  -14.8801 C   0  0  2  0  0  0  0  0  0  0  0  0
   28.7288  -19.1406  -14.0354 C   0  0  0  0  0  0  0  0  0  0  0  0
   26.3173  -19.8229  -14.2386 C   0  0  0  0  0  0  0  0  0  0  0  0
   25.2259  -20.4095  -15.0659 C   0  0  2  0  0  0  0  0  0  0  0  0
   25.2401  -19.7243  -16.3946 N   0  0  0  0  0  0  0  0  0  0  0  0
   23.8724  -20.2277  -14.5180 C   0  0  0  0  0  0  0  0  0  0  0  0
   23.5748  -20.8085  -13.3986 O   0  0  0  0  0  0  0  0  0  0  0  0
   15.6855  -16.8535  -13.6987 O   0  0  0  0  0  0  0  0  0  0  0  0
   17.0399  -17.0978  -13.9383 C   0  0  0  0  0  0  0  0  0  0  0  0
   18.0167  -16.8923  -12.9904 C   0  0  0  0  0  0  0  0  0  0  0  0
   19.3420  -17.1386  -13.2459 C   0  0  0  0  0  0  0  0  0  0  0  0
   19.7069  -17.6085  -14.4969 C   0  0  0  0  0  0  0  0  0  0  0  0
   21.0984  -17.8974  -14.8708 C   0  0  0  0  0  0  0  0  0  0  0  0
   21.5367  -19.3130  -14.5328 C   0  0  2  0  0  0  0  0  0  0  0  0
   22.8724  -19.4484  -15.1358 N   0  0  0  0  0  0  0  0  0  0  0  0
   20.6498  -20.3052  -15.1432 C   0  0  0  0  0  0  0  0  0  0  0  0
   19.6395  -20.7050  -14.5174 O   0  0  0  0  0  0  0  0  0  0  0  0
   18.7154  -17.8090  -15.4354 C   0  0  0  0  0  0  0  0  0  0  0  0
   17.3771  -17.5651  -15.1912 C   0  0  0  0  0  0  0  0  0  0  0  0
   20.9091  -20.8067  -16.3979 O   0  0  0  0  0  0  0  0  0  0  0  0
  2  1  1  0
  3  2  2  0
  4  3  1  0
  5  4  2  0
  5 11  1  0
  6  5  1  0
  7  8  1  6
  7  6  1  0
  9  7  1  0
 10  9  2  0
 11 12  2  0
 12  2  1  0
 14 13  1  1
 14 16  1  0
 15 14  1  0
 17 16  1  1
 17 19  1  0
 17 18  1  0
 18  9  1  0
 19 28  1  0
 20 19  2  0
 22 32  2  0
 22 21  1  0
 23 22  1  0
 24 25  1  0
 24 23  2  0
 25 31  2  0
 26 25  1  0
 27 26  1  6
 27 29  1  0
 28 27  1  0
 29 30  2  0
 29 33  1  0
 31 32  1  0
M  END
$$$$
