YLY.pdb
     RDKit          3D

 33 34  0  0  1  0  0  0  0  0999 V2000
   20.6539  -16.4252  -18.9297 O   0  0  0  0  0  0  0  0  0  0  0  0
   20.8147  -17.2667  -17.8224 C   0  0  0  0  0  0  0  0  0  0  0  0
   20.8852  -16.7755  -16.5313 C   0  0  0  0  0  0  0  0  0  0  0  0
   21.0441  -17.6319  -15.4603 C   0  0  0  0  0  0  0  0  0  0  0  0
   21.1378  -18.9948  -15.6312 C   0  0  0  0  0  0  0  0  0  0  0  0
   21.3054  -19.8564  -14.4619 C   0  0  0  0  0  0  0  0  0  0  0  0
   22.6934  -19.7703  -13.8538 C   0  0  2  0  0  0  0  0  0  0  0  0
   23.7093  -20.2367  -14.7566 N   0  0  0  0  0  0  0  0  0  0  0  0
   22.6939  -20.6464  -12.6585 C   0  0  0  0  0  0  0  0  0  0  0  0
   22.5770  -21.8806  -12.8312 O   0  0  0  0  0  0  0  0  0  0  0  0
   21.0694  -19.5001  -16.9097 C   0  0  0  0  0  0  0  0  0  0  0  0
   20.9111  -18.6360  -17.9667 C   0  0  0  0  0  0  0  0  0  0  0  0
   25.8654  -21.3834   -9.6004 C   0  0  0  0  0  0  0  0  0  0  0  0
   25.0925  -20.0402   -9.4650 C   0  0  2  0  0  0  0  0  0  0  0  0
   25.8406  -19.2612   -8.4072 C   0  0  0  0  0  0  0  0  0  0  0  0
   23.6726  -20.3261   -9.1056 C   0  0  0  0  0  0  0  0  0  0  0  0
   22.8757  -21.0174  -10.1576 C   0  0  2  0  0  0  0  0  0  0  0  0
   22.8216  -20.1217  -11.3534 N   0  0  0  0  0  0  0  0  0  0  0  0
   21.4804  -21.3010   -9.7862 C   0  0  0  0  0  0  0  0  0  0  0  0
   20.6159  -20.3377   -9.8468 O   0  0  0  0  0  0  0  0  0  0  0  0
   13.5839  -24.8422   -9.5061 O   0  0  0  0  0  0  0  0  0  0  0  0
   14.9509  -24.5927   -9.6501 C   0  0  0  0  0  0  0  0  0  0  0  0
   15.9180  -25.5228   -9.3431 C   0  0  0  0  0  0  0  0  0  0  0  0
   17.2559  -25.2578   -9.4918 C   0  0  0  0  0  0  0  0  0  0  0  0
   17.6439  -24.0153   -9.9655 C   0  0  0  0  0  0  0  0  0  0  0  0
   19.0500  -23.6322  -10.1547 C   0  0  0  0  0  0  0  0  0  0  0  0
   19.6055  -22.7828   -9.0234 C   0  0  2  0  0  0  0  0  0  0  0  0
   21.0191  -22.5679   -9.3721 N   0  0  0  0  0  0  0  0  0  0  0  0
   19.5465  -23.4939   -7.7449 C   0  0  0  0  0  0  0  0  0  0  0  0
   18.4407  -23.6655   -7.1791 O   0  0  0  0  0  0  0  0  0  0  0  0
   16.6619  -23.0945  -10.2684 C   0  0  0  0  0  0  0  0  0  0  0  0
   15.3110  -23.3484  -10.1234 C   0  0  0  0  0  0  0  0  0  0  0  0
   20.6901  -23.9789   -7.1535 O   0  0  0  0  0  0  0  0  0  0  0  0
  2  1  1  0
  3  2  2  0
  4  3  1  0
  5  4  2  0
  5 11  1  0
  6  5  1  0
  7  8  1  6
  7  6  1  0
  9  7  1  0
 10  9  2  0
 11 12  2  0
 12  2  1  0
 14 13  1  1
 14 16  1  0
 15 14  1  0
 17 16  1  1
 17 19  1  0
 17 18  1  0
 18  9  1  0
 19 28  1  0
 20 19  2  0
 22 32  2  0
 22 21  1  0
 23 22  1  0
 24 25  1  0
 24 23  2  0
 25 31  2  0
 26 25  1  0
 27 26  1  6
 27 29  1  0
 28 27  1  0
 29 30  2  0
 29 33  1  0
 31 32  1  0
M  END
$$$$
