YLY.pdb
     RDKit          3D

 33 34  0  0  1  0  0  0  0  0999 V2000
   20.6708  -32.5155    7.9186 O   0  0  0  0  0  0  0  0  0  0  0  0
   21.8607  -31.8649    7.5716 C   0  0  0  0  0  0  0  0  0  0  0  0
   23.0708  -32.1846    8.1604 C   0  0  0  0  0  0  0  0  0  0  0  0
   24.2271  -31.5241    7.7961 C   0  0  0  0  0  0  0  0  0  0  0  0
   24.2234  -30.5312    6.8425 C   0  0  0  0  0  0  0  0  0  0  0  0
   25.4768  -29.8639    6.4943 C   0  0  0  0  0  0  0  0  0  0  0  0
   26.0230  -29.0009    7.6172 C   0  0  2  0  0  0  0  0  0  0  0  0
   25.2179  -27.8322    7.8418 N   0  0  0  0  0  0  0  0  0  0  0  0
   27.3764  -28.5621    7.2023 C   0  0  0  0  0  0  0  0  0  0  0  0
   27.4658  -27.6521    6.3475 O   0  0  0  0  0  0  0  0  0  0  0  0
   23.0274  -30.2007    6.2466 C   0  0  0  0  0  0  0  0  0  0  0  0
   21.8841  -30.8664    6.6189 C   0  0  0  0  0  0  0  0  0  0  0  0
   31.7488  -26.8089   10.1513 C   0  0  0  0  0  0  0  0  0  0  0  0
   30.8897  -26.9473    8.8619 C   0  0  2  0  0  0  0  0  0  0  0  0
   29.6072  -26.2055    9.1624 C   0  0  0  0  0  0  0  0  0  0  0  0
   30.6873  -28.3950    8.5612 C   0  0  0  0  0  0  0  0  0  0  0  0
   29.9051  -28.6864    7.3272 C   0  0  2  0  0  0  0  0  0  0  0  0
   28.5440  -29.1426    7.7452 N   0  0  0  0  0  0  0  0  0  0  0  0
   30.4618  -29.7556    6.4834 C   0  0  0  0  0  0  0  0  0  0  0  0
   31.6233  -29.5727    5.9389 O   0  0  0  0  0  0  0  0  0  0  0  0
   33.6419  -34.2122   10.5080 O   0  0  0  0  0  0  0  0  0  0  0  0
   32.7445  -33.9700    9.4651 C   0  0  0  0  0  0  0  0  0  0  0  0
   31.5050  -33.4041    9.6605 C   0  0  0  0  0  0  0  0  0  0  0  0
   30.6380  -33.1744    8.6223 C   0  0  0  0  0  0  0  0  0  0  0  0
   31.0234  -33.5233    7.3383 C   0  0  0  0  0  0  0  0  0  0  0  0
   30.1663  -33.3235    6.1613 C   0  0  0  0  0  0  0  0  0  0  0  0
   30.4467  -32.0271    5.4191 C   0  0  2  0  0  0  0  0  0  0  0  0
   29.8088  -30.9805    6.2338 N   0  0  0  0  0  0  0  0  0  0  0  0
   29.8241  -32.0267    4.0939 C   0  0  0  0  0  0  0  0  0  0  0  0
   28.8645  -31.2550    3.8578 O   0  0  0  0  0  0  0  0  0  0  0  0
   32.2690  -34.0896    7.1600 C   0  0  0  0  0  0  0  0  0  0  0  0
   33.1518  -34.3264    8.1967 C   0  0  0  0  0  0  0  0  0  0  0  0
   30.2784  -32.8630    3.1003 O   0  0  0  0  0  0  0  0  0  0  0  0
  2  1  1  0
  3  2  2  0
  4  3  1  0
  5  4  2  0
  5 11  1  0
  6  5  1  0
  7  8  1  6
  7  6  1  0
  9  7  1  0
 10  9  2  0
 11 12  2  0
 12  2  1  0
 14 13  1  1
 14 16  1  0
 15 14  1  0
 17 16  1  1
 17 19  1  0
 17 18  1  0
 18  9  1  0
 19 28  1  0
 20 19  2  0
 22 32  2  0
 22 21  1  0
 23 22  1  0
 24 25  1  0
 24 23  2  0
 25 31  2  0
 26 25  1  0
 27 26  1  1
 27 29  1  0
 28 27  1  0
 29 30  2  0
 29 33  1  0
 31 32  1  0
M  END
$$$$
