YLY.pdb
     RDKit          3D

 33 34  0  0  1  0  0  0  0  0999 V2000
   18.9430  -22.4368  -30.8071 O   0  0  0  0  0  0  0  0  0  0  0  0
   18.9329  -22.2568  -29.4188 C   0  0  0  0  0  0  0  0  0  0  0  0
   18.8981  -23.3248  -28.5404 C   0  0  0  0  0  0  0  0  0  0  0  0
   18.8889  -23.1139  -27.1761 C   0  0  0  0  0  0  0  0  0  0  0  0
   18.9138  -21.8462  -26.6397 C   0  0  0  0  0  0  0  0  0  0  0  0
   18.9027  -21.6797  -25.1872 C   0  0  0  0  0  0  0  0  0  0  0  0
   20.2654  -21.3283  -24.6184 C   0  0  2  0  0  0  0  0  0  0  0  0
   21.1911  -22.4229  -24.7166 N   0  0  0  0  0  0  0  0  0  0  0  0
   20.0645  -21.0150  -23.1839 C   0  0  0  0  0  0  0  0  0  0  0  0
   20.2251  -21.9350  -22.3505 O   0  0  0  0  0  0  0  0  0  0  0  0
   18.9486  -20.7723  -27.4999 C   0  0  0  0  0  0  0  0  0  0  0  0
   18.9573  -20.9968  -28.8559 C   0  0  0  0  0  0  0  0  0  0  0  0
   20.8027  -15.8992  -20.5067 C   0  0  0  0  0  0  0  0  0  0  0  0
   20.8288  -17.4540  -20.5490 C   0  0  2  0  0  0  0  0  0  0  0  0
   22.0384  -17.8042  -21.3856 C   0  0  0  0  0  0  0  0  0  0  0  0
   19.5423  -17.9502  -21.1198 C   0  0  0  0  0  0  0  0  0  0  0  0
   19.4546  -19.4258  -21.3057 C   0  0  2  0  0  0  0  0  0  0  0  0
   19.7018  -19.7206  -22.7504 N   0  0  0  0  0  0  0  0  0  0  0  0
   18.1443  -20.0106  -20.9796 C   0  0  0  0  0  0  0  0  0  0  0  0
   17.2931  -20.1954  -21.9389 O   0  0  0  0  0  0  0  0  0  0  0  0
   11.9415  -25.3640  -18.2335 O   0  0  0  0  0  0  0  0  0  0  0  0
   13.0596  -24.6271  -18.6314 C   0  0  0  0  0  0  0  0  0  0  0  0
   13.1774  -24.0613  -19.8807 C   0  0  0  0  0  0  0  0  0  0  0  0
   14.2843  -23.3408  -20.2519 C   0  0  0  0  0  0  0  0  0  0  0  0
   15.3145  -23.1785  -19.3402 C   0  0  0  0  0  0  0  0  0  0  0  0
   16.5425  -22.4299  -19.6422 C   0  0  0  0  0  0  0  0  0  0  0  0
   16.4118  -20.9325  -19.4171 C   0  0  2  0  0  0  0  0  0  0  0  0
   17.7559  -20.3930  -19.6788 N   0  0  0  0  0  0  0  0  0  0  0  0
   16.0538  -20.6317  -18.0296 C   0  0  0  0  0  0  0  0  0  0  0  0
   16.9520  -20.3403  -17.2047 O   0  0  0  0  0  0  0  0  0  0  0  0
   15.1805  -23.7521  -18.0924 C   0  0  0  0  0  0  0  0  0  0  0  0
   14.0711  -24.4801  -17.7056 C   0  0  0  0  0  0  0  0  0  0  0  0
   14.7418  -20.6635  -17.6163 O   0  0  0  0  0  0  0  0  0  0  0  0
  2  1  1  0
  3  2  2  0
  4  3  1  0
  5  4  2  0
  5 11  1  0
  6  5  1  0
  7  8  1  1
  7  6  1  0
  9  7  1  0
 10  9  2  0
 11 12  2  0
 12  2  1  0
 14 13  1  6
 14 16  1  0
 15 14  1  0
 17 16  1  6
 17 19  1  0
 17 18  1  0
 18  9  1  0
 19 28  1  0
 20 19  2  0
 22 32  2  0
 22 21  1  0
 23 22  1  0
 24 25  1  0
 24 23  2  0
 25 31  2  0
 26 25  1  0
 27 26  1  1
 27 29  1  0
 28 27  1  0
 29 30  2  0
 29 33  1  0
 31 32  1  0
M  END
$$$$
