ICY.pdb
     RDKit          3D

 27 27  0  0  1  0  0  0  0  0999 V2000
   20.1413  -32.6361  -16.7239 C   0  0  0  0  0  0  0  0  0  0  0  0
   20.9599  -31.5978  -16.0412 C   0  0  0  0  0  0  0  0  0  0  0  0
   20.3618  -31.1721  -14.6975 C   0  0  2  0  0  0  0  0  0  0  0  0
   18.9688  -30.6676  -14.9230 C   0  0  0  0  0  0  0  0  0  0  0  0
   21.3150  -30.1302  -14.1511 C   0  0  2  0  0  0  0  0  0  0  0  0
   22.5512  -30.8812  -13.8597 N   0  0  0  0  0  0  0  0  0  0  0  0
   20.8735  -29.5327  -12.8713 C   0  0  0  0  0  0  0  0  0  0  0  0
   21.0886  -30.1534  -11.7957 O   0  0  0  0  0  0  0  0  0  0  0  0
   20.2096  -28.2841  -12.7426 N   0  0  0  0  0  0  0  0  0  0  0  0
   19.6857  -27.7956  -11.4827 C   0  0  1  0  0  0  0  0  0  0  0  0
   19.3008  -26.3321  -11.6763 C   0  0  0  0  0  0  0  0  0  0  0  0
   18.6736  -25.6391  -10.1171 S   0  0  0  0  0  0  0  0  0  0  0  0
   18.4493  -28.5164  -11.0889 C   0  0  0  0  0  0  0  0  0  0  0  0
   17.5671  -28.6856  -11.9663 O   0  0  0  0  0  0  0  0  0  0  0  0
   12.4627  -33.8857   -8.0803 O   0  0  0  0  0  0  0  0  0  0  0  0
   13.6190  -33.2424   -8.5020 C   0  0  0  0  0  0  0  0  0  0  0  0
   14.7193  -33.9558   -8.9554 C   0  0  0  0  0  0  0  0  0  0  0  0
   15.8754  -33.3445   -9.3783 C   0  0  0  0  0  0  0  0  0  0  0  0
   15.9649  -31.9834   -9.3594 C   0  0  0  0  0  0  0  0  0  0  0  0
   17.1648  -31.2207   -9.7933 C   0  0  0  0  0  0  0  0  0  0  0  0
   17.0719  -29.7635   -9.3848 C   0  0  2  0  0  0  0  0  0  0  0  0
   18.2231  -29.0126   -9.7947 N   0  0  0  0  0  0  0  0  0  0  0  0
   16.9331  -29.6429   -7.9111 C   0  0  0  0  0  0  0  0  0  0  0  0
   15.7569  -30.0020   -7.2694 O   0  0  0  0  0  0  0  0  0  0  0  0
   14.8869  -31.2313   -8.9131 C   0  0  0  0  0  0  0  0  0  0  0  0
   13.7358  -31.8652   -8.4931 C   0  0  0  0  0  0  0  0  0  0  0  0
   17.8775  -29.2090   -7.1782 O   0  0  0  0  0  0  0  0  0  0  0  0
  2  1  1  0
  3  2  1  0
  3  4  1  6
  5  3  1  0
  5  6  1  1
  7  5  1  0
  8  7  2  0
  9  7  1  0
 10  9  1  0
 10 11  1  6
 12 11  1  0
 13 10  1  0
 13 22  1  0
 14 13  2  0
 16 15  1  0
 17 16  2  0
 18 17  1  0
 19 25  1  0
 19 18  2  0
 20 19  1  0
 21 20  1  1
 21 22  1  0
 23 21  1  0
 24 23  1  0
 25 26  2  0
 26 16  1  0
 27 23  2  0
M  END
$$$$
