ICY.pdb
     RDKit          3D

 27 27  0  0  1  0  0  0  0  0999 V2000
   18.6493  -11.7283  -20.4476 C   0  0  0  0  0  0  0  0  0  0  0  0
   19.3639  -12.6954  -19.5711 C   0  0  0  0  0  0  0  0  0  0  0  0
   20.6189  -13.2690  -20.2347 C   0  0  2  0  0  0  0  0  0  0  0  0
   20.2165  -14.0267  -21.4635 C   0  0  0  0  0  0  0  0  0  0  0  0
   21.2759  -14.1225  -19.1705 C   0  0  2  0  0  0  0  0  0  0  0  0
   20.2319  -15.0891  -18.7797 N   0  0  0  0  0  0  0  0  0  0  0  0
   21.6365  -13.3738  -17.9460 C   0  0  0  0  0  0  0  0  0  0  0  0
   20.9106  -13.4833  -16.9216 O   0  0  0  0  0  0  0  0  0  0  0  0
   22.7620  -12.5175  -17.8179 N   0  0  0  0  0  0  0  0  0  0  0  0
   23.0387  -11.7529  -16.6181 C   0  0  1  0  0  0  0  0  0  0  0  0
   24.5047  -11.9709  -16.2567 C   0  0  0  0  0  0  0  0  0  0  0  0
   24.9489  -10.9619  -14.8113 S   0  0  0  0  0  0  0  0  0  0  0  0
   22.8644  -10.2966  -16.8460 C   0  0  0  0  0  0  0  0  0  0  0  0
   23.4592   -9.7833  -17.8255 O   0  0  0  0  0  0  0  0  0  0  0  0
   15.7048   -9.5517  -15.8464 O   0  0  0  0  0  0  0  0  0  0  0  0
   16.9747   -9.1174  -16.2035 C   0  0  0  0  0  0  0  0  0  0  0  0
   17.7952   -9.8784  -17.0239 C   0  0  0  0  0  0  0  0  0  0  0  0
   19.0555   -9.4724  -17.3926 C   0  0  0  0  0  0  0  0  0  0  0  0
   19.5375   -8.2774  -16.9449 C   0  0  0  0  0  0  0  0  0  0  0  0
   20.8831   -7.7425  -17.2811 C   0  0  0  0  0  0  0  0  0  0  0  0
   21.8928   -8.0627  -16.1963 C   0  0  2  0  0  0  0  0  0  0  0  0
   22.0737   -9.4754  -16.0259 N   0  0  0  0  0  0  0  0  0  0  0  0
   21.4638   -7.4845  -14.8974 C   0  0  0  0  0  0  0  0  0  0  0  0
   21.2268   -8.2930  -13.7954 O   0  0  0  0  0  0  0  0  0  0  0  0
   18.7492   -7.4848  -16.1219 C   0  0  0  0  0  0  0  0  0  0  0  0
   17.4870   -7.9114  -15.7640 C   0  0  0  0  0  0  0  0  0  0  0  0
   21.2960   -6.2340  -14.7385 O   0  0  0  0  0  0  0  0  0  0  0  0
  2  1  1  0
  3  2  1  0
  3  4  1  6
  5  3  1  0
  5  6  1  1
  7  5  1  0
  8  7  2  0
  9  7  1  0
 10  9  1  0
 10 11  1  6
 12 11  1  0
 13 10  1  0
 13 22  1  0
 14 13  2  0
 16 15  1  0
 17 16  2  0
 18 17  1  0
 19 25  1  0
 19 18  2  0
 20 19  1  0
 21 20  1  6
 21 22  1  0
 23 21  1  0
 24 23  1  0
 25 26  2  0
 26 16  1  0
 27 23  2  0
M  END
$$$$
