ICY.pdb
     RDKit          3D

 27 27  0  0  1  0  0  0  0  0999 V2000
   23.2225  -16.2554  -16.2159 C   0  0  0  0  0  0  0  0  0  0  0  0
   24.2119  -15.1449  -16.2624 C   0  0  0  0  0  0  0  0  0  0  0  0
   23.5658  -13.7763  -16.0300 C   0  0  2  0  0  0  0  0  0  0  0  0
   22.4196  -13.6116  -16.9813 C   0  0  0  0  0  0  0  0  0  0  0  0
   24.6816  -12.7719  -16.2277 C   0  0  2  0  0  0  0  0  0  0  0  0
   25.6593  -13.0976  -15.1718 N   0  0  0  0  0  0  0  0  0  0  0  0
   24.2673  -11.3697  -16.0003 C   0  0  0  0  0  0  0  0  0  0  0  0
   23.9028  -11.0150  -14.8471 O   0  0  0  0  0  0  0  0  0  0  0  0
   24.2436  -10.3568  -16.9952 N   0  0  0  0  0  0  0  0  0  0  0  0
   23.7722   -9.0104  -16.7389 C   0  0  1  0  0  0  0  0  0  0  0  0
   24.3990   -8.0925  -17.7838 C   0  0  0  0  0  0  0  0  0  0  0  0
   24.1367   -8.7711  -19.4498 S   0  0  0  0  0  0  0  0  0  0  0  0
   22.3007   -8.9064  -16.9030 C   0  0  0  0  0  0  0  0  0  0  0  0
   21.7273   -9.7795  -17.5999 O   0  0  0  0  0  0  0  0  0  0  0  0
   13.7685   -8.5044  -16.5033 O   0  0  0  0  0  0  0  0  0  0  0  0
   15.1415   -8.6037  -16.3197 C   0  0  0  0  0  0  0  0  0  0  0  0
   15.7577   -8.0979  -15.1840 C   0  0  0  0  0  0  0  0  0  0  0  0
   17.1139   -8.1828  -14.9773 C   0  0  0  0  0  0  0  0  0  0  0  0
   17.9029   -8.7844  -15.9134 C   0  0  0  0  0  0  0  0  0  0  0  0
   19.3772   -8.9306  -15.7917 C   0  0  0  0  0  0  0  0  0  0  0  0
   20.1038   -7.7632  -16.4306 C   0  0  2  0  0  0  0  0  0  0  0  0
   21.5285   -7.8877  -16.3213 N   0  0  0  0  0  0  0  0  0  0  0  0
   19.6944   -6.4841  -15.7966 C   0  0  0  0  0  0  0  0  0  0  0  0
   18.5996   -5.7707  -16.2620 O   0  0  0  0  0  0  0  0  0  0  0  0
   17.3268   -9.3040  -17.0645 C   0  0  0  0  0  0  0  0  0  0  0  0
   15.9634   -9.2081  -17.2521 C   0  0  0  0  0  0  0  0  0  0  0  0
   20.3233   -5.9901  -14.8078 O   0  0  0  0  0  0  0  0  0  0  0  0
  2  1  1  0
  3  2  1  0
  3  4  1  6
  5  3  1  0
  5  6  1  1
  7  5  1  0
  8  7  2  0
  9  7  1  0
 10  9  1  0
 10 11  1  6
 12 11  1  0
 13 10  1  0
 13 22  1  0
 14 13  2  0
 16 15  1  0
 17 16  2  0
 18 17  1  0
 19 25  1  0
 19 18  2  0
 20 19  1  0
 21 20  1  1
 21 22  1  0
 23 21  1  0
 24 23  1  0
 25 26  2  0
 26 16  1  0
 27 23  2  0
M  END
$$$$
