ICY.pdb
     RDKit          3D

 27 27  0  0  1  0  0  0  0  0999 V2000
   27.7948  -18.6114  -23.0779 C   0  0  0  0  0  0  0  0  0  0  0  0
   28.1611  -17.3373  -22.4020 C   0  0  0  0  0  0  0  0  0  0  0  0
   27.1998  -16.9817  -21.2646 C   0  0  2  0  0  0  0  0  0  0  0  0
   26.9216  -18.2145  -20.4593 C   0  0  0  0  0  0  0  0  0  0  0  0
   25.9784  -16.3997  -21.9446 C   0  0  2  0  0  0  0  0  0  0  0  0
   26.4783  -15.1875  -22.6212 N   0  0  0  0  0  0  0  0  0  0  0  0
   24.9286  -15.9533  -21.0020 C   0  0  0  0  0  0  0  0  0  0  0  0
   24.3352  -16.8088  -20.2917 O   0  0  0  0  0  0  0  0  0  0  0  0
   24.5181  -14.6062  -20.8200 N   0  0  0  0  0  0  0  0  0  0  0  0
   23.4605  -14.2205  -19.9071 C   0  0  1  0  0  0  0  0  0  0  0  0
   23.5074  -12.7031  -19.7572 C   0  0  0  0  0  0  0  0  0  0  0  0
   22.0613  -12.1225  -18.8210 S   0  0  0  0  0  0  0  0  0  0  0  0
   22.1206  -14.5575  -20.4496 C   0  0  0  0  0  0  0  0  0  0  0  0
   21.8632  -14.2096  -21.6284 O   0  0  0  0  0  0  0  0  0  0  0  0
   20.0756  -20.4736  -16.0864 O   0  0  0  0  0  0  0  0  0  0  0  0
   20.0140  -19.6407  -17.1959 C   0  0  0  0  0  0  0  0  0  0  0  0
   21.1547  -19.2999  -17.9087 C   0  0  0  0  0  0  0  0  0  0  0  0
   21.1219  -18.4779  -19.0098 C   0  0  0  0  0  0  0  0  0  0  0  0
   19.9309  -17.9665  -19.4350 C   0  0  0  0  0  0  0  0  0  0  0  0
   19.7810  -17.0697  -20.6110 C   0  0  0  0  0  0  0  0  0  0  0  0
   19.8427  -15.6100  -20.2054 C   0  0  2  0  0  0  0  0  0  0  0  0
   21.1383  -15.2398  -19.7137 N   0  0  0  0  0  0  0  0  0  0  0  0
   18.8394  -15.3193  -19.1498 C   0  0  0  0  0  0  0  0  0  0  0  0
   17.4872  -15.5430  -19.3639 O   0  0  0  0  0  0  0  0  0  0  0  0
   18.7653  -18.2823  -18.7505 C   0  0  0  0  0  0  0  0  0  0  0  0
   18.8207  -19.1093  -17.6477 C   0  0  0  0  0  0  0  0  0  0  0  0
   19.1716  -14.8565  -18.0128 O   0  0  0  0  0  0  0  0  0  0  0  0
  2  1  1  0
  3  2  1  0
  3  4  1  6
  5  3  1  0
  5  6  1  1
  7  5  1  0
  8  7  2  0
  9  7  1  0
 10  9  1  0
 10 11  1  6
 12 11  1  0
 13 10  1  0
 13 22  1  0
 14 13  2  0
 16 15  1  0
 17 16  2  0
 18 17  1  0
 19 25  1  0
 19 18  2  0
 20 19  1  0
 21 20  1  1
 21 22  1  0
 23 21  1  0
 24 23  1  0
 25 26  2  0
 26 16  1  0
 27 23  2  0
M  END
$$$$
