ICY.pdb
     RDKit          3D

 27 27  0  0  1  0  0  0  0  0999 V2000
   22.8624  -28.5259  -17.6024 C   0  0  0  0  0  0  0  0  0  0  0  0
   23.8484  -29.6391  -17.5503 C   0  0  0  0  0  0  0  0  0  0  0  0
   23.4440  -30.7321  -16.5571 C   0  0  2  0  0  0  0  0  0  0  0  0
   23.1798  -30.1033  -15.2227 C   0  0  0  0  0  0  0  0  0  0  0  0
   24.5951  -31.7159  -16.5591 C   0  0  2  0  0  0  0  0  0  0  0  0
   24.5772  -32.2982  -17.9147 N   0  0  0  0  0  0  0  0  0  0  0  0
   24.4176  -32.8413  -15.6148 C   0  0  0  0  0  0  0  0  0  0  0  0
   23.5809  -33.7445  -15.8841 O   0  0  0  0  0  0  0  0  0  0  0  0
   25.1280  -32.9998  -14.3955 N   0  0  0  0  0  0  0  0  0  0  0  0
   24.7923  -34.0111  -13.4130 C   0  0  1  0  0  0  0  0  0  0  0  0
   26.0348  -34.8663  -13.1843 C   0  0  0  0  0  0  0  0  0  0  0  0
   25.7009  -36.1281  -11.9189 S   0  0  0  0  0  0  0  0  0  0  0  0
   24.4406  -33.4057  -12.1042 C   0  0  0  0  0  0  0  0  0  0  0  0
   25.1982  -32.5126  -11.6512 O   0  0  0  0  0  0  0  0  0  0  0  0
   21.8283  -27.5871  -12.7176 O   0  0  0  0  0  0  0  0  0  0  0  0
   21.7689  -28.8177  -12.0768 C   0  0  0  0  0  0  0  0  0  0  0  0
   21.2320  -29.9338  -12.7025 C   0  0  0  0  0  0  0  0  0  0  0  0
   21.1610  -31.1629  -12.0914 C   0  0  0  0  0  0  0  0  0  0  0  0
   21.6314  -31.3126  -10.8197 C   0  0  0  0  0  0  0  0  0  0  0  0
   21.6042  -32.5936  -10.0661 C   0  0  0  0  0  0  0  0  0  0  0  0
   22.9640  -33.2644  -10.0656 C   0  0  2  0  0  0  0  0  0  0  0  0
   23.3123  -33.7815  -11.3573 N   0  0  0  0  0  0  0  0  0  0  0  0
   22.9934  -34.3827   -9.0889 C   0  0  0  0  0  0  0  0  0  0  0  0
   22.7900  -34.1585   -7.7351 O   0  0  0  0  0  0  0  0  0  0  0  0
   22.1766  -30.2213  -10.1573 C   0  0  0  0  0  0  0  0  0  0  0  0
   22.2382  -28.9965  -10.7891 C   0  0  0  0  0  0  0  0  0  0  0  0
   23.2044  -35.5848   -9.4462 O   0  0  0  0  0  0  0  0  0  0  0  0
  2  1  1  0
  3  2  1  0
  3  4  1  1
  5  3  1  0
  5  6  1  6
  7  5  1  0
  8  7  2  0
  9  7  1  0
 10  9  1  0
 10 11  1  1
 12 11  1  0
 13 10  1  0
 13 22  1  0
 14 13  2  0
 16 15  1  0
 17 16  2  0
 18 17  1  0
 19 25  1  0
 19 18  2  0
 20 19  1  0
 21 20  1  6
 21 22  1  0
 23 21  1  0
 24 23  1  0
 25 26  2  0
 26 16  1  0
 27 23  2  0
M  END
$$$$
