ICY.pdb
     RDKit          3D

 27 27  0  0  1  0  0  0  0  0999 V2000
   29.8837  -13.7458  -17.4037 C   0  0  0  0  0  0  0  0  0  0  0  0
   29.8490  -12.4407  -18.1176 C   0  0  0  0  0  0  0  0  0  0  0  0
   28.9431  -11.4192  -17.4244 C   0  0  2  0  0  0  0  0  0  0  0  0
   27.5792  -12.0159  -17.2528 C   0  0  0  0  0  0  0  0  0  0  0  0
   28.9737  -10.1938  -18.3133 C   0  0  2  0  0  0  0  0  0  0  0  0
   30.3675   -9.7168  -18.2322 N   0  0  0  0  0  0  0  0  0  0  0  0
   28.1203   -9.0860  -17.8292 C   0  0  0  0  0  0  0  0  0  0  0  0
   28.4731   -8.4390  -16.8068 O   0  0  0  0  0  0  0  0  0  0  0  0
   26.9028   -8.6737  -18.4325 N   0  0  0  0  0  0  0  0  0  0  0  0
   26.0676   -7.6231  -17.8850 C   0  0  1  0  0  0  0  0  0  0  0  0
   25.9728   -6.5145  -18.9287 C   0  0  0  0  0  0  0  0  0  0  0  0
   27.5352   -5.5878  -18.9999 S   0  0  0  0  0  0  0  0  0  0  0  0
   24.6837   -8.0990  -17.6369 C   0  0  0  0  0  0  0  0  0  0  0  0
   24.2809   -9.0915  -18.2921 O   0  0  0  0  0  0  0  0  0  0  0  0
   17.1872  -11.1665  -14.9273 O   0  0  0  0  0  0  0  0  0  0  0  0
   18.4851  -10.7227  -15.1448 C   0  0  0  0  0  0  0  0  0  0  0  0
   19.2551  -10.2057  -14.1128 C   0  0  0  0  0  0  0  0  0  0  0  0
   20.5416   -9.7596  -14.3005 C   0  0  0  0  0  0  0  0  0  0  0  0
   21.1020   -9.8190  -15.5428 C   0  0  0  0  0  0  0  0  0  0  0  0
   22.4821   -9.3653  -15.8573 C   0  0  0  0  0  0  0  0  0  0  0  0
   22.4885   -7.9517  -16.4056 C   0  0  2  0  0  0  0  0  0  0  0  0
   23.8137   -7.4971  -16.7133 N   0  0  0  0  0  0  0  0  0  0  0  0
   21.8846   -7.0106  -15.4284 C   0  0  0  0  0  0  0  0  0  0  0  0
   20.5123   -6.8151  -15.3744 O   0  0  0  0  0  0  0  0  0  0  0  0
   20.3661  -10.3294  -16.6034 C   0  0  0  0  0  0  0  0  0  0  0  0
   19.0764  -10.7717  -16.3930 C   0  0  0  0  0  0  0  0  0  0  0  0
   22.5916   -6.3479  -14.6049 O   0  0  0  0  0  0  0  0  0  0  0  0
  2  1  1  0
  3  2  1  0
  3  4  1  6
  5  3  1  0
  5  6  1  1
  7  5  1  0
  8  7  2  0
  9  7  1  0
 10  9  1  0
 10 11  1  6
 12 11  1  0
 13 10  1  0
 13 22  1  0
 14 13  2  0
 16 15  1  0
 17 16  2  0
 18 17  1  0
 19 25  1  0
 19 18  2  0
 20 19  1  0
 21 20  1  1
 21 22  1  0
 23 21  1  0
 24 23  1  0
 25 26  2  0
 26 16  1  0
 27 23  2  0
M  END
$$$$
