ICY.pdb
     RDKit          3D

 27 27  0  0  1  0  0  0  0  0999 V2000
   29.8197  -19.5054   -5.6364 C   0  0  0  0  0  0  0  0  0  0  0  0
   28.6619  -20.1319   -6.3301 C   0  0  0  0  0  0  0  0  0  0  0  0
   27.3346  -19.4522   -5.9823 C   0  0  2  0  0  0  0  0  0  0  0  0
   27.0736  -19.6163   -4.5157 C   0  0  0  0  0  0  0  0  0  0  0  0
   26.3039  -20.1160   -6.8710 C   0  0  2  0  0  0  0  0  0  0  0  0
   26.4672  -21.5586   -6.6074 N   0  0  0  0  0  0  0  0  0  0  0  0
   26.5512  -19.9214   -8.3170 C   0  0  0  0  0  0  0  0  0  0  0  0
   26.3629  -18.7838   -8.8258 O   0  0  0  0  0  0  0  0  0  0  0  0
   26.9959  -20.9323   -9.2095 N   0  0  0  0  0  0  0  0  0  0  0  0
   26.9246  -20.7987  -10.6510 C   0  0  1  0  0  0  0  0  0  0  0  0
   28.0406  -21.6481  -11.2515 C   0  0  0  0  0  0  0  0  0  0  0  0
   27.9535  -21.6019  -13.0667 S   0  0  0  0  0  0  0  0  0  0  0  0
   25.6457  -21.3292  -11.1861 C   0  0  0  0  0  0  0  0  0  0  0  0
   25.1544  -22.3415  -10.6290 O   0  0  0  0  0  0  0  0  0  0  0  0
   18.4670  -17.6153  -14.0742 O   0  0  0  0  0  0  0  0  0  0  0  0
   19.4728  -18.3930  -13.5154 C   0  0  0  0  0  0  0  0  0  0  0  0
   19.9799  -19.5031  -14.1756 C   0  0  0  0  0  0  0  0  0  0  0  0
   20.9747  -20.2896  -13.6455 C   0  0  0  0  0  0  0  0  0  0  0  0
   21.4978  -19.9837  -12.4234 C   0  0  0  0  0  0  0  0  0  0  0  0
   22.5738  -20.7641  -11.7580 C   0  0  0  0  0  0  0  0  0  0  0  0
   23.6665  -21.1464  -12.7372 C   0  0  2  0  0  0  0  0  0  0  0  0
   24.9673  -20.7574  -12.2748 N   0  0  0  0  0  0  0  0  0  0  0  0
   23.4286  -20.5110  -14.0582 C   0  0  0  0  0  0  0  0  0  0  0  0
   24.1722  -19.4153  -14.4717 O   0  0  0  0  0  0  0  0  0  0  0  0
   21.0191  -18.8812  -11.7289 C   0  0  0  0  0  0  0  0  0  0  0  0
   20.0200  -18.1052  -12.2793 C   0  0  0  0  0  0  0  0  0  0  0  0
   22.5410  -20.9387  -14.8622 O   0  0  0  0  0  0  0  0  0  0  0  0
  2  1  1  0
  3  2  1  0
  3  4  1  1
  5  3  1  0
  5  6  1  6
  7  5  1  0
  8  7  2  0
  9  7  1  0
 10  9  1  0
 10 11  1  6
 12 11  1  0
 13 10  1  0
 13 22  1  0
 14 13  2  0
 16 15  1  0
 17 16  2  0
 18 17  1  0
 19 25  1  0
 19 18  2  0
 20 19  1  0
 21 20  1  1
 21 22  1  0
 23 21  1  0
 24 23  1  0
 25 26  2  0
 26 16  1  0
 27 23  2  0
M  END
$$$$
