ICY.pdb
     RDKit          3D

 27 27  0  0  1  0  0  0  0  0999 V2000
   17.9777  -12.7980  -18.6867 C   0  0  0  0  0  0  0  0  0  0  0  0
   18.2856  -11.7133  -17.7157 C   0  0  0  0  0  0  0  0  0  0  0  0
   18.3958  -12.2295  -16.2784 C   0  0  2  0  0  0  0  0  0  0  0  0
   17.1634  -13.0155  -15.9479 C   0  0  0  0  0  0  0  0  0  0  0  0
   18.5864  -10.9926  -15.4260 C   0  0  2  0  0  0  0  0  0  0  0  0
   17.4822  -10.0989  -15.8247 N   0  0  0  0  0  0  0  0  0  0  0  0
   19.8422  -10.2628  -15.7088 C   0  0  0  0  0  0  0  0  0  0  0  0
   20.9462  -10.8346  -15.5024 O   0  0  0  0  0  0  0  0  0  0  0  0
   19.9169   -8.9355  -16.2081 N   0  0  0  0  0  0  0  0  0  0  0  0
   21.1657   -8.2115  -16.3394 C   0  0  1  0  0  0  0  0  0  0  0  0
   21.6147   -8.3210  -17.7933 C   0  0  0  0  0  0  0  0  0  0  0  0
   23.0242   -7.2139  -18.0972 S   0  0  0  0  0  0  0  0  0  0  0  0
   20.9919   -6.7659  -16.0512 C   0  0  0  0  0  0  0  0  0  0  0  0
   20.3621   -6.0747  -16.8892 O   0  0  0  0  0  0  0  0  0  0  0  0
   17.6622   -7.3667   -9.8809 O   0  0  0  0  0  0  0  0  0  0  0  0
   18.1771   -6.6622  -10.9612 C   0  0  0  0  0  0  0  0  0  0  0  0
   18.8041   -5.4359  -10.7924 C   0  0  0  0  0  0  0  0  0  0  0  0
   19.3223   -4.7181  -11.8438 C   0  0  0  0  0  0  0  0  0  0  0  0
   19.2267   -5.2134  -13.1113 C   0  0  0  0  0  0  0  0  0  0  0  0
   19.7514   -4.5222  -14.3182 C   0  0  0  0  0  0  0  0  0  0  0  0
   21.2322   -4.7869  -14.5077 C   0  0  2  0  0  0  0  0  0  0  0  0
   21.4937   -6.1423  -14.8973 N   0  0  0  0  0  0  0  0  0  0  0  0
   21.9767   -4.5070  -13.2536 C   0  0  0  0  0  0  0  0  0  0  0  0
   21.9622   -3.2455  -12.6768 O   0  0  0  0  0  0  0  0  0  0  0  0
   18.6070   -6.4371  -13.3246 C   0  0  0  0  0  0  0  0  0  0  0  0
   18.0937   -7.1412  -12.2550 C   0  0  0  0  0  0  0  0  0  0  0  0
   22.6545   -5.4029  -12.6576 O   0  0  0  0  0  0  0  0  0  0  0  0
  2  1  1  0
  3  2  1  0
  3  4  1  1
  5  3  1  0
  5  6  1  6
  7  5  1  0
  8  7  2  0
  9  7  1  0
 10  9  1  0
 10 11  1  6
 12 11  1  0
 13 10  1  0
 13 22  1  0
 14 13  2  0
 16 15  1  0
 17 16  2  0
 18 17  1  0
 19 25  1  0
 19 18  2  0
 20 19  1  0
 21 20  1  1
 21 22  1  0
 23 21  1  0
 24 23  1  0
 25 26  2  0
 26 16  1  0
 27 23  2  0
M  END
$$$$
