ICY.pdb
     RDKit          3D

 27 27  0  0  1  0  0  0  0  0999 V2000
   27.7616  -17.6614  -17.6916 C   0  0  0  0  0  0  0  0  0  0  0  0
   28.1602  -18.8214  -16.8492 C   0  0  0  0  0  0  0  0  0  0  0  0
   27.0428  -19.2675  -15.9022 C   0  0  2  0  0  0  0  0  0  0  0  0
   26.6524  -18.1117  -15.0318 C   0  0  0  0  0  0  0  0  0  0  0  0
   27.6129  -20.4472  -15.1433 C   0  0  2  0  0  0  0  0  0  0  0  0
   27.8338  -21.4762  -16.1775 N   0  0  0  0  0  0  0  0  0  0  0  0
   26.6742  -21.0324  -14.1605 C   0  0  0  0  0  0  0  0  0  0  0  0
   25.6903  -21.7033  -14.5731 O   0  0  0  0  0  0  0  0  0  0  0  0
   26.7866  -20.9023  -12.7509 N   0  0  0  0  0  0  0  0  0  0  0  0
   25.7654  -21.3649  -11.8323 C   0  0  1  0  0  0  0  0  0  0  0  0
   26.3135  -21.2169  -10.4163 C   0  0  0  0  0  0  0  0  0  0  0  0
   24.9874  -21.4832   -9.2017 S   0  0  0  0  0  0  0  0  0  0  0  0
   24.5419  -20.5280  -11.9090 C   0  0  0  0  0  0  0  0  0  0  0  0
   24.6604  -19.2981  -11.6854 O   0  0  0  0  0  0  0  0  0  0  0  0
   23.0618  -21.6237  -18.5468 O   0  0  0  0  0  0  0  0  0  0  0  0
   22.8395  -21.0444  -17.3044 C   0  0  0  0  0  0  0  0  0  0  0  0
   21.6487  -21.2377  -16.6190 C   0  0  0  0  0  0  0  0  0  0  0  0
   21.4028  -20.6764  -15.3886 C   0  0  0  0  0  0  0  0  0  0  0  0
   22.3542  -19.8950  -14.8011 C   0  0  0  0  0  0  0  0  0  0  0  0
   22.1937  -19.2405  -13.4761 C   0  0  0  0  0  0  0  0  0  0  0  0
   22.0761  -20.2641  -12.3638 C   0  0  2  0  0  0  0  0  0  0  0  0
   23.2719  -21.0424  -12.2166 N   0  0  0  0  0  0  0  0  0  0  0  0
   20.9433  -21.1886  -12.6234 C   0  0  0  0  0  0  0  0  0  0  0  0
   19.6407  -20.7201  -12.7124 O   0  0  0  0  0  0  0  0  0  0  0  0
   23.5601  -19.6758  -15.4528 C   0  0  0  0  0  0  0  0  0  0  0  0
   23.7862  -20.2489  -16.6871 C   0  0  0  0  0  0  0  0  0  0  0  0
   21.1149  -22.4396  -12.7745 O   0  0  0  0  0  0  0  0  0  0  0  0
  2  1  1  0
  3  2  1  0
  3  4  1  1
  5  3  1  0
  5  6  1  6
  7  5  1  0
  8  7  2  0
  9  7  1  0
 10  9  1  0
 10 11  1  1
 12 11  1  0
 13 10  1  0
 13 22  1  0
 14 13  2  0
 16 15  1  0
 17 16  2  0
 18 17  1  0
 19 25  1  0
 19 18  2  0
 20 19  1  0
 21 20  1  6
 21 22  1  0
 23 21  1  0
 24 23  1  0
 25 26  2  0
 26 16  1  0
 27 23  2  0
M  END
$$$$
