ICY.pdb
     RDKit          3D

 27 27  0  0  1  0  0  0  0  0999 V2000
   29.5562  -17.6318  -19.7044 C   0  0  0  0  0  0  0  0  0  0  0  0
   28.9622  -18.5323  -18.6795 C   0  0  0  0  0  0  0  0  0  0  0  0
   27.6584  -17.9774  -18.0990 C   0  0  2  0  0  0  0  0  0  0  0  0
   27.9168  -16.6103  -17.5423 C   0  0  0  0  0  0  0  0  0  0  0  0
   27.2207  -18.9929  -17.0646 C   0  0  2  0  0  0  0  0  0  0  0  0
   27.2205  -20.2779  -17.7896 N   0  0  0  0  0  0  0  0  0  0  0  0
   25.8400  -18.7855  -16.5742 C   0  0  0  0  0  0  0  0  0  0  0  0
   25.5720  -17.7481  -15.9106 O   0  0  0  0  0  0  0  0  0  0  0  0
   24.7569  -19.6776  -16.7919 N   0  0  0  0  0  0  0  0  0  0  0  0
   23.4399  -19.4729  -16.2223 C   0  0  1  0  0  0  0  0  0  0  0  0
   22.4128  -19.9424  -17.2479 C   0  0  0  0  0  0  0  0  0  0  0  0
   20.7304  -19.6086  -16.6455 S   0  0  0  0  0  0  0  0  0  0  0  0
   23.2377  -20.2961  -15.0039 C   0  0  0  0  0  0  0  0  0  0  0  0
   23.6149  -21.4932  -15.0384 O   0  0  0  0  0  0  0  0  0  0  0  0
   28.9005  -20.7260  -12.2543 O   0  0  0  0  0  0  0  0  0  0  0  0
   27.5400  -20.5278  -12.0582 C   0  0  0  0  0  0  0  0  0  0  0  0
   26.8063  -21.3400  -11.2054 C   0  0  0  0  0  0  0  0  0  0  0  0
   25.4595  -21.1659  -10.9932 C   0  0  0  0  0  0  0  0  0  0  0  0
   24.7994  -20.1605  -11.6369 C   0  0  0  0  0  0  0  0  0  0  0  0
   23.3474  -19.8830  -11.4812 C   0  0  0  0  0  0  0  0  0  0  0  0
   22.5390  -20.5242  -12.5922 C   0  0  2  0  0  0  0  0  0  0  0  0
   22.6505  -19.8033  -13.8272 N   0  0  0  0  0  0  0  0  0  0  0  0
   21.1036  -20.5955  -12.2183 C   0  0  0  0  0  0  0  0  0  0  0  0
   20.6703  -21.4184  -11.1890 O   0  0  0  0  0  0  0  0  0  0  0  0
   25.4958  -19.3247  -12.4991 C   0  0  0  0  0  0  0  0  0  0  0  0
   26.8473  -19.5171  -12.6977 C   0  0  0  0  0  0  0  0  0  0  0  0
   20.2155  -19.9119  -12.8192 O   0  0  0  0  0  0  0  0  0  0  0  0
  2  1  1  0
  3  2  1  0
  3  4  1  1
  5  3  1  0
  5  6  1  6
  7  5  1  0
  8  7  2  0
  9  7  1  0
 10  9  1  0
 10 11  1  6
 12 11  1  0
 13 10  1  0
 13 22  1  0
 14 13  2  0
 16 15  1  0
 17 16  2  0
 18 17  1  0
 19 25  1  0
 19 18  2  0
 20 19  1  0
 21 20  1  1
 21 22  1  0
 23 21  1  0
 24 23  1  0
 25 26  2  0
 26 16  1  0
 27 23  2  0
M  END
$$$$
