TCH.pdb
     RDKit          3D

 24 24  0  0  1  0  0  0  0  0999 V2000
    7.5370  -15.9940   20.0137 C   0  0  0  0  0  0  0  0  0  0  0  0
    7.9237  -14.6807   19.3874 C   0  0  1  0  0  0  0  0  0  0  0  0
    7.4331  -14.6243   18.0939 O   0  0  0  0  0  0  0  0  0  0  0  0
    7.3180  -13.5339   20.1647 C   0  0  2  0  0  0  0  0  0  0  0  0
    7.4092  -12.3444   19.3787 N   0  0  0  0  0  0  0  0  0  0  0  0
    7.9650  -13.4001   21.4863 C   0  0  0  0  0  0  0  0  0  0  0  0
    8.3257  -12.2214   21.8178 O   0  0  0  0  0  0  0  0  0  0  0  0
    8.1827  -14.5030   22.3526 N   0  0  0  0  0  0  0  0  0  0  0  0
    8.3294  -14.2786   23.7487 C   0  0  1  0  0  0  0  0  0  0  0  0
    7.1702  -13.4582   24.2763 C   0  0  0  0  0  0  0  0  0  0  0  0
    7.2650  -13.2304   26.0516 S   0  0  0  0  0  0  0  0  0  0  0  0
    8.5023  -15.5371   24.5275 C   0  0  0  0  0  0  0  0  0  0  0  0
    7.5218  -16.2463   24.8714 O   0  0  0  0  0  0  0  0  0  0  0  0
    9.7815  -16.0193   24.9329 N   0  0  0  0  0  0  0  0  0  0  0  0
    9.9836  -17.2774   25.5974 C   0  0  1  0  0  0  0  0  0  0  0  0
   11.3028  -17.9187   25.2508 C   0  0  0  0  0  0  0  0  0  0  0  0
   11.4566  -18.1668   23.8062 C   0  0  0  0  0  0  0  0  0  0  0  0
   10.4736  -18.0425   22.8513 C   0  0  0  0  0  0  0  0  0  0  0  0
   11.0359  -18.3638   21.6528 N   0  0  0  0  0  0  0  0  0  0  0  0
   12.3255  -18.6786   21.8470 C   0  0  0  0  0  0  0  0  0  0  0  0
   12.5590  -18.5539   23.1492 N   0  0  0  0  0  0  0  0  0  0  0  0
    9.7487  -17.2059   27.0528 C   0  0  0  0  0  0  0  0  0  0  0  0
    9.7643  -18.3222   27.8363 O   0  0  0  0  0  0  0  0  0  0  0  0
    9.5314  -16.0887   27.5666 O   0  0  0  0  0  0  0  0  0  0  0  0
  2  1  1  1
  2  3  1  0
  2  4  1  0
  4  5  1  6
  6  4  1  0
  6  8  1  0
  7  6  2  0
  9  8  1  0
  9 12  1  0
  9 10  1  1
 11 10  1  0
 12 14  1  0
 13 12  2  0
 14 15  1  0
 15 22  1  0
 15 16  1  1
 16 17  1  0
 17 21  1  0
 18 17  2  0
 18 19  1  0
 19 20  1  0
 21 20  2  0
 22 23  1  0
 24 22  2  0
M  END
$$$$
