TCH.pdb
     RDKit          3D

 24 24  0  0  1  0  0  0  0  0999 V2000
   11.4182  -18.6493   13.5002 C   0  0  0  0  0  0  0  0  0  0  0  0
   12.2695  -18.1626   14.6425 C   0  0  1  0  0  0  0  0  0  0  0  0
   13.4211  -18.9276   14.7183 O   0  0  0  0  0  0  0  0  0  0  0  0
   12.6802  -16.7259   14.4117 C   0  0  2  0  0  0  0  0  0  0  0  0
   13.2407  -16.6107   13.1027 N   0  0  0  0  0  0  0  0  0  0  0  0
   13.6011  -16.2695   15.4732 C   0  0  0  0  0  0  0  0  0  0  0  0
   14.5272  -15.4709   15.1075 O   0  0  0  0  0  0  0  0  0  0  0  0
   13.4819  -16.6816   16.8260 N   0  0  0  0  0  0  0  0  0  0  0  0
   14.1560  -15.9513   17.8425 C   0  0  1  0  0  0  0  0  0  0  0  0
   13.8336  -14.4750   17.7342 C   0  0  0  0  0  0  0  0  0  0  0  0
   14.8521  -13.4857   18.8280 S   0  0  0  0  0  0  0  0  0  0  0  0
   13.8808  -16.4677   19.2128 C   0  0  0  0  0  0  0  0  0  0  0  0
   12.7477  -16.9022   19.5446 O   0  0  0  0  0  0  0  0  0  0  0  0
   14.8758  -16.5041   20.2336 N   0  0  0  0  0  0  0  0  0  0  0  0
   15.5786  -17.6974   20.6175 C   0  0  1  0  0  0  0  0  0  0  0  0
   16.0914  -18.4816   19.4370 C   0  0  0  0  0  0  0  0  0  0  0  0
   15.2451  -19.6432   19.1103 C   0  0  0  0  0  0  0  0  0  0  0  0
   13.9769  -19.8842   19.5870 C   0  0  0  0  0  0  0  0  0  0  0  0
   13.5589  -21.0590   19.0383 N   0  0  0  0  0  0  0  0  0  0  0  0
   14.5290  -21.5391   18.2455 C   0  0  0  0  0  0  0  0  0  0  0  0
   15.5349  -20.6729   18.3024 N   0  0  0  0  0  0  0  0  0  0  0  0
   16.6189  -17.4524   21.6354 C   0  0  0  0  0  0  0  0  0  0  0  0
   16.6641  -18.1634   22.7985 O   0  0  0  0  0  0  0  0  0  0  0  0
   17.4730  -16.5690   21.4132 O   0  0  0  0  0  0  0  0  0  0  0  0
  2  1  1  6
  2  3  1  0
  2  4  1  0
  4  5  1  6
  6  4  1  0
  6  8  1  0
  7  6  2  0
  9  8  1  0
  9 12  1  0
  9 10  1  1
 11 10  1  0
 12 14  1  0
 13 12  2  0
 14 15  1  0
 15 22  1  0
 15 16  1  6
 16 17  1  0
 17 21  1  0
 18 17  2  0
 18 19  1  0
 19 20  1  0
 21 20  2  0
 22 23  1  0
 24 22  2  0
M  END
$$$$
