TCH.pdb
     RDKit          3D

 24 24  0  0  1  0  0  0  0  0999 V2000
    6.8153  -14.0453   18.2165 C   0  0  0  0  0  0  0  0  0  0  0  0
    7.4308  -14.4887   19.5168 C   0  0  1  0  0  0  0  0  0  0  0  0
    8.4883  -15.3444   19.2586 O   0  0  0  0  0  0  0  0  0  0  0  0
    7.9720  -13.2954   20.2713 C   0  0  2  0  0  0  0  0  0  0  0  0
    9.0161  -12.6971   19.5011 N   0  0  0  0  0  0  0  0  0  0  0  0
    8.4112  -13.6898   21.6258 C   0  0  0  0  0  0  0  0  0  0  0  0
    9.6516  -13.9605   21.7570 O   0  0  0  0  0  0  0  0  0  0  0  0
    7.5237  -13.7698   22.7304 N   0  0  0  0  0  0  0  0  0  0  0  0
    8.0064  -14.2347   23.9842 C   0  0  1  0  0  0  0  0  0  0  0  0
    7.0324  -13.8808   25.0892 C   0  0  0  0  0  0  0  0  0  0  0  0
    6.8650  -12.1077   25.2910 S   0  0  0  0  0  0  0  0  0  0  0  0
    8.3220  -15.6910   23.9850 C   0  0  0  0  0  0  0  0  0  0  0  0
    7.5277  -16.5438   23.5112 O   0  0  0  0  0  0  0  0  0  0  0  0
    9.5368  -16.2129   24.5189 N   0  0  0  0  0  0  0  0  0  0  0  0
    9.8132  -17.6178   24.6418 C   0  0  1  0  0  0  0  0  0  0  0  0
    9.6380  -18.3658   23.3451 C   0  0  0  0  0  0  0  0  0  0  0  0
   10.4561  -17.8134   22.2507 C   0  0  0  0  0  0  0  0  0  0  0  0
   11.3050  -16.7338   22.3360 C   0  0  0  0  0  0  0  0  0  0  0  0
   11.8602  -16.5620   21.1039 N   0  0  0  0  0  0  0  0  0  0  0  0
   11.3780  -17.4995   20.2741 C   0  0  0  0  0  0  0  0  0  0  0  0
   10.5349  -18.2425   20.9831 N   0  0  0  0  0  0  0  0  0  0  0  0
   11.1091  -17.8967   25.2910 C   0  0  0  0  0  0  0  0  0  0  0  0
   11.5574  -19.1714   25.4764 O   0  0  0  0  0  0  0  0  0  0  0  0
   11.8022  -16.9318   25.6754 O   0  0  0  0  0  0  0  0  0  0  0  0
  2  1  1  6
  2  3  1  0
  2  4  1  0
  4  5  1  6
  6  4  1  0
  6  8  1  0
  7  6  2  0
  9  8  1  0
  9 12  1  0
  9 10  1  1
 11 10  1  0
 12 14  1  0
 13 12  2  0
 14 15  1  0
 15 22  1  0
 15 16  1  6
 16 17  1  0
 17 21  1  0
 18 17  2  0
 18 19  1  0
 19 20  1  0
 21 20  2  0
 22 23  1  0
 24 22  2  0
M  END
$$$$
