TCH.pdb
     RDKit          3D

 24 24  0  0  1  0  0  0  0  0999 V2000
    7.3552  -14.5351   16.1518 C   0  0  0  0  0  0  0  0  0  0  0  0
    8.0323  -14.7386   17.4809 C   0  0  1  0  0  0  0  0  0  0  0  0
    9.3749  -15.0096   17.2780 O   0  0  0  0  0  0  0  0  0  0  0  0
    7.9327  -13.4814   18.3148 C   0  0  2  0  0  0  0  0  0  0  0  0
    8.5087  -12.3966   17.5852 N   0  0  0  0  0  0  0  0  0  0  0  0
    8.5602  -13.6815   19.6374 C   0  0  0  0  0  0  0  0  0  0  0  0
    9.7883  -13.3471   19.7323 O   0  0  0  0  0  0  0  0  0  0  0  0
    7.8581  -14.2126   20.7506 N   0  0  0  0  0  0  0  0  0  0  0  0
    8.5646  -14.5058   21.9490 C   0  0  1  0  0  0  0  0  0  0  0  0
    7.6007  -14.9176   23.0429 C   0  0  0  0  0  0  0  0  0  0  0  0
    8.3878  -14.9441   24.6530 S   0  0  0  0  0  0  0  0  0  0  0  0
    9.6378  -15.5222   21.7605 C   0  0  0  0  0  0  0  0  0  0  0  0
    9.9623  -15.9430   20.6202 O   0  0  0  0  0  0  0  0  0  0  0  0
   10.3644  -16.0827   22.8519 N   0  0  0  0  0  0  0  0  0  0  0  0
   11.7727  -16.3654   22.8087 C   0  0  1  0  0  0  0  0  0  0  0  0
   12.6006  -15.1649   22.4281 C   0  0  0  0  0  0  0  0  0  0  0  0
   12.8568  -15.0824   20.9791 C   0  0  0  0  0  0  0  0  0  0  0  0
   12.3619  -15.9325   20.0168 C   0  0  0  0  0  0  0  0  0  0  0  0
   12.8407  -15.5015   18.8164 N   0  0  0  0  0  0  0  0  0  0  0  0
   13.6085  -14.4197   19.0167 C   0  0  0  0  0  0  0  0  0  0  0  0
   13.6055  -14.1837   20.3243 N   0  0  0  0  0  0  0  0  0  0  0  0
   12.2649  -17.0347   24.0287 C   0  0  0  0  0  0  0  0  0  0  0  0
   13.5600  -17.4457   24.1469 O   0  0  0  0  0  0  0  0  0  0  0  0
   11.4646  -17.2229   24.9686 O   0  0  0  0  0  0  0  0  0  0  0  0
  2  1  1  6
  2  3  1  0
  2  4  1  0
  4  5  1  6
  6  4  1  0
  6  8  1  0
  7  6  2  0
  9  8  1  0
  9 12  1  0
  9 10  1  1
 11 10  1  0
 12 14  1  0
 13 12  2  0
 14 15  1  0
 15 22  1  0
 15 16  1  1
 16 17  1  0
 17 21  1  0
 18 17  2  0
 18 19  1  0
 19 20  1  0
 21 20  2  0
 22 23  1  0
 24 22  2  0
M  END
$$$$
