TCH.pdb
     RDKit          3D

 24 24  0  0  1  0  0  0  0  0999 V2000
    5.8326  -19.5330   17.5333 C   0  0  0  0  0  0  0  0  0  0  0  0
    6.7919  -18.7921   18.4262 C   0  0  1  0  0  0  0  0  0  0  0  0
    7.8610  -19.6149   18.7382 O   0  0  0  0  0  0  0  0  0  0  0  0
    7.3350  -17.5751   17.7121 C   0  0  2  0  0  0  0  0  0  0  0  0
    8.0277  -18.0000   16.5371 N   0  0  0  0  0  0  0  0  0  0  0  0
    8.1813  -16.7723   18.6191 C   0  0  0  0  0  0  0  0  0  0  0  0
    9.3655  -17.2073   18.8134 O   0  0  0  0  0  0  0  0  0  0  0  0
    7.7254  -15.5846   19.2480 N   0  0  0  0  0  0  0  0  0  0  0  0
    8.5942  -14.8783   20.1240 C   0  0  1  0  0  0  0  0  0  0  0  0
    7.9802  -13.5512   20.5201 C   0  0  0  0  0  0  0  0  0  0  0  0
    7.5432  -12.5628   19.0901 S   0  0  0  0  0  0  0  0  0  0  0  0
    8.9883  -15.6726   21.3215 C   0  0  0  0  0  0  0  0  0  0  0  0
    8.1357  -16.2304   22.0596 O   0  0  0  0  0  0  0  0  0  0  0  0
   10.3486  -15.8532   21.7093 N   0  0  0  0  0  0  0  0  0  0  0  0
   10.7668  -16.7527   22.7491 C   0  0  1  0  0  0  0  0  0  0  0  0
   10.9393  -18.1696   22.2649 C   0  0  0  0  0  0  0  0  0  0  0  0
   11.3558  -19.0934   23.3350 C   0  0  0  0  0  0  0  0  0  0  0  0
   12.1765  -18.7895   24.3969 C   0  0  0  0  0  0  0  0  0  0  0  0
   12.3035  -19.9225   25.1426 N   0  0  0  0  0  0  0  0  0  0  0  0
   11.5887  -20.9031   24.5703 C   0  0  0  0  0  0  0  0  0  0  0  0
   11.0262  -20.3842   23.4841 N   0  0  0  0  0  0  0  0  0  0  0  0
   11.9369  -16.2604   23.5021 C   0  0  0  0  0  0  0  0  0  0  0  0
   12.5843  -15.1130   23.1494 O   0  0  0  0  0  0  0  0  0  0  0  0
   12.3334  -16.9211   24.4848 O   0  0  0  0  0  0  0  0  0  0  0  0
  2  1  1  6
  2  3  1  0
  2  4  1  0
  4  5  1  6
  6  4  1  0
  6  8  1  0
  7  6  2  0
  9  8  1  0
  9 12  1  0
  9 10  1  1
 11 10  1  0
 12 14  1  0
 13 12  2  0
 14 15  1  0
 15 22  1  0
 15 16  1  6
 16 17  1  0
 17 21  1  0
 18 17  2  0
 18 19  1  0
 19 20  1  0
 21 20  2  0
 22 23  1  0
 24 22  2  0
M  END
$$$$
