YQE.pdb
     RDKit          3D

 31 31  0  0  1  0  0  0  0  0999 V2000
    7.0647  -12.5695   17.0588 O   0  0  0  0  0  0  0  0  0  0  0  0
    7.6320  -12.9816   18.2697 C   0  0  0  0  0  0  0  0  0  0  0  0
    8.9685  -13.3456   18.2967 C   0  0  0  0  0  0  0  0  0  0  0  0
    9.5136  -13.7544   19.5197 C   0  0  0  0  0  0  0  0  0  0  0  0
    8.7638  -13.7982   20.6595 C   0  0  0  0  0  0  0  0  0  0  0  0
    9.3649  -14.2312   21.9282 C   0  0  0  0  0  0  0  0  0  0  0  0
    9.3501  -15.7680   21.9179 C   0  0  2  0  0  0  0  0  0  0  0  0
    7.9815  -16.2082   22.0155 N   0  0  0  0  0  0  0  0  0  0  0  0
   10.0974  -16.1876   23.1121 C   0  0  0  0  0  0  0  0  0  0  0  0
    9.5040  -16.2967   24.1969 O   0  0  0  0  0  0  0  0  0  0  0  0
    7.4422  -13.4326   20.6061 C   0  0  0  0  0  0  0  0  0  0  0  0
    6.8477  -13.0161   19.4091 C   0  0  0  0  0  0  0  0  0  0  0  0
   10.3645  -21.0845   24.5276 N   0  0  0  0  0  0  0  0  0  0  0  0
   11.5439  -20.7991   25.2297 C   0  0  0  0  0  0  0  0  0  0  0  0
   12.0070  -21.6396   26.0295 O   0  0  0  0  0  0  0  0  0  0  0  0
   12.3087  -19.4981   25.0712 C   0  0  0  0  0  0  0  0  0  0  0  0
   11.5373  -18.5802   24.1769 C   0  0  0  0  0  0  0  0  0  0  0  0
   12.2158  -17.2725   23.9848 C   0  0  2  0  0  0  0  0  0  0  0  0
   11.4686  -16.4603   23.0185 N   0  0  0  0  0  0  0  0  0  0  0  0
   13.5791  -17.4403   23.4573 C   0  0  0  0  0  0  0  0  0  0  0  0
   13.7359  -18.2573   22.4848 O   0  0  0  0  0  0  0  0  0  0  0  0
   14.6956  -16.7414   23.9706 N   0  0  0  0  0  0  0  0  0  0  0  0
   15.8868  -16.6025   23.0862 C   0  0  1  0  0  0  0  0  0  0  0  0
   15.3761  -15.8608   21.9027 C   0  0  0  0  0  0  0  0  0  0  0  0
   16.3916  -15.4457   20.9055 C   0  0  0  0  0  0  0  0  0  0  0  0
   15.8276  -14.7871   19.7106 C   0  0  0  0  0  0  0  0  0  0  0  0
   16.0522  -13.5587   19.4993 O   0  0  0  0  0  0  0  0  0  0  0  0
   17.0029  -16.0381   23.8269 C   0  0  0  0  0  0  0  0  0  0  0  0
   16.7867  -15.5073   24.9694 O   0  0  0  0  0  0  0  0  0  0  0  0
   15.0403  -15.4974   18.7831 O   0  0  0  0  0  0  0  0  0  0  0  0
   18.3193  -16.0204   23.4175 O   0  0  0  0  0  0  0  0  0  0  0  0
  2  3  2  0
  2  1  1  0
  4  3  1  0
  5  4  2  0
  6  5  1  0
  7  6  1  0
  7  8  1  1
  9  7  1  0
  9 10  2  0
 11  5  1  0
 11 12  2  0
 12  2  1  0
 13 14  1  0
 14 15  2  0
 14 16  1  0
 16 17  1  0
 18 17  1  6
 18 19  1  0
 19  9  1  0
 20 18  1  0
 21 20  2  0
 22 20  1  0
 23 22  1  0
 23 28  1  0
 23 24  1  6
 25 24  1  0
 26 25  1  0
 27 26  2  0
 28 31  1  0
 29 28  2  0
 30 26  1  0
M  END
$$$$
