YQE.pdb
     RDKit          3D

 31 31  0  0  1  0  0  0  0  0999 V2000
    5.6913  -10.4610   27.5976 O   0  0  0  0  0  0  0  0  0  0  0  0
    6.1970  -11.6938   27.1703 C   0  0  0  0  0  0  0  0  0  0  0  0
    5.3192  -12.6476   26.6812 C   0  0  0  0  0  0  0  0  0  0  0  0
    5.8487  -13.8731   26.2598 C   0  0  0  0  0  0  0  0  0  0  0  0
    7.1868  -14.1352   26.3225 C   0  0  0  0  0  0  0  0  0  0  0  0
    7.7122  -15.4310   25.8719 C   0  0  0  0  0  0  0  0  0  0  0  0
    6.6746  -16.0092   24.8967 C   0  0  2  0  0  0  0  0  0  0  0  0
    6.3368  -17.3407   25.3321 N   0  0  0  0  0  0  0  0  0  0  0  0
    7.3380  -16.0641   23.5861 C   0  0  0  0  0  0  0  0  0  0  0  0
    7.7662  -17.1498   23.1633 O   0  0  0  0  0  0  0  0  0  0  0  0
    8.0353  -13.1736   26.8110 C   0  0  0  0  0  0  0  0  0  0  0  0
    7.5580  -11.9314   27.2456 C   0  0  0  0  0  0  0  0  0  0  0  0
    6.6264  -14.7077   18.6972 N   0  0  0  0  0  0  0  0  0  0  0  0
    7.8560  -14.0655   18.4947 C   0  0  0  0  0  0  0  0  0  0  0  0
    8.3833  -14.0810   17.3624 O   0  0  0  0  0  0  0  0  0  0  0  0
    8.6012  -13.3354   19.5967 C   0  0  0  0  0  0  0  0  0  0  0  0
    7.8625  -13.5060   20.8861 C   0  0  0  0  0  0  0  0  0  0  0  0
    8.0577  -14.8548   21.4777 C   0  0  2  0  0  0  0  0  0  0  0  0
    7.4820  -14.8958   22.8262 N   0  0  0  0  0  0  0  0  0  0  0  0
    9.4845  -15.1938   21.5980 C   0  0  0  0  0  0  0  0  0  0  0  0
   10.1934  -14.4779   22.3871 O   0  0  0  0  0  0  0  0  0  0  0  0
   10.0848  -16.2626   20.8939 N   0  0  0  0  0  0  0  0  0  0  0  0
   11.5446  -16.4848   21.0939 C   0  0  1  0  0  0  0  0  0  0  0  0
   11.6356  -17.8888   21.5760 C   0  0  0  0  0  0  0  0  0  0  0  0
   11.1200  -18.1435   22.9425 C   0  0  0  0  0  0  0  0  0  0  0  0
   11.2735  -19.5411   23.3928 C   0  0  0  0  0  0  0  0  0  0  0  0
   11.8431  -20.3888   22.6437 O   0  0  0  0  0  0  0  0  0  0  0  0
   12.2805  -16.1163   19.8958 C   0  0  0  0  0  0  0  0  0  0  0  0
   11.6390  -15.9148   18.8088 O   0  0  0  0  0  0  0  0  0  0  0  0
   10.8028  -19.9631   24.6517 O   0  0  0  0  0  0  0  0  0  0  0  0
   13.6457  -15.9468   19.8050 O   0  0  0  0  0  0  0  0  0  0  0  0
  2  3  2  0
  2  1  1  0
  4  3  1  0
  5  4  2  0
  6  5  1  0
  7  6  1  0
  7  8  1  1
  9  7  1  0
  9 10  2  0
 11  5  1  0
 11 12  2  0
 12  2  1  0
 13 14  1  0
 14 15  2  0
 14 16  1  0
 16 17  1  0
 18 17  1  1
 18 19  1  0
 19  9  1  0
 20 18  1  0
 21 20  2  0
 22 20  1  0
 23 22  1  0
 23 28  1  0
 23 24  1  6
 25 24  1  0
 26 25  1  0
 27 26  2  0
 28 31  1  0
 29 28  2  0
 30 26  1  0
M  END
$$$$
