YQE.pdb
     RDKit          3D

 31 31  0  0  1  0  0  0  0  0999 V2000
    7.6110  -14.0310   16.0841 O   0  0  0  0  0  0  0  0  0  0  0  0
    7.8149  -14.0574   17.4682 C   0  0  0  0  0  0  0  0  0  0  0  0
    7.7398  -12.8723   18.1818 C   0  0  0  0  0  0  0  0  0  0  0  0
    7.9475  -12.9240   19.5653 C   0  0  0  0  0  0  0  0  0  0  0  0
    8.2167  -14.0988   20.2061 C   0  0  0  0  0  0  0  0  0  0  0  0
    8.4293  -14.1208   21.6596 C   0  0  0  0  0  0  0  0  0  0  0  0
    7.2552  -14.9084   22.2622 C   0  0  2  0  0  0  0  0  0  0  0  0
    6.1067  -14.0398   22.3142 N   0  0  0  0  0  0  0  0  0  0  0  0
    7.6696  -15.2727   23.6246 C   0  0  0  0  0  0  0  0  0  0  0  0
    7.6078  -14.4247   24.5291 O   0  0  0  0  0  0  0  0  0  0  0  0
    8.2857  -15.2590   19.4764 C   0  0  0  0  0  0  0  0  0  0  0  0
    8.0861  -15.2630   18.0909 C   0  0  0  0  0  0  0  0  0  0  0  0
    6.3105  -20.2088   26.7816 N   0  0  0  0  0  0  0  0  0  0  0  0
    7.2460  -19.5812   27.6163 C   0  0  0  0  0  0  0  0  0  0  0  0
    7.3719  -19.9603   28.7998 O   0  0  0  0  0  0  0  0  0  0  0  0
    8.1351  -18.4414   27.1548 C   0  0  0  0  0  0  0  0  0  0  0  0
    7.7157  -18.0148   25.7839 C   0  0  0  0  0  0  0  0  0  0  0  0
    8.6389  -17.0107   25.1949 C   0  0  2  0  0  0  0  0  0  0  0  0
    8.1296  -16.5688   23.8923 N   0  0  0  0  0  0  0  0  0  0  0  0
    9.9818  -17.5706   24.9752 C   0  0  0  0  0  0  0  0  0  0  0  0
   10.1043  -18.4628   24.0659 O   0  0  0  0  0  0  0  0  0  0  0  0
   11.1172  -17.1620   25.7118 N   0  0  0  0  0  0  0  0  0  0  0  0
   12.3269  -18.0299   25.6496 C   0  0  1  0  0  0  0  0  0  0  0  0
   13.3984  -17.1246   25.1554 C   0  0  0  0  0  0  0  0  0  0  0  0
   13.3471  -16.7796   23.7144 C   0  0  0  0  0  0  0  0  0  0  0  0
   14.4192  -15.8642   23.2762 C   0  0  0  0  0  0  0  0  0  0  0  0
   14.4345  -15.4304   22.0864 O   0  0  0  0  0  0  0  0  0  0  0  0
   12.5270  -18.7094   26.9188 C   0  0  0  0  0  0  0  0  0  0  0  0
   13.5194  -19.5042   27.0495 O   0  0  0  0  0  0  0  0  0  0  0  0
   15.4369  -15.4496   24.1576 O   0  0  0  0  0  0  0  0  0  0  0  0
   11.7364  -18.5774   28.0406 O   0  0  0  0  0  0  0  0  0  0  0  0
  2  3  2  0
  2  1  1  0
  4  3  1  0
  5  4  2  0
  6  5  1  0
  7  6  1  0
  7  8  1  1
  9  7  1  0
  9 10  2  0
 11  5  1  0
 11 12  2  0
 12  2  1  0
 13 14  1  0
 14 15  2  0
 14 16  1  0
 16 17  1  0
 18 17  1  6
 18 19  1  0
 19  9  1  0
 20 18  1  0
 21 20  2  0
 22 20  1  0
 23 22  1  0
 23 28  1  0
 23 24  1  1
 25 24  1  0
 26 25  1  0
 27 26  2  0
 28 31  1  0
 29 28  2  0
 30 26  1  0
M  END
$$$$
