YQE.pdb
     RDKit          3D

 31 31  0  0  1  0  0  0  0  0999 V2000
    7.8317  -12.8143   16.9308 O   0  0  0  0  0  0  0  0  0  0  0  0
    7.6297  -13.2585   18.2423 C   0  0  0  0  0  0  0  0  0  0  0  0
    6.7985  -14.3444   18.4640 C   0  0  0  0  0  0  0  0  0  0  0  0
    6.6120  -14.7703   19.7846 C   0  0  0  0  0  0  0  0  0  0  0  0
    7.2236  -14.1448   20.8324 C   0  0  0  0  0  0  0  0  0  0  0  0
    7.0084  -14.6158   22.2072 C   0  0  0  0  0  0  0  0  0  0  0  0
    8.1860  -15.5451   22.5413 C   0  0  2  0  0  0  0  0  0  0  0  0
    8.2277  -16.5953   21.5555 N   0  0  0  0  0  0  0  0  0  0  0  0
    7.8907  -16.1122   23.8649 C   0  0  0  0  0  0  0  0  0  0  0  0
    7.7433  -15.3526   24.8357 O   0  0  0  0  0  0  0  0  0  0  0  0
    8.0423  -13.0713   20.5861 C   0  0  0  0  0  0  0  0  0  0  0  0
    8.2629  -12.6050   19.2848 C   0  0  0  0  0  0  0  0  0  0  0  0
    6.2899  -22.2105   24.6875 N   0  0  0  0  0  0  0  0  0  0  0  0
    6.4174  -21.7350   26.0002 C   0  0  0  0  0  0  0  0  0  0  0  0
    6.1352  -22.4834   26.9597 O   0  0  0  0  0  0  0  0  0  0  0  0
    6.8893  -20.3313   26.3310 C   0  0  0  0  0  0  0  0  0  0  0  0
    7.0396  -19.5516   25.0634 C   0  0  0  0  0  0  0  0  0  0  0  0
    7.5236  -18.1674   25.3026 C   0  0  2  0  0  0  0  0  0  0  0  0
    7.7782  -17.5000   24.0215 N   0  0  0  0  0  0  0  0  0  0  0  0
    8.7836  -18.1564   26.0625 C   0  0  0  0  0  0  0  0  0  0  0  0
    9.8638  -18.3729   25.4113 O   0  0  0  0  0  0  0  0  0  0  0  0
    8.8424  -17.9136   27.4539 N   0  0  0  0  0  0  0  0  0  0  0  0
   10.1893  -17.8802   28.0905 C   0  0  1  0  0  0  0  0  0  0  0  0
   10.6160  -16.4612   27.9636 C   0  0  0  0  0  0  0  0  0  0  0  0
    9.5902  -15.4407   28.2866 C   0  0  0  0  0  0  0  0  0  0  0  0
   10.0816  -14.0503   28.2164 C   0  0  0  0  0  0  0  0  0  0  0  0
   11.2977  -13.8214   27.9460 O   0  0  0  0  0  0  0  0  0  0  0  0
   10.1353  -18.4697   29.4181 C   0  0  0  0  0  0  0  0  0  0  0  0
    9.0106  -18.8671   29.8773 O   0  0  0  0  0  0  0  0  0  0  0  0
    9.2234  -12.9557   28.4395 O   0  0  0  0  0  0  0  0  0  0  0  0
   11.2081  -18.6603   30.2629 O   0  0  0  0  0  0  0  0  0  0  0  0
  2  3  2  0
  2  1  1  0
  4  3  1  0
  5  4  2  0
  6  5  1  0
  7  6  1  0
  7  8  1  6
  9  7  1  0
  9 10  2  0
 11  5  1  0
 11 12  2  0
 12  2  1  0
 13 14  1  0
 14 15  2  0
 14 16  1  0
 16 17  1  0
 18 17  1  6
 18 19  1  0
 19  9  1  0
 20 18  1  0
 21 20  2  0
 22 20  1  0
 23 22  1  0
 23 28  1  0
 23 24  1  1
 25 24  1  0
 26 25  1  0
 27 26  2  0
 28 31  1  0
 29 28  2  0
 30 26  1  0
M  END
$$$$
