YQE.pdb
     RDKit          3D

 31 31  0  0  1  0  0  0  0  0999 V2000
    7.4904  -23.7222   16.8107 O   0  0  0  0  0  0  0  0  0  0  0  0
    8.2797  -23.3380   17.9004 C   0  0  0  0  0  0  0  0  0  0  0  0
    8.8067  -22.0571   17.9306 C   0  0  0  0  0  0  0  0  0  0  0  0
    9.5931  -21.6960   19.0311 C   0  0  0  0  0  0  0  0  0  0  0  0
    9.8421  -22.5683   20.0511 C   0  0  0  0  0  0  0  0  0  0  0  0
   10.6710  -22.1593   21.1930 C   0  0  0  0  0  0  0  0  0  0  0  0
    9.7019  -21.7580   22.3163 C   0  0  2  0  0  0  0  0  0  0  0  0
    8.9251  -20.6321   21.8633 N   0  0  0  0  0  0  0  0  0  0  0  0
   10.5437  -21.3605   23.4538 C   0  0  0  0  0  0  0  0  0  0  0  0
   11.1562  -20.2816   23.4127 O   0  0  0  0  0  0  0  0  0  0  0  0
    9.3083  -23.8314   19.9973 C   0  0  0  0  0  0  0  0  0  0  0  0
    8.5151  -24.2435   18.9200 C   0  0  0  0  0  0  0  0  0  0  0  0
   11.1493  -23.6164   30.4063 N   0  0  0  0  0  0  0  0  0  0  0  0
   10.6141  -22.7922   29.4064 C   0  0  0  0  0  0  0  0  0  0  0  0
    9.4071  -22.4731   29.4477 O   0  0  0  0  0  0  0  0  0  0  0  0
   11.4349  -22.2525   28.2498 C   0  0  0  0  0  0  0  0  0  0  0  0
   10.6979  -22.4916   26.9703 C   0  0  0  0  0  0  0  0  0  0  0  0
   11.3541  -21.8402   25.8073 C   0  0  2  0  0  0  0  0  0  0  0  0
   10.6488  -22.1982   24.5720 N   0  0  0  0  0  0  0  0  0  0  0  0
   12.7516  -22.2758   25.6581 C   0  0  0  0  0  0  0  0  0  0  0  0
   12.9683  -23.3227   24.9546 O   0  0  0  0  0  0  0  0  0  0  0  0
   13.8396  -21.5902   26.2453 N   0  0  0  0  0  0  0  0  0  0  0  0
   15.2113  -22.0845   25.9380 C   0  0  1  0  0  0  0  0  0  0  0  0
   15.5459  -21.4431   24.6386 C   0  0  0  0  0  0  0  0  0  0  0  0
   15.7209  -19.9710   24.6642 C   0  0  0  0  0  0  0  0  0  0  0  0
   16.0682  -19.3835   23.3552 C   0  0  0  0  0  0  0  0  0  0  0  0
   15.1603  -19.1579   22.5014 O   0  0  0  0  0  0  0  0  0  0  0  0
   16.0955  -21.8569   27.0690 C   0  0  0  0  0  0  0  0  0  0  0  0
   15.6061  -21.4076   28.1610 O   0  0  0  0  0  0  0  0  0  0  0  0
   17.3985  -19.0571   23.0262 O   0  0  0  0  0  0  0  0  0  0  0  0
   17.4541  -22.0900   27.0936 O   0  0  0  0  0  0  0  0  0  0  0  0
  2  3  2  0
  2  1  1  0
  4  3  1  0
  5  4  2  0
  6  5  1  0
  7  6  1  0
  7  8  1  6
  9  7  1  0
  9 10  2  0
 11  5  1  0
 11 12  2  0
 12  2  1  0
 13 14  1  0
 14 15  2  0
 14 16  1  0
 16 17  1  0
 18 17  1  1
 18 19  1  0
 19  9  1  0
 20 18  1  0
 21 20  2  0
 22 20  1  0
 23 22  1  0
 23 28  1  0
 23 24  1  6
 25 24  1  0
 26 25  1  0
 27 26  2  0
 28 31  1  0
 29 28  2  0
 30 26  1  0
M  END
$$$$
