YQE.pdb
     RDKit          3D

 31 31  0  0  1  0  0  0  0  0999 V2000
    9.9438  -14.4976   31.0611 O   0  0  0  0  0  0  0  0  0  0  0  0
    9.8327  -14.6157   29.6712 C   0  0  0  0  0  0  0  0  0  0  0  0
   10.3635  -15.7327   29.0467 C   0  0  0  0  0  0  0  0  0  0  0  0
   10.2401  -15.8284   27.6555 C   0  0  0  0  0  0  0  0  0  0  0  0
    9.6184  -14.8590   26.9228 C   0  0  0  0  0  0  0  0  0  0  0  0
    9.5042  -14.9885   25.4639 C   0  0  0  0  0  0  0  0  0  0  0  0
    8.0718  -15.4662   25.1773 C   0  0  2  0  0  0  0  0  0  0  0  0
    7.8718  -16.7255   25.8485 N   0  0  0  0  0  0  0  0  0  0  0  0
    7.9924  -15.6563   23.7219 C   0  0  0  0  0  0  0  0  0  0  0  0
    7.7977  -16.7937   23.2643 O   0  0  0  0  0  0  0  0  0  0  0  0
    9.1009  -13.7624   27.5653 C   0  0  0  0  0  0  0  0  0  0  0  0
    9.1972  -13.6173   28.9544 C   0  0  0  0  0  0  0  0  0  0  0  0
    9.8965  -13.6011   18.8387 N   0  0  0  0  0  0  0  0  0  0  0  0
    8.6949  -12.9019   18.6578 C   0  0  0  0  0  0  0  0  0  0  0  0
    8.6438  -11.9608   17.8379 O   0  0  0  0  0  0  0  0  0  0  0  0
    7.4230  -13.2293   19.4178 C   0  0  0  0  0  0  0  0  0  0  0  0
    7.7151  -13.2373   20.8847 C   0  0  0  0  0  0  0  0  0  0  0  0
    7.9243  -14.6097   21.4142 C   0  0  2  0  0  0  0  0  0  0  0  0
    8.1364  -14.5575   22.8646 N   0  0  0  0  0  0  0  0  0  0  0  0
    9.1096  -15.2466   20.8188 C   0  0  0  0  0  0  0  0  0  0  0  0
    9.1685  -15.2994   19.5415 O   0  0  0  0  0  0  0  0  0  0  0  0
   10.1653  -15.7838   21.5905 N   0  0  0  0  0  0  0  0  0  0  0  0
   11.3254  -16.3663   20.8589 C   0  0  1  0  0  0  0  0  0  0  0  0
   11.8222  -15.2467   20.0154 C   0  0  0  0  0  0  0  0  0  0  0  0
   13.1098  -15.4777   19.3177 C   0  0  0  0  0  0  0  0  0  0  0  0
   13.5529  -14.3446   18.4815 C   0  0  0  0  0  0  0  0  0  0  0  0
   14.7843  -14.0586   18.4036 O   0  0  0  0  0  0  0  0  0  0  0  0
   12.2486  -16.9914   21.7914 C   0  0  0  0  0  0  0  0  0  0  0  0
   13.2948  -17.5693   21.3384 O   0  0  0  0  0  0  0  0  0  0  0  0
   12.6327  -13.5650   17.7534 O   0  0  0  0  0  0  0  0  0  0  0  0
   12.1157  -17.0220   23.1634 O   0  0  0  0  0  0  0  0  0  0  0  0
  2  3  2  0
  2  1  1  0
  4  3  1  0
  5  4  2  0
  6  5  1  0
  7  6  1  0
  7  8  1  1
  9  7  1  0
  9 10  2  0
 11  5  1  0
 11 12  2  0
 12  2  1  0
 13 14  1  0
 14 15  2  0
 14 16  1  0
 16 17  1  0
 18 17  1  6
 18 19  1  0
 19  9  1  0
 20 18  1  0
 21 20  2  0
 22 20  1  0
 23 22  1  0
 23 28  1  0
 23 24  1  1
 25 24  1  0
 26 25  1  0
 27 26  2  0
 28 31  1  0
 29 28  2  0
 30 26  1  0
M  END
$$$$
