YQE.pdb
     RDKit          3D

 31 31  0  0  1  0  0  0  0  0999 V2000
    5.5933  -11.1113   28.4085 O   0  0  0  0  0  0  0  0  0  0  0  0
    6.1781  -12.1085   27.6200 C   0  0  0  0  0  0  0  0  0  0  0  0
    7.3603  -12.6937   28.0435 C   0  0  0  0  0  0  0  0  0  0  0  0
    7.9262  -13.6889   27.2378 C   0  0  0  0  0  0  0  0  0  0  0  0
    7.3429  -14.0816   26.0678 C   0  0  0  0  0  0  0  0  0  0  0  0
    7.9610  -15.1294   25.2442 C   0  0  0  0  0  0  0  0  0  0  0  0
    6.9739  -15.4309   24.1055 C   0  0  2  0  0  0  0  0  0  0  0  0
    5.8432  -16.1311   24.6601 N   0  0  0  0  0  0  0  0  0  0  0  0
    7.6931  -16.3046   23.1675 C   0  0  0  0  0  0  0  0  0  0  0  0
    7.2709  -17.4527   22.9561 O   0  0  0  0  0  0  0  0  0  0  0  0
    6.1720  -13.4862   25.6706 C   0  0  0  0  0  0  0  0  0  0  0  0
    5.5642  -12.4862   26.4388 C   0  0  0  0  0  0  0  0  0  0  0  0
    8.2376  -15.6364   17.5999 N   0  0  0  0  0  0  0  0  0  0  0  0
    7.9867  -14.7340   18.6431 C   0  0  0  0  0  0  0  0  0  0  0  0
    7.3681  -13.6742   18.4094 O   0  0  0  0  0  0  0  0  0  0  0  0
    8.4333  -14.9754   20.0731 C   0  0  0  0  0  0  0  0  0  0  0  0
    9.0838  -16.3192   20.1648 C   0  0  0  0  0  0  0  0  0  0  0  0
    9.6020  -16.6070   21.5272 C   0  0  2  0  0  0  0  0  0  0  0  0
    8.8453  -15.8381   22.5211 N   0  0  0  0  0  0  0  0  0  0  0  0
   11.0172  -16.2270   21.6615 C   0  0  0  0  0  0  0  0  0  0  0  0
   11.2825  -15.1893   22.3618 O   0  0  0  0  0  0  0  0  0  0  0  0
   12.0709  -16.9555   21.0634 N   0  0  0  0  0  0  0  0  0  0  0  0
   13.4573  -16.6661   21.5266 C   0  0  1  0  0  0  0  0  0  0  0  0
   13.4051  -16.8959   22.9950 C   0  0  0  0  0  0  0  0  0  0  0  0
   13.1811  -18.2961   23.4281 C   0  0  0  0  0  0  0  0  0  0  0  0
   13.4834  -18.5411   24.8522 C   0  0  0  0  0  0  0  0  0  0  0  0
   14.0937  -17.6625   25.5302 O   0  0  0  0  0  0  0  0  0  0  0  0
   14.4199  -17.4219   20.7424 C   0  0  0  0  0  0  0  0  0  0  0  0
   15.6679  -17.2003   20.9074 O   0  0  0  0  0  0  0  0  0  0  0  0
   13.1025  -19.7388   25.4885 O   0  0  0  0  0  0  0  0  0  0  0  0
   14.1202  -18.3935   19.8112 O   0  0  0  0  0  0  0  0  0  0  0  0
  2  3  2  0
  2  1  1  0
  4  3  1  0
  5  4  2  0
  6  5  1  0
  7  6  1  0
  7  8  1  1
  9  7  1  0
  9 10  2  0
 11  5  1  0
 11 12  2  0
 12  2  1  0
 13 14  1  0
 14 15  2  0
 14 16  1  0
 16 17  1  0
 18 17  1  6
 18 19  1  0
 19  9  1  0
 20 18  1  0
 21 20  2  0
 22 20  1  0
 23 22  1  0
 23 28  1  0
 23 24  1  1
 25 24  1  0
 26 25  1  0
 27 26  2  0
 28 31  1  0
 29 28  2  0
 30 26  1  0
M  END
$$$$
