RKH.pdb
     RDKit          3D

 31 31  0  0  1  0  0  0  0  0999 V2000
   20.2074  -29.1492  -11.7498 N   0  0  0  0  0  0  0  0  0  0  0  0
   20.6725  -29.3063  -10.4070 C   0  0  0  0  0  0  0  0  0  0  0  0
   21.9124  -29.5283  -10.1994 N   0  0  0  0  0  0  0  0  0  0  0  0
   19.7934  -29.2221   -9.3049 N   0  0  0  0  0  0  0  0  0  0  0  0
   18.3932  -28.8891   -9.4253 C   0  0  0  0  0  0  0  0  0  0  0  0
   18.2694  -27.3989   -9.5615 C   0  0  0  0  0  0  0  0  0  0  0  0
   17.7795  -26.7569   -8.3307 C   0  0  0  0  0  0  0  0  0  0  0  0
   17.7218  -25.2805   -8.4042 C   0  0  2  0  0  0  0  0  0  0  0  0
   18.9498  -24.6046   -8.7287 N   0  0  0  0  0  0  0  0  0  0  0  0
   17.2238  -24.7047   -7.1135 C   0  0  0  0  0  0  0  0  0  0  0  0
   18.0502  -24.3832   -6.2151 O   0  0  0  0  0  0  0  0  0  0  0  0
   22.3510  -29.6417   -9.2681 N   0  0  0  0  0  0  0  0  0  0  0  0
   15.8628  -24.4989   -6.8480 C   0  0  1  0  0  0  0  0  0  0  0  0
   15.4454  -23.9171   -5.5436 C   0  0  0  0  0  0  0  0  0  0  0  0
   14.3262  -23.0127   -5.9439 C   0  0  0  0  0  0  0  0  0  0  0  0
   13.5080  -22.2933   -4.9776 C   0  0  0  0  0  0  0  0  0  0  0  0
   12.4542  -21.4353   -5.5776 C   0  0  0  0  0  0  0  0  0  0  0  0
   11.6349  -20.7460   -4.4735 N   0  0  0  0  0  0  0  0  0  0  0  0
   10.7484  -19.8120   -5.1257 C   0  0  0  0  0  0  0  0  0  0  0  0
   15.2091  -24.9163   -4.5488 O   0  0  0  0  0  0  0  0  0  0  0  0
   14.6833  -26.0472   -4.8834 N   0  0  0  0  0  0  0  0  0  0  0  0
   15.5480  -24.6769   -3.1971 C   0  0  1  0  0  0  0  0  0  0  0  0
   15.2621  -25.7743   -2.2452 C   0  0  0  0  0  0  0  0  0  0  0  0
   16.4302  -25.8400   -1.3091 C   0  0  0  0  0  0  0  0  0  0  0  0
   17.6104  -26.4877   -1.8699 C   0  0  0  0  0  0  0  0  0  0  0  0
   17.5330  -27.4581   -2.8655 N   0  0  0  0  0  0  0  0  0  0  0  0
   18.7853  -27.8422   -3.1518 C   0  0  0  0  0  0  0  0  0  0  0  0
   19.6185  -27.1427   -2.3689 N   0  0  0  0  0  0  0  0  0  0  0  0
   18.9083  -26.3097   -1.5796 C   0  0  0  0  0  0  0  0  0  0  0  0
   13.9827  -25.4211   -1.5708 O   0  0  0  0  0  0  0  0  0  0  0  0
   13.3765  -26.3345   -0.6787 O   0  0  0  0  0  0  0  0  0  0  0  0
  2  1  1  0
  3  2  2  0
  4  2  1  0
  5  4  1  0
  6  5  1  0
  7  6  1  0
  8  9  1  1
  8  7  1  0
 10  8  1  0
 11 10  2  0
 12 10  1  0
 13 12  1  0
 13 19  1  0
 13 14  1  1
 15 14  1  0
 16 15  1  0
 17 16  1  0
 18 17  1  0
 19 21  1  0
 20 19  2  0
 21 22  1  0
 22 23  1  1
 22 29  1  0
 24 23  1  0
 25 24  2  0
 26 25  1  0
 27 26  1  0
 27 28  2  0
 28 24  1  0
 29 31  2  0
 29 30  1  0
M  END
$$$$
