RKH.pdb
     RDKit          3D

 31 31  0  0  1  0  0  0  0  0999 V2000
   29.5862  -25.7153  -15.9690 N   0  0  0  0  0  0  0  0  0  0  0  0
   28.2629  -25.4426  -16.4368 C   0  0  0  0  0  0  0  0  0  0  0  0
   27.2846  -26.1115  -15.9625 N   0  0  0  0  0  0  0  0  0  0  0  0
   28.0122  -24.4513  -17.4109 N   0  0  0  0  0  0  0  0  0  0  0  0
   28.3303  -23.0545  -17.2276 C   0  0  0  0  0  0  0  0  0  0  0  0
   27.5728  -22.5475  -16.0344 C   0  0  0  0  0  0  0  0  0  0  0  0
   26.4580  -21.6612  -16.4066 C   0  0  0  0  0  0  0  0  0  0  0  0
   26.8783  -20.2983  -16.7995 C   0  0  2  0  0  0  0  0  0  0  0  0
   27.9753  -19.7269  -16.0644 N   0  0  0  0  0  0  0  0  0  0  0  0
   25.7298  -19.3407  -16.7020 C   0  0  0  0  0  0  0  0  0  0  0  0
   25.4560  -18.8077  -15.5909 O   0  0  0  0  0  0  0  0  0  0  0  0
   26.3163  -26.0955  -16.3296 N   0  0  0  0  0  0  0  0  0  0  0  0
   24.9301  -18.9984  -17.8012 C   0  0  2  0  0  0  0  0  0  0  0  0
   23.8293  -18.0114  -17.6339 C   0  0  0  0  0  0  0  0  0  0  0  0
   23.8926  -17.2461  -18.9149 C   0  0  0  0  0  0  0  0  0  0  0  0
   22.9861  -16.1495  -19.2254 C   0  0  0  0  0  0  0  0  0  0  0  0
   23.2452  -15.4836  -20.5278 C   0  0  0  0  0  0  0  0  0  0  0  0
   22.2095  -14.3738  -20.7747 N   0  0  0  0  0  0  0  0  0  0  0  0
   22.5814  -13.7146  -22.0039 C   0  0  0  0  0  0  0  0  0  0  0  0
   22.5961  -18.6257  -17.2521 O   0  0  0  0  0  0  0  0  0  0  0  0
   22.2891  -19.7935  -17.7097 N   0  0  0  0  0  0  0  0  0  0  0  0
   21.7069  -17.9644  -16.3740 C   0  0  1  0  0  0  0  0  0  0  0  0
   20.5191  -18.7348  -15.9408 C   0  0  0  0  0  0  0  0  0  0  0  0
   20.3759  -18.5021  -14.4675 C   0  0  0  0  0  0  0  0  0  0  0  0
   21.2738  -19.3047  -13.6450 C   0  0  0  0  0  0  0  0  0  0  0  0
   22.1924  -20.1988  -14.1886 N   0  0  0  0  0  0  0  0  0  0  0  0
   22.8528  -20.7671  -13.1694 C   0  0  0  0  0  0  0  0  0  0  0  0
   22.3706  -20.2523  -12.0296 N   0  0  0  0  0  0  0  0  0  0  0  0
   21.4024  -19.3550  -12.3103 C   0  0  0  0  0  0  0  0  0  0  0  0
   19.3715  -18.2177  -16.7357 O   0  0  0  0  0  0  0  0  0  0  0  0
   18.1187  -18.8694  -16.6777 O   0  0  0  0  0  0  0  0  0  0  0  0
  2  1  1  0
  3  2  2  0
  4  2  1  0
  5  4  1  0
  6  5  1  0
  7  6  1  0
  8  9  1  1
  8  7  1  0
 10  8  1  0
 11 10  2  0
 12 10  1  0
 13 12  1  0
 13 19  1  0
 13 14  1  6
 15 14  1  0
 16 15  1  0
 17 16  1  0
 18 17  1  0
 19 21  1  0
 20 19  2  0
 21 22  1  0
 22 23  1  6
 22 29  1  0
 24 23  1  0
 25 24  2  0
 26 25  1  0
 27 26  1  0
 27 28  2  0
 28 24  1  0
 29 31  2  0
 29 30  1  0
M  END
$$$$
