RKH.pdb
     RDKit          3D

 31 31  0  0  1  0  0  0  0  0999 V2000
   25.9936  -35.8684  -14.3312 N   0  0  0  0  0  0  0  0  0  0  0  0
   24.9977  -34.8828  -14.0471 C   0  0  0  0  0  0  0  0  0  0  0  0
   24.0109  -35.1923  -13.2987 N   0  0  0  0  0  0  0  0  0  0  0  0
   25.0791  -33.5752  -14.5746 N   0  0  0  0  0  0  0  0  0  0  0  0
   25.8641  -33.2318  -15.7373 C   0  0  0  0  0  0  0  0  0  0  0  0
   27.2364  -32.8276  -15.2814 C   0  0  0  0  0  0  0  0  0  0  0  0
   27.4331  -31.3689  -15.3027 C   0  0  0  0  0  0  0  0  0  0  0  0
   27.3066  -30.7644  -16.6470 C   0  0  2  0  0  0  0  0  0  0  0  0
   28.2979  -31.1440  -17.6184 N   0  0  0  0  0  0  0  0  0  0  0  0
   27.3191  -29.2686  -16.5587 C   0  0  0  0  0  0  0  0  0  0  0  0
   26.5094  -28.6835  -15.7870 O   0  0  0  0  0  0  0  0  0  0  0  0
   23.2310  -34.5594  -13.0465 N   0  0  0  0  0  0  0  0  0  0  0  0
   28.2009  -28.4706  -17.3008 C   0  0  1  0  0  0  0  0  0  0  0  0
   28.1432  -26.9895  -17.1705 C   0  0  0  0  0  0  0  0  0  0  0  0
   29.5106  -26.5794  -17.6094 C   0  0  0  0  0  0  0  0  0  0  0  0
   29.8860  -25.1896  -17.8287 C   0  0  0  0  0  0  0  0  0  0  0  0
   31.3185  -24.9818  -18.1627 C   0  0  0  0  0  0  0  0  0  0  0  0
   31.6189  -23.4811  -18.3133 N   0  0  0  0  0  0  0  0  0  0  0  0
   33.0505  -23.3473  -18.4406 C   0  0  0  0  0  0  0  0  0  0  0  0
   27.0049  -26.4259  -17.8267 O   0  0  0  0  0  0  0  0  0  0  0  0
   26.6089  -26.9075  -18.9575 N   0  0  0  0  0  0  0  0  0  0  0  0
   26.3057  -25.3427  -17.2462 C   0  0  1  0  0  0  0  0  0  0  0  0
   25.1554  -24.8169  -18.0158 C   0  0  0  0  0  0  0  0  0  0  0  0
   24.3789  -23.9447  -17.0768 C   0  0  0  0  0  0  0  0  0  0  0  0
   23.2010  -23.3246  -17.6724 C   0  0  0  0  0  0  0  0  0  0  0  0
   22.7837  -23.5991  -18.9721 N   0  0  0  0  0  0  0  0  0  0  0  0
   21.6816  -22.8712  -19.2035 C   0  0  0  0  0  0  0  0  0  0  0  0
   21.4147  -22.1666  -18.0950 N   0  0  0  0  0  0  0  0  0  0  0  0
   22.3401  -22.4374  -17.1507 C   0  0  0  0  0  0  0  0  0  0  0  0
   25.7288  -24.0768  -19.1732 O   0  0  0  0  0  0  0  0  0  0  0  0
   25.0461  -24.0581  -20.4106 O   0  0  0  0  0  0  0  0  0  0  0  0
  2  1  1  0
  3  2  2  0
  4  2  1  0
  5  4  1  0
  6  5  1  0
  7  6  1  0
  8  9  1  6
  8  7  1  0
 10  8  1  0
 11 10  2  0
 12 10  1  0
 13 12  1  0
 13 19  1  0
 13 14  1  1
 15 14  1  0
 16 15  1  0
 17 16  1  0
 18 17  1  0
 19 21  1  0
 20 19  2  0
 21 22  1  0
 22 23  1  6
 22 29  1  0
 24 23  1  0
 25 24  2  0
 26 25  1  0
 27 26  1  0
 27 28  2  0
 28 24  1  0
 29 31  2  0
 29 30  1  0
M  END
$$$$
