RKH.pdb
     RDKit          3D

 31 31  0  0  1  0  0  0  0  0999 V2000
   29.3043  -17.6410  -19.0334 N   0  0  0  0  0  0  0  0  0  0  0  0
   28.2946  -17.0604  -19.8625 C   0  0  0  0  0  0  0  0  0  0  0  0
   28.6424  -16.4085  -20.9035 N   0  0  0  0  0  0  0  0  0  0  0  0
   26.9217  -17.1904  -19.5576 N   0  0  0  0  0  0  0  0  0  0  0  0
   26.4268  -17.8640  -18.3797 C   0  0  0  0  0  0  0  0  0  0  0  0
   25.9068  -19.2123  -18.7870 C   0  0  0  0  0  0  0  0  0  0  0  0
   25.2746  -19.9357  -17.6716 C   0  0  0  0  0  0  0  0  0  0  0  0
   23.9256  -19.4402  -17.3209 C   0  0  2  0  0  0  0  0  0  0  0  0
   23.8550  -18.1283  -16.7341 N   0  0  0  0  0  0  0  0  0  0  0  0
   23.2413  -20.3860  -16.3813 C   0  0  0  0  0  0  0  0  0  0  0  0
   23.2681  -21.6259  -16.6167 O   0  0  0  0  0  0  0  0  0  0  0  0
   27.9948  -15.9145  -21.5430 N   0  0  0  0  0  0  0  0  0  0  0  0
   22.5623  -19.9576  -15.2322 C   0  0  1  0  0  0  0  0  0  0  0  0
   22.0274  -20.9621  -14.2737 C   0  0  0  0  0  0  0  0  0  0  0  0
   22.7491  -20.6131  -13.0135 C   0  0  0  0  0  0  0  0  0  0  0  0
   22.3588  -21.1325  -11.7102 C   0  0  0  0  0  0  0  0  0  0  0  0
   23.1489  -20.5993  -10.5708 C   0  0  0  0  0  0  0  0  0  0  0  0
   22.6452  -21.1972   -9.2464 N   0  0  0  0  0  0  0  0  0  0  0  0
   23.5224  -20.7171   -8.2053 C   0  0  0  0  0  0  0  0  0  0  0  0
   20.5984  -21.0056  -14.2665 O   0  0  0  0  0  0  0  0  0  0  0  0
   19.9212  -19.9151  -14.1261 N   0  0  0  0  0  0  0  0  0  0  0  0
   19.9175  -22.2360  -14.4133 C   0  0  1  0  0  0  0  0  0  0  0  0
   18.4421  -22.1865  -14.3000 C   0  0  0  0  0  0  0  0  0  0  0  0
   17.9430  -23.5558  -14.6479 C   0  0  0  0  0  0  0  0  0  0  0  0
   16.4898  -23.6788  -14.6550 C   0  0  0  0  0  0  0  0  0  0  0  0
   15.6453  -22.6277  -14.3076 N   0  0  0  0  0  0  0  0  0  0  0  0
   14.3845  -23.0703  -14.4191 C   0  0  0  0  0  0  0  0  0  0  0  0
   14.4319  -24.3482  -14.8206 N   0  0  0  0  0  0  0  0  0  0  0  0
   15.7177  -24.7307  -14.9681 C   0  0  0  0  0  0  0  0  0  0  0  0
   18.1428  -21.7864  -12.8976 O   0  0  0  0  0  0  0  0  0  0  0  0
   18.7973  -22.4294  -11.8225 O   0  0  0  0  0  0  0  0  0  0  0  0
  2  1  1  0
  3  2  2  0
  4  2  1  0
  5  4  1  0
  6  5  1  0
  7  6  1  0
  8  9  1  1
  8  7  1  0
 10  8  1  0
 11 10  2  0
 12 10  1  0
 13 12  1  0
 13 19  1  0
 13 14  1  6
 15 14  1  0
 16 15  1  0
 17 16  1  0
 18 17  1  0
 19 21  1  0
 20 19  2  0
 21 22  1  0
 22 23  1  1
 22 29  1  0
 24 23  1  0
 25 24  2  0
 26 25  1  0
 27 26  1  0
 27 28  2  0
 28 24  1  0
 29 31  2  0
 29 30  1  0
M  END
$$$$
