RKH.pdb
     RDKit          3D

 31 31  0  0  1  0  0  0  0  0999 V2000
   27.9938  -22.3266  -21.4205 N   0  0  0  0  0  0  0  0  0  0  0  0
   27.1693  -21.1688  -21.5751 C   0  0  0  0  0  0  0  0  0  0  0  0
   26.4359  -21.0608  -22.6143 N   0  0  0  0  0  0  0  0  0  0  0  0
   27.1469  -20.1418  -20.6060 N   0  0  0  0  0  0  0  0  0  0  0  0
   27.7501  -20.2647  -19.2994 C   0  0  0  0  0  0  0  0  0  0  0  0
   26.8423  -21.0888  -18.4328 C   0  0  0  0  0  0  0  0  0  0  0  0
   26.8440  -20.6456  -17.0290 C   0  0  0  0  0  0  0  0  0  0  0  0
   27.3233  -21.6700  -16.0753 C   0  0  2  0  0  0  0  0  0  0  0  0
   27.5139  -22.9966  -16.5988 N   0  0  0  0  0  0  0  0  0  0  0  0
   26.3930  -21.7817  -14.9059 C   0  0  0  0  0  0  0  0  0  0  0  0
   25.3649  -22.5087  -14.9952 O   0  0  0  0  0  0  0  0  0  0  0  0
   25.8107  -20.2623  -22.8238 N   0  0  0  0  0  0  0  0  0  0  0  0
   26.6104  -21.1101  -13.6948 C   0  0  2  0  0  0  0  0  0  0  0  0
   25.6101  -21.2225  -12.5990 C   0  0  0  0  0  0  0  0  0  0  0  0
   26.4012  -20.8028  -11.4037 C   0  0  0  0  0  0  0  0  0  0  0  0
   27.6563  -21.4369  -11.0250 C   0  0  0  0  0  0  0  0  0  0  0  0
   28.2650  -20.9063   -9.7781 C   0  0  0  0  0  0  0  0  0  0  0  0
   29.5851  -21.6355   -9.4768 N   0  0  0  0  0  0  0  0  0  0  0  0
   30.1183  -21.0608   -8.2647 C   0  0  0  0  0  0  0  0  0  0  0  0
   24.3901  -20.5402  -12.8989 O   0  0  0  0  0  0  0  0  0  0  0  0
   24.4222  -19.3303  -13.3488 N   0  0  0  0  0  0  0  0  0  0  0  0
   23.1442  -21.1810  -12.7078 C   0  0  1  0  0  0  0  0  0  0  0  0
   21.9390  -20.3659  -12.9816 C   0  0  0  0  0  0  0  0  0  0  0  0
   21.2195  -21.0376  -14.1114 C   0  0  0  0  0  0  0  0  0  0  0  0
   19.9499  -20.4141  -14.4669 C   0  0  0  0  0  0  0  0  0  0  0  0
   19.5699  -19.1611  -13.9935 N   0  0  0  0  0  0  0  0  0  0  0  0
   18.3615  -18.8866  -14.5055 C   0  0  0  0  0  0  0  0  0  0  0  0
   17.9944  -19.9240  -15.2707 N   0  0  0  0  0  0  0  0  0  0  0  0
   18.9611  -20.8655  -15.2537 C   0  0  0  0  0  0  0  0  0  0  0  0
   21.1562  -20.3371  -11.7157 O   0  0  0  0  0  0  0  0  0  0  0  0
   20.2529  -19.2792  -11.4652 O   0  0  0  0  0  0  0  0  0  0  0  0
  2  1  1  0
  3  2  2  0
  4  2  1  0
  5  4  1  0
  6  5  1  0
  7  6  1  0
  8  9  1  6
  8  7  1  0
 10  8  1  0
 11 10  2  0
 12 10  1  0
 13 12  1  0
 13 19  1  0
 13 14  1  6
 15 14  1  0
 16 15  1  0
 17 16  1  0
 18 17  1  0
 19 21  1  0
 20 19  2  0
 21 22  1  0
 22 23  1  1
 22 29  1  0
 24 23  1  0
 25 24  2  0
 26 25  1  0
 27 26  1  0
 27 28  2  0
 28 24  1  0
 29 31  2  0
 29 30  1  0
M  END
$$$$
