RKH.pdb
     RDKit          3D

 31 31  0  0  1  0  0  0  0  0999 V2000
   27.8170  -32.1813  -14.8482 N   0  0  0  0  0  0  0  0  0  0  0  0
   26.6253  -32.1231  -15.6359 C   0  0  0  0  0  0  0  0  0  0  0  0
   26.6701  -32.4813  -16.8604 N   0  0  0  0  0  0  0  0  0  0  0  0
   25.4000  -31.6787  -15.0922 N   0  0  0  0  0  0  0  0  0  0  0  0
   25.1239  -31.6395  -13.6751 C   0  0  0  0  0  0  0  0  0  0  0  0
   23.9228  -32.4978  -13.4013 C   0  0  0  0  0  0  0  0  0  0  0  0
   23.6082  -32.5899  -11.9662 C   0  0  0  0  0  0  0  0  0  0  0  0
   24.3008  -33.6952  -11.2682 C   0  0  2  0  0  0  0  0  0  0  0  0
   25.0359  -34.6163  -12.0938 N   0  0  0  0  0  0  0  0  0  0  0  0
   23.3312  -34.4999  -10.4571 C   0  0  0  0  0  0  0  0  0  0  0  0
   22.5602  -35.3144  -11.0364 O   0  0  0  0  0  0  0  0  0  0  0  0
   25.8775  -32.4354  -17.5254 N   0  0  0  0  0  0  0  0  0  0  0  0
   23.2357  -34.3945   -9.0625 C   0  0  1  0  0  0  0  0  0  0  0  0
   22.2335  -35.2130   -8.3278 C   0  0  0  0  0  0  0  0  0  0  0  0
   22.9810  -35.5949   -7.0924 C   0  0  0  0  0  0  0  0  0  0  0  0
   23.4383  -34.6193   -6.1127 C   0  0  0  0  0  0  0  0  0  0  0  0
   24.1347  -35.2035   -4.9377 C   0  0  0  0  0  0  0  0  0  0  0  0
   24.3727  -34.1244   -3.8680 N   0  0  0  0  0  0  0  0  0  0  0  0
   25.0700  -34.7592   -2.7752 C   0  0  0  0  0  0  0  0  0  0  0  0
   20.9730  -34.5507   -8.2000 O   0  0  0  0  0  0  0  0  0  0  0  0
   20.7985  -33.3886   -8.7353 N   0  0  0  0  0  0  0  0  0  0  0  0
   19.9116  -35.1592   -7.4912 C   0  0  1  0  0  0  0  0  0  0  0  0
   18.6393  -34.4038   -7.4401 C   0  0  0  0  0  0  0  0  0  0  0  0
   18.2140  -34.1911   -8.8610 C   0  0  0  0  0  0  0  0  0  0  0  0
   16.8471  -33.7049   -9.0099 C   0  0  0  0  0  0  0  0  0  0  0  0
   16.3803  -32.5653   -8.3603 N   0  0  0  0  0  0  0  0  0  0  0  0
   15.0965  -32.3998   -8.7098 C   0  0  0  0  0  0  0  0  0  0  0  0
   14.7670  -33.3944   -9.5458 N   0  0  0  0  0  0  0  0  0  0  0  0
   15.8331  -34.1997   -9.7362 C   0  0  0  0  0  0  0  0  0  0  0  0
   17.6877  -35.2385   -6.6565 O   0  0  0  0  0  0  0  0  0  0  0  0
   16.6414  -34.6266   -5.9295 O   0  0  0  0  0  0  0  0  0  0  0  0
  2  1  1  0
  3  2  2  0
  4  2  1  0
  5  4  1  0
  6  5  1  0
  7  6  1  0
  8  9  1  6
  8  7  1  0
 10  8  1  0
 11 10  2  0
 12 10  1  0
 13 12  1  0
 13 19  1  0
 13 14  1  6
 15 14  1  0
 16 15  1  0
 17 16  1  0
 18 17  1  0
 19 21  1  0
 20 19  2  0
 21 22  1  0
 22 23  1  1
 22 29  1  0
 24 23  1  0
 25 24  2  0
 26 25  1  0
 27 26  1  0
 27 28  2  0
 28 24  1  0
 29 31  2  0
 29 30  1  0
M  END
$$$$
