CDI.pdb
     RDKit          3D

 23 22  0  0  1  0  0  0  0  0999 V2000
   20.3077  -22.4589  -14.4996 N   0  0  0  0  0  0  0  0  0  0  0  0
   19.7242  -22.1556  -13.2250 C   0  0  1  0  0  0  0  0  0  0  0  0
   18.7001  -21.0570  -13.4279 C   0  0  0  0  0  0  0  0  0  0  0  0
   19.4541  -19.4140  -13.2746 S   0  0  0  0  0  0  0  0  0  0  0  0
   18.9934  -23.3074  -12.6395 C   0  0  0  0  0  0  0  0  0  0  0  0
   18.4040  -24.0951  -13.4160 O   0  0  0  0  0  0  0  0  0  0  0  0
   18.9529  -23.5254  -11.2521 N   0  0  0  0  0  0  0  0  0  0  0  0
   18.3071  -24.6919  -10.6462 C   0  0  1  0  0  0  0  0  0  0  0  0
   18.9975  -25.8776  -11.2467 C   0  0  0  0  0  0  0  0  0  0  0  0
   18.3137  -27.1280  -10.9006 C   0  0  0  0  0  0  0  0  0  0  0  0
   17.0844  -27.2363  -11.0983 O   0  0  0  0  0  0  0  0  0  0  0  0
   18.4119  -24.5338   -9.1964 C   0  0  0  0  0  0  0  0  0  0  0  0
   19.5050  -24.0633   -8.7224 O   0  0  0  0  0  0  0  0  0  0  0  0
   19.0084  -28.1850  -10.3607 O   0  0  0  0  0  0  0  0  0  0  0  0
   15.0429  -23.7041   -4.0847 C   0  0  0  0  0  0  0  0  0  0  0  0
   16.3530  -24.0777   -4.6933 C   0  0  0  0  0  0  0  0  0  0  0  0
   16.2261  -24.1674   -6.2100 C   0  0  2  0  0  0  0  0  0  0  0  0
   15.2342  -25.2721   -6.5035 C   0  0  0  0  0  0  0  0  0  0  0  0
   17.5567  -24.5014   -6.8516 C   0  0  2  0  0  0  0  0  0  0  0  0
   17.3947  -24.8545   -8.2415 N   0  0  0  0  0  0  0  0  0  0  0  0
   18.1543  -25.5999   -6.0625 C   0  0  0  0  0  0  0  0  0  0  0  0
   18.0005  -26.8159   -6.3613 O   0  0  0  0  0  0  0  0  0  0  0  0
   18.9128  -25.2690   -4.9522 O   0  0  0  0  0  0  0  0  0  0  0  0
  2  1  1  6
  3  2  1  0
  3  4  1  0
  5  2  1  0
  6  5  2  0
  7  5  1  0
  8  9  1  6
  8  7  1  0
 10  9  1  0
 11 10  2  0
 12 20  1  0
 12  8  1  0
 13 12  2  0
 14 10  1  0
 15 16  1  0
 16 17  1  0
 17 18  1  1
 19 21  1  0
 19 17  1  0
 19 20  1  6
 21 23  1  0
 22 21  2  0
M  END
$$$$
