CDI.pdb
     RDKit          3D

 23 22  0  0  1  0  0  0  0  0999 V2000
   13.9296  -10.3857  -11.0863 N   0  0  0  0  0  0  0  0  0  0  0  0
   15.0896  -10.0002  -10.3359 C   0  0  1  0  0  0  0  0  0  0  0  0
   16.2887  -10.7138  -10.9273 C   0  0  0  0  0  0  0  0  0  0  0  0
   16.1961  -12.5041  -10.6488 S   0  0  0  0  0  0  0  0  0  0  0  0
   15.3775   -8.5471  -10.4303 C   0  0  0  0  0  0  0  0  0  0  0  0
   15.1889   -7.9731  -11.5284 O   0  0  0  0  0  0  0  0  0  0  0  0
   15.8498   -7.8168   -9.3269 N   0  0  0  0  0  0  0  0  0  0  0  0
   16.1566   -6.3861   -9.3890 C   0  0  1  0  0  0  0  0  0  0  0  0
   15.7431   -5.8387   -8.0577 C   0  0  0  0  0  0  0  0  0  0  0  0
   14.2911   -5.6455   -7.9852 C   0  0  0  0  0  0  0  0  0  0  0  0
   13.7360   -4.8317   -8.7543 O   0  0  0  0  0  0  0  0  0  0  0  0
   17.5712   -6.2669   -9.7391 C   0  0  0  0  0  0  0  0  0  0  0  0
   18.4347   -6.4234   -8.8058 O   0  0  0  0  0  0  0  0  0  0  0  0
   13.5308   -6.3493   -7.0808 O   0  0  0  0  0  0  0  0  0  0  0  0
   21.9508   -8.8287  -12.1638 C   0  0  0  0  0  0  0  0  0  0  0  0
   21.4761   -7.4299  -11.9527 C   0  0  0  0  0  0  0  0  0  0  0  0
   20.0018   -7.4239  -11.5646 C   0  0  2  0  0  0  0  0  0  0  0  0
   19.2362   -7.9969  -12.7377 C   0  0  0  0  0  0  0  0  0  0  0  0
   19.5156   -6.0172  -11.2844 C   0  0  2  0  0  0  0  0  0  0  0  0
   18.0928   -5.9924  -11.0438 N   0  0  0  0  0  0  0  0  0  0  0  0
   19.8998   -5.1867  -12.4460 C   0  0  0  0  0  0  0  0  0  0  0  0
   19.0696   -4.8060  -13.3163 O   0  0  0  0  0  0  0  0  0  0  0  0
   21.2282   -4.8168  -12.5737 O   0  0  0  0  0  0  0  0  0  0  0  0
  2  1  1  6
  3  2  1  0
  3  4  1  0
  5  2  1  0
  6  5  2  0
  7  5  1  0
  8  9  1  1
  8  7  1  0
 10  9  1  0
 11 10  2  0
 12 20  1  0
 12  8  1  0
 13 12  2  0
 14 10  1  0
 15 16  1  0
 16 17  1  0
 17 18  1  6
 19 21  1  0
 19 17  1  0
 19 20  1  6
 21 23  1  0
 22 21  2  0
M  END
$$$$
