CDI.pdb
     RDKit          3D

 23 22  0  0  1  0  0  0  0  0999 V2000
   19.7417  -13.1722  -16.6717 N   0  0  0  0  0  0  0  0  0  0  0  0
   19.1879  -11.9396  -17.1524 C   0  0  1  0  0  0  0  0  0  0  0  0
   17.6803  -12.0884  -17.1956 C   0  0  0  0  0  0  0  0  0  0  0  0
   17.1281  -12.7646  -18.7860 S   0  0  0  0  0  0  0  0  0  0  0  0
   19.4708  -10.7935  -16.2524 C   0  0  0  0  0  0  0  0  0  0  0  0
   19.1822  -10.9054  -15.0379 O   0  0  0  0  0  0  0  0  0  0  0  0
   20.0475   -9.6056  -16.7320 N   0  0  0  0  0  0  0  0  0  0  0  0
   20.2882   -8.4363  -15.8836 C   0  0  1  0  0  0  0  0  0  0  0  0
   21.7721   -8.2350  -15.9060 C   0  0  0  0  0  0  0  0  0  0  0  0
   22.4501   -9.1417  -14.9737 C   0  0  0  0  0  0  0  0  0  0  0  0
   22.0688   -9.2058  -13.7852 O   0  0  0  0  0  0  0  0  0  0  0  0
   19.4682   -7.3476  -16.4132 C   0  0  0  0  0  0  0  0  0  0  0  0
   19.2174   -7.3429  -17.6694 O   0  0  0  0  0  0  0  0  0  0  0  0
   23.5015   -9.9241  -15.3906 O   0  0  0  0  0  0  0  0  0  0  0  0
   14.4962   -5.4830  -17.6754 C   0  0  0  0  0  0  0  0  0  0  0  0
   15.7552   -4.8433  -17.1938 C   0  0  0  0  0  0  0  0  0  0  0  0
   16.6864   -5.8915  -16.5950 C   0  0  2  0  0  0  0  0  0  0  0  0
   16.0394   -6.3742  -15.3148 C   0  0  0  0  0  0  0  0  0  0  0  0
   18.0453   -5.3010  -16.2813 C   0  0  2  0  0  0  0  0  0  0  0  0
   18.9067   -6.2729  -15.6520 N   0  0  0  0  0  0  0  0  0  0  0  0
   17.8161   -4.1192  -15.4225 C   0  0  0  0  0  0  0  0  0  0  0  0
   17.3182   -3.0455  -15.8592 O   0  0  0  0  0  0  0  0  0  0  0  0
   18.1653   -4.2059  -14.0853 O   0  0  0  0  0  0  0  0  0  0  0  0
  2  1  1  1
  3  2  1  0
  3  4  1  0
  5  2  1  0
  6  5  2  0
  7  5  1  0
  8  9  1  6
  8  7  1  0
 10  9  1  0
 11 10  2  0
 12 20  1  0
 12  8  1  0
 13 12  2  0
 14 10  1  0
 15 16  1  0
 16 17  1  0
 17 18  1  1
 19 21  1  0
 19 17  1  0
 19 20  1  1
 21 23  1  0
 22 21  2  0
M  END
$$$$
