CDI.pdb
     RDKit          3D

 23 22  0  0  1  0  0  0  0  0999 V2000
   14.0601  -12.3616  -16.1696 N   0  0  0  0  0  0  0  0  0  0  0  0
   14.5432  -11.1582  -15.5566 C   0  0  1  0  0  0  0  0  0  0  0  0
   14.8090  -11.4516  -14.0937 C   0  0  0  0  0  0  0  0  0  0  0  0
   13.2621  -11.5974  -13.1571 S   0  0  0  0  0  0  0  0  0  0  0  0
   15.8312  -10.6975  -16.1329 C   0  0  0  0  0  0  0  0  0  0  0  0
   16.6359  -11.5599  -16.5566 O   0  0  0  0  0  0  0  0  0  0  0  0
   16.1572   -9.3331  -16.2102 N   0  0  0  0  0  0  0  0  0  0  0  0
   17.3680   -8.8380  -16.8688 C   0  0  1  0  0  0  0  0  0  0  0  0
   16.9571   -7.5613  -17.5353 C   0  0  0  0  0  0  0  0  0  0  0  0
   18.0858   -6.9305  -18.2273 C   0  0  0  0  0  0  0  0  0  0  0  0
   18.9640   -7.6447  -18.7572 O   0  0  0  0  0  0  0  0  0  0  0  0
   18.4042   -8.7405  -15.8418 C   0  0  0  0  0  0  0  0  0  0  0  0
   18.0402   -8.4452  -14.6496 O   0  0  0  0  0  0  0  0  0  0  0  0
   18.1910   -5.5613  -18.3015 O   0  0  0  0  0  0  0  0  0  0  0  0
   22.3829  -10.6025  -12.7914 C   0  0  0  0  0  0  0  0  0  0  0  0
   22.8246   -9.6685  -13.8679 C   0  0  0  0  0  0  0  0  0  0  0  0
   21.8927   -9.7678  -15.0705 C   0  0  2  0  0  0  0  0  0  0  0  0
   22.7127   -9.4137  -16.2923 C   0  0  0  0  0  0  0  0  0  0  0  0
   20.7328   -8.8021  -14.9450 C   0  0  2  0  0  0  0  0  0  0  0  0
   19.8062   -8.9503  -16.0414 N   0  0  0  0  0  0  0  0  0  0  0  0
   21.3075   -7.4411  -14.8799 C   0  0  0  0  0  0  0  0  0  0  0  0
   21.8598   -6.9832  -13.8423 O   0  0  0  0  0  0  0  0  0  0  0  0
   21.2314   -6.6452  -16.0106 O   0  0  0  0  0  0  0  0  0  0  0  0
  2  1  1  6
  3  2  1  0
  3  4  1  0
  5  2  1  0
  6  5  2  0
  7  5  1  0
  8  9  1  1
  8  7  1  0
 10  9  1  0
 11 10  2  0
 12 20  1  0
 12  8  1  0
 13 12  2  0
 14 10  1  0
 15 16  1  0
 16 17  1  0
 17 18  1  6
 19 21  1  0
 19 17  1  0
 19 20  1  6
 21 23  1  0
 22 21  2  0
M  END
$$$$
