CDI.pdb
     RDKit          3D

 23 22  0  0  1  0  0  0  0  0999 V2000
   21.9199  -34.3153   -5.5713 N   0  0  0  0  0  0  0  0  0  0  0  0
   22.0733  -33.2166   -4.6622 C   0  0  1  0  0  0  0  0  0  0  0  0
   22.9354  -32.1678   -5.3358 C   0  0  0  0  0  0  0  0  0  0  0  0
   24.6878  -32.6369   -5.3104 S   0  0  0  0  0  0  0  0  0  0  0  0
   20.7844  -32.5553   -4.3383 C   0  0  0  0  0  0  0  0  0  0  0  0
   19.9278  -32.4443   -5.2465 O   0  0  0  0  0  0  0  0  0  0  0  0
   20.5136  -32.0606   -3.0515 N   0  0  0  0  0  0  0  0  0  0  0  0
   19.2242  -31.4762   -2.6764 C   0  0  1  0  0  0  0  0  0  0  0  0
   18.9942  -31.9104   -1.2616 C   0  0  0  0  0  0  0  0  0  0  0  0
   18.4637  -33.2764   -1.1997 C   0  0  0  0  0  0  0  0  0  0  0  0
   17.8360  -33.7412   -2.1754 O   0  0  0  0  0  0  0  0  0  0  0  0
   19.3211  -30.0369   -2.9156 C   0  0  0  0  0  0  0  0  0  0  0  0
   20.4132  -29.4487   -2.5961 O   0  0  0  0  0  0  0  0  0  0  0  0
   18.6484  -34.0541   -0.0807 O   0  0  0  0  0  0  0  0  0  0  0  0
   17.8788  -27.4996   -7.3436 C   0  0  0  0  0  0  0  0  0  0  0  0
   18.5188  -27.9715   -6.0810 C   0  0  0  0  0  0  0  0  0  0  0  0
   17.9247  -27.2421   -4.8813 C   0  0  2  0  0  0  0  0  0  0  0  0
   18.3007  -25.7830   -5.0237 C   0  0  0  0  0  0  0  0  0  0  0  0
   18.4833  -27.7818   -3.5812 C   0  0  2  0  0  0  0  0  0  0  0  0
   18.3003  -29.2100   -3.4846 N   0  0  0  0  0  0  0  0  0  0  0  0
   17.8058  -27.0568   -2.4847 C   0  0  0  0  0  0  0  0  0  0  0  0
   17.0070  -27.6196   -1.6868 O   0  0  0  0  0  0  0  0  0  0  0  0
   18.0667  -25.7050   -2.3364 O   0  0  0  0  0  0  0  0  0  0  0  0
  2  1  1  6
  3  2  1  0
  3  4  1  0
  5  2  1  0
  6  5  2  0
  7  5  1  0
  8  9  1  1
  8  7  1  0
 10  9  1  0
 11 10  2  0
 12 20  1  0
 12  8  1  0
 13 12  2  0
 14 10  1  0
 15 16  1  0
 16 17  1  0
 17 18  1  6
 19 21  1  0
 19 17  1  0
 19 20  1  1
 21 23  1  0
 22 21  2  0
M  END
$$$$
