CDI.pdb
     RDKit          3D

 23 22  0  0  1  0  0  0  0  0999 V2000
   21.6839  -13.3831  -20.3724 N   0  0  0  0  0  0  0  0  0  0  0  0
   20.9124  -12.1906  -20.5730 C   0  0  1  0  0  0  0  0  0  0  0  0
   19.5093  -12.4487  -20.0619 C   0  0  0  0  0  0  0  0  0  0  0  0
   18.6109  -13.5928  -21.1462 S   0  0  0  0  0  0  0  0  0  0  0  0
   21.4334  -11.0336  -19.8027 C   0  0  0  0  0  0  0  0  0  0  0  0
   22.4597  -11.1984  -19.1025 O   0  0  0  0  0  0  0  0  0  0  0  0
   20.8052   -9.7776  -19.8454 N   0  0  0  0  0  0  0  0  0  0  0  0
   21.3905   -8.5722  -19.2545 C   0  0  1  0  0  0  0  0  0  0  0  0
   20.9074   -7.4422  -20.1106 C   0  0  0  0  0  0  0  0  0  0  0  0
   21.4544   -6.1577  -19.6613 C   0  0  0  0  0  0  0  0  0  0  0  0
   22.2282   -6.1237  -18.6805 O   0  0  0  0  0  0  0  0  0  0  0  0
   20.9924   -8.5489  -17.8477 C   0  0  0  0  0  0  0  0  0  0  0  0
   19.7805   -8.8510  -17.5629 O   0  0  0  0  0  0  0  0  0  0  0  0
   21.1268   -4.9880  -20.3062 O   0  0  0  0  0  0  0  0  0  0  0  0
   23.7134  -11.0080  -14.3068 C   0  0  0  0  0  0  0  0  0  0  0  0
   22.5265  -10.4180  -14.9920 C   0  0  0  0  0  0  0  0  0  0  0  0
   22.2578   -9.0114  -14.4687 C   0  0  2  0  0  0  0  0  0  0  0  0
   21.6056   -9.1645  -13.1116 C   0  0  0  0  0  0  0  0  0  0  0  0
   21.3277   -8.2525  -15.3920 C   0  0  2  0  0  0  0  0  0  0  0  0
   21.8392   -8.2205  -16.7411 N   0  0  0  0  0  0  0  0  0  0  0  0
   21.1652   -6.8968  -14.8243 C   0  0  0  0  0  0  0  0  0  0  0  0
   21.7311   -5.8807  -15.3131 O   0  0  0  0  0  0  0  0  0  0  0  0
   20.3558   -6.7477  -13.7107 O   0  0  0  0  0  0  0  0  0  0  0  0
  2  1  1  1
  3  2  1  0
  3  4  1  0
  5  2  1  0
  6  5  2  0
  7  5  1  0
  8  9  1  6
  8  7  1  0
 10  9  1  0
 11 10  2  0
 12 20  1  0
 12  8  1  0
 13 12  2  0
 14 10  1  0
 15 16  1  0
 16 17  1  0
 17 18  1  1
 19 21  1  0
 19 17  1  0
 19 20  1  6
 21 23  1  0
 22 21  2  0
M  END
$$$$
