CDI.pdb
     RDKit          3D

 23 22  0  0  1  0  0  0  0  0999 V2000
   19.1771  -14.4045  -19.4199 N   0  0  0  0  0  0  0  0  0  0  0  0
   18.4254  -13.5511  -18.5458 C   0  0  1  0  0  0  0  0  0  0  0  0
   18.4553  -14.1587  -17.1578 C   0  0  0  0  0  0  0  0  0  0  0  0
   17.5146  -15.7088  -17.0943 S   0  0  0  0  0  0  0  0  0  0  0  0
   19.0140  -12.1940  -18.4225 C   0  0  0  0  0  0  0  0  0  0  0  0
   20.2542  -12.0691  -18.5540 O   0  0  0  0  0  0  0  0  0  0  0  0
   18.2167  -11.0661  -18.1655 N   0  0  0  0  0  0  0  0  0  0  0  0
   18.7606   -9.7097  -18.0693 C   0  0  1  0  0  0  0  0  0  0  0  0
   17.5896   -8.8019  -18.2878 C   0  0  0  0  0  0  0  0  0  0  0  0
   17.9802   -7.3913  -18.1943 C   0  0  0  0  0  0  0  0  0  0  0  0
   17.1379   -6.5382  -17.8412 O   0  0  0  0  0  0  0  0  0  0  0  0
   19.4377   -9.6110  -16.7771 C   0  0  0  0  0  0  0  0  0  0  0  0
   18.8700  -10.1457  -15.7608 O   0  0  0  0  0  0  0  0  0  0  0  0
   19.2631   -6.9942  -18.4901 O   0  0  0  0  0  0  0  0  0  0  0  0
   23.2437  -11.0190  -13.2719 C   0  0  0  0  0  0  0  0  0  0  0  0
   23.2344   -9.6238  -13.8008 C   0  0  0  0  0  0  0  0  0  0  0  0
   22.6463   -9.5944  -15.2070 C   0  0  2  0  0  0  0  0  0  0  0  0
   23.5841   -8.7660  -16.0584 C   0  0  0  0  0  0  0  0  0  0  0  0
   21.2703   -8.9618  -15.2116 C   0  0  2  0  0  0  0  0  0  0  0  0
   20.6942   -8.9691  -16.5348 N   0  0  0  0  0  0  0  0  0  0  0  0
   21.4218   -7.5917  -14.6763 C   0  0  0  0  0  0  0  0  0  0  0  0
   21.6446   -7.3569  -13.4570 O   0  0  0  0  0  0  0  0  0  0  0  0
   21.3135   -6.5300  -15.5587 O   0  0  0  0  0  0  0  0  0  0  0  0
  2  1  1  6
  3  2  1  0
  3  4  1  0
  5  2  1  0
  6  5  2  0
  7  5  1  0
  8  9  1  1
  8  7  1  0
 10  9  1  0
 11 10  2  0
 12 20  1  0
 12  8  1  0
 13 12  2  0
 14 10  1  0
 15 16  1  0
 16 17  1  0
 17 18  1  6
 19 21  1  0
 19 17  1  0
 19 20  1  6
 21 23  1  0
 22 21  2  0
M  END
$$$$
