CDI.pdb
     RDKit          3D

 23 22  0  0  1  0  0  0  0  0999 V2000
   29.0988  -20.8325  -16.2137 N   0  0  0  0  0  0  0  0  0  0  0  0
   28.2713  -20.1537  -15.2588 C   0  0  1  0  0  0  0  0  0  0  0  0
   27.4912  -19.0816  -15.9929 C   0  0  0  0  0  0  0  0  0  0  0  0
   28.5987  -17.8629  -16.7545 S   0  0  0  0  0  0  0  0  0  0  0  0
   27.2665  -21.0482  -14.6314 C   0  0  0  0  0  0  0  0  0  0  0  0
   27.5846  -22.2410  -14.4147 O   0  0  0  0  0  0  0  0  0  0  0  0
   25.9862  -20.5871  -14.2822 N   0  0  0  0  0  0  0  0  0  0  0  0
   25.2858  -21.0182  -13.0704 C   0  0  1  0  0  0  0  0  0  0  0  0
   26.1908  -20.6387  -11.9390 C   0  0  0  0  0  0  0  0  0  0  0  0
   25.6812  -21.1334  -10.6559 C   0  0  0  0  0  0  0  0  0  0  0  0
   24.4521  -21.1157  -10.4299 O   0  0  0  0  0  0  0  0  0  0  0  0
   23.9645  -20.3926  -13.0945 C   0  0  0  0  0  0  0  0  0  0  0  0
   23.8933  -19.1339  -12.8673 O   0  0  0  0  0  0  0  0  0  0  0  0
   26.5391  -21.6178   -9.6964 O   0  0  0  0  0  0  0  0  0  0  0  0
   20.6967  -18.5145  -16.4771 C   0  0  0  0  0  0  0  0  0  0  0  0
   20.2378  -19.8267  -15.9349 C   0  0  0  0  0  0  0  0  0  0  0  0
   21.4183  -20.6080  -15.3691 C   0  0  2  0  0  0  0  0  0  0  0  0
   21.1118  -22.0761  -15.5724 C   0  0  0  0  0  0  0  0  0  0  0  0
   21.5997  -20.3312  -13.8912 C   0  0  2  0  0  0  0  0  0  0  0  0
   22.7248  -21.0593  -13.3556 N   0  0  0  0  0  0  0  0  0  0  0  0
   20.3310  -20.6942  -13.2237 C   0  0  0  0  0  0  0  0  0  0  0  0
   19.2473  -20.0868  -13.4429 O   0  0  0  0  0  0  0  0  0  0  0  0
   20.3444  -21.7462  -12.3233 O   0  0  0  0  0  0  0  0  0  0  0  0
  2  1  1  6
  3  2  1  0
  3  4  1  0
  5  2  1  0
  6  5  2  0
  7  5  1  0
  8  9  1  1
  8  7  1  0
 10  9  1  0
 11 10  2  0
 12 20  1  0
 12  8  1  0
 13 12  2  0
 14 10  1  0
 15 16  1  0
 16 17  1  0
 17 18  1  1
 19 21  1  0
 19 17  1  0
 19 20  1  1
 21 23  1  0
 22 21  2  0
M  END
$$$$
