DGD.pdb
     RDKit          3D

 21 20  0  0  1  0  0  0  0  0999 V2000
   19.6166  -11.6343  -17.4821 N   0  0  0  0  0  0  0  0  0  0  0  0
   18.8037  -11.5982  -16.3013 C   0  0  1  0  0  0  0  0  0  0  0  0
   18.8069  -12.9634  -15.6099 C   0  0  0  0  0  0  0  0  0  0  0  0
   17.6908  -13.7471  -16.2346 C   0  0  0  0  0  0  0  0  0  0  0  0
   16.8933  -13.2211  -17.0403 O   0  0  0  0  0  0  0  0  0  0  0  0
   19.3056  -10.5401  -15.3882 C   0  0  0  0  0  0  0  0  0  0  0  0
   18.7674  -10.2351  -14.3160 O   0  0  0  0  0  0  0  0  0  0  0  0
   17.5306  -15.0839  -15.9193 O   0  0  0  0  0  0  0  0  0  0  0  0
   20.4817   -9.8475  -15.7938 N   0  0  0  0  0  0  0  0  0  0  0  0
   21.1317   -8.9565  -14.8757 C   0  0  0  0  0  0  0  0  0  0  0  0
   21.0639   -7.5397  -15.3174 C   0  0  0  0  0  0  0  0  0  0  0  0
   21.1075   -7.2464  -16.5386 O   0  0  0  0  0  0  0  0  0  0  0  0
   20.9489   -6.5061  -14.3515 N   0  0  0  0  0  0  0  0  0  0  0  0
   20.8851   -5.0929  -14.6875 C   0  0  1  0  0  0  0  0  0  0  0  0
   19.8430   -4.3622  -13.9285 C   0  0  0  0  0  0  0  0  0  0  0  0
   19.8424   -2.9320  -14.2907 C   0  0  0  0  0  0  0  0  0  0  0  0
   20.2192   -2.4509  -15.3837 O   0  0  0  0  0  0  0  0  0  0  0  0
   22.1985   -4.5066  -14.3845 C   0  0  0  0  0  0  0  0  0  0  0  0
   22.5265   -3.3694  -14.7770 O   0  0  0  0  0  0  0  0  0  0  0  0
   19.3833   -1.9843  -13.3484 O   0  0  0  0  0  0  0  0  0  0  0  0
   23.1105   -5.2284  -13.6407 O   0  0  0  0  0  0  0  0  0  0  0  0
  2  3  1  0
  2  1  1  6
  3  4  1  0
  4  8  1  0
  4  5  2  0
  6  2  1  0
  7  6  2  0
  9  6  1  0
 10  9  1  0
 11 10  1  0
 11 13  1  0
 12 11  2  0
 14 13  1  0
 14 18  1  0
 14 15  1  1
 16 15  1  0
 16 17  2  0
 18 21  1  0
 19 18  2  0
 20 16  1  0
M  END
$$$$
