DGD.pdb
     RDKit          3D

 21 20  0  0  1  0  0  0  0  0999 V2000
   18.2885  -11.3792  -14.8412 N   0  0  0  0  0  0  0  0  0  0  0  0
   17.5016  -11.2079  -16.0278 C   0  0  1  0  0  0  0  0  0  0  0  0
   16.0116  -11.3329  -15.7021 C   0  0  0  0  0  0  0  0  0  0  0  0
   15.7752  -12.7813  -15.3913 C   0  0  0  0  0  0  0  0  0  0  0  0
   16.2311  -13.3108  -14.3552 O   0  0  0  0  0  0  0  0  0  0  0  0
   17.8030   -9.8862  -16.6339 C   0  0  0  0  0  0  0  0  0  0  0  0
   17.6625   -9.6247  -17.8356 O   0  0  0  0  0  0  0  0  0  0  0  0
   15.0368  -13.5588  -16.2644 O   0  0  0  0  0  0  0  0  0  0  0  0
   18.2822   -8.8723  -15.7565 N   0  0  0  0  0  0  0  0  0  0  0  0
   18.5234   -7.5519  -16.2639 C   0  0  0  0  0  0  0  0  0  0  0  0
   19.0201   -6.6240  -15.2153 C   0  0  0  0  0  0  0  0  0  0  0  0
   18.5082   -6.6210  -14.0676 O   0  0  0  0  0  0  0  0  0  0  0  0
   20.0831   -5.7315  -15.5116 N   0  0  0  0  0  0  0  0  0  0  0  0
   20.8068   -4.9770  -14.5010 C   0  0  1  0  0  0  0  0  0  0  0  0
   22.2424   -5.3367  -14.4252 C   0  0  0  0  0  0  0  0  0  0  0  0
   22.4041   -6.7558  -14.0553 C   0  0  0  0  0  0  0  0  0  0  0  0
   22.2550   -7.2377  -12.9092 O   0  0  0  0  0  0  0  0  0  0  0  0
   20.6871   -3.5524  -14.8427 C   0  0  0  0  0  0  0  0  0  0  0  0
   20.2729   -3.1667  -15.9537 O   0  0  0  0  0  0  0  0  0  0  0  0
   22.7593   -7.6904  -15.0538 O   0  0  0  0  0  0  0  0  0  0  0  0
   21.0418   -2.5971  -13.9111 O   0  0  0  0  0  0  0  0  0  0  0  0
  2  3  1  0
  2  1  1  1
  3  4  1  0
  4  8  1  0
  4  5  2  0
  6  2  1  0
  7  6  2  0
  9  6  1  0
 10  9  1  0
 11 10  1  0
 11 13  1  0
 12 11  2  0
 14 13  1  0
 14 18  1  0
 14 15  1  6
 16 15  1  0
 16 17  2  0
 18 21  1  0
 19 18  2  0
 20 16  1  0
M  END
$$$$
