DGD.pdb
     RDKit          3D

 21 20  0  0  1  0  0  0  0  0999 V2000
   18.5799  -14.5477  -17.8732 N   0  0  0  0  0  0  0  0  0  0  0  0
   18.9751  -14.9789  -16.5639 C   0  0  1  0  0  0  0  0  0  0  0  0
   20.2475  -15.8254  -16.6428 C   0  0  0  0  0  0  0  0  0  0  0  0
   19.8096  -17.1927  -17.0778 C   0  0  0  0  0  0  0  0  0  0  0  0
   20.1828  -17.6839  -18.1647 O   0  0  0  0  0  0  0  0  0  0  0  0
   19.1801  -13.7929  -15.6942 C   0  0  0  0  0  0  0  0  0  0  0  0
   19.6473  -13.8436  -14.5490 O   0  0  0  0  0  0  0  0  0  0  0  0
   18.9736  -17.9364  -16.2654 O   0  0  0  0  0  0  0  0  0  0  0  0
   18.8084  -12.5291  -16.2345 N   0  0  0  0  0  0  0  0  0  0  0  0
   19.0664  -11.3337  -15.4837 C   0  0  0  0  0  0  0  0  0  0  0  0
   18.6607  -10.1063  -16.2158 C   0  0  0  0  0  0  0  0  0  0  0  0
   18.2828  -10.1695  -17.4127 O   0  0  0  0  0  0  0  0  0  0  0  0
   18.6999   -8.8492  -15.5581 N   0  0  0  0  0  0  0  0  0  0  0  0
   18.2645   -7.6050  -16.1717 C   0  0  1  0  0  0  0  0  0  0  0  0
   17.6648   -6.6582  -15.2021 C   0  0  0  0  0  0  0  0  0  0  0  0
   17.1970   -5.4384  -15.8876 C   0  0  0  0  0  0  0  0  0  0  0  0
   16.4674   -5.4014  -16.9047 O   0  0  0  0  0  0  0  0  0  0  0  0
   19.4436   -6.9787  -16.7865 C   0  0  0  0  0  0  0  0  0  0  0  0
   19.3581   -5.9708  -17.5155 O   0  0  0  0  0  0  0  0  0  0  0  0
   17.5837   -4.1759  -15.3845 O   0  0  0  0  0  0  0  0  0  0  0  0
   20.6954   -7.5142  -16.5577 O   0  0  0  0  0  0  0  0  0  0  0  0
  2  3  1  0
  2  1  1  6
  3  4  1  0
  4  8  1  0
  4  5  2  0
  6  2  1  0
  7  6  2  0
  9  6  1  0
 10  9  1  0
 11 10  1  0
 11 13  1  0
 12 11  2  0
 14 13  1  0
 14 18  1  0
 14 15  1  1
 16 15  1  0
 16 17  2  0
 18 21  1  0
 19 18  2  0
 20 16  1  0
M  END
$$$$
