DGD.pdb
     RDKit          3D

 21 20  0  0  1  0  0  0  0  0999 V2000
   19.3060  -11.1320  -16.1831 N   0  0  0  0  0  0  0  0  0  0  0  0
   17.9289  -10.9147  -15.8473 C   0  0  1  0  0  0  0  0  0  0  0  0
   17.5208  -11.8025  -14.6696 C   0  0  0  0  0  0  0  0  0  0  0  0
   17.3103  -13.1746  -15.2381 C   0  0  0  0  0  0  0  0  0  0  0  0
   18.1868  -14.0610  -15.1490 O   0  0  0  0  0  0  0  0  0  0  0  0
   17.7189   -9.4798  -15.5276 C   0  0  0  0  0  0  0  0  0  0  0  0
   16.6369   -9.0000  -15.1651 O   0  0  0  0  0  0  0  0  0  0  0  0
   16.1225  -13.4776  -15.8779 O   0  0  0  0  0  0  0  0  0  0  0  0
   18.8486   -8.6224  -15.6535 N   0  0  0  0  0  0  0  0  0  0  0  0
   18.7240   -7.2323  -15.3200 C   0  0  0  0  0  0  0  0  0  0  0  0
   19.9037   -6.7202  -14.5762 C   0  0  0  0  0  0  0  0  0  0  0  0
   20.4245   -7.3984  -13.6553 O   0  0  0  0  0  0  0  0  0  0  0  0
   20.4487   -5.4524  -14.9079 N   0  0  0  0  0  0  0  0  0  0  0  0
   21.6795   -4.9301  -14.3364 C   0  0  1  0  0  0  0  0  0  0  0  0
   22.7058   -4.6146  -15.3578 C   0  0  0  0  0  0  0  0  0  0  0  0
   23.0414   -5.8157  -16.1462 C   0  0  0  0  0  0  0  0  0  0  0  0
   23.4586   -6.9032  -15.6864 O   0  0  0  0  0  0  0  0  0  0  0  0
   21.3403   -3.7025  -13.6027 C   0  0  0  0  0  0  0  0  0  0  0  0
   22.1550   -3.1277  -12.8539 O   0  0  0  0  0  0  0  0  0  0  0  0
   22.8937   -5.7794  -17.5510 O   0  0  0  0  0  0  0  0  0  0  0  0
   20.0798   -3.1556  -13.7375 O   0  0  0  0  0  0  0  0  0  0  0  0
  2  3  1  0
  2  1  1  1
  3  4  1  0
  4  8  1  0
  4  5  2  0
  6  2  1  0
  7  6  2  0
  9  6  1  0
 10  9  1  0
 11 10  1  0
 11 13  1  0
 12 11  2  0
 14 13  1  0
 14 18  1  0
 14 15  1  6
 16 15  1  0
 16 17  2  0
 18 21  1  0
 19 18  2  0
 20 16  1  0
M  END
$$$$
