DGD.pdb
     RDKit          3D

 21 20  0  0  1  0  0  0  0  0999 V2000
   27.7196  -32.9273   -1.8319 N   0  0  0  0  0  0  0  0  0  0  0  0
   26.2892  -33.0220   -1.7935 C   0  0  1  0  0  0  0  0  0  0  0  0
   25.8069  -34.1709   -2.6818 C   0  0  0  0  0  0  0  0  0  0  0  0
   25.5148  -33.5642   -4.0223 C   0  0  0  0  0  0  0  0  0  0  0  0
   25.6997  -32.3484   -4.2442 O   0  0  0  0  0  0  0  0  0  0  0  0
   25.8443  -33.2140   -0.3898 C   0  0  0  0  0  0  0  0  0  0  0  0
   24.6728  -33.0915   -0.0094 O   0  0  0  0  0  0  0  0  0  0  0  0
   25.0293  -34.3592   -5.0443 O   0  0  0  0  0  0  0  0  0  0  0  0
   26.8474  -33.5608    0.5594 N   0  0  0  0  0  0  0  0  0  0  0  0
   26.4790  -33.7947    1.9264 C   0  0  0  0  0  0  0  0  0  0  0  0
   27.3963  -33.1235    2.8831 C   0  0  0  0  0  0  0  0  0  0  0  0
   28.3089  -32.3644    2.4706 O   0  0  0  0  0  0  0  0  0  0  0  0
   27.2415  -33.3412    4.2770 N   0  0  0  0  0  0  0  0  0  0  0  0
   28.0622  -32.6959    5.2891 C   0  0  1  0  0  0  0  0  0  0  0  0
   27.4534  -32.7320    6.6398 C   0  0  0  0  0  0  0  0  0  0  0  0
   28.2500  -31.9335    7.5908 C   0  0  0  0  0  0  0  0  0  0  0  0
   29.2774  -31.2727    7.3151 O   0  0  0  0  0  0  0  0  0  0  0  0
   29.3526  -33.3987    5.3262 C   0  0  0  0  0  0  0  0  0  0  0  0
   30.3285  -32.9653    5.9700 O   0  0  0  0  0  0  0  0  0  0  0  0
   27.8535  -31.8820    8.9462 O   0  0  0  0  0  0  0  0  0  0  0  0
   29.5039  -34.5806    4.6288 O   0  0  0  0  0  0  0  0  0  0  0  0
  2  3  1  0
  2  1  1  1
  3  4  1  0
  4  8  1  0
  4  5  2  0
  6  2  1  0
  7  6  2  0
  9  6  1  0
 10  9  1  0
 11 10  1  0
 11 13  1  0
 12 11  2  0
 14 13  1  0
 14 18  1  0
 14 15  1  1
 16 15  1  0
 16 17  2  0
 18 21  1  0
 19 18  2  0
 20 16  1  0
M  END
$$$$
