DGD.pdb
     RDKit          3D

 21 20  0  0  1  0  0  0  0  0999 V2000
   16.2004  -11.8110  -16.1629 N   0  0  0  0  0  0  0  0  0  0  0  0
   17.3270  -12.3767  -15.4795 C   0  0  1  0  0  0  0  0  0  0  0  0
   17.5969  -13.7970  -15.9814 C   0  0  0  0  0  0  0  0  0  0  0  0
   16.4906  -14.6482  -15.4318 C   0  0  0  0  0  0  0  0  0  0  0  0
   16.0794  -14.5096  -14.2598 O   0  0  0  0  0  0  0  0  0  0  0  0
   18.5145  -11.5082  -15.6815 C   0  0  0  0  0  0  0  0  0  0  0  0
   19.6446  -11.7643  -15.2462 O   0  0  0  0  0  0  0  0  0  0  0  0
   15.9044  -15.6120  -16.2314 O   0  0  0  0  0  0  0  0  0  0  0  0
   18.3147  -10.3114  -16.4265 N   0  0  0  0  0  0  0  0  0  0  0  0
   19.4143   -9.4126  -16.6319 C   0  0  0  0  0  0  0  0  0  0  0  0
   19.3886   -8.2620  -15.6925 C   0  0  0  0  0  0  0  0  0  0  0  0
   18.3531   -7.9974  -15.0315 O   0  0  0  0  0  0  0  0  0  0  0  0
   20.5445   -7.4526  -15.5392 N   0  0  0  0  0  0  0  0  0  0  0  0
   20.5997   -6.2816  -14.6791 C   0  0  1  0  0  0  0  0  0  0  0  0
   21.9788   -5.7833  -14.4647 C   0  0  0  0  0  0  0  0  0  0  0  0
   21.9767   -4.6225  -13.5541 C   0  0  0  0  0  0  0  0  0  0  0  0
   20.9662   -4.1064  -13.0242 O   0  0  0  0  0  0  0  0  0  0  0  0
   19.8023   -5.2253  -15.3184 C   0  0  0  0  0  0  0  0  0  0  0  0
   19.2801   -4.2989  -14.6673 O   0  0  0  0  0  0  0  0  0  0  0  0
   23.2044   -4.0061  -13.2231 O   0  0  0  0  0  0  0  0  0  0  0  0
   19.6168   -5.2466  -16.6864 O   0  0  0  0  0  0  0  0  0  0  0  0
  2  3  1  0
  2  1  1  6
  3  4  1  0
  4  8  1  0
  4  5  2  0
  6  2  1  0
  7  6  2  0
  9  6  1  0
 10  9  1  0
 11 10  1  0
 11 13  1  0
 12 11  2  0
 14 13  1  0
 14 18  1  0
 14 15  1  6
 16 15  1  0
 16 17  2  0
 18 21  1  0
 19 18  2  0
 20 16  1  0
M  END
$$$$
