NPL.pdb
     RDKit          3D

 24 24  0  0  1  0  0  0  0  0999 V2000
   10.9020  -14.2914   16.9751 N   0  0  0  0  0  0  0  0  0  0  0  0
   11.4541  -13.9826   18.2390 C   0  0  0  0  0  0  0  0  0  0  0  0
   12.6989  -13.8649   18.3310 O   0  0  0  0  0  0  0  0  0  0  0  0
   10.6446  -13.7864   19.4812 C   0  0  0  0  0  0  0  0  0  0  0  0
    9.1947  -14.0421   19.1539 C   0  0  2  0  0  0  0  0  0  0  0  0
    8.7671  -12.8986   18.3355 N   0  0  0  0  0  0  0  0  0  0  0  0
    8.3210  -14.2085   20.3292 C   0  0  0  0  0  0  0  0  0  0  0  0
    7.6291  -13.2476   20.7601 O   0  0  0  0  0  0  0  0  0  0  0  0
    8.2310  -15.4449   20.9980 N   0  0  0  0  0  0  0  0  0  0  0  0
    8.9382  -16.6629   20.6176 C   0  0  0  0  0  0  0  0  0  0  0  0
    7.9719  -17.7908   20.9616 C   0  0  0  0  0  0  0  0  0  0  0  0
    6.9084  -17.2010   21.8552 C   0  0  0  0  0  0  0  0  0  0  0  0
    7.4068  -15.7718   22.1187 C   0  0  1  0  0  0  0  0  0  0  0  0
    8.0504  -15.6972   23.4594 C   0  0  0  0  0  0  0  0  0  0  0  0
    9.1316  -16.3253   23.5845 O   0  0  0  0  0  0  0  0  0  0  0  0
    7.3869  -11.6769   25.5468 C   0  0  0  0  0  0  0  0  0  0  0  0
    6.5730  -12.7172   26.2392 C   0  0  2  0  0  0  0  0  0  0  0  0
    5.7798  -11.9981   27.3596 C   0  0  0  0  0  0  0  0  0  0  0  0
    7.3727  -13.8322   26.7843 C   0  0  0  0  0  0  0  0  0  0  0  0
    8.0351  -14.7844   25.8689 C   0  0  2  0  0  0  0  0  0  0  0  0
    7.5396  -14.9868   24.5672 N   0  0  0  0  0  0  0  0  0  0  0  0
    8.5217  -15.9686   26.6359 C   0  0  0  0  0  0  0  0  0  0  0  0
    9.4164  -15.6901   27.6798 O   0  0  0  0  0  0  0  0  0  0  0  0
    8.2150  -17.1145   26.4344 O   0  0  0  0  0  0  0  0  0  0  0  0
  1  2  1  0
  2  3  2  0
  4  2  1  0
  5  4  1  0
  5  6  1  1
  7  5  1  0
  7  8  2  0
  9  7  1  0
 10  9  1  0
 11 12  1  0
 11 10  1  0
 12 13  1  0
 13  9  1  0
 14 21  1  0
 13 14  1  1
 15 14  2  0
 17 16  1  1
 18 17  1  0
 19 17  1  0
 20 21  1  0
 20 19  1  1
 22 20  1  0
 23 22  1  0
 24 22  2  0
M  END
$$$$
