NPL.pdb
     RDKit          3D

 24 24  0  0  1  0  0  0  0  0999 V2000
    6.3264  -18.5906   24.9771 N   0  0  0  0  0  0  0  0  0  0  0  0
    6.0587  -18.2963   23.6209 C   0  0  0  0  0  0  0  0  0  0  0  0
    5.5352  -17.1911   23.3447 O   0  0  0  0  0  0  0  0  0  0  0  0
    6.3611  -19.2238   22.4872 C   0  0  0  0  0  0  0  0  0  0  0  0
    6.8123  -18.4039   21.3045 C   0  0  2  0  0  0  0  0  0  0  0  0
    7.0583  -19.3705   20.2249 N   0  0  0  0  0  0  0  0  0  0  0  0
    8.0040  -17.5731   21.5532 C   0  0  0  0  0  0  0  0  0  0  0  0
    9.1457  -18.0962   21.6546 O   0  0  0  0  0  0  0  0  0  0  0  0
    7.9005  -16.1739   21.6782 N   0  0  0  0  0  0  0  0  0  0  0  0
    6.6601  -15.4096   21.6005 C   0  0  0  0  0  0  0  0  0  0  0  0
    7.0591  -14.0974   20.9349 C   0  0  0  0  0  0  0  0  0  0  0  0
    8.5650  -14.0167   20.9905 C   0  0  0  0  0  0  0  0  0  0  0  0
    8.9630  -15.2323   21.8417 C   0  0  1  0  0  0  0  0  0  0  0  0
    9.2586  -14.8014   23.2360 C   0  0  0  0  0  0  0  0  0  0  0  0
   10.2718  -14.0724   23.3817 O   0  0  0  0  0  0  0  0  0  0  0  0
    7.4093  -11.6765   26.0015 C   0  0  0  0  0  0  0  0  0  0  0  0
    6.7577  -12.9979   25.7715 C   0  0  2  0  0  0  0  0  0  0  0  0
    5.3018  -12.8796   26.2892 C   0  0  0  0  0  0  0  0  0  0  0  0
    7.4607  -14.1271   26.4123 C   0  0  0  0  0  0  0  0  0  0  0  0
    8.5967  -14.7767   25.7261 C   0  0  2  0  0  0  0  0  0  0  0  0
    8.4960  -15.1482   24.3722 N   0  0  0  0  0  0  0  0  0  0  0  0
    9.2940  -15.7021   26.6668 C   0  0  0  0  0  0  0  0  0  0  0  0
    9.7015  -16.9287   26.1214 O   0  0  0  0  0  0  0  0  0  0  0  0
    9.5279  -15.4847   27.8268 O   0  0  0  0  0  0  0  0  0  0  0  0
  1  2  1  0
  2  3  2  0
  4  2  1  0
  5  4  1  0
  5  6  1  6
  7  5  1  0
  7  8  2  0
  9  7  1  0
 10  9  1  0
 11 12  1  0
 11 10  1  0
 12 13  1  0
 13  9  1  0
 14 21  1  0
 13 14  1  1
 15 14  2  0
 17 16  1  1
 18 17  1  0
 19 17  1  0
 20 21  1  0
 20 19  1  1
 22 20  1  0
 23 22  1  0
 24 22  2  0
M  END
$$$$
