NPL.pdb
     RDKit          3D

 24 24  0  0  1  0  0  0  0  0999 V2000
    8.9446  -19.1580   20.4475 N   0  0  0  0  0  0  0  0  0  0  0  0
    7.6168  -18.8307   20.0905 C   0  0  0  0  0  0  0  0  0  0  0  0
    6.6802  -19.3835   20.7142 O   0  0  0  0  0  0  0  0  0  0  0  0
    7.2547  -17.8620   19.0100 C   0  0  0  0  0  0  0  0  0  0  0  0
    8.5069  -17.1466   18.5682 C   0  0  2  0  0  0  0  0  0  0  0  0
    9.4469  -18.2046   18.1718 N   0  0  0  0  0  0  0  0  0  0  0  0
    9.1016  -16.2648   19.5885 C   0  0  0  0  0  0  0  0  0  0  0  0
   10.2049  -16.5513   20.1253 O   0  0  0  0  0  0  0  0  0  0  0  0
    8.4573  -15.0770   19.9864 N   0  0  0  0  0  0  0  0  0  0  0  0
    7.2600  -14.5188   19.3672 C   0  0  0  0  0  0  0  0  0  0  0  0
    7.4468  -13.0088   19.4638 C   0  0  0  0  0  0  0  0  0  0  0  0
    8.5606  -12.7662   20.4526 C   0  0  0  0  0  0  0  0  0  0  0  0
    8.8634  -14.1657   21.0095 C   0  0  1  0  0  0  0  0  0  0  0  0
    8.2183  -14.3332   22.3411 C   0  0  0  0  0  0  0  0  0  0  0  0
    7.0173  -14.7028   22.3262 O   0  0  0  0  0  0  0  0  0  0  0  0
    5.5168  -12.2879   26.8180 C   0  0  0  0  0  0  0  0  0  0  0  0
    6.7580  -13.0964   26.6466 C   0  0  2  0  0  0  0  0  0  0  0  0
    7.8478  -12.4443   27.5348 C   0  0  0  0  0  0  0  0  0  0  0  0
    7.2081  -13.2047   25.2446 C   0  0  0  0  0  0  0  0  0  0  0  0
    8.3555  -14.0699   24.9006 C   0  0  2  0  0  0  0  0  0  0  0  0
    8.8504  -14.1105   23.5836 N   0  0  0  0  0  0  0  0  0  0  0  0
    8.2747  -15.3469   25.6688 C   0  0  0  0  0  0  0  0  0  0  0  0
    9.2901  -15.5516   26.6149 O   0  0  0  0  0  0  0  0  0  0  0  0
    7.4289  -16.1934   25.5437 O   0  0  0  0  0  0  0  0  0  0  0  0
  1  2  1  0
  2  3  2  0
  4  2  1  0
  5  4  1  0
  5  6  1  1
  7  5  1  0
  7  8  2  0
  9  7  1  0
 10  9  1  0
 11 12  1  0
 11 10  1  0
 12 13  1  0
 13  9  1  0
 14 21  1  0
 13 14  1  1
 15 14  2  0
 17 16  1  6
 18 17  1  0
 19 17  1  0
 20 21  1  0
 20 19  1  6
 22 20  1  0
 23 22  1  0
 24 22  2  0
M  END
$$$$
