NPL.pdb
     RDKit          3D

 24 24  0  0  1  0  0  0  0  0999 V2000
   10.0851  -12.5640   20.0458 N   0  0  0  0  0  0  0  0  0  0  0  0
   10.3848  -13.4517   18.9876 C   0  0  0  0  0  0  0  0  0  0  0  0
   10.5542  -12.9737   17.8409 O   0  0  0  0  0  0  0  0  0  0  0  0
   10.5133  -14.9331   19.1481 C   0  0  0  0  0  0  0  0  0  0  0  0
    9.1435  -15.5502   19.0154 C   0  0  2  0  0  0  0  0  0  0  0  0
    8.4725  -14.7959   17.9472 N   0  0  0  0  0  0  0  0  0  0  0  0
    8.3440  -15.5401   20.2535 C   0  0  0  0  0  0  0  0  0  0  0  0
    7.4856  -14.6412   20.4602 O   0  0  0  0  0  0  0  0  0  0  0  0
    8.5128  -16.5362   21.2351 N   0  0  0  0  0  0  0  0  0  0  0  0
    9.4497  -17.6515   21.1524 C   0  0  0  0  0  0  0  0  0  0  0  0
    8.7358  -18.8046   21.8488 C   0  0  0  0  0  0  0  0  0  0  0  0
    7.5820  -18.2074   22.6166 C   0  0  0  0  0  0  0  0  0  0  0  0
    7.7816  -16.6929   22.4528 C   0  0  1  0  0  0  0  0  0  0  0  0
    8.4076  -16.1273   23.6798 C   0  0  0  0  0  0  0  0  0  0  0  0
    9.6467  -16.3030   23.7943 O   0  0  0  0  0  0  0  0  0  0  0  0
    7.6629  -11.8529   25.2512 C   0  0  0  0  0  0  0  0  0  0  0  0
    6.6894  -12.7975   25.8708 C   0  0  2  0  0  0  0  0  0  0  0  0
    5.7553  -11.9544   26.7753 C   0  0  0  0  0  0  0  0  0  0  0  0
    7.3248  -13.8906   26.6333 C   0  0  0  0  0  0  0  0  0  0  0  0
    8.1379  -14.9062   25.9326 C   0  0  2  0  0  0  0  0  0  0  0  0
    7.7194  -15.4262   24.6935 N   0  0  0  0  0  0  0  0  0  0  0  0
    8.7475  -15.8392   26.9252 C   0  0  0  0  0  0  0  0  0  0  0  0
    9.5595  -15.2420   27.9009 O   0  0  0  0  0  0  0  0  0  0  0  0
    8.6013  -17.0332   26.9537 O   0  0  0  0  0  0  0  0  0  0  0  0
  1  2  1  0
  2  3  2  0
  4  2  1  0
  5  4  1  0
  5  6  1  6
  7  5  1  0
  7  8  2  0
  9  7  1  0
 10  9  1  0
 11 12  1  0
 11 10  1  0
 12 13  1  0
 13  9  1  0
 14 21  1  0
 13 14  1  1
 15 14  2  0
 17 16  1  1
 18 17  1  0
 19 17  1  0
 20 21  1  0
 20 19  1  1
 22 20  1  0
 23 22  1  0
 24 22  2  0
M  END
$$$$
