NPL.pdb
     RDKit          3D

 24 24  0  0  1  0  0  0  0  0999 V2000
   11.9589  -19.0299   21.3417 N   0  0  0  0  0  0  0  0  0  0  0  0
   12.1566  -18.4812   20.0543 C   0  0  0  0  0  0  0  0  0  0  0  0
   13.3326  -18.2860   19.6657 O   0  0  0  0  0  0  0  0  0  0  0  0
   11.0473  -18.1159   19.1201 C   0  0  0  0  0  0  0  0  0  0  0  0
    9.8182  -17.8007   19.9355 C   0  0  2  0  0  0  0  0  0  0  0  0
    8.7322  -17.6252   18.9609 N   0  0  0  0  0  0  0  0  0  0  0  0
    9.9460  -16.6174   20.8049 C   0  0  0  0  0  0  0  0  0  0  0  0
   11.0264  -16.3709   21.4046 O   0  0  0  0  0  0  0  0  0  0  0  0
    8.8685  -15.7281   20.9840 N   0  0  0  0  0  0  0  0  0  0  0  0
    7.6024  -15.7807   20.2609 C   0  0  0  0  0  0  0  0  0  0  0  0
    7.1916  -14.3213   20.1002 C   0  0  0  0  0  0  0  0  0  0  0  0
    8.0463  -13.5173   21.0491 C   0  0  0  0  0  0  0  0  0  0  0  0
    8.8137  -14.5864   21.8418 C   0  0  1  0  0  0  0  0  0  0  0  0
    8.1769  -14.7868   23.1728 C   0  0  0  0  0  0  0  0  0  0  0  0
    7.2006  -15.5777   23.2003 O   0  0  0  0  0  0  0  0  0  0  0  0
    7.6257  -11.5412   26.8407 C   0  0  0  0  0  0  0  0  0  0  0  0
    6.7297  -12.5437   26.1957 C   0  0  2  0  0  0  0  0  0  0  0  0
    5.3034  -12.2967   26.7491 C   0  0  0  0  0  0  0  0  0  0  0  0
    7.1499  -13.9425   26.4115 C   0  0  0  0  0  0  0  0  0  0  0  0
    8.3470  -14.4700   25.7242 C   0  0  2  0  0  0  0  0  0  0  0  0
    8.5872  -14.1643   24.3715 N   0  0  0  0  0  0  0  0  0  0  0  0
    8.6360  -15.8540   26.2020 C   0  0  0  0  0  0  0  0  0  0  0  0
    9.0171  -16.7712   25.2112 O   0  0  0  0  0  0  0  0  0  0  0  0
    8.5693  -16.2357   27.3410 O   0  0  0  0  0  0  0  0  0  0  0  0
  1  2  1  0
  2  3  2  0
  4  2  1  0
  5  4  1  0
  5  6  1  6
  7  5  1  0
  7  8  2  0
  9  7  1  0
 10  9  1  0
 11 12  1  0
 11 10  1  0
 12 13  1  0
 13  9  1  0
 14 21  1  0
 13 14  1  1
 15 14  2  0
 17 16  1  1
 18 17  1  0
 19 17  1  0
 20 21  1  0
 20 19  1  6
 22 20  1  0
 23 22  1  0
 24 22  2  0
M  END
$$$$
