NPL.pdb
     RDKit          3D

 24 24  0  0  1  0  0  0  0  0999 V2000
   12.5845  -17.7143   18.3545 N   0  0  0  0  0  0  0  0  0  0  0  0
   13.1330  -16.7047   19.1776 C   0  0  0  0  0  0  0  0  0  0  0  0
   14.3098  -16.3326   18.9574 O   0  0  0  0  0  0  0  0  0  0  0  0
   12.3960  -16.0479   20.3011 C   0  0  0  0  0  0  0  0  0  0  0  0
   11.4111  -15.0652   19.7187 C   0  0  2  0  0  0  0  0  0  0  0  0
   12.2241  -14.0518   19.0315 N   0  0  0  0  0  0  0  0  0  0  0  0
   10.5106  -14.4421   20.7052 C   0  0  0  0  0  0  0  0  0  0  0  0
   10.8878  -13.4532   21.3890 O   0  0  0  0  0  0  0  0  0  0  0  0
    9.2046  -14.9298   20.9061 N   0  0  0  0  0  0  0  0  0  0  0  0
    8.6016  -16.0469   20.1870 C   0  0  0  0  0  0  0  0  0  0  0  0
    7.1301  -15.6697   20.0569 C   0  0  0  0  0  0  0  0  0  0  0  0
    6.8812  -14.5333   21.0182 C   0  0  0  0  0  0  0  0  0  0  0  0
    8.2059  -14.4105   21.7866 C   0  0  1  0  0  0  0  0  0  0  0  0
    8.0854  -15.0707   23.1158 C   0  0  0  0  0  0  0  0  0  0  0  0
    8.3073  -16.3075   23.1361 O   0  0  0  0  0  0  0  0  0  0  0  0
    7.4515  -11.7216   27.0275 C   0  0  0  0  0  0  0  0  0  0  0  0
    6.5233  -12.7021   26.3945 C   0  0  2  0  0  0  0  0  0  0  0  0
    5.1012  -12.3824   26.9208 C   0  0  0  0  0  0  0  0  0  0  0  0
    6.8818  -14.1112   26.6511 C   0  0  0  0  0  0  0  0  0  0  0  0
    7.6564  -14.8720   25.6487 C   0  0  2  0  0  0  0  0  0  0  0  0
    7.7481  -14.4162   24.3202 N   0  0  0  0  0  0  0  0  0  0  0  0
    7.4932  -16.3361   25.8878 C   0  0  0  0  0  0  0  0  0  0  0  0
    8.2440  -16.8655   26.9479 O   0  0  0  0  0  0  0  0  0  0  0  0
    6.7866  -17.0794   25.2586 O   0  0  0  0  0  0  0  0  0  0  0  0
  1  2  1  0
  2  3  2  0
  4  2  1  0
  5  4  1  0
  5  6  1  1
  7  5  1  0
  7  8  2  0
  9  7  1  0
 10  9  1  0
 11 12  1  0
 11 10  1  0
 12 13  1  0
 13  9  1  0
 14 21  1  0
 13 14  1  1
 15 14  2  0
 17 16  1  1
 18 17  1  0
 19 17  1  0
 20 21  1  0
 20 19  1  6
 22 20  1  0
 23 22  1  0
 24 22  2  0
M  END
$$$$
