NPL.pdb
     RDKit          3D

 24 24  0  0  1  0  0  0  0  0999 V2000
    8.0496  -19.5519   24.0689 N   0  0  0  0  0  0  0  0  0  0  0  0
    6.7224  -19.0748   24.1613 C   0  0  0  0  0  0  0  0  0  0  0  0
    6.1234  -19.1925   25.2565 O   0  0  0  0  0  0  0  0  0  0  0  0
    5.9818  -18.4349   23.0304 C   0  0  0  0  0  0  0  0  0  0  0  0
    6.9035  -18.3527   21.8395 C   0  0  2  0  0  0  0  0  0  0  0  0
    7.4220  -19.7144   21.6467 N   0  0  0  0  0  0  0  0  0  0  0  0
    8.0037  -17.3822   21.9816 C   0  0  0  0  0  0  0  0  0  0  0  0
    9.1954  -17.7716   22.1076 O   0  0  0  0  0  0  0  0  0  0  0  0
    7.7546  -15.9959   21.9745 N   0  0  0  0  0  0  0  0  0  0  0  0
    6.4429  -15.3754   21.8227 C   0  0  0  0  0  0  0  0  0  0  0  0
    6.7121  -14.0965   21.0378 C   0  0  0  0  0  0  0  0  0  0  0  0
    8.2008  -13.8547   21.0890 C   0  0  0  0  0  0  0  0  0  0  0  0
    8.7121  -14.9378   22.0513 C   0  0  1  0  0  0  0  0  0  0  0  0
    8.9449  -14.3505   23.3997 C   0  0  0  0  0  0  0  0  0  0  0  0
    8.7326  -13.1164   23.5046 O   0  0  0  0  0  0  0  0  0  0  0  0
    8.3048  -11.9628   26.4673 C   0  0  0  0  0  0  0  0  0  0  0  0
    7.4753  -12.9852   25.7670 C   0  0  2  0  0  0  0  0  0  0  0  0
    5.9949  -12.5605   25.9390 C   0  0  0  0  0  0  0  0  0  0  0  0
    7.6942  -14.3623   26.2525 C   0  0  0  0  0  0  0  0  0  0  0  0
    8.9158  -15.0980   25.8653 C   0  0  2  0  0  0  0  0  0  0  0  0
    9.3757  -15.0697   24.5355 N   0  0  0  0  0  0  0  0  0  0  0  0
    8.9898  -16.3861   26.6154 C   0  0  0  0  0  0  0  0  0  0  0  0
    8.9677  -16.2766   28.0138 O   0  0  0  0  0  0  0  0  0  0  0  0
    9.0655  -17.4834   26.1277 O   0  0  0  0  0  0  0  0  0  0  0  0
  1  2  1  0
  2  3  2  0
  4  2  1  0
  5  4  1  0
  5  6  1  1
  7  5  1  0
  7  8  2  0
  9  7  1  0
 10  9  1  0
 11 12  1  0
 11 10  1  0
 12 13  1  0
 13  9  1  0
 14 21  1  0
 13 14  1  1
 15 14  2  0
 17 16  1  1
 18 17  1  0
 19 17  1  0
 20 21  1  0
 20 19  1  6
 22 20  1  0
 23 22  1  0
 24 22  2  0
M  END
$$$$
