NPL.pdb
     RDKit          3D

 24 24  0  0  1  0  0  0  0  0999 V2000
    7.4568  -20.0623   23.4697 N   0  0  0  0  0  0  0  0  0  0  0  0
    6.3075  -19.2870   23.7449 C   0  0  0  0  0  0  0  0  0  0  0  0
    5.8067  -19.3533   24.8924 O   0  0  0  0  0  0  0  0  0  0  0  0
    5.6461  -18.3875   22.7498 C   0  0  0  0  0  0  0  0  0  0  0  0
    6.5178  -18.3083   21.5216 C   0  0  2  0  0  0  0  0  0  0  0  0
    6.8136  -19.7010   21.1569 N   0  0  0  0  0  0  0  0  0  0  0  0
    7.7584  -17.5325   21.6993 C   0  0  0  0  0  0  0  0  0  0  0  0
    8.8805  -18.1053   21.7191 O   0  0  0  0  0  0  0  0  0  0  0  0
    7.7243  -16.1319   21.8454 N   0  0  0  0  0  0  0  0  0  0  0  0
    6.5156  -15.3152   21.8660 C   0  0  0  0  0  0  0  0  0  0  0  0
    6.9214  -14.0123   21.1863 C   0  0  0  0  0  0  0  0  0  0  0  0
    8.4295  -13.9958   21.1329 C   0  0  0  0  0  0  0  0  0  0  0  0
    8.8353  -15.2381   21.9406 C   0  0  1  0  0  0  0  0  0  0  0  0
    9.2492  -14.8384   23.3140 C   0  0  0  0  0  0  0  0  0  0  0  0
   10.3008  -14.1550   23.3929 O   0  0  0  0  0  0  0  0  0  0  0  0
    7.9073  -11.6187   26.3438 C   0  0  0  0  0  0  0  0  0  0  0  0
    7.2773  -12.9414   26.0655 C   0  0  2  0  0  0  0  0  0  0  0  0
    5.8128  -12.8580   26.5653 C   0  0  0  0  0  0  0  0  0  0  0  0
    7.9868  -14.0795   26.6828 C   0  0  0  0  0  0  0  0  0  0  0  0
    8.8522  -14.9475   25.8575 C   0  0  2  0  0  0  0  0  0  0  0  0
    8.5565  -15.1674   24.4992 N   0  0  0  0  0  0  0  0  0  0  0  0
    9.3408  -16.0977   26.6735 C   0  0  0  0  0  0  0  0  0  0  0  0
    9.8895  -15.7671   27.9215 O   0  0  0  0  0  0  0  0  0  0  0  0
    9.3024  -17.2568   26.3532 O   0  0  0  0  0  0  0  0  0  0  0  0
  1  2  1  0
  2  3  2  0
  4  2  1  0
  5  4  1  0
  5  6  1  1
  7  5  1  0
  7  8  2  0
  9  7  1  0
 10  9  1  0
 11 12  1  0
 11 10  1  0
 12 13  1  0
 13  9  1  0
 14 21  1  0
 13 14  1  1
 15 14  2  0
 17 16  1  1
 18 17  1  0
 19 17  1  0
 20 21  1  0
 20 19  1  1
 22 20  1  0
 23 22  1  0
 24 22  2  0
M  END
$$$$
