NPL.pdb
     RDKit          3D

 24 24  0  0  1  0  0  0  0  0999 V2000
    6.9542  -20.7257   18.5878 N   0  0  0  0  0  0  0  0  0  0  0  0
    7.0787  -19.3343   18.3730 C   0  0  0  0  0  0  0  0  0  0  0  0
    6.7950  -18.8802   17.2393 O   0  0  0  0  0  0  0  0  0  0  0  0
    7.5300  -18.3628   19.4168 C   0  0  0  0  0  0  0  0  0  0  0  0
    8.5666  -17.4522   18.8078 C   0  0  2  0  0  0  0  0  0  0  0  0
    9.6200  -18.3400   18.2955 N   0  0  0  0  0  0  0  0  0  0  0  0
    9.1229  -16.4502   19.7347 C   0  0  0  0  0  0  0  0  0  0  0  0
   10.2420  -16.6310   20.2846 O   0  0  0  0  0  0  0  0  0  0  0  0
    8.4231  -15.2630   20.0261 N   0  0  0  0  0  0  0  0  0  0  0  0
    7.1878  -14.8321   19.3804 C   0  0  0  0  0  0  0  0  0  0  0  0
    7.2956  -13.3125   19.3218 C   0  0  0  0  0  0  0  0  0  0  0  0
    8.4111  -12.9147   20.2571 C   0  0  0  0  0  0  0  0  0  0  0  0
    8.7970  -14.2336   20.9441 C   0  0  1  0  0  0  0  0  0  0  0  0
    8.1837  -14.2989   22.2995 C   0  0  0  0  0  0  0  0  0  0  0  0
    6.9842  -14.6711   22.3414 O   0  0  0  0  0  0  0  0  0  0  0  0
    5.4303  -12.2357   26.6937 C   0  0  0  0  0  0  0  0  0  0  0  0
    6.7338  -12.9460   26.5517 C   0  0  2  0  0  0  0  0  0  0  0  0
    7.7564  -12.1952   27.4418 C   0  0  0  0  0  0  0  0  0  0  0  0
    7.2101  -13.0413   25.1575 C   0  0  0  0  0  0  0  0  0  0  0  0
    8.3865  -13.8746   24.8328 C   0  0  2  0  0  0  0  0  0  0  0  0
    8.8437  -13.9794   23.5058 N   0  0  0  0  0  0  0  0  0  0  0  0
    8.3887  -15.1005   25.6839 C   0  0  0  0  0  0  0  0  0  0  0  0
    7.4836  -16.1035   25.3062 O   0  0  0  0  0  0  0  0  0  0  0  0
    9.0876  -15.2914   26.6445 O   0  0  0  0  0  0  0  0  0  0  0  0
  1  2  1  0
  2  3  2  0
  4  2  1  0
  5  4  1  0
  5  6  1  1
  7  5  1  0
  7  8  2  0
  9  7  1  0
 10  9  1  0
 11 12  1  0
 11 10  1  0
 12 13  1  0
 13  9  1  0
 14 21  1  0
 13 14  1  1
 15 14  2  0
 17 16  1  6
 18 17  1  0
 19 17  1  0
 20 21  1  0
 20 19  1  6
 22 20  1  0
 23 22  1  0
 24 22  2  0
M  END
$$$$
