NPL.pdb
     RDKit          3D

 24 24  0  0  1  0  0  0  0  0999 V2000
   10.0819  -19.0509   21.0610 N   0  0  0  0  0  0  0  0  0  0  0  0
    8.7448  -19.1501   20.6137 C   0  0  0  0  0  0  0  0  0  0  0  0
    8.0275  -20.0652   21.0828 O   0  0  0  0  0  0  0  0  0  0  0  0
    8.1267  -18.2287   19.6108 C   0  0  0  0  0  0  0  0  0  0  0  0
    9.1485  -17.1903   19.2203 C   0  0  2  0  0  0  0  0  0  0  0  0
   10.3533  -17.9436   18.8447 N   0  0  0  0  0  0  0  0  0  0  0  0
    9.4486  -16.2003   20.2702 C   0  0  0  0  0  0  0  0  0  0  0  0
   10.5741  -16.1812   20.8363 O   0  0  0  0  0  0  0  0  0  0  0  0
    8.4899  -15.2467   20.6646 N   0  0  0  0  0  0  0  0  0  0  0  0
    7.1695  -15.0811   20.0665 C   0  0  0  0  0  0  0  0  0  0  0  0
    6.9035  -13.5814   20.1336 C   0  0  0  0  0  0  0  0  0  0  0  0
    7.9146  -12.9982   21.0900 C   0  0  0  0  0  0  0  0  0  0  0  0
    8.6280  -14.2328   21.6621 C   0  0  1  0  0  0  0  0  0  0  0  0
    8.0868  -14.5523   23.0120 C   0  0  0  0  0  0  0  0  0  0  0  0
    7.0122  -15.2036   23.0321 O   0  0  0  0  0  0  0  0  0  0  0  0
    7.7236  -11.5277   26.7772 C   0  0  0  0  0  0  0  0  0  0  0  0
    6.8677  -12.4709   26.0014 C   0  0  2  0  0  0  0  0  0  0  0  0
    5.3976  -12.1667   26.3856 C   0  0  0  0  0  0  0  0  0  0  0  0
    7.1940  -13.8930   26.2276 C   0  0  0  0  0  0  0  0  0  0  0  0
    8.3736  -14.4949   25.5720 C   0  0  2  0  0  0  0  0  0  0  0  0
    8.6856  -14.1821   24.2356 N   0  0  0  0  0  0  0  0  0  0  0  0
    8.5420  -15.9054   26.0295 C   0  0  0  0  0  0  0  0  0  0  0  0
    9.8655  -16.3238   26.2329 O   0  0  0  0  0  0  0  0  0  0  0  0
    7.6547  -16.6923   26.2321 O   0  0  0  0  0  0  0  0  0  0  0  0
  1  2  1  0
  2  3  2  0
  4  2  1  0
  5  4  1  0
  5  6  1  1
  7  5  1  0
  7  8  2  0
  9  7  1  0
 10  9  1  0
 11 12  1  0
 11 10  1  0
 12 13  1  0
 13  9  1  0
 14 21  1  0
 13 14  1  1
 15 14  2  0
 17 16  1  1
 18 17  1  0
 19 17  1  0
 20 21  1  0
 20 19  1  6
 22 20  1  0
 23 22  1  0
 24 22  2  0
M  END
$$$$
