NPL.pdb
     RDKit          3D

 24 24  0  0  1  0  0  0  0  0999 V2000
    7.6817  -17.7602   20.4998 N   0  0  0  0  0  0  0  0  0  0  0  0
    6.7774  -17.1007   21.3630 C   0  0  0  0  0  0  0  0  0  0  0  0
    6.1738  -17.7826   22.2247 O   0  0  0  0  0  0  0  0  0  0  0  0
    6.4921  -15.6334   21.3143 C   0  0  0  0  0  0  0  0  0  0  0  0
    7.7779  -14.9048   21.0132 C   0  0  2  0  0  0  0  0  0  0  0  0
    8.5570  -15.8145   20.1613 N   0  0  0  0  0  0  0  0  0  0  0  0
    8.5486  -14.5039   22.2038 C   0  0  0  0  0  0  0  0  0  0  0  0
    9.8037  -14.4035   22.1564 O   0  0  0  0  0  0  0  0  0  0  0  0
    7.9045  -14.2168   23.4231 N   0  0  0  0  0  0  0  0  0  0  0  0
    6.4613  -14.2253   23.6369 C   0  0  0  0  0  0  0  0  0  0  0  0
    6.2171  -13.1121   24.6496 C   0  0  0  0  0  0  0  0  0  0  0  0
    7.5578  -12.7578   25.2449 C   0  0  0  0  0  0  0  0  0  0  0  0
    8.5077  -13.8104   24.6532 C   0  0  1  0  0  0  0  0  0  0  0  0
    8.7631  -14.8838   25.6531 C   0  0  0  0  0  0  0  0  0  0  0  0
    7.9945  -15.8766   25.6005 O   0  0  0  0  0  0  0  0  0  0  0  0
   10.4210  -13.3538   29.0087 C   0  0  0  0  0  0  0  0  0  0  0  0
   10.1136  -14.7125   29.5408 C   0  0  2  0  0  0  0  0  0  0  0  0
   10.6084  -14.7450   31.0090 C   0  0  0  0  0  0  0  0  0  0  0  0
   10.7113  -15.8087   28.7529 C   0  0  0  0  0  0  0  0  0  0  0  0
   10.4757  -15.8869   27.2962 C   0  0  2  0  0  0  0  0  0  0  0  0
    9.7836  -14.8594   26.6281 N   0  0  0  0  0  0  0  0  0  0  0  0
   10.2017  -17.3003   26.9030 C   0  0  0  0  0  0  0  0  0  0  0  0
   11.0813  -18.2582   27.4290 O   0  0  0  0  0  0  0  0  0  0  0  0
    9.3088  -17.6734   26.1882 O   0  0  0  0  0  0  0  0  0  0  0  0
  1  2  1  0
  2  3  2  0
  4  2  1  0
  5  4  1  0
  5  6  1  6
  7  5  1  0
  7  8  2  0
  9  7  1  0
 10  9  1  0
 11 12  1  0
 11 10  1  0
 12 13  1  0
 13  9  1  0
 14 21  1  0
 13 14  1  1
 15 14  2  0
 17 16  1  6
 18 17  1  0
 19 17  1  0
 20 21  1  0
 20 19  1  1
 22 20  1  0
 23 22  1  0
 24 22  2  0
M  END
$$$$
