CRC.pdb
     RDKit          3D

 24 23  0  0  1  0  0  0  0  0999 V2000
    7.9421  -14.9964   17.9385 N   0  0  0  0  0  0  0  0  0  0  0  0
    8.8108  -14.8059   19.0829 C   0  0  1  0  0  0  0  0  0  0  0  0
    9.1756  -13.3416   19.1500 C   0  0  0  0  0  0  0  0  0  0  0  0
    7.8053  -12.2810   19.6054 S   0  0  0  0  0  0  0  0  0  0  0  0
    8.0720  -15.2363   20.3108 C   0  0  0  0  0  0  0  0  0  0  0  0
    6.8193  -15.1843   20.3421 O   0  0  0  0  0  0  0  0  0  0  0  0
    5.2374  -21.6855   24.2335 N   0  0  0  0  0  0  0  0  0  0  0  0
    6.4712  -21.1901   24.6896 C   0  0  0  0  0  0  0  0  0  0  0  0
    6.9334  -21.5911   25.8438 N   0  0  0  0  0  0  0  0  0  0  0  0
    7.2604  -20.2651   23.9691 N   0  0  0  0  0  0  0  0  0  0  0  0
    7.0095  -19.8197   22.6453 C   0  0  0  0  0  0  0  0  0  0  0  0
    6.8957  -18.3305   22.4864 C   0  0  0  0  0  0  0  0  0  0  0  0
    8.1709  -17.6411   22.8125 C   0  0  0  0  0  0  0  0  0  0  0  0
    8.1045  -16.1352   22.6781 C   0  0  2  0  0  0  0  0  0  0  0  0
    8.7747  -15.7079   21.4534 N   0  0  0  0  0  0  0  0  0  0  0  0
    8.6004  -15.3890   23.8519 C   0  0  0  0  0  0  0  0  0  0  0  0
    9.8194  -15.1227   23.9281 O   0  0  0  0  0  0  0  0  0  0  0  0
    7.8474  -21.3213   26.2284 N   0  0  0  0  0  0  0  0  0  0  0  0
    7.7639  -14.9547   24.9034 C   0  0  2  0  0  0  0  0  0  0  0  0
    8.1226  -14.2513   26.0796 C   0  0  0  0  0  0  0  0  0  0  0  0
    7.1211  -13.2082   26.5270 S   0  0  0  0  0  0  0  0  0  0  0  0
    7.8468  -12.3607   27.9763 C   0  0  0  0  0  0  0  0  0  0  0  0
    8.6356  -15.0579   27.2137 O   0  0  0  0  0  0  0  0  0  0  0  0
    8.0485  -16.1221   27.5489 O   0  0  0  0  0  0  0  0  0  0  0  0
  2  1  1  6
  3  4  1  0
  3  2  1  0
  5  6  2  0
  5  2  1  0
  7  8  1  0
  8 10  1  0
  9  8  2  0
 10 11  1  0
 11 12  1  0
 12 13  1  0
 14 13  1  1
 14 15  1  0
 15  5  1  0
 16 14  1  0
 17 16  2  0
 18 16  1  0
 19 22  1  0
 19 18  1  0
 19 20  1  1
 21 20  1  0
 22 24  1  0
 23 22  2  0
M  END
$$$$
