CRC.pdb
     RDKit          3D

 24 23  0  0  1  0  0  0  0  0999 V2000
    6.4392  -19.6639   23.4691 N   0  0  0  0  0  0  0  0  0  0  0  0
    6.3085  -18.2217   23.5289 C   0  0  1  0  0  0  0  0  0  0  0  0
    6.2324  -17.8225   24.9838 C   0  0  0  0  0  0  0  0  0  0  0  0
    7.5657  -18.4852   25.9802 S   0  0  0  0  0  0  0  0  0  0  0  0
    7.5022  -17.6135   22.8627 C   0  0  0  0  0  0  0  0  0  0  0  0
    8.5447  -18.2912   22.6985 O   0  0  0  0  0  0  0  0  0  0  0  0
    9.3588  -14.3546   17.1243 N   0  0  0  0  0  0  0  0  0  0  0  0
    8.1055  -13.7906   16.8295 C   0  0  0  0  0  0  0  0  0  0  0  0
    7.6702  -13.8092   15.5979 N   0  0  0  0  0  0  0  0  0  0  0  0
    7.2683  -13.1892   17.7966 N   0  0  0  0  0  0  0  0  0  0  0  0
    7.5268  -13.1292   19.1905 C   0  0  0  0  0  0  0  0  0  0  0  0
    8.0368  -14.4047   19.7980 C   0  0  0  0  0  0  0  0  0  0  0  0
    8.2674  -14.2670   21.2594 C   0  0  0  0  0  0  0  0  0  0  0  0
    8.6616  -15.5592   21.9414 C   0  0  2  0  0  0  0  0  0  0  0  0
    7.4728  -16.2664   22.4084 N   0  0  0  0  0  0  0  0  0  0  0  0
    9.6570  -15.4073   23.0215 C   0  0  0  0  0  0  0  0  0  0  0  0
    9.3361  -14.7833   24.0560 O   0  0  0  0  0  0  0  0  0  0  0  0
    6.7604  -13.4370   15.2982 N   0  0  0  0  0  0  0  0  0  0  0  0
   10.9649  -15.9348   22.9491 C   0  0  2  0  0  0  0  0  0  0  0  0
   12.0247  -15.7896   23.8779 C   0  0  0  0  0  0  0  0  0  0  0  0
   11.6553  -16.0865   25.3154 S   0  0  0  0  0  0  0  0  0  0  0  0
   11.0340  -17.8062   25.3611 C   0  0  0  0  0  0  0  0  0  0  0  0
   13.3320  -16.3810   23.5019 O   0  0  0  0  0  0  0  0  0  0  0  0
   13.4093  -17.1742   22.5251 O   0  0  0  0  0  0  0  0  0  0  0  0
  2  1  1  1
  3  4  1  0
  3  2  1  0
  5  6  2  0
  5  2  1  0
  7  8  1  0
  8 10  1  0
  9  8  2  0
 10 11  1  0
 11 12  1  0
 12 13  1  0
 14 13  1  1
 14 15  1  0
 15  5  1  0
 16 14  1  0
 17 16  2  0
 18 16  1  0
 19 22  1  0
 19 18  1  0
 19 20  1  1
 21 20  1  0
 22 24  1  0
 23 22  2  0
M  END
$$$$
