CRC.pdb
     RDKit          3D

 24 23  0  0  1  0  0  0  0  0999 V2000
    7.7498  -13.8875   17.9263 N   0  0  0  0  0  0  0  0  0  0  0  0
    9.0128  -13.4077   18.4509 C   0  0  1  0  0  0  0  0  0  0  0  0
    8.7123  -12.3846   19.5210 C   0  0  0  0  0  0  0  0  0  0  0  0
    7.7881  -13.0456   20.9061 S   0  0  0  0  0  0  0  0  0  0  0  0
    9.7620  -14.5745   19.0131 C   0  0  0  0  0  0  0  0  0  0  0  0
    9.1540  -15.6329   19.3015 O   0  0  0  0  0  0  0  0  0  0  0  0
   15.5514  -13.5552   18.3907 N   0  0  0  0  0  0  0  0  0  0  0  0
   15.6199  -14.0061   17.0612 C   0  0  0  0  0  0  0  0  0  0  0  0
   16.0354  -13.1895   16.1301 N   0  0  0  0  0  0  0  0  0  0  0  0
   15.2588  -15.3110   16.6553 N   0  0  0  0  0  0  0  0  0  0  0  0
   14.9036  -16.3772   17.5218 C   0  0  0  0  0  0  0  0  0  0  0  0
   13.4822  -16.3558   18.0065 C   0  0  0  0  0  0  0  0  0  0  0  0
   13.3433  -15.5991   19.2777 C   0  0  0  0  0  0  0  0  0  0  0  0
   11.9349  -15.5854   19.8313 C   0  0  2  0  0  0  0  0  0  0  0  0
   11.1658  -14.5014   19.2273 N   0  0  0  0  0  0  0  0  0  0  0  0
   11.8523  -15.5482   21.3052 C   0  0  0  0  0  0  0  0  0  0  0  0
   11.6110  -14.4593   21.8698 O   0  0  0  0  0  0  0  0  0  0  0  0
   16.2340  -13.4672   15.1608 N   0  0  0  0  0  0  0  0  0  0  0  0
   12.0319  -16.6874   22.1200 C   0  0  1  0  0  0  0  0  0  0  0  0
   11.6133  -16.8863   23.4586 C   0  0  0  0  0  0  0  0  0  0  0  0
   10.1664  -16.5352   23.7313 S   0  0  0  0  0  0  0  0  0  0  0  0
    9.9284  -16.6275   25.5424 C   0  0  0  0  0  0  0  0  0  0  0  0
   12.0112  -18.1614   24.1036 O   0  0  0  0  0  0  0  0  0  0  0  0
   11.7109  -19.2619   23.5667 O   0  0  0  0  0  0  0  0  0  0  0  0
  2  1  1  1
  3  4  1  0
  3  2  1  0
  5  6  2  0
  5  2  1  0
  7  8  1  0
  8 10  1  0
  9  8  2  0
 10 11  1  0
 11 12  1  0
 12 13  1  0
 14 13  1  1
 14 15  1  0
 15  5  1  0
 16 14  1  0
 17 16  2  0
 18 16  1  0
 19 22  1  0
 19 18  1  0
 19 20  1  1
 21 20  1  0
 22 24  1  0
 23 22  2  0
M  END
$$$$
