CRC.pdb
     RDKit          3D

 24 23  0  0  1  0  0  0  0  0999 V2000
   -7.6891  -20.1061   20.8389 N   0  0  0  0  0  0  0  0  0  0  0  0
   -8.7313  -19.4008   20.1198 C   0  0  1  0  0  0  0  0  0  0  0  0
  -10.0570  -19.7720   20.7415 C   0  0  0  0  0  0  0  0  0  0  0  0
  -11.4539  -18.9152   20.0175 S   0  0  0  0  0  0  0  0  0  0  0  0
   -8.4713  -17.9320   20.2363 C   0  0  0  0  0  0  0  0  0  0  0  0
   -8.0204  -17.4555   21.3053 O   0  0  0  0  0  0  0  0  0  0  0  0
   -3.5653  -15.1738   18.3799 N   0  0  0  0  0  0  0  0  0  0  0  0
   -3.6032  -15.7182   17.0846 C   0  0  0  0  0  0  0  0  0  0  0  0
   -2.6457  -16.5193   16.6998 N   0  0  0  0  0  0  0  0  0  0  0  0
   -4.6284  -15.4487   16.1495 N   0  0  0  0  0  0  0  0  0  0  0  0
   -5.9302  -14.9792   16.4633 C   0  0  0  0  0  0  0  0  0  0  0  0
   -6.4861  -15.4716   17.7688 C   0  0  0  0  0  0  0  0  0  0  0  0
   -7.9162  -15.1040   17.9341 C   0  0  0  0  0  0  0  0  0  0  0  0
   -8.5353  -15.6145   19.2172 C   0  0  2  0  0  0  0  0  0  0  0  0
   -8.7298  -17.0596   19.1436 N   0  0  0  0  0  0  0  0  0  0  0  0
   -9.7767  -14.9238   19.6201 C   0  0  0  0  0  0  0  0  0  0  0  0
  -10.8203  -15.1229   18.9616 O   0  0  0  0  0  0  0  0  0  0  0  0
   -2.5950  -16.9599   15.7728 N   0  0  0  0  0  0  0  0  0  0  0  0
   -9.8500  -14.0421   20.7207 C   0  0  2  0  0  0  0  0  0  0  0  0
  -10.9746  -13.3274   21.2019 C   0  0  0  0  0  0  0  0  0  0  0  0
  -11.0774  -13.2442   22.7098 S   0  0  0  0  0  0  0  0  0  0  0  0
  -10.7485  -14.9222   23.3592 C   0  0  0  0  0  0  0  0  0  0  0  0
  -11.2757  -12.0308   20.5476 O   0  0  0  0  0  0  0  0  0  0  0  0
  -10.4566  -11.5300   19.7304 O   0  0  0  0  0  0  0  0  0  0  0  0
  2  1  1  1
  3  4  1  0
  3  2  1  0
  5  6  2  0
  5  2  1  0
  7  8  1  0
  8 10  1  0
  9  8  2  0
 10 11  1  0
 11 12  1  0
 12 13  1  0
 14 13  1  6
 14 15  1  0
 15  5  1  0
 16 14  1  0
 17 16  2  0
 18 16  1  0
 19 22  1  0
 19 18  1  0
 19 20  1  6
 21 20  1  0
 22 24  1  0
 23 22  2  0
M  END
$$$$
