CRC.pdb
     RDKit          3D

 24 23  0  0  1  0  0  0  0  0999 V2000
    6.8435  -20.3020   24.2237 N   0  0  0  0  0  0  0  0  0  0  0  0
    6.6315  -19.0786   24.9713 C   0  0  1  0  0  0  0  0  0  0  0  0
    7.0919  -19.3160   26.3902 C   0  0  0  0  0  0  0  0  0  0  0  0
    6.4243  -18.1417   27.5671 S   0  0  0  0  0  0  0  0  0  0  0  0
    7.4225  -17.9874   24.3212 C   0  0  0  0  0  0  0  0  0  0  0  0
    8.6183  -18.1838   23.9981 O   0  0  0  0  0  0  0  0  0  0  0  0
    8.4218  -12.2975   18.0932 N   0  0  0  0  0  0  0  0  0  0  0  0
    8.5843  -13.6633   18.3824 C   0  0  0  0  0  0  0  0  0  0  0  0
    9.4809  -14.3526   17.7284 N   0  0  0  0  0  0  0  0  0  0  0  0
    7.8243  -14.3563   19.3519 N   0  0  0  0  0  0  0  0  0  0  0  0
    6.8794  -13.7710   20.2340 C   0  0  0  0  0  0  0  0  0  0  0  0
    7.2589  -13.8066   21.6868 C   0  0  0  0  0  0  0  0  0  0  0  0
    6.6282  -14.9507   22.3947 C   0  0  0  0  0  0  0  0  0  0  0  0
    7.5434  -15.6375   23.3851 C   0  0  2  0  0  0  0  0  0  0  0  0
    6.8338  -16.7194   24.0615 N   0  0  0  0  0  0  0  0  0  0  0  0
    8.1943  -14.7323   24.3533 C   0  0  0  0  0  0  0  0  0  0  0  0
    8.9262  -13.8140   23.9247 O   0  0  0  0  0  0  0  0  0  0  0  0
    9.6507  -15.3575   17.8609 N   0  0  0  0  0  0  0  0  0  0  0  0
    8.0326  -14.8481   25.7514 C   0  0  1  0  0  0  0  0  0  0  0  0
    8.5643  -14.0195   26.7700 C   0  0  0  0  0  0  0  0  0  0  0  0
    7.5554  -13.1160   27.4459 S   0  0  0  0  0  0  0  0  0  0  0  0
    6.1392  -12.9489   26.3005 C   0  0  0  0  0  0  0  0  0  0  0  0
    9.4841  -14.6584   27.7427 O   0  0  0  0  0  0  0  0  0  0  0  0
    9.7493  -15.8873   27.6484 O   0  0  0  0  0  0  0  0  0  0  0  0
  2  1  1  6
  3  4  1  0
  3  2  1  0
  5  6  2  0
  5  2  1  0
  7  8  1  0
  8 10  1  0
  9  8  2  0
 10 11  1  0
 11 12  1  0
 12 13  1  0
 14 13  1  1
 14 15  1  0
 15  5  1  0
 16 14  1  0
 17 16  2  0
 18 16  1  0
 19 22  1  0
 19 18  1  0
 19 20  1  1
 21 20  1  0
 22 24  1  0
 23 22  2  0
M  END
$$$$
