CRC.pdb
     RDKit          3D

 24 23  0  0  1  0  0  0  0  0999 V2000
    6.3796  -20.3080   21.0621 N   0  0  0  0  0  0  0  0  0  0  0  0
    6.0058  -19.0870   21.7478 C   0  0  1  0  0  0  0  0  0  0  0  0
    5.7177  -19.4340   23.1895 C   0  0  0  0  0  0  0  0  0  0  0  0
    4.0451  -20.0125   23.4677 S   0  0  0  0  0  0  0  0  0  0  0  0
    7.1431  -18.1207   21.6407 C   0  0  0  0  0  0  0  0  0  0  0  0
    8.3239  -18.5410   21.5955 O   0  0  0  0  0  0  0  0  0  0  0  0
    7.0963  -14.5985   17.3566 N   0  0  0  0  0  0  0  0  0  0  0  0
    8.2261  -13.7731   17.2226 C   0  0  0  0  0  0  0  0  0  0  0  0
    9.1106  -14.0453   16.3006 N   0  0  0  0  0  0  0  0  0  0  0  0
    8.4759  -12.6460   18.0382 N   0  0  0  0  0  0  0  0  0  0  0  0
    8.0610  -12.4937   19.3866 C   0  0  0  0  0  0  0  0  0  0  0  0
    8.5485  -13.5593   20.3261 C   0  0  0  0  0  0  0  0  0  0  0  0
    7.4879  -14.5541   20.6313 C   0  0  0  0  0  0  0  0  0  0  0  0
    7.9723  -15.7360   21.4428 C   0  0  2  0  0  0  0  0  0  0  0  0
    6.9036  -16.7200   21.5887 N   0  0  0  0  0  0  0  0  0  0  0  0
    8.5639  -15.3856   22.7497 C   0  0  0  0  0  0  0  0  0  0  0  0
    8.3120  -14.2667   23.2467 O   0  0  0  0  0  0  0  0  0  0  0  0
    9.8804  -13.4197   16.0320 N   0  0  0  0  0  0  0  0  0  0  0  0
    9.4066  -16.2550   23.4764 C   0  0  1  0  0  0  0  0  0  0  0  0
    9.5941  -16.3300   24.8785 C   0  0  0  0  0  0  0  0  0  0  0  0
    8.3172  -16.4127   25.6872 S   0  0  0  0  0  0  0  0  0  0  0  0
    7.6912  -14.7037   25.8698 C   0  0  0  0  0  0  0  0  0  0  0  0
   10.6288  -17.2737   25.3675 O   0  0  0  0  0  0  0  0  0  0  0  0
   10.8050  -17.4320   26.6058 O   0  0  0  0  0  0  0  0  0  0  0  0
  2  1  1  6
  3  4  1  0
  3  2  1  0
  5  6  2  0
  5  2  1  0
  7  8  1  0
  8 10  1  0
  9  8  2  0
 10 11  1  0
 11 12  1  0
 12 13  1  0
 14 13  1  1
 14 15  1  0
 15  5  1  0
 16 14  1  0
 17 16  2  0
 18 16  1  0
 19 22  1  0
 19 18  1  0
 19 20  1  1
 21 20  1  0
 22 24  1  0
 23 22  2  0
M  END
$$$$
