PCW.pdb
     RDKit          3D

 28 30  0  0  1  0  0  0  0  0999 V2000
    9.3265  -14.1416   18.8580 N   0  0  0  0  0  0  0  0  0  0  0  0
    8.0055  -14.3008   18.2458 C   0  0  0  0  0  0  0  0  0  0  0  0
    7.1583  -13.2308   18.9071 C   0  0  0  0  0  0  0  0  0  0  0  0
    7.9503  -12.7096   20.0732 C   0  0  0  0  0  0  0  0  0  0  0  0
    9.0649  -13.7226   20.2002 C   0  0  1  0  0  0  0  0  0  0  0  0
    8.6886  -14.8924   21.0170 C   0  0  0  0  0  0  0  0  0  0  0  0
    7.6054  -14.8801   21.6444 O   0  0  0  0  0  0  0  0  0  0  0  0
    9.5035  -16.0609   21.1364 N   0  0  0  0  0  0  0  0  0  0  0  0
    9.3255  -16.9597   22.2487 C   0  0  1  0  0  0  0  0  0  0  0  0
   10.0584  -18.2634   21.9504 C   0  0  0  0  0  0  0  0  0  0  0  0
    9.4856  -19.5334   23.1225 S   0  0  0  0  0  0  0  0  0  0  0  0
    9.8908  -16.4230   23.5084 C   0  0  0  0  0  0  0  0  0  0  0  0
   10.8128  -15.5832   23.4414 O   0  0  0  0  0  0  0  0  0  0  0  0
    9.3916  -16.8574   24.7549 N   0  0  0  0  0  0  0  0  0  0  0  0
    9.9816  -16.4025   26.0369 C   0  0  1  0  0  0  0  0  0  0  0  0
    8.8386  -16.2405   26.9867 C   0  0  0  0  0  0  0  0  0  0  0  0
    7.6804  -15.4795   26.5043 C   0  0  0  0  0  0  0  0  0  0  0  0
    6.5501  -16.0655   25.9489 C   0  0  0  0  0  0  0  0  0  0  0  0
    5.7344  -15.0606   25.5998 N   0  0  0  0  0  0  0  0  0  0  0  0
    6.2999  -13.8825   25.9105 C   0  0  0  0  0  0  0  0  0  0  0  0
    5.8519  -12.5890   25.7632 C   0  0  0  0  0  0  0  0  0  0  0  0
    6.6498  -11.5408   26.1979 C   0  0  0  0  0  0  0  0  0  0  0  0
    7.8753  -11.7535   26.7716 C   0  0  0  0  0  0  0  0  0  0  0  0
    8.3152  -13.0322   26.9148 C   0  0  0  0  0  0  0  0  0  0  0  0
    7.5511  -14.1125   26.4939 C   0  0  0  0  0  0  0  0  0  0  0  0
   10.9960  -17.3310   26.5389 C   0  0  0  0  0  0  0  0  0  0  0  0
   11.1152  -18.4324   25.8925 O   0  0  0  0  0  0  0  0  0  0  0  0
   11.8029  -17.0705   27.6387 O   0  0  0  0  0  0  0  0  0  0  0  0
  1  5  1  0
  2  1  1  0
  2  3  1  0
  3  4  1  0
  5  4  1  0
  5  6  1  1
  6  7  2  0
  8  6  1  0
  9  8  1  0
  9 10  1  6
 11 10  1  0
 12  9  1  0
 13 12  2  0
 14 12  1  0
 15 14  1  0
 15 16  1  1
 17 16  1  0
 18 17  2  0
 19 20  1  0
 19 18  1  0
 20 25  2  0
 21 20  1  0
 21 22  2  0
 22 23  1  0
 23 24  2  0
 25 17  1  0
 25 24  1  0
 26 15  1  0
 27 26  2  0
 28 26  1  0
M  END
$$$$
