PCW.pdb
     RDKit          3D

 28 30  0  0  1  0  0  0  0  0999 V2000
    8.2431  -14.4074   18.6385 N   0  0  0  0  0  0  0  0  0  0  0  0
    6.8513  -14.0424   18.9117 C   0  0  0  0  0  0  0  0  0  0  0  0
    6.9556  -12.7935   19.7656 C   0  0  0  0  0  0  0  0  0  0  0  0
    8.3935  -12.6744   20.1863 C   0  0  0  0  0  0  0  0  0  0  0  0
    8.9643  -14.0232   19.8123 C   0  0  1  0  0  0  0  0  0  0  0  0
    8.7722  -15.0405   20.8637 C   0  0  0  0  0  0  0  0  0  0  0  0
    7.6349  -15.2014   21.3617 O   0  0  0  0  0  0  0  0  0  0  0  0
    9.8279  -15.8688   21.3564 N   0  0  0  0  0  0  0  0  0  0  0  0
    9.5801  -16.8009   22.4272 C   0  0  1  0  0  0  0  0  0  0  0  0
   10.2467  -18.1299   22.0872 C   0  0  0  0  0  0  0  0  0  0  0  0
    9.7699  -19.3574   23.3445 S   0  0  0  0  0  0  0  0  0  0  0  0
   10.1496  -16.3478   23.7174 C   0  0  0  0  0  0  0  0  0  0  0  0
   11.2231  -15.7095   23.7073 O   0  0  0  0  0  0  0  0  0  0  0  0
    9.4861  -16.6360   24.9291 N   0  0  0  0  0  0  0  0  0  0  0  0
   10.0875  -16.3185   26.2467 C   0  0  1  0  0  0  0  0  0  0  0  0
    8.9447  -16.0421   27.1700 C   0  0  0  0  0  0  0  0  0  0  0  0
    7.7899  -15.3380   26.6008 C   0  0  0  0  0  0  0  0  0  0  0  0
    6.6998  -15.9816   26.0291 C   0  0  0  0  0  0  0  0  0  0  0  0
    5.8752  -15.0180   25.5949 N   0  0  0  0  0  0  0  0  0  0  0  0
    6.3970  -13.8109   25.8683 C   0  0  0  0  0  0  0  0  0  0  0  0
    5.9236  -12.5391   25.6362 C   0  0  0  0  0  0  0  0  0  0  0  0
    6.6753  -11.4490   26.0498 C   0  0  0  0  0  0  0  0  0  0  0  0
    7.8798  -11.5993   26.6848 C   0  0  0  0  0  0  0  0  0  0  0  0
    8.3448  -12.8568   26.9118 C   0  0  0  0  0  0  0  0  0  0  0  0
    7.6271  -13.9772   26.5149 C   0  0  0  0  0  0  0  0  0  0  0  0
   10.9501  -17.3960   26.7347 C   0  0  0  0  0  0  0  0  0  0  0  0
   11.5803  -17.1573   27.8260 O   0  0  0  0  0  0  0  0  0  0  0  0
   11.0992  -18.6166   26.0894 O   0  0  0  0  0  0  0  0  0  0  0  0
  1  5  1  0
  2  1  1  0
  2  3  1  0
  3  4  1  0
  5  4  1  0
  5  6  1  1
  6  7  2  0
  8  6  1  0
  9  8  1  0
  9 10  1  6
 11 10  1  0
 12  9  1  0
 13 12  2  0
 14 12  1  0
 15 14  1  0
 15 16  1  1
 17 16  1  0
 18 17  2  0
 19 20  1  0
 19 18  1  0
 20 25  2  0
 21 20  1  0
 21 22  2  0
 22 23  1  0
 23 24  2  0
 25 17  1  0
 25 24  1  0
 26 15  1  0
 27 26  2  0
 28 26  1  0
M  END
$$$$
