PCW.pdb
     RDKit          3D

 28 30  0  0  1  0  0  0  0  0999 V2000
    7.7156  -18.8471   20.7744 N   0  0  0  0  0  0  0  0  0  0  0  0
    6.9670  -18.4790   19.5706 C   0  0  0  0  0  0  0  0  0  0  0  0
    7.8873  -18.8645   18.4285 C   0  0  0  0  0  0  0  0  0  0  0  0
    9.2312  -19.1572   19.0341 C   0  0  0  0  0  0  0  0  0  0  0  0
    9.0880  -18.6222   20.4406 C   0  0  1  0  0  0  0  0  0  0  0  0
    9.3898  -17.1813   20.5413 C   0  0  0  0  0  0  0  0  0  0  0  0
   10.4526  -16.7408   20.0476 O   0  0  0  0  0  0  0  0  0  0  0  0
    8.5239  -16.2412   21.1814 N   0  0  0  0  0  0  0  0  0  0  0  0
    9.0343  -14.9681   21.6236 C   0  0  1  0  0  0  0  0  0  0  0  0
    7.8708  -13.9914   21.7593 C   0  0  0  0  0  0  0  0  0  0  0  0
    6.5617  -14.7810   22.7480 S   0  0  0  0  0  0  0  0  0  0  0  0
    9.6896  -15.0487   22.9497 C   0  0  0  0  0  0  0  0  0  0  0  0
   10.3286  -14.0585   23.3634 O   0  0  0  0  0  0  0  0  0  0  0  0
    9.5888  -16.2244   23.7235 N   0  0  0  0  0  0  0  0  0  0  0  0
   10.1135  -16.2986   25.1084 C   0  0  1  0  0  0  0  0  0  0  0  0
    8.9645  -16.7204   25.9667 C   0  0  0  0  0  0  0  0  0  0  0  0
    7.7296  -15.9363   25.8510 C   0  0  0  0  0  0  0  0  0  0  0  0
    6.5309  -16.4519   25.3746 C   0  0  0  0  0  0  0  0  0  0  0  0
    5.6523  -15.4396   25.3836 N   0  0  0  0  0  0  0  0  0  0  0  0
    6.2435  -14.3238   25.8414 C   0  0  0  0  0  0  0  0  0  0  0  0
    5.7568  -13.0523   26.0466 C   0  0  0  0  0  0  0  0  0  0  0  0
    6.6001  -12.0771   26.5586 C   0  0  0  0  0  0  0  0  0  0  0  0
    7.9083  -12.3409   26.8677 C   0  0  0  0  0  0  0  0  0  0  0  0
    8.3860  -13.5974   26.6631 C   0  0  0  0  0  0  0  0  0  0  0  0
    7.5789  -14.6051   26.1520 C   0  0  0  0  0  0  0  0  0  0  0  0
   11.2552  -17.2082   25.2191 C   0  0  0  0  0  0  0  0  0  0  0  0
   11.4775  -17.9537   24.1993 O   0  0  0  0  0  0  0  0  0  0  0  0
   12.0742  -17.2850   26.3379 O   0  0  0  0  0  0  0  0  0  0  0  0
  1  5  1  0
  2  1  1  0
  2  3  1  0
  3  4  1  0
  5  4  1  0
  5  6  1  6
  6  7  2  0
  8  6  1  0
  9  8  1  0
  9 10  1  1
 11 10  1  0
 12  9  1  0
 13 12  2  0
 14 12  1  0
 15 14  1  0
 15 16  1  1
 17 16  1  0
 18 17  2  0
 19 20  1  0
 19 18  1  0
 20 25  2  0
 21 20  1  0
 21 22  2  0
 22 23  1  0
 23 24  2  0
 25 17  1  0
 25 24  1  0
 26 15  1  0
 27 26  2  0
 28 26  1  0
M  END
$$$$
