PCW.pdb
     RDKit          3D

 28 30  0  0  1  0  0  0  0  0999 V2000
    8.8858  -14.0900   18.5763 N   0  0  0  0  0  0  0  0  0  0  0  0
    7.4506  -14.1499   18.2907 C   0  0  0  0  0  0  0  0  0  0  0  0
    6.8623  -13.0131   19.1042 C   0  0  0  0  0  0  0  0  0  0  0  0
    7.9403  -12.5478   20.0423 C   0  0  0  0  0  0  0  0  0  0  0  0
    8.9756  -13.6436   19.9321 C   0  0  1  0  0  0  0  0  0  0  0  0
    8.7142  -14.7755   20.8419 C   0  0  0  0  0  0  0  0  0  0  0  0
    7.7370  -14.7224   21.6227 O   0  0  0  0  0  0  0  0  0  0  0  0
    9.5260  -15.9513   20.8850 N   0  0  0  0  0  0  0  0  0  0  0  0
    9.3799  -16.8954   21.9639 C   0  0  1  0  0  0  0  0  0  0  0  0
   10.1440  -18.1676   21.6118 C   0  0  0  0  0  0  0  0  0  0  0  0
    9.6114  -19.4957   22.7375 S   0  0  0  0  0  0  0  0  0  0  0  0
    9.9409  -16.3918   23.2390 C   0  0  0  0  0  0  0  0  0  0  0  0
   10.8871  -15.5776   23.1972 O   0  0  0  0  0  0  0  0  0  0  0  0
    9.4108  -16.8282   24.4719 N   0  0  0  0  0  0  0  0  0  0  0  0
    9.9601  -16.3651   25.7690 C   0  0  1  0  0  0  0  0  0  0  0  0
    8.8088  -16.3373   26.7222 C   0  0  0  0  0  0  0  0  0  0  0  0
    7.6808  -15.4664   26.3721 C   0  0  0  0  0  0  0  0  0  0  0  0
    6.4491  -15.9381   25.9364 C   0  0  0  0  0  0  0  0  0  0  0  0
    5.6969  -14.8577   25.6839 N   0  0  0  0  0  0  0  0  0  0  0  0
    6.3978  -13.7411   25.9412 C   0  0  0  0  0  0  0  0  0  0  0  0
    6.0574  -12.4100   25.8522 C   0  0  0  0  0  0  0  0  0  0  0  0
    6.9897  -11.4459   26.2070 C   0  0  0  0  0  0  0  0  0  0  0  0
    8.2443  -11.7785   26.6447 C   0  0  0  0  0  0  0  0  0  0  0  0
    8.5775  -13.0941   26.7306 C   0  0  0  0  0  0  0  0  0  0  0  0
    7.6773  -14.0933   26.3857 C   0  0  0  0  0  0  0  0  0  0  0  0
   11.0542  -17.2153   26.2413 C   0  0  0  0  0  0  0  0  0  0  0  0
   11.2391  -18.3035   25.5881 O   0  0  0  0  0  0  0  0  0  0  0  0
   11.8676  -16.8964   27.3207 O   0  0  0  0  0  0  0  0  0  0  0  0
  1  5  1  0
  2  1  1  0
  2  3  1  0
  3  4  1  0
  5  4  1  0
  5  6  1  1
  6  7  2  0
  8  6  1  0
  9  8  1  0
  9 10  1  6
 11 10  1  0
 12  9  1  0
 13 12  2  0
 14 12  1  0
 15 14  1  0
 15 16  1  1
 17 16  1  0
 18 17  2  0
 19 20  1  0
 19 18  1  0
 20 25  2  0
 21 20  1  0
 21 22  2  0
 22 23  1  0
 23 24  2  0
 25 17  1  0
 25 24  1  0
 26 15  1  0
 27 26  2  0
 28 26  1  0
M  END
$$$$
