PCW.pdb
     RDKit          3D

 28 30  0  0  1  0  0  0  0  0999 V2000
    8.9237  -14.3996   18.0895 N   0  0  0  0  0  0  0  0  0  0  0  0
    7.4880  -14.1703   17.9133 C   0  0  0  0  0  0  0  0  0  0  0  0
    7.1949  -12.9637   18.7840 C   0  0  0  0  0  0  0  0  0  0  0  0
    8.4081  -12.7438   19.6432 C   0  0  0  0  0  0  0  0  0  0  0  0
    9.1971  -14.0170   19.4402 C   0  0  1  0  0  0  0  0  0  0  0  0
    8.7844  -15.1009   20.3525 C   0  0  0  0  0  0  0  0  0  0  0  0
    7.8518  -14.8994   21.1629 O   0  0  0  0  0  0  0  0  0  0  0  0
    9.3984  -16.3918   20.3655 N   0  0  0  0  0  0  0  0  0  0  0  0
    9.3193  -17.2216   21.5411 C   0  0  1  0  0  0  0  0  0  0  0  0
   10.0170  -18.5475   21.2557 C   0  0  0  0  0  0  0  0  0  0  0  0
    9.7574  -19.6579   22.6750 S   0  0  0  0  0  0  0  0  0  0  0  0
    9.9993  -16.6167   22.7098 C   0  0  0  0  0  0  0  0  0  0  0  0
   10.9951  -15.8890   22.5132 O   0  0  0  0  0  0  0  0  0  0  0  0
    9.5247  -16.8628   24.0158 N   0  0  0  0  0  0  0  0  0  0  0  0
   10.2124  -16.3241   25.2140 C   0  0  1  0  0  0  0  0  0  0  0  0
    9.7751  -14.9001   25.3397 C   0  0  0  0  0  0  0  0  0  0  0  0
    8.3531  -14.6668   25.6169 C   0  0  0  0  0  0  0  0  0  0  0  0
    7.3843  -15.6609   25.5643 C   0  0  0  0  0  0  0  0  0  0  0  0
    6.2150  -15.0660   25.8397 N   0  0  0  0  0  0  0  0  0  0  0  0
    6.4086  -13.7554   26.0610 C   0  0  0  0  0  0  0  0  0  0  0  0
    5.5312  -12.7468   26.3903 C   0  0  0  0  0  0  0  0  0  0  0  0
    6.0160  -11.4616   26.5837 C   0  0  0  0  0  0  0  0  0  0  0  0
    7.3469  -11.1631   26.4564 C   0  0  0  0  0  0  0  0  0  0  0  0
    8.2107  -12.1614   26.1303 C   0  0  0  0  0  0  0  0  0  0  0  0
    7.7706  -13.4625   25.9267 C   0  0  0  0  0  0  0  0  0  0  0  0
    9.9200  -17.1051   26.4172 C   0  0  0  0  0  0  0  0  0  0  0  0
    9.0263  -18.0161   26.2894 O   0  0  0  0  0  0  0  0  0  0  0  0
   10.5528  -16.9073   27.6374 O   0  0  0  0  0  0  0  0  0  0  0  0
  1  5  1  0
  2  1  1  0
  2  3  1  0
  3  4  1  0
  5  4  1  0
  5  6  1  1
  6  7  2  0
  8  6  1  0
  9  8  1  0
  9 10  1  6
 11 10  1  0
 12  9  1  0
 13 12  2  0
 14 12  1  0
 15 14  1  0
 15 16  1  1
 17 16  1  0
 18 17  2  0
 19 20  1  0
 19 18  1  0
 20 25  2  0
 21 20  1  0
 21 22  2  0
 22 23  1  0
 23 24  2  0
 25 17  1  0
 25 24  1  0
 26 15  1  0
 27 26  2  0
 28 26  1  0
M  END
$$$$
