PCW.pdb
     RDKit          3D

 28 30  0  0  1  0  0  0  0  0999 V2000
    9.2955  -14.5033   18.2147 N   0  0  0  0  0  0  0  0  0  0  0  0
    7.9075  -14.4734   17.7484 C   0  0  0  0  0  0  0  0  0  0  0  0
    7.3818  -13.1358   18.2326 C   0  0  0  0  0  0  0  0  0  0  0  0
    8.3953  -12.5968   19.2027 C   0  0  0  0  0  0  0  0  0  0  0  0
    9.2851  -13.7922   19.4556 C   0  0  1  0  0  0  0  0  0  0  0  0
    8.7752  -14.6730   20.5239 C   0  0  0  0  0  0  0  0  0  0  0  0
    8.2726  -14.1641   21.5514 O   0  0  0  0  0  0  0  0  0  0  0  0
    8.8221  -16.1000   20.4536 N   0  0  0  0  0  0  0  0  0  0  0  0
    8.5506  -16.8941   21.6251 C   0  0  1  0  0  0  0  0  0  0  0  0
    8.5953  -18.3694   21.2411 C   0  0  0  0  0  0  0  0  0  0  0  0
    6.9500  -18.8628   20.6375 S   0  0  0  0  0  0  0  0  0  0  0  0
    9.5576  -16.6934   22.6929 C   0  0  0  0  0  0  0  0  0  0  0  0
   10.7677  -16.6978   22.3837 O   0  0  0  0  0  0  0  0  0  0  0  0
    9.1492  -16.5017   24.0300 N   0  0  0  0  0  0  0  0  0  0  0  0
   10.1272  -16.3598   25.1355 C   0  0  1  0  0  0  0  0  0  0  0  0
    9.7784  -15.0875   25.8386 C   0  0  0  0  0  0  0  0  0  0  0  0
    8.3507  -14.7780   25.9769 C   0  0  0  0  0  0  0  0  0  0  0  0
    7.3475  -15.7384   25.9489 C   0  0  0  0  0  0  0  0  0  0  0  0
    6.1870  -15.0783   26.0687 N   0  0  0  0  0  0  0  0  0  0  0  0
    6.4185  -13.7591   26.1703 C   0  0  0  0  0  0  0  0  0  0  0  0
    5.5621  -12.6922   26.3245 C   0  0  0  0  0  0  0  0  0  0  0  0
    6.0849  -11.4111   26.4241 C   0  0  0  0  0  0  0  0  0  0  0  0
    7.4330  -11.1733   26.3732 C   0  0  0  0  0  0  0  0  0  0  0  0
    8.2760  -12.2292   26.2199 C   0  0  0  0  0  0  0  0  0  0  0  0
    7.7980  -13.5286   26.1154 C   0  0  0  0  0  0  0  0  0  0  0  0
   10.1163  -17.5147   26.0350 C   0  0  0  0  0  0  0  0  0  0  0  0
   11.0559  -17.5533   26.9073 O   0  0  0  0  0  0  0  0  0  0  0  0
    9.1629  -18.5230   25.9837 O   0  0  0  0  0  0  0  0  0  0  0  0
  1  5  1  0
  2  1  1  0
  2  3  1  0
  3  4  1  0
  5  4  1  0
  5  6  1  1
  6  7  2  0
  8  6  1  0
  9  8  1  0
  9 10  1  6
 11 10  1  0
 12  9  1  0
 13 12  2  0
 14 12  1  0
 15 14  1  0
 15 16  1  1
 17 16  1  0
 18 17  2  0
 19 20  1  0
 19 18  1  0
 20 25  2  0
 21 20  1  0
 21 22  2  0
 22 23  1  0
 23 24  2  0
 25 17  1  0
 25 24  1  0
 26 15  1  0
 27 26  2  0
 28 26  1  0
M  END
$$$$
