PCW.pdb
     RDKit          3D

 28 30  0  0  1  0  0  0  0  0999 V2000
    7.5247  -18.9718   21.4736 N   0  0  0  0  0  0  0  0  0  0  0  0
    6.4150  -18.7096   20.5544 C   0  0  0  0  0  0  0  0  0  0  0  0
    6.9588  -19.1020   19.1942 C   0  0  0  0  0  0  0  0  0  0  0  0
    8.4414  -19.2870   19.3566 C   0  0  0  0  0  0  0  0  0  0  0  0
    8.7060  -18.6881   20.7190 C   0  0  1  0  0  0  0  0  0  0  0  0
    8.9232  -17.2293   20.6737 C   0  0  0  0  0  0  0  0  0  0  0  0
    9.7069  -16.7515   19.8223 O   0  0  0  0  0  0  0  0  0  0  0  0
    8.2793  -16.3122   21.5612 N   0  0  0  0  0  0  0  0  0  0  0  0
    8.9233  -15.0733   21.9177 C   0  0  1  0  0  0  0  0  0  0  0  0
    7.8565  -13.9990   22.1019 C   0  0  0  0  0  0  0  0  0  0  0  0
    6.3730  -14.7707   22.8220 S   0  0  0  0  0  0  0  0  0  0  0  0
    9.6685  -15.1676   23.1945 C   0  0  0  0  0  0  0  0  0  0  0  0
   10.5235  -14.2953   23.4551 O   0  0  0  0  0  0  0  0  0  0  0  0
    9.4111  -16.2251   24.0928 N   0  0  0  0  0  0  0  0  0  0  0  0
   10.2897  -16.4967   25.2560 C   0  0  1  0  0  0  0  0  0  0  0  0
    9.4572  -16.2498   26.4728 C   0  0  0  0  0  0  0  0  0  0  0  0
    8.1580  -15.6001   26.2648 C   0  0  0  0  0  0  0  0  0  0  0  0
    7.0045  -16.2825   25.9000 C   0  0  0  0  0  0  0  0  0  0  0  0
    6.0415  -15.3588   25.7721 N   0  0  0  0  0  0  0  0  0  0  0  0
    6.5378  -14.1396   26.0393 C   0  0  0  0  0  0  0  0  0  0  0  0
    5.9446  -12.8973   26.0567 C   0  0  0  0  0  0  0  0  0  0  0  0
    6.7046  -11.7868   26.3937 C   0  0  0  0  0  0  0  0  0  0  0  0
    8.0334  -11.8881   26.7109 C   0  0  0  0  0  0  0  0  0  0  0  0
    8.6164  -13.1165   26.6920 C   0  0  0  0  0  0  0  0  0  0  0  0
    7.8952  -14.2557   26.3602 C   0  0  0  0  0  0  0  0  0  0  0  0
   10.8444  -17.8511   25.2257 C   0  0  0  0  0  0  0  0  0  0  0  0
   11.7724  -18.0948   26.0768 O   0  0  0  0  0  0  0  0  0  0  0  0
   10.4159  -18.8403   24.3503 O   0  0  0  0  0  0  0  0  0  0  0  0
  1  5  1  0
  2  1  1  0
  2  3  1  0
  3  4  1  0
  5  4  1  0
  5  6  1  6
  6  7  2  0
  8  6  1  0
  9  8  1  0
  9 10  1  1
 11 10  1  0
 12  9  1  0
 13 12  2  0
 14 12  1  0
 15 14  1  0
 15 16  1  1
 17 16  1  0
 18 17  2  0
 19 20  1  0
 19 18  1  0
 20 25  2  0
 21 20  1  0
 21 22  2  0
 22 23  1  0
 23 24  2  0
 25 17  1  0
 25 24  1  0
 26 15  1  0
 27 26  2  0
 28 26  1  0
M  END
$$$$
