SWI.pdb
     RDKit          3D

 29 30  0  0  1  0  0  0  0  0999 V2000
   28.6754  -19.1771  -16.0963 O   0  0  0  0  0  0  0  0  0  0  0  0
   27.6806  -19.9434  -15.5123 C   0  0  0  0  0  0  0  0  0  0  0  0
   28.2868  -21.1027  -14.7408 C   0  0  2  0  0  0  0  0  0  0  0  0
   28.3093  -22.3135  -15.5260 N   0  0  0  0  0  0  0  0  0  0  0  0
   27.5477  -21.3706  -13.4900 C   0  0  0  0  0  0  0  0  0  0  0  0
   26.5051  -22.1097  -13.4883 O   0  0  0  0  0  0  0  0  0  0  0  0
   27.9349  -20.8395  -12.2379 N   0  0  0  0  0  0  0  0  0  0  0  0
   27.1622  -21.0849  -11.0540 C   0  0  1  0  0  0  0  0  0  0  0  0
   27.9206  -20.5946   -9.8491 C   0  0  0  0  0  0  0  0  0  0  0  0
   27.2095  -20.6673   -8.5802 C   0  0  0  0  0  0  0  0  0  0  0  0
   25.9109  -21.1501   -8.3462 C   0  0  0  0  0  0  0  0  0  0  0  0
   25.6353  -21.0851   -7.0450 N   0  0  0  0  0  0  0  0  0  0  0  0
   26.7012  -20.5770   -6.4075 C   0  0  0  0  0  0  0  0  0  0  0  0
   26.8864  -20.3151   -5.0646 C   0  0  0  0  0  0  0  0  0  0  0  0
   28.0558  -19.7776   -4.5910 C   0  0  0  0  0  0  0  0  0  0  0  0
   29.0509  -19.5007   -5.4857 C   0  0  0  0  0  0  0  0  0  0  0  0
   28.8538  -19.7696   -6.8428 C   0  0  0  0  0  0  0  0  0  0  0  0
   27.6851  -20.3118   -7.3422 C   0  0  0  0  0  0  0  0  0  0  0  0
   25.9094  -20.2923  -11.1363 C   0  0  0  0  0  0  0  0  0  0  0  0
   25.9701  -19.0394  -11.1858 O   0  0  0  0  0  0  0  0  0  0  0  0
   21.8045  -19.6773  -15.0720 C   0  0  0  0  0  0  0  0  0  0  0  0
   22.0640  -19.5814  -13.6222 C   0  0  0  0  0  0  0  0  0  0  0  0
   23.2330  -20.2384  -13.0292 C   0  0  2  0  0  0  0  0  0  0  0  0
   23.3867  -21.6882  -13.5021 C   0  0  0  0  0  0  0  0  0  0  0  0
   23.4103  -20.1028  -11.5732 C   0  0  2  0  0  0  0  0  0  0  0  0
   24.6249  -20.8757  -11.1631 N   0  0  0  0  0  0  0  0  0  0  0  0
   22.3825  -20.4556  -10.6401 C   0  0  0  0  0  0  0  0  0  0  0  0
   21.3613  -19.7873  -10.3921 O   0  0  0  0  0  0  0  0  0  0  0  0
   22.4692  -21.6564   -9.8991 O   0  0  0  0  0  0  0  0  0  0  0  0
  1  2  1  0
  2  3  1  0
  3  5  1  0
  3  4  1  6
  5  6  2  0
  7  8  1  0
  7  5  1  0
  8  9  1  1
 10 18  1  0
 10  9  1  0
 11 10  2  0
 12 11  1  0
 12 13  1  0
 13 18  2  0
 14 13  1  0
 14 15  2  0
 15 16  1  0
 16 17  2  0
 18 17  1  0
 19  8  1  0
 19 20  2  0
 21 22  1  0
 22 23  1  0
 23 25  1  0
 23 24  1  1
 25 27  1  0
 25 26  1  1
 26 19  1  0
 27 29  1  0
 28 27  2  0
M  END
$$$$
