SWI.pdb
     RDKit          3D

 29 30  0  0  1  0  0  0  0  0999 V2000
   30.2131  -19.0894  -18.0591 O   0  0  0  0  0  0  0  0  0  0  0  0
   28.8751  -19.3555  -17.8203 C   0  0  0  0  0  0  0  0  0  0  0  0
   28.0310  -18.1233  -18.0955 C   0  0  2  0  0  0  0  0  0  0  0  0
   28.8015  -16.9091  -17.9711 N   0  0  0  0  0  0  0  0  0  0  0  0
   26.8751  -18.0389  -17.1793 C   0  0  0  0  0  0  0  0  0  0  0  0
   26.8857  -17.2428  -16.1796 O   0  0  0  0  0  0  0  0  0  0  0  0
   25.7048  -18.8158  -17.3425 N   0  0  0  0  0  0  0  0  0  0  0  0
   24.5895  -18.6783  -16.4503 C   0  0  1  0  0  0  0  0  0  0  0  0
   23.3066  -18.7581  -17.2347 C   0  0  0  0  0  0  0  0  0  0  0  0
   22.0810  -18.6164  -16.4609 C   0  0  0  0  0  0  0  0  0  0  0  0
   21.7238  -17.5680  -15.5962 C   0  0  0  0  0  0  0  0  0  0  0  0
   20.5052  -17.7858  -15.1057 N   0  0  0  0  0  0  0  0  0  0  0  0
   20.0409  -18.9389  -15.6115 C   0  0  0  0  0  0  0  0  0  0  0  0
   18.8378  -19.5796  -15.3926 C   0  0  0  0  0  0  0  0  0  0  0  0
   18.5378  -20.7733  -15.9974 C   0  0  0  0  0  0  0  0  0  0  0  0
   19.4656  -21.3271  -16.8340 C   0  0  0  0  0  0  0  0  0  0  0  0
   20.6803  -20.6707  -17.0492 C   0  0  0  0  0  0  0  0  0  0  0  0
   21.0035  -19.4673  -16.4520 C   0  0  0  0  0  0  0  0  0  0  0  0
   24.5979  -19.8235  -15.5054 C   0  0  0  0  0  0  0  0  0  0  0  0
   24.8965  -20.9694  -15.9221 O   0  0  0  0  0  0  0  0  0  0  0  0
   27.7802  -20.1742  -11.6279 C   0  0  0  0  0  0  0  0  0  0  0  0
   26.7104  -20.4599  -12.6039 C   0  0  0  0  0  0  0  0  0  0  0  0
   25.3219  -20.6217  -12.1616 C   0  0  2  0  0  0  0  0  0  0  0  0
   25.1967  -21.5961  -10.9852 C   0  0  0  0  0  0  0  0  0  0  0  0
   24.3118  -20.8706  -13.2045 C   0  0  2  0  0  0  0  0  0  0  0  0
   24.2836  -19.6987  -14.1355 N   0  0  0  0  0  0  0  0  0  0  0  0
   22.9446  -21.1620  -12.8928 C   0  0  0  0  0  0  0  0  0  0  0  0
   22.4406  -22.2980  -12.8123 O   0  0  0  0  0  0  0  0  0  0  0  0
   22.0283  -20.1150  -12.6421 O   0  0  0  0  0  0  0  0  0  0  0  0
  1  2  1  0
  2  3  1  0
  3  5  1  0
  3  4  1  1
  5  6  2  0
  7  8  1  0
  7  5  1  0
  8  9  1  6
 10 18  1  0
 10  9  1  0
 11 10  2  0
 12 11  1  0
 12 13  1  0
 13 18  2  0
 14 13  1  0
 14 15  2  0
 15 16  1  0
 16 17  2  0
 18 17  1  0
 19  8  1  0
 19 20  2  0
 21 22  1  0
 22 23  1  0
 23 25  1  0
 23 24  1  1
 25 27  1  0
 25 26  1  6
 26 19  1  0
 27 29  1  0
 28 27  2  0
M  END
$$$$
