SWI.pdb
     RDKit          3D

 29 30  0  0  1  0  0  0  0  0999 V2000
   27.2936  -20.0512  -17.3374 O   0  0  0  0  0  0  0  0  0  0  0  0
   26.4391  -18.9800  -17.5387 C   0  0  0  0  0  0  0  0  0  0  0  0
   26.8792  -17.7862  -16.7094 C   0  0  2  0  0  0  0  0  0  0  0  0
   27.9561  -17.0634  -17.3429 N   0  0  0  0  0  0  0  0  0  0  0  0
   27.3204  -18.1933  -15.3595 C   0  0  0  0  0  0  0  0  0  0  0  0
   28.5626  -18.2989  -15.0782 O   0  0  0  0  0  0  0  0  0  0  0  0
   26.4186  -18.4873  -14.3107 N   0  0  0  0  0  0  0  0  0  0  0  0
   26.8868  -18.7780  -12.9859 C   0  0  1  0  0  0  0  0  0  0  0  0
   25.8249  -18.4056  -11.9854 C   0  0  0  0  0  0  0  0  0  0  0  0
   26.1949  -18.5523  -10.5845 C   0  0  0  0  0  0  0  0  0  0  0  0
   27.0636  -17.7432   -9.8330 C   0  0  0  0  0  0  0  0  0  0  0  0
   27.1124  -18.1823   -8.5768 N   0  0  0  0  0  0  0  0  0  0  0  0
   26.3097  -19.2520   -8.4668 C   0  0  0  0  0  0  0  0  0  0  0  0
   26.0407  -20.0466   -7.3702 C   0  0  0  0  0  0  0  0  0  0  0  0
   25.1893  -21.1188   -7.4501 C   0  0  0  0  0  0  0  0  0  0  0  0
   24.6024  -21.3919   -8.6536 C   0  0  0  0  0  0  0  0  0  0  0  0
   24.8809  -20.5816   -9.7575 C   0  0  0  0  0  0  0  0  0  0  0  0
   25.7339  -19.4960   -9.7001 C   0  0  0  0  0  0  0  0  0  0  0  0
   27.1017  -20.2427  -12.8728 C   0  0  0  0  0  0  0  0  0  0  0  0
   26.4188  -21.0261  -13.5769 O   0  0  0  0  0  0  0  0  0  0  0  0
   31.9695  -22.3498  -13.1059 C   0  0  0  0  0  0  0  0  0  0  0  0
   30.5135  -22.1128  -13.0560 C   0  0  0  0  0  0  0  0  0  0  0  0
   29.7256  -22.5547  -11.9012 C   0  0  2  0  0  0  0  0  0  0  0  0
   30.0517  -23.9955  -11.4925 C   0  0  0  0  0  0  0  0  0  0  0  0
   28.2754  -22.2994  -11.9429 C   0  0  2  0  0  0  0  0  0  0  0  0
   28.0495  -20.8207  -12.0018 N   0  0  0  0  0  0  0  0  0  0  0  0
   27.3808  -22.7972  -10.9413 C   0  0  0  0  0  0  0  0  0  0  0  0
   27.3345  -22.4246   -9.7539 O   0  0  0  0  0  0  0  0  0  0  0  0
   26.4386  -23.8024  -11.2582 O   0  0  0  0  0  0  0  0  0  0  0  0
  1  2  1  0
  2  3  1  0
  3  5  1  0
  3  4  1  6
  5  6  2  0
  7  8  1  0
  7  5  1  0
  8  9  1  1
 10 18  1  0
 10  9  1  0
 11 10  2  0
 12 11  1  0
 12 13  1  0
 13 18  2  0
 14 13  1  0
 14 15  2  0
 15 16  1  0
 16 17  2  0
 18 17  1  0
 19  8  1  0
 19 20  2  0
 21 22  1  0
 22 23  1  0
 23 25  1  0
 23 24  1  6
 25 27  1  0
 25 26  1  1
 26 19  1  0
 27 29  1  0
 28 27  2  0
M  END
$$$$
