SWI.pdb
     RDKit          3D

 29 30  0  0  1  0  0  0  0  0999 V2000
   12.6827  -21.2794    3.1724 O   0  0  0  0  0  0  0  0  0  0  0  0
   12.8250  -20.0128    2.6307 C   0  0  0  0  0  0  0  0  0  0  0  0
   14.1814  -19.8699    1.9626 C   0  0  2  0  0  0  0  0  0  0  0  0
   14.4431  -20.9549    1.0474 N   0  0  0  0  0  0  0  0  0  0  0  0
   15.2751  -19.8214    2.9547 C   0  0  0  0  0  0  0  0  0  0  0  0
   16.2341  -20.6653    2.9172 O   0  0  0  0  0  0  0  0  0  0  0  0
   15.3337  -18.8597    3.9898 N   0  0  0  0  0  0  0  0  0  0  0  0
   16.4826  -18.7531    4.8427 C   0  0  1  0  0  0  0  0  0  0  0  0
   16.8596  -17.3035    4.9978 C   0  0  0  0  0  0  0  0  0  0  0  0
   17.5265  -16.6965    3.8543 C   0  0  0  0  0  0  0  0  0  0  0  0
   17.8663  -17.3023    2.6329 C   0  0  0  0  0  0  0  0  0  0  0  0
   18.4314  -16.4045    1.8281 N   0  0  0  0  0  0  0  0  0  0  0  0
   18.4800  -15.2267    2.4694 C   0  0  0  0  0  0  0  0  0  0  0  0
   18.9809  -14.0109    2.0488 C   0  0  0  0  0  0  0  0  0  0  0  0
   18.9537  -12.9031    2.8568 C   0  0  0  0  0  0  0  0  0  0  0  0
   18.4138  -13.0254    4.1061 C   0  0  0  0  0  0  0  0  0  0  0  0
   17.9093  -14.2602    4.5225 C   0  0  0  0  0  0  0  0  0  0  0  0
   17.9249  -15.3888    3.7255 C   0  0  0  0  0  0  0  0  0  0  0  0
   16.1175  -19.2581    6.1903 C   0  0  0  0  0  0  0  0  0  0  0  0
   14.9634  -19.0512    6.6387 O   0  0  0  0  0  0  0  0  0  0  0  0
   18.6954  -23.7757    8.4858 C   0  0  0  0  0  0  0  0  0  0  0  0
   18.2967  -22.3691    8.2836 C   0  0  0  0  0  0  0  0  0  0  0  0
   16.8861  -21.9762    8.3580 C   0  0  2  0  0  0  0  0  0  0  0  0
   16.0116  -22.7613    7.3742 C   0  0  0  0  0  0  0  0  0  0  0  0
   16.5913  -20.5330    8.3403 C   0  0  2  0  0  0  0  0  0  0  0  0
   17.0101  -19.9734    7.0165 N   0  0  0  0  0  0  0  0  0  0  0  0
   17.1040  -19.6341    9.3305 C   0  0  0  0  0  0  0  0  0  0  0  0
   18.0192  -18.8066    9.1610 O   0  0  0  0  0  0  0  0  0  0  0  0
   16.5705  -19.6306   10.6397 O   0  0  0  0  0  0  0  0  0  0  0  0
  1  2  1  0
  2  3  1  0
  3  5  1  0
  3  4  1  6
  5  6  2  0
  7  8  1  0
  7  5  1  0
  8  9  1  1
 10 18  1  0
 10  9  1  0
 11 10  2  0
 12 11  1  0
 12 13  1  0
 13 18  2  0
 14 13  1  0
 14 15  2  0
 15 16  1  0
 16 17  2  0
 18 17  1  0
 19  8  1  0
 19 20  2  0
 21 22  1  0
 22 23  1  0
 23 25  1  0
 23 24  1  6
 25 27  1  0
 25 26  1  6
 26 19  1  0
 27 29  1  0
 28 27  2  0
M  END
$$$$
