SWI.pdb
     RDKit          3D

 29 30  0  0  1  0  0  0  0  0999 V2000
   28.7007  -20.0154  -18.3364 O   0  0  0  0  0  0  0  0  0  0  0  0
   27.6950  -20.4365  -17.4824 C   0  0  0  0  0  0  0  0  0  0  0  0
   28.2403  -21.4242  -16.4656 C   0  0  2  0  0  0  0  0  0  0  0  0
   28.4826  -22.7191  -17.0554 N   0  0  0  0  0  0  0  0  0  0  0  0
   27.3183  -21.5959  -15.3241 C   0  0  0  0  0  0  0  0  0  0  0  0
   26.3472  -22.4246  -15.3826 O   0  0  0  0  0  0  0  0  0  0  0  0
   27.4449  -20.8713  -14.1163 N   0  0  0  0  0  0  0  0  0  0  0  0
   26.5607  -21.1063  -13.0110 C   0  0  1  0  0  0  0  0  0  0  0  0
   27.1890  -20.5845  -11.7460 C   0  0  0  0  0  0  0  0  0  0  0  0
   26.4087  -20.7655  -10.5297 C   0  0  0  0  0  0  0  0  0  0  0  0
   25.2772  -21.5776  -10.3442 C   0  0  0  0  0  0  0  0  0  0  0  0
   24.8726  -21.5016   -9.0778 N   0  0  0  0  0  0  0  0  0  0  0  0
   25.6920  -20.6696   -8.4167 C   0  0  0  0  0  0  0  0  0  0  0  0
   25.6701  -20.2723   -7.0947 C   0  0  0  0  0  0  0  0  0  0  0  0
   26.5960  -19.3944   -6.5918 C   0  0  0  0  0  0  0  0  0  0  0  0
   27.5562  -18.9115   -7.4356 C   0  0  0  0  0  0  0  0  0  0  0  0
   27.5701  -19.3199   -8.7718 C   0  0  0  0  0  0  0  0  0  0  0  0
   26.6487  -20.2039   -9.2999 C   0  0  0  0  0  0  0  0  0  0  0  0
   25.3131  -20.3324  -13.2328 C   0  0  0  0  0  0  0  0  0  0  0  0
   25.3828  -19.1132  -13.5237 O   0  0  0  0  0  0  0  0  0  0  0  0
   22.7601  -20.4909  -17.2796 C   0  0  0  0  0  0  0  0  0  0  0  0
   23.1864  -20.1910  -15.8987 C   0  0  0  0  0  0  0  0  0  0  0  0
   22.2978  -20.4718  -14.7668 C   0  0  2  0  0  0  0  0  0  0  0  0
   20.8663  -19.9846  -15.0172 C   0  0  0  0  0  0  0  0  0  0  0  0
   22.7864  -20.1077  -13.4257 C   0  0  2  0  0  0  0  0  0  0  0  0
   24.0240  -20.8977  -13.1344 N   0  0  0  0  0  0  0  0  0  0  0  0
   21.9654  -20.2122  -12.2568 C   0  0  0  0  0  0  0  0  0  0  0  0
   21.8087  -21.2353  -11.5641 O   0  0  0  0  0  0  0  0  0  0  0  0
   21.2389  -19.0932  -11.7892 O   0  0  0  0  0  0  0  0  0  0  0  0
  1  2  1  0
  2  3  1  0
  3  5  1  0
  3  4  1  6
  5  6  2  0
  7  8  1  0
  7  5  1  0
  8  9  1  1
 10 18  1  0
 10  9  1  0
 11 10  2  0
 12 11  1  0
 12 13  1  0
 13 18  2  0
 14 13  1  0
 14 15  2  0
 15 16  1  0
 16 17  2  0
 18 17  1  0
 19  8  1  0
 19 20  2  0
 21 22  1  0
 22 23  1  0
 23 25  1  0
 23 24  1  6
 25 27  1  0
 25 26  1  1
 26 19  1  0
 27 29  1  0
 28 27  2  0
M  END
$$$$
