SWI.pdb
     RDKit          3D

 29 30  0  0  1  0  0  0  0  0999 V2000
   29.3201  -20.2107  -16.9534 O   0  0  0  0  0  0  0  0  0  0  0  0
   28.2638  -20.6518  -16.1740 C   0  0  0  0  0  0  0  0  0  0  0  0
   28.7430  -21.6763  -15.1603 C   0  0  2  0  0  0  0  0  0  0  0  0
   28.8362  -22.9959  -15.7376 N   0  0  0  0  0  0  0  0  0  0  0  0
   27.8477  -21.7419  -13.9869 C   0  0  0  0  0  0  0  0  0  0  0  0
   26.7721  -22.4314  -14.0188 O   0  0  0  0  0  0  0  0  0  0  0  0
   28.1140  -21.0616  -12.7762 N   0  0  0  0  0  0  0  0  0  0  0  0
   27.2417  -21.1877  -11.6440 C   0  0  1  0  0  0  0  0  0  0  0  0
   27.8649  -20.5101  -10.4524 C   0  0  0  0  0  0  0  0  0  0  0  0
   27.0252  -20.4158   -9.2662 C   0  0  0  0  0  0  0  0  0  0  0  0
   25.6245  -20.4992   -9.1927 C   0  0  0  0  0  0  0  0  0  0  0  0
   25.2350  -20.4042   -7.9229 N   0  0  0  0  0  0  0  0  0  0  0  0
   26.3237  -20.2602   -7.1517 C   0  0  0  0  0  0  0  0  0  0  0  0
   26.4245  -20.1158   -5.7824 C   0  0  0  0  0  0  0  0  0  0  0  0
   27.6387  -19.9684   -5.1619 C   0  0  0  0  0  0  0  0  0  0  0  0
   28.7654  -19.9663   -5.9350 C   0  0  0  0  0  0  0  0  0  0  0  0
   28.6529  -20.1133   -7.3201 C   0  0  0  0  0  0  0  0  0  0  0  0
   27.4410  -20.2645   -7.9664 C   0  0  0  0  0  0  0  0  0  0  0  0
   25.9753  -20.4725  -11.9427 C   0  0  0  0  0  0  0  0  0  0  0  0
   26.0069  -19.2538  -12.2420 O   0  0  0  0  0  0  0  0  0  0  0  0
   23.8415  -20.6352  -16.1515 C   0  0  0  0  0  0  0  0  0  0  0  0
   24.1054  -20.3476  -14.7281 C   0  0  0  0  0  0  0  0  0  0  0  0
   23.1313  -20.7235  -13.6988 C   0  0  2  0  0  0  0  0  0  0  0  0
   21.7012  -20.3239  -14.0787 C   0  0  0  0  0  0  0  0  0  0  0  0
   23.4594  -20.3721  -12.3064 C   0  0  2  0  0  0  0  0  0  0  0  0
   24.7092  -21.0945  -11.9102 N   0  0  0  0  0  0  0  0  0  0  0  0
   22.5339  -20.5620  -11.2299 C   0  0  0  0  0  0  0  0  0  0  0  0
   22.3258  -21.6314  -10.6266 O   0  0  0  0  0  0  0  0  0  0  0  0
   21.7531  -19.4823  -10.7576 O   0  0  0  0  0  0  0  0  0  0  0  0
  1  2  1  0
  2  3  1  0
  3  5  1  0
  3  4  1  6
  5  6  2  0
  7  8  1  0
  7  5  1  0
  8  9  1  1
 10 18  1  0
 10  9  1  0
 11 10  2  0
 12 11  1  0
 12 13  1  0
 13 18  2  0
 14 13  1  0
 14 15  2  0
 15 16  1  0
 16 17  2  0
 18 17  1  0
 19  8  1  0
 19 20  2  0
 21 22  1  0
 22 23  1  0
 23 25  1  0
 23 24  1  6
 25 27  1  0
 25 26  1  1
 26 19  1  0
 27 29  1  0
 28 27  2  0
M  END
$$$$
