SQT.pdb
     RDKit          3D

 23 22  0  0  1  0  0  0  0  0999 V2000
    1.8348  -19.4328   22.5119 O   0  0  0  0  0  0  0  0  0  0  0  0
    2.9366  -18.5818   22.5494 C   0  0  0  0  0  0  0  0  0  0  0  0
    3.5868  -18.5897   21.1842 C   0  0  2  0  0  0  0  0  0  0  0  0
    3.6201  -19.8919   20.5924 N   0  0  0  0  0  0  0  0  0  0  0  0
    4.9663  -18.0527   21.2708 C   0  0  0  0  0  0  0  0  0  0  0  0
    5.9333  -18.8443   21.3127 O   0  0  0  0  0  0  0  0  0  0  0  0
    7.1668  -12.7106   19.1724 N   0  0  0  0  0  0  0  0  0  0  0  0
    8.3349  -13.2521   19.7507 C   0  0  0  0  0  0  0  0  0  0  0  0
    9.4425  -12.7323   19.5366 O   0  0  0  0  0  0  0  0  0  0  0  0
    8.2287  -14.4408   20.6114 C   0  0  0  0  0  0  0  0  0  0  0  0
    6.8125  -14.8881   20.6358 C   0  0  0  0  0  0  0  0  0  0  0  0
    6.5823  -16.1770   21.3819 C   0  0  2  0  0  0  0  0  0  0  0  0
    5.2379  -16.6472   21.3088 N   0  0  0  0  0  0  0  0  0  0  0  0
    7.0615  -16.0245   22.7882 C   0  0  0  0  0  0  0  0  0  0  0  0
    6.4803  -15.3249   23.6435 O   0  0  0  0  0  0  0  0  0  0  0  0
    7.5223  -18.2772   25.6160 C   0  0  0  0  0  0  0  0  0  0  0  0
    8.8908  -17.9009   25.1365 C   0  0  1  0  0  0  0  0  0  0  0  0
    9.3576  -18.8648   24.2216 O   0  0  0  0  0  0  0  0  0  0  0  0
    8.8761  -16.5266   24.4625 C   0  0  2  0  0  0  0  0  0  0  0  0
    8.2433  -16.7127   23.1762 N   0  0  0  0  0  0  0  0  0  0  0  0
   10.2898  -16.1433   24.2177 C   0  0  0  0  0  0  0  0  0  0  0  0
   10.7609  -16.0538   23.0552 O   0  0  0  0  0  0  0  0  0  0  0  0
   11.1787  -15.8599   25.2607 O   0  0  0  0  0  0  0  0  0  0  0  0
  1  2  1  0
  2  3  1  0
  3  5  1  0
  3  4  1  1
  5  6  2  0
  7  8  1  0
  8  9  2  0
  8 10  1  0
 10 11  1  0
 12 11  1  1
 12 14  1  0
 13  5  1  0
 13 12  1  0
 14 20  1  0
 15 14  2  0
 17 18  1  0
 17 16  1  6
 19 17  1  0
 19 20  1  6
 21 23  1  0
 21 19  1  0
 22 21  2  0
M  END
$$$$
