SQT.pdb
     RDKit          3D

 23 22  0  0  1  0  0  0  0  0999 V2000
   10.1843  -16.7620   19.0736 O   0  0  0  0  0  0  0  0  0  0  0  0
   10.2552  -16.9595   20.4503 C   0  0  0  0  0  0  0  0  0  0  0  0
    9.1039  -17.8501   20.8602 C   0  0  2  0  0  0  0  0  0  0  0  0
    8.0753  -17.9199   19.8681 N   0  0  0  0  0  0  0  0  0  0  0  0
    8.5224  -17.3789   22.1403 C   0  0  0  0  0  0  0  0  0  0  0  0
    7.4739  -16.6980   22.1261 O   0  0  0  0  0  0  0  0  0  0  0  0
    6.4028  -20.8170   26.1705 N   0  0  0  0  0  0  0  0  0  0  0  0
    7.5237  -20.0602   26.5741 C   0  0  0  0  0  0  0  0  0  0  0  0
    7.6902  -19.7707   27.7705 O   0  0  0  0  0  0  0  0  0  0  0  0
    8.4957  -19.6162   25.5625 C   0  0  0  0  0  0  0  0  0  0  0  0
    8.7969  -18.1792   25.7875 C   0  0  0  0  0  0  0  0  0  0  0  0
    8.4739  -17.2875   24.6164 C   0  0  2  0  0  0  0  0  0  0  0  0
    9.1212  -17.6764   23.4066 N   0  0  0  0  0  0  0  0  0  0  0  0
    8.7536  -15.8678   24.9864 C   0  0  0  0  0  0  0  0  0  0  0  0
    9.8519  -15.3070   24.7912 O   0  0  0  0  0  0  0  0  0  0  0  0
    6.3806  -11.7210   26.3665 C   0  0  0  0  0  0  0  0  0  0  0  0
    6.3909  -13.1891   26.0688 C   0  0  1  0  0  0  0  0  0  0  0  0
    5.6240  -13.4476   24.9159 O   0  0  0  0  0  0  0  0  0  0  0  0
    7.8197  -13.6936   25.8516 C   0  0  2  0  0  0  0  0  0  0  0  0
    7.7140  -15.1120   25.5937 N   0  0  0  0  0  0  0  0  0  0  0  0
    8.5452  -13.5221   27.1360 C   0  0  0  0  0  0  0  0  0  0  0  0
    8.8945  -14.5061   27.8368 O   0  0  0  0  0  0  0  0  0  0  0  0
    8.8822  -12.2615   27.6416 O   0  0  0  0  0  0  0  0  0  0  0  0
  1  2  1  0
  2  3  1  0
  3  5  1  0
  3  4  1  6
  5  6  2  0
  7  8  1  0
  8  9  2  0
  8 10  1  0
 10 11  1  0
 12 11  1  1
 12 14  1  0
 13  5  1  0
 13 12  1  0
 14 20  1  0
 15 14  2  0
 17 18  1  0
 17 16  1  6
 19 17  1  0
 19 20  1  1
 21 23  1  0
 21 19  1  0
 22 21  2  0
M  END
$$$$
