SQT.pdb
     RDKit          3D

 23 22  0  0  1  0  0  0  0  0999 V2000
    6.7460  -16.9785   20.7646 O   0  0  0  0  0  0  0  0  0  0  0  0
    7.6971  -16.1246   20.2117 C   0  0  0  0  0  0  0  0  0  0  0  0
    8.9392  -16.9325   19.9097 C   0  0  2  0  0  0  0  0  0  0  0  0
    8.6567  -18.1388   19.1940 N   0  0  0  0  0  0  0  0  0  0  0  0
    9.6543  -17.2615   21.1665 C   0  0  0  0  0  0  0  0  0  0  0  0
    9.4113  -18.3413   21.7481 O   0  0  0  0  0  0  0  0  0  0  0  0
   15.6331  -16.6800   20.7452 N   0  0  0  0  0  0  0  0  0  0  0  0
   14.9207  -16.5017   21.9505 C   0  0  0  0  0  0  0  0  0  0  0  0
   15.3711  -15.7672   22.8452 O   0  0  0  0  0  0  0  0  0  0  0  0
   13.6366  -17.1952   22.1381 C   0  0  0  0  0  0  0  0  0  0  0  0
   12.7504  -16.3430   22.9716 C   0  0  0  0  0  0  0  0  0  0  0  0
   11.2992  -16.7483   22.9476 C   0  0  2  0  0  0  0  0  0  0  0  0
   10.6232  -16.3812   21.7468 N   0  0  0  0  0  0  0  0  0  0  0  0
   10.6212  -16.2247   24.1711 C   0  0  0  0  0  0  0  0  0  0  0  0
   10.6288  -15.0211   24.5030 O   0  0  0  0  0  0  0  0  0  0  0  0
    7.2185  -15.9261   25.1840 C   0  0  0  0  0  0  0  0  0  0  0  0
    7.8065  -16.9789   26.0728 C   0  0  1  0  0  0  0  0  0  0  0  0
    7.5804  -18.2533   25.5171 O   0  0  0  0  0  0  0  0  0  0  0  0
    9.3111  -16.7641   26.2545 C   0  0  2  0  0  0  0  0  0  0  0  0
    9.9290  -17.1451   25.0044 N   0  0  0  0  0  0  0  0  0  0  0  0
    9.7684  -17.7220   27.2932 C   0  0  0  0  0  0  0  0  0  0  0  0
   10.5368  -18.6792   27.0203 O   0  0  0  0  0  0  0  0  0  0  0  0
    9.3736  -17.6178   28.6317 O   0  0  0  0  0  0  0  0  0  0  0  0
  1  2  1  0
  2  3  1  0
  3  5  1  0
  3  4  1  1
  5  6  2  0
  7  8  1  0
  8  9  2  0
  8 10  1  0
 10 11  1  0
 12 11  1  6
 12 14  1  0
 13  5  1  0
 13 12  1  0
 14 20  1  0
 15 14  2  0
 17 18  1  0
 17 16  1  6
 19 17  1  0
 19 20  1  6
 21 23  1  0
 21 19  1  0
 22 21  2  0
M  END
$$$$
