SQT.pdb
     RDKit          3D

 23 22  0  0  1  0  0  0  0  0999 V2000
    5.6420  -19.1542   19.3139 O   0  0  0  0  0  0  0  0  0  0  0  0
    5.3544  -20.0540   20.3373 C   0  0  0  0  0  0  0  0  0  0  0  0
    4.2260  -19.4824   21.1661 C   0  0  2  0  0  0  0  0  0  0  0  0
    3.3622  -18.6260   20.4127 N   0  0  0  0  0  0  0  0  0  0  0  0
    4.7698  -18.7361   22.3263 C   0  0  0  0  0  0  0  0  0  0  0  0
    4.3748  -17.5708   22.5483 O   0  0  0  0  0  0  0  0  0  0  0  0
    7.4860  -21.0099   27.4412 N   0  0  0  0  0  0  0  0  0  0  0  0
    7.4775  -19.6300   27.7377 C   0  0  0  0  0  0  0  0  0  0  0  0
    7.8855  -19.2197   28.8368 O   0  0  0  0  0  0  0  0  0  0  0  0
    6.9799  -18.6796   26.7306 C   0  0  0  0  0  0  0  0  0  0  0  0
    6.5922  -19.4343   25.5115 C   0  0  0  0  0  0  0  0  0  0  0  0
    6.1985  -18.5665   24.3442 C   0  0  2  0  0  0  0  0  0  0  0  0
    5.7406  -19.3040   23.2128 N   0  0  0  0  0  0  0  0  0  0  0  0
    7.3272  -17.6467   24.0113 C   0  0  0  0  0  0  0  0  0  0  0  0
    8.3598  -18.0101   23.4108 O   0  0  0  0  0  0  0  0  0  0  0  0
    6.6486  -13.8733   22.7992 C   0  0  0  0  0  0  0  0  0  0  0  0
    7.5155  -13.9497   24.0185 C   0  0  1  0  0  0  0  0  0  0  0  0
    6.7299  -13.7743   25.1744 O   0  0  0  0  0  0  0  0  0  0  0  0
    8.2359  -15.2982   24.0944 C   0  0  2  0  0  0  0  0  0  0  0  0
    7.2222  -16.2829   24.3984 N   0  0  0  0  0  0  0  0  0  0  0  0
    9.1638  -15.2350   25.2522 C   0  0  0  0  0  0  0  0  0  0  0  0
    9.0031  -15.9544   26.2709 O   0  0  0  0  0  0  0  0  0  0  0  0
   10.2676  -14.3752   25.2793 O   0  0  0  0  0  0  0  0  0  0  0  0
  1  2  1  0
  2  3  1  0
  3  5  1  0
  3  4  1  6
  5  6  2  0
  7  8  1  0
  8  9  2  0
  8 10  1  0
 10 11  1  0
 12 11  1  1
 12 14  1  0
 13  5  1  0
 13 12  1  0
 14 20  1  0
 15 14  2  0
 17 18  1  0
 17 16  1  6
 19 17  1  0
 19 20  1  1
 21 23  1  0
 21 19  1  0
 22 21  2  0
M  END
$$$$
