SQT.pdb
     RDKit          3D

 23 22  0  0  1  0  0  0  0  0999 V2000
    8.3937  -13.7706   18.4629 O   0  0  0  0  0  0  0  0  0  0  0  0
    7.9862  -13.9318   19.7848 C   0  0  0  0  0  0  0  0  0  0  0  0
    7.9878  -15.4102   20.1032 C   0  0  2  0  0  0  0  0  0  0  0  0
    6.8964  -16.1098   19.4977 N   0  0  0  0  0  0  0  0  0  0  0  0
    7.9525  -15.6180   21.5710 C   0  0  0  0  0  0  0  0  0  0  0  0
    6.8499  -15.6774   22.1577 O   0  0  0  0  0  0  0  0  0  0  0  0
   11.7866  -18.9451   24.9328 N   0  0  0  0  0  0  0  0  0  0  0  0
   10.9950  -18.4120   25.9727 C   0  0  0  0  0  0  0  0  0  0  0  0
   11.1566  -18.7909   27.1445 O   0  0  0  0  0  0  0  0  0  0  0  0
    9.9740  -17.4010   25.6553 C   0  0  0  0  0  0  0  0  0  0  0  0
   10.0245  -17.1114   24.1994 C   0  0  0  0  0  0  0  0  0  0  0  0
    9.0614  -16.0448   23.7458 C   0  0  2  0  0  0  0  0  0  0  0  0
    9.1449  -15.7550   22.3519 N   0  0  0  0  0  0  0  0  0  0  0  0
    9.2359  -14.8295   24.5962 C   0  0  0  0  0  0  0  0  0  0  0  0
   10.2934  -14.1676   24.6458 O   0  0  0  0  0  0  0  0  0  0  0  0
    6.7166  -11.7564   25.1411 C   0  0  0  0  0  0  0  0  0  0  0  0
    6.8740  -12.6251   26.3513 C   0  0  1  0  0  0  0  0  0  0  0  0
    5.8527  -13.5949   26.3787 O   0  0  0  0  0  0  0  0  0  0  0  0
    8.2364  -13.3229   26.3510 C   0  0  2  0  0  0  0  0  0  0  0  0
    8.1395  -14.4013   25.3933 N   0  0  0  0  0  0  0  0  0  0  0  0
    8.4189  -13.9288   27.6945 C   0  0  0  0  0  0  0  0  0  0  0  0
    8.5267  -13.2243   28.7306 O   0  0  0  0  0  0  0  0  0  0  0  0
    8.4817  -15.3134   27.8878 O   0  0  0  0  0  0  0  0  0  0  0  0
  1  2  1  0
  2  3  1  0
  3  5  1  0
  3  4  1  6
  5  6  2  0
  7  8  1  0
  8  9  2  0
  8 10  1  0
 10 11  1  0
 12 11  1  1
 12 14  1  0
 13  5  1  0
 13 12  1  0
 14 20  1  0
 15 14  2  0
 17 18  1  0
 17 16  1  6
 19 17  1  0
 19 20  1  6
 21 23  1  0
 21 19  1  0
 22 21  2  0
M  END
$$$$
