SQT.pdb
     RDKit          3D

 23 22  0  0  1  0  0  0  0  0999 V2000
   11.8007  -16.4143   18.2144 O   0  0  0  0  0  0  0  0  0  0  0  0
   12.0791  -16.8150   19.5189 C   0  0  0  0  0  0  0  0  0  0  0  0
   13.3963  -17.5577   19.5144 C   0  0  2  0  0  0  0  0  0  0  0  0
   13.3254  -18.8101   18.8260 N   0  0  0  0  0  0  0  0  0  0  0  0
   13.8608  -17.7852   20.9041 C   0  0  0  0  0  0  0  0  0  0  0  0
   13.3406  -18.6954   21.5855 O   0  0  0  0  0  0  0  0  0  0  0  0
   19.2861  -16.2259   23.4775 N   0  0  0  0  0  0  0  0  0  0  0  0
   18.6581  -16.8705   24.5647 C   0  0  0  0  0  0  0  0  0  0  0  0
   19.2862  -17.0927   25.6130 O   0  0  0  0  0  0  0  0  0  0  0  0
   17.2492  -17.2779   24.4450 C   0  0  0  0  0  0  0  0  0  0  0  0
   16.7430  -16.8617   23.1121 C   0  0  0  0  0  0  0  0  0  0  0  0
   15.3144  -17.2569   22.8405 C   0  0  2  0  0  0  0  0  0  0  0  0
   14.8933  -16.9945   21.5035 N   0  0  0  0  0  0  0  0  0  0  0  0
   14.4253  -16.6202   23.8577 C   0  0  0  0  0  0  0  0  0  0  0  0
   14.5283  -15.4284   24.2155 O   0  0  0  0  0  0  0  0  0  0  0  0
   10.8063  -16.0972   23.8414 C   0  0  0  0  0  0  0  0  0  0  0  0
   11.0934  -17.0900   24.9258 C   0  0  1  0  0  0  0  0  0  0  0  0
   10.9483  -18.3987   24.4253 O   0  0  0  0  0  0  0  0  0  0  0  0
   12.5122  -16.9098   25.4715 C   0  0  2  0  0  0  0  0  0  0  0  0
   13.4055  -17.4123   24.4522 N   0  0  0  0  0  0  0  0  0  0  0  0
   12.6409  -17.7931   26.6584 C   0  0  0  0  0  0  0  0  0  0  0  0
   13.3664  -18.8200   26.6452 O   0  0  0  0  0  0  0  0  0  0  0  0
   11.9658  -17.5372   27.8572 O   0  0  0  0  0  0  0  0  0  0  0  0
  1  2  1  0
  2  3  1  0
  3  5  1  0
  3  4  1  1
  5  6  2  0
  7  8  1  0
  8  9  2  0
  8 10  1  0
 10 11  1  0
 12 11  1  6
 12 14  1  0
 13  5  1  0
 13 12  1  0
 14 20  1  0
 15 14  2  0
 17 18  1  0
 17 16  1  6
 19 17  1  0
 19 20  1  6
 21 23  1  0
 21 19  1  0
 22 21  2  0
M  END
$$$$
