SQT.pdb
     RDKit          3D

 23 22  0  0  1  0  0  0  0  0999 V2000
    8.9443  -14.8037   18.5391 O   0  0  0  0  0  0  0  0  0  0  0  0
    8.2720  -14.5354   19.7289 C   0  0  0  0  0  0  0  0  0  0  0  0
    7.6036  -15.8102   20.1921 C   0  0  2  0  0  0  0  0  0  0  0  0
    6.4286  -16.1265   19.4393 N   0  0  0  0  0  0  0  0  0  0  0  0
    7.2556  -15.7127   21.6303 C   0  0  0  0  0  0  0  0  0  0  0  0
    6.2057  -15.1254   21.9709 O   0  0  0  0  0  0  0  0  0  0  0  0
    8.3481  -19.8801   25.9305 N   0  0  0  0  0  0  0  0  0  0  0  0
    7.7070  -18.9028   26.7216 C   0  0  0  0  0  0  0  0  0  0  0  0
    7.3894  -19.1527   27.8962 O   0  0  0  0  0  0  0  0  0  0  0  0
    7.4174  -17.5820   26.1412 C   0  0  0  0  0  0  0  0  0  0  0  0
    7.9018  -17.5604   24.7372 C   0  0  0  0  0  0  0  0  0  0  0  0
    7.6497  -16.2624   24.0145 C   0  0  2  0  0  0  0  0  0  0  0  0
    8.0841  -16.2710   22.6562 N   0  0  0  0  0  0  0  0  0  0  0  0
    8.2421  -15.1383   24.7995 C   0  0  0  0  0  0  0  0  0  0  0  0
    9.4460  -14.8131   24.7388 O   0  0  0  0  0  0  0  0  0  0  0  0
    6.2723  -11.6287   25.5584 C   0  0  0  0  0  0  0  0  0  0  0  0
    6.6465  -12.4240   26.7714 C   0  0  1  0  0  0  0  0  0  0  0  0
    5.5617  -13.2311   27.1663 O   0  0  0  0  0  0  0  0  0  0  0  0
    7.8628  -13.3102   26.4913 C   0  0  2  0  0  0  0  0  0  0  0  0
    7.3906  -14.3969   25.6632 N   0  0  0  0  0  0  0  0  0  0  0  0
    8.2929  -13.8877   27.7901 C   0  0  0  0  0  0  0  0  0  0  0  0
    8.2599  -15.1256   28.0088 O   0  0  0  0  0  0  0  0  0  0  0  0
    8.7585  -13.0933   28.8438 O   0  0  0  0  0  0  0  0  0  0  0  0
  1  2  1  0
  2  3  1  0
  3  5  1  0
  3  4  1  6
  5  6  2  0
  7  8  1  0
  8  9  2  0
  8 10  1  0
 10 11  1  0
 12 11  1  1
 12 14  1  0
 13  5  1  0
 13 12  1  0
 14 20  1  0
 15 14  2  0
 17 18  1  0
 17 16  1  6
 19 17  1  0
 19 20  1  6
 21 23  1  0
 21 19  1  0
 22 21  2  0
M  END
$$$$
