SQT.pdb
     RDKit          3D

 23 22  0  0  1  0  0  0  0  0999 V2000
    6.1152  -21.2678   20.9089 O   0  0  0  0  0  0  0  0  0  0  0  0
    5.5900  -21.9820   21.9830 C   0  0  0  0  0  0  0  0  0  0  0  0
    4.4464  -21.1838   22.5677 C   0  0  2  0  0  0  0  0  0  0  0  0
    3.3796  -20.9782   21.6366 N   0  0  0  0  0  0  0  0  0  0  0  0
    4.9345  -19.8712   23.0552 C   0  0  0  0  0  0  0  0  0  0  0  0
    4.4688  -18.8202   22.5633 O   0  0  0  0  0  0  0  0  0  0  0  0
    7.2535  -18.4809   28.5940 N   0  0  0  0  0  0  0  0  0  0  0  0
    8.2237  -19.0835   27.7648 C   0  0  0  0  0  0  0  0  0  0  0  0
    9.2731  -19.5369   28.2506 O   0  0  0  0  0  0  0  0  0  0  0  0
    7.9804  -19.1700   26.3162 C   0  0  0  0  0  0  0  0  0  0  0  0
    6.7204  -18.4499   25.9994 C   0  0  0  0  0  0  0  0  0  0  0  0
    6.3427  -18.4741   24.5408 C   0  0  2  0  0  0  0  0  0  0  0  0
    5.9296  -19.7585   24.0788 N   0  0  0  0  0  0  0  0  0  0  0  0
    7.4627  -17.9061   23.7323 C   0  0  0  0  0  0  0  0  0  0  0  0
    8.3752  -18.5982   23.2350 O   0  0  0  0  0  0  0  0  0  0  0  0
    6.7167  -14.7851   21.3245 C   0  0  0  0  0  0  0  0  0  0  0  0
    7.8827  -14.5340   22.2308 C   0  0  1  0  0  0  0  0  0  0  0  0
    7.4662  -13.7830   23.3473 O   0  0  0  0  0  0  0  0  0  0  0  0
    8.4997  -15.8515   22.7070 C   0  0  2  0  0  0  0  0  0  0  0  0
    7.4934  -16.5015   23.5160 N   0  0  0  0  0  0  0  0  0  0  0  0
    9.6383  -15.5064   23.5958 C   0  0  0  0  0  0  0  0  0  0  0  0
    9.6194  -15.7616   24.8270 O   0  0  0  0  0  0  0  0  0  0  0  0
   10.7951  -14.8796   23.1194 O   0  0  0  0  0  0  0  0  0  0  0  0
  1  2  1  0
  2  3  1  0
  3  5  1  0
  3  4  1  6
  5  6  2  0
  7  8  1  0
  8  9  2  0
  8 10  1  0
 10 11  1  0
 12 11  1  1
 12 14  1  0
 13  5  1  0
 13 12  1  0
 14 20  1  0
 15 14  2  0
 17 18  1  0
 17 16  1  6
 19 17  1  0
 19 20  1  1
 21 23  1  0
 21 19  1  0
 22 21  2  0
M  END
$$$$
