AGF.pdb
     RDKit          3D

 21 21  0  0  1  0  0  0  0  0999 V2000
    7.8928  -18.0654   18.0642 C   0  0  0  0  0  0  0  0  0  0  0  0
    8.2436  -18.0931   19.5457 C   0  0  2  0  0  0  0  0  0  0  0  0
    7.2273  -18.7476   20.3214 N   0  0  0  0  0  0  0  0  0  0  0  0
    8.4718  -16.7278   20.0756 C   0  0  0  0  0  0  0  0  0  0  0  0
    9.4629  -16.0731   19.6809 O   0  0  0  0  0  0  0  0  0  0  0  0
    7.5843  -16.1733   21.0123 N   0  0  0  0  0  0  0  0  0  0  0  0
    7.7805  -14.8856   21.6425 C   0  0  0  0  0  0  0  0  0  0  0  0
    8.4888  -15.0788   22.9159 C   0  0  0  0  0  0  0  0  0  0  0  0
    9.7429  -14.8286   22.9412 O   0  0  0  0  0  0  0  0  0  0  0  0
    7.8350  -15.5259   24.0941 N   0  0  0  0  0  0  0  0  0  0  0  0
    8.5976  -15.6166   25.3099 C   0  0  1  0  0  0  0  0  0  0  0  0
    7.8001  -15.2485   26.5203 C   0  0  0  0  0  0  0  0  0  0  0  0
    7.3465  -13.8573   26.4163 C   0  0  0  0  0  0  0  0  0  0  0  0
    6.0564  -13.5554   26.0505 C   0  0  0  0  0  0  0  0  0  0  0  0
    5.5792  -12.2576   25.9617 C   0  0  0  0  0  0  0  0  0  0  0  0
    6.4642  -11.2283   26.2611 C   0  0  0  0  0  0  0  0  0  0  0  0
    7.7625  -11.5083   26.6302 C   0  0  0  0  0  0  0  0  0  0  0  0
    8.1980  -12.8211   26.7063 C   0  0  0  0  0  0  0  0  0  0  0  0
    9.2323  -16.9383   25.3925 C   0  0  0  0  0  0  0  0  0  0  0  0
   10.0200  -17.3123   26.2928 O   0  0  0  0  0  0  0  0  0  0  0  0
    8.9653  -17.8940   24.4058 O   0  0  0  0  0  0  0  0  0  0  0  0
  2  1  1  6
  2  3  1  0
  4  2  1  0
  4  5  2  0
  6  4  1  0
  7  6  1  0
  8 10  1  0
  8  7  1  0
  9  8  2  0
 11 12  1  1
 11 10  1  0
 12 13  1  0
 13 14  2  0
 13 18  1  0
 14 15  1  0
 15 16  2  0
 17 16  1  0
 18 17  2  0
 19 11  1  0
 20 19  2  0
 21 19  1  0
M  END
$$$$
