AGF.pdb
     RDKit          3D

 21 21  0  0  1  0  0  0  0  0999 V2000
    5.0145  -19.4117   19.6881 C   0  0  0  0  0  0  0  0  0  0  0  0
    6.0213  -19.2106   20.8127 C   0  0  2  0  0  0  0  0  0  0  0  0
    5.4193  -19.3890   22.1045 N   0  0  0  0  0  0  0  0  0  0  0  0
    6.6568  -17.8735   20.7404 C   0  0  0  0  0  0  0  0  0  0  0  0
    7.6150  -17.6900   19.9563 O   0  0  0  0  0  0  0  0  0  0  0  0
    6.1882  -16.8214   21.5444 N   0  0  0  0  0  0  0  0  0  0  0  0
    6.6887  -15.4659   21.4679 C   0  0  0  0  0  0  0  0  0  0  0  0
    7.8640  -15.3396   22.3415 C   0  0  0  0  0  0  0  0  0  0  0  0
    9.0132  -15.2718   21.7839 O   0  0  0  0  0  0  0  0  0  0  0  0
    7.7630  -15.2918   23.7567 N   0  0  0  0  0  0  0  0  0  0  0  0
    8.9732  -15.2064   24.5288 C   0  0  1  0  0  0  0  0  0  0  0  0
    9.3236  -13.8005   24.8993 C   0  0  0  0  0  0  0  0  0  0  0  0
    8.2200  -13.1911   25.6494 C   0  0  0  0  0  0  0  0  0  0  0  0
    8.2380  -13.1370   27.0228 C   0  0  0  0  0  0  0  0  0  0  0  0
    7.2291  -12.5513   27.7702 C   0  0  0  0  0  0  0  0  0  0  0  0
    6.1579  -11.9986   27.0777 C   0  0  0  0  0  0  0  0  0  0  0  0
    6.1194  -12.0416   25.7004 C   0  0  0  0  0  0  0  0  0  0  0  0
    7.1502  -12.6374   24.9923 C   0  0  0  0  0  0  0  0  0  0  0  0
    8.8894  -16.1223   25.6737 C   0  0  0  0  0  0  0  0  0  0  0  0
    7.8813  -16.7935   25.9962 O   0  0  0  0  0  0  0  0  0  0  0  0
   10.0036  -16.2927   26.5031 O   0  0  0  0  0  0  0  0  0  0  0  0
  2  1  1  6
  2  3  1  0
  4  2  1  0
  4  5  2  0
  6  4  1  0
  7  6  1  0
  8 10  1  0
  8  7  1  0
  9  8  2  0
 11 12  1  1
 11 10  1  0
 12 13  1  0
 13 14  2  0
 13 18  1  0
 14 15  1  0
 15 16  2  0
 17 16  1  0
 18 17  2  0
 19 11  1  0
 20 19  2  0
 21 19  1  0
M  END
$$$$
