AGF.pdb
     RDKit          3D

 21 21  0  0  1  0  0  0  0  0999 V2000
    7.7723  -12.9110   17.8836 C   0  0  0  0  0  0  0  0  0  0  0  0
    8.6778  -13.6535   18.8571 C   0  0  2  0  0  0  0  0  0  0  0  0
    9.1669  -14.8826   18.2977 N   0  0  0  0  0  0  0  0  0  0  0  0
    7.9866  -13.9305   20.1387 C   0  0  0  0  0  0  0  0  0  0  0  0
    7.5935  -12.9742   20.8441 O   0  0  0  0  0  0  0  0  0  0  0  0
    7.7745  -15.2541   20.5581 N   0  0  0  0  0  0  0  0  0  0  0  0
    7.0006  -15.6135   21.7268 C   0  0  0  0  0  0  0  0  0  0  0  0
    7.8949  -15.6791   22.8914 C   0  0  0  0  0  0  0  0  0  0  0  0
    9.1450  -15.4978   22.6905 O   0  0  0  0  0  0  0  0  0  0  0  0
    7.4214  -15.9326   24.2055 N   0  0  0  0  0  0  0  0  0  0  0  0
    8.3612  -15.8933   25.2933 C   0  0  1  0  0  0  0  0  0  0  0  0
    7.7464  -15.4158   26.5703 C   0  0  0  0  0  0  0  0  0  0  0  0
    7.3302  -14.0159   26.4323 C   0  0  0  0  0  0  0  0  0  0  0  0
    6.0567  -13.6169   26.7615 C   0  0  0  0  0  0  0  0  0  0  0  0
    5.6278  -12.3026   26.6684 C   0  0  0  0  0  0  0  0  0  0  0  0
    6.5454  -11.3602   26.2186 C   0  0  0  0  0  0  0  0  0  0  0  0
    7.8278  -11.7384   25.8830 C   0  0  0  0  0  0  0  0  0  0  0  0
    8.2147  -13.0641   25.9912 C   0  0  0  0  0  0  0  0  0  0  0  0
    9.0359  -17.1928   25.4050 C   0  0  0  0  0  0  0  0  0  0  0  0
    8.5894  -18.2835   24.9783 O   0  0  0  0  0  0  0  0  0  0  0  0
   10.2843  -17.2697   26.0325 O   0  0  0  0  0  0  0  0  0  0  0  0
  2  1  1  6
  2  3  1  0
  4  2  1  0
  4  5  2  0
  6  4  1  0
  7  6  1  0
  8 10  1  0
  8  7  1  0
  9  8  2  0
 11 12  1  1
 11 10  1  0
 12 13  1  0
 13 14  2  0
 13 18  1  0
 14 15  1  0
 15 16  2  0
 17 16  1  0
 18 17  2  0
 19 11  1  0
 20 19  2  0
 21 19  1  0
M  END
$$$$
