AGF.pdb
     RDKit          3D

 21 21  0  0  1  0  0  0  0  0999 V2000
    6.1702  -15.2069   19.9583 C   0  0  0  0  0  0  0  0  0  0  0  0
    7.1186  -16.3230   20.3752 C   0  0  2  0  0  0  0  0  0  0  0  0
    6.5629  -17.1294   21.4257 N   0  0  0  0  0  0  0  0  0  0  0  0
    8.4334  -15.7877   20.8015 C   0  0  0  0  0  0  0  0  0  0  0  0
    9.2303  -15.3556   19.9384 O   0  0  0  0  0  0  0  0  0  0  0  0
    8.7825  -15.7654   22.1618 N   0  0  0  0  0  0  0  0  0  0  0  0
   10.0569  -15.2924   22.6578 C   0  0  0  0  0  0  0  0  0  0  0  0
   10.0904  -15.4505   24.1188 C   0  0  0  0  0  0  0  0  0  0  0  0
   11.1530  -15.0865   24.7307 O   0  0  0  0  0  0  0  0  0  0  0  0
    9.0005  -15.9844   24.8552 N   0  0  0  0  0  0  0  0  0  0  0  0
    9.1413  -16.1340   26.2785 C   0  0  1  0  0  0  0  0  0  0  0  0
    7.9001  -15.7592   27.0238 C   0  0  0  0  0  0  0  0  0  0  0  0
    7.5120  -14.3845   26.6898 C   0  0  0  0  0  0  0  0  0  0  0  0
    6.5428  -14.1277   25.7496 C   0  0  0  0  0  0  0  0  0  0  0  0
    6.1293  -12.8471   25.4195 C   0  0  0  0  0  0  0  0  0  0  0  0
    6.7369  -11.7874   26.0829 C   0  0  0  0  0  0  0  0  0  0  0  0
    7.7111  -12.0220   27.0295 C   0  0  0  0  0  0  0  0  0  0  0  0
    8.0944  -13.3191   27.3289 C   0  0  0  0  0  0  0  0  0  0  0  0
    9.6359  -17.4829   26.5826 C   0  0  0  0  0  0  0  0  0  0  0  0
    9.9005  -17.9200   27.7271 O   0  0  0  0  0  0  0  0  0  0  0  0
    9.8446  -18.3920   25.5395 O   0  0  0  0  0  0  0  0  0  0  0  0
  2  1  1  1
  2  3  1  0
  4  2  1  0
  4  5  2  0
  6  4  1  0
  7  6  1  0
  8 10  1  0
  8  7  1  0
  9  8  2  0
 11 12  1  1
 11 10  1  0
 12 13  1  0
 13 14  2  0
 13 18  1  0
 14 15  1  0
 15 16  2  0
 17 16  1  0
 18 17  2  0
 19 11  1  0
 20 19  2  0
 21 19  1  0
M  END
$$$$
