AGF.pdb
     RDKit          3D

 21 21  0  0  1  0  0  0  0  0999 V2000
    6.3262  -14.1069   21.2636 C   0  0  0  0  0  0  0  0  0  0  0  0
    6.9585  -15.4844   21.1165 C   0  0  2  0  0  0  0  0  0  0  0  0
    6.3710  -16.4386   22.0149 N   0  0  0  0  0  0  0  0  0  0  0  0
    8.4242  -15.4352   21.3321 C   0  0  0  0  0  0  0  0  0  0  0  0
    9.1345  -14.7417   20.5697 O   0  0  0  0  0  0  0  0  0  0  0  0
    9.0111  -16.1601   22.3822 N   0  0  0  0  0  0  0  0  0  0  0  0
   10.4377  -16.2269   22.6148 C   0  0  0  0  0  0  0  0  0  0  0  0
   10.7037  -15.9631   24.0362 C   0  0  0  0  0  0  0  0  0  0  0  0
   11.9142  -16.0522   24.4397 O   0  0  0  0  0  0  0  0  0  0  0  0
    9.6776  -15.6196   24.9551 N   0  0  0  0  0  0  0  0  0  0  0  0
    9.9571  -15.7129   26.3626 C   0  0  1  0  0  0  0  0  0  0  0  0
    9.6683  -14.4409   27.0940 C   0  0  0  0  0  0  0  0  0  0  0  0
    8.4396  -13.8321   26.5730 C   0  0  0  0  0  0  0  0  0  0  0  0
    8.4801  -12.9023   25.5614 C   0  0  0  0  0  0  0  0  0  0  0  0
    7.3440  -12.3191   25.0239 C   0  0  0  0  0  0  0  0  0  0  0  0
    6.1163  -12.7075   25.5475 C   0  0  0  0  0  0  0  0  0  0  0  0
    6.0524  -13.6384   26.5621 C   0  0  0  0  0  0  0  0  0  0  0  0
    7.2138  -14.1966   27.0704 C   0  0  0  0  0  0  0  0  0  0  0  0
    9.2775  -16.8894   26.9199 C   0  0  0  0  0  0  0  0  0  0  0  0
    8.4785  -17.6298   26.3000 O   0  0  0  0  0  0  0  0  0  0  0  0
    9.5103  -17.2538   28.2508 O   0  0  0  0  0  0  0  0  0  0  0  0
  2  1  1  1
  2  3  1  0
  4  2  1  0
  4  5  2  0
  6  4  1  0
  7  6  1  0
  8 10  1  0
  8  7  1  0
  9  8  2  0
 11 12  1  1
 11 10  1  0
 12 13  1  0
 13 14  2  0
 13 18  1  0
 14 15  1  0
 15 16  2  0
 17 16  1  0
 18 17  2  0
 19 11  1  0
 20 19  2  0
 21 19  1  0
M  END
$$$$
