AGF.pdb
     RDKit          3D

 21 21  0  0  1  0  0  0  0  0999 V2000
1406260.37501029501.8750-2652705.2500 C   0  0  0  0  0  0  0  0  0  0  0  0
1406260.62501029504.1250-2652706.5000 C   0  0  2  0  0  0  0  0  0  0  0  0
1406259.62501029503.2500-2652706.7500 N   0  0  0  0  0  0  0  0  0  0  0  0
1406261.62501029501.8750-2652706.5000 C   0  0  0  0  0  0  0  0  0  0  0  0
1406262.12501029503.2500-2652707.2500 O   0  0  0  0  0  0  0  0  0  0  0  0
1406261.12501029501.2500-2652706.7500 N   0  0  0  0  0  0  0  0  0  0  0  0
1406260.87501029501.0000-2652708.5000 C   0  0  0  0  0  0  0  0  0  0  0  0
1406261.12501029503.1250-2652709.7500 C   0  0  0  0  0  0  0  0  0  0  0  0
1406259.62501029503.1250-2652708.5000 O   0  0  0  0  0  0  0  0  0  0  0  0
1406260.87501029503.7500-2652710.2500 N   0  0  0  0  0  0  0  0  0  0  0  0
1406260.37501029504.6250-2652710.5000 C   0  0  1  0  0  0  0  0  0  0  0  0
1406260.62501029506.6250-2652709.2500 C   0  0  0  0  0  0  0  0  0  0  0  0
1406261.37501029507.2500-2652709.7500 C   0  0  0  0  0  0  0  0  0  0  0  0
1406261.87501029507.1250-2652711.2500 C   0  0  0  0  0  0  0  0  0  0  0  0
1406262.87501029508.2500-2652711.5000 C   0  0  0  0  0  0  0  0  0  0  0  0
1406261.37501029509.3750-2652712.7500 C   0  0  0  0  0  0  0  0  0  0  0  0
1406259.62501029509.1250-2652712.2500 C   0  0  0  0  0  0  0  0  0  0  0  0
1406260.37501029508.2500-2652711.5000 C   0  0  0  0  0  0  0  0  0  0  0  0
1406260.87501029505.5000-2652711.2500 C   0  0  0  0  0  0  0  0  0  0  0  0
1406261.12501029504.7500-2652712.7500 O   0  0  0  0  0  0  0  0  0  0  0  0
1406261.87501029506.2500-2652711.5000 O   0  0  0  0  0  0  0  0  0  0  0  0
  2  1  1  1
  2  3  1  0
  4  2  1  0
  4  5  2  0
  6  4  1  0
  7  6  1  0
  8 10  1  0
  8  7  1  0
  9  8  2  0
 11 12  1  1
 11 10  1  0
 12 13  1  0
 13 14  2  0
 13 18  1  0
 14 15  1  0
 15 16  2  0
 17 16  1  0
 18 17  2  0
 19 11  1  0
 20 19  2  0
 21 19  1  0
M  END
$$$$
