AGF.pdb
     RDKit          3D

 21 21  0  0  1  0  0  0  0  0999 V2000
    7.6527  -12.5781   18.5144 C   0  0  0  0  0  0  0  0  0  0  0  0
    8.4999  -13.6751   19.1451 C   0  0  2  0  0  0  0  0  0  0  0  0
    8.6120  -14.8212   18.2867 N   0  0  0  0  0  0  0  0  0  0  0  0
    7.9590  -14.0903   20.4611 C   0  0  0  0  0  0  0  0  0  0  0  0
    7.9569  -13.2740   21.4100 O   0  0  0  0  0  0  0  0  0  0  0  0
    7.4533  -15.3881   20.6423 N   0  0  0  0  0  0  0  0  0  0  0  0
    6.8286  -15.8447   21.8651 C   0  0  0  0  0  0  0  0  0  0  0  0
    7.8536  -15.9597   22.9122 C   0  0  0  0  0  0  0  0  0  0  0  0
    9.0262  -16.3271   22.5569 O   0  0  0  0  0  0  0  0  0  0  0  0
    7.5858  -15.6806   24.2782 N   0  0  0  0  0  0  0  0  0  0  0  0
    8.6270  -15.9111   25.2429 C   0  0  1  0  0  0  0  0  0  0  0  0
    9.0939  -14.6516   25.9003 C   0  0  0  0  0  0  0  0  0  0  0  0
    7.9795  -13.7048   26.0156 C   0  0  0  0  0  0  0  0  0  0  0  0
    6.8560  -14.0140   26.7447 C   0  0  0  0  0  0  0  0  0  0  0  0
    5.7904  -13.1420   26.8991 C   0  0  0  0  0  0  0  0  0  0  0  0
    5.8834  -11.9015   26.2787 C   0  0  0  0  0  0  0  0  0  0  0  0
    7.0010  -11.5704   25.5427 C   0  0  0  0  0  0  0  0  0  0  0  0
    8.0439  -12.4731   25.4143 C   0  0  0  0  0  0  0  0  0  0  0  0
    8.1998  -16.9534   26.1851 C   0  0  0  0  0  0  0  0  0  0  0  0
    7.0551  -17.4611   26.2385 O   0  0  0  0  0  0  0  0  0  0  0  0
    9.1126  -17.4530   27.1207 O   0  0  0  0  0  0  0  0  0  0  0  0
  2  1  1  6
  2  3  1  0
  4  2  1  0
  4  5  2  0
  6  4  1  0
  7  6  1  0
  8 10  1  0
  8  7  1  0
  9  8  2  0
 11 12  1  1
 11 10  1  0
 12 13  1  0
 13 14  2  0
 13 18  1  0
 14 15  1  0
 15 16  2  0
 17 16  1  0
 18 17  2  0
 19 11  1  0
 20 19  2  0
 21 19  1  0
M  END
$$$$
