AGF.pdb
     RDKit          3D

 21 21  0  0  1  0  0  0  0  0999 V2000
    7.4085  -16.0101   18.7631 C   0  0  0  0  0  0  0  0  0  0  0  0
    7.2536  -15.3342   20.1188 C   0  0  2  0  0  0  0  0  0  0  0  0
    8.5084  -14.8422   20.6149 N   0  0  0  0  0  0  0  0  0  0  0  0
    6.6487  -16.2490   21.1160 C   0  0  0  0  0  0  0  0  0  0  0  0
    5.4765  -16.6541   20.9468 O   0  0  0  0  0  0  0  0  0  0  0  0
    7.3838  -16.6577   22.2408 N   0  0  0  0  0  0  0  0  0  0  0  0
    6.8437  -17.4857   23.2975 C   0  0  0  0  0  0  0  0  0  0  0  0
    7.8245  -17.5687   24.3892 C   0  0  0  0  0  0  0  0  0  0  0  0
    8.6543  -18.5419   24.3685 O   0  0  0  0  0  0  0  0  0  0  0  0
    7.8765  -16.6199   25.4439 N   0  0  0  0  0  0  0  0  0  0  0  0
    9.1644  -16.1796   25.9082 C   0  0  1  0  0  0  0  0  0  0  0  0
    9.4496  -14.7550   25.5539 C   0  0  0  0  0  0  0  0  0  0  0  0
    8.3634  -13.8933   26.0329 C   0  0  0  0  0  0  0  0  0  0  0  0
    8.4344  -13.2741   27.2581 C   0  0  0  0  0  0  0  0  0  0  0  0
    7.4431  -12.4347   27.7402 C   0  0  0  0  0  0  0  0  0  0  0  0
    6.3335  -12.2232   26.9300 C   0  0  0  0  0  0  0  0  0  0  0  0
    6.2416  -12.8341   25.6977 C   0  0  0  0  0  0  0  0  0  0  0  0
    7.2565  -13.6662   25.2545 C   0  0  0  0  0  0  0  0  0  0  0  0
    9.2965  -16.4766   27.3403 C   0  0  0  0  0  0  0  0  0  0  0  0
    8.3944  -16.9473   28.0721 O   0  0  0  0  0  0  0  0  0  0  0  0
   10.5132  -16.2298   27.9860 O   0  0  0  0  0  0  0  0  0  0  0  0
  2  1  1  6
  2  3  1  0
  4  2  1  0
  4  5  2  0
  6  4  1  0
  7  6  1  0
  8 10  1  0
  8  7  1  0
  9  8  2  0
 11 12  1  1
 11 10  1  0
 12 13  1  0
 13 14  2  0
 13 18  1  0
 14 15  1  0
 15 16  2  0
 17 16  1  0
 18 17  2  0
 19 11  1  0
 20 19  2  0
 21 19  1  0
M  END
$$$$
