QHR.pdb
     RDKit          3D

 31 31  0  0  1  0  0  0  0  0999 V2000
   30.7622  -21.3229  -10.5444 N   0  0  0  0  0  0  0  0  0  0  0  0
   29.6733  -21.6931  -11.3796 C   0  0  0  0  0  0  0  0  0  0  0  0
   29.8673  -22.0046  -12.5983 O   0  0  0  0  0  0  0  0  0  0  0  0
   28.3024  -21.7157  -10.8256 C   0  0  0  0  0  0  0  0  0  0  0  0
   27.2902  -21.2269  -11.8402 C   0  0  0  0  0  0  0  0  0  0  0  0
   27.5827  -19.7816  -12.1308 C   0  0  2  0  0  0  0  0  0  0  0  0
   27.5950  -18.9740  -10.9281 N   0  0  0  0  0  0  0  0  0  0  0  0
   26.6467  -19.2194  -13.1501 C   0  0  0  0  0  0  0  0  0  0  0  0
   25.5426  -18.7168  -12.7731 O   0  0  0  0  0  0  0  0  0  0  0  0
   26.9113  -19.2071  -14.5440 N   0  0  0  0  0  0  0  0  0  0  0  0
   25.9240  -18.6019  -15.4562 C   0  0  1  0  0  0  0  0  0  0  0  0
   26.6408  -17.8443  -16.5528 C   0  0  0  0  0  0  0  0  0  0  0  0
   26.8957  -16.4615  -16.1031 C   0  0  0  0  0  0  0  0  0  0  0  0
   26.4652  -15.9411  -14.8900 C   0  0  0  0  0  0  0  0  0  0  0  0
   26.8516  -14.6654  -14.7727 N   0  0  0  0  0  0  0  0  0  0  0  0
   27.5222  -14.3542  -15.8862 C   0  0  0  0  0  0  0  0  0  0  0  0
   27.5447  -15.4365  -16.6797 N   0  0  0  0  0  0  0  0  0  0  0  0
   25.0677  -19.6542  -16.0483 C   0  0  0  0  0  0  0  0  0  0  0  0
   25.5248  -20.7189  -16.5336 O   0  0  0  0  0  0  0  0  0  0  0  0
   19.6291  -22.1733  -11.8590 N   0  0  0  0  0  0  0  0  0  0  0  0
   19.9138  -20.7868  -11.7724 C   0  0  0  0  0  0  0  0  0  0  0  0
   20.0448  -20.2054  -10.6326 N   0  0  0  0  0  0  0  0  0  0  0  0
   20.0692  -19.9780  -12.9486 N   0  0  0  0  0  0  0  0  0  0  0  0
   19.8117  -20.4692  -14.2694 C   0  0  0  0  0  0  0  0  0  0  0  0
   20.8420  -20.0533  -15.2746 C   0  0  0  0  0  0  0  0  0  0  0  0
   21.8424  -21.1110  -15.6315 C   0  0  0  0  0  0  0  0  0  0  0  0
   22.7892  -20.5792  -16.6791 C   0  0  2  0  0  0  0  0  0  0  0  0
   23.6395  -19.5330  -16.1109 N   0  0  0  0  0  0  0  0  0  0  0  0
   22.1266  -19.9793  -17.8464 C   0  0  0  0  0  0  0  0  0  0  0  0
   21.4805  -20.7873  -18.8142 O   0  0  0  0  0  0  0  0  0  0  0  0
   22.0670  -18.7554  -18.0942 O   0  0  0  0  0  0  0  0  0  0  0  0
  2  4  1  0
  2  1  1  0
  3  2  2  0
  5  4  1  0
  6  5  1  0
  6  7  1  1
  8  6  1  0
  9  8  2  0
 10  8  1  0
 11 12  1  6
 11 10  1  0
 12 13  1  0
 13 17  1  0
 13 14  2  0
 14 15  1  0
 16 15  1  0
 17 16  2  0
 18 11  1  0
 19 18  2  0
 20 21  1  0
 21 22  2  0
 23 21  1  0
 24 23  1  0
 25 24  1  0
 27 26  1  1
 26 25  1  0
 27 28  1  0
 28 18  1  0
 29 27  1  0
 29 30  1  0
 31 29  2  0
M  END
$$$$
