QHR.pdb
     RDKit          3D

 31 31  0  0  1  0  0  0  0  0999 V2000
   29.3529  -16.8337  -16.6905 N   0  0  0  0  0  0  0  0  0  0  0  0
   29.3602  -17.2859  -18.0380 C   0  0  0  0  0  0  0  0  0  0  0  0
   30.4259  -17.2386  -18.7322 O   0  0  0  0  0  0  0  0  0  0  0  0
   28.1167  -17.8160  -18.6375 C   0  0  0  0  0  0  0  0  0  0  0  0
   26.9752  -17.7991  -17.6428 C   0  0  0  0  0  0  0  0  0  0  0  0
   26.4241  -19.1937  -17.5425 C   0  0  2  0  0  0  0  0  0  0  0  0
   26.6476  -19.9580  -18.7528 N   0  0  0  0  0  0  0  0  0  0  0  0
   24.9798  -19.1944  -17.1615 C   0  0  0  0  0  0  0  0  0  0  0  0
   24.6105  -18.5768  -16.1147 O   0  0  0  0  0  0  0  0  0  0  0  0
   23.9669  -19.8528  -17.9056 N   0  0  0  0  0  0  0  0  0  0  0  0
   22.5869  -19.8612  -17.3871 C   0  0  1  0  0  0  0  0  0  0  0  0
   21.6299  -20.2528  -18.4922 C   0  0  0  0  0  0  0  0  0  0  0  0
   20.2434  -20.1464  -17.9964 C   0  0  0  0  0  0  0  0  0  0  0  0
   19.9015  -19.7908  -16.6986 C   0  0  0  0  0  0  0  0  0  0  0  0
   18.5707  -19.7817  -16.5588 N   0  0  0  0  0  0  0  0  0  0  0  0
   18.0493  -20.1244  -17.7408 C   0  0  0  0  0  0  0  0  0  0  0  0
   19.0586  -20.3417  -18.5984 N   0  0  0  0  0  0  0  0  0  0  0  0
   22.4731  -20.8153  -16.2612 C   0  0  0  0  0  0  0  0  0  0  0  0
   22.9724  -21.9678  -16.2847 O   0  0  0  0  0  0  0  0  0  0  0  0
   27.9665  -19.9326  -12.7847 N   0  0  0  0  0  0  0  0  0  0  0  0
   27.2064  -20.7170  -11.8804 C   0  0  0  0  0  0  0  0  0  0  0  0
   27.7688  -21.3378  -10.9044 N   0  0  0  0  0  0  0  0  0  0  0  0
   25.7828  -20.8488  -12.0148 N   0  0  0  0  0  0  0  0  0  0  0  0
   25.0067  -20.0326  -12.8999 C   0  0  0  0  0  0  0  0  0  0  0  0
   23.5298  -20.2537  -12.7784 C   0  0  0  0  0  0  0  0  0  0  0  0
   23.0450  -21.5823  -13.2749 C   0  0  0  0  0  0  0  0  0  0  0  0
   21.6919  -21.4176  -13.9220 C   0  0  2  0  0  0  0  0  0  0  0  0
   21.7777  -20.4893  -15.0493 N   0  0  0  0  0  0  0  0  0  0  0  0
   20.6541  -20.8823  -13.0287 C   0  0  0  0  0  0  0  0  0  0  0  0
   19.9881  -19.6684  -13.3285 O   0  0  0  0  0  0  0  0  0  0  0  0
   20.2703  -21.4155  -11.9651 O   0  0  0  0  0  0  0  0  0  0  0  0
  2  4  1  0
  2  1  1  0
  3  2  2  0
  5  4  1  0
  6  5  1  0
  6  7  1  6
  8  6  1  0
  9  8  2  0
 10  8  1  0
 11 12  1  6
 11 10  1  0
 12 13  1  0
 13 17  1  0
 13 14  2  0
 14 15  1  0
 16 15  1  0
 17 16  2  0
 18 11  1  0
 19 18  2  0
 20 21  1  0
 21 22  2  0
 23 21  1  0
 24 23  1  0
 25 24  1  0
 27 26  1  1
 26 25  1  0
 27 28  1  0
 28 18  1  0
 29 27  1  0
 29 30  1  0
 31 29  2  0
M  END
$$$$
