QHR.pdb
     RDKit          3D

 31 31  0  0  1  0  0  0  0  0999 V2000
   23.0974  -20.2933   -9.9831 N   0  0  0  0  0  0  0  0  0  0  0  0
   23.9855  -20.9614   -9.0968 C   0  0  0  0  0  0  0  0  0  0  0  0
   23.5366  -21.7191   -8.1780 O   0  0  0  0  0  0  0  0  0  0  0  0
   25.4447  -20.7728   -9.2451 C   0  0  0  0  0  0  0  0  0  0  0  0
   25.7611  -19.7292  -10.2956 C   0  0  0  0  0  0  0  0  0  0  0  0
   25.8248  -20.4164  -11.6306 C   0  0  2  0  0  0  0  0  0  0  0  0
   26.9759  -21.2892  -11.7416 N   0  0  0  0  0  0  0  0  0  0  0  0
   25.7750  -19.4409  -12.7606 C   0  0  0  0  0  0  0  0  0  0  0  0
   24.7304  -18.7390  -12.9332 O   0  0  0  0  0  0  0  0  0  0  0  0
   26.8391  -19.2386  -13.6771 N   0  0  0  0  0  0  0  0  0  0  0  0
   26.6840  -18.2355  -14.7463 C   0  0  1  0  0  0  0  0  0  0  0  0
   28.0455  -17.7318  -15.1737 C   0  0  0  0  0  0  0  0  0  0  0  0
   27.8825  -16.7605  -16.2734 C   0  0  0  0  0  0  0  0  0  0  0  0
   27.3558  -15.4851  -16.1194 C   0  0  0  0  0  0  0  0  0  0  0  0
   27.3391  -14.8483  -17.2961 N   0  0  0  0  0  0  0  0  0  0  0  0
   27.8445  -15.6884  -18.2045 C   0  0  0  0  0  0  0  0  0  0  0  0
   28.1683  -16.8336  -17.5838 N   0  0  0  0  0  0  0  0  0  0  0  0
   25.9816  -18.8322  -15.9045 C   0  0  0  0  0  0  0  0  0  0  0  0
   26.4264  -19.8177  -16.5441 O   0  0  0  0  0  0  0  0  0  0  0  0
   21.6066  -24.8449  -14.2121 N   0  0  0  0  0  0  0  0  0  0  0  0
   22.8844  -24.3169  -14.5272 C   0  0  0  0  0  0  0  0  0  0  0  0
   23.9603  -24.9018  -14.1340 N   0  0  0  0  0  0  0  0  0  0  0  0
   23.0300  -23.1135  -15.2969 N   0  0  0  0  0  0  0  0  0  0  0  0
   21.9118  -22.3668  -15.7910 C   0  0  0  0  0  0  0  0  0  0  0  0
   22.3023  -21.1781  -16.6152 C   0  0  0  0  0  0  0  0  0  0  0  0
   23.4082  -20.3446  -16.0413 C   0  0  0  0  0  0  0  0  0  0  0  0
   23.7031  -19.1893  -16.9658 C   0  0  2  0  0  0  0  0  0  0  0  0
   24.7292  -18.3232  -16.3850 N   0  0  0  0  0  0  0  0  0  0  0  0
   22.5468  -18.3248  -17.2435 C   0  0  0  0  0  0  0  0  0  0  0  0
   21.5535  -18.7117  -18.1767 O   0  0  0  0  0  0  0  0  0  0  0  0
   22.3302  -17.2142  -16.7120 O   0  0  0  0  0  0  0  0  0  0  0  0
  2  4  1  0
  2  1  1  0
  3  2  2  0
  5  4  1  0
  6  5  1  0
  6  7  1  1
  8  6  1  0
  9  8  2  0
 10  8  1  0
 11 12  1  6
 11 10  1  0
 12 13  1  0
 13 17  1  0
 13 14  2  0
 14 15  1  0
 16 15  1  0
 17 16  2  0
 18 11  1  0
 19 18  2  0
 20 21  1  0
 21 22  2  0
 23 21  1  0
 24 23  1  0
 25 24  1  0
 27 26  1  1
 26 25  1  0
 27 28  1  0
 28 18  1  0
 29 27  1  0
 29 30  1  0
 31 29  2  0
M  END
$$$$
