QHR.pdb
     RDKit          3D

 31 31  0  0  1  0  0  0  0  0999 V2000
   26.6590  -19.5656  -16.5245 N   0  0  0  0  0  0  0  0  0  0  0  0
   27.2509  -20.7833  -16.0915 C   0  0  0  0  0  0  0  0  0  0  0  0
   28.4611  -21.0539  -16.3777 O   0  0  0  0  0  0  0  0  0  0  0  0
   26.4511  -21.7436  -15.3010 C   0  0  0  0  0  0  0  0  0  0  0  0
   25.0847  -21.1813  -14.9701 C   0  0  0  0  0  0  0  0  0  0  0  0
   24.3218  -22.2287  -14.2088 C   0  0  2  0  0  0  0  0  0  0  0  0
   24.4528  -23.5422  -14.8059 N   0  0  0  0  0  0  0  0  0  0  0  0
   22.8863  -21.8543  -14.0353 C   0  0  0  0  0  0  0  0  0  0  0  0
   22.0338  -22.2353  -14.8966 O   0  0  0  0  0  0  0  0  0  0  0  0
   22.3964  -21.0841  -12.9491 N   0  0  0  0  0  0  0  0  0  0  0  0
   20.9742  -20.6967  -12.9282 C   0  0  1  0  0  0  0  0  0  0  0  0
   20.4757  -20.6654  -11.4996 C   0  0  0  0  0  0  0  0  0  0  0  0
   20.2203  -22.0456  -11.0423 C   0  0  0  0  0  0  0  0  0  0  0  0
   20.3684  -23.1737  -11.8380 C   0  0  0  0  0  0  0  0  0  0  0  0
   20.0640  -24.2736  -11.1393 N   0  0  0  0  0  0  0  0  0  0  0  0
   19.7228  -23.8758   -9.9098 C   0  0  0  0  0  0  0  0  0  0  0  0
   19.8189  -22.5381   -9.8588 N   0  0  0  0  0  0  0  0  0  0  0  0
   20.8012  -19.3652  -13.5510 C   0  0  0  0  0  0  0  0  0  0  0  0
   21.4759  -18.3589  -13.2189 O   0  0  0  0  0  0  0  0  0  0  0  0
   20.9738  -16.9165  -21.6950 N   0  0  0  0  0  0  0  0  0  0  0  0
   21.8173  -17.2922  -20.6188 C   0  0  0  0  0  0  0  0  0  0  0  0
   22.9927  -17.7694  -20.8312 N   0  0  0  0  0  0  0  0  0  0  0  0
   21.3970  -17.1544  -19.2527 N   0  0  0  0  0  0  0  0  0  0  0  0
   20.1095  -16.6467  -18.8830 C   0  0  0  0  0  0  0  0  0  0  0  0
   19.8705  -16.6396  -17.4039 C   0  0  0  0  0  0  0  0  0  0  0  0
   19.9996  -17.9746  -16.7346 C   0  0  0  0  0  0  0  0  0  0  0  0
   19.7189  -17.8302  -15.2591 C   0  0  2  0  0  0  0  0  0  0  0  0
   19.8410  -19.1253  -14.5898 N   0  0  0  0  0  0  0  0  0  0  0  0
   18.3720  -17.3320  -14.9444 C   0  0  0  0  0  0  0  0  0  0  0  0
   17.9808  -16.0156  -15.2922 O   0  0  0  0  0  0  0  0  0  0  0  0
   17.4763  -17.9851  -14.3662 O   0  0  0  0  0  0  0  0  0  0  0  0
  2  4  1  0
  2  1  1  0
  3  2  2  0
  5  4  1  0
  6  5  1  0
  6  7  1  6
  8  6  1  0
  9  8  2  0
 10  8  1  0
 11 12  1  1
 11 10  1  0
 12 13  1  0
 13 17  1  0
 13 14  2  0
 14 15  1  0
 16 15  1  0
 17 16  2  0
 18 11  1  0
 19 18  2  0
 20 21  1  0
 21 22  2  0
 23 21  1  0
 24 23  1  0
 25 24  1  0
 27 26  1  6
 26 25  1  0
 27 28  1  0
 28 18  1  0
 29 27  1  0
 29 30  1  0
 31 29  2  0
M  END
$$$$
