QHR.pdb
     RDKit          3D

 31 31  0  0  1  0  0  0  0  0999 V2000
   26.2842  -24.0525  -14.9954 N   0  0  0  0  0  0  0  0  0  0  0  0
   26.6028  -22.6673  -14.9811 C   0  0  0  0  0  0  0  0  0  0  0  0
   27.6872  -22.2567  -14.4565 O   0  0  0  0  0  0  0  0  0  0  0  0
   25.6641  -21.6955  -15.5820 C   0  0  0  0  0  0  0  0  0  0  0  0
   24.4352  -22.3863  -16.1347 C   0  0  0  0  0  0  0  0  0  0  0  0
   23.4894  -21.3286  -16.6300 C   0  0  2  0  0  0  0  0  0  0  0  0
   24.1808  -20.1170  -17.0210 N   0  0  0  0  0  0  0  0  0  0  0  0
   22.4105  -21.0395  -15.6383 C   0  0  0  0  0  0  0  0  0  0  0  0
   21.6795  -21.9893  -15.2172 O   0  0  0  0  0  0  0  0  0  0  0  0
   22.1386  -19.7466  -15.1212 N   0  0  0  0  0  0  0  0  0  0  0  0
   20.9720  -19.5572  -14.2400 C   0  0  1  0  0  0  0  0  0  0  0  0
   21.3899  -18.8020  -12.9968 C   0  0  0  0  0  0  0  0  0  0  0  0
   21.5438  -19.7527  -11.8780 C   0  0  0  0  0  0  0  0  0  0  0  0
   21.2091  -21.0986  -11.9429 C   0  0  0  0  0  0  0  0  0  0  0  0
   21.4642  -21.6939  -10.7719 N   0  0  0  0  0  0  0  0  0  0  0  0
   21.9564  -20.7578   -9.9546 C   0  0  0  0  0  0  0  0  0  0  0  0
   22.0013  -19.5959  -10.6248 N   0  0  0  0  0  0  0  0  0  0  0  0
   19.9135  -18.8071  -14.9527 C   0  0  0  0  0  0  0  0  0  0  0  0
   20.1197  -17.7119  -15.5324 O   0  0  0  0  0  0  0  0  0  0  0  0
   12.1733  -20.7032  -19.2575 N   0  0  0  0  0  0  0  0  0  0  0  0
   12.2781  -19.3013  -19.0722 C   0  0  0  0  0  0  0  0  0  0  0  0
   11.4005  -18.4988  -19.5623 N   0  0  0  0  0  0  0  0  0  0  0  0
   13.3628  -18.7215  -18.3310 N   0  0  0  0  0  0  0  0  0  0  0  0
   14.3906  -19.5066  -17.7151 C   0  0  0  0  0  0  0  0  0  0  0  0
   15.3992  -18.6909  -16.9652 C   0  0  0  0  0  0  0  0  0  0  0  0
   16.5409  -19.4708  -16.3862 C   0  0  0  0  0  0  0  0  0  0  0  0
   17.5071  -18.5283  -15.7119 C   0  0  2  0  0  0  0  0  0  0  0  0
   18.5620  -19.2817  -15.0339 N   0  0  0  0  0  0  0  0  0  0  0  0
   16.8981  -17.6655  -14.6890 C   0  0  0  0  0  0  0  0  0  0  0  0
   16.3001  -16.4296  -15.0382 O   0  0  0  0  0  0  0  0  0  0  0  0
   16.8468  -17.9197  -13.4660 O   0  0  0  0  0  0  0  0  0  0  0  0
  2  4  1  0
  2  1  1  0
  3  2  2  0
  5  4  1  0
  6  5  1  0
  6  7  1  1
  8  6  1  0
  9  8  2  0
 10  8  1  0
 11 12  1  1
 11 10  1  0
 12 13  1  0
 13 17  1  0
 13 14  2  0
 14 15  1  0
 16 15  1  0
 17 16  2  0
 18 11  1  0
 19 18  2  0
 20 21  1  0
 21 22  2  0
 23 21  1  0
 24 23  1  0
 25 24  1  0
 27 26  1  1
 26 25  1  0
 27 28  1  0
 28 18  1  0
 29 27  1  0
 29 30  1  0
 31 29  2  0
M  END
$$$$
