QHR.pdb
     RDKit          3D

 31 31  0  0  1  0  0  0  0  0999 V2000
   22.2338  -19.8973   -9.4355 N   0  0  0  0  0  0  0  0  0  0  0  0
   21.6296  -20.9653  -10.1529 C   0  0  0  0  0  0  0  0  0  0  0  0
   20.5438  -21.4887   -9.7443 O   0  0  0  0  0  0  0  0  0  0  0  0
   22.2702  -21.4720  -11.3856 C   0  0  0  0  0  0  0  0  0  0  0  0
   23.5784  -20.7601  -11.6589 C   0  0  0  0  0  0  0  0  0  0  0  0
   24.1413  -21.2974  -12.9447 C   0  0  2  0  0  0  0  0  0  0  0  0
   25.1520  -22.3103  -12.7177 N   0  0  0  0  0  0  0  0  0  0  0  0
   24.6577  -20.2060  -13.8241 C   0  0  0  0  0  0  0  0  0  0  0  0
   25.3393  -19.2634  -13.3136 O   0  0  0  0  0  0  0  0  0  0  0  0
   24.4345  -20.1472  -15.2240 N   0  0  0  0  0  0  0  0  0  0  0  0
   24.9787  -19.0114  -15.9901 C   0  0  1  0  0  0  0  0  0  0  0  0
   25.7297  -19.5255  -17.1992 C   0  0  0  0  0  0  0  0  0  0  0  0
   26.9642  -20.2019  -16.7546 C   0  0  0  0  0  0  0  0  0  0  0  0
   27.3876  -20.2691  -15.4340 C   0  0  0  0  0  0  0  0  0  0  0  0
   28.5380  -20.9476  -15.3529 N   0  0  0  0  0  0  0  0  0  0  0  0
   28.8637  -21.3184  -16.5951 C   0  0  0  0  0  0  0  0  0  0  0  0
   27.9151  -20.8675  -17.4307 N   0  0  0  0  0  0  0  0  0  0  0  0
   23.8807  -18.1175  -16.4221 C   0  0  0  0  0  0  0  0  0  0  0  0
   24.0720  -17.0595  -17.0718 O   0  0  0  0  0  0  0  0  0  0  0  0
   18.7722  -22.5219  -19.5494 N   0  0  0  0  0  0  0  0  0  0  0  0
   18.1038  -22.2776  -18.3229 C   0  0  0  0  0  0  0  0  0  0  0  0
   17.4098  -23.1965  -17.7500 N   0  0  0  0  0  0  0  0  0  0  0  0
   18.1752  -21.0002  -17.6710 N   0  0  0  0  0  0  0  0  0  0  0  0
   18.9427  -19.9061  -18.1867 C   0  0  0  0  0  0  0  0  0  0  0  0
   19.8317  -19.2641  -17.1657 C   0  0  0  0  0  0  0  0  0  0  0  0
   20.6360  -18.1025  -17.6664 C   0  0  0  0  0  0  0  0  0  0  0  0
   21.4202  -17.5011  -16.5263 C   0  0  2  0  0  0  0  0  0  0  0  0
   22.5049  -18.3979  -16.1272 N   0  0  0  0  0  0  0  0  0  0  0  0
   20.6292  -17.2498  -15.3127 C   0  0  0  0  0  0  0  0  0  0  0  0
   19.6410  -16.2352  -15.2825 O   0  0  0  0  0  0  0  0  0  0  0  0
   20.7404  -17.8738  -14.2351 O   0  0  0  0  0  0  0  0  0  0  0  0
  2  4  1  0
  2  1  1  0
  3  2  2  0
  5  4  1  0
  6  5  1  0
  6  7  1  1
  8  6  1  0
  9  8  2  0
 10  8  1  0
 11 12  1  6
 11 10  1  0
 12 13  1  0
 13 17  1  0
 13 14  2  0
 14 15  1  0
 16 15  1  0
 17 16  2  0
 18 11  1  0
 19 18  2  0
 20 21  1  0
 21 22  2  0
 23 21  1  0
 24 23  1  0
 25 24  1  0
 27 26  1  6
 26 25  1  0
 27 28  1  0
 28 18  1  0
 29 27  1  0
 29 30  1  0
 31 29  2  0
M  END
$$$$
