QHR.pdb
     RDKit          3D

 31 31  0  0  1  0  0  0  0  0999 V2000
   22.2002  -14.9312  -19.1861 N   0  0  0  0  0  0  0  0  0  0  0  0
   23.4657  -14.5587  -19.7152 C   0  0  0  0  0  0  0  0  0  0  0  0
   23.5921  -13.4998  -20.4098 O   0  0  0  0  0  0  0  0  0  0  0  0
   24.6458  -15.4111  -19.4550 C   0  0  0  0  0  0  0  0  0  0  0  0
   24.3108  -16.5396  -18.5027 C   0  0  0  0  0  0  0  0  0  0  0  0
   25.5701  -17.3164  -18.2395 C   0  0  2  0  0  0  0  0  0  0  0  0
   26.0536  -17.9919  -19.4265 N   0  0  0  0  0  0  0  0  0  0  0  0
   25.4066  -18.2714  -17.1027 C   0  0  0  0  0  0  0  0  0  0  0  0
   24.8743  -19.4056  -17.3124 O   0  0  0  0  0  0  0  0  0  0  0  0
   25.8144  -17.9933  -15.7724 N   0  0  0  0  0  0  0  0  0  0  0  0
   25.4279  -18.9219  -14.6947 C   0  0  1  0  0  0  0  0  0  0  0  0
   26.1216  -18.5273  -13.4089 C   0  0  0  0  0  0  0  0  0  0  0  0
   25.7215  -19.4570  -12.3343 C   0  0  0  0  0  0  0  0  0  0  0  0
   24.8813  -20.5474  -12.5154 C   0  0  0  0  0  0  0  0  0  0  0  0
   24.7098  -21.1944  -11.3567 N   0  0  0  0  0  0  0  0  0  0  0  0
   25.4230  -20.5422  -10.4334 C   0  0  0  0  0  0  0  0  0  0  0  0
   26.0272  -19.5010  -11.0270 N   0  0  0  0  0  0  0  0  0  0  0  0
   23.9603  -18.8955  -14.5035 C   0  0  0  0  0  0  0  0  0  0  0  0
   23.2218  -17.9979  -14.9800 O   0  0  0  0  0  0  0  0  0  0  0  0
   17.4610  -20.5110  -18.5386 N   0  0  0  0  0  0  0  0  0  0  0  0
   17.8946  -19.2418  -18.0784 C   0  0  0  0  0  0  0  0  0  0  0  0
   17.6831  -18.1771  -18.7684 N   0  0  0  0  0  0  0  0  0  0  0  0
   18.5831  -19.0924  -16.8272 N   0  0  0  0  0  0  0  0  0  0  0  0
   18.8365  -20.1910  -15.9434 C   0  0  0  0  0  0  0  0  0  0  0  0
   19.6470  -19.8170  -14.7400 C   0  0  0  0  0  0  0  0  0  0  0  0
   21.1323  -19.8839  -14.9304 C   0  0  0  0  0  0  0  0  0  0  0  0
   21.8150  -19.8950  -13.5850 C   0  0  2  0  0  0  0  0  0  0  0  0
   23.2682  -19.9035  -13.7529 N   0  0  0  0  0  0  0  0  0  0  0  0
   21.4923  -21.0622  -12.7512 C   0  0  0  0  0  0  0  0  0  0  0  0
   20.5111  -20.9827  -11.7325 O   0  0  0  0  0  0  0  0  0  0  0  0
   22.0232  -22.1898  -12.8494 O   0  0  0  0  0  0  0  0  0  0  0  0
  2  4  1  0
  2  1  1  0
  3  2  2  0
  5  4  1  0
  6  5  1  0
  6  7  1  6
  8  6  1  0
  9  8  2  0
 10  8  1  0
 11 12  1  1
 11 10  1  0
 12 13  1  0
 13 17  1  0
 13 14  2  0
 14 15  1  0
 16 15  1  0
 17 16  2  0
 18 11  1  0
 19 18  2  0
 20 21  1  0
 21 22  2  0
 23 21  1  0
 24 23  1  0
 25 24  1  0
 27 26  1  6
 26 25  1  0
 27 28  1  0
 28 18  1  0
 29 27  1  0
 29 30  1  0
 31 29  2  0
M  END
$$$$
