QHR.pdb
     RDKit          3D

 31 31  0  0  1  0  0  0  0  0999 V2000
   28.5848  -25.5500  -15.9321 N   0  0  0  0  0  0  0  0  0  0  0  0
   28.9697  -25.3908  -17.2911 C   0  0  0  0  0  0  0  0  0  0  0  0
   29.3766  -26.3868  -17.9710 O   0  0  0  0  0  0  0  0  0  0  0  0
   28.8961  -24.0541  -17.9195 C   0  0  0  0  0  0  0  0  0  0  0  0
   28.3895  -23.0137  -16.9429 C   0  0  0  0  0  0  0  0  0  0  0  0
   26.9509  -22.7281  -17.2711 C   0  0  2  0  0  0  0  0  0  0  0  0
   26.7523  -22.4765  -18.6839 N   0  0  0  0  0  0  0  0  0  0  0  0
   26.4023  -21.6140  -16.4411 C   0  0  0  0  0  0  0  0  0  0  0  0
   26.5472  -21.6462  -15.1794 O   0  0  0  0  0  0  0  0  0  0  0  0
   25.7140  -20.4948  -16.9766 N   0  0  0  0  0  0  0  0  0  0  0  0
   25.1310  -19.5029  -16.0549 C   0  0  1  0  0  0  0  0  0  0  0  0
   25.3359  -18.1099  -16.6096 C   0  0  0  0  0  0  0  0  0  0  0  0
   26.7783  -17.7954  -16.6163 C   0  0  0  0  0  0  0  0  0  0  0  0
   27.7689  -18.6553  -16.1613 C   0  0  0  0  0  0  0  0  0  0  0  0
   28.9720  -18.0861  -16.2990 N   0  0  0  0  0  0  0  0  0  0  0  0
   28.7755  -16.8769  -16.8335 C   0  0  0  0  0  0  0  0  0  0  0  0
   27.4572  -16.7093  -17.0211 N   0  0  0  0  0  0  0  0  0  0  0  0
   23.6855  -19.7653  -15.8744 C   0  0  0  0  0  0  0  0  0  0  0  0
   22.8425  -19.6283  -16.7956 O   0  0  0  0  0  0  0  0  0  0  0  0
   24.2887  -26.5733  -14.7953 N   0  0  0  0  0  0  0  0  0  0  0  0
   23.8209  -26.0601  -16.0316 C   0  0  0  0  0  0  0  0  0  0  0  0
   24.0539  -26.6750  -17.1370 N   0  0  0  0  0  0  0  0  0  0  0  0
   23.0689  -24.8387  -16.1007 N   0  0  0  0  0  0  0  0  0  0  0  0
   22.7451  -24.0588  -14.9436 C   0  0  0  0  0  0  0  0  0  0  0  0
   21.8849  -22.8694  -15.2444 C   0  0  0  0  0  0  0  0  0  0  0  0
   21.5803  -21.9935  -14.0668 C   0  0  0  0  0  0  0  0  0  0  0  0
   21.7245  -20.5448  -14.4630 C   0  0  2  0  0  0  0  0  0  0  0  0
   23.1373  -20.1999  -14.6218 N   0  0  0  0  0  0  0  0  0  0  0  0
   21.1777  -19.5919  -13.4860 C   0  0  0  0  0  0  0  0  0  0  0  0
   19.7793  -19.4473  -13.3111 O   0  0  0  0  0  0  0  0  0  0  0  0
   21.8554  -18.8474  -12.7448 O   0  0  0  0  0  0  0  0  0  0  0  0
  2  4  1  0
  2  1  1  0
  3  2  2  0
  5  4  1  0
  6  5  1  0
  6  7  1  6
  8  6  1  0
  9  8  2  0
 10  8  1  0
 11 12  1  6
 11 10  1  0
 12 13  1  0
 13 17  1  0
 13 14  2  0
 14 15  1  0
 16 15  1  0
 17 16  2  0
 18 11  1  0
 19 18  2  0
 20 21  1  0
 21 22  2  0
 23 21  1  0
 24 23  1  0
 25 24  1  0
 27 26  1  1
 26 25  1  0
 27 28  1  0
 28 18  1  0
 29 27  1  0
 29 30  1  0
 31 29  2  0
M  END
$$$$
