EEH.pdb
     RDKit          3D

 29 29  0  0  1  0  0  0  0  0999 V2000
   10.4997  -14.5987   16.9558 N   0  0  0  0  0  0  0  0  0  0  0  0
   11.1565  -15.6005   17.7825 C   0  0  1  0  0  0  0  0  0  0  0  0
   12.1308  -16.3247   16.8842 C   0  0  0  0  0  0  0  0  0  0  0  0
   13.0330  -15.4281   16.1032 C   0  0  0  0  0  0  0  0  0  0  0  0
   13.8908  -16.2773   15.2533 C   0  0  0  0  0  0  0  0  0  0  0  0
   15.0358  -16.5883   15.6328 O   0  0  0  0  0  0  0  0  0  0  0  0
   11.8052  -14.9652   18.9387 C   0  0  0  0  0  0  0  0  0  0  0  0
   12.3142  -13.8190   18.9176 O   0  0  0  0  0  0  0  0  0  0  0  0
   13.4298  -16.7291   14.0389 O   0  0  0  0  0  0  0  0  0  0  0  0
   11.8641  -15.6847   20.1582 N   0  0  0  0  0  0  0  0  0  0  0  0
   12.3970  -15.0176   21.3888 C   0  0  1  0  0  0  0  0  0  0  0  0
   11.6563  -15.5704   22.5647 C   0  0  0  0  0  0  0  0  0  0  0  0
   12.5176  -16.2288   23.5783 C   0  0  0  0  0  0  0  0  0  0  0  0
   11.8044  -16.8762   24.6920 C   0  0  0  0  0  0  0  0  0  0  0  0
   11.2627  -17.9886   24.5210 O   0  0  0  0  0  0  0  0  0  0  0  0
   13.8378  -15.3364   21.4188 C   0  0  0  0  0  0  0  0  0  0  0  0
   14.2213  -16.5244   21.1233 O   0  0  0  0  0  0  0  0  0  0  0  0
   11.7083  -16.2901   25.9447 O   0  0  0  0  0  0  0  0  0  0  0  0
   14.8862  -14.4481   21.7441 N   0  0  0  0  0  0  0  0  0  0  0  0
   16.2849  -14.8796   21.7613 C   0  0  1  0  0  0  0  0  0  0  0  0
   17.1848  -13.7659   21.2622 C   0  0  0  0  0  0  0  0  0  0  0  0
   17.0536  -13.6121   19.8100 C   0  0  0  0  0  0  0  0  0  0  0  0
   16.2562  -14.3743   18.9897 C   0  0  0  0  0  0  0  0  0  0  0  0
   16.4377  -13.9001   17.7405 N   0  0  0  0  0  0  0  0  0  0  0  0
   17.3058  -12.8959   17.7990 C   0  0  0  0  0  0  0  0  0  0  0  0
   17.6918  -12.7081   19.0616 N   0  0  0  0  0  0  0  0  0  0  0  0
   16.5996  -15.3446   23.1128 C   0  0  0  0  0  0  0  0  0  0  0  0
   17.8584  -15.8824   23.4215 O   0  0  0  0  0  0  0  0  0  0  0  0
   15.7554  -15.2801   24.0447 O   0  0  0  0  0  0  0  0  0  0  0  0
  2  1  1  6
  2  3  1  0
  4  3  1  0
  5  4  1  0
  6  5  2  0
  7  2  1  0
  8  7  2  0
  9  5  1  0
 10  7  1  0
 11 16  1  0
 11 10  1  0
 11 12  1  1
 13 12  1  0
 14 13  1  0
 15 14  2  0
 16 17  2  0
 18 14  1  0
 19 20  1  0
 19 16  1  0
 21 22  1  0
 20 21  1  1
 22 23  2  0
 24 23  1  0
 25 24  1  0
 26 25  2  0
 26 22  1  0
 27 20  1  0
 28 27  1  0
 29 27  2  0
M  END
$$$$
