EEH.pdb
     RDKit          3D

 29 29  0  0  1  0  0  0  0  0999 V2000
   11.2760  -16.3262   17.8971 N   0  0  0  0  0  0  0  0  0  0  0  0
   11.9879  -16.6058   19.1354 C   0  0  1  0  0  0  0  0  0  0  0  0
   12.9262  -15.4443   19.3612 C   0  0  0  0  0  0  0  0  0  0  0  0
   13.2058  -14.6310   18.1412 C   0  0  0  0  0  0  0  0  0  0  0  0
   14.2032  -13.6036   18.5002 C   0  0  0  0  0  0  0  0  0  0  0  0
   15.3913  -13.9248   18.6918 O   0  0  0  0  0  0  0  0  0  0  0  0
   11.0373  -16.7987   20.2402 C   0  0  0  0  0  0  0  0  0  0  0  0
    9.9004  -16.2713   20.2900 O   0  0  0  0  0  0  0  0  0  0  0  0
   13.8252  -12.2871   18.6244 O   0  0  0  0  0  0  0  0  0  0  0  0
   11.4201  -17.6312   21.3214 N   0  0  0  0  0  0  0  0  0  0  0  0
   10.3836  -18.1175   22.2870 C   0  0  1  0  0  0  0  0  0  0  0  0
   10.6734  -19.5549   22.5819 C   0  0  0  0  0  0  0  0  0  0  0  0
    9.7624  -20.1730   23.5774 C   0  0  0  0  0  0  0  0  0  0  0  0
   10.0151  -21.5933   23.8720 C   0  0  0  0  0  0  0  0  0  0  0  0
    9.3234  -22.1838   24.7281 O   0  0  0  0  0  0  0  0  0  0  0  0
   10.5138  -17.2521   23.4756 C   0  0  0  0  0  0  0  0  0  0  0  0
   11.6846  -16.9244   23.8849 O   0  0  0  0  0  0  0  0  0  0  0  0
   11.0077  -22.3140   23.2260 O   0  0  0  0  0  0  0  0  0  0  0  0
    9.4558  -16.7178   24.2433 N   0  0  0  0  0  0  0  0  0  0  0  0
    9.6710  -16.1930   25.5927 C   0  0  1  0  0  0  0  0  0  0  0  0
    8.3418  -15.8995   26.2608 C   0  0  0  0  0  0  0  0  0  0  0  0
    7.6656  -14.7845   25.5906 C   0  0  0  0  0  0  0  0  0  0  0  0
    8.1598  -14.0670   24.5272 C   0  0  0  0  0  0  0  0  0  0  0  0
    7.2250  -13.1420   24.2293 N   0  0  0  0  0  0  0  0  0  0  0  0
    6.2094  -13.2905   25.0730 C   0  0  0  0  0  0  0  0  0  0  0  0
    6.4658  -14.2938   25.9133 N   0  0  0  0  0  0  0  0  0  0  0  0
   10.5110  -17.1446   26.3210 C   0  0  0  0  0  0  0  0  0  0  0  0
   11.5486  -16.7059   27.1578 O   0  0  0  0  0  0  0  0  0  0  0  0
   10.3350  -18.3874   26.2234 O   0  0  0  0  0  0  0  0  0  0  0  0
  2  1  1  6
  2  3  1  0
  4  3  1  0
  5  4  1  0
  6  5  2  0
  7  2  1  0
  8  7  2  0
  9  5  1  0
 10  7  1  0
 11 16  1  0
 11 10  1  0
 11 12  1  1
 13 12  1  0
 14 13  1  0
 15 14  2  0
 16 17  2  0
 18 14  1  0
 19 20  1  0
 19 16  1  0
 21 22  1  0
 20 21  1  1
 22 23  2  0
 24 23  1  0
 25 24  1  0
 26 25  2  0
 26 22  1  0
 27 20  1  0
 28 27  1  0
 29 27  2  0
M  END
$$$$
