EEH.pdb
     RDKit          3D

 29 29  0  0  1  0  0  0  0  0999 V2000
   10.8452  -21.7920   16.2034 N   0  0  0  0  0  0  0  0  0  0  0  0
   11.6413  -20.5790   16.0883 C   0  0  1  0  0  0  0  0  0  0  0  0
   11.3748  -20.0215   14.7104 C   0  0  0  0  0  0  0  0  0  0  0  0
   12.1738  -18.8072   14.3713 C   0  0  0  0  0  0  0  0  0  0  0  0
   11.8421  -18.4187   12.9863 C   0  0  0  0  0  0  0  0  0  0  0  0
   11.7166  -19.2900   12.1049 O   0  0  0  0  0  0  0  0  0  0  0  0
   11.2989  -19.6376   17.1644 C   0  0  0  0  0  0  0  0  0  0  0  0
   11.8464  -18.5202   17.3220 O   0  0  0  0  0  0  0  0  0  0  0  0
   11.6699  -17.0932   12.6626 O   0  0  0  0  0  0  0  0  0  0  0  0
   10.2879  -20.0065   18.0865 N   0  0  0  0  0  0  0  0  0  0  0  0
    9.8243  -19.0201   19.1138 C   0  0  1  0  0  0  0  0  0  0  0  0
    8.4840  -19.4676   19.6040 C   0  0  0  0  0  0  0  0  0  0  0  0
    7.3601  -19.1590   18.6850 C   0  0  0  0  0  0  0  0  0  0  0  0
    6.0607  -19.7457   19.0534 C   0  0  0  0  0  0  0  0  0  0  0  0
    5.0556  -19.5255   18.3453 O   0  0  0  0  0  0  0  0  0  0  0  0
   10.8547  -19.0363   20.1705 C   0  0  0  0  0  0  0  0  0  0  0  0
   11.4128  -20.1486   20.4823 O   0  0  0  0  0  0  0  0  0  0  0  0
    5.9056  -20.5464   20.1743 O   0  0  0  0  0  0  0  0  0  0  0  0
   11.3193  -17.9235   20.9053 N   0  0  0  0  0  0  0  0  0  0  0  0
   12.3643  -18.0530   21.9223 C   0  0  1  0  0  0  0  0  0  0  0  0
   13.5852  -17.2451   21.5273 C   0  0  0  0  0  0  0  0  0  0  0  0
   14.6545  -17.4143   22.5160 C   0  0  0  0  0  0  0  0  0  0  0  0
   14.5586  -18.1222   23.6905 C   0  0  0  0  0  0  0  0  0  0  0  0
   15.7605  -18.0182   24.2929 N   0  0  0  0  0  0  0  0  0  0  0  0
   16.5506  -17.2807   23.5199 C   0  0  0  0  0  0  0  0  0  0  0  0
   15.8857  -16.9036   22.4271 N   0  0  0  0  0  0  0  0  0  0  0  0
   11.7889  -17.6772   23.2143 C   0  0  0  0  0  0  0  0  0  0  0  0
   12.3130  -18.1774   24.4162 O   0  0  0  0  0  0  0  0  0  0  0  0
   10.8057  -16.8949   23.2949 O   0  0  0  0  0  0  0  0  0  0  0  0
  2  1  1  1
  2  3  1  0
  4  3  1  0
  5  4  1  0
  6  5  2  0
  7  2  1  0
  8  7  2  0
  9  5  1  0
 10  7  1  0
 11 16  1  0
 11 10  1  0
 11 12  1  1
 13 12  1  0
 14 13  1  0
 15 14  2  0
 16 17  2  0
 18 14  1  0
 19 20  1  0
 19 16  1  0
 21 22  1  0
 20 21  1  6
 22 23  2  0
 24 23  1  0
 25 24  1  0
 26 25  2  0
 26 22  1  0
 27 20  1  0
 28 27  1  0
 29 27  2  0
M  END
$$$$
