EEH.pdb
     RDKit          3D

 29 29  0  0  1  0  0  0  0  0999 V2000
   15.6645  -19.0595   16.4712 N   0  0  0  0  0  0  0  0  0  0  0  0
   17.1160  -18.9511   16.4681 C   0  0  1  0  0  0  0  0  0  0  0  0
   17.5370  -18.8853   15.0193 C   0  0  0  0  0  0  0  0  0  0  0  0
   16.9540  -17.7409   14.2589 C   0  0  0  0  0  0  0  0  0  0  0  0
   17.4244  -17.8378   12.8630 C   0  0  0  0  0  0  0  0  0  0  0  0
   17.3842  -18.9290   12.2634 O   0  0  0  0  0  0  0  0  0  0  0  0
   17.5435  -17.7776   17.2438 C   0  0  0  0  0  0  0  0  0  0  0  0
   18.7382  -17.4192   17.3760 O   0  0  0  0  0  0  0  0  0  0  0  0
   17.9088  -16.7239   12.2180 O   0  0  0  0  0  0  0  0  0  0  0  0
   16.5512  -16.9959   17.8860 N   0  0  0  0  0  0  0  0  0  0  0  0
   16.9561  -15.8101   18.7065 C   0  0  1  0  0  0  0  0  0  0  0  0
   15.9918  -14.7041   18.4169 C   0  0  0  0  0  0  0  0  0  0  0  0
   16.4523  -13.7432   17.3836 C   0  0  0  0  0  0  0  0  0  0  0  0
   15.5184  -12.6472   17.0761 C   0  0  0  0  0  0  0  0  0  0  0  0
   15.5704  -11.5839   17.7294 O   0  0  0  0  0  0  0  0  0  0  0  0
   16.9020  -16.2635   20.1100 C   0  0  0  0  0  0  0  0  0  0  0  0
   15.9492  -17.0387   20.4801 O   0  0  0  0  0  0  0  0  0  0  0  0
   14.5670  -12.7500   16.0730 O   0  0  0  0  0  0  0  0  0  0  0  0
   17.8170  -15.9328   21.1336 N   0  0  0  0  0  0  0  0  0  0  0  0
   17.8694  -16.6794   22.3916 C   0  0  1  0  0  0  0  0  0  0  0  0
   18.0820  -18.1557   22.1183 C   0  0  0  0  0  0  0  0  0  0  0  0
   16.8042  -18.8737   22.1557 C   0  0  0  0  0  0  0  0  0  0  0  0
   16.6505  -20.2374   22.2369 C   0  0  0  0  0  0  0  0  0  0  0  0
   15.3219  -20.4676   22.2423 N   0  0  0  0  0  0  0  0  0  0  0  0
   14.6968  -19.2974   22.1677 C   0  0  0  0  0  0  0  0  0  0  0  0
   15.5932  -18.3115   22.1140 N   0  0  0  0  0  0  0  0  0  0  0  0
   18.8978  -16.0719   23.2371 C   0  0  0  0  0  0  0  0  0  0  0  0
   18.8219  -16.1407   24.6367 O   0  0  0  0  0  0  0  0  0  0  0  0
   19.8847  -15.4669   22.7419 O   0  0  0  0  0  0  0  0  0  0  0  0
  2  1  1  6
  2  3  1  0
  4  3  1  0
  5  4  1  0
  6  5  2  0
  7  2  1  0
  8  7  2  0
  9  5  1  0
 10  7  1  0
 11 16  1  0
 11 10  1  0
 11 12  1  1
 13 12  1  0
 14 13  1  0
 15 14  2  0
 16 17  2  0
 18 14  1  0
 19 20  1  0
 19 16  1  0
 21 22  1  0
 20 21  1  6
 22 23  2  0
 24 23  1  0
 25 24  1  0
 26 25  2  0
 26 22  1  0
 27 20  1  0
 28 27  1  0
 29 27  2  0
M  END
$$$$
