EEH.pdb
     RDKit          3D

 29 29  0  0  1  0  0  0  0  0999 V2000
   11.4909  -16.1754   15.1903 N   0  0  0  0  0  0  0  0  0  0  0  0
   11.2281  -15.6560   16.5243 C   0  0  1  0  0  0  0  0  0  0  0  0
   10.0050  -16.3813   17.0326 C   0  0  0  0  0  0  0  0  0  0  0  0
    9.6845  -16.1198   18.4668 C   0  0  0  0  0  0  0  0  0  0  0  0
    8.4581  -16.8704   18.8012 C   0  0  0  0  0  0  0  0  0  0  0  0
    7.8869  -17.5554   17.9316 O   0  0  0  0  0  0  0  0  0  0  0  0
   12.4045  -15.8404   17.3866 C   0  0  0  0  0  0  0  0  0  0  0  0
   12.8871  -16.9582   17.6882 O   0  0  0  0  0  0  0  0  0  0  0  0
    7.9407  -16.8170   20.0743 O   0  0  0  0  0  0  0  0  0  0  0  0
   13.0402  -14.6893   17.9149 N   0  0  0  0  0  0  0  0  0  0  0  0
   14.3471  -14.8270   18.6336 C   0  0  1  0  0  0  0  0  0  0  0  0
   15.3269  -13.9056   17.9794 C   0  0  0  0  0  0  0  0  0  0  0  0
   16.1565  -14.5404   16.9250 C   0  0  0  0  0  0  0  0  0  0  0  0
   17.2237  -13.6953   16.3637 C   0  0  0  0  0  0  0  0  0  0  0  0
   18.2358  -13.4351   17.0477 O   0  0  0  0  0  0  0  0  0  0  0  0
   14.0671  -14.4622   20.0362 C   0  0  0  0  0  0  0  0  0  0  0  0
   13.1120  -13.6444   20.2906 O   0  0  0  0  0  0  0  0  0  0  0  0
   17.1486  -13.1676   15.0840 O   0  0  0  0  0  0  0  0  0  0  0  0
   14.7540  -14.9313   21.1774 N   0  0  0  0  0  0  0  0  0  0  0  0
   14.0417  -15.4167   22.3605 C   0  0  1  0  0  0  0  0  0  0  0  0
   12.8989  -16.3250   21.9502 C   0  0  0  0  0  0  0  0  0  0  0  0
   12.2451  -16.8934   23.1331 C   0  0  0  0  0  0  0  0  0  0  0  0
   12.4391  -16.4871   24.4320 C   0  0  0  0  0  0  0  0  0  0  0  0
   11.6508  -17.2717   25.1943 N   0  0  0  0  0  0  0  0  0  0  0  0
   11.0072  -18.1161   24.3954 C   0  0  0  0  0  0  0  0  0  0  0  0
   11.3618  -17.8956   23.1289 N   0  0  0  0  0  0  0  0  0  0  0  0
   15.0177  -16.0459   23.2511 C   0  0  0  0  0  0  0  0  0  0  0  0
   14.7608  -16.1929   24.6229 O   0  0  0  0  0  0  0  0  0  0  0  0
   16.1200  -16.4763   22.8212 O   0  0  0  0  0  0  0  0  0  0  0  0
  2  1  1  6
  2  3  1  0
  4  3  1  0
  5  4  1  0
  6  5  2  0
  7  2  1  0
  8  7  2  0
  9  5  1  0
 10  7  1  0
 11 16  1  0
 11 10  1  0
 11 12  1  6
 13 12  1  0
 14 13  1  0
 15 14  2  0
 16 17  2  0
 18 14  1  0
 19 20  1  0
 19 16  1  0
 21 22  1  0
 20 21  1  6
 22 23  2  0
 24 23  1  0
 25 24  1  0
 26 25  2  0
 26 22  1  0
 27 20  1  0
 28 27  1  0
 29 27  2  0
M  END
$$$$
