EEH.pdb
     RDKit          3D

 29 29  0  0  1  0  0  0  0  0999 V2000
    9.4602  -13.3007   19.0078 N   0  0  0  0  0  0  0  0  0  0  0  0
    8.2863  -14.0883   19.3544 C   0  0  1  0  0  0  0  0  0  0  0  0
    7.7156  -14.6008   18.0536 C   0  0  0  0  0  0  0  0  0  0  0  0
    8.1514  -13.8391   16.8462 C   0  0  0  0  0  0  0  0  0  0  0  0
    7.4516  -14.4053   15.6762 C   0  0  0  0  0  0  0  0  0  0  0  0
    6.6209  -15.3212   15.8267 O   0  0  0  0  0  0  0  0  0  0  0  0
    8.6495  -15.1661   20.2859 C   0  0  0  0  0  0  0  0  0  0  0  0
    7.8407  -16.0183   20.7252 O   0  0  0  0  0  0  0  0  0  0  0  0
    7.7133  -13.9239   14.4147 O   0  0  0  0  0  0  0  0  0  0  0  0
    9.9953  -15.2565   20.7207 N   0  0  0  0  0  0  0  0  0  0  0  0
   10.3801  -16.2893   21.7349 C   0  0  1  0  0  0  0  0  0  0  0  0
   11.6502  -16.9306   21.2738 C   0  0  0  0  0  0  0  0  0  0  0  0
   12.2264  -17.9084   22.2303 C   0  0  0  0  0  0  0  0  0  0  0  0
   13.4726  -18.5613   21.7957 C   0  0  0  0  0  0  0  0  0  0  0  0
   13.5381  -19.0860   20.6642 O   0  0  0  0  0  0  0  0  0  0  0  0
   10.5381  -15.5556   23.0058 C   0  0  0  0  0  0  0  0  0  0  0  0
   10.9811  -14.3519   22.9816 O   0  0  0  0  0  0  0  0  0  0  0  0
   14.5956  -18.6181   22.6066 O   0  0  0  0  0  0  0  0  0  0  0  0
   10.2423  -16.0433   24.2976 N   0  0  0  0  0  0  0  0  0  0  0  0
    9.6207  -15.1971   25.3176 C   0  0  1  0  0  0  0  0  0  0  0  0
    8.3454  -14.5772   24.7804 C   0  0  0  0  0  0  0  0  0  0  0  0
    7.7220  -13.7238   25.7967 C   0  0  0  0  0  0  0  0  0  0  0  0
    8.2391  -13.4449   27.0394 C   0  0  0  0  0  0  0  0  0  0  0  0
    7.3503  -12.6307   27.6438 N   0  0  0  0  0  0  0  0  0  0  0  0
    6.3392  -12.4245   26.8068 C   0  0  0  0  0  0  0  0  0  0  0  0
    6.5536  -13.0885   25.6703 N   0  0  0  0  0  0  0  0  0  0  0  0
    9.4334  -16.0040   26.5239 C   0  0  0  0  0  0  0  0  0  0  0  0
    9.1486  -17.3758   26.4437 O   0  0  0  0  0  0  0  0  0  0  0  0
    9.5198  -15.4990   27.6740 O   0  0  0  0  0  0  0  0  0  0  0  0
  2  1  1  6
  2  3  1  0
  4  3  1  0
  5  4  1  0
  6  5  2  0
  7  2  1  0
  8  7  2  0
  9  5  1  0
 10  7  1  0
 11 16  1  0
 11 10  1  0
 11 12  1  6
 13 12  1  0
 14 13  1  0
 15 14  2  0
 16 17  2  0
 18 14  1  0
 19 20  1  0
 19 16  1  0
 21 22  1  0
 20 21  1  6
 22 23  2  0
 24 23  1  0
 25 24  1  0
 26 25  2  0
 26 22  1  0
 27 20  1  0
 28 27  1  0
 29 27  2  0
M  END
$$$$
