EEH.pdb
     RDKit          3D

 29 29  0  0  1  0  0  0  0  0999 V2000
    8.8671  -17.8441   20.5165 N   0  0  0  0  0  0  0  0  0  0  0  0
    9.7417  -17.9486   21.6752 C   0  0  1  0  0  0  0  0  0  0  0  0
   10.9317  -17.0624   21.3942 C   0  0  0  0  0  0  0  0  0  0  0  0
   11.8019  -17.5338   20.2769 C   0  0  0  0  0  0  0  0  0  0  0  0
   12.9542  -16.6161   20.1816 C   0  0  0  0  0  0  0  0  0  0  0  0
   13.0187  -15.7867   19.2545 O   0  0  0  0  0  0  0  0  0  0  0  0
    9.0194  -17.5689   22.8980 C   0  0  0  0  0  0  0  0  0  0  0  0
    8.1012  -16.7152   22.9361 O   0  0  0  0  0  0  0  0  0  0  0  0
   13.9617  -16.6725   21.1161 O   0  0  0  0  0  0  0  0  0  0  0  0
    9.3751  -18.2016   24.1152 N   0  0  0  0  0  0  0  0  0  0  0  0
    8.5732  -17.9361   25.3520 C   0  0  1  0  0  0  0  0  0  0  0  0
    8.5275  -19.2022   26.1469 C   0  0  0  0  0  0  0  0  0  0  0  0
    7.8312  -19.0826   27.4522 C   0  0  0  0  0  0  0  0  0  0  0  0
    7.8358  -20.2959   28.2865 C   0  0  0  0  0  0  0  0  0  0  0  0
    8.8810  -20.6410   28.8769 O   0  0  0  0  0  0  0  0  0  0  0  0
    9.2779  -16.8453   26.0534 C   0  0  0  0  0  0  0  0  0  0  0  0
   10.5561  -16.7722   25.9707 O   0  0  0  0  0  0  0  0  0  0  0  0
    6.7067  -21.0843   28.4457 O   0  0  0  0  0  0  0  0  0  0  0  0
    8.6840  -15.8289   26.8334 N   0  0  0  0  0  0  0  0  0  0  0  0
    9.4701  -14.7285   27.3939 C   0  0  1  0  0  0  0  0  0  0  0  0
    8.5538  -13.6839   28.0009 C   0  0  0  0  0  0  0  0  0  0  0  0
    7.6414  -13.1492   26.9853 C   0  0  0  0  0  0  0  0  0  0  0  0
    7.7132  -13.3895   25.6337 C   0  0  0  0  0  0  0  0  0  0  0  0
    6.6925  -12.7084   25.0747 N   0  0  0  0  0  0  0  0  0  0  0  0
    6.0308  -12.0827   26.0423 C   0  0  0  0  0  0  0  0  0  0  0  0
    6.6014  -12.3440   27.2190 N   0  0  0  0  0  0  0  0  0  0  0  0
   10.4385  -15.2953   28.3333 C   0  0  0  0  0  0  0  0  0  0  0  0
   10.5234  -16.6805   28.5421 O   0  0  0  0  0  0  0  0  0  0  0  0
   11.2278  -14.5639   28.9869 O   0  0  0  0  0  0  0  0  0  0  0  0
  2  1  1  6
  2  3  1  0
  4  3  1  0
  5  4  1  0
  6  5  2  0
  7  2  1  0
  8  7  2  0
  9  5  1  0
 10  7  1  0
 11 16  1  0
 11 10  1  0
 11 12  1  1
 13 12  1  0
 14 13  1  0
 15 14  2  0
 16 17  2  0
 18 14  1  0
 19 20  1  0
 19 16  1  0
 21 22  1  0
 20 21  1  1
 22 23  2  0
 24 23  1  0
 25 24  1  0
 26 25  2  0
 26 22  1  0
 27 20  1  0
 28 27  1  0
 29 27  2  0
M  END
$$$$
