EKG.pdb
     RDKit          3D

 23 22  0  0  1  0  0  0  0  0999 V2000
   15.1480  -14.4598   17.4795 N   0  0  0  0  0  0  0  0  0  0  0  0
   13.9463  -15.1803   17.6984 C   0  0  1  0  0  0  0  0  0  0  0  0
   14.1367  -16.6487   17.5637 C   0  0  0  0  0  0  0  0  0  0  0  0
   15.2303  -17.2815   18.3256 C   0  0  0  0  0  0  0  0  0  0  0  0
   15.4098  -18.7250   18.2274 C   0  0  0  0  0  0  0  0  0  0  0  0
   14.9183  -19.5437   19.0067 O   0  0  0  0  0  0  0  0  0  0  0  0
   13.2688  -14.8382   19.0007 C   0  0  0  0  0  0  0  0  0  0  0  0
   13.9795  -14.6504   20.0255 O   0  0  0  0  0  0  0  0  0  0  0  0
   16.1913  -19.2930   17.1880 O   0  0  0  0  0  0  0  0  0  0  0  0
   11.8768  -14.7100   19.1580 N   0  0  0  0  0  0  0  0  0  0  0  0
   11.2800  -14.3569   20.4765 C   0  0  1  0  0  0  0  0  0  0  0  0
   10.2519  -13.2831   20.2410 C   0  0  0  0  0  0  0  0  0  0  0  0
    9.1696  -13.7657   19.3510 C   0  0  0  0  0  0  0  0  0  0  0  0
    8.1678  -12.6586   19.0236 C   0  0  0  0  0  0  0  0  0  0  0  0
    7.0723  -13.1663   18.1164 C   0  0  0  0  0  0  0  0  0  0  0  0
    6.1794  -12.0489   17.8561 N   0  0  0  0  0  0  0  0  0  0  0  0
   10.7953  -15.5892   21.0878 C   0  0  0  0  0  0  0  0  0  0  0  0
    9.8283  -16.2002   20.5167 O   0  0  0  0  0  0  0  0  0  0  0  0
   11.2854  -16.2075   22.2688 N   0  0  0  0  0  0  0  0  0  0  0  0
   10.8502  -15.8028   23.5955 C   0  0  0  0  0  0  0  0  0  0  0  0
   11.6308  -16.4652   24.6586 C   0  0  0  0  0  0  0  0  0  0  0  0
   11.2970  -16.3105   25.8502 O   0  0  0  0  0  0  0  0  0  0  0  0
   12.7210  -17.2508   24.3604 O   0  0  0  0  0  0  0  0  0  0  0  0
  2  7  1  0
  2  1  1  1
  3  2  1  0
  4  3  1  0
  5  4  1  0
  6  5  2  0
  7  8  2  0
  9  5  1  0
 10 11  1  0
 10  7  1  0
 11 12  1  6
 12 13  1  0
 14 13  1  0
 14 15  1  0
 16 15  1  0
 17 11  1  0
 18 17  2  0
 19 17  1  0
 20 21  1  0
 20 19  1  0
 21 23  1  0
 22 21  2  0
M  END
$$$$
