EKG.pdb
     RDKit          3D

 23 22  0  0  1  0  0  0  0  0999 V2000
    7.7839  -18.1320   19.4619 N   0  0  0  0  0  0  0  0  0  0  0  0
    9.0751  -17.5535   19.3652 C   0  0  1  0  0  0  0  0  0  0  0  0
    9.3673  -17.0522   17.9963 C   0  0  0  0  0  0  0  0  0  0  0  0
    8.6121  -17.6293   16.8678 C   0  0  0  0  0  0  0  0  0  0  0  0
    8.9769  -17.2444   15.5098 C   0  0  0  0  0  0  0  0  0  0  0  0
    8.1684  -17.0264   14.6054 O   0  0  0  0  0  0  0  0  0  0  0  0
    9.3361  -16.4891   20.4001 C   0  0  0  0  0  0  0  0  0  0  0  0
   10.4038  -15.8215   20.3305 O   0  0  0  0  0  0  0  0  0  0  0  0
   10.3374  -17.0925   15.1361 O   0  0  0  0  0  0  0  0  0  0  0  0
    8.4590  -16.1809   21.4558 N   0  0  0  0  0  0  0  0  0  0  0  0
    8.8836  -15.2956   22.5763 C   0  0  1  0  0  0  0  0  0  0  0  0
    7.6397  -14.7669   23.2387 C   0  0  0  0  0  0  0  0  0  0  0  0
    7.9766  -13.8879   24.3833 C   0  0  0  0  0  0  0  0  0  0  0  0
    6.7236  -13.3719   25.0908 C   0  0  0  0  0  0  0  0  0  0  0  0
    7.0841  -12.5287   26.2908 C   0  0  0  0  0  0  0  0  0  0  0  0
    5.8388  -12.0451   26.8642 N   0  0  0  0  0  0  0  0  0  0  0  0
    9.7902  -16.0597   23.4256 C   0  0  0  0  0  0  0  0  0  0  0  0
    9.3640  -17.1600   23.9178 O   0  0  0  0  0  0  0  0  0  0  0  0
   11.1239  -15.7194   23.7754 N   0  0  0  0  0  0  0  0  0  0  0  0
   12.0676  -16.7004   24.2857 C   0  0  0  0  0  0  0  0  0  0  0  0
   13.3532  -16.0837   24.6668 C   0  0  0  0  0  0  0  0  0  0  0  0
   14.1460  -15.7202   23.7755 O   0  0  0  0  0  0  0  0  0  0  0  0
   13.6944  -15.9017   25.9879 O   0  0  0  0  0  0  0  0  0  0  0  0
  2  7  1  0
  2  1  1  6
  3  2  1  0
  4  3  1  0
  5  4  1  0
  6  5  2  0
  7  8  2  0
  9  5  1  0
 10 11  1  0
 10  7  1  0
 11 12  1  1
 12 13  1  0
 14 13  1  0
 14 15  1  0
 16 15  1  0
 17 11  1  0
 18 17  2  0
 19 17  1  0
 20 21  1  0
 20 19  1  0
 21 23  1  0
 22 21  2  0
M  END
$$$$
