EKG.pdb
     RDKit          3D

 23 22  0  0  1  0  0  0  0  0999 V2000
   10.8723  -18.9956   19.0953 N   0  0  0  0  0  0  0  0  0  0  0  0
   12.0369  -19.0053   19.9046 C   0  0  1  0  0  0  0  0  0  0  0  0
   13.2792  -19.1643   19.1034 C   0  0  0  0  0  0  0  0  0  0  0  0
   13.3418  -18.5150   17.7800 C   0  0  0  0  0  0  0  0  0  0  0  0
   14.5492  -18.6719   16.9781 C   0  0  0  0  0  0  0  0  0  0  0  0
   15.5892  -18.0334   17.1508 O   0  0  0  0  0  0  0  0  0  0  0  0
   12.1359  -17.8194   20.8298 C   0  0  0  0  0  0  0  0  0  0  0  0
   12.4314  -16.6929   20.3458 O   0  0  0  0  0  0  0  0  0  0  0  0
   14.5986  -19.6056   15.9107 O   0  0  0  0  0  0  0  0  0  0  0  0
   11.9180  -17.8796   22.2183 N   0  0  0  0  0  0  0  0  0  0  0  0
   12.0139  -16.6586   23.0665 C   0  0  1  0  0  0  0  0  0  0  0  0
   10.9401  -16.7456   24.1176 C   0  0  0  0  0  0  0  0  0  0  0  0
    9.5918  -16.7698   23.5030 C   0  0  0  0  0  0  0  0  0  0  0  0
    8.4892  -16.8719   24.5569 C   0  0  0  0  0  0  0  0  0  0  0  0
    7.1227  -16.9003   23.9145 C   0  0  0  0  0  0  0  0  0  0  0  0
    6.1437  -16.8846   24.9891 N   0  0  0  0  0  0  0  0  0  0  0  0
   13.3854  -16.5641   23.5536 C   0  0  0  0  0  0  0  0  0  0  0  0
   13.7923  -17.4578   24.3723 O   0  0  0  0  0  0  0  0  0  0  0  0
   14.3464  -15.5750   23.2144 N   0  0  0  0  0  0  0  0  0  0  0  0
   15.5598  -15.3727   23.9891 C   0  0  0  0  0  0  0  0  0  0  0  0
   16.7593  -15.8434   23.2694 C   0  0  0  0  0  0  0  0  0  0  0  0
   17.8260  -15.2060   23.3748 O   0  0  0  0  0  0  0  0  0  0  0  0
   16.7236  -16.9729   22.4835 O   0  0  0  0  0  0  0  0  0  0  0  0
  2  7  1  0
  2  1  1  6
  3  2  1  0
  4  3  1  0
  5  4  1  0
  6  5  2  0
  7  8  2  0
  9  5  1  0
 10 11  1  0
 10  7  1  0
 11 12  1  1
 12 13  1  0
 14 13  1  0
 14 15  1  0
 16 15  1  0
 17 11  1  0
 18 17  2  0
 19 17  1  0
 20 21  1  0
 20 19  1  0
 21 23  1  0
 22 21  2  0
M  END
$$$$
