EKG.pdb
     RDKit          3D

 23 22  0  0  1  0  0  0  0  0999 V2000
    9.8411  -18.9998   17.1684 N   0  0  0  0  0  0  0  0  0  0  0  0
    9.9113  -19.1542   18.5764 C   0  0  1  0  0  0  0  0  0  0  0  0
   10.8726  -20.2140   18.9803 C   0  0  0  0  0  0  0  0  0  0  0  0
   12.3150  -19.9169   18.8889 C   0  0  0  0  0  0  0  0  0  0  0  0
   13.2691  -20.9372   19.3061 C   0  0  0  0  0  0  0  0  0  0  0  0
   14.4930  -20.7916   19.3010 O   0  0  0  0  0  0  0  0  0  0  0  0
   10.1843  -17.8659   19.3097 C   0  0  0  0  0  0  0  0  0  0  0  0
   11.0896  -17.1006   18.8792 O   0  0  0  0  0  0  0  0  0  0  0  0
   12.8264  -22.2067   19.7599 O   0  0  0  0  0  0  0  0  0  0  0  0
    9.4893  -17.4478   20.4591 N   0  0  0  0  0  0  0  0  0  0  0  0
    9.7728  -16.1301   21.0938 C   0  0  1  0  0  0  0  0  0  0  0  0
    8.4733  -15.3759   21.1832 C   0  0  0  0  0  0  0  0  0  0  0  0
    7.9963  -14.9725   19.8393 C   0  0  0  0  0  0  0  0  0  0  0  0
    7.3619  -13.5818   19.8560 C   0  0  0  0  0  0  0  0  0  0  0  0
    6.8680  -13.1921   18.4830 C   0  0  0  0  0  0  0  0  0  0  0  0
    6.1605  -11.9300   18.6245 N   0  0  0  0  0  0  0  0  0  0  0  0
   10.4577  -16.3846   22.3561 C   0  0  0  0  0  0  0  0  0  0  0  0
    9.7446  -16.6875   23.3731 O   0  0  0  0  0  0  0  0  0  0  0  0
   11.8572  -16.3382   22.5934 N   0  0  0  0  0  0  0  0  0  0  0  0
   12.4286  -16.5464   23.9138 C   0  0  0  0  0  0  0  0  0  0  0  0
   13.9032  -16.4875   23.8929 C   0  0  0  0  0  0  0  0  0  0  0  0
   14.4976  -16.4164   22.7990 O   0  0  0  0  0  0  0  0  0  0  0  0
   14.6356  -16.5094   25.0582 O   0  0  0  0  0  0  0  0  0  0  0  0
  2  7  1  0
  2  1  1  6
  3  2  1  0
  4  3  1  0
  5  4  1  0
  6  5  2  0
  7  8  2  0
  9  5  1  0
 10 11  1  0
 10  7  1  0
 11 12  1  1
 12 13  1  0
 14 13  1  0
 14 15  1  0
 16 15  1  0
 17 11  1  0
 18 17  2  0
 19 17  1  0
 20 21  1  0
 20 19  1  0
 21 23  1  0
 22 21  2  0
M  END
$$$$
