EKG.pdb
     RDKit          3D

 23 22  0  0  1  0  0  0  0  0999 V2000
    7.6521  -17.5694   19.6516 N   0  0  0  0  0  0  0  0  0  0  0  0
    8.9550  -17.5962   20.2113 C   0  0  1  0  0  0  0  0  0  0  0  0
   10.0157  -17.6231   19.1698 C   0  0  0  0  0  0  0  0  0  0  0  0
    9.7236  -18.3089   17.8965 C   0  0  0  0  0  0  0  0  0  0  0  0
   10.8007  -18.4802   16.9290 C   0  0  0  0  0  0  0  0  0  0  0  0
   10.6733  -19.0301   15.8333 O   0  0  0  0  0  0  0  0  0  0  0  0
    9.2030  -16.4950   21.2103 C   0  0  0  0  0  0  0  0  0  0  0  0
   10.1718  -15.7097   21.0223 O   0  0  0  0  0  0  0  0  0  0  0  0
   12.1093  -18.0051   17.2038 O   0  0  0  0  0  0  0  0  0  0  0  0
    8.4176  -16.2758   22.3566 N   0  0  0  0  0  0  0  0  0  0  0  0
    8.8071  -15.2597   23.3741 C   0  0  1  0  0  0  0  0  0  0  0  0
    7.5428  -14.6917   23.9611 C   0  0  0  0  0  0  0  0  0  0  0  0
    7.8402  -13.5814   24.8967 C   0  0  0  0  0  0  0  0  0  0  0  0
    6.5644  -12.9704   25.4762 C   0  0  0  0  0  0  0  0  0  0  0  0
    6.8830  -11.8173   26.3980 C   0  0  0  0  0  0  0  0  0  0  0  0
    5.6183  -11.3185   26.9130 N   0  0  0  0  0  0  0  0  0  0  0  0
    9.7214  -15.9004   24.3126 C   0  0  0  0  0  0  0  0  0  0  0  0
    9.2162  -16.5771   25.2725 O   0  0  0  0  0  0  0  0  0  0  0  0
   11.1409  -15.8636   24.2827 N   0  0  0  0  0  0  0  0  0  0  0  0
   11.9516  -16.2167   25.4366 C   0  0  0  0  0  0  0  0  0  0  0  0
   13.3953  -16.0939   25.1554 C   0  0  0  0  0  0  0  0  0  0  0  0
   13.8215  -15.0764   24.5740 O   0  0  0  0  0  0  0  0  0  0  0  0
   14.2811  -17.0815   25.5226 O   0  0  0  0  0  0  0  0  0  0  0  0
  2  7  1  0
  2  1  1  6
  3  2  1  0
  4  3  1  0
  5  4  1  0
  6  5  2  0
  7  8  2  0
  9  5  1  0
 10 11  1  0
 10  7  1  0
 11 12  1  1
 12 13  1  0
 14 13  1  0
 14 15  1  0
 16 15  1  0
 17 11  1  0
 18 17  2  0
 19 17  1  0
 20 21  1  0
 20 19  1  0
 21 23  1  0
 22 21  2  0
M  END
$$$$
