EKG.pdb
     RDKit          3D

 23 22  0  0  1  0  0  0  0  0999 V2000
   10.2576  -16.5763   19.8973 N   0  0  0  0  0  0  0  0  0  0  0  0
    9.1366  -16.9024   20.7025 C   0  0  1  0  0  0  0  0  0  0  0  0
    8.8891  -18.3674   20.7579 C   0  0  0  0  0  0  0  0  0  0  0  0
    9.4091  -19.2031   19.6588 C   0  0  0  0  0  0  0  0  0  0  0  0
    8.7235  -20.4499   19.3409 C   0  0  0  0  0  0  0  0  0  0  0  0
    9.0605  -21.2215   18.4408 O   0  0  0  0  0  0  0  0  0  0  0  0
    9.1982  -16.3097   22.0871 C   0  0  0  0  0  0  0  0  0  0  0  0
   10.2528  -16.4522   22.7638 O   0  0  0  0  0  0  0  0  0  0  0  0
    7.5839  -20.8632   20.0784 O   0  0  0  0  0  0  0  0  0  0  0  0
    8.1459  -15.5960   22.6890 N   0  0  0  0  0  0  0  0  0  0  0  0
    8.2779  -15.0460   24.0673 C   0  0  1  0  0  0  0  0  0  0  0  0
    7.2515  -13.9565   24.2258 C   0  0  0  0  0  0  0  0  0  0  0  0
    7.3129  -13.3577   25.5800 C   0  0  0  0  0  0  0  0  0  0  0  0
    6.2985  -12.2264   25.7470 C   0  0  0  0  0  0  0  0  0  0  0  0
    6.3988  -11.6031   27.1189 C   0  0  0  0  0  0  0  0  0  0  0  0
    5.3870  -10.5618   27.1914 N   0  0  0  0  0  0  0  0  0  0  0  0
    8.1812  -16.1623   25.0009 C   0  0  0  0  0  0  0  0  0  0  0  0
    7.1229  -16.8790   24.9688 O   0  0  0  0  0  0  0  0  0  0  0  0
    9.1490  -16.5590   25.9617 N   0  0  0  0  0  0  0  0  0  0  0  0
    8.9230  -17.6609   26.8827 C   0  0  0  0  0  0  0  0  0  0  0  0
   10.0951  -17.9092   27.7447 C   0  0  0  0  0  0  0  0  0  0  0  0
   11.1349  -17.2430   27.5710 O   0  0  0  0  0  0  0  0  0  0  0  0
   10.0628  -18.8623   28.7372 O   0  0  0  0  0  0  0  0  0  0  0  0
  2  7  1  0
  2  1  1  1
  3  2  1  0
  4  3  1  0
  5  4  1  0
  6  5  2  0
  7  8  2  0
  9  5  1  0
 10 11  1  0
 10  7  1  0
 11 12  1  1
 12 13  1  0
 14 13  1  0
 14 15  1  0
 16 15  1  0
 17 11  1  0
 18 17  2  0
 19 17  1  0
 20 21  1  0
 20 19  1  0
 21 23  1  0
 22 21  2  0
M  END
$$$$
