EKG.pdb
     RDKit          3D

 23 22  0  0  1  0  0  0  0  0999 V2000
    9.3220  -16.1252   19.3257 N   0  0  0  0  0  0  0  0  0  0  0  0
    8.3109  -16.3437   20.2960 C   0  0  1  0  0  0  0  0  0  0  0  0
    7.9295  -17.7769   20.4000 C   0  0  0  0  0  0  0  0  0  0  0  0
    8.4585  -18.7131   19.3897 C   0  0  0  0  0  0  0  0  0  0  0  0
    8.0696  -20.1163   19.4619 C   0  0  0  0  0  0  0  0  0  0  0  0
    8.4597  -20.9892   18.6842 O   0  0  0  0  0  0  0  0  0  0  0  0
    8.6432  -15.7709   21.6501 C   0  0  0  0  0  0  0  0  0  0  0  0
    9.7453  -16.0718   22.1844 O   0  0  0  0  0  0  0  0  0  0  0  0
    7.1847  -20.5760   20.4714 O   0  0  0  0  0  0  0  0  0  0  0  0
    7.7983  -14.9092   22.3729 N   0  0  0  0  0  0  0  0  0  0  0  0
    8.1546  -14.4547   23.7462 C   0  0  1  0  0  0  0  0  0  0  0  0
    7.1376  -13.4280   24.1671 C   0  0  0  0  0  0  0  0  0  0  0  0
    7.4336  -12.9074   25.5226 C   0  0  0  0  0  0  0  0  0  0  0  0
    6.3760  -11.9075   25.9901 C   0  0  0  0  0  0  0  0  0  0  0  0
    6.6743  -11.4116   27.3851 C   0  0  0  0  0  0  0  0  0  0  0  0
    5.5661  -10.5588   27.7827 N   0  0  0  0  0  0  0  0  0  0  0  0
    8.2616  -15.6388   24.5910 C   0  0  0  0  0  0  0  0  0  0  0  0
    7.2149  -16.3550   24.7524 O   0  0  0  0  0  0  0  0  0  0  0  0
    9.4202  -16.1033   25.2684 N   0  0  0  0  0  0  0  0  0  0  0  0
    9.3823  -17.2244   26.1932 C   0  0  0  0  0  0  0  0  0  0  0  0
   10.7233  -17.5581   26.7116 C   0  0  0  0  0  0  0  0  0  0  0  0
   10.8459  -18.4756   27.5471 O   0  0  0  0  0  0  0  0  0  0  0  0
   11.8422  -16.8757   26.2904 O   0  0  0  0  0  0  0  0  0  0  0  0
  2  7  1  0
  2  1  1  6
  3  2  1  0
  4  3  1  0
  5  4  1  0
  6  5  2  0
  7  8  2  0
  9  5  1  0
 10 11  1  0
 10  7  1  0
 11 12  1  1
 12 13  1  0
 14 13  1  0
 14 15  1  0
 16 15  1  0
 17 11  1  0
 18 17  2  0
 19 17  1  0
 20 21  1  0
 20 19  1  0
 21 23  1  0
 22 21  2  0
M  END
$$$$
