EKG.pdb
     RDKit          3D

 23 22  0  0  1  0  0  0  0  0999 V2000
    9.7994  -18.4611   17.0061 N   0  0  0  0  0  0  0  0  0  0  0  0
   10.2818  -18.8323   18.2871 C   0  0  1  0  0  0  0  0  0  0  0  0
   11.3239  -19.8901   18.2124 C   0  0  0  0  0  0  0  0  0  0  0  0
   10.9702  -21.2488   18.6660 C   0  0  0  0  0  0  0  0  0  0  0  0
   12.0368  -22.2240   18.8580 C   0  0  0  0  0  0  0  0  0  0  0  0
   12.9341  -22.1203   19.6966 O   0  0  0  0  0  0  0  0  0  0  0  0
   10.7532  -17.6634   19.1139 C   0  0  0  0  0  0  0  0  0  0  0  0
   11.8693  -17.1401   18.8473 O   0  0  0  0  0  0  0  0  0  0  0  0
   12.1062  -23.3947   18.0592 O   0  0  0  0  0  0  0  0  0  0  0  0
   10.0250  -17.1040   20.1795 N   0  0  0  0  0  0  0  0  0  0  0  0
   10.5234  -15.9027   20.9061 C   0  0  1  0  0  0  0  0  0  0  0  0
    9.3674  -14.9522   21.0666 C   0  0  0  0  0  0  0  0  0  0  0  0
    9.0393  -14.2886   19.7828 C   0  0  0  0  0  0  0  0  0  0  0  0
    7.8376  -13.3536   19.9180 C   0  0  0  0  0  0  0  0  0  0  0  0
    7.5051  -12.6997   18.5978 C   0  0  0  0  0  0  0  0  0  0  0  0
    6.3504  -11.8453   18.8216 N   0  0  0  0  0  0  0  0  0  0  0  0
   11.1561  -16.3607   22.1378 C   0  0  0  0  0  0  0  0  0  0  0  0
   10.4649  -17.0871   22.9310 O   0  0  0  0  0  0  0  0  0  0  0  0
   12.4825  -16.0918   22.5683 N   0  0  0  0  0  0  0  0  0  0  0  0
   12.9818  -16.5247   23.8632 C   0  0  0  0  0  0  0  0  0  0  0  0
   14.4026  -16.1725   24.0529 C   0  0  0  0  0  0  0  0  0  0  0  0
   15.0562  -15.7245   23.0900 O   0  0  0  0  0  0  0  0  0  0  0  0
   15.0206  -16.3291   25.2728 O   0  0  0  0  0  0  0  0  0  0  0  0
  2  7  1  0
  2  1  1  6
  3  2  1  0
  4  3  1  0
  5  4  1  0
  6  5  2  0
  7  8  2  0
  9  5  1  0
 10 11  1  0
 10  7  1  0
 11 12  1  1
 12 13  1  0
 14 13  1  0
 14 15  1  0
 16 15  1  0
 17 11  1  0
 18 17  2  0
 19 17  1  0
 20 21  1  0
 20 19  1  0
 21 23  1  0
 22 21  2  0
M  END
$$$$
