MVK.pdb
     RDKit          3D

 25 24  0  0  1  0  0  0  0  0999 V2000
   29.5206  -20.1516   -4.9759 C   0  0  0  0  0  0  0  0  0  0  0  0
   27.8247  -20.1304   -4.4117 S   0  0  0  0  0  0  0  0  0  0  0  0
   26.5769  -20.1421   -5.6598 C   0  0  0  0  0  0  0  0  0  0  0  0
   27.0190  -20.2766   -7.0600 C   0  0  0  0  0  0  0  0  0  0  0  0
   25.9976  -20.3174   -8.1098 C   0  0  2  0  0  0  0  0  0  0  0  0
   25.0192  -21.3516   -7.9639 N   0  0  0  0  0  0  0  0  0  0  0  0
   26.5840  -20.3892   -9.4983 C   0  0  0  0  0  0  0  0  0  0  0  0
   27.6926  -20.9347   -9.7179 O   0  0  0  0  0  0  0  0  0  0  0  0
   24.8314  -21.7997  -12.3841 C   0  0  0  0  0  0  0  0  0  0  0  0
   26.2473  -21.3540  -12.4301 C   0  0  2  0  0  0  0  0  0  0  0  0
   27.1737  -22.2616  -11.6444 C   0  0  0  0  0  0  0  0  0  0  0  0
   26.5052  -19.9384  -11.9735 C   0  0  2  0  0  0  0  0  0  0  0  0
   25.9015  -19.8405  -10.6127 N   0  0  0  0  0  0  0  0  0  0  0  0
   25.7042  -18.9980  -12.8069 C   0  0  0  0  0  0  0  0  0  0  0  0
   24.4506  -18.9691  -12.7399 O   0  0  0  0  0  0  0  0  0  0  0  0
   26.3259  -18.0752  -13.7180 N   0  0  0  0  0  0  0  0  0  0  0  0
   25.7153  -17.1562  -14.5723 C   0  0  1  0  0  0  0  0  0  0  0  0
   26.3808  -15.9696  -15.1171 C   0  0  0  0  0  0  0  0  0  0  0  0
   25.6982  -14.9898  -15.9645 C   0  0  0  0  0  0  0  0  0  0  0  0
   26.4895  -13.8396  -16.4405 C   0  0  0  0  0  0  0  0  0  0  0  0
   25.5904  -12.8367  -17.1983 C   0  0  0  0  0  0  0  0  0  0  0  0
   26.3702  -11.7066  -17.6030 N   0  0  0  0  0  0  0  0  0  0  0  0
   24.7809  -17.7387  -15.6131 C   0  0  0  0  0  0  0  0  0  0  0  0
   25.2644  -18.7933  -16.3594 O   0  0  0  0  0  0  0  0  0  0  0  0
   23.6576  -17.3032  -15.7881 O   0  0  0  0  0  0  0  0  0  0  0  0
  2  1  1  0
  3  2  1  0
  4  5  1  0
  4  3  1  0
  5  6  1  1
  5  7  1  0
  7  8  2  0
 10 12  1  0
 10  9  1  1
 11 10  1  0
 12 14  1  0
 13  7  1  0
 12 13  1  1
 14 15  2  0
 16 17  1  0
 16 14  1  0
 17 23  1  0
 17 18  1  6
 19 18  1  0
 20 19  1  0
 21 20  1  0
 22 21  1  0
 23 25  2  0
 23 24  1  0
M  END
$$$$
