MVK.pdb
     RDKit          3D

 25 24  0  0  1  0  0  0  0  0999 V2000
   32.3412  -21.6249   -8.9407 C   0  0  0  0  0  0  0  0  0  0  0  0
   32.9171  -22.6086  -10.3175 S   0  0  0  0  0  0  0  0  0  0  0  0
   31.8878  -22.6404  -11.7508 C   0  0  0  0  0  0  0  0  0  0  0  0
   30.6519  -21.8369  -11.7164 C   0  0  0  0  0  0  0  0  0  0  0  0
   29.7231  -21.9429  -12.8449 C   0  0  2  0  0  0  0  0  0  0  0  0
   30.3360  -21.9253  -14.1380 N   0  0  0  0  0  0  0  0  0  0  0  0
   28.6296  -20.9039  -12.8060 C   0  0  0  0  0  0  0  0  0  0  0  0
   27.9137  -20.7385  -11.7886 O   0  0  0  0  0  0  0  0  0  0  0  0
   26.3303  -17.5651  -15.6651 C   0  0  0  0  0  0  0  0  0  0  0  0
   27.5472  -18.1061  -15.0080 C   0  0  2  0  0  0  0  0  0  0  0  0
   28.4631  -18.8306  -15.9752 C   0  0  0  0  0  0  0  0  0  0  0  0
   27.3064  -19.0267  -13.8361 C   0  0  2  0  0  0  0  0  0  0  0  0
   28.3681  -20.0712  -13.9227 N   0  0  0  0  0  0  0  0  0  0  0  0
   26.0321  -19.7698  -14.0469 C   0  0  0  0  0  0  0  0  0  0  0  0
   25.8939  -20.5749  -15.0005 O   0  0  0  0  0  0  0  0  0  0  0  0
   24.9064  -19.6087  -13.1664 N   0  0  0  0  0  0  0  0  0  0  0  0
   23.6649  -20.2436  -13.2214 C   0  0  1  0  0  0  0  0  0  0  0  0
   22.8637  -20.5894  -12.0441 C   0  0  0  0  0  0  0  0  0  0  0  0
   23.4546  -20.9465  -10.7529 C   0  0  0  0  0  0  0  0  0  0  0  0
   22.5353  -21.1156   -9.6120 C   0  0  0  0  0  0  0  0  0  0  0  0
   23.3271  -21.3091   -8.2990 C   0  0  0  0  0  0  0  0  0  0  0  0
   22.4146  -21.5312   -7.2187 N   0  0  0  0  0  0  0  0  0  0  0  0
   22.7510  -19.8146  -14.3511 C   0  0  0  0  0  0  0  0  0  0  0  0
   21.7503  -20.6949  -14.7071 O   0  0  0  0  0  0  0  0  0  0  0  0
   22.8865  -18.7476  -14.9214 O   0  0  0  0  0  0  0  0  0  0  0  0
  2  1  1  0
  3  2  1  0
  4  5  1  0
  4  3  1  0
  5  6  1  6
  5  7  1  0
  7  8  2  0
 10 12  1  0
 10  9  1  6
 11 10  1  0
 12 14  1  0
 13  7  1  0
 12 13  1  6
 14 15  2  0
 16 17  1  0
 16 14  1  0
 17 23  1  0
 17 18  1  1
 19 18  1  0
 20 19  1  0
 21 20  1  0
 22 21  1  0
 23 25  2  0
 23 24  1  0
M  END
$$$$
