MVK.pdb
     RDKit          3D

 25 24  0  0  1  0  0  0  0  0999 V2000
   21.5952  -24.4702  -14.4294 C   0  0  0  0  0  0  0  0  0  0  0  0
   22.7437  -25.3549  -13.3841 S   0  0  0  0  0  0  0  0  0  0  0  0
   24.2080  -24.4907  -12.9109 C   0  0  0  0  0  0  0  0  0  0  0  0
   24.3300  -23.0823  -13.3302 C   0  0  0  0  0  0  0  0  0  0  0  0
   25.5204  -22.3351  -12.9159 C   0  0  2  0  0  0  0  0  0  0  0  0
   25.7840  -22.3463  -11.5092 N   0  0  0  0  0  0  0  0  0  0  0  0
   25.5174  -20.9070  -13.4031 C   0  0  0  0  0  0  0  0  0  0  0  0
   25.1747  -19.9573  -12.6578 O   0  0  0  0  0  0  0  0  0  0  0  0
   27.6802  -19.7871  -16.8613 C   0  0  0  0  0  0  0  0  0  0  0  0
   27.2668  -18.9020  -15.7428 C   0  0  2  0  0  0  0  0  0  0  0  0
   28.2473  -18.9216  -14.5863 C   0  0  0  0  0  0  0  0  0  0  0  0
   25.8918  -19.1594  -15.1756 C   0  0  2  0  0  0  0  0  0  0  0  0
   25.9035  -20.5824  -14.7276 N   0  0  0  0  0  0  0  0  0  0  0  0
   24.8892  -19.1221  -16.2774 C   0  0  0  0  0  0  0  0  0  0  0  0
   24.3061  -20.1635  -16.6674 O   0  0  0  0  0  0  0  0  0  0  0  0
   24.5353  -17.8949  -16.9385 N   0  0  0  0  0  0  0  0  0  0  0  0
   23.2657  -17.4341  -17.2894 C   0  0  1  0  0  0  0  0  0  0  0  0
   22.1066  -17.4500  -16.3928 C   0  0  0  0  0  0  0  0  0  0  0  0
   20.7598  -17.0684  -16.8222 C   0  0  0  0  0  0  0  0  0  0  0  0
   19.6575  -17.2895  -15.8674 C   0  0  0  0  0  0  0  0  0  0  0  0
   18.3024  -16.9013  -16.5010 C   0  0  0  0  0  0  0  0  0  0  0  0
   17.2724  -16.9752  -15.5097 N   0  0  0  0  0  0  0  0  0  0  0  0
   23.2278  -16.1864  -18.1483 C   0  0  0  0  0  0  0  0  0  0  0  0
   22.0369  -15.9096  -18.7871 O   0  0  0  0  0  0  0  0  0  0  0  0
   24.1961  -15.4592  -18.2733 O   0  0  0  0  0  0  0  0  0  0  0  0
  2  1  1  0
  3  2  1  0
  4  5  1  0
  4  3  1  0
  5  6  1  1
  5  7  1  0
  7  8  2  0
 10 12  1  0
 10  9  1  6
 11 10  1  0
 12 14  1  0
 13  7  1  0
 12 13  1  6
 14 15  2  0
 16 17  1  0
 16 14  1  0
 17 23  1  0
 17 18  1  1
 19 18  1  0
 20 19  1  0
 21 20  1  0
 22 21  1  0
 23 25  2  0
 23 24  1  0
M  END
$$$$
