MVK.pdb
     RDKit          3D

 25 24  0  0  1  0  0  0  0  0999 V2000
   18.4756  -21.2680  -18.5347 C   0  0  0  0  0  0  0  0  0  0  0  0
   19.7590  -20.3363  -19.3590 S   0  0  0  0  0  0  0  0  0  0  0  0
   21.1572  -19.8828  -18.3821 C   0  0  0  0  0  0  0  0  0  0  0  0
   21.1873  -20.3484  -16.9833 C   0  0  0  0  0  0  0  0  0  0  0  0
   22.2907  -19.9046  -16.1274 C   0  0  2  0  0  0  0  0  0  0  0  0
   23.5981  -20.2502  -16.5959 N   0  0  0  0  0  0  0  0  0  0  0  0
   22.1456  -20.3616  -14.6967 C   0  0  0  0  0  0  0  0  0  0  0  0
   22.7994  -21.3333  -14.2458 O   0  0  0  0  0  0  0  0  0  0  0  0
   20.4664  -19.1936  -10.1534 C   0  0  0  0  0  0  0  0  0  0  0  0
   20.7444  -18.9579  -11.5931 C   0  0  2  0  0  0  0  0  0  0  0  0
   19.5786  -18.3137  -12.3177 C   0  0  0  0  0  0  0  0  0  0  0  0
   21.1577  -20.1720  -12.3893 C   0  0  2  0  0  0  0  0  0  0  0  0
   21.2609  -19.7074  -13.8032 N   0  0  0  0  0  0  0  0  0  0  0  0
   20.0405  -21.1582  -12.3999 C   0  0  0  0  0  0  0  0  0  0  0  0
   19.1126  -21.0870  -13.2429 O   0  0  0  0  0  0  0  0  0  0  0  0
   19.9760  -22.2403  -11.4549 N   0  0  0  0  0  0  0  0  0  0  0  0
   19.0172  -23.2495  -11.3566 C   0  0  1  0  0  0  0  0  0  0  0  0
   19.2069  -24.4961  -10.6099 C   0  0  0  0  0  0  0  0  0  0  0  0
   18.3057  -25.6437  -10.7301 C   0  0  0  0  0  0  0  0  0  0  0  0
   18.6191  -26.8373   -9.9221 C   0  0  0  0  0  0  0  0  0  0  0  0
   17.5978  -27.9642  -10.1969 C   0  0  0  0  0  0  0  0  0  0  0  0
   17.9353  -29.1160   -9.4169 N   0  0  0  0  0  0  0  0  0  0  0  0
   17.5808  -22.7874  -11.2193 C   0  0  0  0  0  0  0  0  0  0  0  0
   16.6464  -23.4249  -12.0089 O   0  0  0  0  0  0  0  0  0  0  0  0
   17.2592  -21.8982  -10.4524 O   0  0  0  0  0  0  0  0  0  0  0  0
  2  1  1  0
  3  2  1  0
  4  5  1  0
  4  3  1  0
  5  6  1  6
  5  7  1  0
  7  8  2  0
 10 12  1  0
 10  9  1  1
 11 10  1  0
 12 14  1  0
 13  7  1  0
 12 13  1  6
 14 15  2  0
 16 17  1  0
 16 14  1  0
 17 23  1  0
 17 18  1  1
 19 18  1  0
 20 19  1  0
 21 20  1  0
 22 21  1  0
 23 25  2  0
 23 24  1  0
M  END
$$$$
