MVK.pdb
     RDKit          3D

 25 24  0  0  1  0  0  0  0  0999 V2000
   15.2381  -11.8331  -18.8673 C   0  0  0  0  0  0  0  0  0  0  0  0
   16.6223  -12.6491  -19.6502 S   0  0  0  0  0  0  0  0  0  0  0  0
   18.2279  -12.2357  -19.0454 C   0  0  0  0  0  0  0  0  0  0  0  0
   18.3323  -11.7997  -17.6407 C   0  0  0  0  0  0  0  0  0  0  0  0
   19.6575  -11.4603  -17.1156 C   0  0  2  0  0  0  0  0  0  0  0  0
   20.6417  -12.4918  -17.2413 N   0  0  0  0  0  0  0  0  0  0  0  0
   19.6195  -10.9905  -15.6822 C   0  0  0  0  0  0  0  0  0  0  0  0
   19.7329  -11.7918  -14.7230 O   0  0  0  0  0  0  0  0  0  0  0  0
   20.1558   -6.9033  -14.7815 C   0  0  0  0  0  0  0  0  0  0  0  0
   20.4173   -8.0347  -13.8557 C   0  0  2  0  0  0  0  0  0  0  0  0
   21.8135   -8.6063  -14.0079 C   0  0  0  0  0  0  0  0  0  0  0  0
   19.4448   -9.1866  -13.9354 C   0  0  2  0  0  0  0  0  0  0  0  0
   19.4534   -9.6196  -15.3631 N   0  0  0  0  0  0  0  0  0  0  0  0
   18.0620   -8.6809  -13.7060 C   0  0  0  0  0  0  0  0  0  0  0  0
   17.4008   -8.1419  -14.6274 O   0  0  0  0  0  0  0  0  0  0  0  0
   17.4167   -8.7937  -12.4257 N   0  0  0  0  0  0  0  0  0  0  0  0
   16.1269   -8.3996  -12.0672 C   0  0  1  0  0  0  0  0  0  0  0  0
   15.3587   -8.9944  -10.9701 C   0  0  0  0  0  0  0  0  0  0  0  0
   14.0100   -8.5535  -10.6089 C   0  0  0  0  0  0  0  0  0  0  0  0
   13.3795   -9.1942   -9.4395 C   0  0  0  0  0  0  0  0  0  0  0  0
   12.0495   -8.4915   -9.0850 C   0  0  0  0  0  0  0  0  0  0  0  0
   11.4340   -9.1622   -7.9803 N   0  0  0  0  0  0  0  0  0  0  0  0
   15.8447   -6.9126  -12.1385 C   0  0  0  0  0  0  0  0  0  0  0  0
   14.5814   -6.5404  -12.5490 O   0  0  0  0  0  0  0  0  0  0  0  0
   16.6859   -6.0814  -11.8495 O   0  0  0  0  0  0  0  0  0  0  0  0
  2  1  1  0
  3  2  1  0
  4  5  1  0
  4  3  1  0
  5  6  1  1
  5  7  1  0
  7  8  2  0
 10 12  1  0
 10  9  1  6
 11 10  1  0
 12 14  1  0
 13  7  1  0
 12 13  1  6
 14 15  2  0
 16 17  1  0
 16 14  1  0
 17 23  1  0
 17 18  1  1
 19 18  1  0
 20 19  1  0
 21 20  1  0
 22 21  1  0
 23 25  2  0
 23 24  1  0
M  END
$$$$
