MVK.pdb
     RDKit          3D

 25 24  0  0  1  0  0  0  0  0999 V2000
   10.7956  -13.4459  -11.1813 C   0  0  0  0  0  0  0  0  0  0  0  0
   11.6912  -12.1379  -10.3557 S   0  0  0  0  0  0  0  0  0  0  0  0
   13.2729  -11.7225  -11.0195 C   0  0  0  0  0  0  0  0  0  0  0  0
   14.0332  -10.6549  -10.3438 C   0  0  0  0  0  0  0  0  0  0  0  0
   15.3053  -10.2289  -10.9330 C   0  0  2  0  0  0  0  0  0  0  0  0
   16.2685  -11.2717  -11.1148 N   0  0  0  0  0  0  0  0  0  0  0  0
   15.9502   -9.0912  -10.1803 C   0  0  0  0  0  0  0  0  0  0  0  0
   16.6995   -9.2944   -9.1942 O   0  0  0  0  0  0  0  0  0  0  0  0
   16.5752   -5.4671  -12.0888 C   0  0  0  0  0  0  0  0  0  0  0  0
   17.3010   -5.9702  -10.8949 C   0  0  2  0  0  0  0  0  0  0  0  0
   18.4276   -6.9206  -11.2508 C   0  0  0  0  0  0  0  0  0  0  0  0
   16.4512   -6.6471   -9.8468 C   0  0  2  0  0  0  0  0  0  0  0  0
   15.7332   -7.7431  -10.5603 N   0  0  0  0  0  0  0  0  0  0  0  0
   15.3730   -5.7159   -9.4098 C   0  0  0  0  0  0  0  0  0  0  0  0
   14.3658   -5.4978  -10.1272 O   0  0  0  0  0  0  0  0  0  0  0  0
   15.4289   -5.0317   -8.1461 N   0  0  0  0  0  0  0  0  0  0  0  0
   14.5408   -4.0858   -7.6322 C   0  0  1  0  0  0  0  0  0  0  0  0
   14.2153   -3.9488   -6.2099 C   0  0  0  0  0  0  0  0  0  0  0  0
   13.2040   -3.0161   -5.7086 C   0  0  0  0  0  0  0  0  0  0  0  0
   13.0502   -2.9074   -4.2457 C   0  0  0  0  0  0  0  0  0  0  0  0
   11.8975   -1.9415   -3.8898 C   0  0  0  0  0  0  0  0  0  0  0  0
   11.7813   -1.8395   -2.4668 N   0  0  0  0  0  0  0  0  0  0  0  0
   14.5845   -2.7162   -8.2787 C   0  0  0  0  0  0  0  0  0  0  0  0
   13.3705   -2.1256   -8.5621 O   0  0  0  0  0  0  0  0  0  0  0  0
   15.6349   -2.1581   -8.5382 O   0  0  0  0  0  0  0  0  0  0  0  0
  2  1  1  0
  3  2  1  0
  4  5  1  0
  4  3  1  0
  5  6  1  1
  5  7  1  0
  7  8  2  0
 10 12  1  0
 10  9  1  6
 11 10  1  0
 12 14  1  0
 13  7  1  0
 12 13  1  6
 14 15  2  0
 16 17  1  0
 16 14  1  0
 17 23  1  0
 17 18  1  1
 19 18  1  0
 20 19  1  0
 21 20  1  0
 22 21  1  0
 23 25  2  0
 23 24  1  0
M  END
$$$$
