MVK.pdb
     RDKit          3D

 25 24  0  0  1  0  0  0  0  0999 V2000
   27.7429  -18.1715   -6.5038 C   0  0  0  0  0  0  0  0  0  0  0  0
   28.6593  -19.6150   -7.0244 S   0  0  0  0  0  0  0  0  0  0  0  0
   27.9223  -20.6061   -8.2852 C   0  0  0  0  0  0  0  0  0  0  0  0
   26.5615  -20.2449   -8.7234 C   0  0  0  0  0  0  0  0  0  0  0  0
   25.9576  -21.0115   -9.8165 C   0  0  2  0  0  0  0  0  0  0  0  0
   26.6661  -22.1981  -10.1883 N   0  0  0  0  0  0  0  0  0  0  0  0
   25.7108  -20.1803  -11.0514 C   0  0  0  0  0  0  0  0  0  0  0  0
   25.0947  -19.0882  -10.9982 O   0  0  0  0  0  0  0  0  0  0  0  0
   27.6920  -21.0523  -14.7329 C   0  0  0  0  0  0  0  0  0  0  0  0
   27.1201  -19.7394  -14.3395 C   0  0  2  0  0  0  0  0  0  0  0  0
   28.1044  -18.8769  -13.5737 C   0  0  0  0  0  0  0  0  0  0  0  0
   25.8439  -19.7938  -13.5351 C   0  0  2  0  0  0  0  0  0  0  0  0
   26.1677  -20.6034  -12.3245 N   0  0  0  0  0  0  0  0  0  0  0  0
   24.8328  -20.6060  -14.2691 C   0  0  0  0  0  0  0  0  0  0  0  0
   24.8792  -21.8608  -14.2734 O   0  0  0  0  0  0  0  0  0  0  0  0
   23.7539  -19.9948  -14.9975 N   0  0  0  0  0  0  0  0  0  0  0  0
   22.3836  -20.0742  -14.7461 C   0  0  1  0  0  0  0  0  0  0  0  0
   21.7967  -20.1858  -13.4079 C   0  0  0  0  0  0  0  0  0  0  0  0
   20.3621  -20.3674  -13.1779 C   0  0  0  0  0  0  0  0  0  0  0  0
   19.8127  -21.7227  -13.3692 C   0  0  0  0  0  0  0  0  0  0  0  0
   19.5022  -22.3817  -12.0062 C   0  0  0  0  0  0  0  0  0  0  0  0
   19.0553  -23.7254  -12.2154 N   0  0  0  0  0  0  0  0  0  0  0  0
   21.4985  -19.2084  -15.6195 C   0  0  0  0  0  0  0  0  0  0  0  0
   20.6042  -19.8649  -16.4393 O   0  0  0  0  0  0  0  0  0  0  0  0
   21.5673  -17.9930  -15.6042 O   0  0  0  0  0  0  0  0  0  0  0  0
  2  1  1  0
  3  2  1  0
  4  5  1  0
  4  3  1  0
  5  6  1  6
  5  7  1  0
  7  8  2  0
 10 12  1  0
 10  9  1  1
 11 10  1  0
 12 14  1  0
 13  7  1  0
 12 13  1  1
 14 15  2  0
 16 17  1  0
 16 14  1  0
 17 23  1  0
 17 18  1  1
 19 18  1  0
 20 19  1  0
 21 20  1  0
 22 21  1  0
 23 25  2  0
 23 24  1  0
M  END
$$$$
