MVK.pdb
     RDKit          3D

 25 24  0  0  1  0  0  0  0  0999 V2000
   28.8633  -22.2431  -22.1398 C   0  0  0  0  0  0  0  0  0  0  0  0
   29.1747  -21.0579  -20.8386 S   0  0  0  0  0  0  0  0  0  0  0  0
   30.3151  -21.5449  -19.5829 C   0  0  0  0  0  0  0  0  0  0  0  0
   29.8228  -22.4610  -18.5375 C   0  0  0  0  0  0  0  0  0  0  0  0
   28.5941  -22.1037  -17.8237 C   0  0  2  0  0  0  0  0  0  0  0  0
   28.6524  -20.8735  -17.0947 N   0  0  0  0  0  0  0  0  0  0  0  0
   28.1097  -23.1969  -16.9033 C   0  0  0  0  0  0  0  0  0  0  0  0
   28.6936  -23.4554  -15.8229 O   0  0  0  0  0  0  0  0  0  0  0  0
   24.1958  -24.5525  -17.2039 C   0  0  0  0  0  0  0  0  0  0  0  0
   25.0576  -24.7309  -16.0077 C   0  0  2  0  0  0  0  0  0  0  0  0
   25.0153  -23.5389  -15.0714 C   0  0  0  0  0  0  0  0  0  0  0  0
   26.5093  -25.0386  -16.2843 C   0  0  2  0  0  0  0  0  0  0  0  0
   26.9712  -23.9771  -17.2255 N   0  0  0  0  0  0  0  0  0  0  0  0
   26.6046  -26.3019  -17.0690 C   0  0  0  0  0  0  0  0  0  0  0  0
   26.4425  -26.3129  -18.3141 O   0  0  0  0  0  0  0  0  0  0  0  0
   26.8949  -27.5632  -16.4420 N   0  0  0  0  0  0  0  0  0  0  0  0
   26.9761  -28.8257  -17.0309 C   0  0  1  0  0  0  0  0  0  0  0  0
   27.8883  -29.8839  -16.5885 C   0  0  0  0  0  0  0  0  0  0  0  0
   27.9903  -31.1818  -17.2586 C   0  0  0  0  0  0  0  0  0  0  0  0
   28.9895  -32.1343  -16.7393 C   0  0  0  0  0  0  0  0  0  0  0  0
   28.3348  -33.5024  -16.4425 C   0  0  0  0  0  0  0  0  0  0  0  0
   29.3397  -34.4335  -16.0277 N   0  0  0  0  0  0  0  0  0  0  0  0
   25.6614  -29.4377  -17.4700 C   0  0  0  0  0  0  0  0  0  0  0  0
   25.7217  -30.3807  -18.4751 O   0  0  0  0  0  0  0  0  0  0  0  0
   24.6004  -29.1183  -16.9658 O   0  0  0  0  0  0  0  0  0  0  0  0
  2  1  1  0
  3  2  1  0
  4  5  1  0
  4  3  1  0
  5  6  1  1
  5  7  1  0
  7  8  2  0
 10 12  1  0
 10  9  1  6
 11 10  1  0
 12 14  1  0
 13  7  1  0
 12 13  1  6
 14 15  2  0
 16 17  1  0
 16 14  1  0
 17 23  1  0
 17 18  1  1
 19 18  1  0
 20 19  1  0
 21 20  1  0
 22 21  1  0
 23 25  2  0
 23 24  1  0
M  END
$$$$
