SSD.pdb
     RDKit          3D

 21 20  0  0  1  0  0  0  0  0999 V2000
   17.1476  -11.8070  -18.6007 O   0  0  0  0  0  0  0  0  0  0  0  0
   17.6345  -11.0378  -17.5603 C   0  0  0  0  0  0  0  0  0  0  0  0
   18.9743  -11.5335  -17.0261 C   0  0  2  0  0  0  0  0  0  0  0  0
   18.7578  -12.8458  -16.4197 N   0  0  0  0  0  0  0  0  0  0  0  0
   19.4649  -10.5777  -16.0046 C   0  0  0  0  0  0  0  0  0  0  0  0
   18.7317  -10.3284  -14.9956 O   0  0  0  0  0  0  0  0  0  0  0  0
   23.4597   -9.4614  -16.0894 O   0  0  0  0  0  0  0  0  0  0  0  0
   22.7448   -9.6075  -14.8959 C   0  0  0  0  0  0  0  0  0  0  0  0
   21.3433   -9.1719  -15.1197 C   0  0  2  0  0  0  0  0  0  0  0  0
   20.7261   -9.9626  -16.1607 N   0  0  0  0  0  0  0  0  0  0  0  0
   21.1740   -7.7465  -15.4273 C   0  0  0  0  0  0  0  0  0  0  0  0
   21.3200   -7.3631  -16.6122 O   0  0  0  0  0  0  0  0  0  0  0  0
   20.8470   -6.7734  -14.4216 N   0  0  0  0  0  0  0  0  0  0  0  0
   20.8658   -5.3798  -14.7861 C   0  0  1  0  0  0  0  0  0  0  0  0
   19.5626   -4.7298  -14.3801 C   0  0  0  0  0  0  0  0  0  0  0  0
   18.4112   -5.2242  -15.1662 C   0  0  0  0  0  0  0  0  0  0  0  0
   18.5614   -5.3096  -16.4113 O   0  0  0  0  0  0  0  0  0  0  0  0
   22.0359   -4.6670  -14.2094 C   0  0  0  0  0  0  0  0  0  0  0  0
   22.8336   -5.2072  -13.4034 O   0  0  0  0  0  0  0  0  0  0  0  0
   17.1917   -5.5961  -14.6340 O   0  0  0  0  0  0  0  0  0  0  0  0
   22.2671   -3.3483  -14.5694 O   0  0  0  0  0  0  0  0  0  0  0  0
  1  2  1  0
  2  3  1  0
  3  5  1  0
  3  4  1  1
  5  6  2  0
  7  8  1  0
  9  8  1  6
 10  9  1  0
 10  5  1  0
 11 13  1  0
 11  9  1  0
 12 11  2  0
 14 13  1  0
 14 15  1  1
 15 16  1  0
 16 20  1  0
 17 16  2  0
 18 14  1  0
 19 18  2  0
 21 18  1  0
M  END
$$$$
