SSD.pdb
     RDKit          3D

 21 20  0  0  1  0  0  0  0  0999 V2000
   24.5963  -10.0863  -19.4160 O   0  0  0  0  0  0  0  0  0  0  0  0
   23.5003   -9.3965  -18.9322 C   0  0  0  0  0  0  0  0  0  0  0  0
   22.7988  -10.1168  -17.7854 C   0  0  2  0  0  0  0  0  0  0  0  0
   22.1919  -11.3328  -18.3235 N   0  0  0  0  0  0  0  0  0  0  0  0
   21.7487   -9.2277  -17.2334 C   0  0  0  0  0  0  0  0  0  0  0  0
   20.6467   -9.1181  -17.8590 O   0  0  0  0  0  0  0  0  0  0  0  0
   21.5349   -8.4661  -13.2877 O   0  0  0  0  0  0  0  0  0  0  0  0
   20.4685   -8.2808  -14.1739 C   0  0  0  0  0  0  0  0  0  0  0  0
   20.9844   -7.6687  -15.4242 C   0  0  2  0  0  0  0  0  0  0  0  0
   21.9805   -8.5213  -16.0332 N   0  0  0  0  0  0  0  0  0  0  0  0
   21.5288   -6.3134  -15.2775 C   0  0  0  0  0  0  0  0  0  0  0  0
   22.7609   -6.1748  -15.0902 O   0  0  0  0  0  0  0  0  0  0  0  0
   20.7032   -5.1389  -15.3405 N   0  0  0  0  0  0  0  0  0  0  0  0
   21.3272   -3.8532  -15.1588 C   0  0  1  0  0  0  0  0  0  0  0  0
   20.4587   -2.7753  -15.7670 C   0  0  0  0  0  0  0  0  0  0  0  0
   21.0665   -1.4305  -15.6654 C   0  0  0  0  0  0  0  0  0  0  0  0
   20.7648   -0.7395  -14.6597 O   0  0  0  0  0  0  0  0  0  0  0  0
   21.6258   -3.5739  -13.7296 C   0  0  0  0  0  0  0  0  0  0  0  0
   20.9849   -4.0971  -12.7846 O   0  0  0  0  0  0  0  0  0  0  0  0
   21.9354   -0.8838  -16.5899 O   0  0  0  0  0  0  0  0  0  0  0  0
   22.6543   -2.6995  -13.4138 O   0  0  0  0  0  0  0  0  0  0  0  0
  1  2  1  0
  2  3  1  0
  3  5  1  0
  3  4  1  6
  5  6  2  0
  7  8  1  0
  9  8  1  1
 10  9  1  0
 10  5  1  0
 11 13  1  0
 11  9  1  0
 12 11  2  0
 14 13  1  0
 14 15  1  1
 15 16  1  0
 16 20  1  0
 17 16  2  0
 18 14  1  0
 19 18  2  0
 21 18  1  0
M  END
$$$$
