SSD.pdb
     RDKit          3D

 21 20  0  0  1  0  0  0  0  0999 V2000
   14.5747   -9.6008  -13.7390 O   0  0  0  0  0  0  0  0  0  0  0  0
   15.5900   -8.8048  -13.2421 C   0  0  0  0  0  0  0  0  0  0  0  0
   16.7213   -9.6060  -12.6062 C   0  0  2  0  0  0  0  0  0  0  0  0
   16.2302  -10.1498  -11.3414 N   0  0  0  0  0  0  0  0  0  0  0  0
   17.8678   -8.6997  -12.3573 C   0  0  0  0  0  0  0  0  0  0  0  0
   17.8931   -8.0243  -11.2798 O   0  0  0  0  0  0  0  0  0  0  0  0
   21.3466   -9.5969  -13.9939 O   0  0  0  0  0  0  0  0  0  0  0  0
   21.2768   -8.7310  -12.8975 C   0  0  0  0  0  0  0  0  0  0  0  0
   20.1092   -7.8307  -13.0706 C   0  0  2  0  0  0  0  0  0  0  0  0
   18.9071   -8.5982  -13.3074 N   0  0  0  0  0  0  0  0  0  0  0  0
   20.2531   -6.8165  -14.1221 C   0  0  0  0  0  0  0  0  0  0  0  0
   20.1355   -7.1680  -15.3200 O   0  0  0  0  0  0  0  0  0  0  0  0
   20.5239   -5.4356  -13.8307 N   0  0  0  0  0  0  0  0  0  0  0  0
   20.7841   -4.5424  -14.9306 C   0  0  1  0  0  0  0  0  0  0  0  0
   19.9161   -3.3111  -14.8027 C   0  0  0  0  0  0  0  0  0  0  0  0
   18.4767   -3.6105  -14.9650 C   0  0  0  0  0  0  0  0  0  0  0  0
   17.7193   -3.3234  -14.0037 O   0  0  0  0  0  0  0  0  0  0  0  0
   22.2241   -4.1885  -15.0346 C   0  0  0  0  0  0  0  0  0  0  0  0
   23.0662   -4.4938  -14.1541 O   0  0  0  0  0  0  0  0  0  0  0  0
   17.9092   -4.1791  -16.0890 O   0  0  0  0  0  0  0  0  0  0  0  0
   22.6688   -3.4912  -16.1472 O   0  0  0  0  0  0  0  0  0  0  0  0
  1  2  1  0
  2  3  1  0
  3  5  1  0
  3  4  1  1
  5  6  2  0
  7  8  1  0
  9  8  1  6
 10  9  1  0
 10  5  1  0
 11 13  1  0
 11  9  1  0
 12 11  2  0
 14 13  1  0
 14 15  1  1
 15 16  1  0
 16 20  1  0
 17 16  2  0
 18 14  1  0
 19 18  2  0
 21 18  1  0
M  END
$$$$
