SSD.pdb
     RDKit          3D

 21 20  0  0  1  0  0  0  0  0999 V2000
   11.0147  -13.0933  -11.4895 O   0  0  0  0  0  0  0  0  0  0  0  0
   12.1474  -12.7580  -10.7713 C   0  0  0  0  0  0  0  0  0  0  0  0
   13.4417  -13.0808  -11.5107 C   0  0  2  0  0  0  0  0  0  0  0  0
   13.7290  -14.5004  -11.3136 N   0  0  0  0  0  0  0  0  0  0  0  0
   14.5357  -12.2584  -10.9410 C   0  0  0  0  0  0  0  0  0  0  0  0
   15.1580  -12.6888   -9.9186 O   0  0  0  0  0  0  0  0  0  0  0  0
   18.2304   -9.6695  -11.7036 O   0  0  0  0  0  0  0  0  0  0  0  0
   17.1118  -10.3840  -12.1452 C   0  0  0  0  0  0  0  0  0  0  0  0
   16.0308  -10.2548  -11.1359 C   0  0  2  0  0  0  0  0  0  0  0  0
   14.8713  -11.0214  -11.5330 N   0  0  0  0  0  0  0  0  0  0  0  0
   15.6222   -8.8781  -10.8314 C   0  0  0  0  0  0  0  0  0  0  0  0
   14.8371   -8.2940  -11.6155 O   0  0  0  0  0  0  0  0  0  0  0  0
   16.0878   -8.1741   -9.6684 N   0  0  0  0  0  0  0  0  0  0  0  0
   15.6373   -6.8214   -9.4613 C   0  0  1  0  0  0  0  0  0  0  0  0
   15.6171   -6.5125   -7.9815 C   0  0  0  0  0  0  0  0  0  0  0  0
   15.0938   -5.1600   -7.6899 C   0  0  0  0  0  0  0  0  0  0  0  0
   15.8115   -4.4074   -6.9837 O   0  0  0  0  0  0  0  0  0  0  0  0
   16.4585   -5.8376  -10.2147 C   0  0  0  0  0  0  0  0  0  0  0  0
   17.6522   -6.0535  -10.5403 O   0  0  0  0  0  0  0  0  0  0  0  0
   13.8818   -4.6684   -8.1348 O   0  0  0  0  0  0  0  0  0  0  0  0
   15.8929   -4.6254  -10.5792 O   0  0  0  0  0  0  0  0  0  0  0  0
  1  2  1  0
  2  3  1  0
  3  5  1  0
  3  4  1  1
  5  6  2  0
  7  8  1  0
  9  8  1  6
 10  9  1  0
 10  5  1  0
 11 13  1  0
 11  9  1  0
 12 11  2  0
 14 13  1  0
 14 15  1  1
 15 16  1  0
 16 20  1  0
 17 16  2  0
 18 14  1  0
 19 18  2  0
 21 18  1  0
M  END
$$$$
