SSD.pdb
     RDKit          3D

 21 20  0  0  1  0  0  0  0  0999 V2000
   16.3777  -13.0893  -15.0100 O   0  0  0  0  0  0  0  0  0  0  0  0
   17.4570  -12.2355  -15.1414 C   0  0  0  0  0  0  0  0  0  0  0  0
   18.4008  -12.6339  -16.2713 C   0  0  2  0  0  0  0  0  0  0  0  0
   19.1048  -13.8475  -15.8611 N   0  0  0  0  0  0  0  0  0  0  0  0
   19.3712  -11.5355  -16.4935 C   0  0  0  0  0  0  0  0  0  0  0  0
   20.4093  -11.4766  -15.7608 O   0  0  0  0  0  0  0  0  0  0  0  0
   18.6485   -8.5435  -19.3829 O   0  0  0  0  0  0  0  0  0  0  0  0
   19.8931   -9.1782  -19.3117 C   0  0  0  0  0  0  0  0  0  0  0  0
   20.1308   -9.6124  -17.9122 C   0  0  2  0  0  0  0  0  0  0  0  0
   19.1357  -10.5785  -17.5044 N   0  0  0  0  0  0  0  0  0  0  0  0
   20.1898   -8.5288  -16.9236 C   0  0  0  0  0  0  0  0  0  0  0  0
   19.1589   -8.2572  -16.2635 O   0  0  0  0  0  0  0  0  0  0  0  0
   21.3845   -7.7671  -16.6836 N   0  0  0  0  0  0  0  0  0  0  0  0
   21.3274   -6.6860  -15.7331 C   0  0  1  0  0  0  0  0  0  0  0  0
   22.5821   -6.6829  -14.8896 C   0  0  0  0  0  0  0  0  0  0  0  0
   22.6352   -5.5389  -13.9534 C   0  0  0  0  0  0  0  0  0  0  0  0
   22.2342   -5.7398  -12.7791 O   0  0  0  0  0  0  0  0  0  0  0  0
   21.1088   -5.3723  -16.3937 C   0  0  0  0  0  0  0  0  0  0  0  0
   21.4989   -5.1232  -17.5613 O   0  0  0  0  0  0  0  0  0  0  0  0
   23.0907   -4.2748  -14.2749 O   0  0  0  0  0  0  0  0  0  0  0  0
   20.4466   -4.3707  -15.7005 O   0  0  0  0  0  0  0  0  0  0  0  0
  1  2  1  0
  2  3  1  0
  3  5  1  0
  3  4  1  1
  5  6  2  0
  7  8  1  0
  9  8  1  6
 10  9  1  0
 10  5  1  0
 11 13  1  0
 11  9  1  0
 12 11  2  0
 14 13  1  0
 14 15  1  6
 15 16  1  0
 16 20  1  0
 17 16  2  0
 18 14  1  0
 19 18  2  0
 21 18  1  0
M  END
$$$$
