SSD.pdb
     RDKit          3D

 21 20  0  0  1  0  0  0  0  0999 V2000
   16.6428  -10.8963  -16.0217 O   0  0  0  0  0  0  0  0  0  0  0  0
   17.4914  -10.7264  -17.0998 C   0  0  0  0  0  0  0  0  0  0  0  0
   18.9167  -11.1903  -16.8181 C   0  0  2  0  0  0  0  0  0  0  0  0
   18.8690  -12.6147  -16.4933 N   0  0  0  0  0  0  0  0  0  0  0  0
   19.4496  -10.4251  -15.6655 C   0  0  0  0  0  0  0  0  0  0  0  0
   19.0368  -10.7099  -14.4966 O   0  0  0  0  0  0  0  0  0  0  0  0
   23.1401   -8.8548  -15.6145 O   0  0  0  0  0  0  0  0  0  0  0  0
   22.3377   -9.0625  -14.4876 C   0  0  0  0  0  0  0  0  0  0  0  0
   20.9548   -8.6185  -14.7948 C   0  0  2  0  0  0  0  0  0  0  0  0
   20.3987   -9.4013  -15.8756 N   0  0  0  0  0  0  0  0  0  0  0  0
   20.8117   -7.1909  -15.1052 C   0  0  0  0  0  0  0  0  0  0  0  0
   20.9973   -6.8081  -16.2847 O   0  0  0  0  0  0  0  0  0  0  0  0
   20.4668   -6.2150  -14.1083 N   0  0  0  0  0  0  0  0  0  0  0  0
   20.4676   -4.8240  -14.4832 C   0  0  1  0  0  0  0  0  0  0  0  0
   19.2124   -4.1572  -13.9680 C   0  0  0  0  0  0  0  0  0  0  0  0
   19.1215   -2.7343  -14.3620 C   0  0  0  0  0  0  0  0  0  0  0  0
   19.9549   -2.3188  -15.2064 O   0  0  0  0  0  0  0  0  0  0  0  0
   21.6916   -4.1205  -14.0176 C   0  0  0  0  0  0  0  0  0  0  0  0
   21.9647   -2.9390  -14.3446 O   0  0  0  0  0  0  0  0  0  0  0  0
   18.1932   -1.8360  -13.8721 O   0  0  0  0  0  0  0  0  0  0  0  0
   22.5778   -4.7876  -13.1859 O   0  0  0  0  0  0  0  0  0  0  0  0
  1  2  1  0
  2  3  1  0
  3  5  1  0
  3  4  1  1
  5  6  2  0
  7  8  1  0
  9  8  1  6
 10  9  1  0
 10  5  1  0
 11 13  1  0
 11  9  1  0
 12 11  2  0
 14 13  1  0
 14 15  1  1
 15 16  1  0
 16 20  1  0
 17 16  2  0
 18 14  1  0
 19 18  2  0
 21 18  1  0
M  END
$$$$
