SSD.pdb
     RDKit          3D

 21 20  0  0  1  0  0  0  0  0999 V2000
   13.8462   -7.9813  -11.6345 O   0  0  0  0  0  0  0  0  0  0  0  0
   15.2030   -8.0292  -11.8958 C   0  0  0  0  0  0  0  0  0  0  0  0
   15.7904   -9.4295  -11.7532 C   0  0  2  0  0  0  0  0  0  0  0  0
   15.7318   -9.7990  -10.3402 N   0  0  0  0  0  0  0  0  0  0  0  0
   17.1996   -9.4058  -12.2130 C   0  0  0  0  0  0  0  0  0  0  0  0
   18.1003   -9.0044  -11.4096 O   0  0  0  0  0  0  0  0  0  0  0  0
   19.0229  -12.0262  -14.8158 O   0  0  0  0  0  0  0  0  0  0  0  0
   18.9842  -10.6905  -15.2295 C   0  0  0  0  0  0  0  0  0  0  0  0
   18.8755   -9.8202  -14.0317 C   0  0  2  0  0  0  0  0  0  0  0  0
   17.5227   -9.8250  -13.5219 N   0  0  0  0  0  0  0  0  0  0  0  0
   19.3170   -8.4336  -14.2250 C   0  0  0  0  0  0  0  0  0  0  0  0
   18.4779   -7.5793  -14.5970 O   0  0  0  0  0  0  0  0  0  0  0  0
   20.6748   -8.0180  -14.0043 N   0  0  0  0  0  0  0  0  0  0  0  0
   21.0287   -6.6526  -14.2972 C   0  0  1  0  0  0  0  0  0  0  0  0
   21.4205   -5.9431  -13.0209 C   0  0  0  0  0  0  0  0  0  0  0  0
   21.7694   -4.5230  -13.2436 C   0  0  0  0  0  0  0  0  0  0  0  0
   22.9917   -4.2318  -13.2799 O   0  0  0  0  0  0  0  0  0  0  0  0
   22.0989   -6.5609  -15.3249 C   0  0  0  0  0  0  0  0  0  0  0  0
   22.4308   -5.4785  -15.8687 O   0  0  0  0  0  0  0  0  0  0  0  0
   20.8549   -3.5014  -13.4133 O   0  0  0  0  0  0  0  0  0  0  0  0
   22.7667   -7.7139  -15.7080 O   0  0  0  0  0  0  0  0  0  0  0  0
  1  2  1  0
  2  3  1  0
  3  5  1  0
  3  4  1  1
  5  6  2  0
  7  8  1  0
  9  8  1  6
 10  9  1  0
 10  5  1  0
 11 13  1  0
 11  9  1  0
 12 11  2  0
 14 13  1  0
 14 15  1  1
 15 16  1  0
 16 20  1  0
 17 16  2  0
 18 14  1  0
 19 18  2  0
 21 18  1  0
M  END
$$$$
