SSD.pdb
     RDKit          3D

 21 20  0  0  1  0  0  0  0  0999 V2000
   15.2111  -11.0087  -12.3045 O   0  0  0  0  0  0  0  0  0  0  0  0
   15.1668  -11.9113  -13.3508 C   0  0  0  0  0  0  0  0  0  0  0  0
   15.8125  -11.3804  -14.6265 C   0  0  2  0  0  0  0  0  0  0  0  0
   15.7082  -12.4203  -15.6485 N   0  0  0  0  0  0  0  0  0  0  0  0
   17.2381  -11.0808  -14.3518 C   0  0  0  0  0  0  0  0  0  0  0  0
   18.1004  -12.0020  -14.5119 O   0  0  0  0  0  0  0  0  0  0  0  0
   21.0317   -9.1207  -14.9379 O   0  0  0  0  0  0  0  0  0  0  0  0
   19.7302   -9.6169  -15.0667 C   0  0  0  0  0  0  0  0  0  0  0  0
   19.0007   -9.3865  -13.7945 C   0  0  2  0  0  0  0  0  0  0  0  0
   17.6186   -9.7911  -13.9213 N   0  0  0  0  0  0  0  0  0  0  0  0
   19.0595   -8.0126  -13.2809 C   0  0  0  0  0  0  0  0  0  0  0  0
   18.3652   -7.1296  -13.8381 O   0  0  0  0  0  0  0  0  0  0  0  0
   19.8830   -7.6409  -12.1634 N   0  0  0  0  0  0  0  0  0  0  0  0
   19.8669   -6.2676  -11.7283 C   0  0  1  0  0  0  0  0  0  0  0  0
   19.4253   -6.1962  -10.2841 C   0  0  0  0  0  0  0  0  0  0  0  0
   19.3757   -4.8092   -9.7724 C   0  0  0  0  0  0  0  0  0  0  0  0
   19.2072   -3.8925  -10.6158 O   0  0  0  0  0  0  0  0  0  0  0  0
   21.1800   -5.6013  -11.9326 C   0  0  0  0  0  0  0  0  0  0  0  0
   22.2438   -6.2384  -12.1325 O   0  0  0  0  0  0  0  0  0  0  0  0
   19.5006   -4.4518   -8.4437 O   0  0  0  0  0  0  0  0  0  0  0  0
   21.2457   -4.2168  -11.9034 O   0  0  0  0  0  0  0  0  0  0  0  0
  1  2  1  0
  2  3  1  0
  3  5  1  0
  3  4  1  6
  5  6  2  0
  7  8  1  0
  9  8  1  6
 10  9  1  0
 10  5  1  0
 11 13  1  0
 11  9  1  0
 12 11  2  0
 14 13  1  0
 14 15  1  1
 15 16  1  0
 16 20  1  0
 17 16  2  0
 18 14  1  0
 19 18  2  0
 21 18  1  0
M  END
$$$$
