SSD.pdb
     RDKit          3D

 21 20  0  0  1  0  0  0  0  0999 V2000
   15.2051   -9.1866  -13.8336 O   0  0  0  0  0  0  0  0  0  0  0  0
   16.3395   -8.4622  -13.5179 C   0  0  0  0  0  0  0  0  0  0  0  0
   17.5153   -9.3417  -13.1056 C   0  0  2  0  0  0  0  0  0  0  0  0
   17.1764   -9.9767  -11.8334 N   0  0  0  0  0  0  0  0  0  0  0  0
   18.7165   -8.4883  -12.9421 C   0  0  0  0  0  0  0  0  0  0  0  0
   19.0163   -8.0674  -11.7799 O   0  0  0  0  0  0  0  0  0  0  0  0
   21.4269   -8.2439  -16.0311 O   0  0  0  0  0  0  0  0  0  0  0  0
   21.8256   -8.0558  -14.7035 C   0  0  0  0  0  0  0  0  0  0  0  0
   20.7259   -7.3887  -13.9622 C   0  0  2  0  0  0  0  0  0  0  0  0
   19.5055   -8.1567  -14.0650 N   0  0  0  0  0  0  0  0  0  0  0  0
   20.4605   -5.9996  -14.3556 C   0  0  0  0  0  0  0  0  0  0  0  0
   19.4568   -5.7547  -15.0663 O   0  0  0  0  0  0  0  0  0  0  0  0
   21.3074   -4.9092  -13.9572 N   0  0  0  0  0  0  0  0  0  0  0  0
   21.0034   -3.5905  -14.4513 C   0  0  1  0  0  0  0  0  0  0  0  0
   19.6243   -3.1788  -13.9883 C   0  0  0  0  0  0  0  0  0  0  0  0
   19.3105   -1.7712  -14.3172 C   0  0  0  0  0  0  0  0  0  0  0  0
   19.5369   -1.3933  -15.4945 O   0  0  0  0  0  0  0  0  0  0  0  0
   22.0335   -2.5943  -14.0560 C   0  0  0  0  0  0  0  0  0  0  0  0
   22.0247   -1.4064  -14.4636 O   0  0  0  0  0  0  0  0  0  0  0  0
   18.7903   -0.8489  -13.4298 O   0  0  0  0  0  0  0  0  0  0  0  0
   23.0534   -2.9819  -13.2006 O   0  0  0  0  0  0  0  0  0  0  0  0
  1  2  1  0
  2  3  1  0
  3  5  1  0
  3  4  1  1
  5  6  2  0
  7  8  1  0
  9  8  1  6
 10  9  1  0
 10  5  1  0
 11 13  1  0
 11  9  1  0
 12 11  2  0
 14 13  1  0
 14 15  1  1
 15 16  1  0
 16 20  1  0
 17 16  2  0
 18 14  1  0
 19 18  2  0
 21 18  1  0
M  END
$$$$
