KIT.pdb
     RDKit          3D

 25 24  0  0  1  0  0  0  0  0999 V2000
    9.5686  -17.6675   16.0497 N   0  0  0  0  0  0  0  0  0  0  0  0
    8.5906  -17.4944   17.0623 C   0  0  1  0  0  0  0  0  0  0  0  0
    8.0613  -18.7858   17.6027 C   0  0  0  0  0  0  0  0  0  0  0  0
    7.2396  -19.6163   16.6750 C   0  0  0  0  0  0  0  0  0  0  0  0
    6.7144  -20.8590   17.2930 C   0  0  0  0  0  0  0  0  0  0  0  0
    5.8694  -21.5874   16.2343 C   0  0  0  0  0  0  0  0  0  0  0  0
    5.4945  -22.8701   16.7621 N   0  0  0  0  0  0  0  0  0  0  0  0
    9.0877  -16.7130   18.2297 C   0  0  0  0  0  0  0  0  0  0  0  0
   10.3483  -16.5049   18.2453 O   0  0  0  0  0  0  0  0  0  0  0  0
    6.8925  -12.1109   19.8164 C   0  0  0  0  0  0  0  0  0  0  0  0
    7.8305  -13.2664   19.4742 C   0  0  0  0  0  0  0  0  0  0  0  0
    7.9612  -14.2272   20.6211 C   0  0  2  0  0  0  0  0  0  0  0  0
    8.3592  -13.5370   21.9005 C   0  0  0  0  0  0  0  0  0  0  0  0
    8.8224  -15.3669   20.2481 C   0  0  2  0  0  0  0  0  0  0  0  0
    8.2291  -16.2337   19.2501 N   0  0  0  0  0  0  0  0  0  0  0  0
    9.2031  -16.2238   21.3975 C   0  0  0  0  0  0  0  0  0  0  0  0
    8.4122  -16.6892   22.2546 O   0  0  0  0  0  0  0  0  0  0  0  0
   11.0942  -19.3878   21.3237 C   0  0  0  0  0  0  0  0  0  0  0  0
   11.8812  -18.5324   22.3007 C   0  0  1  0  0  0  0  0  0  0  0  0
   13.0390  -18.1073   21.6932 O   0  0  0  0  0  0  0  0  0  0  0  0
   10.9707  -17.3840   22.7078 C   0  0  2  0  0  0  0  0  0  0  0  0
   10.5765  -16.5844   21.5979 N   0  0  0  0  0  0  0  0  0  0  0  0
   11.5603  -16.5992   23.8083 C   0  0  0  0  0  0  0  0  0  0  0  0
   11.8746  -15.2678   23.7054 O   0  0  0  0  0  0  0  0  0  0  0  0
   11.7843  -17.1851   24.8943 O   0  0  0  0  0  0  0  0  0  0  0  0
  2  1  1  6
  3  2  1  0
  4  3  1  0
  5  4  1  0
  6  5  1  0
  7  6  1  0
  8  2  1  0
  8  9  2  0
 11 10  1  0
 12 14  1  0
 12 11  1  0
 12 13  1  1
 14 15  1  6
 15  8  1  0
 16 14  1  0
 17 16  2  0
 19 18  1  6
 19 21  1  0
 20 19  1  0
 21 23  1  0
 21 22  1  6
 22 16  1  0
 23 24  1  0
 25 23  2  0
M  END
$$$$
