KIT.pdb
     RDKit          3D

 25 24  0  0  1  0  0  0  0  0999 V2000
    7.4025  -14.4824   20.3449 N   0  0  0  0  0  0  0  0  0  0  0  0
    7.0046  -15.2197   21.4896 C   0  0  1  0  0  0  0  0  0  0  0  0
    7.1494  -16.6998   21.3217 C   0  0  0  0  0  0  0  0  0  0  0  0
    6.3758  -17.3293   20.2121 C   0  0  0  0  0  0  0  0  0  0  0  0
    6.5615  -18.7983   20.1139 C   0  0  0  0  0  0  0  0  0  0  0  0
    5.7710  -19.2891   18.8892 C   0  0  0  0  0  0  0  0  0  0  0  0
    5.9402  -20.7121   18.7850 N   0  0  0  0  0  0  0  0  0  0  0  0
    7.7647  -14.8512   22.7172 C   0  0  0  0  0  0  0  0  0  0  0  0
    9.0155  -14.6573   22.5424 O   0  0  0  0  0  0  0  0  0  0  0  0
    6.1363  -11.3054   26.2426 C   0  0  0  0  0  0  0  0  0  0  0  0
    6.9444  -12.2193   25.3240 C   0  0  0  0  0  0  0  0  0  0  0  0
    7.4276  -13.4418   26.0505 C   0  0  2  0  0  0  0  0  0  0  0  0
    8.3110  -13.0969   27.2219 C   0  0  0  0  0  0  0  0  0  0  0  0
    8.0177  -14.4089   25.1040 C   0  0  2  0  0  0  0  0  0  0  0  0
    7.1496  -14.7241   23.9875 N   0  0  0  0  0  0  0  0  0  0  0  0
    8.4015  -15.6962   25.7334 C   0  0  0  0  0  0  0  0  0  0  0  0
    7.6437  -16.4306   26.4139 O   0  0  0  0  0  0  0  0  0  0  0  0
   10.6014  -18.2532   23.8183 C   0  0  0  0  0  0  0  0  0  0  0  0
   11.1675  -18.1482   25.2233 C   0  0  1  0  0  0  0  0  0  0  0  0
   12.3413  -17.4335   25.1820 O   0  0  0  0  0  0  0  0  0  0  0  0
   10.0989  -17.4818   26.0763 C   0  0  2  0  0  0  0  0  0  0  0  0
    9.7379  -16.1949   25.5862 N   0  0  0  0  0  0  0  0  0  0  0  0
   10.4802  -17.4745   27.5007 C   0  0  0  0  0  0  0  0  0  0  0  0
   10.7509  -18.6119   28.2183 O   0  0  0  0  0  0  0  0  0  0  0  0
   10.5596  -16.3663   28.0827 O   0  0  0  0  0  0  0  0  0  0  0  0
  2  1  1  6
  3  2  1  0
  4  3  1  0
  5  4  1  0
  6  5  1  0
  7  6  1  0
  8  2  1  0
  8  9  2  0
 11 10  1  0
 12 14  1  0
 12 11  1  0
 12 13  1  1
 14 15  1  6
 15  8  1  0
 16 14  1  0
 17 16  2  0
 19 18  1  6
 19 21  1  0
 20 19  1  0
 21 23  1  0
 21 22  1  6
 22 16  1  0
 23 24  1  0
 25 23  2  0
M  END
$$$$
