KIT.pdb
     RDKit          3D

 25 24  0  0  1  0  0  0  0  0999 V2000
    7.2048  -15.4402   21.1051 N   0  0  0  0  0  0  0  0  0  0  0  0
    8.5038  -14.9299   21.3584 C   0  0  1  0  0  0  0  0  0  0  0  0
    8.7757  -13.6302   20.6677 C   0  0  0  0  0  0  0  0  0  0  0  0
    9.0619  -13.6933   19.2049 C   0  0  0  0  0  0  0  0  0  0  0  0
    7.8605  -13.5099   18.3534 C   0  0  0  0  0  0  0  0  0  0  0  0
    8.3048  -13.6268   16.8856 C   0  0  0  0  0  0  0  0  0  0  0  0
    7.1430  -13.4902   16.0514 N   0  0  0  0  0  0  0  0  0  0  0  0
    8.7749  -14.7102   22.8071 C   0  0  0  0  0  0  0  0  0  0  0  0
    9.9677  -14.3468   23.0862 O   0  0  0  0  0  0  0  0  0  0  0  0
    6.0188  -11.6759   25.8229 C   0  0  0  0  0  0  0  0  0  0  0  0
    7.1078  -12.5292   25.1763 C   0  0  0  0  0  0  0  0  0  0  0  0
    7.3447  -13.7961   25.9472 C   0  0  2  0  0  0  0  0  0  0  0  0
    7.8131  -13.5280   27.3545 C   0  0  0  0  0  0  0  0  0  0  0  0
    8.2077  -14.7166   25.1808 C   0  0  2  0  0  0  0  0  0  0  0  0
    7.7856  -14.8900   23.8056 N   0  0  0  0  0  0  0  0  0  0  0  0
    8.3092  -16.0705   25.7785 C   0  0  0  0  0  0  0  0  0  0  0  0
    7.3423  -16.7716   26.1664 O   0  0  0  0  0  0  0  0  0  0  0  0
    9.9187  -18.9691   24.2418 C   0  0  0  0  0  0  0  0  0  0  0  0
   10.5920  -18.8888   25.6004 C   0  0  1  0  0  0  0  0  0  0  0  0
   11.8642  -18.3920   25.4421 O   0  0  0  0  0  0  0  0  0  0  0  0
    9.7149  -18.0022   26.4711 C   0  0  2  0  0  0  0  0  0  0  0  0
    9.5946  -16.6816   25.9531 N   0  0  0  0  0  0  0  0  0  0  0  0
   10.1521  -18.0358   27.8790 C   0  0  0  0  0  0  0  0  0  0  0  0
   10.2116  -19.1846   28.6265 O   0  0  0  0  0  0  0  0  0  0  0  0
   10.4865  -16.9534   28.4171 O   0  0  0  0  0  0  0  0  0  0  0  0
  2  1  1  1
  3  2  1  0
  4  3  1  0
  5  4  1  0
  6  5  1  0
  7  6  1  0
  8  2  1  0
  8  9  2  0
 11 10  1  0
 12 14  1  0
 12 11  1  0
 12 13  1  1
 14 15  1  6
 15  8  1  0
 16 14  1  0
 17 16  2  0
 19 18  1  6
 19 21  1  0
 20 19  1  0
 21 23  1  0
 21 22  1  6
 22 16  1  0
 23 24  1  0
 25 23  2  0
M  END
$$$$
