KIT.pdb
     RDKit          3D

 25 24  0  0  1  0  0  0  0  0999 V2000
    7.6809  -14.5784   20.3371 N   0  0  0  0  0  0  0  0  0  0  0  0
    7.2981  -15.3966   21.4307 C   0  0  1  0  0  0  0  0  0  0  0  0
    7.6107  -16.8457   21.2254 C   0  0  0  0  0  0  0  0  0  0  0  0
    6.7905  -17.5736   20.2139 C   0  0  0  0  0  0  0  0  0  0  0  0
    5.9393  -18.6423   20.7931 C   0  0  0  0  0  0  0  0  0  0  0  0
    5.0114  -19.1566   19.6796 C   0  0  0  0  0  0  0  0  0  0  0  0
    4.2547  -20.2620   20.1990 N   0  0  0  0  0  0  0  0  0  0  0  0
    7.9408  -14.9972   22.7145 C   0  0  0  0  0  0  0  0  0  0  0  0
    9.2159  -14.9215   22.6816 O   0  0  0  0  0  0  0  0  0  0  0  0
    5.7409  -11.4513   26.0011 C   0  0  0  0  0  0  0  0  0  0  0  0
    6.7728  -12.2476   25.2053 C   0  0  0  0  0  0  0  0  0  0  0  0
    7.2555  -13.4447   25.9730 C   0  0  2  0  0  0  0  0  0  0  0  0
    8.0365  -13.0567   27.2022 C   0  0  0  0  0  0  0  0  0  0  0  0
    7.9539  -14.3885   25.0779 C   0  0  2  0  0  0  0  0  0  0  0  0
    7.1965  -14.7206   23.8882 N   0  0  0  0  0  0  0  0  0  0  0  0
    8.3179  -15.6686   25.7331 C   0  0  0  0  0  0  0  0  0  0  0  0
    7.5077  -16.4983   26.2148 O   0  0  0  0  0  0  0  0  0  0  0  0
   10.7353  -18.1583   24.2452 C   0  0  0  0  0  0  0  0  0  0  0  0
   11.2120  -17.9568   25.6727 C   0  0  1  0  0  0  0  0  0  0  0  0
   12.3567  -17.1954   25.6602 O   0  0  0  0  0  0  0  0  0  0  0  0
   10.0689  -17.2938   26.4258 C   0  0  2  0  0  0  0  0  0  0  0  0
    9.6965  -16.0436   25.8558 N   0  0  0  0  0  0  0  0  0  0  0  0
   10.3574  -17.2107   27.8695 C   0  0  0  0  0  0  0  0  0  0  0  0
   10.5869  -18.3077   28.6605 O   0  0  0  0  0  0  0  0  0  0  0  0
   10.3937  -16.0736   28.3975 O   0  0  0  0  0  0  0  0  0  0  0  0
  2  1  1  6
  3  2  1  0
  4  3  1  0
  5  4  1  0
  6  5  1  0
  7  6  1  0
  8  2  1  0
  8  9  2  0
 11 10  1  0
 12 14  1  0
 12 11  1  0
 12 13  1  1
 14 15  1  6
 15  8  1  0
 16 14  1  0
 17 16  2  0
 19 18  1  6
 19 21  1  0
 20 19  1  0
 21 23  1  0
 21 22  1  6
 22 16  1  0
 23 24  1  0
 25 23  2  0
M  END
$$$$
