KIT.pdb
     RDKit          3D

 25 24  0  0  1  0  0  0  0  0999 V2000
    8.9777  -15.4921   19.8496 N   0  0  0  0  0  0  0  0  0  0  0  0
    8.0717  -15.8897   20.8660 C   0  0  1  0  0  0  0  0  0  0  0  0
    7.8818  -17.3722   20.9446 C   0  0  0  0  0  0  0  0  0  0  0  0
    6.7949  -17.9562   20.1060 C   0  0  0  0  0  0  0  0  0  0  0  0
    6.8260  -17.5076   18.6918 C   0  0  0  0  0  0  0  0  0  0  0  0
    5.5995  -18.1071   17.9835 C   0  0  0  0  0  0  0  0  0  0  0  0
    5.5085  -17.5268   16.6723 N   0  0  0  0  0  0  0  0  0  0  0  0
    8.4809  -15.4373   22.2255 C   0  0  0  0  0  0  0  0  0  0  0  0
    9.7043  -15.6547   22.5236 O   0  0  0  0  0  0  0  0  0  0  0  0
    7.1758  -11.8879   27.0963 C   0  0  0  0  0  0  0  0  0  0  0  0
    7.9477  -13.0100   26.4057 C   0  0  0  0  0  0  0  0  0  0  0  0
    7.3515  -13.3464   25.0689 C   0  0  2  0  0  0  0  0  0  0  0  0
    5.8668  -13.5916   25.1523 C   0  0  0  0  0  0  0  0  0  0  0  0
    8.1143  -14.4300   24.4181 C   0  0  2  0  0  0  0  0  0  0  0  0
    7.5827  -14.8114   23.1253 N   0  0  0  0  0  0  0  0  0  0  0  0
    8.2029  -15.6658   25.2337 C   0  0  0  0  0  0  0  0  0  0  0  0
    7.2288  -16.3628   25.6110 O   0  0  0  0  0  0  0  0  0  0  0  0
    9.6748  -18.7163   24.3723 C   0  0  0  0  0  0  0  0  0  0  0  0
   10.4113  -18.4191   25.6664 C   0  0  1  0  0  0  0  0  0  0  0  0
   11.6872  -18.0011   25.3708 O   0  0  0  0  0  0  0  0  0  0  0  0
    9.5979  -17.3634   26.3996 C   0  0  2  0  0  0  0  0  0  0  0  0
    9.4829  -16.1544   25.6568 N   0  0  0  0  0  0  0  0  0  0  0  0
   10.1020  -17.1570   27.7699 C   0  0  0  0  0  0  0  0  0  0  0  0
   10.1688  -18.1534   28.7105 O   0  0  0  0  0  0  0  0  0  0  0  0
   10.4890  -16.0071   28.0873 O   0  0  0  0  0  0  0  0  0  0  0  0
  2  1  1  6
  3  2  1  0
  4  3  1  0
  5  4  1  0
  6  5  1  0
  7  6  1  0
  8  2  1  0
  8  9  2  0
 11 10  1  0
 12 14  1  0
 12 11  1  0
 12 13  1  1
 14 15  1  6
 15  8  1  0
 16 14  1  0
 17 16  2  0
 19 18  1  6
 19 21  1  0
 20 19  1  0
 21 23  1  0
 21 22  1  6
 22 16  1  0
 23 24  1  0
 25 23  2  0
M  END
$$$$
