KIT.pdb
     RDKit          3D

 25 24  0  0  1  0  0  0  0  0999 V2000
    8.3385  -14.7720   20.3224 N   0  0  0  0  0  0  0  0  0  0  0  0
    7.6467  -15.3826   21.3996 C   0  0  1  0  0  0  0  0  0  0  0  0
    7.5786  -16.8738   21.2918 C   0  0  0  0  0  0  0  0  0  0  0  0
    6.2701  -17.4589   20.8781 C   0  0  0  0  0  0  0  0  0  0  0  0
    6.3873  -18.7978   20.2493 C   0  0  0  0  0  0  0  0  0  0  0  0
    5.9266  -18.6704   18.7875 C   0  0  0  0  0  0  0  0  0  0  0  0
    6.0840  -19.9497   18.1527 N   0  0  0  0  0  0  0  0  0  0  0  0
    8.2452  -15.0759   22.7294 C   0  0  0  0  0  0  0  0  0  0  0  0
    9.5212  -15.0107   22.7473 O   0  0  0  0  0  0  0  0  0  0  0  0
    6.0796  -11.5790   26.1014 C   0  0  0  0  0  0  0  0  0  0  0  0
    7.1375  -12.3765   25.3418 C   0  0  0  0  0  0  0  0  0  0  0  0
    7.4417  -13.6784   26.0259 C   0  0  2  0  0  0  0  0  0  0  0  0
    8.0950  -13.4776   27.3692 C   0  0  0  0  0  0  0  0  0  0  0  0
    8.1755  -14.5827   25.1186 C   0  0  2  0  0  0  0  0  0  0  0  0
    7.4608  -14.8708   23.8916 N   0  0  0  0  0  0  0  0  0  0  0  0
    8.5247  -15.8861   25.7348 C   0  0  0  0  0  0  0  0  0  0  0  0
    7.7044  -16.7247   26.1829 O   0  0  0  0  0  0  0  0  0  0  0  0
   11.7079  -19.4998   26.3649 C   0  0  0  0  0  0  0  0  0  0  0  0
   11.4423  -18.1679   25.6857 C   0  0  1  0  0  0  0  0  0  0  0  0
   11.2025  -18.3856   24.3496 O   0  0  0  0  0  0  0  0  0  0  0  0
   10.2584  -17.5393   26.4044 C   0  0  2  0  0  0  0  0  0  0  0  0
    9.8994  -16.2755   25.8560 N   0  0  0  0  0  0  0  0  0  0  0  0
   10.4788  -17.4980   27.8619 C   0  0  0  0  0  0  0  0  0  0  0  0
   10.4636  -18.6122   28.6621 O   0  0  0  0  0  0  0  0  0  0  0  0
   10.6910  -16.3820   28.3934 O   0  0  0  0  0  0  0  0  0  0  0  0
  2  1  1  6
  3  2  1  0
  4  3  1  0
  5  4  1  0
  6  5  1  0
  7  6  1  0
  8  2  1  0
  8  9  2  0
 11 10  1  0
 12 14  1  0
 12 11  1  0
 12 13  1  1
 14 15  1  6
 15  8  1  0
 16 14  1  0
 17 16  2  0
 19 18  1  1
 19 21  1  0
 20 19  1  0
 21 23  1  0
 21 22  1  6
 22 16  1  0
 23 24  1  0
 25 23  2  0
M  END
$$$$
