SCG.pdb
     RDKit          3D

 17 16  0  0  1  0  0  0  0  0999 V2000
   22.2651  -31.8495  -10.4403 O   0  0  0  0  0  0  0  0  0  0  0  0
   22.9722  -32.7816   -9.6920 C   0  0  0  0  0  0  0  0  0  0  0  0
   23.6954  -32.1599   -8.5269 C   0  0  2  0  0  0  0  0  0  0  0  0
   24.5140  -31.0849   -9.0483 N   0  0  0  0  0  0  0  0  0  0  0  0
   24.5252  -33.0818   -7.7690 C   0  0  0  0  0  0  0  0  0  0  0  0
   24.0850  -34.2239   -7.4890 O   0  0  0  0  0  0  0  0  0  0  0  0
   25.8351  -32.7998   -7.2992 N   0  0  0  0  0  0  0  0  0  0  0  0
   26.6547  -33.7091   -6.5587 C   0  0  1  0  0  0  0  0  0  0  0  0
   28.0887  -33.7344   -7.0288 C   0  0  0  0  0  0  0  0  0  0  0  0
   28.0822  -34.1993   -8.7851 S   0  0  0  0  0  0  0  0  0  0  0  0
   26.6671  -33.3709   -5.1111 C   0  0  0  0  0  0  0  0  0  0  0  0
   27.1430  -32.2678   -4.7387 O   0  0  0  0  0  0  0  0  0  0  0  0
   26.1632  -34.2376   -4.1043 N   0  0  0  0  0  0  0  0  0  0  0  0
   26.1303  -33.7960   -2.7075 C   0  0  0  0  0  0  0  0  0  0  0  0
   27.3066  -34.2996   -1.9701 C   0  0  0  0  0  0  0  0  0  0  0  0
   28.5717  -34.3996   -2.5093 O   0  0  0  0  0  0  0  0  0  0  0  0
   27.1363  -34.6565   -0.7805 O   0  0  0  0  0  0  0  0  0  0  0  0
  2  1  1  0
  3  2  1  0
  3  4  1  6
  5  3  1  0
  5  6  2  0
  7  5  1  0
  8  7  1  0
  9 10  1  0
  8  9  1  6
 11 13  1  0
 11  8  1  0
 12 11  2  0
 14 13  1  0
 14 15  1  0
 15 17  2  0
 15 16  1  0
M  END
$$$$
