SCG.pdb
     RDKit          3D

 17 16  0  0  1  0  0  0  0  0999 V2000
   27.0175  -17.9251  -14.6876 O   0  0  0  0  0  0  0  0  0  0  0  0
   27.4796  -18.9264  -15.5317 C   0  0  0  0  0  0  0  0  0  0  0  0
   27.9608  -20.1398  -14.7813 C   0  0  2  0  0  0  0  0  0  0  0  0
   28.4479  -21.0899  -15.7597 N   0  0  0  0  0  0  0  0  0  0  0  0
   26.9536  -20.7725  -13.9458 C   0  0  0  0  0  0  0  0  0  0  0  0
   26.2591  -21.7078  -14.4145 O   0  0  0  0  0  0  0  0  0  0  0  0
   26.6724  -20.4178  -12.6000 N   0  0  0  0  0  0  0  0  0  0  0  0
   25.6697  -21.0289  -11.7827 C   0  0  1  0  0  0  0  0  0  0  0  0
   25.9578  -20.9168  -10.3053 C   0  0  0  0  0  0  0  0  0  0  0  0
   27.6624  -21.4837  -10.0341 S   0  0  0  0  0  0  0  0  0  0  0  0
   24.3331  -20.4240  -12.0223 C   0  0  0  0  0  0  0  0  0  0  0  0
   24.1639  -19.1959  -11.8098 O   0  0  0  0  0  0  0  0  0  0  0  0
   23.2139  -21.1663  -12.4863 N   0  0  0  0  0  0  0  0  0  0  0  0
   21.9459  -20.4848  -12.7599 C   0  0  0  0  0  0  0  0  0  0  0  0
   20.9226  -21.4453  -13.2198 C   0  0  0  0  0  0  0  0  0  0  0  0
   19.5933  -21.1286  -13.4039 O   0  0  0  0  0  0  0  0  0  0  0  0
   21.2933  -22.6194  -13.4553 O   0  0  0  0  0  0  0  0  0  0  0  0
  2  1  1  0
  3  2  1  0
  3  4  1  6
  5  3  1  0
  5  6  2  0
  7  5  1  0
  8  7  1  0
  9 10  1  0
  8  9  1  1
 11 13  1  0
 11  8  1  0
 12 11  2  0
 14 13  1  0
 14 15  1  0
 15 17  2  0
 15 16  1  0
M  END
$$$$
