SCG.pdb
     RDKit          3D

 17 16  0  0  1  0  0  0  0  0999 V2000
   26.2033  -12.2602  -17.0288 O   0  0  0  0  0  0  0  0  0  0  0  0
   25.1862  -11.3146  -17.0430 C   0  0  0  0  0  0  0  0  0  0  0  0
   23.9061  -11.8325  -16.4429 C   0  0  2  0  0  0  0  0  0  0  0  0
   23.4100  -12.8773  -17.3145 N   0  0  0  0  0  0  0  0  0  0  0  0
   22.8760  -10.8244  -16.2540 C   0  0  0  0  0  0  0  0  0  0  0  0
   22.0842  -10.5649  -17.1932 O   0  0  0  0  0  0  0  0  0  0  0  0
   22.6753  -10.0792  -15.0621 N   0  0  0  0  0  0  0  0  0  0  0  0
   21.6191   -9.1376  -14.8512 C   0  0  1  0  0  0  0  0  0  0  0  0
   20.6148   -9.5921  -13.8203 C   0  0  0  0  0  0  0  0  0  0  0  0
   19.9933  -11.2185  -14.3393 S   0  0  0  0  0  0  0  0  0  0  0  0
   22.1480   -7.8212  -14.4068 C   0  0  0  0  0  0  0  0  0  0  0  0
   22.9399   -7.7715  -13.4309 O   0  0  0  0  0  0  0  0  0  0  0  0
   21.8047   -6.5924  -15.0320 N   0  0  0  0  0  0  0  0  0  0  0  0
   22.3375   -5.3313  -14.5096 C   0  0  0  0  0  0  0  0  0  0  0  0
   21.2593   -4.3362  -14.3406 C   0  0  0  0  0  0  0  0  0  0  0  0
   21.4589   -3.0515  -13.8813 O   0  0  0  0  0  0  0  0  0  0  0  0
   20.0930   -4.6889  -14.6351 O   0  0  0  0  0  0  0  0  0  0  0  0
  2  1  1  0
  3  2  1  0
  3  4  1  6
  5  3  1  0
  5  6  2  0
  7  5  1  0
  8  7  1  0
  9 10  1  0
  8  9  1  1
 11 13  1  0
 11  8  1  0
 12 11  2  0
 14 13  1  0
 14 15  1  0
 15 17  2  0
 15 16  1  0
M  END
$$$$
