SCG.pdb
     RDKit          3D

 17 16  0  0  1  0  0  0  0  0999 V2000
   18.5262  -10.0075  -19.7557 O   0  0  0  0  0  0  0  0  0  0  0  0
   18.7163   -9.7771  -18.3994 C   0  0  0  0  0  0  0  0  0  0  0  0
   19.8251  -10.6148  -17.8199 C   0  0  2  0  0  0  0  0  0  0  0  0
   19.3058  -11.9543  -17.6361 N   0  0  0  0  0  0  0  0  0  0  0  0
   20.3605  -10.1220  -16.5616 C   0  0  0  0  0  0  0  0  0  0  0  0
   19.7365  -10.3425  -15.4946 O   0  0  0  0  0  0  0  0  0  0  0  0
   21.5679   -9.3877  -16.4227 N   0  0  0  0  0  0  0  0  0  0  0  0
   22.0936   -8.8995  -15.1850 C   0  0  1  0  0  0  0  0  0  0  0  0
   23.6001   -8.9593  -15.1144 C   0  0  0  0  0  0  0  0  0  0  0  0
   24.0697  -10.6980  -14.8759 S   0  0  0  0  0  0  0  0  0  0  0  0
   21.6928   -7.4881  -14.9455 C   0  0  0  0  0  0  0  0  0  0  0  0
   21.9494   -6.9529  -13.8366 O   0  0  0  0  0  0  0  0  0  0  0  0
   21.0239   -6.6931  -15.9147 N   0  0  0  0  0  0  0  0  0  0  0  0
   20.6111   -5.3270  -15.5824 C   0  0  0  0  0  0  0  0  0  0  0  0
   21.7566   -4.3983  -15.6635 C   0  0  0  0  0  0  0  0  0  0  0  0
   23.0519   -4.7907  -15.9270 O   0  0  0  0  0  0  0  0  0  0  0  0
   21.5292   -3.1793  -15.4802 O   0  0  0  0  0  0  0  0  0  0  0  0
  2  1  1  0
  3  2  1  0
  3  4  1  1
  5  3  1  0
  5  6  2  0
  7  5  1  0
  8  7  1  0
  9 10  1  0
  8  9  1  6
 11 13  1  0
 11  8  1  0
 12 11  2  0
 14 13  1  0
 14 15  1  0
 15 17  2  0
 15 16  1  0
M  END
$$$$
