SCG.pdb
     RDKit          3D

 17 16  0  0  1  0  0  0  0  0999 V2000
   17.8530   -9.8928  -18.3158 O   0  0  0  0  0  0  0  0  0  0  0  0
   19.0944   -9.7941  -18.9303 C   0  0  0  0  0  0  0  0  0  0  0  0
   20.2279  -10.1503  -18.0055 C   0  0  2  0  0  0  0  0  0  0  0  0
   20.0445  -11.5303  -17.6063 N   0  0  0  0  0  0  0  0  0  0  0  0
   20.3309   -9.3099  -16.8240 C   0  0  0  0  0  0  0  0  0  0  0  0
   19.6645   -9.5979  -15.7995 O   0  0  0  0  0  0  0  0  0  0  0  0
   21.1450   -8.1515  -16.7176 N   0  0  0  0  0  0  0  0  0  0  0  0
   21.3269   -7.3831  -15.5246 C   0  0  1  0  0  0  0  0  0  0  0  0
   22.7095   -7.5196  -14.9348 C   0  0  0  0  0  0  0  0  0  0  0  0
   22.8068   -9.1484  -14.1357 S   0  0  0  0  0  0  0  0  0  0  0  0
   21.0893   -5.9364  -15.7708 C   0  0  0  0  0  0  0  0  0  0  0  0
   21.6308   -5.3814  -16.7611 O   0  0  0  0  0  0  0  0  0  0  0  0
   20.2704   -5.1285  -14.9369 N   0  0  0  0  0  0  0  0  0  0  0  0
   20.0087   -3.7328  -15.2987 C   0  0  0  0  0  0  0  0  0  0  0  0
   21.2056   -2.8983  -15.0703 C   0  0  0  0  0  0  0  0  0  0  0  0
   21.7600   -2.0665  -16.0200 O   0  0  0  0  0  0  0  0  0  0  0  0
   21.7453   -2.9551  -13.9403 O   0  0  0  0  0  0  0  0  0  0  0  0
  2  1  1  0
  3  2  1  0
  3  4  1  1
  5  3  1  0
  5  6  2  0
  7  5  1  0
  8  7  1  0
  9 10  1  0
  8  9  1  6
 11 13  1  0
 11  8  1  0
 12 11  2  0
 14 13  1  0
 14 15  1  0
 15 17  2  0
 15 16  1  0
M  END
$$$$
