SCG.pdb
     RDKit          3D

 17 16  0  0  1  0  0  0  0  0999 V2000
   23.4112  -10.0517  -18.7457 O   0  0  0  0  0  0  0  0  0  0  0  0
   22.5327   -9.2010  -18.0874 C   0  0  0  0  0  0  0  0  0  0  0  0
   21.9470   -9.8212  -16.8467 C   0  0  2  0  0  0  0  0  0  0  0  0
   21.1282  -10.9398  -17.2661 N   0  0  0  0  0  0  0  0  0  0  0  0
   21.1541   -8.9137  -16.0339 C   0  0  0  0  0  0  0  0  0  0  0  0
   19.9927   -8.6085  -16.4006 O   0  0  0  0  0  0  0  0  0  0  0  0
   21.5875   -8.3190  -14.8195 N   0  0  0  0  0  0  0  0  0  0  0  0
   20.8313   -7.3791  -14.0505 C   0  0  1  0  0  0  0  0  0  0  0  0
   20.3839   -7.9259  -12.7167 C   0  0  0  0  0  0  0  0  0  0  0  0
   20.1449   -9.7165  -12.9099 S   0  0  0  0  0  0  0  0  0  0  0  0
   21.6134   -6.1432  -13.7847 C   0  0  0  0  0  0  0  0  0  0  0  0
   22.8475   -6.2301  -13.5579 O   0  0  0  0  0  0  0  0  0  0  0  0
   21.0373   -4.8445  -13.7717 N   0  0  0  0  0  0  0  0  0  0  0  0
   21.8946   -3.6647  -13.6291 C   0  0  0  0  0  0  0  0  0  0  0  0
   21.0975   -2.4240  -13.7101 C   0  0  0  0  0  0  0  0  0  0  0  0
   21.5397   -1.1921  -13.2765 O   0  0  0  0  0  0  0  0  0  0  0  0
   19.9486   -2.5040  -14.2050 O   0  0  0  0  0  0  0  0  0  0  0  0
  2  1  1  0
  3  2  1  0
  3  4  1  6
  5  3  1  0
  5  6  2  0
  7  5  1  0
  8  7  1  0
  9 10  1  0
  8  9  1  1
 11 13  1  0
 11  8  1  0
 12 11  2  0
 14 13  1  0
 14 15  1  0
 15 17  2  0
 15 16  1  0
M  END
$$$$
