SCG.pdb
     RDKit          3D

 17 16  0  0  1  0  0  0  0  0999 V2000
   18.5473  -10.7009  -15.0695 O   0  0  0  0  0  0  0  0  0  0  0  0
   18.2513  -11.3039  -13.8539 C   0  0  0  0  0  0  0  0  0  0  0  0
   17.0871  -10.6545  -13.1541 C   0  0  2  0  0  0  0  0  0  0  0  0
   15.9485  -10.7292  -14.0459 N   0  0  0  0  0  0  0  0  0  0  0  0
   17.3112   -9.2724  -12.7634 C   0  0  0  0  0  0  0  0  0  0  0  0
   16.8684   -8.3455  -13.4854 O   0  0  0  0  0  0  0  0  0  0  0  0
   18.0098   -8.8589  -11.5985 N   0  0  0  0  0  0  0  0  0  0  0  0
   18.2651   -7.4993  -11.2340 C   0  0  1  0  0  0  0  0  0  0  0  0
   18.1616   -7.2528   -9.7485 C   0  0  0  0  0  0  0  0  0  0  0  0
   16.4623   -7.6499   -9.2434 S   0  0  0  0  0  0  0  0  0  0  0  0
   19.6220   -7.0694  -11.6627 C   0  0  0  0  0  0  0  0  0  0  0  0
   20.6144   -7.7915  -11.3875 O   0  0  0  0  0  0  0  0  0  0  0  0
   19.8683   -5.8673  -12.3790 N   0  0  0  0  0  0  0  0  0  0  0  0
   21.2123   -5.5803  -12.8875 C   0  0  0  0  0  0  0  0  0  0  0  0
   21.2352   -4.2941  -13.6131 C   0  0  0  0  0  0  0  0  0  0  0  0
   22.3887   -3.6213  -13.9563 O   0  0  0  0  0  0  0  0  0  0  0  0
   20.1334   -3.7891  -13.9334 O   0  0  0  0  0  0  0  0  0  0  0  0
  2  1  1  0
  3  2  1  0
  3  4  1  6
  5  3  1  0
  5  6  2  0
  7  5  1  0
  8  7  1  0
  9 10  1  0
  8  9  1  1
 11 13  1  0
 11  8  1  0
 12 11  2  0
 14 13  1  0
 14 15  1  0
 15 17  2  0
 15 16  1  0
M  END
$$$$
