SCG.pdb
     RDKit          3D

 17 16  0  0  1  0  0  0  0  0999 V2000
   17.1749  -11.3951  -17.7824 O   0  0  0  0  0  0  0  0  0  0  0  0
   17.8105  -10.7381  -16.7370 C   0  0  0  0  0  0  0  0  0  0  0  0
   18.9926  -11.5042  -16.2054 C   0  0  2  0  0  0  0  0  0  0  0  0
   18.4896  -12.7366  -15.6348 N   0  0  0  0  0  0  0  0  0  0  0  0
   19.7779  -10.7910  -15.2117 C   0  0  0  0  0  0  0  0  0  0  0  0
   19.2787  -10.5496  -14.0851 O   0  0  0  0  0  0  0  0  0  0  0  0
   21.1053  -10.3252  -15.4043 N   0  0  0  0  0  0  0  0  0  0  0  0
   21.8757   -9.6161  -14.4295 C   0  0  1  0  0  0  0  0  0  0  0  0
   23.3507   -9.9294  -14.4950 C   0  0  0  0  0  0  0  0  0  0  0  0
   23.5887  -11.5955  -13.8107 S   0  0  0  0  0  0  0  0  0  0  0  0
   21.7260   -8.1454  -14.5864 C   0  0  0  0  0  0  0  0  0  0  0  0
   22.2440   -7.3776  -13.7354 O   0  0  0  0  0  0  0  0  0  0  0  0
   21.0185   -7.5447  -15.6622 N   0  0  0  0  0  0  0  0  0  0  0  0
   20.8315   -6.0918  -15.6949 C   0  0  0  0  0  0  0  0  0  0  0  0
   19.4198   -5.7387  -15.4426 C   0  0  0  0  0  0  0  0  0  0  0  0
   18.5764   -5.2014  -16.3919 O   0  0  0  0  0  0  0  0  0  0  0  0
   18.9676   -5.9430  -14.2914 O   0  0  0  0  0  0  0  0  0  0  0  0
  2  1  1  0
  3  2  1  0
  3  4  1  1
  5  3  1  0
  5  6  2  0
  7  5  1  0
  8  7  1  0
  9 10  1  0
  8  9  1  6
 11 13  1  0
 11  8  1  0
 12 11  2  0
 14 13  1  0
 14 15  1  0
 15 17  2  0
 15 16  1  0
M  END
$$$$
