SCG.pdb
     RDKit          3D

 17 16  0  0  1  0  0  0  0  0999 V2000
   21.8744  -12.1615  -20.4414 O   0  0  0  0  0  0  0  0  0  0  0  0
   22.0434  -11.5203  -19.2211 C   0  0  0  0  0  0  0  0  0  0  0  0
   23.2028  -12.0707  -18.4338 C   0  0  2  0  0  0  0  0  0  0  0  0
   22.8415  -13.4064  -18.0063 N   0  0  0  0  0  0  0  0  0  0  0  0
   23.5813  -11.2740  -17.2784 C   0  0  0  0  0  0  0  0  0  0  0  0
   22.8293  -11.2451  -16.2733 O   0  0  0  0  0  0  0  0  0  0  0  0
   24.7657  -10.4975  -17.1778 N   0  0  0  0  0  0  0  0  0  0  0  0
   25.1498   -9.7313  -16.0324 C   0  0  1  0  0  0  0  0  0  0  0  0
   26.6324   -9.7814  -15.7537 C   0  0  0  0  0  0  0  0  0  0  0  0
   27.0582  -11.5022  -15.3563 S   0  0  0  0  0  0  0  0  0  0  0  0
   24.7744   -8.3012  -16.1868 C   0  0  0  0  0  0  0  0  0  0  0  0
   25.2055   -7.6527  -17.1744 O   0  0  0  0  0  0  0  0  0  0  0  0
   23.9409   -7.6108  -15.2662 N   0  0  0  0  0  0  0  0  0  0  0  0
   23.6065   -6.2027  -15.4951 C   0  0  0  0  0  0  0  0  0  0  0  0
   22.7005   -5.7007  -14.4423 C   0  0  0  0  0  0  0  0  0  0  0  0
   22.3651   -4.3731  -14.2802 O   0  0  0  0  0  0  0  0  0  0  0  0
   22.2099   -6.5398  -13.6506 O   0  0  0  0  0  0  0  0  0  0  0  0
  2  1  1  0
  3  2  1  0
  3  4  1  1
  5  3  1  0
  5  6  2  0
  7  5  1  0
  8  7  1  0
  9 10  1  0
  8  9  1  6
 11 13  1  0
 11  8  1  0
 12 11  2  0
 14 13  1  0
 14 15  1  0
 15 17  2  0
 15 16  1  0
M  END
$$$$
