SCG.pdb
     RDKit          3D

 17 16  0  0  1  0  0  0  0  0999 V2000
   20.6654  -12.0698  -20.6726 O   0  0  0  0  0  0  0  0  0  0  0  0
   20.1438  -11.5309  -19.5038 C   0  0  0  0  0  0  0  0  0  0  0  0
   21.1640  -11.4471  -18.3996 C   0  0  2  0  0  0  0  0  0  0  0  0
   21.5207  -12.8025  -18.0349 N   0  0  0  0  0  0  0  0  0  0  0  0
   20.7190  -10.7250  -17.2191 C   0  0  0  0  0  0  0  0  0  0  0  0
   19.7740  -11.1848  -16.5319 O   0  0  0  0  0  0  0  0  0  0  0  0
   21.2744   -9.5036  -16.7546 N   0  0  0  0  0  0  0  0  0  0  0  0
   20.9585   -8.8810  -15.5058 C   0  0  1  0  0  0  0  0  0  0  0  0
   21.5824   -9.5765  -14.3204 C   0  0  0  0  0  0  0  0  0  0  0  0
   23.3783   -9.6191  -14.5918 S   0  0  0  0  0  0  0  0  0  0  0  0
   21.4086   -7.4645  -15.4779 C   0  0  0  0  0  0  0  0  0  0  0  0
   22.5140   -7.1574  -15.9936 O   0  0  0  0  0  0  0  0  0  0  0  0
   20.6486   -6.4170  -14.8914 N   0  0  0  0  0  0  0  0  0  0  0  0
   21.1656   -5.0459  -14.8966 C   0  0  0  0  0  0  0  0  0  0  0  0
   21.9819   -4.7883  -13.6931 C   0  0  0  0  0  0  0  0  0  0  0  0
   22.2793   -5.7421  -12.7428 O   0  0  0  0  0  0  0  0  0  0  0  0
   22.4284   -3.6281  -13.5324 O   0  0  0  0  0  0  0  0  0  0  0  0
  2  1  1  0
  3  2  1  0
  3  4  1  1
  5  3  1  0
  5  6  2  0
  7  5  1  0
  8  7  1  0
  9 10  1  0
  8  9  1  1
 11 13  1  0
 11  8  1  0
 12 11  2  0
 14 13  1  0
 14 15  1  0
 15 17  2  0
 15 16  1  0
M  END
$$$$
