LWQ.pdb
     RDKit          3D

 32 33  0  0  1  0  0  0  0  0999 V2000
   28.5660  -21.0467  -16.9604 C   0  0  0  0  0  0  0  0  0  0  0  0
   29.2159  -21.2201  -15.6281 C   0  0  2  0  0  0  0  0  0  0  0  0
   30.2272  -22.3655  -15.7556 C   0  0  0  0  0  0  0  0  0  0  0  0
   28.2896  -21.6056  -14.5231 C   0  0  0  0  0  0  0  0  0  0  0  0
   27.2360  -20.5870  -14.1946 C   0  0  2  0  0  0  0  0  0  0  0  0
   27.7630  -19.3004  -13.8422 N   0  0  0  0  0  0  0  0  0  0  0  0
   26.2860  -21.0815  -13.1607 C   0  0  0  0  0  0  0  0  0  0  0  0
   25.8653  -22.2463  -13.2640 O   0  0  0  0  0  0  0  0  0  0  0  0
   25.8447  -20.2982  -12.0789 N   0  0  0  0  0  0  0  0  0  0  0  0
   24.9585  -20.8097  -11.0157 C   0  0  1  0  0  0  0  0  0  0  0  0
   25.4945  -20.2540   -9.7498 C   0  0  0  0  0  0  0  0  0  0  0  0
   26.8604  -20.5941   -9.3795 C   0  0  0  0  0  0  0  0  0  0  0  0
   27.7829  -21.3768  -10.0401 C   0  0  0  0  0  0  0  0  0  0  0  0
   28.9088  -21.4269   -9.3129 N   0  0  0  0  0  0  0  0  0  0  0  0
   28.7505  -20.6935   -8.1847 C   0  0  0  0  0  0  0  0  0  0  0  0
   29.6022  -20.4223   -7.1102 C   0  0  0  0  0  0  0  0  0  0  0  0
   29.1814  -19.6266   -6.0645 C   0  0  0  0  0  0  0  0  0  0  0  0
   27.9119  -19.0996   -6.0870 C   0  0  0  0  0  0  0  0  0  0  0  0
   27.0792  -19.3729   -7.1516 C   0  0  0  0  0  0  0  0  0  0  0  0
   27.4879  -20.1775   -8.2212 C   0  0  0  0  0  0  0  0  0  0  0  0
   23.5587  -20.5379  -11.3350 C   0  0  0  0  0  0  0  0  0  0  0  0
   22.6669  -20.9704  -10.5085 O   0  0  0  0  0  0  0  0  0  0  0  0
   22.3254  -24.3323  -14.1128 N   0  0  0  0  0  0  0  0  0  0  0  0
   21.1152  -23.7373  -14.5807 C   0  0  0  0  0  0  0  0  0  0  0  0
   20.3392  -24.4582  -15.2264 O   0  0  0  0  0  0  0  0  0  0  0  0
   20.8793  -22.3059  -14.2597 C   0  0  0  0  0  0  0  0  0  0  0  0
   22.0710  -21.7931  -13.4918 C   0  0  0  0  0  0  0  0  0  0  0  0
   21.9671  -20.3228  -13.1735 C   0  0  2  0  0  0  0  0  0  0  0  0
   23.1492  -19.8270  -12.4941 N   0  0  0  0  0  0  0  0  0  0  0  0
   20.7991  -20.1424  -12.3045 C   0  0  0  0  0  0  0  0  0  0  0  0
   20.8127  -20.5345  -11.1258 O   0  0  0  0  0  0  0  0  0  0  0  0
   19.6612  -19.5280  -12.7948 O   0  0  0  0  0  0  0  0  0  0  0  0
  2  3  1  6
  2  1  1  0
  4  2  1  0
  5  4  1  0
  5  6  1  1
  7  9  1  0
  7  5  1  0
  8  7  2  0
 10  9  1  0
 10 11  1  1
 12 11  1  0
 13 12  2  0
 14 13  1  0
 15 14  1  0
 15 20  2  0
 16 15  1  0
 17 16  2  0
 17 18  1  0
 18 19  2  0
 19 20  1  0
 20 12  1  0
 21 10  1  0
 21 22  2  0
 23 24  1  0
 24 26  1  0
 25 24  2  0
 27 26  1  0
 28 29  1  0
 28 27  1  1
 29 21  1  0
 30 28  1  0
 31 30  2  0
 32 30  1  0
M  END
$$$$
