LWQ.pdb
     RDKit          3D

 32 33  0  0  1  0  0  0  0  0999 V2000
   28.5645  -21.3053  -17.5532 C   0  0  0  0  0  0  0  0  0  0  0  0
   29.3973  -21.3130  -16.3147 C   0  0  2  0  0  0  0  0  0  0  0  0
   30.4398  -22.4268  -16.4687 C   0  0  0  0  0  0  0  0  0  0  0  0
   28.6506  -21.6146  -15.0580 C   0  0  0  0  0  0  0  0  0  0  0  0
   27.4953  -20.6987  -14.7716 C   0  0  2  0  0  0  0  0  0  0  0  0
   27.8812  -19.3416  -14.5134 N   0  0  0  0  0  0  0  0  0  0  0  0
   26.6218  -21.2258  -13.6876 C   0  0  0  0  0  0  0  0  0  0  0  0
   26.3359  -22.4351  -13.7045 O   0  0  0  0  0  0  0  0  0  0  0  0
   26.1078  -20.4255  -12.6514 N   0  0  0  0  0  0  0  0  0  0  0  0
   25.1985  -20.9360  -11.6074 C   0  0  1  0  0  0  0  0  0  0  0  0
   25.6117  -20.2591  -10.3546 C   0  0  0  0  0  0  0  0  0  0  0  0
   26.9049  -20.6079   -9.7849 C   0  0  0  0  0  0  0  0  0  0  0  0
   27.9585  -21.2955  -10.3482 C   0  0  0  0  0  0  0  0  0  0  0  0
   28.9420  -21.3994   -9.4422 N   0  0  0  0  0  0  0  0  0  0  0  0
   28.5612  -20.7948   -8.2910 C   0  0  0  0  0  0  0  0  0  0  0  0
   29.2017  -20.6225   -7.0608 C   0  0  0  0  0  0  0  0  0  0  0  0
   28.5743  -19.9527   -6.0306 C   0  0  0  0  0  0  0  0  0  0  0  0
   27.3081  -19.4533   -6.2235 C   0  0  0  0  0  0  0  0  0  0  0  0
   26.6846  -19.6285   -7.4409 C   0  0  0  0  0  0  0  0  0  0  0  0
   27.3045  -20.3048   -8.4976 C   0  0  0  0  0  0  0  0  0  0  0  0
   23.8047  -20.7970  -12.0236 C   0  0  0  0  0  0  0  0  0  0  0  0
   23.3709  -19.6040  -12.2557 O   0  0  0  0  0  0  0  0  0  0  0  0
   18.6615  -20.9343  -15.5865 N   0  0  0  0  0  0  0  0  0  0  0  0
   19.6405  -21.9187  -15.2545 C   0  0  0  0  0  0  0  0  0  0  0  0
   20.4689  -22.2150  -16.1291 O   0  0  0  0  0  0  0  0  0  0  0  0
   19.5920  -22.5101  -13.8924 C   0  0  0  0  0  0  0  0  0  0  0  0
   21.0068  -22.7705  -13.4416 C   0  0  0  0  0  0  0  0  0  0  0  0
   21.5995  -21.6060  -12.6889 C   0  0  2  0  0  0  0  0  0  0  0  0
   22.9269  -21.9019  -12.1836 N   0  0  0  0  0  0  0  0  0  0  0  0
   20.7081  -21.3114  -11.5618 C   0  0  0  0  0  0  0  0  0  0  0  0
   21.0720  -21.5087  -10.3904 O   0  0  0  0  0  0  0  0  0  0  0  0
   19.4420  -20.8062  -11.7956 O   0  0  0  0  0  0  0  0  0  0  0  0
  2  3  1  6
  2  1  1  0
  4  2  1  0
  5  4  1  0
  5  6  1  1
  7  9  1  0
  7  5  1  0
  8  7  2  0
 10  9  1  0
 10 11  1  1
 12 11  1  0
 13 12  2  0
 14 13  1  0
 15 14  1  0
 15 20  2  0
 16 15  1  0
 17 16  2  0
 17 18  1  0
 18 19  2  0
 19 20  1  0
 20 12  1  0
 21 10  1  0
 21 22  2  0
 23 24  1  0
 24 26  1  0
 25 24  2  0
 27 26  1  0
 28 29  1  0
 28 27  1  1
 29 21  1  0
 30 28  1  0
 31 30  2  0
 32 30  1  0
M  END
$$$$
