LWQ.pdb
     RDKit          3D

 32 33  0  0  1  0  0  0  0  0999 V2000
   26.3359  -31.9518   -8.4023 C   0  0  0  0  0  0  0  0  0  0  0  0
   25.6411  -33.1100   -7.7673 C   0  0  2  0  0  0  0  0  0  0  0  0
   24.4561  -32.5537   -6.9690 C   0  0  0  0  0  0  0  0  0  0  0  0
   26.4694  -33.8832   -6.7958 C   0  0  0  0  0  0  0  0  0  0  0  0
   27.7314  -34.4677   -7.3627 C   0  0  2  0  0  0  0  0  0  0  0  0
   27.5078  -35.4582   -8.3756 N   0  0  0  0  0  0  0  0  0  0  0  0
   28.6352  -34.9813   -6.2973 C   0  0  0  0  0  0  0  0  0  0  0  0
   28.5617  -36.1857   -6.0001 O   0  0  0  0  0  0  0  0  0  0  0  0
   29.5629  -34.1735   -5.6152 N   0  0  0  0  0  0  0  0  0  0  0  0
   30.5598  -34.7069   -4.6670 C   0  0  1  0  0  0  0  0  0  0  0  0
   31.7004  -33.7608   -4.7152 C   0  0  0  0  0  0  0  0  0  0  0  0
   32.9000  -34.0991   -3.9635 C   0  0  0  0  0  0  0  0  0  0  0  0
   33.6493  -35.2561   -3.9752 C   0  0  0  0  0  0  0  0  0  0  0  0
   34.6599  -35.1268   -3.1028 N   0  0  0  0  0  0  0  0  0  0  0  0
   34.5948  -33.9083   -2.5140 C   0  0  0  0  0  0  0  0  0  0  0  0
   35.3918  -33.2838   -1.5505 C   0  0  0  0  0  0  0  0  0  0  0  0
   35.0964  -32.0086   -1.1145 C   0  0  0  0  0  0  0  0  0  0  0  0
   34.0069  -31.3530   -1.6370 C   0  0  0  0  0  0  0  0  0  0  0  0
   33.2268  -31.9775   -2.5871 C   0  0  0  0  0  0  0  0  0  0  0  0
   33.5103  -33.2703   -3.0419 C   0  0  0  0  0  0  0  0  0  0  0  0
   29.9482  -34.9639   -3.3650 C   0  0  0  0  0  0  0  0  0  0  0  0
   29.0129  -34.1623   -2.9803 O   0  0  0  0  0  0  0  0  0  0  0  0
   30.5372  -39.6829    0.6872 N   0  0  0  0  0  0  0  0  0  0  0  0
   29.6225  -38.8508    1.4003 C   0  0  0  0  0  0  0  0  0  0  0  0
   29.2091  -39.2662    2.4937 O   0  0  0  0  0  0  0  0  0  0  0  0
   29.2376  -37.5566    0.7805 C   0  0  0  0  0  0  0  0  0  0  0  0
   29.9809  -37.4198   -0.5239 C   0  0  0  0  0  0  0  0  0  0  0  0
   29.6645  -36.1308   -1.2396 C   0  0  2  0  0  0  0  0  0  0  0  0
   30.3322  -36.0423   -2.5245 N   0  0  0  0  0  0  0  0  0  0  0  0
   30.1176  -35.0296   -0.3829 C   0  0  0  0  0  0  0  0  0  0  0  0
   31.1160  -34.3545   -0.6841 O   0  0  0  0  0  0  0  0  0  0  0  0
   29.4302  -34.7302    0.7793 O   0  0  0  0  0  0  0  0  0  0  0  0
  2  3  1  1
  2  1  1  0
  4  2  1  0
  5  4  1  0
  5  6  1  6
  7  9  1  0
  7  5  1  0
  8  7  2  0
 10  9  1  0
 10 11  1  1
 12 11  1  0
 13 12  2  0
 14 13  1  0
 15 14  1  0
 15 20  2  0
 16 15  1  0
 17 16  2  0
 17 18  1  0
 18 19  2  0
 19 20  1  0
 20 12  1  0
 21 10  1  0
 21 22  2  0
 23 24  1  0
 24 26  1  0
 25 24  2  0
 27 26  1  0
 28 29  1  0
 28 27  1  1
 29 21  1  0
 30 28  1  0
 31 30  2  0
 32 30  1  0
M  END
$$$$
