LWQ.pdb
     RDKit          3D

 32 33  0  0  1  0  0  0  0  0999 V2000
   29.7355  -18.2286  -15.6716 C   0  0  0  0  0  0  0  0  0  0  0  0
   28.3088  -18.4402  -16.0555 C   0  0  2  0  0  0  0  0  0  0  0  0
   27.6879  -17.0590  -16.2963 C   0  0  0  0  0  0  0  0  0  0  0  0
   27.4684  -19.0965  -15.0112 C   0  0  0  0  0  0  0  0  0  0  0  0
   27.9830  -20.4202  -14.5227 C   0  0  2  0  0  0  0  0  0  0  0  0
   28.0773  -21.4196  -15.5472 N   0  0  0  0  0  0  0  0  0  0  0  0
   27.2116  -20.9202  -13.3519 C   0  0  0  0  0  0  0  0  0  0  0  0
   26.1884  -21.5908  -13.5703 O   0  0  0  0  0  0  0  0  0  0  0  0
   27.5833  -20.6714  -12.0183 N   0  0  0  0  0  0  0  0  0  0  0  0
   26.7367  -21.0220  -10.8616 C   0  0  1  0  0  0  0  0  0  0  0  0
   27.6034  -20.8566   -9.6700 C   0  0  0  0  0  0  0  0  0  0  0  0
   26.9604  -20.7368   -8.3698 C   0  0  0  0  0  0  0  0  0  0  0  0
   25.6295  -20.8570   -8.0312 C   0  0  0  0  0  0  0  0  0  0  0  0
   25.4969  -20.6466   -6.7132 N   0  0  0  0  0  0  0  0  0  0  0  0
   26.7124  -20.3896   -6.1725 C   0  0  0  0  0  0  0  0  0  0  0  0
   27.1218  -20.1079   -4.8662 C   0  0  0  0  0  0  0  0  0  0  0  0
   28.4523  -19.8792   -4.5816 C   0  0  0  0  0  0  0  0  0  0  0  0
   29.3774  -19.9306   -5.5972 C   0  0  0  0  0  0  0  0  0  0  0  0
   28.9636  -20.2094   -6.8827 C   0  0  0  0  0  0  0  0  0  0  0  0
   27.6188  -20.4441   -7.1910 C   0  0  0  0  0  0  0  0  0  0  0  0
   25.4817  -20.2743  -10.8947 C   0  0  0  0  0  0  0  0  0  0  0  0
   25.5592  -18.9870  -10.9419 O   0  0  0  0  0  0  0  0  0  0  0  0
   23.4560  -19.2461  -15.0633 N   0  0  0  0  0  0  0  0  0  0  0  0
   22.8578  -20.5114  -14.7824 C   0  0  0  0  0  0  0  0  0  0  0  0
   22.7411  -21.3077  -15.7265 O   0  0  0  0  0  0  0  0  0  0  0  0
   22.4228  -20.7760  -13.3867 C   0  0  0  0  0  0  0  0  0  0  0  0
   22.8900  -19.6320  -12.5231 C   0  0  0  0  0  0  0  0  0  0  0  0
   23.0599  -20.0277  -11.0780 C   0  0  2  0  0  0  0  0  0  0  0  0
   24.2052  -20.8963  -10.8813 N   0  0  0  0  0  0  0  0  0  0  0  0
   21.8414  -20.7351  -10.6696 C   0  0  0  0  0  0  0  0  0  0  0  0
   21.8651  -21.9485  -10.4043 O   0  0  0  0  0  0  0  0  0  0  0  0
   20.6434  -20.0503  -10.5753 O   0  0  0  0  0  0  0  0  0  0  0  0
  2  3  1  1
  2  1  1  0
  4  2  1  0
  5  4  1  0
  5  6  1  6
  7  9  1  0
  7  5  1  0
  8  7  2  0
 10  9  1  0
 10 11  1  1
 12 11  1  0
 13 12  2  0
 14 13  1  0
 15 14  1  0
 15 20  2  0
 16 15  1  0
 17 16  2  0
 17 18  1  0
 18 19  2  0
 19 20  1  0
 20 12  1  0
 21 10  1  0
 21 22  2  0
 23 24  1  0
 24 26  1  0
 25 24  2  0
 27 26  1  0
 28 29  1  0
 28 27  1  6
 29 21  1  0
 30 28  1  0
 31 30  2  0
 32 30  1  0
M  END
$$$$
