LWQ.pdb
     RDKit          3D

 32 33  0  0  1  0  0  0  0  0999 V2000
   29.8640  -22.6280  -19.4217 C   0  0  0  0  0  0  0  0  0  0  0  0
   30.4908  -22.4814  -18.0752 C   0  0  2  0  0  0  0  0  0  0  0  0
   31.6957  -23.4283  -18.0236 C   0  0  0  0  0  0  0  0  0  0  0  0
   29.6137  -22.8633  -16.9295 C   0  0  0  0  0  0  0  0  0  0  0  0
   28.3924  -22.0072  -16.7532 C   0  0  2  0  0  0  0  0  0  0  0  0
   28.6349  -20.6057  -16.9377 N   0  0  0  0  0  0  0  0  0  0  0  0
   27.7105  -22.2697  -15.4563 C   0  0  0  0  0  0  0  0  0  0  0  0
   27.3622  -23.4360  -15.2055 O   0  0  0  0  0  0  0  0  0  0  0  0
   27.4432  -21.2668  -14.5069 N   0  0  0  0  0  0  0  0  0  0  0  0
   26.7636  -21.5260  -13.2230 C   0  0  1  0  0  0  0  0  0  0  0  0
   27.3897  -20.6011  -12.2479 C   0  0  0  0  0  0  0  0  0  0  0  0
   26.7716  -20.4709  -10.9367 C   0  0  0  0  0  0  0  0  0  0  0  0
   25.4641  -20.1885  -10.6038 C   0  0  0  0  0  0  0  0  0  0  0  0
   25.3562  -20.1476   -9.2675 N   0  0  0  0  0  0  0  0  0  0  0  0
   26.5653  -20.3970   -8.7091 C   0  0  0  0  0  0  0  0  0  0  0  0
   26.9924  -20.4693   -7.3803 C   0  0  0  0  0  0  0  0  0  0  0  0
   28.3107  -20.7448   -7.0808 C   0  0  0  0  0  0  0  0  0  0  0  0
   29.2059  -20.9487   -8.1039 C   0  0  0  0  0  0  0  0  0  0  0  0
   28.7749  -20.8753   -9.4116 C   0  0  0  0  0  0  0  0  0  0  0  0
   27.4421  -20.5971   -9.7353 C   0  0  0  0  0  0  0  0  0  0  0  0
   25.3128  -21.4591  -13.3839 C   0  0  0  0  0  0  0  0  0  0  0  0
   24.8362  -20.4705  -14.0628 O   0  0  0  0  0  0  0  0  0  0  0  0
   21.9940  -25.8972  -14.7259 N   0  0  0  0  0  0  0  0  0  0  0  0
   20.8647  -25.0359  -14.5834 C   0  0  0  0  0  0  0  0  0  0  0  0
   19.8315  -25.3462  -15.1959 O   0  0  0  0  0  0  0  0  0  0  0  0
   21.0132  -23.8389  -13.7159 C   0  0  0  0  0  0  0  0  0  0  0  0
   22.4288  -23.8048  -13.1989 C   0  0  0  0  0  0  0  0  0  0  0  0
   23.0877  -22.4633  -13.3997 C   0  0  2  0  0  0  0  0  0  0  0  0
   24.4242  -22.4224  -12.8369 N   0  0  0  0  0  0  0  0  0  0  0  0
   22.2519  -21.4588  -12.7333 C   0  0  0  0  0  0  0  0  0  0  0  0
   21.5598  -20.6645  -13.3916 O   0  0  0  0  0  0  0  0  0  0  0  0
   22.2268  -21.3865  -11.3524 O   0  0  0  0  0  0  0  0  0  0  0  0
  2  3  1  6
  2  1  1  0
  4  2  1  0
  5  4  1  0
  5  6  1  1
  7  9  1  0
  7  5  1  0
  8  7  2  0
 10  9  1  0
 10 11  1  1
 12 11  1  0
 13 12  2  0
 14 13  1  0
 15 14  1  0
 15 20  2  0
 16 15  1  0
 17 16  2  0
 17 18  1  0
 18 19  2  0
 19 20  1  0
 20 12  1  0
 21 10  1  0
 21 22  2  0
 23 24  1  0
 24 26  1  0
 25 24  2  0
 27 26  1  0
 28 29  1  0
 28 27  1  1
 29 21  1  0
 30 28  1  0
 31 30  2  0
 32 30  1  0
M  END
$$$$
