LWQ.pdb
     RDKit          3D

 32 33  0  0  1  0  0  0  0  0999 V2000
   28.4819  -21.7124  -10.3975 C   0  0  0  0  0  0  0  0  0  0  0  0
   27.7367  -20.4255  -10.5231 C   0  0  2  0  0  0  0  0  0  0  0  0
   28.1729  -19.5263   -9.3602 C   0  0  0  0  0  0  0  0  0  0  0  0
   26.2527  -20.5466  -10.4198 C   0  0  0  0  0  0  0  0  0  0  0  0
   25.6050  -21.3532  -11.5087 C   0  0  2  0  0  0  0  0  0  0  0  0
   26.2920  -21.2873  -12.7660 N   0  0  0  0  0  0  0  0  0  0  0  0
   24.1624  -21.0211  -11.6651 C   0  0  0  0  0  0  0  0  0  0  0  0
   23.4712  -20.9234  -10.6370 O   0  0  0  0  0  0  0  0  0  0  0  0
   23.5480  -20.8139  -12.9134 N   0  0  0  0  0  0  0  0  0  0  0  0
   22.1139  -20.5039  -13.0698 C   0  0  1  0  0  0  0  0  0  0  0  0
   21.9868  -19.8738  -14.4059 C   0  0  0  0  0  0  0  0  0  0  0  0
   20.6615  -19.4587  -14.8415 C   0  0  0  0  0  0  0  0  0  0  0  0
   19.6703  -18.8031  -14.1430 C   0  0  0  0  0  0  0  0  0  0  0  0
   18.6065  -18.6460  -14.9446 N   0  0  0  0  0  0  0  0  0  0  0  0
   18.8731  -19.1841  -16.1592 C   0  0  0  0  0  0  0  0  0  0  0  0
   18.1180  -19.2855  -17.3309 C   0  0  0  0  0  0  0  0  0  0  0  0
   18.6406  -19.8969  -18.4520 C   0  0  0  0  0  0  0  0  0  0  0  0
   19.9158  -20.4085  -18.4081 C   0  0  0  0  0  0  0  0  0  0  0  0
   20.6528  -20.3035  -17.2474 C   0  0  0  0  0  0  0  0  0  0  0  0
   20.1402  -19.6869  -16.1005 C   0  0  0  0  0  0  0  0  0  0  0  0
   21.2977  -21.6852  -12.7983 C   0  0  0  0  0  0  0  0  0  0  0  0
   21.7463  -22.8235  -13.2088 O   0  0  0  0  0  0  0  0  0  0  0  0
   19.1315  -23.6432   -7.7897 N   0  0  0  0  0  0  0  0  0  0  0  0
   18.5359  -24.6555   -8.6009 C   0  0  0  0  0  0  0  0  0  0  0  0
   18.0141  -25.6181   -8.0179 O   0  0  0  0  0  0  0  0  0  0  0  0
   18.5868  -24.4788  -10.0752 C   0  0  0  0  0  0  0  0  0  0  0  0
   19.3510  -23.2137  -10.3717 C   0  0  0  0  0  0  0  0  0  0  0  0
   19.4076  -22.9020  -11.8460 C   0  0  2  0  0  0  0  0  0  0  0  0
   20.0564  -21.6316  -12.1104 N   0  0  0  0  0  0  0  0  0  0  0  0
   18.0266  -22.8507  -12.3379 C   0  0  0  0  0  0  0  0  0  0  0  0
   17.5082  -23.8347  -12.8914 O   0  0  0  0  0  0  0  0  0  0  0  0
   17.2820  -21.6948  -12.1882 O   0  0  0  0  0  0  0  0  0  0  0  0
  2  3  1  1
  2  1  1  0
  4  2  1  0
  5  4  1  0
  5  6  1  6
  7  9  1  0
  7  5  1  0
  8  7  2  0
 10  9  1  0
 10 11  1  6
 12 11  1  0
 13 12  2  0
 14 13  1  0
 15 14  1  0
 15 20  2  0
 16 15  1  0
 17 16  2  0
 17 18  1  0
 18 19  2  0
 19 20  1  0
 20 12  1  0
 21 10  1  0
 21 22  2  0
 23 24  1  0
 24 26  1  0
 25 24  2  0
 27 26  1  0
 28 29  1  0
 28 27  1  1
 29 21  1  0
 30 28  1  0
 31 30  2  0
 32 30  1  0
M  END
$$$$
