LWQ.pdb
     RDKit          3D

 32 33  0  0  1  0  0  0  0  0999 V2000
   29.0990  -22.2362  -19.5219 C   0  0  0  0  0  0  0  0  0  0  0  0
   29.8390  -22.5761  -18.2712 C   0  0  2  0  0  0  0  0  0  0  0  0
   30.6394  -23.8552  -18.5439 C   0  0  0  0  0  0  0  0  0  0  0  0
   28.9746  -22.8713  -17.0908 C   0  0  0  0  0  0  0  0  0  0  0  0
   28.1123  -21.7292  -16.6349 C   0  0  2  0  0  0  0  0  0  0  0  0
   28.7990  -20.4713  -16.5768 N   0  0  0  0  0  0  0  0  0  0  0  0
   27.4261  -22.0282  -15.3482 C   0  0  0  0  0  0  0  0  0  0  0  0
   26.8683  -23.1321  -15.2270 O   0  0  0  0  0  0  0  0  0  0  0  0
   27.3793  -21.1266  -14.2696 N   0  0  0  0  0  0  0  0  0  0  0  0
   26.7150  -21.4299  -12.9874 C   0  0  1  0  0  0  0  0  0  0  0  0
   27.4812  -20.6879  -11.9574 C   0  0  0  0  0  0  0  0  0  0  0  0
   26.8523  -20.4719  -10.6627 C   0  0  0  0  0  0  0  0  0  0  0  0
   25.5233  -20.2817  -10.3501 C   0  0  0  0  0  0  0  0  0  0  0  0
   25.4110  -20.1019   -9.0257 N   0  0  0  0  0  0  0  0  0  0  0  0
   26.6381  -20.1693   -8.4553 C   0  0  0  0  0  0  0  0  0  0  0  0
   27.0692  -20.0507   -7.1311 C   0  0  0  0  0  0  0  0  0  0  0  0
   28.4078  -20.1623   -6.8161 C   0  0  0  0  0  0  0  0  0  0  0  0
   29.3195  -20.3921   -7.8191 C   0  0  0  0  0  0  0  0  0  0  0  0
   28.8842  -20.5076   -9.1224 C   0  0  0  0  0  0  0  0  0  0  0  0
   27.5310  -20.3974   -9.4616 C   0  0  0  0  0  0  0  0  0  0  0  0
   25.2790  -21.1751  -13.0769 C   0  0  0  0  0  0  0  0  0  0  0  0
   24.9063  -20.0590  -13.6067 O   0  0  0  0  0  0  0  0  0  0  0  0
   21.7458  -25.7186  -14.5695 N   0  0  0  0  0  0  0  0  0  0  0  0
   20.7844  -24.6838  -14.7756 C   0  0  0  0  0  0  0  0  0  0  0  0
   19.7496  -24.9828  -15.3910 O   0  0  0  0  0  0  0  0  0  0  0  0
   21.0961  -23.3337  -14.2395 C   0  0  0  0  0  0  0  0  0  0  0  0
   22.4499  -23.3906  -13.5788 C   0  0  0  0  0  0  0  0  0  0  0  0
   22.9966  -22.0225  -13.2574 C   0  0  2  0  0  0  0  0  0  0  0  0
   24.2963  -22.0912  -12.6165 N   0  0  0  0  0  0  0  0  0  0  0  0
   22.0450  -21.3704  -12.3512 C   0  0  0  0  0  0  0  0  0  0  0  0
   22.1838  -21.4424  -11.1188 O   0  0  0  0  0  0  0  0  0  0  0  0
   20.9741  -20.6627  -12.8662 O   0  0  0  0  0  0  0  0  0  0  0  0
  2  3  1  6
  2  1  1  0
  4  2  1  0
  5  4  1  0
  5  6  1  1
  7  9  1  0
  7  5  1  0
  8  7  2  0
 10  9  1  0
 10 11  1  1
 12 11  1  0
 13 12  2  0
 14 13  1  0
 15 14  1  0
 15 20  2  0
 16 15  1  0
 17 16  2  0
 17 18  1  0
 18 19  2  0
 19 20  1  0
 20 12  1  0
 21 10  1  0
 21 22  2  0
 23 24  1  0
 24 26  1  0
 25 24  2  0
 27 26  1  0
 28 29  1  0
 28 27  1  1
 29 21  1  0
 30 28  1  0
 31 30  2  0
 32 30  1  0
M  END
$$$$
