WGN.pdb
     RDKit          3D

 27 28  0  0  1  0  0  0  0  0999 V2000
   25.8187  -21.5616   -7.5467 N   0  0  0  0  0  0  0  0  0  0  0  0
   26.0399  -20.5719   -8.5872 C   0  0  1  0  0  0  0  0  0  0  0  0
   27.4936  -20.1384   -8.5799 C   0  0  0  0  0  0  0  0  0  0  0  0
   28.0606  -20.4417   -7.2320 C   0  0  0  0  0  0  0  0  0  0  0  0
   28.5914  -21.6317   -6.8261 C   0  0  0  0  0  0  0  0  0  0  0  0
   28.9993  -21.5397   -5.5431 N   0  0  0  0  0  0  0  0  0  0  0  0
   28.7326  -20.2834   -5.1139 C   0  0  0  0  0  0  0  0  0  0  0  0
   28.9199  -19.6164   -3.9264 C   0  0  0  0  0  0  0  0  0  0  0  0
   28.5326  -18.2975   -3.7915 C   0  0  0  0  0  0  0  0  0  0  0  0
   27.9460  -17.6086   -4.8456 C   0  0  0  0  0  0  0  0  0  0  0  0
   27.7608  -18.2777   -6.0288 C   0  0  0  0  0  0  0  0  0  0  0  0
   28.1494  -19.5825   -6.1453 C   0  0  0  0  0  0  0  0  0  0  0  0
   25.7834  -21.1819   -9.9297 C   0  0  0  0  0  0  0  0  0  0  0  0
   26.6323  -21.9436  -10.4734 O   0  0  0  0  0  0  0  0  0  0  0  0
   24.5616  -20.8936  -10.5957 N   0  0  0  0  0  0  0  0  0  0  0  0
   24.5040  -20.4056  -11.9330 C   0  0  0  0  0  0  0  0  0  0  0  0
   23.1084  -19.9861  -12.3461 C   0  0  0  0  0  0  0  0  0  0  0  0
   22.4932  -19.1868  -11.5637 O   0  0  0  0  0  0  0  0  0  0  0  0
   19.6344  -18.2650  -15.5443 N   0  0  0  0  0  0  0  0  0  0  0  0
   20.1188  -19.4088  -16.2185 C   0  0  0  0  0  0  0  0  0  0  0  0
   19.8181  -19.5761  -17.4248 O   0  0  0  0  0  0  0  0  0  0  0  0
   20.9499  -20.3576  -15.4936 C   0  0  0  0  0  0  0  0  0  0  0  0
   21.2007  -20.0510  -14.0450 C   0  0  2  0  0  0  0  0  0  0  0  0
   22.4771  -20.4208  -13.5068 N   0  0  0  0  0  0  0  0  0  0  0  0
   20.0929  -20.4903  -13.1963 C   0  0  0  0  0  0  0  0  0  0  0  0
   19.2152  -19.5949  -12.5847 O   0  0  0  0  0  0  0  0  0  0  0  0
   19.8719  -21.7168  -12.9710 O   0  0  0  0  0  0  0  0  0  0  0  0
  2  1  1  1
  3  4  1  0
  3  2  1  0
  4  5  2  0
  5  6  1  0
  7  6  1  0
  8  7  2  0
  9  8  1  0
 10 11  1  0
 10  9  2  0
 11 12  2  0
 12  4  1  0
 12  7  1  0
 13  2  1  0
 13 15  1  0
 14 13  2  0
 16 15  1  0
 17 16  1  0
 18 17  2  0
 19 20  1  0
 20 21  2  0
 22 20  1  0
 23 24  1  0
 23 22  1  6
 24 17  1  0
 25 23  1  0
 26 25  1  0
 27 25  2  0
M  END
$$$$
