WGN.pdb
     RDKit          3D

 27 28  0  0  1  0  0  0  0  0999 V2000
   25.0187  -20.7169  -10.0136 N   0  0  0  0  0  0  0  0  0  0  0  0
   26.3725  -20.1897  -10.0317 C   0  0  1  0  0  0  0  0  0  0  0  0
   27.2463  -20.9921   -9.0863 C   0  0  0  0  0  0  0  0  0  0  0  0
   26.8444  -20.6573   -7.6875 C   0  0  0  0  0  0  0  0  0  0  0  0
   25.6192  -20.8687   -7.1246 C   0  0  0  0  0  0  0  0  0  0  0  0
   25.6195  -20.4363   -5.8464 N   0  0  0  0  0  0  0  0  0  0  0  0
   26.8512  -19.9420   -5.5776 C   0  0  0  0  0  0  0  0  0  0  0  0
   27.4361  -19.3766   -4.4693 C   0  0  0  0  0  0  0  0  0  0  0  0
   28.7519  -18.9582   -4.5043 C   0  0  0  0  0  0  0  0  0  0  0  0
   29.5201  -19.0955   -5.6537 C   0  0  0  0  0  0  0  0  0  0  0  0
   28.9328  -19.6600   -6.7575 C   0  0  0  0  0  0  0  0  0  0  0  0
   27.6298  -20.0684   -6.7059 C   0  0  0  0  0  0  0  0  0  0  0  0
   26.9614  -20.3519  -11.3981 C   0  0  0  0  0  0  0  0  0  0  0  0
   26.6463  -21.3304  -12.1326 O   0  0  0  0  0  0  0  0  0  0  0  0
   27.8892  -19.3835  -11.8682 N   0  0  0  0  0  0  0  0  0  0  0  0
   28.4934  -19.4502  -13.1566 C   0  0  0  0  0  0  0  0  0  0  0  0
   27.5133  -19.8326  -14.2465 C   0  0  0  0  0  0  0  0  0  0  0  0
   27.1139  -18.8951  -15.0151 O   0  0  0  0  0  0  0  0  0  0  0  0
   26.4200  -23.7913  -18.1857 N   0  0  0  0  0  0  0  0  0  0  0  0
   25.7379  -23.6795  -16.9528 C   0  0  0  0  0  0  0  0  0  0  0  0
   24.5380  -24.0392  -16.8873 O   0  0  0  0  0  0  0  0  0  0  0  0
   26.4470  -23.1501  -15.7981 C   0  0  0  0  0  0  0  0  0  0  0  0
   26.3236  -21.6721  -15.5619 C   0  0  2  0  0  0  0  0  0  0  0  0
   27.0356  -21.1238  -14.4448 N   0  0  0  0  0  0  0  0  0  0  0  0
   24.9297  -21.2293  -15.6024 C   0  0  0  0  0  0  0  0  0  0  0  0
   24.2281  -21.0673  -16.7973 O   0  0  0  0  0  0  0  0  0  0  0  0
   24.2827  -20.9677  -14.5455 O   0  0  0  0  0  0  0  0  0  0  0  0
  2  1  1  6
  3  4  1  0
  3  2  1  0
  4  5  2  0
  5  6  1  0
  7  6  1  0
  8  7  2  0
  9  8  1  0
 10 11  1  0
 10  9  2  0
 11 12  2  0
 12  4  1  0
 12  7  1  0
 13  2  1  0
 13 15  1  0
 14 13  2  0
 16 15  1  0
 17 16  1  0
 18 17  2  0
 19 20  1  0
 20 21  2  0
 22 20  1  0
 23 24  1  0
 23 22  1  1
 24 17  1  0
 25 23  1  0
 26 25  1  0
 27 25  2  0
M  END
$$$$
