WGN.pdb
     RDKit          3D

 27 28  0  0  1  0  0  0  0  0999 V2000
   18.8617  -22.1785  -11.2365 N   0  0  0  0  0  0  0  0  0  0  0  0
   18.5055  -23.4920  -10.7277 C   0  0  1  0  0  0  0  0  0  0  0  0
   19.1871  -24.5637  -11.5573 C   0  0  0  0  0  0  0  0  0  0  0  0
   18.7458  -24.4027  -12.9749 C   0  0  0  0  0  0  0  0  0  0  0  0
   19.2716  -23.5413  -13.8936 C   0  0  0  0  0  0  0  0  0  0  0  0
   18.6189  -23.6667  -15.0680 N   0  0  0  0  0  0  0  0  0  0  0  0
   17.6648  -24.6147  -14.9114 C   0  0  0  0  0  0  0  0  0  0  0  0
   16.7121  -25.1614  -15.7381 C   0  0  0  0  0  0  0  0  0  0  0  0
   15.8578  -26.1428  -15.2748 C   0  0  0  0  0  0  0  0  0  0  0  0
   15.9351  -26.6051  -13.9670 C   0  0  0  0  0  0  0  0  0  0  0  0
   16.8870  -26.0570  -13.1452 C   0  0  0  0  0  0  0  0  0  0  0  0
   17.7241  -25.0867  -13.6195 C   0  0  0  0  0  0  0  0  0  0  0  0
   19.0132  -23.6484   -9.3285 C   0  0  0  0  0  0  0  0  0  0  0  0
   20.0275  -23.0108   -8.9271 O   0  0  0  0  0  0  0  0  0  0  0  0
   18.3359  -24.5309   -8.4441 N   0  0  0  0  0  0  0  0  0  0  0  0
   18.5686  -24.5495   -7.0388 C   0  0  0  0  0  0  0  0  0  0  0  0
   17.6535  -25.5072   -6.3040 C   0  0  0  0  0  0  0  0  0  0  0  0
   16.7792  -26.1186   -7.0049 O   0  0  0  0  0  0  0  0  0  0  0  0
   19.6480  -26.5415   -1.8530 N   0  0  0  0  0  0  0  0  0  0  0  0
   18.7108  -27.3300   -2.5584 C   0  0  0  0  0  0  0  0  0  0  0  0
   19.0789  -28.4302   -3.0354 O   0  0  0  0  0  0  0  0  0  0  0  0
   17.3487  -26.8420   -2.7107 C   0  0  0  0  0  0  0  0  0  0  0  0
   16.8881  -26.5836   -4.1166 C   0  0  2  0  0  0  0  0  0  0  0  0
   17.7148  -25.7457   -4.9351 N   0  0  0  0  0  0  0  0  0  0  0  0
   15.4800  -26.1890   -4.1637 C   0  0  0  0  0  0  0  0  0  0  0  0
   14.4388  -27.1163   -4.1173 O   0  0  0  0  0  0  0  0  0  0  0  0
   15.1309  -24.9747   -4.2502 O   0  0  0  0  0  0  0  0  0  0  0  0
  2  1  1  6
  3  4  1  0
  3  2  1  0
  4  5  2  0
  5  6  1  0
  7  6  1  0
  8  7  2  0
  9  8  1  0
 10 11  1  0
 10  9  2  0
 11 12  2  0
 12  4  1  0
 12  7  1  0
 13  2  1  0
 13 15  1  0
 14 13  2  0
 16 15  1  0
 17 16  1  0
 18 17  2  0
 19 20  1  0
 20 21  2  0
 22 20  1  0
 23 24  1  0
 23 22  1  1
 24 17  1  0
 25 23  1  0
 26 25  1  0
 27 25  2  0
M  END
$$$$
