WGN.pdb
     RDKit          3D

 27 28  0  0  1  0  0  0  0  0999 V2000
   25.3116  -20.9094  -11.9565 N   0  0  0  0  0  0  0  0  0  0  0  0
   26.7070  -20.5361  -11.7999 C   0  0  1  0  0  0  0  0  0  0  0  0
   27.3675  -21.4432  -10.7790 C   0  0  0  0  0  0  0  0  0  0  0  0
   26.7694  -21.1492   -9.4425 C   0  0  0  0  0  0  0  0  0  0  0  0
   25.4436  -21.1934   -9.1215 C   0  0  0  0  0  0  0  0  0  0  0  0
   25.2732  -20.8618   -7.8246 N   0  0  0  0  0  0  0  0  0  0  0  0
   26.4944  -20.6016   -7.3007 C   0  0  0  0  0  0  0  0  0  0  0  0
   26.9432  -20.2247   -6.0570 C   0  0  0  0  0  0  0  0  0  0  0  0
   28.2907  -20.0308   -5.8242 C   0  0  0  0  0  0  0  0  0  0  0  0
   29.2282  -20.2102   -6.8335 C   0  0  0  0  0  0  0  0  0  0  0  0
   28.7764  -20.5862   -8.0730 C   0  0  0  0  0  0  0  0  0  0  0  0
   27.4398  -20.7735   -8.2865 C   0  0  0  0  0  0  0  0  0  0  0  0
   27.4355  -20.7449  -13.0906 C   0  0  0  0  0  0  0  0  0  0  0  0
   28.5765  -20.2383  -13.2854 O   0  0  0  0  0  0  0  0  0  0  0  0
   26.8254  -21.5278  -14.1076 N   0  0  0  0  0  0  0  0  0  0  0  0
   26.7658  -21.1178  -15.4707 C   0  0  0  0  0  0  0  0  0  0  0  0
   25.4617  -20.4318  -15.8218 C   0  0  0  0  0  0  0  0  0  0  0  0
   25.4621  -19.6957  -16.8646 O   0  0  0  0  0  0  0  0  0  0  0  0
   20.6183  -22.3455  -16.2287 N   0  0  0  0  0  0  0  0  0  0  0  0
   21.8013  -23.0784  -16.4759 C   0  0  0  0  0  0  0  0  0  0  0  0
   21.7192  -24.1868  -17.0575 O   0  0  0  0  0  0  0  0  0  0  0  0
   23.0773  -22.5262  -16.0478 C   0  0  0  0  0  0  0  0  0  0  0  0
   23.0386  -21.1508  -15.4460 C   0  0  2  0  0  0  0  0  0  0  0  0
   24.2919  -20.5585  -15.0800 N   0  0  0  0  0  0  0  0  0  0  0  0
   22.0457  -21.0530  -14.3759 C   0  0  0  0  0  0  0  0  0  0  0  0
   22.3657  -20.6062  -13.0937 O   0  0  0  0  0  0  0  0  0  0  0  0
   20.8339  -21.3721  -14.5600 O   0  0  0  0  0  0  0  0  0  0  0  0
  2  1  1  6
  3  4  1  0
  3  2  1  0
  4  5  2  0
  5  6  1  0
  7  6  1  0
  8  7  2  0
  9  8  1  0
 10 11  1  0
 10  9  2  0
 11 12  2  0
 12  4  1  0
 12  7  1  0
 13  2  1  0
 13 15  1  0
 14 13  2  0
 16 15  1  0
 17 16  1  0
 18 17  2  0
 19 20  1  0
 20 21  2  0
 22 20  1  0
 23 24  1  0
 23 22  1  1
 24 17  1  0
 25 23  1  0
 26 25  1  0
 27 25  2  0
M  END
$$$$
