WGN.pdb
     RDKit          3D

 27 28  0  0  1  0  0  0  0  0999 V2000
   25.1950  -20.6639  -14.6407 N   0  0  0  0  0  0  0  0  0  0  0  0
   24.7442  -20.7693  -13.2635 C   0  0  1  0  0  0  0  0  0  0  0  0
   25.4165  -19.7007  -12.4223 C   0  0  0  0  0  0  0  0  0  0  0  0
   26.8886  -19.9511  -12.4454 C   0  0  0  0  0  0  0  0  0  0  0  0
   27.7444  -19.6538  -13.4661 C   0  0  0  0  0  0  0  0  0  0  0  0
   28.9990  -20.0271  -13.1379 N   0  0  0  0  0  0  0  0  0  0  0  0
   28.9578  -20.5689  -11.8976 C   0  0  0  0  0  0  0  0  0  0  0  0
   29.9007  -21.1114  -11.0569 C   0  0  0  0  0  0  0  0  0  0  0  0
   29.5404  -21.5956   -9.8146 C   0  0  0  0  0  0  0  0  0  0  0  0
   28.2221  -21.5490   -9.3789 C   0  0  0  0  0  0  0  0  0  0  0  0
   27.2842  -21.0070  -10.2207 C   0  0  0  0  0  0  0  0  0  0  0  0
   27.6576  -20.5327  -11.4466 C   0  0  0  0  0  0  0  0  0  0  0  0
   23.2726  -20.5066  -13.1904 C   0  0  0  0  0  0  0  0  0  0  0  0
   22.7925  -19.3857  -13.5212 O   0  0  0  0  0  0  0  0  0  0  0  0
   22.4092  -21.5417  -12.7403 N   0  0  0  0  0  0  0  0  0  0  0  0
   21.0238  -21.3369  -12.4791 C   0  0  0  0  0  0  0  0  0  0  0  0
   20.3096  -22.6068  -12.0646 C   0  0  0  0  0  0  0  0  0  0  0  0
   20.3963  -23.6009  -12.8606 O   0  0  0  0  0  0  0  0  0  0  0  0
   19.8447  -23.3535   -7.2270 N   0  0  0  0  0  0  0  0  0  0  0  0
   19.4099  -24.2585   -8.2217 C   0  0  0  0  0  0  0  0  0  0  0  0
   20.0032  -25.3569   -8.3452 O   0  0  0  0  0  0  0  0  0  0  0  0
   18.2890  -23.8891   -9.0724 C   0  0  0  0  0  0  0  0  0  0  0  0
   18.5912  -23.7166  -10.5333 C   0  0  2  0  0  0  0  0  0  0  0  0
   19.5784  -22.7396  -10.8889 N   0  0  0  0  0  0  0  0  0  0  0  0
   17.3707  -23.5869  -11.3296 C   0  0  0  0  0  0  0  0  0  0  0  0
   16.9946  -22.3885  -11.9367 O   0  0  0  0  0  0  0  0  0  0  0  0
   16.5858  -24.5643  -11.5101 O   0  0  0  0  0  0  0  0  0  0  0  0
  2  1  1  6
  3  4  1  0
  3  2  1  0
  4  5  2  0
  5  6  1  0
  7  6  1  0
  8  7  2  0
  9  8  1  0
 10 11  1  0
 10  9  2  0
 11 12  2  0
 12  4  1  0
 12  7  1  0
 13  2  1  0
 13 15  1  0
 14 13  2  0
 16 15  1  0
 17 16  1  0
 18 17  2  0
 19 20  1  0
 20 21  2  0
 22 20  1  0
 23 24  1  0
 23 22  1  1
 24 17  1  0
 25 23  1  0
 26 25  1  0
 27 25  2  0
M  END
$$$$
