WGN.pdb
     RDKit          3D

 27 28  0  0  1  0  0  0  0  0999 V2000
   26.9644  -22.0485  -10.4776 N   0  0  0  0  0  0  0  0  0  0  0  0
   26.0926  -21.0973   -9.8097 C   0  0  1  0  0  0  0  0  0  0  0  0
   26.8685  -19.8357   -9.4815 C   0  0  0  0  0  0  0  0  0  0  0  0
   28.0376  -20.2181   -8.6347 C   0  0  0  0  0  0  0  0  0  0  0  0
   29.0953  -20.9916   -9.0165 C   0  0  0  0  0  0  0  0  0  0  0  0
   29.9580  -21.1311   -7.9882 N   0  0  0  0  0  0  0  0  0  0  0  0
   29.4583  -20.4444   -6.9336 C   0  0  0  0  0  0  0  0  0  0  0  0
   29.8834  -20.2247   -5.6447 C   0  0  0  0  0  0  0  0  0  0  0  0
   29.1325  -19.4555   -4.7775 C   0  0  0  0  0  0  0  0  0  0  0  0
   27.9320  -18.8832   -5.1790 C   0  0  0  0  0  0  0  0  0  0  0  0
   27.5112  -19.1048   -6.4658 C   0  0  0  0  0  0  0  0  0  0  0  0
   28.2661  -19.8685   -7.3107 C   0  0  0  0  0  0  0  0  0  0  0  0
   24.9861  -20.6899  -10.7315 C   0  0  0  0  0  0  0  0  0  0  0  0
   24.9492  -21.0973  -11.9269 O   0  0  0  0  0  0  0  0  0  0  0  0
   23.9644  -19.8305  -10.2444 N   0  0  0  0  0  0  0  0  0  0  0  0
   22.6960  -20.3062   -9.8037 C   0  0  0  0  0  0  0  0  0  0  0  0
   22.0186  -21.2022  -10.8200 C   0  0  0  0  0  0  0  0  0  0  0  0
   22.7808  -21.8653  -11.6001 O   0  0  0  0  0  0  0  0  0  0  0  0
   19.5063  -24.9803   -8.3214 N   0  0  0  0  0  0  0  0  0  0  0  0
   18.8949  -23.7270   -8.5520 C   0  0  0  0  0  0  0  0  0  0  0  0
   17.6595  -23.6105   -8.3683 O   0  0  0  0  0  0  0  0  0  0  0  0
   19.7159  -22.6111   -8.9962 C   0  0  0  0  0  0  0  0  0  0  0  0
   19.7757  -22.3780  -10.4786 C   0  0  2  0  0  0  0  0  0  0  0  0
   20.6394  -21.3329  -10.9447 N   0  0  0  0  0  0  0  0  0  0  0  0
   18.4403  -22.2992  -11.0712 C   0  0  0  0  0  0  0  0  0  0  0  0
   17.7355  -23.4293  -11.4861 O   0  0  0  0  0  0  0  0  0  0  0  0
   17.8504  -21.1912  -11.2396 O   0  0  0  0  0  0  0  0  0  0  0  0
  2  1  1  6
  3  4  1  0
  3  2  1  0
  4  5  2  0
  5  6  1  0
  7  6  1  0
  8  7  2  0
  9  8  1  0
 10 11  1  0
 10  9  2  0
 11 12  2  0
 12  4  1  0
 12  7  1  0
 13  2  1  0
 13 15  1  0
 14 13  2  0
 16 15  1  0
 17 16  1  0
 18 17  2  0
 19 20  1  0
 20 21  2  0
 22 20  1  0
 23 24  1  0
 23 22  1  1
 24 17  1  0
 25 23  1  0
 26 25  1  0
 27 25  2  0
M  END
$$$$
