WGN.pdb
     RDKit          3D

 27 28  0  0  1  0  0  0  0  0999 V2000
   27.2463  -22.6651  -11.7703 N   0  0  0  0  0  0  0  0  0  0  0  0
   26.3658  -21.5132  -11.6757 C   0  0  1  0  0  0  0  0  0  0  0  0
   27.1774  -20.2750  -11.3447 C   0  0  0  0  0  0  0  0  0  0  0  0
   28.0667  -20.5993  -10.1896 C   0  0  0  0  0  0  0  0  0  0  0  0
   29.2639  -21.2519  -10.2479 C   0  0  0  0  0  0  0  0  0  0  0  0
   29.7828  -21.3725   -9.0080 N   0  0  0  0  0  0  0  0  0  0  0  0
   28.9186  -20.7947   -8.1404 C   0  0  0  0  0  0  0  0  0  0  0  0
   28.9070  -20.6121   -6.7778 C   0  0  0  0  0  0  0  0  0  0  0  0
   27.8532  -19.9640   -6.1636 C   0  0  0  0  0  0  0  0  0  0  0  0
   26.7794  -19.4793   -6.8997 C   0  0  0  0  0  0  0  0  0  0  0  0
   26.7946  -19.6635   -8.2590 C   0  0  0  0  0  0  0  0  0  0  0  0
   27.8449  -20.3071   -8.8507 C   0  0  0  0  0  0  0  0  0  0  0  0
   25.7204  -21.2583  -13.0019 C   0  0  0  0  0  0  0  0  0  0  0  0
   26.4149  -21.0343  -14.0333 O   0  0  0  0  0  0  0  0  0  0  0  0
   24.3023  -21.2708  -13.0920 N   0  0  0  0  0  0  0  0  0  0  0  0
   23.6038  -21.6601  -14.2710 C   0  0  0  0  0  0  0  0  0  0  0  0
   22.1043  -21.7331  -14.0690 C   0  0  0  0  0  0  0  0  0  0  0  0
   21.4118  -22.1587  -15.0532 O   0  0  0  0  0  0  0  0  0  0  0  0
   18.2306  -19.1537  -10.2980 N   0  0  0  0  0  0  0  0  0  0  0  0
   19.1702  -18.7804  -11.2857 C   0  0  0  0  0  0  0  0  0  0  0  0
   18.9629  -17.7436  -11.9607 O   0  0  0  0  0  0  0  0  0  0  0  0
   20.3479  -19.6096  -11.4903 C   0  0  0  0  0  0  0  0  0  0  0  0
   20.3345  -20.4965  -12.7023 C   0  0  2  0  0  0  0  0  0  0  0  0
   21.4592  -21.3649  -12.8930 N   0  0  0  0  0  0  0  0  0  0  0  0
   19.9956  -19.7534  -13.9162 C   0  0  0  0  0  0  0  0  0  0  0  0
   18.7475  -19.8507  -14.5319 O   0  0  0  0  0  0  0  0  0  0  0  0
   20.8252  -18.9771  -14.4757 O   0  0  0  0  0  0  0  0  0  0  0  0
  2  1  1  6
  3  4  1  0
  3  2  1  0
  4  5  2  0
  5  6  1  0
  7  6  1  0
  8  7  2  0
  9  8  1  0
 10 11  1  0
 10  9  2  0
 11 12  2  0
 12  4  1  0
 12  7  1  0
 13  2  1  0
 13 15  1  0
 14 13  2  0
 16 15  1  0
 17 16  1  0
 18 17  2  0
 19 20  1  0
 20 21  2  0
 22 20  1  0
 23 24  1  0
 23 22  1  1
 24 17  1  0
 25 23  1  0
 26 25  1  0
 27 25  2  0
M  END
$$$$
