AME.pdb
     RDKit          3D

 23 22  0  0  1  0  0  0  0  0999 V2000
   28.8307  -19.3949  -14.8360 C   0  0  0  0  0  0  0  0  0  0  0  0
   27.3946  -18.9991  -14.9202 C   0  0  2  0  0  0  0  0  0  0  0  0
   27.1875  -17.7155  -14.2419 N   0  0  0  0  0  0  0  0  0  0  0  0
   26.5468  -20.0490  -14.3023 C   0  0  0  0  0  0  0  0  0  0  0  0
   26.5753  -21.2034  -14.7605 O   0  0  0  0  0  0  0  0  0  0  0  0
   26.3426  -19.4847   -8.2816 C   0  0  0  0  0  0  0  0  0  0  0  0
   26.7497  -21.1260   -8.9051 S   0  0  0  0  0  0  0  0  0  0  0  0
   26.5089  -21.1477  -10.7028 C   0  0  0  0  0  0  0  0  0  0  0  0
   25.0996  -20.7515  -11.0671 C   0  0  0  0  0  0  0  0  0  0  0  0
   24.8763  -20.7399  -12.5433 C   0  0  2  0  0  0  0  0  0  0  0  0
   25.7169  -19.7488  -13.2083 N   0  0  0  0  0  0  0  0  0  0  0  0
   23.4837  -20.5779  -12.9707 C   0  0  0  0  0  0  0  0  0  0  0  0
   22.8969  -19.4571  -13.0290 O   0  0  0  0  0  0  0  0  0  0  0  0
   22.7331  -21.7179  -13.3426 N   0  0  0  0  0  0  0  0  0  0  0  0
   21.3279  -21.6749  -13.7512 C   0  0  1  0  0  0  0  0  0  0  0  0
   20.4041  -22.1624  -12.7190 C   0  0  0  0  0  0  0  0  0  0  0  0
   18.9530  -22.1630  -12.9258 C   0  0  0  0  0  0  0  0  0  0  0  0
   18.1893  -23.3630  -12.6118 C   0  0  0  0  0  0  0  0  0  0  0  0
   18.6494  -24.2327  -11.8434 O   0  0  0  0  0  0  0  0  0  0  0  0
   21.0027  -20.4300  -14.4508 C   0  0  0  0  0  0  0  0  0  0  0  0
   20.6889  -20.3152  -15.7922 O   0  0  0  0  0  0  0  0  0  0  0  0
   16.9292  -23.6072  -13.1364 O   0  0  0  0  0  0  0  0  0  0  0  0
   21.0030  -19.3604  -13.7922 O   0  0  0  0  0  0  0  0  0  0  0  0
  2  1  1  1
  2  3  1  0
  4  5  2  0
  4  2  1  0
  7  8  1  0
  7  6  1  0
  8  9  1  0
 10  9  1  1
 10 11  1  0
 11  4  1  0
 12 10  1  0
 12 14  1  0
 13 12  2  0
 15 14  1  0
 15 20  1  0
 16 17  1  0
 15 16  1  1
 18 22  1  0
 18 17  1  0
 19 18  2  0
 20 21  1  0
 23 20  2  0
M  END
$$$$
