AME.pdb
     RDKit          3D

 23 22  0  0  1  0  0  0  0  0999 V2000
   21.4868  -12.8313  -18.6214 C   0  0  0  0  0  0  0  0  0  0  0  0
   21.9858  -11.4716  -18.9800 C   0  0  2  0  0  0  0  0  0  0  0  0
   23.1216  -11.5810  -19.9012 N   0  0  0  0  0  0  0  0  0  0  0  0
   22.3898  -10.7441  -17.7509 C   0  0  0  0  0  0  0  0  0  0  0  0
   21.5519  -10.5496  -16.8546 O   0  0  0  0  0  0  0  0  0  0  0  0
   27.8661  -13.3262  -15.1961 C   0  0  0  0  0  0  0  0  0  0  0  0
   27.6296  -11.5812  -15.5799 S   0  0  0  0  0  0  0  0  0  0  0  0
   25.8666  -11.2802  -15.8828 C   0  0  0  0  0  0  0  0  0  0  0  0
   25.5983   -9.8146  -16.1188 C   0  0  0  0  0  0  0  0  0  0  0  0
   24.1615   -9.5411  -16.4184 C   0  0  2  0  0  0  0  0  0  0  0  0
   23.7061  -10.2766  -17.5943 N   0  0  0  0  0  0  0  0  0  0  0  0
   23.8006   -8.1264  -16.5463 C   0  0  0  0  0  0  0  0  0  0  0  0
   23.9033   -7.4743  -17.6272 O   0  0  0  0  0  0  0  0  0  0  0  0
   23.3095   -7.4289  -15.4177 N   0  0  0  0  0  0  0  0  0  0  0  0
   22.7546   -6.0751  -15.4700 C   0  0  1  0  0  0  0  0  0  0  0  0
   21.8861   -5.8440  -16.6313 C   0  0  0  0  0  0  0  0  0  0  0  0
   21.1606   -4.5828  -16.8085 C   0  0  0  0  0  0  0  0  0  0  0  0
   20.2918   -4.4173  -17.9659 C   0  0  0  0  0  0  0  0  0  0  0  0
   20.1881   -5.3187  -18.8234 O   0  0  0  0  0  0  0  0  0  0  0  0
   22.2989   -5.6228  -14.1536 C   0  0  0  0  0  0  0  0  0  0  0  0
   22.2307   -4.3088  -13.7297 O   0  0  0  0  0  0  0  0  0  0  0  0
   19.5414   -3.2714  -18.1812 O   0  0  0  0  0  0  0  0  0  0  0  0
   21.9332   -6.4893  -13.3210 O   0  0  0  0  0  0  0  0  0  0  0  0
  2  1  1  1
  2  3  1  0
  4  5  2  0
  4  2  1  0
  7  8  1  0
  7  6  1  0
  8  9  1  0
 10  9  1  6
 10 11  1  0
 11  4  1  0
 12 10  1  0
 12 14  1  0
 13 12  2  0
 15 14  1  0
 15 20  1  0
 16 17  1  0
 15 16  1  6
 18 22  1  0
 18 17  1  0
 19 18  2  0
 20 21  1  0
 23 20  2  0
M  END
$$$$
