AME.pdb
     RDKit          3D

 23 22  0  0  1  0  0  0  0  0999 V2000
   18.2650  -11.4501  -18.1593 C   0  0  0  0  0  0  0  0  0  0  0  0
   19.0146  -10.2041  -18.4934 C   0  0  2  0  0  0  0  0  0  0  0  0
   19.6346  -10.3311  -19.8163 N   0  0  0  0  0  0  0  0  0  0  0  0
   20.0517   -9.9497  -17.4625 C   0  0  0  0  0  0  0  0  0  0  0  0
   19.7043   -9.7184  -16.2924 O   0  0  0  0  0  0  0  0  0  0  0  0
   27.4051  -10.9491  -14.9832 C   0  0  0  0  0  0  0  0  0  0  0  0
   26.2033  -11.2659  -16.2884 S   0  0  0  0  0  0  0  0  0  0  0  0
   24.7524  -10.2109  -16.0196 C   0  0  0  0  0  0  0  0  0  0  0  0
   23.6893  -10.4743  -17.0569 C   0  0  0  0  0  0  0  0  0  0  0  0
   22.4788   -9.6233  -16.8585 C   0  0  2  0  0  0  0  0  0  0  0  0
   21.4164   -9.9688  -17.7984 N   0  0  0  0  0  0  0  0  0  0  0  0
   22.7123   -8.1765  -16.8823 C   0  0  0  0  0  0  0  0  0  0  0  0
   23.0062   -7.5337  -17.9332 O   0  0  0  0  0  0  0  0  0  0  0  0
   22.6107   -7.4357  -15.6814 N   0  0  0  0  0  0  0  0  0  0  0  0
   22.3364   -5.9986  -15.6271 C   0  0  1  0  0  0  0  0  0  0  0  0
   21.3824   -5.5469  -16.6480 C   0  0  0  0  0  0  0  0  0  0  0  0
   21.7984   -4.6899  -17.7620 C   0  0  0  0  0  0  0  0  0  0  0  0
   20.8199   -3.8124  -18.3897 C   0  0  0  0  0  0  0  0  0  0  0  0
   19.6439   -3.7623  -17.9736 O   0  0  0  0  0  0  0  0  0  0  0  0
   22.1635   -5.5294  -14.2505 C   0  0  0  0  0  0  0  0  0  0  0  0
   22.6673   -4.3526  -13.7287 O   0  0  0  0  0  0  0  0  0  0  0  0
   21.1289   -2.9949  -19.4662 O   0  0  0  0  0  0  0  0  0  0  0  0
   21.5023   -6.2445  -13.4573 O   0  0  0  0  0  0  0  0  0  0  0  0
  2  1  1  1
  2  3  1  0
  4  5  2  0
  4  2  1  0
  7  8  1  0
  7  6  1  0
  8  9  1  0
 10  9  1  6
 10 11  1  0
 11  4  1  0
 12 10  1  0
 12 14  1  0
 13 12  2  0
 15 14  1  0
 15 20  1  0
 16 17  1  0
 15 16  1  6
 18 22  1  0
 18 17  1  0
 19 18  2  0
 20 21  1  0
 23 20  2  0
M  END
$$$$
