AME.pdb
     RDKit          3D

 23 22  0  0  1  0  0  0  0  0999 V2000
   14.2108  -13.0744  -14.6238 C   0  0  0  0  0  0  0  0  0  0  0  0
   15.3399  -12.5946  -13.7747 C   0  0  2  0  0  0  0  0  0  0  0  0
   15.7600  -13.6548  -12.8527 N   0  0  0  0  0  0  0  0  0  0  0  0
   14.9212  -11.3900  -13.0153 C   0  0  0  0  0  0  0  0  0  0  0  0
   14.6100  -10.3578  -13.6327 O   0  0  0  0  0  0  0  0  0  0  0  0
    9.4588  -11.7931   -9.0846 C   0  0  0  0  0  0  0  0  0  0  0  0
   11.1654  -11.5213   -8.5730 S   0  0  0  0  0  0  0  0  0  0  0  0
   12.1101  -10.8936   -9.9885 C   0  0  0  0  0  0  0  0  0  0  0  0
   13.5731  -10.7561   -9.6476 C   0  0  0  0  0  0  0  0  0  0  0  0
   14.3859  -10.2896  -10.8097 C   0  0  2  0  0  0  0  0  0  0  0  0
   14.8739  -11.4083  -11.6106 N   0  0  0  0  0  0  0  0  0  0  0  0
   15.4961   -9.3897  -10.4842 C   0  0  0  0  0  0  0  0  0  0  0  0
   16.6047   -9.7882  -10.0190 O   0  0  0  0  0  0  0  0  0  0  0  0
   15.3472   -7.9982  -10.6908 N   0  0  0  0  0  0  0  0  0  0  0  0
   16.4038   -7.0160  -10.4408 C   0  0  1  0  0  0  0  0  0  0  0  0
   16.9751   -6.4473  -11.6682 C   0  0  0  0  0  0  0  0  0  0  0  0
   18.0036   -5.4039  -11.6245 C   0  0  0  0  0  0  0  0  0  0  0  0
   18.5503   -4.8898  -12.8729 C   0  0  0  0  0  0  0  0  0  0  0  0
   19.7427   -4.5281  -12.9496 O   0  0  0  0  0  0  0  0  0  0  0  0
   16.0553   -6.1091   -9.3449 C   0  0  0  0  0  0  0  0  0  0  0  0
   16.9365   -5.5886   -8.4156 O   0  0  0  0  0  0  0  0  0  0  0  0
   17.7945   -4.7735  -14.0297 O   0  0  0  0  0  0  0  0  0  0  0  0
   14.8549   -5.7608   -9.2203 O   0  0  0  0  0  0  0  0  0  0  0  0
  2  1  1  1
  2  3  1  0
  4  5  2  0
  4  2  1  0
  7  8  1  0
  7  6  1  0
  8  9  1  0
 10  9  1  1
 10 11  1  0
 11  4  1  0
 12 10  1  0
 12 14  1  0
 13 12  2  0
 15 14  1  0
 15 20  1  0
 16 17  1  0
 15 16  1  6
 18 22  1  0
 18 17  1  0
 19 18  2  0
 20 21  1  0
 23 20  2  0
M  END
$$$$
