AME.pdb
     RDKit          3D

 23 22  0  0  1  0  0  0  0  0999 V2000
   27.6722  -18.8322  -15.0957 C   0  0  0  0  0  0  0  0  0  0  0  0
   28.1028  -20.1626  -14.5755 C   0  0  2  0  0  0  0  0  0  0  0  0
   28.3996  -21.0657  -15.6922 N   0  0  0  0  0  0  0  0  0  0  0  0
   27.0347  -20.7375  -13.7202 C   0  0  0  0  0  0  0  0  0  0  0  0
   26.2043  -21.5140  -14.2211 O   0  0  0  0  0  0  0  0  0  0  0  0
   27.0377  -19.8359   -7.2962 C   0  0  0  0  0  0  0  0  0  0  0  0
   25.6084  -20.9310   -7.3746 S   0  0  0  0  0  0  0  0  0  0  0  0
   25.1472  -21.1715   -9.1123 C   0  0  0  0  0  0  0  0  0  0  0  0
   26.2439  -20.7019  -10.0356 C   0  0  0  0  0  0  0  0  0  0  0  0
   25.8967  -20.8953  -11.4747 C   0  0  2  0  0  0  0  0  0  0  0  0
   26.9563  -20.4121  -12.3550 N   0  0  0  0  0  0  0  0  0  0  0  0
   24.6083  -20.3369  -11.8947 C   0  0  0  0  0  0  0  0  0  0  0  0
   24.4263  -19.1078  -12.1399 O   0  0  0  0  0  0  0  0  0  0  0  0
   23.4929  -21.1948  -12.0410 N   0  0  0  0  0  0  0  0  0  0  0  0
   22.1687  -20.7482  -12.4775 C   0  0  1  0  0  0  0  0  0  0  0  0
   21.8930  -21.0325  -13.8915 C   0  0  0  0  0  0  0  0  0  0  0  0
   22.6846  -20.4253  -14.9653 C   0  0  0  0  0  0  0  0  0  0  0  0
   22.3950  -20.7754  -16.3492 C   0  0  0  0  0  0  0  0  0  0  0  0
   21.4914  -21.5903  -16.6285 O   0  0  0  0  0  0  0  0  0  0  0  0
   21.1360  -21.0583  -11.4864 C   0  0  0  0  0  0  0  0  0  0  0  0
   21.3258  -21.7724  -10.3180 O   0  0  0  0  0  0  0  0  0  0  0  0
   23.0912  -20.2351  -17.4198 O   0  0  0  0  0  0  0  0  0  0  0  0
   19.9674  -20.6486  -11.6972 O   0  0  0  0  0  0  0  0  0  0  0  0
  2  1  1  6
  2  3  1  0
  4  5  2  0
  4  2  1  0
  7  8  1  0
  7  6  1  0
  8  9  1  0
 10  9  1  1
 10 11  1  0
 11  4  1  0
 12 10  1  0
 12 14  1  0
 13 12  2  0
 15 14  1  0
 15 20  1  0
 16 17  1  0
 15 16  1  6
 18 22  1  0
 18 17  1  0
 19 18  2  0
 20 21  1  0
 23 20  2  0
M  END
$$$$
