AME.pdb
     RDKit          3D

 23 22  0  0  1  0  0  0  0  0999 V2000
   17.5623   -8.2983  -15.7865 C   0  0  0  0  0  0  0  0  0  0  0  0
   17.6682   -9.4278  -14.8174 C   0  0  2  0  0  0  0  0  0  0  0  0
   17.2156  -10.6727  -15.4466 N   0  0  0  0  0  0  0  0  0  0  0  0
   16.8517   -9.1349  -13.6130 C   0  0  0  0  0  0  0  0  0  0  0  0
   15.6862   -8.7275  -13.7509 O   0  0  0  0  0  0  0  0  0  0  0  0
   15.5504  -14.4676  -10.4161 C   0  0  0  0  0  0  0  0  0  0  0  0
   16.2053  -12.9887   -9.6209 S   0  0  0  0  0  0  0  0  0  0  0  0
   16.1392  -11.6105  -10.7984 C   0  0  0  0  0  0  0  0  0  0  0  0
   16.7516  -10.3636  -10.2104 C   0  0  0  0  0  0  0  0  0  0  0  0
   16.5950   -9.1780  -11.1042 C   0  0  2  0  0  0  0  0  0  0  0  0
   17.3844   -9.3144  -12.3246 N   0  0  0  0  0  0  0  0  0  0  0  0
   16.8619   -7.8779  -10.4823 C   0  0  0  0  0  0  0  0  0  0  0  0
   17.9060   -7.1972  -10.7073 O   0  0  0  0  0  0  0  0  0  0  0  0
   15.9198   -7.3324   -9.5789 N   0  0  0  0  0  0  0  0  0  0  0  0
   15.9209   -5.9359   -9.1394 C   0  0  1  0  0  0  0  0  0  0  0  0
   16.2949   -4.9902  -10.1987 C   0  0  0  0  0  0  0  0  0  0  0  0
   16.3199   -3.5438   -9.9630 C   0  0  0  0  0  0  0  0  0  0  0  0
   16.5043   -2.6412  -11.0912 C   0  0  0  0  0  0  0  0  0  0  0  0
   16.6243   -3.0832  -12.2526 O   0  0  0  0  0  0  0  0  0  0  0  0
   14.7582   -5.6276   -8.3039 C   0  0  0  0  0  0  0  0  0  0  0  0
   13.6671   -6.4520   -8.1016 O   0  0  0  0  0  0  0  0  0  0  0  0
   16.5560   -1.2630  -10.9470 O   0  0  0  0  0  0  0  0  0  0  0  0
   14.7297   -4.5214   -7.7094 O   0  0  0  0  0  0  0  0  0  0  0  0
  2  1  1  6
  2  3  1  0
  4  5  2  0
  4  2  1  0
  7  8  1  0
  7  6  1  0
  8  9  1  0
 10  9  1  1
 10 11  1  0
 11  4  1  0
 12 10  1  0
 12 14  1  0
 13 12  2  0
 15 14  1  0
 15 20  1  0
 16 17  1  0
 15 16  1  6
 18 22  1  0
 18 17  1  0
 19 18  2  0
 20 21  1  0
 23 20  2  0
M  END
$$$$
