AME.pdb
     RDKit          3D

 23 22  0  0  1  0  0  0  0  0999 V2000
   20.4188  -15.4062  -17.4136 C   0  0  0  0  0  0  0  0  0  0  0  0
   20.8009  -14.1322  -18.0896 C   0  0  2  0  0  0  0  0  0  0  0  0
   21.8491  -14.3862  -19.0832 N   0  0  0  0  0  0  0  0  0  0  0  0
   21.2755  -13.1513  -17.0818 C   0  0  0  0  0  0  0  0  0  0  0  0
   20.5305  -12.8374  -16.1385 O   0  0  0  0  0  0  0  0  0  0  0  0
   27.4891  -14.4255  -14.8407 C   0  0  0  0  0  0  0  0  0  0  0  0
   26.9100  -12.9279  -15.6594 S   0  0  0  0  0  0  0  0  0  0  0  0
   25.0973  -12.8923  -15.6050 C   0  0  0  0  0  0  0  0  0  0  0  0
   24.5614  -11.6070  -16.1852 C   0  0  0  0  0  0  0  0  0  0  0  0
   23.0697  -11.5888  -16.2441 C   0  0  2  0  0  0  0  0  0  0  0  0
   22.5548  -12.5782  -17.1860 N   0  0  0  0  0  0  0  0  0  0  0  0
   22.4637  -10.2821  -16.5150 C   0  0  0  0  0  0  0  0  0  0  0  0
   22.4988   -9.7173  -17.6481 O   0  0  0  0  0  0  0  0  0  0  0  0
   21.7988   -9.5941  -15.4729 N   0  0  0  0  0  0  0  0  0  0  0  0
   21.1569   -8.2881  -15.6337 C   0  0  1  0  0  0  0  0  0  0  0  0
   19.7306   -8.3757  -15.9719 C   0  0  0  0  0  0  0  0  0  0  0  0
   18.9153   -7.1752  -16.1779 C   0  0  0  0  0  0  0  0  0  0  0  0
   17.5026   -7.3205  -16.5016 C   0  0  0  0  0  0  0  0  0  0  0  0
   16.9766   -8.4497  -16.5830 O   0  0  0  0  0  0  0  0  0  0  0  0
   21.5733   -7.3456  -14.5929 C   0  0  0  0  0  0  0  0  0  0  0  0
   21.6468   -5.9719  -14.7292 O   0  0  0  0  0  0  0  0  0  0  0  0
   16.6721   -6.2346  -16.7340 O   0  0  0  0  0  0  0  0  0  0  0  0
   21.8963   -7.8051  -13.4693 O   0  0  0  0  0  0  0  0  0  0  0  0
  2  1  1  1
  2  3  1  0
  4  5  2  0
  4  2  1  0
  7  8  1  0
  7  6  1  0
  8  9  1  0
 10  9  1  6
 10 11  1  0
 11  4  1  0
 12 10  1  0
 12 14  1  0
 13 12  2  0
 15 14  1  0
 15 20  1  0
 16 17  1  0
 15 16  1  1
 18 22  1  0
 18 17  1  0
 19 18  2  0
 20 21  1  0
 23 20  2  0
M  END
$$$$
