AME.pdb
     RDKit          3D

 23 22  0  0  1  0  0  0  0  0999 V2000
   27.5914  -23.5949  -15.6406 C   0  0  0  0  0  0  0  0  0  0  0  0
   27.1063  -22.2002  -15.4270 C   0  0  2  0  0  0  0  0  0  0  0  0
   28.2431  -21.2748  -15.3839 N   0  0  0  0  0  0  0  0  0  0  0  0
   26.3345  -22.1248  -14.1614 C   0  0  0  0  0  0  0  0  0  0  0  0
   25.2855  -22.7803  -14.0471 O   0  0  0  0  0  0  0  0  0  0  0  0
   26.4230  -20.1513   -6.5165 C   0  0  0  0  0  0  0  0  0  0  0  0
   27.3720  -20.4022   -8.0279 S   0  0  0  0  0  0  0  0  0  0  0  0
   26.2228  -20.6696   -9.4056 C   0  0  0  0  0  0  0  0  0  0  0  0
   26.9667  -20.8798  -10.7009 C   0  0  0  0  0  0  0  0  0  0  0  0
   26.0498  -21.1786  -11.8407 C   0  0  2  0  0  0  0  0  0  0  0  0
   26.7796  -21.3219  -13.0969 N   0  0  0  0  0  0  0  0  0  0  0  0
   24.9352  -20.2434  -12.0172 C   0  0  0  0  0  0  0  0  0  0  0  0
   25.0884  -19.0235  -12.3209 O   0  0  0  0  0  0  0  0  0  0  0  0
   23.6082  -20.7023  -11.8445 N   0  0  0  0  0  0  0  0  0  0  0  0
   22.4351  -20.0549  -12.4346 C   0  0  1  0  0  0  0  0  0  0  0  0
   22.5825  -19.7730  -13.8682 C   0  0  0  0  0  0  0  0  0  0  0  0
   22.0245  -20.6662  -14.8876 C   0  0  0  0  0  0  0  0  0  0  0  0
   21.0374  -20.1484  -15.8252 C   0  0  0  0  0  0  0  0  0  0  0  0
   20.6625  -18.9590  -15.7693 O   0  0  0  0  0  0  0  0  0  0  0  0
   21.1864  -20.6587  -11.9643 C   0  0  0  0  0  0  0  0  0  0  0  0
   19.9290  -20.0920  -12.0587 O   0  0  0  0  0  0  0  0  0  0  0  0
   20.4656  -20.9297  -16.8180 O   0  0  0  0  0  0  0  0  0  0  0  0
   21.2403  -21.7915  -11.4243 O   0  0  0  0  0  0  0  0  0  0  0  0
  2  1  1  1
  2  3  1  0
  4  5  2  0
  4  2  1  0
  7  8  1  0
  7  6  1  0
  8  9  1  0
 10  9  1  1
 10 11  1  0
 11  4  1  0
 12 10  1  0
 12 14  1  0
 13 12  2  0
 15 14  1  0
 15 20  1  0
 16 17  1  0
 15 16  1  6
 18 22  1  0
 18 17  1  0
 19 18  2  0
 20 21  1  0
 23 20  2  0
M  END
$$$$
