SRW.pdb
     RDKit          3D

 32 33  0  0  1  0  0  0  0  0999 V2000
   29.2540  -19.0368  -21.0035 O   0  0  0  0  0  0  0  0  0  0  0  0
   28.3415  -19.2980  -19.9895 C   0  0  0  0  0  0  0  0  0  0  0  0
   27.1698  -20.0840  -20.5481 C   0  0  2  0  0  0  0  0  0  0  0  0
   26.5834  -19.2774  -21.6187 N   0  0  0  0  0  0  0  0  0  0  0  0
   26.1502  -20.2641  -19.4959 C   0  0  0  0  0  0  0  0  0  0  0  0
   25.2611  -19.3950  -19.3497 O   0  0  0  0  0  0  0  0  0  0  0  0
   25.0989  -26.7091  -16.1833 N   0  0  0  0  0  0  0  0  0  0  0  0
   23.8054  -26.1416  -16.2508 C   0  0  0  0  0  0  0  0  0  0  0  0
   22.9249  -26.3306  -15.3246 N   0  0  0  0  0  0  0  0  0  0  0  0
   23.4775  -25.3350  -17.3879 N   0  0  0  0  0  0  0  0  0  0  0  0
   24.4002  -25.1770  -18.4679 C   0  0  0  0  0  0  0  0  0  0  0  0
   25.1953  -23.9070  -18.2636 C   0  0  0  0  0  0  0  0  0  0  0  0
   24.3245  -22.7959  -17.7687 C   0  0  0  0  0  0  0  0  0  0  0  0
   25.1595  -21.5439  -17.6008 C   0  0  2  0  0  0  0  0  0  0  0  0
   26.1379  -21.3912  -18.6377 N   0  0  0  0  0  0  0  0  0  0  0  0
   25.8487  -21.5411  -16.2720 C   0  0  0  0  0  0  0  0  0  0  0  0
   26.6916  -22.4503  -15.9927 O   0  0  0  0  0  0  0  0  0  0  0  0
   21.9708  -25.9625  -15.3454 N   0  0  0  0  0  0  0  0  0  0  0  0
   25.6118  -20.5654  -15.2884 C   0  0  2  0  0  0  0  0  0  0  0  0
   25.9289  -20.7858  -13.8913 C   0  0  0  0  0  0  0  0  0  0  0  0
   25.6159  -19.6185  -13.0263 C   0  0  0  0  0  0  0  0  0  0  0  0
   26.0058  -19.9245  -11.6294 C   0  0  0  0  0  0  0  0  0  0  0  0
   27.3016  -20.0194  -11.1110 N   0  0  0  0  0  0  0  0  0  0  0  0
   27.2428  -20.3220   -9.8050 C   0  0  0  0  0  0  0  0  0  0  0  0
   25.9678  -20.4343   -9.4241 C   0  0  0  0  0  0  0  0  0  0  0  0
   25.3690  -20.7295   -8.1970 C   0  0  0  0  0  0  0  0  0  0  0  0
   24.0032  -20.7647   -8.1595 C   0  0  0  0  0  0  0  0  0  0  0  0
   23.1944  -20.5315   -9.2374 C   0  0  0  0  0  0  0  0  0  0  0  0
   23.8067  -20.2395  -10.4498 C   0  0  0  0  0  0  0  0  0  0  0  0
   25.1887  -20.1921  -10.5381 C   0  0  0  0  0  0  0  0  0  0  0  0
   25.2552  -21.9929  -13.3629 O   0  0  0  0  0  0  0  0  0  0  0  0
   25.8390  -22.9075  -12.7413 O   0  0  0  0  0  0  0  0  0  0  0  0
  1  2  1  0
  3  2  1  0
  3  4  1  6
  5  6  2  0
  5  3  1  0
  8  9  2  0
  8  7  1  0
 10  8  1  0
 11 12  1  0
 11 10  1  0
 13 12  1  0
 14 13  1  6
 14 15  1  0
 15  5  1  0
 16 14  1  0
 16 17  2  0
 18 16  1  0
 19 18  1  0
 19 30  1  0
 19 20  1  6
 21 20  1  0
 22 21  2  0
 23 22  1  0
 24 23  1  0
 24 29  2  0
 25 26  2  0
 25 24  1  0
 26 27  1  0
 27 28  2  0
 29 28  1  0
 29 21  1  0
 30 31  2  0
 30 32  1  0
M  END
$$$$
