SRW.pdb
     RDKit          3D

 32 33  0  0  1  0  0  0  0  0999 V2000
   28.9726  -21.4007  -15.4190 O   0  0  0  0  0  0  0  0  0  0  0  0
   28.1763  -21.0995  -16.5163 C   0  0  0  0  0  0  0  0  0  0  0  0
   26.7800  -21.6529  -16.3003 C   0  0  2  0  0  0  0  0  0  0  0  0
   26.0093  -21.3568  -17.5082 N   0  0  0  0  0  0  0  0  0  0  0  0
   26.1433  -20.9560  -15.1653 C   0  0  0  0  0  0  0  0  0  0  0  0
   25.9841  -19.7154  -15.2201 O   0  0  0  0  0  0  0  0  0  0  0  0
   19.9330  -21.3774  -14.6151 N   0  0  0  0  0  0  0  0  0  0  0  0
   19.9531  -21.2684  -13.2053 C   0  0  0  0  0  0  0  0  0  0  0  0
   19.1687  -21.9664  -12.4527 N   0  0  0  0  0  0  0  0  0  0  0  0
   20.8774  -20.3509  -12.6096 N   0  0  0  0  0  0  0  0  0  0  0  0
   21.8230  -19.6369  -13.4087 C   0  0  0  0  0  0  0  0  0  0  0  0
   22.8650  -20.6008  -13.9302 C   0  0  0  0  0  0  0  0  0  0  0  0
   23.5938  -21.2703  -12.8084 C   0  0  0  0  0  0  0  0  0  0  0  0
   25.0714  -20.9572  -12.9155 C   0  0  2  0  0  0  0  0  0  0  0  0
   25.7017  -21.6412  -14.0067 N   0  0  0  0  0  0  0  0  0  0  0  0
   25.7801  -21.3052  -11.6438 C   0  0  0  0  0  0  0  0  0  0  0  0
   25.9997  -22.5227  -11.3526 O   0  0  0  0  0  0  0  0  0  0  0  0
   19.1666  -21.9378  -11.4303 N   0  0  0  0  0  0  0  0  0  0  0  0
   26.2292  -20.3382  -10.7279 C   0  0  2  0  0  0  0  0  0  0  0  0
   26.8333  -20.6981   -9.4604 C   0  0  0  0  0  0  0  0  0  0  0  0
   27.8932  -19.7518   -9.0247 C   0  0  0  0  0  0  0  0  0  0  0  0
   28.5933  -20.3096   -7.8432 C   0  0  0  0  0  0  0  0  0  0  0  0
   29.3868  -21.4604   -7.7914 N   0  0  0  0  0  0  0  0  0  0  0  0
   29.8381  -21.6400   -6.5405 C   0  0  0  0  0  0  0  0  0  0  0  0
   29.3838  -20.6630   -5.7516 C   0  0  0  0  0  0  0  0  0  0  0  0
   29.5544  -20.3873   -4.3928 C   0  0  0  0  0  0  0  0  0  0  0  0
   28.9316  -19.2763   -3.8967 C   0  0  0  0  0  0  0  0  0  0  0  0
   28.1598  -18.4266   -4.6400 C   0  0  0  0  0  0  0  0  0  0  0  0
   28.0009  -18.7159   -5.9894 C   0  0  0  0  0  0  0  0  0  0  0  0
   28.6126  -19.8312   -6.5390 C   0  0  0  0  0  0  0  0  0  0  0  0
   25.8184  -20.8364   -8.3922 O   0  0  0  0  0  0  0  0  0  0  0  0
   24.8526  -20.0576   -8.2364 O   0  0  0  0  0  0  0  0  0  0  0  0
  1  2  1  0
  3  2  1  0
  3  4  1  6
  5  6  2  0
  5  3  1  0
  8  9  2  0
  8  7  1  0
 10  8  1  0
 11 12  1  0
 11 10  1  0
 13 12  1  0
 14 13  1  1
 14 15  1  0
 15  5  1  0
 16 14  1  0
 16 17  2  0
 18 16  1  0
 19 18  1  0
 19 30  1  0
 19 20  1  1
 21 20  1  0
 22 21  2  0
 23 22  1  0
 24 23  1  0
 24 29  2  0
 25 26  2  0
 25 24  1  0
 26 27  1  0
 27 28  2  0
 29 28  1  0
 29 21  1  0
 30 31  2  0
 30 32  1  0
M  END
$$$$
