SRW.pdb
     RDKit          3D

 32 33  0  0  1  0  0  0  0  0999 V2000
   26.6563  -23.0917  -17.7721 O   0  0  0  0  0  0  0  0  0  0  0  0
   27.7940  -22.5483  -18.3546 C   0  0  0  0  0  0  0  0  0  0  0  0
   28.9136  -22.4928  -17.3318 C   0  0  2  0  0  0  0  0  0  0  0  0
   29.2214  -23.8731  -16.9571 N   0  0  0  0  0  0  0  0  0  0  0  0
   28.4452  -21.7817  -16.1259 C   0  0  0  0  0  0  0  0  0  0  0  0
   28.4838  -22.3638  -15.0182 O   0  0  0  0  0  0  0  0  0  0  0  0
   24.5103  -14.6201  -16.9877 N   0  0  0  0  0  0  0  0  0  0  0  0
   25.2101  -14.8000  -15.7720 C   0  0  0  0  0  0  0  0  0  0  0  0
   24.9241  -14.1226  -14.7099 N   0  0  0  0  0  0  0  0  0  0  0  0
   26.2658  -15.7671  -15.7344 N   0  0  0  0  0  0  0  0  0  0  0  0
   26.5415  -16.5989  -16.8633 C   0  0  0  0  0  0  0  0  0  0  0  0
   26.5799  -18.0445  -16.4209 C   0  0  0  0  0  0  0  0  0  0  0  0
   27.4924  -18.2291  -15.2501 C   0  0  0  0  0  0  0  0  0  0  0  0
   27.6673  -19.7090  -14.9816 C   0  0  2  0  0  0  0  0  0  0  0  0
   27.9497  -20.4553  -16.1728 N   0  0  0  0  0  0  0  0  0  0  0  0
   26.4472  -20.2761  -14.3254 C   0  0  0  0  0  0  0  0  0  0  0  0
   25.4770  -20.6861  -15.0366 O   0  0  0  0  0  0  0  0  0  0  0  0
   25.3454  -14.2770  -13.7908 N   0  0  0  0  0  0  0  0  0  0  0  0
   26.3079  -20.3845  -12.9310 C   0  0  2  0  0  0  0  0  0  0  0  0
   25.2072  -21.1026  -12.3194 C   0  0  0  0  0  0  0  0  0  0  0  0
   25.6377  -22.0313  -11.2420 C   0  0  0  0  0  0  0  0  0  0  0  0
   26.2228  -21.2506  -10.1261 C   0  0  0  0  0  0  0  0  0  0  0  0
   25.5961  -20.2598   -9.3629 N   0  0  0  0  0  0  0  0  0  0  0  0
   26.4577  -19.7805   -8.4527 C   0  0  0  0  0  0  0  0  0  0  0  0
   27.6327  -20.4040   -8.5706 C   0  0  0  0  0  0  0  0  0  0  0  0
   28.8417  -20.2830   -7.8811 C   0  0  0  0  0  0  0  0  0  0  0  0
   29.8685  -21.0967   -8.2709 C   0  0  0  0  0  0  0  0  0  0  0  0
   29.7870  -22.0124   -9.2833 C   0  0  0  0  0  0  0  0  0  0  0  0
   28.5774  -22.1194   -9.9582 C   0  0  0  0  0  0  0  0  0  0  0  0
   27.5068  -21.3161   -9.5996 C   0  0  0  0  0  0  0  0  0  0  0  0
   24.1756  -20.1783  -11.7982 O   0  0  0  0  0  0  0  0  0  0  0  0
   23.0440  -20.5381  -11.4063 O   0  0  0  0  0  0  0  0  0  0  0  0
  1  2  1  0
  3  2  1  0
  3  4  1  1
  5  6  2  0
  5  3  1  0
  8  9  2  0
  8  7  1  0
 10  8  1  0
 11 12  1  0
 11 10  1  0
 13 12  1  0
 14 13  1  6
 14 15  1  0
 15  5  1  0
 16 14  1  0
 16 17  2  0
 18 16  1  0
 19 18  1  0
 19 30  1  0
 19 20  1  6
 21 20  1  0
 22 21  2  0
 23 22  1  0
 24 23  1  0
 24 29  2  0
 25 26  2  0
 25 24  1  0
 26 27  1  0
 27 28  2  0
 29 28  1  0
 29 21  1  0
 30 31  2  0
 30 32  1  0
M  END
$$$$
