SRW.pdb
     RDKit          3D

 32 33  0  0  1  0  0  0  0  0999 V2000
   25.3644  -19.5395  -16.8550 O   0  0  0  0  0  0  0  0  0  0  0  0
   24.4410  -19.4944  -17.8915 C   0  0  0  0  0  0  0  0  0  0  0  0
   23.0746  -19.1291  -17.3415 C   0  0  2  0  0  0  0  0  0  0  0  0
   22.8433  -17.7216  -17.6670 N   0  0  0  0  0  0  0  0  0  0  0  0
   23.0816  -19.2668  -15.8717 C   0  0  0  0  0  0  0  0  0  0  0  0
   23.4687  -18.3060  -15.1686 O   0  0  0  0  0  0  0  0  0  0  0  0
   17.8073  -24.0841  -15.1577 N   0  0  0  0  0  0  0  0  0  0  0  0
   18.0549  -23.0695  -14.2043 C   0  0  0  0  0  0  0  0  0  0  0  0
   17.2252  -22.0998  -14.0042 N   0  0  0  0  0  0  0  0  0  0  0  0
   19.2678  -23.1338  -13.4455 N   0  0  0  0  0  0  0  0  0  0  0  0
   19.5382  -22.1870  -12.4096 C   0  0  0  0  0  0  0  0  0  0  0  0
   20.4722  -21.1216  -12.9382 C   0  0  0  0  0  0  0  0  0  0  0  0
   21.8088  -21.6963  -13.2858 C   0  0  0  0  0  0  0  0  0  0  0  0
   22.7110  -20.5912  -13.7934 C   0  0  2  0  0  0  0  0  0  0  0  0
   22.6640  -20.4532  -15.2197 N   0  0  0  0  0  0  0  0  0  0  0  0
   24.1272  -20.8271  -13.3700 C   0  0  0  0  0  0  0  0  0  0  0  0
   24.8306  -21.7012  -13.9671 O   0  0  0  0  0  0  0  0  0  0  0  0
   17.3387  -21.3750  -13.2916 N   0  0  0  0  0  0  0  0  0  0  0  0
   24.7415  -20.1194  -12.3224 C   0  0  2  0  0  0  0  0  0  0  0  0
   26.0745  -20.4405  -11.8523 C   0  0  0  0  0  0  0  0  0  0  0  0
   26.8049  -19.2658  -11.3089 C   0  0  0  0  0  0  0  0  0  0  0  0
   27.9330  -19.7348  -10.4695 C   0  0  0  0  0  0  0  0  0  0  0  0
   29.1058  -20.3651  -10.8985 N   0  0  0  0  0  0  0  0  0  0  0  0
   29.8800  -20.6446   -9.8387 C   0  0  0  0  0  0  0  0  0  0  0  0
   29.2805  -20.2309   -8.7195 C   0  0  0  0  0  0  0  0  0  0  0  0
   29.6512  -20.2800   -7.3735 C   0  0  0  0  0  0  0  0  0  0  0  0
   28.7782  -19.7514   -6.4643 C   0  0  0  0  0  0  0  0  0  0  0  0
   27.5767  -19.1833   -6.7867 C   0  0  0  0  0  0  0  0  0  0  0  0
   27.2240  -19.1430   -8.1298 C   0  0  0  0  0  0  0  0  0  0  0  0
   28.0759  -19.6661   -9.0893 C   0  0  0  0  0  0  0  0  0  0  0  0
   26.0511  -21.5233  -10.8437 O   0  0  0  0  0  0  0  0  0  0  0  0
   25.1961  -21.6191   -9.9362 O   0  0  0  0  0  0  0  0  0  0  0  0
  1  2  1  0
  3  2  1  0
  3  4  1  1
  5  6  2  0
  5  3  1  0
  8  9  2  0
  8  7  1  0
 10  8  1  0
 11 12  1  0
 11 10  1  0
 13 12  1  0
 14 13  1  6
 14 15  1  0
 15  5  1  0
 16 14  1  0
 16 17  2  0
 18 16  1  0
 19 18  1  0
 19 30  1  0
 19 20  1  1
 21 20  1  0
 22 21  2  0
 23 22  1  0
 24 23  1  0
 24 29  2  0
 25 26  2  0
 25 24  1  0
 26 27  1  0
 27 28  2  0
 29 28  1  0
 29 21  1  0
 30 31  2  0
 30 32  1  0
M  END
$$$$
