EIT.pdb
     RDKit          3D

 25 24  0  0  1  0  0  0  0  0999 V2000
    8.6592  -14.7630   20.3293 N   0  0  0  0  0  0  0  0  0  0  0  0
    7.7547  -15.1762   21.3284 C   0  0  1  0  0  0  0  0  0  0  0  0
    7.1871  -16.5281   21.1181 C   0  0  0  0  0  0  0  0  0  0  0  0
    7.8342  -17.2639   20.0037 C   0  0  0  0  0  0  0  0  0  0  0  0
    7.2601  -18.5679   19.6637 C   0  0  0  0  0  0  0  0  0  0  0  0
    7.6992  -19.3948   18.8380 O   0  0  0  0  0  0  0  0  0  0  0  0
    8.2934  -15.0055   22.7150 C   0  0  0  0  0  0  0  0  0  0  0  0
    9.5550  -14.9780   22.9201 O   0  0  0  0  0  0  0  0  0  0  0  0
    6.0678  -19.0076   20.3088 O   0  0  0  0  0  0  0  0  0  0  0  0
    6.0306  -11.4827   26.2106 C   0  0  0  0  0  0  0  0  0  0  0  0
    6.9303  -12.3569   25.3655 C   0  0  0  0  0  0  0  0  0  0  0  0
    7.3635  -13.6272   26.0133 C   0  0  2  0  0  0  0  0  0  0  0  0
    8.0368  -13.3865   27.3620 C   0  0  0  0  0  0  0  0  0  0  0  0
    8.0357  -14.6337   25.1875 C   0  0  2  0  0  0  0  0  0  0  0  0
    7.5328  -14.8655   23.8727 N   0  0  0  0  0  0  0  0  0  0  0  0
    8.2778  -15.8803   25.9413 C   0  0  0  0  0  0  0  0  0  0  0  0
    7.3069  -16.5430   26.4584 O   0  0  0  0  0  0  0  0  0  0  0  0
    9.5849  -19.0966   24.6528 C   0  0  0  0  0  0  0  0  0  0  0  0
   10.3827  -18.7575   25.8638 C   0  0  1  0  0  0  0  0  0  0  0  0
   11.5956  -18.1834   25.4844 O   0  0  0  0  0  0  0  0  0  0  0  0
    9.7066  -17.7795   26.8077 C   0  0  2  0  0  0  0  0  0  0  0  0
    9.5457  -16.4760   26.1761 N   0  0  0  0  0  0  0  0  0  0  0  0
   10.4765  -17.6053   28.0457 C   0  0  0  0  0  0  0  0  0  0  0  0
   11.0657  -16.4292   28.4742 O   0  0  0  0  0  0  0  0  0  0  0  0
   10.6334  -18.6144   28.8151 O   0  0  0  0  0  0  0  0  0  0  0  0
  2  1  1  6
  3  2  1  0
  4  3  1  0
  5  4  1  0
  6  5  2  0
  7  2  1  0
  7  8  2  0
  9  5  1  0
 10 11  1  0
 11 12  1  0
 12 14  1  0
 12 13  1  1
 14 15  1  6
 15  7  1  0
 16 14  1  0
 17 16  2  0
 19 20  1  0
 19 18  1  6
 21 22  1  6
 21 19  1  0
 22 16  1  0
 23 21  1  0
 24 23  1  0
 25 23  2  0
M  END
$$$$
