EIT.pdb
     RDKit          3D

 25 24  0  0  1  0  0  0  0  0999 V2000
    8.0608  -14.5320   20.2244 N   0  0  0  0  0  0  0  0  0  0  0  0
    7.4685  -15.2191   21.3034 C   0  0  1  0  0  0  0  0  0  0  0  0
    7.3334  -16.6797   21.0980 C   0  0  0  0  0  0  0  0  0  0  0  0
    6.6910  -17.0287   19.8067 C   0  0  0  0  0  0  0  0  0  0  0  0
    6.4655  -18.4540   19.5553 C   0  0  0  0  0  0  0  0  0  0  0  0
    6.7825  -19.4108   20.2918 O   0  0  0  0  0  0  0  0  0  0  0  0
    8.0992  -14.8958   22.6223 C   0  0  0  0  0  0  0  0  0  0  0  0
    9.3666  -14.7568   22.7167 O   0  0  0  0  0  0  0  0  0  0  0  0
    5.8164  -18.8684   18.3561 O   0  0  0  0  0  0  0  0  0  0  0  0
    5.8760  -11.5071   26.3153 C   0  0  0  0  0  0  0  0  0  0  0  0
    6.8023  -12.2817   25.4042 C   0  0  0  0  0  0  0  0  0  0  0  0
    7.3762  -13.5227   25.9970 C   0  0  2  0  0  0  0  0  0  0  0  0
    8.1674  -13.2407   27.2716 C   0  0  0  0  0  0  0  0  0  0  0  0
    8.0211  -14.4862   25.1010 C   0  0  2  0  0  0  0  0  0  0  0  0
    7.4235  -14.7196   23.8268 N   0  0  0  0  0  0  0  0  0  0  0  0
    8.3761  -15.7324   25.8095 C   0  0  0  0  0  0  0  0  0  0  0  0
    7.4704  -16.4918   26.3118 O   0  0  0  0  0  0  0  0  0  0  0  0
   10.2556  -18.6972   24.3480 C   0  0  0  0  0  0  0  0  0  0  0  0
   10.8697  -18.3456   25.6586 C   0  0  1  0  0  0  0  0  0  0  0  0
   12.0215  -17.5871   25.4516 O   0  0  0  0  0  0  0  0  0  0  0  0
    9.9694  -17.5406   26.5782 C   0  0  2  0  0  0  0  0  0  0  0  0
    9.6923  -16.2263   26.0127 N   0  0  0  0  0  0  0  0  0  0  0  0
   10.5760  -17.3590   27.9030 C   0  0  0  0  0  0  0  0  0  0  0  0
   10.8246  -18.3610   28.8239 O   0  0  0  0  0  0  0  0  0  0  0  0
   10.9132  -16.1798   28.2644 O   0  0  0  0  0  0  0  0  0  0  0  0
  2  1  1  6
  3  2  1  0
  4  3  1  0
  5  4  1  0
  6  5  2  0
  7  2  1  0
  7  8  2  0
  9  5  1  0
 10 11  1  0
 11 12  1  0
 12 14  1  0
 12 13  1  1
 14 15  1  6
 15  7  1  0
 16 14  1  0
 17 16  2  0
 19 20  1  0
 19 18  1  6
 21 22  1  6
 21 19  1  0
 22 16  1  0
 23 21  1  0
 24 23  1  0
 25 23  2  0
M  END
$$$$
