EIT.pdb
     RDKit          3D

 25 24  0  0  1  0  0  0  0  0999 V2000
    7.5918  -12.8881   19.8797 N   0  0  0  0  0  0  0  0  0  0  0  0
    7.4042  -14.0732   20.6197 C   0  0  1  0  0  0  0  0  0  0  0  0
    7.8258  -15.3065   19.9161 C   0  0  0  0  0  0  0  0  0  0  0  0
    6.9871  -16.4837   20.2521 C   0  0  0  0  0  0  0  0  0  0  0  0
    7.4253  -17.7720   19.7100 C   0  0  0  0  0  0  0  0  0  0  0  0
    8.3848  -18.4690   20.0997 O   0  0  0  0  0  0  0  0  0  0  0  0
    7.9710  -13.9973   22.0034 C   0  0  0  0  0  0  0  0  0  0  0  0
    9.1833  -13.6352   22.1871 O   0  0  0  0  0  0  0  0  0  0  0  0
    6.7242  -18.3558   18.6151 O   0  0  0  0  0  0  0  0  0  0  0  0
    5.7348  -11.4164   26.0756 C   0  0  0  0  0  0  0  0  0  0  0  0
    6.7450  -12.0557   25.1489 C   0  0  0  0  0  0  0  0  0  0  0  0
    7.1338  -13.4494   25.5059 C   0  0  2  0  0  0  0  0  0  0  0  0
    7.7489  -13.5375   26.9002 C   0  0  0  0  0  0  0  0  0  0  0  0
    7.8302  -14.2553   24.4997 C   0  0  2  0  0  0  0  0  0  0  0  0
    7.2887  -14.2934   23.1804 N   0  0  0  0  0  0  0  0  0  0  0  0
    8.1763  -15.5931   25.0208 C   0  0  0  0  0  0  0  0  0  0  0  0
    7.2636  -16.4272   25.3679 O   0  0  0  0  0  0  0  0  0  0  0  0
    9.7783  -18.4654   23.2699 C   0  0  0  0  0  0  0  0  0  0  0  0
   10.5443  -18.2107   24.5215 C   0  0  1  0  0  0  0  0  0  0  0  0
   11.6699  -17.4382   24.2370 O   0  0  0  0  0  0  0  0  0  0  0  0
    9.7642  -17.4762   25.5968 C   0  0  2  0  0  0  0  0  0  0  0  0
    9.4909  -16.1028   25.1928 N   0  0  0  0  0  0  0  0  0  0  0  0
   10.4945  -17.4504   26.8702 C   0  0  0  0  0  0  0  0  0  0  0  0
   10.7954  -18.5504   27.6536 O   0  0  0  0  0  0  0  0  0  0  0  0
   10.8996  -16.3241   27.3199 O   0  0  0  0  0  0  0  0  0  0  0  0
  2  1  1  6
  3  2  1  0
  4  3  1  0
  5  4  1  0
  6  5  2  0
  7  2  1  0
  7  8  2  0
  9  5  1  0
 10 11  1  0
 11 12  1  0
 12 14  1  0
 12 13  1  1
 14 15  1  6
 15  7  1  0
 16 14  1  0
 17 16  2  0
 19 20  1  0
 19 18  1  6
 21 22  1  6
 21 19  1  0
 22 16  1  0
 23 21  1  0
 24 23  1  0
 25 23  2  0
M  END
$$$$
