EIT.pdb
     RDKit          3D

 25 24  0  0  1  0  0  0  0  0999 V2000
    8.7938  -14.8669   20.7526 N   0  0  0  0  0  0  0  0  0  0  0  0
    8.1958  -15.5826   21.8096 C   0  0  1  0  0  0  0  0  0  0  0  0
    8.2234  -17.0542   21.6442 C   0  0  0  0  0  0  0  0  0  0  0  0
    7.6557  -17.5050   20.3494 C   0  0  0  0  0  0  0  0  0  0  0  0
    7.7199  -18.9423   20.0749 C   0  0  0  0  0  0  0  0  0  0  0  0
    8.1976  -19.8315   20.8094 O   0  0  0  0  0  0  0  0  0  0  0  0
    8.6922  -15.1620   23.1582 C   0  0  0  0  0  0  0  0  0  0  0  0
    9.9369  -14.9424   23.3499 O   0  0  0  0  0  0  0  0  0  0  0  0
    7.1968  -19.4546   18.8521 O   0  0  0  0  0  0  0  0  0  0  0  0
    6.0287  -11.6523   26.4236 C   0  0  0  0  0  0  0  0  0  0  0  0
    7.0511  -12.4511   25.6460 C   0  0  0  0  0  0  0  0  0  0  0  0
    7.5967  -13.6403   26.3595 C   0  0  2  0  0  0  0  0  0  0  0  0
    8.2226  -13.2707   27.7018 C   0  0  0  0  0  0  0  0  0  0  0  0
    8.3765  -14.6138   25.5908 C   0  0  2  0  0  0  0  0  0  0  0  0
    7.9070  -14.9723   24.2922 N   0  0  0  0  0  0  0  0  0  0  0  0
    8.7479  -15.7826   26.4137 C   0  0  0  0  0  0  0  0  0  0  0  0
    7.8510  -16.5354   26.9410 O   0  0  0  0  0  0  0  0  0  0  0  0
   10.6994  -18.9058   25.4706 C   0  0  0  0  0  0  0  0  0  0  0  0
   11.2975  -18.3250   26.7047 C   0  0  1  0  0  0  0  0  0  0  0  0
   12.4288  -17.5793   26.3750 O   0  0  0  0  0  0  0  0  0  0  0  0
   10.3711  -17.4044   27.4784 C   0  0  2  0  0  0  0  0  0  0  0  0
   10.0720  -16.2034   26.7090 N   0  0  0  0  0  0  0  0  0  0  0  0
   10.9602  -17.0009   28.7614 C   0  0  0  0  0  0  0  0  0  0  0  0
   11.2473  -17.8426   29.8211 O   0  0  0  0  0  0  0  0  0  0  0  0
   11.2420  -15.7671   28.9434 O   0  0  0  0  0  0  0  0  0  0  0  0
  2  1  1  6
  3  2  1  0
  4  3  1  0
  5  4  1  0
  6  5  2  0
  7  2  1  0
  7  8  2  0
  9  5  1  0
 10 11  1  0
 11 12  1  0
 12 14  1  0
 12 13  1  1
 14 15  1  6
 15  7  1  0
 16 14  1  0
 17 16  2  0
 19 20  1  0
 19 18  1  6
 21 22  1  6
 21 19  1  0
 22 16  1  0
 23 21  1  0
 24 23  1  0
 25 23  2  0
M  END
$$$$
