EIT.pdb
     RDKit          3D

 25 24  0  0  1  0  0  0  0  0999 V2000
    8.4414  -14.4351   20.0507 N   0  0  0  0  0  0  0  0  0  0  0  0
    7.7126  -15.1261   21.0399 C   0  0  1  0  0  0  0  0  0  0  0  0
    7.5833  -16.5819   20.7990 C   0  0  0  0  0  0  0  0  0  0  0  0
    7.0889  -16.9047   19.4376 C   0  0  0  0  0  0  0  0  0  0  0  0
    6.8935  -18.3245   19.1350 C   0  0  0  0  0  0  0  0  0  0  0  0
    7.7182  -19.1082   18.6212 O   0  0  0  0  0  0  0  0  0  0  0  0
    8.1823  -14.8289   22.4301 C   0  0  0  0  0  0  0  0  0  0  0  0
    9.4320  -14.7989   22.6983 O   0  0  0  0  0  0  0  0  0  0  0  0
    5.6475  -18.9483   19.4344 O   0  0  0  0  0  0  0  0  0  0  0  0
    5.6022  -11.3305   25.8174 C   0  0  0  0  0  0  0  0  0  0  0  0
    6.6414  -12.1132   25.0457 C   0  0  0  0  0  0  0  0  0  0  0  0
    7.0759  -13.3862   25.6873 C   0  0  2  0  0  0  0  0  0  0  0  0
    7.6914  -13.1569   27.0652 C   0  0  0  0  0  0  0  0  0  0  0  0
    7.8005  -14.3633   24.8705 C   0  0  2  0  0  0  0  0  0  0  0  0
    7.3659  -14.5668   23.5270 N   0  0  0  0  0  0  0  0  0  0  0  0
    8.0210  -15.6262   25.6037 C   0  0  0  0  0  0  0  0  0  0  0  0
    7.0335  -16.3452   25.9998 O   0  0  0  0  0  0  0  0  0  0  0  0
    9.5129  -18.8719   24.5051 C   0  0  0  0  0  0  0  0  0  0  0  0
   10.2221  -18.4338   25.7393 C   0  0  1  0  0  0  0  0  0  0  0  0
   11.4130  -17.7938   25.3973 O   0  0  0  0  0  0  0  0  0  0  0  0
    9.4347  -17.4685   26.6069 C   0  0  2  0  0  0  0  0  0  0  0  0
    9.2843  -16.1794   25.9438 N   0  0  0  0  0  0  0  0  0  0  0  0
   10.0893  -17.2518   27.9032 C   0  0  0  0  0  0  0  0  0  0  0  0
   10.2913  -18.2116   28.8789 O   0  0  0  0  0  0  0  0  0  0  0  0
   10.5199  -16.0806   28.1823 O   0  0  0  0  0  0  0  0  0  0  0  0
  2  1  1  6
  3  2  1  0
  4  3  1  0
  5  4  1  0
  6  5  2  0
  7  2  1  0
  7  8  2  0
  9  5  1  0
 10 11  1  0
 11 12  1  0
 12 14  1  0
 12 13  1  1
 14 15  1  6
 15  7  1  0
 16 14  1  0
 17 16  2  0
 19 20  1  0
 19 18  1  6
 21 22  1  6
 21 19  1  0
 22 16  1  0
 23 21  1  0
 24 23  1  0
 25 23  2  0
M  END
$$$$
