EIT.pdb
     RDKit          3D

 25 24  0  0  1  0  0  0  0  0999 V2000
    8.5999  -15.0171   20.5154 N   0  0  0  0  0  0  0  0  0  0  0  0
    7.8426  -15.4567   21.6201 C   0  0  1  0  0  0  0  0  0  0  0  0
    7.4805  -16.8925   21.5808 C   0  0  0  0  0  0  0  0  0  0  0  0
    8.5023  -17.7320   20.9075 C   0  0  0  0  0  0  0  0  0  0  0  0
    8.9625  -18.9128   21.6420 C   0  0  0  0  0  0  0  0  0  0  0  0
   10.1252  -19.3638   21.6956 O   0  0  0  0  0  0  0  0  0  0  0  0
    8.4426  -15.0672   22.9355 C   0  0  0  0  0  0  0  0  0  0  0  0
    9.6944  -14.8252   23.0293 O   0  0  0  0  0  0  0  0  0  0  0  0
    8.0339  -19.6807   22.4029 O   0  0  0  0  0  0  0  0  0  0  0  0
    5.9857  -11.5470   26.1410 C   0  0  0  0  0  0  0  0  0  0  0  0
    7.0546  -12.3234   25.4044 C   0  0  0  0  0  0  0  0  0  0  0  0
    7.6123  -13.4884   26.1479 C   0  0  2  0  0  0  0  0  0  0  0  0
    8.3380  -13.0654   27.4224 C   0  0  0  0  0  0  0  0  0  0  0  0
    8.3097  -14.5283   25.3870 C   0  0  2  0  0  0  0  0  0  0  0  0
    7.7524  -14.9310   24.1370 N   0  0  0  0  0  0  0  0  0  0  0  0
    8.6855  -15.6693   26.2461 C   0  0  0  0  0  0  0  0  0  0  0  0
    7.8020  -16.3107   26.9222 O   0  0  0  0  0  0  0  0  0  0  0  0
   10.8124  -18.8250   25.2059 C   0  0  0  0  0  0  0  0  0  0  0  0
   11.2973  -18.2554   26.4938 C   0  0  1  0  0  0  0  0  0  0  0  0
   12.4328  -17.4781   26.2682 O   0  0  0  0  0  0  0  0  0  0  0  0
   10.2909  -17.3712   27.2079 C   0  0  2  0  0  0  0  0  0  0  0  0
    9.9997  -16.1781   26.4231 N   0  0  0  0  0  0  0  0  0  0  0  0
   10.7814  -16.9527   28.5270 C   0  0  0  0  0  0  0  0  0  0  0  0
   11.0477  -17.7907   29.5951 O   0  0  0  0  0  0  0  0  0  0  0  0
   10.9886  -15.7084   28.7355 O   0  0  0  0  0  0  0  0  0  0  0  0
  2  1  1  6
  3  2  1  0
  4  3  1  0
  5  4  1  0
  6  5  2  0
  7  2  1  0
  7  8  2  0
  9  5  1  0
 10 11  1  0
 11 12  1  0
 12 14  1  0
 12 13  1  1
 14 15  1  6
 15  7  1  0
 16 14  1  0
 17 16  2  0
 19 20  1  0
 19 18  1  6
 21 22  1  6
 21 19  1  0
 22 16  1  0
 23 21  1  0
 24 23  1  0
 25 23  2  0
M  END
$$$$
