EIT.pdb
     RDKit          3D

 25 24  0  0  1  0  0  0  0  0999 V2000
    8.3251  -14.5227   20.6767 N   0  0  0  0  0  0  0  0  0  0  0  0
    8.2860  -15.6520   21.5196 C   0  0  1  0  0  0  0  0  0  0  0  0
    8.9685  -16.8473   20.9724 C   0  0  0  0  0  0  0  0  0  0  0  0
    8.3289  -17.3690   19.7392 C   0  0  0  0  0  0  0  0  0  0  0  0
    8.9253  -18.5724   19.1549 C   0  0  0  0  0  0  0  0  0  0  0  0
    8.5289  -19.7495   19.2801 O   0  0  0  0  0  0  0  0  0  0  0  0
    8.7191  -15.3535   22.9214 C   0  0  0  0  0  0  0  0  0  0  0  0
    9.9603  -15.2327   23.2033 O   0  0  0  0  0  0  0  0  0  0  0  0
   10.0896  -18.4629   18.3403 O   0  0  0  0  0  0  0  0  0  0  0  0
    6.0219  -11.8019   26.0289 C   0  0  0  0  0  0  0  0  0  0  0  0
    7.0871  -12.6251   25.3393 C   0  0  0  0  0  0  0  0  0  0  0  0
    7.5099  -13.8509   26.0739 C   0  0  2  0  0  0  0  0  0  0  0  0
    8.0675  -13.5303   27.4582 C   0  0  0  0  0  0  0  0  0  0  0  0
    8.2771  -14.8659   25.3473 C   0  0  2  0  0  0  0  0  0  0  0  0
    7.8753  -15.1830   24.0156 N   0  0  0  0  0  0  0  0  0  0  0  0
    8.5173  -16.0627   26.1786 C   0  0  0  0  0  0  0  0  0  0  0  0
    7.5417  -16.7746   26.6152 O   0  0  0  0  0  0  0  0  0  0  0  0
   10.1392  -19.2617   25.2490 C   0  0  0  0  0  0  0  0  0  0  0  0
   10.7905  -18.7899   26.5025 C   0  0  1  0  0  0  0  0  0  0  0  0
   11.9949  -18.1558   26.1988 O   0  0  0  0  0  0  0  0  0  0  0  0
    9.9630  -17.8045   27.3078 C   0  0  2  0  0  0  0  0  0  0  0  0
    9.7883  -16.5553   26.5777 N   0  0  0  0  0  0  0  0  0  0  0  0
   10.5899  -17.5043   28.6011 C   0  0  0  0  0  0  0  0  0  0  0  0
   11.0717  -16.2704   29.0005 O   0  0  0  0  0  0  0  0  0  0  0  0
   10.7159  -18.4491   29.4533 O   0  0  0  0  0  0  0  0  0  0  0  0
  2  1  1  6
  3  2  1  0
  4  3  1  0
  5  4  1  0
  6  5  2  0
  7  2  1  0
  7  8  2  0
  9  5  1  0
 10 11  1  0
 11 12  1  0
 12 14  1  0
 12 13  1  1
 14 15  1  6
 15  7  1  0
 16 14  1  0
 17 16  2  0
 19 20  1  0
 19 18  1  6
 21 22  1  6
 21 19  1  0
 22 16  1  0
 23 21  1  0
 24 23  1  0
 25 23  2  0
M  END
$$$$
