EIT.pdb
     RDKit          3D

 25 24  0  0  1  0  0  0  0  0999 V2000
    8.7143  -14.9417   19.9354 N   0  0  0  0  0  0  0  0  0  0  0  0
    7.7741  -15.2153   20.9494 C   0  0  1  0  0  0  0  0  0  0  0  0
    7.1279  -16.5437   20.8418 C   0  0  0  0  0  0  0  0  0  0  0  0
    8.1022  -17.6609   20.7733 C   0  0  0  0  0  0  0  0  0  0  0  0
    7.8268  -18.8190   21.6268 C   0  0  0  0  0  0  0  0  0  0  0  0
    8.6546  -19.6309   22.0891 O   0  0  0  0  0  0  0  0  0  0  0  0
    8.3050  -14.9616   22.3262 C   0  0  0  0  0  0  0  0  0  0  0  0
    9.5597  -15.0366   22.5598 O   0  0  0  0  0  0  0  0  0  0  0  0
    6.4868  -19.1122   22.0132 O   0  0  0  0  0  0  0  0  0  0  0  0
    7.3435  -11.5850   27.4029 C   0  0  0  0  0  0  0  0  0  0  0  0
    8.0314  -12.7603   26.7446 C   0  0  0  0  0  0  0  0  0  0  0  0
    7.3837  -13.2504   25.4952 C   0  0  2  0  0  0  0  0  0  0  0  0
    5.8813  -13.4584   25.6676 C   0  0  0  0  0  0  0  0  0  0  0  0
    8.0465  -14.3184   24.7423 C   0  0  2  0  0  0  0  0  0  0  0  0
    7.5438  -14.6347   23.4452 N   0  0  0  0  0  0  0  0  0  0  0  0
    8.2737  -15.5128   25.5807 C   0  0  0  0  0  0  0  0  0  0  0  0
    7.3043  -16.2894   25.9068 O   0  0  0  0  0  0  0  0  0  0  0  0
   10.1716  -18.4937   24.5836 C   0  0  0  0  0  0  0  0  0  0  0  0
   10.6883  -18.0836   25.9189 C   0  0  1  0  0  0  0  0  0  0  0  0
   11.8568  -17.3384   25.7643 O   0  0  0  0  0  0  0  0  0  0  0  0
    9.7267  -17.2348   26.7308 C   0  0  2  0  0  0  0  0  0  0  0  0
    9.5252  -15.9349   26.1032 N   0  0  0  0  0  0  0  0  0  0  0  0
   10.2184  -17.0207   28.0976 C   0  0  0  0  0  0  0  0  0  0  0  0
   10.4304  -18.0059   29.0455 O   0  0  0  0  0  0  0  0  0  0  0  0
   10.4813  -15.8270   28.4727 O   0  0  0  0  0  0  0  0  0  0  0  0
  2  1  1  6
  3  2  1  0
  4  3  1  0
  5  4  1  0
  6  5  2  0
  7  2  1  0
  7  8  2  0
  9  5  1  0
 10 11  1  0
 11 12  1  0
 12 14  1  0
 12 13  1  1
 14 15  1  6
 15  7  1  0
 16 14  1  0
 17 16  2  0
 19 20  1  0
 19 18  1  6
 21 22  1  6
 21 19  1  0
 22 16  1  0
 23 21  1  0
 24 23  1  0
 25 23  2  0
M  END
$$$$
