EIT.pdb
     RDKit          3D

 25 24  0  0  1  0  0  0  0  0999 V2000
    8.0874  -13.7981   20.2834 N   0  0  0  0  0  0  0  0  0  0  0  0
    7.7253  -14.8629   21.1333 C   0  0  1  0  0  0  0  0  0  0  0  0
    7.9790  -16.2088   20.5692 C   0  0  0  0  0  0  0  0  0  0  0  0
    6.7580  -16.8493   20.0205 C   0  0  0  0  0  0  0  0  0  0  0  0
    6.9050  -18.2234   19.5352 C   0  0  0  0  0  0  0  0  0  0  0  0
    6.2435  -19.2230   19.8840 O   0  0  0  0  0  0  0  0  0  0  0  0
    8.2787  -14.7234   22.5175 C   0  0  0  0  0  0  0  0  0  0  0  0
    9.5194  -14.4721   22.6961 O   0  0  0  0  0  0  0  0  0  0  0  0
    7.8930  -18.5268   18.5539 O   0  0  0  0  0  0  0  0  0  0  0  0
    5.8645  -11.7012   26.1937 C   0  0  0  0  0  0  0  0  0  0  0  0
    6.8731  -12.4389   25.3413 C   0  0  0  0  0  0  0  0  0  0  0  0
    7.3494  -13.7328   25.9068 C   0  0  2  0  0  0  0  0  0  0  0  0
    8.0080  -13.5578   27.2727 C   0  0  0  0  0  0  0  0  0  0  0  0
    8.0608  -14.6578   25.0208 C   0  0  2  0  0  0  0  0  0  0  0  0
    7.5539  -14.8435   23.7002 N   0  0  0  0  0  0  0  0  0  0  0  0
    8.3746  -15.9295   25.7031 C   0  0  0  0  0  0  0  0  0  0  0  0
    7.4418  -16.6976   26.1379 O   0  0  0  0  0  0  0  0  0  0  0  0
   10.3084  -18.9430   24.3305 C   0  0  0  0  0  0  0  0  0  0  0  0
   10.8643  -18.5636   25.6591 C   0  0  1  0  0  0  0  0  0  0  0  0
   12.0144  -17.7939   25.4870 O   0  0  0  0  0  0  0  0  0  0  0  0
    9.9177  -17.7560   26.5286 C   0  0  2  0  0  0  0  0  0  0  0  0
    9.6767  -16.4403   25.9500 N   0  0  0  0  0  0  0  0  0  0  0  0
   10.4511  -17.5776   27.8849 C   0  0  0  0  0  0  0  0  0  0  0  0
   10.6813  -18.5861   28.8036 O   0  0  0  0  0  0  0  0  0  0  0  0
   10.7360  -16.3951   28.2790 O   0  0  0  0  0  0  0  0  0  0  0  0
  2  1  1  6
  3  2  1  0
  4  3  1  0
  5  4  1  0
  6  5  2  0
  7  2  1  0
  7  8  2  0
  9  5  1  0
 10 11  1  0
 11 12  1  0
 12 14  1  0
 12 13  1  1
 14 15  1  6
 15  7  1  0
 16 14  1  0
 17 16  2  0
 19 20  1  0
 19 18  1  6
 21 22  1  6
 21 19  1  0
 22 16  1  0
 23 21  1  0
 24 23  1  0
 25 23  2  0
M  END
$$$$
