EIT.pdb
     RDKit          3D

 25 24  0  0  1  0  0  0  0  0999 V2000
    8.5585  -14.9791   20.0456 N   0  0  0  0  0  0  0  0  0  0  0  0
    7.7781  -15.4348   21.1275 C   0  0  1  0  0  0  0  0  0  0  0  0
    7.4258  -16.8721   21.0645 C   0  0  0  0  0  0  0  0  0  0  0  0
    7.1299  -17.3389   19.6873 C   0  0  0  0  0  0  0  0  0  0  0  0
    6.6074  -18.7012   19.5591 C   0  0  0  0  0  0  0  0  0  0  0  0
    7.2657  -19.7547   19.4358 O   0  0  0  0  0  0  0  0  0  0  0  0
    8.3446  -15.0558   22.4606 C   0  0  0  0  0  0  0  0  0  0  0  0
    9.6068  -15.0914   22.6611 O   0  0  0  0  0  0  0  0  0  0  0  0
    5.1999  -18.9246   19.5691 O   0  0  0  0  0  0  0  0  0  0  0  0
    7.5693  -11.6440   27.5759 C   0  0  0  0  0  0  0  0  0  0  0  0
    8.1648  -12.8691   26.9183 C   0  0  0  0  0  0  0  0  0  0  0  0
    7.5440  -13.2508   25.6184 C   0  0  2  0  0  0  0  0  0  0  0  0
    6.0205  -13.3005   25.6992 C   0  0  0  0  0  0  0  0  0  0  0  0
    8.1334  -14.3623   24.8673 C   0  0  2  0  0  0  0  0  0  0  0  0
    7.6108  -14.6459   23.5705 N   0  0  0  0  0  0  0  0  0  0  0  0
    8.2792  -15.5680   25.7076 C   0  0  0  0  0  0  0  0  0  0  0  0
    7.2515  -16.2196   26.1181 O   0  0  0  0  0  0  0  0  0  0  0  0
    9.5552  -18.7812   24.6607 C   0  0  0  0  0  0  0  0  0  0  0  0
   10.2971  -18.4403   25.9064 C   0  0  1  0  0  0  0  0  0  0  0  0
   11.5411  -17.9002   25.5819 O   0  0  0  0  0  0  0  0  0  0  0  0
    9.5962  -17.4319   26.7987 C   0  0  2  0  0  0  0  0  0  0  0  0
    9.5073  -16.1331   26.1435 N   0  0  0  0  0  0  0  0  0  0  0  0
   10.2997  -17.2618   28.0762 C   0  0  0  0  0  0  0  0  0  0  0  0
   10.4989  -18.2457   29.0282 O   0  0  0  0  0  0  0  0  0  0  0  0
   10.7804  -16.1117   28.3609 O   0  0  0  0  0  0  0  0  0  0  0  0
  2  1  1  6
  3  2  1  0
  4  3  1  0
  5  4  1  0
  6  5  2  0
  7  2  1  0
  7  8  2  0
  9  5  1  0
 10 11  1  0
 11 12  1  0
 12 14  1  0
 12 13  1  1
 14 15  1  6
 15  7  1  0
 16 14  1  0
 17 16  2  0
 19 20  1  0
 19 18  1  6
 21 22  1  6
 21 19  1  0
 22 16  1  0
 23 21  1  0
 24 23  1  0
 25 23  2  0
M  END
$$$$
