FQK.pdb
     RDKit          3D

 30 30  0  0  1  0  0  0  0  0999 V2000
   28.6046  -21.0271   -9.0087 N   0  0  0  0  0  0  0  0  0  0  0  0
   27.1762  -20.7793   -8.9308 C   0  0  1  0  0  0  0  0  0  0  0  0
   26.9799  -19.5101   -8.1333 C   0  0  0  0  0  0  0  0  0  0  0  0
   27.5086  -19.6989   -6.7726 C   0  0  0  0  0  0  0  0  0  0  0  0
   28.7036  -19.1445   -6.3491 C   0  0  0  0  0  0  0  0  0  0  0  0
   29.2076  -19.3154   -5.0785 C   0  0  0  0  0  0  0  0  0  0  0  0
   28.5001  -20.0740   -4.1681 C   0  0  0  0  0  0  0  0  0  0  0  0
   27.3158  -20.6388   -4.5461 C   0  0  0  0  0  0  0  0  0  0  0  0
   26.8267  -20.4554   -5.8264 C   0  0  0  0  0  0  0  0  0  0  0  0
   26.6033  -20.6796  -10.2907 C   0  0  0  0  0  0  0  0  0  0  0  0
   27.0995  -19.8949  -11.1305 O   0  0  0  0  0  0  0  0  0  0  0  0
   26.6819  -22.4457  -14.7925 N   0  0  0  0  0  0  0  0  0  0  0  0
   25.3306  -22.7783  -15.0369 C   0  0  0  0  0  0  0  0  0  0  0  0
   24.9501  -22.9230  -16.2224 O   0  0  0  0  0  0  0  0  0  0  0  0
   24.4093  -22.9535  -13.9057 C   0  0  0  0  0  0  0  0  0  0  0  0
   24.9691  -22.7361  -12.5465 C   0  0  0  0  0  0  0  0  0  0  0  0
   24.9292  -21.3699  -11.9793 C   0  0  2  0  0  0  0  0  0  0  0  0
   25.4975  -21.4746  -10.6271 N   0  0  0  0  0  0  0  0  0  0  0  0
   23.6606  -20.6529  -11.9204 C   0  0  0  0  0  0  0  0  0  0  0  0
   22.9186  -20.5738  -10.9073 O   0  0  0  0  0  0  0  0  0  0  0  0
   23.1270  -19.9467  -13.0687 N   0  0  0  0  0  0  0  0  0  0  0  0
   21.8429  -19.2968  -13.0378 C   0  0  1  0  0  0  0  0  0  0  0  0
   21.5595  -18.4155  -14.2047 C   0  0  0  0  0  0  0  0  0  0  0  0
   20.2475  -17.6720  -14.1317 C   0  0  0  0  0  0  0  0  0  0  0  0
   20.0289  -16.8410  -15.3777 C   0  0  0  0  0  0  0  0  0  0  0  0
   18.7675  -16.0071  -15.2645 C   0  0  0  0  0  0  0  0  0  0  0  0
   18.5887  -15.3079  -16.5426 N   0  0  0  0  0  0  0  0  0  0  0  0
   20.7331  -20.3178  -12.9977 C   0  0  0  0  0  0  0  0  0  0  0  0
   20.9429  -21.5059  -13.6903 O   0  0  0  0  0  0  0  0  0  0  0  0
   19.6936  -20.0680  -12.3618 O   0  0  0  0  0  0  0  0  0  0  0  0
  2  1  1  6
  2 10  1  0
  3  2  1  0
  3  4  1  0
  4  5  2  0
  5  6  1  0
  7  6  2  0
  8  7  1  0
  9  4  1  0
  9  8  2  0
 10 11  2  0
 12 13  1  0
 13 15  1  0
 14 13  2  0
 16 15  1  0
 17 16  1  1
 17 19  1  0
 18 17  1  0
 18 10  1  0
 19 21  1  0
 19 20  2  0
 21 22  1  0
 22 28  1  0
 22 23  1  6
 24 25  1  0
 24 23  1  0
 26 25  1  0
 27 26  1  0
 28 30  2  0
 28 29  1  0
M  END
$$$$
