FQK.pdb
     RDKit          3D

 30 30  0  0  1  0  0  0  0  0999 V2000
   24.3883  -12.7488  -17.7872 N   0  0  0  0  0  0  0  0  0  0  0  0
   24.3052  -11.9112  -16.6042 C   0  0  1  0  0  0  0  0  0  0  0  0
   25.6627  -11.2772  -16.4024 C   0  0  0  0  0  0  0  0  0  0  0  0
   26.6707  -12.3304  -16.1995 C   0  0  0  0  0  0  0  0  0  0  0  0
   26.6790  -13.1565  -15.0894 C   0  0  0  0  0  0  0  0  0  0  0  0
   27.6180  -14.1444  -14.8896 C   0  0  0  0  0  0  0  0  0  0  0  0
   28.6079  -14.3354  -15.8323 C   0  0  0  0  0  0  0  0  0  0  0  0
   28.6354  -13.5413  -16.9426 C   0  0  0  0  0  0  0  0  0  0  0  0
   27.6836  -12.5548  -17.1249 C   0  0  0  0  0  0  0  0  0  0  0  0
   23.2361  -10.9027  -16.7703 C   0  0  0  0  0  0  0  0  0  0  0  0
   22.7931  -10.6317  -17.9094 O   0  0  0  0  0  0  0  0  0  0  0  0
   16.7513   -9.5977  -14.4689 N   0  0  0  0  0  0  0  0  0  0  0  0
   17.9388  -10.0599  -15.0793 C   0  0  0  0  0  0  0  0  0  0  0  0
   17.9172  -11.1558  -15.6873 O   0  0  0  0  0  0  0  0  0  0  0  0
   19.1617   -9.2496  -14.9958 C   0  0  0  0  0  0  0  0  0  0  0  0
   20.4543   -9.9789  -15.0692 C   0  0  0  0  0  0  0  0  0  0  0  0
   21.5802   -9.3445  -15.7901 C   0  0  2  0  0  0  0  0  0  0  0  0
   22.7254  -10.2541  -15.6361 N   0  0  0  0  0  0  0  0  0  0  0  0
   21.9850   -7.9880  -15.4395 C   0  0  0  0  0  0  0  0  0  0  0  0
   22.6684   -7.6728  -14.4313 O   0  0  0  0  0  0  0  0  0  0  0  0
   21.6175   -6.8457  -16.2532 N   0  0  0  0  0  0  0  0  0  0  0  0
   21.9897   -5.5015  -15.8969 C   0  0  1  0  0  0  0  0  0  0  0  0
   21.7361   -4.4814  -16.9522 C   0  0  0  0  0  0  0  0  0  0  0  0
   22.1194   -3.0710  -16.5735 C   0  0  0  0  0  0  0  0  0  0  0  0
   21.7490   -2.0984  -17.6724 C   0  0  0  0  0  0  0  0  0  0  0  0
   22.1799   -0.6874  -17.3220 C   0  0  0  0  0  0  0  0  0  0  0  0
   21.7704    0.1834  -18.4303 N   0  0  0  0  0  0  0  0  0  0  0  0
   21.2291   -5.0471  -14.6758 C   0  0  0  0  0  0  0  0  0  0  0  0
   21.9246   -4.2774  -13.7491 O   0  0  0  0  0  0  0  0  0  0  0  0
   20.0349   -5.3688  -14.5432 O   0  0  0  0  0  0  0  0  0  0  0  0
  2  1  1  6
  2 10  1  0
  3  2  1  0
  3  4  1  0
  4  5  2  0
  5  6  1  0
  7  6  2  0
  8  7  1  0
  9  4  1  0
  9  8  2  0
 10 11  2  0
 12 13  1  0
 13 15  1  0
 14 13  2  0
 16 15  1  0
 17 16  1  1
 17 19  1  0
 18 17  1  0
 18 10  1  0
 19 21  1  0
 19 20  2  0
 21 22  1  0
 22 28  1  0
 22 23  1  6
 24 25  1  0
 24 23  1  0
 26 25  1  0
 27 26  1  0
 28 30  2  0
 28 29  1  0
M  END
$$$$
