FQK.pdb
     RDKit          3D

 30 30  0  0  1  0  0  0  0  0999 V2000
   28.3467  -21.4083   -9.0958 N   0  0  0  0  0  0  0  0  0  0  0  0
   27.0279  -20.8225   -8.9362 C   0  0  1  0  0  0  0  0  0  0  0  0
   27.2050  -19.4909   -8.2428 C   0  0  0  0  0  0  0  0  0  0  0  0
   27.8292  -19.7022   -6.9267 C   0  0  0  0  0  0  0  0  0  0  0  0
   27.2816  -20.5286   -5.9613 C   0  0  0  0  0  0  0  0  0  0  0  0
   27.8570  -20.7328   -4.7265 C   0  0  0  0  0  0  0  0  0  0  0  0
   29.0388  -20.0899   -4.4179 C   0  0  0  0  0  0  0  0  0  0  0  0
   29.6122  -19.2655   -5.3429 C   0  0  0  0  0  0  0  0  0  0  0  0
   29.0188  -19.0736   -6.5771 C   0  0  0  0  0  0  0  0  0  0  0  0
   26.3711  -20.6839  -10.2541 C   0  0  0  0  0  0  0  0  0  0  0  0
   26.8920  -19.9816  -11.1501 O   0  0  0  0  0  0  0  0  0  0  0  0
   25.4776  -21.3238  -14.9416 N   0  0  0  0  0  0  0  0  0  0  0  0
   26.4327  -22.1405  -14.2959 C   0  0  0  0  0  0  0  0  0  0  0  0
   27.5717  -22.2556  -14.8065 O   0  0  0  0  0  0  0  0  0  0  0  0
   26.0765  -22.8260  -13.0459 C   0  0  0  0  0  0  0  0  0  0  0  0
   24.7342  -22.5324  -12.4805 C   0  0  0  0  0  0  0  0  0  0  0  0
   24.5229  -21.2311  -11.8083 C   0  0  2  0  0  0  0  0  0  0  0  0
   25.1579  -21.3484  -10.4871 N   0  0  0  0  0  0  0  0  0  0  0  0
   23.1683  -20.7136  -11.6535 C   0  0  0  0  0  0  0  0  0  0  0  0
   22.4259  -20.9113  -10.6571 O   0  0  0  0  0  0  0  0  0  0  0  0
   22.5391  -19.8995  -12.6749 N   0  0  0  0  0  0  0  0  0  0  0  0
   21.1544  -19.5131  -12.5995 C   0  0  1  0  0  0  0  0  0  0  0  0
   20.7095  -18.5692  -13.6623 C   0  0  0  0  0  0  0  0  0  0  0  0
   21.4255  -18.7207  -14.9829 C   0  0  0  0  0  0  0  0  0  0  0  0
   20.9008  -17.7277  -15.9974 C   0  0  0  0  0  0  0  0  0  0  0  0
   21.6505  -17.8399  -17.3108 C   0  0  0  0  0  0  0  0  0  0  0  0
   21.1397  -16.7880  -18.1978 N   0  0  0  0  0  0  0  0  0  0  0  0
   20.2601  -20.7235  -12.7054 C   0  0  0  0  0  0  0  0  0  0  0  0
   20.7965  -21.8533  -13.3145 O   0  0  0  0  0  0  0  0  0  0  0  0
   19.1018  -20.6706  -12.2550 O   0  0  0  0  0  0  0  0  0  0  0  0
  2  1  1  6
  2 10  1  0
  3  2  1  0
  3  4  1  0
  4  5  2  0
  5  6  1  0
  7  6  2  0
  8  7  1  0
  9  4  1  0
  9  8  2  0
 10 11  2  0
 12 13  1  0
 13 15  1  0
 14 13  2  0
 16 15  1  0
 17 16  1  1
 17 19  1  0
 18 17  1  0
 18 10  1  0
 19 21  1  0
 19 20  2  0
 21 22  1  0
 22 28  1  0
 22 23  1  6
 24 25  1  0
 24 23  1  0
 26 25  1  0
 27 26  1  0
 28 30  2  0
 28 29  1  0
M  END
$$$$
