FQK.pdb
     RDKit          3D

 30 30  0  0  1  0  0  0  0  0999 V2000
   25.4525  -28.0159  -20.8338 N   0  0  0  0  0  0  0  0  0  0  0  0
   24.9069  -28.2112  -19.5027 C   0  0  1  0  0  0  0  0  0  0  0  0
   23.4115  -28.3800  -19.6468 C   0  0  0  0  0  0  0  0  0  0  0  0
   22.8073  -27.0939  -20.0306 C   0  0  0  0  0  0  0  0  0  0  0  0
   22.4600  -26.1235  -19.1073 C   0  0  0  0  0  0  0  0  0  0  0  0
   21.8935  -24.9172  -19.4557 C   0  0  0  0  0  0  0  0  0  0  0  0
   21.6524  -24.6441  -20.7870 C   0  0  0  0  0  0  0  0  0  0  0  0
   21.9805  -25.5752  -21.7301 C   0  0  0  0  0  0  0  0  0  0  0  0
   22.5485  -26.7805  -21.3601 C   0  0  0  0  0  0  0  0  0  0  0  0
   25.5426  -29.3819  -18.8601 C   0  0  0  0  0  0  0  0  0  0  0  0
   26.4244  -30.0340  -19.4638 O   0  0  0  0  0  0  0  0  0  0  0  0
   28.2602  -32.0487  -14.6236 N   0  0  0  0  0  0  0  0  0  0  0  0
   28.8335  -32.2151  -15.9041 C   0  0  0  0  0  0  0  0  0  0  0  0
   29.7839  -33.0212  -16.0392 O   0  0  0  0  0  0  0  0  0  0  0  0
   28.3035  -31.4520  -17.0425 C   0  0  0  0  0  0  0  0  0  0  0  0
   27.2375  -30.4604  -16.7455 C   0  0  0  0  0  0  0  0  0  0  0  0
   25.8261  -30.8752  -16.9055 C   0  0  2  0  0  0  0  0  0  0  0  0
   25.1449  -29.7521  -17.5668 N   0  0  0  0  0  0  0  0  0  0  0  0
   25.0609  -31.2876  -15.7345 C   0  0  0  0  0  0  0  0  0  0  0  0
   24.5735  -30.5082  -14.8753 O   0  0  0  0  0  0  0  0  0  0  0  0
   24.7900  -32.6832  -15.4504 N   0  0  0  0  0  0  0  0  0  0  0  0
   24.0204  -33.0953  -14.3056 C   0  0  1  0  0  0  0  0  0  0  0  0
   23.5771  -34.5171  -14.3286 C   0  0  0  0  0  0  0  0  0  0  0  0
   24.3300  -35.4294  -13.3904 C   0  0  0  0  0  0  0  0  0  0  0  0
   25.5447  -36.0207  -14.0728 C   0  0  0  0  0  0  0  0  0  0  0  0
   26.1360  -37.1514  -13.2535 C   0  0  0  0  0  0  0  0  0  0  0  0
   27.2777  -37.6860  -14.0051 N   0  0  0  0  0  0  0  0  0  0  0  0
   24.8205  -32.9206  -13.0387 C   0  0  0  0  0  0  0  0  0  0  0  0
   24.1241  -32.9958  -11.8368 O   0  0  0  0  0  0  0  0  0  0  0  0
   26.0460  -32.7201  -13.1108 O   0  0  0  0  0  0  0  0  0  0  0  0
  2  1  1  6
  2 10  1  0
  3  2  1  0
  3  4  1  0
  4  5  2  0
  5  6  1  0
  7  6  2  0
  8  7  1  0
  9  4  1  0
  9  8  2  0
 10 11  2  0
 12 13  1  0
 13 15  1  0
 14 13  2  0
 16 15  1  0
 17 16  1  1
 17 19  1  0
 18 17  1  0
 18 10  1  0
 19 21  1  0
 19 20  2  0
 21 22  1  0
 22 28  1  0
 22 23  1  6
 24 25  1  0
 24 23  1  0
 26 25  1  0
 27 26  1  0
 28 30  2  0
 28 29  1  0
M  END
$$$$
