FQK.pdb
     RDKit          3D

 30 30  0  0  1  0  0  0  0  0999 V2000
   25.7084  -21.5340  -15.0793 N   0  0  0  0  0  0  0  0  0  0  0  0
   25.5051  -20.4970  -14.0837 C   0  0  1  0  0  0  0  0  0  0  0  0
   25.5316  -19.1676  -14.8031 C   0  0  0  0  0  0  0  0  0  0  0  0
   26.8580  -18.9632  -15.4076 C   0  0  0  0  0  0  0  0  0  0  0  0
   28.0307  -19.0053  -14.6742 C   0  0  0  0  0  0  0  0  0  0  0  0
   29.2767  -18.8148  -15.2298 C   0  0  0  0  0  0  0  0  0  0  0  0
   29.3815  -18.5684  -16.5838 C   0  0  0  0  0  0  0  0  0  0  0  0
   28.2481  -18.5188  -17.3436 C   0  0  0  0  0  0  0  0  0  0  0  0
   27.0063  -18.7127  -16.7669 C   0  0  0  0  0  0  0  0  0  0  0  0
   24.2291  -20.7214  -13.3702 C   0  0  0  0  0  0  0  0  0  0  0  0
   23.3164  -21.3935  -13.9017 O   0  0  0  0  0  0  0  0  0  0  0  0
   19.4072  -20.7278   -9.6065 N   0  0  0  0  0  0  0  0  0  0  0  0
   20.7544  -21.0864   -9.3771 C   0  0  0  0  0  0  0  0  0  0  0  0
   21.0681  -22.2997   -9.4017 O   0  0  0  0  0  0  0  0  0  0  0  0
   21.7525  -20.0381   -9.1243 C   0  0  0  0  0  0  0  0  0  0  0  0
   22.9346  -20.0082  -10.0241 C   0  0  0  0  0  0  0  0  0  0  0  0
   22.7205  -20.2115  -11.4742 C   0  0  2  0  0  0  0  0  0  0  0  0
   24.0547  -20.1717  -12.0914 N   0  0  0  0  0  0  0  0  0  0  0  0
   21.8214  -19.3216  -12.1997 C   0  0  0  0  0  0  0  0  0  0  0  0
   22.1804  -18.3315  -12.8881 O   0  0  0  0  0  0  0  0  0  0  0  0
   20.3838  -19.5091  -12.1856 N   0  0  0  0  0  0  0  0  0  0  0  0
   19.6000  -19.5040  -13.3931 C   0  0  1  0  0  0  0  0  0  0  0  0
   19.9834  -20.5400  -14.3922 C   0  0  0  0  0  0  0  0  0  0  0  0
   19.1690  -20.5244  -15.6635 C   0  0  0  0  0  0  0  0  0  0  0  0
   19.6592  -21.5806  -16.6305 C   0  0  0  0  0  0  0  0  0  0  0  0
   18.8409  -21.5752  -17.9071 C   0  0  0  0  0  0  0  0  0  0  0  0
   19.4789  -22.5116  -18.8400 N   0  0  0  0  0  0  0  0  0  0  0  0
   18.1426  -19.7355  -13.0796 C   0  0  0  0  0  0  0  0  0  0  0  0
   17.3079  -18.6228  -13.1009 O   0  0  0  0  0  0  0  0  0  0  0  0
   17.7472  -20.8857  -12.8192 O   0  0  0  0  0  0  0  0  0  0  0  0
  2  1  1  6
  2 10  1  0
  3  2  1  0
  3  4  1  0
  4  5  2  0
  5  6  1  0
  7  6  2  0
  8  7  1  0
  9  4  1  0
  9  8  2  0
 10 11  2  0
 12 13  1  0
 13 15  1  0
 14 13  2  0
 16 15  1  0
 17 16  1  1
 17 19  1  0
 18 17  1  0
 18 10  1  0
 19 21  1  0
 19 20  2  0
 21 22  1  0
 22 28  1  0
 22 23  1  6
 24 25  1  0
 24 23  1  0
 26 25  1  0
 27 26  1  0
 28 30  2  0
 28 29  1  0
M  END
$$$$
