FQK.pdb
     RDKit          3D

 30 30  0  0  1  0  0  0  0  0999 V2000
   20.9021  -10.4350  -13.5281 N   0  0  0  0  0  0  0  0  0  0  0  0
   20.9941   -9.0390  -13.1401 C   0  0  1  0  0  0  0  0  0  0  0  0
   22.2831   -8.4943  -13.7120 C   0  0  0  0  0  0  0  0  0  0  0  0
   22.8642   -9.4799  -14.6380 C   0  0  0  0  0  0  0  0  0  0  0  0
   22.6633   -9.4324  -16.0063 C   0  0  0  0  0  0  0  0  0  0  0  0
   23.2018  -10.3498  -16.8814 C   0  0  0  0  0  0  0  0  0  0  0  0
   23.9835  -11.3749  -16.3883 C   0  0  0  0  0  0  0  0  0  0  0  0
   24.2064  -11.4577  -15.0438 C   0  0  0  0  0  0  0  0  0  0  0  0
   23.6568  -10.5268  -14.1816 C   0  0  0  0  0  0  0  0  0  0  0  0
   19.8097   -8.2980  -13.6255 C   0  0  0  0  0  0  0  0  0  0  0  0
   19.1307   -8.7440  -14.5780 O   0  0  0  0  0  0  0  0  0  0  0  0
   15.7949   -5.9050   -9.9298 N   0  0  0  0  0  0  0  0  0  0  0  0
   17.1404   -6.2963   -9.7492 C   0  0  0  0  0  0  0  0  0  0  0  0
   17.5494   -6.5316   -8.5879 O   0  0  0  0  0  0  0  0  0  0  0  0
   18.0227   -6.4255  -10.9171 C   0  0  0  0  0  0  0  0  0  0  0  0
   17.4023   -6.2166  -12.2510 C   0  0  0  0  0  0  0  0  0  0  0  0
   18.2473   -6.3848  -13.4542 C   0  0  2  0  0  0  0  0  0  0  0  0
   19.4574   -7.0899  -13.0056 N   0  0  0  0  0  0  0  0  0  0  0  0
   18.6274   -5.2132  -14.2350 C   0  0  0  0  0  0  0  0  0  0  0  0
   19.7205   -4.5982  -14.1346 O   0  0  0  0  0  0  0  0  0  0  0  0
   17.7428   -4.6357  -15.2279 N   0  0  0  0  0  0  0  0  0  0  0  0
   18.1427   -3.5292  -16.0575 C   0  0  1  0  0  0  0  0  0  0  0  0
   17.5786   -3.5447  -17.4359 C   0  0  0  0  0  0  0  0  0  0  0  0
   18.0141   -2.3936  -18.3103 C   0  0  0  0  0  0  0  0  0  0  0  0
   17.4657   -2.5447  -19.7129 C   0  0  0  0  0  0  0  0  0  0  0  0
   18.0451   -1.4962  -20.6425 C   0  0  0  0  0  0  0  0  0  0  0  0
   17.4765   -1.7304  -21.9753 N   0  0  0  0  0  0  0  0  0  0  0  0
   17.7153   -2.2215  -15.4386 C   0  0  0  0  0  0  0  0  0  0  0  0
   18.3883   -1.0769  -15.8534 O   0  0  0  0  0  0  0  0  0  0  0  0
   16.7977   -2.2122  -14.5988 O   0  0  0  0  0  0  0  0  0  0  0  0
  2  1  1  6
  2 10  1  0
  3  2  1  0
  3  4  1  0
  4  5  2  0
  5  6  1  0
  7  6  2  0
  8  7  1  0
  9  4  1  0
  9  8  2  0
 10 11  2  0
 12 13  1  0
 13 15  1  0
 14 13  2  0
 16 15  1  0
 17 16  1  1
 17 19  1  0
 18 17  1  0
 18 10  1  0
 19 21  1  0
 19 20  2  0
 21 22  1  0
 22 28  1  0
 22 23  1  6
 24 25  1  0
 24 23  1  0
 26 25  1  0
 27 26  1  0
 28 30  2  0
 28 29  1  0
M  END
$$$$
