DNE.pdb
     RDKit          3D

 26 25  0  0  1  0  0  0  0  0999 V2000
    9.1610  -17.2656   16.4930 N   0  0  0  0  0  0  0  0  0  0  0  0
   10.4309  -16.6031   16.6213 C   0  0  1  0  0  0  0  0  0  0  0  0
   10.7135  -15.7324   15.4324 C   0  0  0  0  0  0  0  0  0  0  0  0
   10.8104  -16.4847   14.1754 C   0  0  0  0  0  0  0  0  0  0  0  0
   10.2721  -17.5932   14.0388 O   0  0  0  0  0  0  0  0  0  0  0  0
   10.5737  -15.8533   17.8793 C   0  0  0  0  0  0  0  0  0  0  0  0
   11.7149  -15.3057   18.1054 O   0  0  0  0  0  0  0  0  0  0  0  0
   11.5463  -15.8909   13.1253 O   0  0  0  0  0  0  0  0  0  0  0  0
    6.8312  -13.1130   19.0512 N   0  0  0  0  0  0  0  0  0  0  0  0
    8.1775  -13.1446   19.4809 C   0  0  0  0  0  0  0  0  0  0  0  0
    8.9785  -12.3223   18.9744 O   0  0  0  0  0  0  0  0  0  0  0  0
    8.6904  -14.0770   20.4809 C   0  0  0  0  0  0  0  0  0  0  0  0
    9.7752  -14.9901   20.0475 C   0  0  2  0  0  0  0  0  0  0  0  0
    9.5420  -15.7102   18.8388 N   0  0  0  0  0  0  0  0  0  0  0  0
   10.0250  -15.9270   21.2084 C   0  0  0  0  0  0  0  0  0  0  0  0
    9.1252  -16.5858   21.7432 O   0  0  0  0  0  0  0  0  0  0  0  0
   11.3414  -16.0534   21.7011 N   0  0  0  0  0  0  0  0  0  0  0  0
   11.6434  -16.9052   22.8263 C   0  0  1  0  0  0  0  0  0  0  0  0
   12.7360  -17.8453   22.3632 C   0  0  0  0  0  0  0  0  0  0  0  0
   12.1287  -18.6521   21.2029 C   0  0  0  0  0  0  0  0  0  0  0  0
   13.0884  -19.6585   20.7142 C   0  0  0  0  0  0  0  0  0  0  0  0
   14.0651  -19.9638   21.4337 O   0  0  0  0  0  0  0  0  0  0  0  0
   11.9741  -16.1843   24.0430 C   0  0  0  0  0  0  0  0  0  0  0  0
   12.1468  -14.9533   24.0130 O   0  0  0  0  0  0  0  0  0  0  0  0
   12.9415  -20.2781   19.4878 O   0  0  0  0  0  0  0  0  0  0  0  0
   12.1012  -16.8448   25.2415 O   0  0  0  0  0  0  0  0  0  0  0  0
  2  3  1  0
  2  1  1  6
  4  8  1  0
  4  3  1  0
  5  4  2  0
  6  2  1  0
  7  6  2  0
  9 10  1  0
 10 12  1  0
 11 10  2  0
 13 12  1  1
 13 14  1  0
 14  6  1  0
 15 17  1  0
 15 13  1  0
 16 15  2  0
 18 23  1  0
 18 17  1  0
 18 19  1  6
 19 20  1  0
 21 22  2  0
 21 20  1  0
 23 26  1  0
 24 23  2  0
 25 21  1  0
M  END
$$$$
