DNE.pdb
     RDKit          3D

 26 25  0  0  1  0  0  0  0  0999 V2000
    9.4735  -16.8199   15.4897 N   0  0  0  0  0  0  0  0  0  0  0  0
   10.7278  -16.1170   15.5169 C   0  0  1  0  0  0  0  0  0  0  0  0
   10.8975  -15.2584   14.2981 C   0  0  0  0  0  0  0  0  0  0  0  0
   10.9366  -16.0294   13.0492 C   0  0  0  0  0  0  0  0  0  0  0  0
   10.0667  -16.8700   12.7774 O   0  0  0  0  0  0  0  0  0  0  0  0
   10.9361  -15.3419   16.7502 C   0  0  0  0  0  0  0  0  0  0  0  0
   12.0591  -14.7273   16.8700 O   0  0  0  0  0  0  0  0  0  0  0  0
   12.0112  -15.7729   12.1682 O   0  0  0  0  0  0  0  0  0  0  0  0
    8.5763  -12.3833   18.1321 N   0  0  0  0  0  0  0  0  0  0  0  0
    8.3224  -13.0746   19.3386 C   0  0  0  0  0  0  0  0  0  0  0  0
    7.3145  -12.7431   20.0083 O   0  0  0  0  0  0  0  0  0  0  0  0
    9.1635  -14.1531   19.8505 C   0  0  0  0  0  0  0  0  0  0  0  0
   10.3107  -14.5630   19.0054 C   0  0  2  0  0  0  0  0  0  0  0  0
    9.9852  -15.2434   17.7950 N   0  0  0  0  0  0  0  0  0  0  0  0
   11.2037  -15.4055   19.8888 C   0  0  0  0  0  0  0  0  0  0  0  0
   11.0687  -16.6294   20.0051 O   0  0  0  0  0  0  0  0  0  0  0  0
   12.2343  -14.7662   20.6105 N   0  0  0  0  0  0  0  0  0  0  0  0
   13.1834  -15.5214   21.3925 C   0  0  1  0  0  0  0  0  0  0  0  0
   14.4667  -14.7183   21.3903 C   0  0  0  0  0  0  0  0  0  0  0  0
   15.4955  -15.5730   22.1500 C   0  0  0  0  0  0  0  0  0  0  0  0
   16.8546  -15.0333   21.9649 C   0  0  0  0  0  0  0  0  0  0  0  0
   17.1043  -13.8726   22.3589 O   0  0  0  0  0  0  0  0  0  0  0  0
   12.7145  -15.8639   22.7239 C   0  0  0  0  0  0  0  0  0  0  0  0
   11.7347  -15.2748   23.2125 O   0  0  0  0  0  0  0  0  0  0  0  0
   17.8627  -15.7701   21.3731 O   0  0  0  0  0  0  0  0  0  0  0  0
   13.3408  -16.8389   23.4628 O   0  0  0  0  0  0  0  0  0  0  0  0
  2  3  1  0
  2  1  1  1
  4  8  1  0
  4  3  1  0
  5  4  2  0
  6  2  1  0
  7  6  2  0
  9 10  1  0
 10 12  1  0
 11 10  2  0
 13 12  1  1
 13 14  1  0
 14  6  1  0
 15 17  1  0
 15 13  1  0
 16 15  2  0
 18 23  1  0
 18 17  1  0
 18 19  1  1
 19 20  1  0
 21 22  2  0
 21 20  1  0
 23 26  1  0
 24 23  2  0
 25 21  1  0
M  END
$$$$
