DNE.pdb
     RDKit          3D

 26 25  0  0  1  0  0  0  0  0999 V2000
   12.4926  -15.7657   17.2459 N   0  0  0  0  0  0  0  0  0  0  0  0
   13.0971  -15.0387   18.3295 C   0  0  1  0  0  0  0  0  0  0  0  0
   13.8680  -13.8535   17.8271 C   0  0  0  0  0  0  0  0  0  0  0  0
   14.9625  -14.2189   16.9192 C   0  0  0  0  0  0  0  0  0  0  0  0
   14.7866  -14.9971   15.9701 O   0  0  0  0  0  0  0  0  0  0  0  0
   12.1398  -14.6490   19.3769 C   0  0  0  0  0  0  0  0  0  0  0  0
   12.6225  -14.0888   20.4288 O   0  0  0  0  0  0  0  0  0  0  0  0
   16.2285  -13.6454   17.1742 O   0  0  0  0  0  0  0  0  0  0  0  0
    7.7450  -13.4020   17.9312 N   0  0  0  0  0  0  0  0  0  0  0  0
    8.1599  -13.2672   19.2758 C   0  0  0  0  0  0  0  0  0  0  0  0
    8.2630  -12.1097   19.7488 O   0  0  0  0  0  0  0  0  0  0  0  0
    8.4741  -14.3963   20.1470 C   0  0  0  0  0  0  0  0  0  0  0  0
    9.9088  -14.6427   20.4287 C   0  0  2  0  0  0  0  0  0  0  0  0
   10.7419  -14.8593   19.2917 N   0  0  0  0  0  0  0  0  0  0  0  0
    9.9548  -15.8189   21.3783 C   0  0  0  0  0  0  0  0  0  0  0  0
    9.4726  -16.9235   21.1006 O   0  0  0  0  0  0  0  0  0  0  0  0
   10.5745  -15.6470   22.6346 N   0  0  0  0  0  0  0  0  0  0  0  0
   10.5773  -16.7005   23.6209 C   0  0  1  0  0  0  0  0  0  0  0  0
   11.9268  -17.3780   23.5116 C   0  0  0  0  0  0  0  0  0  0  0  0
   12.9699  -16.2576   23.6613 C   0  0  0  0  0  0  0  0  0  0  0  0
   14.3351  -16.8052   23.5665 C   0  0  0  0  0  0  0  0  0  0  0  0
   14.5120  -17.8922   22.9731 O   0  0  0  0  0  0  0  0  0  0  0  0
   10.2587  -16.2537   24.9657 C   0  0  0  0  0  0  0  0  0  0  0  0
   10.0856  -15.0446   25.1983 O   0  0  0  0  0  0  0  0  0  0  0  0
   15.4264  -16.1542   24.1093 O   0  0  0  0  0  0  0  0  0  0  0  0
   10.1432  -17.1530   25.9986 O   0  0  0  0  0  0  0  0  0  0  0  0
  2  3  1  0
  2  1  1  6
  4  8  1  0
  4  3  1  0
  5  4  2  0
  6  2  1  0
  7  6  2  0
  9 10  1  0
 10 12  1  0
 11 10  2  0
 13 12  1  6
 13 14  1  0
 14  6  1  0
 15 17  1  0
 15 13  1  0
 16 15  2  0
 18 23  1  0
 18 17  1  0
 18 19  1  1
 19 20  1  0
 21 22  2  0
 21 20  1  0
 23 26  1  0
 24 23  2  0
 25 21  1  0
M  END
$$$$
