DNE.pdb
     RDKit          3D

 26 25  0  0  1  0  0  0  0  0999 V2000
    7.9589  -17.5983   17.2739 N   0  0  0  0  0  0  0  0  0  0  0  0
    8.8748  -16.4983   17.1364 C   0  0  1  0  0  0  0  0  0  0  0  0
    8.3807  -15.5005   16.1306 C   0  0  0  0  0  0  0  0  0  0  0  0
    8.3505  -16.0276   14.7607 C   0  0  0  0  0  0  0  0  0  0  0  0
    8.1315  -17.2261   14.5306 O   0  0  0  0  0  0  0  0  0  0  0  0
    9.2046  -15.8498   18.4154 C   0  0  0  0  0  0  0  0  0  0  0  0
   10.0761  -14.9050   18.3825 O   0  0  0  0  0  0  0  0  0  0  0  0
    8.5835  -15.1089   13.7126 O   0  0  0  0  0  0  0  0  0  0  0  0
    7.1103  -13.5193   20.2045 N   0  0  0  0  0  0  0  0  0  0  0  0
    7.0329  -14.2318   21.4229 C   0  0  0  0  0  0  0  0  0  0  0  0
    6.0710  -13.9867   22.1903 O   0  0  0  0  0  0  0  0  0  0  0  0
    8.0058  -15.2377   21.8400 C   0  0  0  0  0  0  0  0  0  0  0  0
    9.0664  -15.5853   20.8639 C   0  0  2  0  0  0  0  0  0  0  0  0
    8.6280  -16.2083   19.6582 N   0  0  0  0  0  0  0  0  0  0  0  0
   10.0533  -16.4571   21.6080 C   0  0  0  0  0  0  0  0  0  0  0  0
    9.9238  -17.6833   21.7049 O   0  0  0  0  0  0  0  0  0  0  0  0
   11.1687  -15.8436   22.2172 N   0  0  0  0  0  0  0  0  0  0  0  0
   12.1976  -16.6252   22.8599 C   0  0  1  0  0  0  0  0  0  0  0  0
   13.5065  -15.9232   22.5669 C   0  0  0  0  0  0  0  0  0  0  0  0
   14.5976  -16.7794   23.2321 C   0  0  0  0  0  0  0  0  0  0  0  0
   15.9291  -16.1894   23.0047 C   0  0  0  0  0  0  0  0  0  0  0  0
   16.6440  -16.6441   22.0844 O   0  0  0  0  0  0  0  0  0  0  0  0
   11.9673  -16.8585   24.2749 C   0  0  0  0  0  0  0  0  0  0  0  0
   11.1601  -16.1506   24.9020 O   0  0  0  0  0  0  0  0  0  0  0  0
   16.4114  -15.1475   23.7737 O   0  0  0  0  0  0  0  0  0  0  0  0
   12.6326  -17.8591   24.9419 O   0  0  0  0  0  0  0  0  0  0  0  0
  2  3  1  0
  2  1  1  1
  4  8  1  0
  4  3  1  0
  5  4  2  0
  6  2  1  0
  7  6  2  0
  9 10  1  0
 10 12  1  0
 11 10  2  0
 13 12  1  1
 13 14  1  0
 14  6  1  0
 15 17  1  0
 15 13  1  0
 16 15  2  0
 18 23  1  0
 18 17  1  0
 18 19  1  1
 19 20  1  0
 21 22  2  0
 21 20  1  0
 23 26  1  0
 24 23  2  0
 25 21  1  0
M  END
$$$$
