DNE.pdb
     RDKit          3D

 26 25  0  0  1  0  0  0  0  0999 V2000
    8.5473  -16.8072   15.4340 N   0  0  0  0  0  0  0  0  0  0  0  0
    9.6761  -15.9654   15.1421 C   0  0  1  0  0  0  0  0  0  0  0  0
    9.4255  -15.1200   13.9280 C   0  0  0  0  0  0  0  0  0  0  0  0
    9.2660  -15.9071   12.6989 C   0  0  0  0  0  0  0  0  0  0  0  0
    9.1318  -17.1393   12.7296 O   0  0  0  0  0  0  0  0  0  0  0  0
   10.1037  -15.1447   16.2861 C   0  0  0  0  0  0  0  0  0  0  0  0
   11.1912  -14.4728   16.1476 O   0  0  0  0  0  0  0  0  0  0  0  0
    9.2731  -15.1990   11.4761 O   0  0  0  0  0  0  0  0  0  0  0  0
    7.7793  -12.4321   18.2696 N   0  0  0  0  0  0  0  0  0  0  0  0
    7.9490  -13.1236   19.4907 C   0  0  0  0  0  0  0  0  0  0  0  0
    7.1250  -12.9065   20.4117 O   0  0  0  0  0  0  0  0  0  0  0  0
    9.0260  -14.0770   19.7426 C   0  0  0  0  0  0  0  0  0  0  0  0
    9.9508  -14.3518   18.6167 C   0  0  2  0  0  0  0  0  0  0  0  0
    9.3972  -15.0617   17.5107 N   0  0  0  0  0  0  0  0  0  0  0  0
   11.1296  -15.0896   19.2115 C   0  0  0  0  0  0  0  0  0  0  0  0
   11.1228  -16.3094   19.4157 O   0  0  0  0  0  0  0  0  0  0  0  0
   12.2858  -14.3532   19.5471 N   0  0  0  0  0  0  0  0  0  0  0  0
   13.4346  -14.9903   20.1447 C   0  0  1  0  0  0  0  0  0  0  0  0
   14.6237  -14.1137   19.8137 C   0  0  0  0  0  0  0  0  0  0  0  0
   15.8631  -14.8999   20.2738 C   0  0  0  0  0  0  0  0  0  0  0  0
   17.0965  -14.1697   19.9300 C   0  0  0  0  0  0  0  0  0  0  0  0
   17.0113  -12.9789   19.5563 O   0  0  0  0  0  0  0  0  0  0  0  0
   13.2899  -15.2615   21.5643 C   0  0  0  0  0  0  0  0  0  0  0  0
   12.4628  -14.6261   22.2410 O   0  0  0  0  0  0  0  0  0  0  0  0
   18.3443  -14.7578   20.0106 O   0  0  0  0  0  0  0  0  0  0  0  0
   14.0590  -16.2190   22.1811 O   0  0  0  0  0  0  0  0  0  0  0  0
  2  3  1  0
  2  1  1  1
  4  8  1  0
  4  3  1  0
  5  4  2  0
  6  2  1  0
  7  6  2  0
  9 10  1  0
 10 12  1  0
 11 10  2  0
 13 12  1  1
 13 14  1  0
 14  6  1  0
 15 17  1  0
 15 13  1  0
 16 15  2  0
 18 23  1  0
 18 17  1  0
 18 19  1  1
 19 20  1  0
 21 22  2  0
 21 20  1  0
 23 26  1  0
 24 23  2  0
 25 21  1  0
M  END
$$$$
