DNE.pdb
     RDKit          3D

 26 25  0  0  1  0  0  0  0  0999 V2000
   11.0234  -17.4707   16.0148 N   0  0  0  0  0  0  0  0  0  0  0  0
   11.3367  -16.1580   15.5181 C   0  0  1  0  0  0  0  0  0  0  0  0
   10.4381  -15.7782   14.3781 C   0  0  0  0  0  0  0  0  0  0  0  0
   10.5088  -16.7151   13.2499 C   0  0  0  0  0  0  0  0  0  0  0  0
   11.2561  -17.7042   13.2729 O   0  0  0  0  0  0  0  0  0  0  0  0
   11.3396  -15.1233   16.5643 C   0  0  0  0  0  0  0  0  0  0  0  0
   11.6449  -13.9281   16.2015 O   0  0  0  0  0  0  0  0  0  0  0  0
    9.6877  -16.4406   12.1331 O   0  0  0  0  0  0  0  0  0  0  0  0
    8.3975  -12.7570   20.1896 N   0  0  0  0  0  0  0  0  0  0  0  0
    8.0541  -13.2551   18.9120 C   0  0  0  0  0  0  0  0  0  0  0  0
    6.9800  -12.8638   18.3948 O   0  0  0  0  0  0  0  0  0  0  0  0
    8.8768  -14.1971   18.1583 C   0  0  0  0  0  0  0  0  0  0  0  0
   10.2471  -14.4429   18.6684 C   0  0  2  0  0  0  0  0  0  0  0  0
   11.0350  -15.3705   17.9251 N   0  0  0  0  0  0  0  0  0  0  0  0
   10.0876  -14.8829   20.1067 C   0  0  0  0  0  0  0  0  0  0  0  0
    9.4944  -14.2038   20.9532 O   0  0  0  0  0  0  0  0  0  0  0  0
   10.6399  -16.1214   20.4978 N   0  0  0  0  0  0  0  0  0  0  0  0
   11.7710  -16.1904   21.3914 C   0  0  1  0  0  0  0  0  0  0  0  0
   12.9090  -15.4818   20.6880 C   0  0  0  0  0  0  0  0  0  0  0  0
   14.1018  -15.5435   21.6571 C   0  0  0  0  0  0  0  0  0  0  0  0
   15.3049  -14.9616   21.0350 C   0  0  0  0  0  0  0  0  0  0  0  0
   16.2014  -15.7275   20.6171 O   0  0  0  0  0  0  0  0  0  0  0  0
   11.5044  -15.6802   22.7249 C   0  0  0  0  0  0  0  0  0  0  0  0
   10.4838  -15.0044   22.9432 O   0  0  0  0  0  0  0  0  0  0  0  0
   15.4723  -13.5971   20.8957 O   0  0  0  0  0  0  0  0  0  0  0  0
   12.3692  -15.9334   23.7626 O   0  0  0  0  0  0  0  0  0  0  0  0
  2  3  1  0
  2  1  1  1
  4  8  1  0
  4  3  1  0
  5  4  2  0
  6  2  1  0
  7  6  2  0
  9 10  1  0
 10 12  1  0
 11 10  2  0
 13 12  1  6
 13 14  1  0
 14  6  1  0
 15 17  1  0
 15 13  1  0
 16 15  2  0
 18 23  1  0
 18 17  1  0
 18 19  1  6
 19 20  1  0
 21 22  2  0
 21 20  1  0
 23 26  1  0
 24 23  2  0
 25 21  1  0
M  END
$$$$
