DNE.pdb
     RDKit          3D

 26 25  0  0  1  0  0  0  0  0999 V2000
   11.6141  -19.7838   18.4672 N   0  0  0  0  0  0  0  0  0  0  0  0
   12.3383  -18.5506   18.3165 C   0  0  1  0  0  0  0  0  0  0  0  0
   11.8282  -17.7585   17.1487 C   0  0  0  0  0  0  0  0  0  0  0  0
   11.1343  -18.5822   16.1509 C   0  0  0  0  0  0  0  0  0  0  0  0
   10.9544  -19.7969   16.3231 O   0  0  0  0  0  0  0  0  0  0  0  0
   12.3675  -17.7372   19.5424 C   0  0  0  0  0  0  0  0  0  0  0  0
   13.0985  -16.6796   19.5232 O   0  0  0  0  0  0  0  0  0  0  0  0
   10.6798  -17.9306   14.9823 O   0  0  0  0  0  0  0  0  0  0  0  0
   10.2417  -15.1154   24.1765 N   0  0  0  0  0  0  0  0  0  0  0  0
   10.7411  -16.4281   24.0171 C   0  0  0  0  0  0  0  0  0  0  0  0
   11.3358  -16.9557   24.9878 O   0  0  0  0  0  0  0  0  0  0  0  0
   10.6040  -17.2069   22.7894 C   0  0  0  0  0  0  0  0  0  0  0  0
   11.7788  -17.2398   21.8854 C   0  0  2  0  0  0  0  0  0  0  0  0
   11.6511  -18.0547   20.7221 N   0  0  0  0  0  0  0  0  0  0  0  0
   12.9519  -17.6729   22.7362 C   0  0  0  0  0  0  0  0  0  0  0  0
   13.1570  -18.8532   23.0437 O   0  0  0  0  0  0  0  0  0  0  0  0
   13.8498  -16.6869   23.1982 N   0  0  0  0  0  0  0  0  0  0  0  0
   15.0177  -17.0374   23.9702 C   0  0  1  0  0  0  0  0  0  0  0  0
   15.9937  -15.8922   23.8033 C   0  0  0  0  0  0  0  0  0  0  0  0
   17.1803  -16.4670   23.0111 C   0  0  0  0  0  0  0  0  0  0  0  0
   18.2043  -15.4306   22.7877 C   0  0  0  0  0  0  0  0  0  0  0  0
   18.2070  -14.8053   21.7042 O   0  0  0  0  0  0  0  0  0  0  0  0
   14.7351  -17.3626   25.3573 C   0  0  0  0  0  0  0  0  0  0  0  0
   13.6965  -16.9449   25.8983 O   0  0  0  0  0  0  0  0  0  0  0  0
   19.1594  -15.1253   23.7384 O   0  0  0  0  0  0  0  0  0  0  0  0
   15.6044  -18.1329   26.0920 O   0  0  0  0  0  0  0  0  0  0  0  0
  2  3  1  0
  2  1  1  1
  4  8  1  0
  4  3  1  0
  5  4  2  0
  6  2  1  0
  7  6  2  0
  9 10  1  0
 10 12  1  0
 11 10  2  0
 13 12  1  1
 13 14  1  0
 14  6  1  0
 15 17  1  0
 15 13  1  0
 16 15  2  0
 18 23  1  0
 18 17  1  0
 18 19  1  1
 19 20  1  0
 21 22  2  0
 21 20  1  0
 23 26  1  0
 24 23  2  0
 25 21  1  0
M  END
$$$$
