DNE.pdb
     RDKit          3D

 26 25  0  0  1  0  0  0  0  0999 V2000
    8.4644  -17.7463   19.8042 N   0  0  0  0  0  0  0  0  0  0  0  0
    9.5605  -16.8178   19.8700 C   0  0  1  0  0  0  0  0  0  0  0  0
    9.5960  -15.9304   18.6606 C   0  0  0  0  0  0  0  0  0  0  0  0
    9.5333  -16.6742   17.3963 C   0  0  0  0  0  0  0  0  0  0  0  0
    9.4509  -17.9111   17.3739 O   0  0  0  0  0  0  0  0  0  0  0  0
    9.5843  -16.0297   21.1124 C   0  0  0  0  0  0  0  0  0  0  0  0
   10.5502  -15.1928   21.2536 O   0  0  0  0  0  0  0  0  0  0  0  0
    9.5722  -15.9186   16.2028 O   0  0  0  0  0  0  0  0  0  0  0  0
    7.9639  -12.8474   25.4714 N   0  0  0  0  0  0  0  0  0  0  0  0
    7.6954  -14.2201   25.2669 C   0  0  0  0  0  0  0  0  0  0  0  0
    7.5592  -14.9520   26.2768 O   0  0  0  0  0  0  0  0  0  0  0  0
    7.5658  -14.8358   23.9491 C   0  0  0  0  0  0  0  0  0  0  0  0
    8.7900  -15.4414   23.3722 C   0  0  2  0  0  0  0  0  0  0  0  0
    8.6210  -16.1461   22.1439 N   0  0  0  0  0  0  0  0  0  0  0  0
    9.3629  -16.3372   24.4478 C   0  0  0  0  0  0  0  0  0  0  0  0
    8.8573  -17.4235   24.7545 O   0  0  0  0  0  0  0  0  0  0  0  0
   10.5239  -15.9141   25.1296 N   0  0  0  0  0  0  0  0  0  0  0  0
   11.1490  -16.7417   26.1331 C   0  0  1  0  0  0  0  0  0  0  0  0
   12.6400  -16.6502   25.8874 C   0  0  0  0  0  0  0  0  0  0  0  0
   12.8346  -16.9367   24.3888 C   0  0  0  0  0  0  0  0  0  0  0  0
   14.2679  -16.9452   24.0451 C   0  0  0  0  0  0  0  0  0  0  0  0
   14.8533  -15.8550   23.8612 O   0  0  0  0  0  0  0  0  0  0  0  0
   10.7633  -16.4147   27.4948 C   0  0  0  0  0  0  0  0  0  0  0  0
   11.1906  -17.0925   28.4455 O   0  0  0  0  0  0  0  0  0  0  0  0
   14.9866  -18.1191   23.9229 O   0  0  0  0  0  0  0  0  0  0  0  0
    9.9248  -15.3575   27.7555 O   0  0  0  0  0  0  0  0  0  0  0  0
  2  3  1  0
  2  1  1  6
  4  8  1  0
  4  3  1  0
  5  4  2  0
  6  2  1  0
  7  6  2  0
  9 10  1  0
 10 12  1  0
 11 10  2  0
 13 12  1  1
 13 14  1  0
 14  6  1  0
 15 17  1  0
 15 13  1  0
 16 15  2  0
 18 23  1  0
 18 17  1  0
 18 19  1  1
 19 20  1  0
 21 22  2  0
 21 20  1  0
 23 26  1  0
 24 23  2  0
 25 21  1  0
M  END
$$$$
