LRL.pdb
     RDKit          3D

 28 27  0  0  1  0  0  0  0  0999 V2000
   28.5609  -19.1213   -6.5758 C   0  0  0  0  0  0  0  0  0  0  0  0
   27.8411  -20.2254   -7.3117 C   0  0  1  0  0  0  0  0  0  0  0  0
   26.6563  -20.6289   -6.4612 C   0  0  0  0  0  0  0  0  0  0  0  0
   27.3954  -19.6995   -8.6613 C   0  0  0  0  0  0  0  0  0  0  0  0
   26.3489  -20.5850   -9.2853 C   0  0  2  0  0  0  0  0  0  0  0  0
   26.9526  -21.7776   -9.8548 N   0  0  0  0  0  0  0  0  0  0  0  0
   25.6510  -19.7967  -10.3365 C   0  0  0  0  0  0  0  0  0  0  0  0
   25.6542  -18.5497  -10.2843 O   0  0  0  0  0  0  0  0  0  0  0  0
   28.3157  -22.2038  -15.0223 N   0  0  0  0  0  0  0  0  0  0  0  0
   27.9771  -21.2803  -16.0386 C   0  0  0  0  0  0  0  0  0  0  0  0
   27.8425  -21.7013  -17.2443 N   0  0  0  0  0  0  0  0  0  0  0  0
   27.7791  -19.8943  -15.7720 N   0  0  0  0  0  0  0  0  0  0  0  0
   27.6724  -19.3637  -14.4411 C   0  0  0  0  0  0  0  0  0  0  0  0
   26.4923  -20.0188  -13.7585 C   0  0  0  0  0  0  0  0  0  0  0  0
   25.5338  -19.0434  -13.1817 C   0  0  0  0  0  0  0  0  0  0  0  0
   24.3587  -19.6380  -12.4459 C   0  0  2  0  0  0  0  0  0  0  0  0
   24.9940  -20.4622  -11.3796 N   0  0  0  0  0  0  0  0  0  0  0  0
   23.5558  -20.5257  -13.3187 C   0  0  0  0  0  0  0  0  0  0  0  0
   23.8286  -21.7671  -13.2786 O   0  0  0  0  0  0  0  0  0  0  0  0
   27.5713  -21.0593  -18.0254 C   0  0  0  0  0  0  0  0  0  0  0  0
   20.0984  -21.7006  -10.5916 C   0  0  1  0  0  0  0  0  0  0  0  0
   20.8088  -22.0025  -11.9501 C   0  0  0  0  0  0  0  0  0  0  0  0
   19.9669  -23.1532  -12.5212 C   0  0  0  0  0  0  0  0  0  0  0  0
   20.7515  -20.7713  -12.7716 C   0  0  2  0  0  0  0  0  0  0  0  0
   21.1936  -20.7764  -14.1678 N   0  0  0  0  0  0  0  0  0  0  0  0
   22.5205  -20.1111  -14.1808 C   0  0  0  0  0  0  0  0  0  0  0  0
   20.3866  -20.2047  -15.2199 O   0  0  0  0  0  0  0  0  0  0  0  0
   20.5230  -19.0924  -15.7910 O   0  0  0  0  0  0  0  0  0  0  0  0
  2  1  1  1
  2  3  1  0
  4  2  1  0
  5  4  1  0
  5  6  1  6
  7  5  1  0
  7  8  2  0
  9 10  1  0
 10 11  2  0
 10 12  1  0
 12 13  1  0
 13 14  1  0
 14 15  1  0
 16 15  1  6
 17 16  1  0
 17  7  1  0
 18 16  1  0
 19 18  2  0
 21 20  1  1
 21 22  1  0
 21 23  1  0
 24 23  1  1
 24 25  1  0
 24 26  1  0
 25 18  1  0
 26 28  1  0
 27 26  2  0
M  END
$$$$
