LRL.pdb
     RDKit          3D

 28 27  0  0  1  0  0  0  0  0999 V2000
   28.7288  -19.9814   -5.1727 C   0  0  0  0  0  0  0  0  0  0  0  0
   27.4125  -20.0925   -5.9032 C   0  0  1  0  0  0  0  0  0  0  0  0
   26.4840  -19.0561   -5.3084 C   0  0  0  0  0  0  0  0  0  0  0  0
   27.6517  -19.8350   -7.3773 C   0  0  0  0  0  0  0  0  0  0  0  0
   26.3878  -19.9914   -8.1816 C   0  0  2  0  0  0  0  0  0  0  0  0
   25.8524  -21.3354   -8.0482 N   0  0  0  0  0  0  0  0  0  0  0  0
   26.7109  -19.6936   -9.6030 C   0  0  0  0  0  0  0  0  0  0  0  0
   27.0639  -18.5428   -9.9330 O   0  0  0  0  0  0  0  0  0  0  0  0
   32.2391  -22.1194  -10.4136 N   0  0  0  0  0  0  0  0  0  0  0  0
   32.1376  -22.5069  -11.7701 C   0  0  0  0  0  0  0  0  0  0  0  0
   32.8386  -23.4976  -12.1898 N   0  0  0  0  0  0  0  0  0  0  0  0
   31.2824  -21.8351  -12.6912 N   0  0  0  0  0  0  0  0  0  0  0  0
   30.3842  -20.7849  -12.2980 C   0  0  0  0  0  0  0  0  0  0  0  0
   29.2126  -21.4054  -11.5700 C   0  0  0  0  0  0  0  0  0  0  0  0
   27.9610  -21.4057  -12.3677 C   0  0  0  0  0  0  0  0  0  0  0  0
   26.9363  -20.3697  -11.9772 C   0  0  2  0  0  0  0  0  0  0  0  0
   26.6161  -20.7100  -10.5624 N   0  0  0  0  0  0  0  0  0  0  0  0
   25.7008  -20.4865  -12.7862 C   0  0  0  0  0  0  0  0  0  0  0  0
   25.7876  -20.1648  -14.0134 O   0  0  0  0  0  0  0  0  0  0  0  0
   32.7852  -23.8300  -13.1810 C   0  0  0  0  0  0  0  0  0  0  0  0
   22.4740  -23.9693  -15.4101 C   0  0  2  0  0  0  0  0  0  0  0  0
   22.1155  -22.5949  -14.7591 C   0  0  0  0  0  0  0  0  0  0  0  0
   20.8116  -22.9075  -14.0101 C   0  0  0  0  0  0  0  0  0  0  0  0
   23.2311  -22.2177  -13.8605 C   0  0  1  0  0  0  0  0  0  0  0  0
   23.2477  -20.9181  -13.1855 N   0  0  0  0  0  0  0  0  0  0  0  0
   24.4478  -20.9244  -12.3119 C   0  0  0  0  0  0  0  0  0  0  0  0
   22.1218  -20.4529  -12.4102 O   0  0  0  0  0  0  0  0  0  0  0  0
   22.0469  -20.2863  -11.1658 O   0  0  0  0  0  0  0  0  0  0  0  0
  2  1  1  1
  2  3  1  0
  4  2  1  0
  5  4  1  0
  5  6  1  6
  7  5  1  0
  7  8  2  0
  9 10  1  0
 10 11  2  0
 10 12  1  0
 12 13  1  0
 13 14  1  0
 14 15  1  0
 16 15  1  6
 17 16  1  0
 17  7  1  0
 18 16  1  0
 19 18  2  0
 21 20  1  6
 21 22  1  0
 21 23  1  0
 24 23  1  6
 24 25  1  0
 24 26  1  0
 25 18  1  0
 26 28  1  0
 27 26  2  0
M  END
$$$$
