LRL.pdb
     RDKit          3D

 28 27  0  0  1  0  0  0  0  0999 V2000
   25.4738  -12.8259  -14.8841 C   0  0  0  0  0  0  0  0  0  0  0  0
   26.1402  -13.7837  -15.8417 C   0  0  1  0  0  0  0  0  0  0  0  0
   27.3488  -14.3544  -15.1320 C   0  0  0  0  0  0  0  0  0  0  0  0
   25.1516  -14.8729  -16.2062 C   0  0  0  0  0  0  0  0  0  0  0  0
   25.8125  -15.9921  -16.9672 C   0  0  2  0  0  0  0  0  0  0  0  0
   26.2073  -15.5530  -18.2947 N   0  0  0  0  0  0  0  0  0  0  0  0
   24.8457  -17.1197  -17.0531 C   0  0  0  0  0  0  0  0  0  0  0  0
   23.9352  -17.0952  -17.9065 O   0  0  0  0  0  0  0  0  0  0  0  0
   25.8444  -22.8957  -13.0411 N   0  0  0  0  0  0  0  0  0  0  0  0
   24.8878  -23.8165  -13.5285 C   0  0  0  0  0  0  0  0  0  0  0  0
   24.3022  -24.6043  -12.7005 N   0  0  0  0  0  0  0  0  0  0  0  0
   24.5492  -23.9020  -14.9102 N   0  0  0  0  0  0  0  0  0  0  0  0
   25.1213  -23.0410  -15.9081 C   0  0  0  0  0  0  0  0  0  0  0  0
   24.1931  -21.8646  -16.1135 C   0  0  0  0  0  0  0  0  0  0  0  0
   24.8967  -20.5578  -16.1205 C   0  0  0  0  0  0  0  0  0  0  0  0
   24.0242  -19.3464  -16.3378 C   0  0  2  0  0  0  0  0  0  0  0  0
   24.9653  -18.2031  -16.1730 N   0  0  0  0  0  0  0  0  0  0  0  0
   22.9633  -19.2416  -15.3092 C   0  0  0  0  0  0  0  0  0  0  0  0
   23.2112  -18.5027  -14.3044 O   0  0  0  0  0  0  0  0  0  0  0  0
   23.7117  -25.4053  -13.0252 C   0  0  0  0  0  0  0  0  0  0  0  0
   20.0145  -16.7759  -12.5319 C   0  0  2  0  0  0  0  0  0  0  0  0
   19.4358  -17.2515  -13.9031 C   0  0  0  0  0  0  0  0  0  0  0  0
   19.0807  -15.9273  -14.5956 C   0  0  0  0  0  0  0  0  0  0  0  0
   20.4987  -18.0109  -14.6014 C   0  0  1  0  0  0  0  0  0  0  0  0
   20.5956  -19.4661  -14.4684 N   0  0  0  0  0  0  0  0  0  0  0  0
   21.7105  -19.8861  -15.3538 C   0  0  0  0  0  0  0  0  0  0  0  0
   19.4639  -20.3268  -14.7209 O   0  0  0  0  0  0  0  0  0  0  0  0
   19.1267  -20.8756  -15.8012 O   0  0  0  0  0  0  0  0  0  0  0  0
  2  1  1  1
  2  3  1  0
  4  2  1  0
  5  4  1  0
  5  6  1  6
  7  5  1  0
  7  8  2  0
  9 10  1  0
 10 11  2  0
 10 12  1  0
 12 13  1  0
 13 14  1  0
 14 15  1  0
 16 15  1  1
 17 16  1  0
 17  7  1  0
 18 16  1  0
 19 18  2  0
 21 20  1  1
 21 22  1  0
 21 23  1  0
 24 23  1  1
 24 25  1  0
 24 26  1  0
 25 18  1  0
 26 28  1  0
 27 26  2  0
M  END
$$$$
