LRL.pdb
     RDKit          3D

 28 27  0  0  1  0  0  0  0  0999 V2000
    9.5114   -5.4396   -7.7919 C   0  0  0  0  0  0  0  0  0  0  0  0
    9.9268   -6.8306   -8.2052 C   0  0  1  0  0  0  0  0  0  0  0  0
    9.5541   -6.9923   -9.6629 C   0  0  0  0  0  0  0  0  0  0  0  0
   11.4218   -6.9721   -8.0010 C   0  0  0  0  0  0  0  0  0  0  0  0
   11.9060   -8.3492   -8.3721 C   0  0  2  0  0  0  0  0  0  0  0  0
   11.5658   -9.3132   -7.3397 N   0  0  0  0  0  0  0  0  0  0  0  0
   13.3803   -8.2799   -8.5603 C   0  0  0  0  0  0  0  0  0  0  0  0
   14.1257   -8.1016   -7.5752 O   0  0  0  0  0  0  0  0  0  0  0  0
   17.4812  -12.0630  -15.0881 N   0  0  0  0  0  0  0  0  0  0  0  0
   16.8607  -10.7930  -15.0372 C   0  0  0  0  0  0  0  0  0  0  0  0
   16.3662  -10.2969  -16.1135 N   0  0  0  0  0  0  0  0  0  0  0  0
   16.7641  -10.0412  -13.8303 N   0  0  0  0  0  0  0  0  0  0  0  0
   17.3399  -10.4809  -12.5895 C   0  0  0  0  0  0  0  0  0  0  0  0
   17.0988   -9.4131  -11.5458 C   0  0  0  0  0  0  0  0  0  0  0  0
   15.6996   -9.3824  -11.0516 C   0  0  0  0  0  0  0  0  0  0  0  0
   15.4028   -8.3508   -9.9917 C   0  0  2  0  0  0  0  0  0  0  0  0
   13.9215   -8.4155   -9.8452 N   0  0  0  0  0  0  0  0  0  0  0  0
   15.7784   -6.9870  -10.4317 C   0  0  0  0  0  0  0  0  0  0  0  0
   15.0848   -6.4759  -11.3669 O   0  0  0  0  0  0  0  0  0  0  0  0
   15.9335   -9.3440  -16.1333 C   0  0  0  0  0  0  0  0  0  0  0  0
   16.4005   -2.6738   -7.4222 C   0  0  2  0  0  0  0  0  0  0  0  0
   15.9874   -3.5561   -8.6437 C   0  0  0  0  0  0  0  0  0  0  0  0
   15.1049   -2.6032   -9.4636 C   0  0  0  0  0  0  0  0  0  0  0  0
   17.2267   -3.9585   -9.3482 C   0  0  2  0  0  0  0  0  0  0  0  0
   17.1825   -4.8918  -10.4760 N   0  0  0  0  0  0  0  0  0  0  0  0
   16.8311   -6.2144   -9.9009 C   0  0  0  0  0  0  0  0  0  0  0  0
   18.3106   -5.0645  -11.3607 O   0  0  0  0  0  0  0  0  0  0  0  0
   19.0670   -6.0629  -11.4749 O   0  0  0  0  0  0  0  0  0  0  0  0
  2  1  1  6
  2  3  1  0
  4  2  1  0
  5  4  1  0
  5  6  1  1
  7  5  1  0
  7  8  2  0
  9 10  1  0
 10 11  2  0
 10 12  1  0
 12 13  1  0
 13 14  1  0
 14 15  1  0
 16 15  1  6
 17 16  1  0
 17  7  1  0
 18 16  1  0
 19 18  2  0
 21 20  1  1
 21 22  1  0
 21 23  1  0
 24 23  1  6
 24 25  1  0
 24 26  1  0
 25 18  1  0
 26 28  1  0
 27 26  2  0
M  END
$$$$
