LRL.pdb
     RDKit          3D

 28 27  0  0  1  0  0  0  0  0999 V2000
   29.3106  -18.8450   -5.8001 C   0  0  0  0  0  0  0  0  0  0  0  0
   28.1415  -19.7624   -6.0646 C   0  0  1  0  0  0  0  0  0  0  0  0
   27.2773  -19.7523   -4.8225 C   0  0  0  0  0  0  0  0  0  0  0  0
   27.3802  -19.2446   -7.2684 C   0  0  0  0  0  0  0  0  0  0  0  0
   26.2761  -20.1850   -7.6749 C   0  0  2  0  0  0  0  0  0  0  0  0
   26.7025  -21.5683   -7.5509 N   0  0  0  0  0  0  0  0  0  0  0  0
   25.9058  -19.8739   -9.0819 C   0  0  0  0  0  0  0  0  0  0  0  0
   25.6791  -18.6938   -9.4194 O   0  0  0  0  0  0  0  0  0  0  0  0
   26.4764  -24.5958  -15.0004 N   0  0  0  0  0  0  0  0  0  0  0  0
   26.3255  -23.5722  -15.9647 C   0  0  0  0  0  0  0  0  0  0  0  0
   25.7198  -23.8368  -17.0657 N   0  0  0  0  0  0  0  0  0  0  0  0
   26.8233  -22.2528  -15.7579 N   0  0  0  0  0  0  0  0  0  0  0  0
   27.3920  -21.8204  -14.5114 C   0  0  0  0  0  0  0  0  0  0  0  0
   26.3230  -21.0958  -13.7240 C   0  0  0  0  0  0  0  0  0  0  0  0
   26.4281  -21.3101  -12.2591 C   0  0  0  0  0  0  0  0  0  0  0  0
   25.4271  -20.5609  -11.4151 C   0  0  2  0  0  0  0  0  0  0  0  0
   25.8144  -20.9107  -10.0195 N   0  0  0  0  0  0  0  0  0  0  0  0
   24.0432  -21.0309  -11.6569 C   0  0  0  0  0  0  0  0  0  0  0  0
   23.4455  -21.5792  -10.6775 O   0  0  0  0  0  0  0  0  0  0  0  0
   25.6392  -23.1306  -17.8342 C   0  0  0  0  0  0  0  0  0  0  0  0
   19.5940  -20.4502  -10.5732 C   0  0  2  0  0  0  0  0  0  0  0  0
   20.0841  -19.4467  -11.6660 C   0  0  0  0  0  0  0  0  0  0  0  0
   19.8923  -18.0849  -10.9822 C   0  0  0  0  0  0  0  0  0  0  0  0
   21.5016  -19.7593  -11.9611 C   0  0  1  0  0  0  0  0  0  0  0  0
   21.8579  -20.8252  -12.9001 N   0  0  0  0  0  0  0  0  0  0  0  0
   23.3391  -20.9185  -12.8728 C   0  0  0  0  0  0  0  0  0  0  0  0
   21.4282  -20.7952  -14.2784 O   0  0  0  0  0  0  0  0  0  0  0  0
   21.9625  -20.2006  -15.2494 O   0  0  0  0  0  0  0  0  0  0  0  0
  2  1  1  1
  2  3  1  0
  4  2  1  0
  5  4  1  0
  5  6  1  6
  7  5  1  0
  7  8  2  0
  9 10  1  0
 10 11  2  0
 10 12  1  0
 12 13  1  0
 13 14  1  0
 14 15  1  0
 16 15  1  6
 17 16  1  0
 17  7  1  0
 18 16  1  0
 19 18  2  0
 21 20  1  6
 21 22  1  0
 21 23  1  0
 24 23  1  1
 24 25  1  0
 24 26  1  0
 25 18  1  0
 26 28  1  0
 27 26  2  0
M  END
$$$$
