LRL.pdb
     RDKit          3D

 28 27  0  0  1  0  0  0  0  0999 V2000
   18.5668  -21.3133  -16.8002 C   0  0  0  0  0  0  0  0  0  0  0  0
   19.5605  -20.3648  -16.1745 C   0  0  1  0  0  0  0  0  0  0  0  0
   18.7653  -19.3010  -15.4494 C   0  0  0  0  0  0  0  0  0  0  0  0
   20.4385  -21.1439  -15.2159 C   0  0  0  0  0  0  0  0  0  0  0  0
   21.3739  -20.2390  -14.4578 C   0  0  2  0  0  0  0  0  0  0  0  0
   22.0948  -19.3626  -15.3650 N   0  0  0  0  0  0  0  0  0  0  0  0
   22.3198  -21.0963  -13.6936 C   0  0  0  0  0  0  0  0  0  0  0  0
   21.8802  -21.9606  -12.9077 O   0  0  0  0  0  0  0  0  0  0  0  0
   27.7033  -21.5569  -18.0246 N   0  0  0  0  0  0  0  0  0  0  0  0
   27.2805  -20.2501  -17.6867 C   0  0  0  0  0  0  0  0  0  0  0  0
   26.9302  -19.4459  -18.6246 N   0  0  0  0  0  0  0  0  0  0  0  0
   27.2291  -19.7920  -16.3382 N   0  0  0  0  0  0  0  0  0  0  0  0
   27.0902  -20.6804  -15.2175 C   0  0  0  0  0  0  0  0  0  0  0  0
   25.7803  -21.4237  -15.3562 C   0  0  0  0  0  0  0  0  0  0  0  0
   25.5231  -22.3700  -14.2421 C   0  0  0  0  0  0  0  0  0  0  0  0
   24.6136  -21.8632  -13.1504 C   0  0  2  0  0  0  0  0  0  0  0  0
   23.6999  -20.9263  -13.8627 N   0  0  0  0  0  0  0  0  0  0  0  0
   25.3612  -21.1070  -12.1191 C   0  0  0  0  0  0  0  0  0  0  0  0
   24.8336  -20.0257  -11.7073 O   0  0  0  0  0  0  0  0  0  0  0  0
   26.6533  -18.4559  -18.4271 C   0  0  0  0  0  0  0  0  0  0  0  0
   25.2966  -20.6312   -7.0372 C   0  0  2  0  0  0  0  0  0  0  0  0
   26.1575  -19.9594   -8.1547 C   0  0  0  0  0  0  0  0  0  0  0  0
   27.5557  -19.9146   -7.5206 C   0  0  0  0  0  0  0  0  0  0  0  0
   26.0871  -20.8219   -9.3569 C   0  0  1  0  0  0  0  0  0  0  0  0
   27.1481  -20.7949  -10.3660 N   0  0  0  0  0  0  0  0  0  0  0  0
   26.5978  -21.4861  -11.5590 C   0  0  0  0  0  0  0  0  0  0  0  0
   28.4631  -21.3273  -10.0968 O   0  0  0  0  0  0  0  0  0  0  0  0
   28.9306  -22.4504  -10.4161 O   0  0  0  0  0  0  0  0  0  0  0  0
  2  1  1  1
  2  3  1  0
  4  2  1  0
  5  4  1  0
  5  6  1  6
  7  5  1  0
  7  8  2  0
  9 10  1  0
 10 11  2  0
 10 12  1  0
 12 13  1  0
 13 14  1  0
 14 15  1  0
 16 15  1  6
 17 16  1  0
 17  7  1  0
 18 16  1  0
 19 18  2  0
 21 20  1  1
 21 22  1  0
 21 23  1  0
 24 23  1  6
 24 25  1  0
 24 26  1  0
 25 18  1  0
 26 28  1  0
 27 26  2  0
M  END
$$$$
