LRL.pdb
     RDKit          3D

 28 27  0  0  1  0  0  0  0  0999 V2000
   29.2724  -15.7104  -17.3200 C   0  0  0  0  0  0  0  0  0  0  0  0
   28.4569  -16.8959  -17.7762 C   0  0  1  0  0  0  0  0  0  0  0  0
   29.4327  -17.9602  -18.2291 C   0  0  0  0  0  0  0  0  0  0  0  0
   27.6137  -17.3817  -16.6144 C   0  0  0  0  0  0  0  0  0  0  0  0
   26.7765  -18.5745  -16.9950 C   0  0  2  0  0  0  0  0  0  0  0  0
   26.1494  -18.3746  -18.2902 N   0  0  0  0  0  0  0  0  0  0  0  0
   25.7476  -18.7667  -15.9376 C   0  0  0  0  0  0  0  0  0  0  0  0
   24.8051  -17.9553  -15.8316 O   0  0  0  0  0  0  0  0  0  0  0  0
   23.9578  -24.8721  -14.5481 N   0  0  0  0  0  0  0  0  0  0  0  0
   22.6962  -24.9006  -13.9093 C   0  0  0  0  0  0  0  0  0  0  0  0
   22.4053  -25.8922  -13.1470 N   0  0  0  0  0  0  0  0  0  0  0  0
   21.7325  -23.8648  -14.0818 N   0  0  0  0  0  0  0  0  0  0  0  0
   21.9450  -22.7384  -14.9481 C   0  0  0  0  0  0  0  0  0  0  0  0
   22.6940  -21.6756  -14.1753 C   0  0  0  0  0  0  0  0  0  0  0  0
   23.9186  -21.2019  -14.8674 C   0  0  0  0  0  0  0  0  0  0  0  0
   24.7015  -20.1298  -14.1509 C   0  0  2  0  0  0  0  0  0  0  0  0
   25.8450  -19.8599  -15.0671 N   0  0  0  0  0  0  0  0  0  0  0  0
   25.2334  -20.6110  -12.8548 C   0  0  0  0  0  0  0  0  0  0  0  0
   26.0105  -21.6168  -12.8929 O   0  0  0  0  0  0  0  0  0  0  0  0
   21.4363  -26.0395  -12.7796 C   0  0  0  0  0  0  0  0  0  0  0  0
   28.2731  -18.6716   -9.2550 C   0  0  2  0  0  0  0  0  0  0  0  0
   27.5116  -19.6069  -10.2483 C   0  0  0  0  0  0  0  0  0  0  0  0
   28.4833  -20.7850  -10.4127 C   0  0  0  0  0  0  0  0  0  0  0  0
   26.2294  -19.9897   -9.6132 C   0  0  2  0  0  0  0  0  0  0  0  0
   25.2388  -20.7884  -10.3384 N   0  0  0  0  0  0  0  0  0  0  0  0
   24.9535  -20.0483  -11.5931 C   0  0  0  0  0  0  0  0  0  0  0  0
   23.9820  -21.1657   -9.7357 O   0  0  0  0  0  0  0  0  0  0  0  0
   22.8179  -20.8685  -10.1079 O   0  0  0  0  0  0  0  0  0  0  0  0
  2  1  1  1
  2  3  1  0
  4  2  1  0
  5  4  1  0
  5  6  1  6
  7  5  1  0
  7  8  2  0
  9 10  1  0
 10 11  2  0
 10 12  1  0
 12 13  1  0
 13 14  1  0
 14 15  1  0
 16 15  1  6
 17 16  1  0
 17  7  1  0
 18 16  1  0
 19 18  2  0
 21 20  1  6
 21 22  1  0
 21 23  1  0
 24 23  1  6
 24 25  1  0
 24 26  1  0
 25 18  1  0
 26 28  1  0
 27 26  2  0
M  END
$$$$
