LRL.pdb
     RDKit          3D

 28 27  0  0  1  0  0  0  0  0999 V2000
   27.9804  -17.7808  -17.4207 C   0  0  0  0  0  0  0  0  0  0  0  0
   27.9810  -19.0132  -16.5491 C   0  0  1  0  0  0  0  0  0  0  0  0
   29.3316  -19.6754  -16.7146 C   0  0  0  0  0  0  0  0  0  0  0  0
   27.7475  -18.5921  -15.1121 C   0  0  0  0  0  0  0  0  0  0  0  0
   27.8640  -19.7575  -14.1650 C   0  0  2  0  0  0  0  0  0  0  0  0
   27.3920  -20.9814  -14.7897 N   0  0  0  0  0  0  0  0  0  0  0  0
   27.0607  -19.4433  -12.9528 C   0  0  0  0  0  0  0  0  0  0  0  0
   27.1238  -18.3061  -12.4420 O   0  0  0  0  0  0  0  0  0  0  0  0
   20.0770  -22.5267  -14.4158 N   0  0  0  0  0  0  0  0  0  0  0  0
   20.1900  -21.8748  -13.1657 C   0  0  0  0  0  0  0  0  0  0  0  0
   19.2328  -21.9839  -12.3166 N   0  0  0  0  0  0  0  0  0  0  0  0
   21.3320  -21.0984  -12.8131 N   0  0  0  0  0  0  0  0  0  0  0  0
   22.4567  -20.9230  -13.6898 C   0  0  0  0  0  0  0  0  0  0  0  0
   23.4553  -20.0129  -13.0100 C   0  0  0  0  0  0  0  0  0  0  0  0
   23.9789  -20.5657  -11.7360 C   0  0  0  0  0  0  0  0  0  0  0  0
   25.3170  -20.0295  -11.2913 C   0  0  2  0  0  0  0  0  0  0  0  0
   26.2376  -20.4288  -12.3927 N   0  0  0  0  0  0  0  0  0  0  0  0
   25.7742  -20.6665  -10.0344 C   0  0  0  0  0  0  0  0  0  0  0  0
   26.1905  -21.8651  -10.1186 O   0  0  0  0  0  0  0  0  0  0  0  0
   19.2768  -21.5289  -11.3749 C   0  0  0  0  0  0  0  0  0  0  0  0
   28.0025  -18.3230   -5.6002 C   0  0  2  0  0  0  0  0  0  0  0  0
   27.7289  -19.2935   -6.7937 C   0  0  0  0  0  0  0  0  0  0  0  0
   28.9657  -20.2040   -6.7770 C   0  0  0  0  0  0  0  0  0  0  0  0
   26.4670  -20.0145   -6.5077 C   0  0  2  0  0  0  0  0  0  0  0  0
   25.8406  -20.8669   -7.5206 N   0  0  0  0  0  0  0  0  0  0  0  0
   25.7884  -20.0570   -8.7636 C   0  0  0  0  0  0  0  0  0  0  0  0
   24.5428  -21.4640   -7.3106 O   0  0  0  0  0  0  0  0  0  0  0  0
   23.4730  -21.2451   -7.9347 O   0  0  0  0  0  0  0  0  0  0  0  0
  2  1  1  6
  2  3  1  0
  4  2  1  0
  5  4  1  0
  5  6  1  6
  7  5  1  0
  7  8  2  0
  9 10  1  0
 10 11  2  0
 10 12  1  0
 12 13  1  0
 13 14  1  0
 14 15  1  0
 16 15  1  6
 17 16  1  0
 17  7  1  0
 18 16  1  0
 19 18  2  0
 21 20  1  6
 21 22  1  0
 21 23  1  0
 24 23  1  6
 24 25  1  0
 24 26  1  0
 25 18  1  0
 26 28  1  0
 27 26  2  0
M  END
$$$$
