LRL.pdb
     RDKit          3D

 28 27  0  0  1  0  0  0  0  0999 V2000
   28.9249  -19.7184   -4.6184 C   0  0  0  0  0  0  0  0  0  0  0  0
   27.5214  -19.5099   -5.1335 C   0  0  1  0  0  0  0  0  0  0  0  0
   27.3397  -18.0222   -5.3421 C   0  0  0  0  0  0  0  0  0  0  0  0
   27.3632  -20.2709   -6.4345 C   0  0  0  0  0  0  0  0  0  0  0  0
   25.9449  -20.2216   -6.9389 C   0  0  2  0  0  0  0  0  0  0  0  0
   25.0414  -20.8759   -6.0081 N   0  0  0  0  0  0  0  0  0  0  0  0
   25.9083  -20.8931   -8.2661 C   0  0  0  0  0  0  0  0  0  0  0  0
   26.2836  -22.0785   -8.3743 O   0  0  0  0  0  0  0  0  0  0  0  0
   22.6753  -22.7692  -14.9433 N   0  0  0  0  0  0  0  0  0  0  0  0
   21.7006  -22.2451  -14.0625 C   0  0  0  0  0  0  0  0  0  0  0  0
   20.6101  -22.8980  -13.8793 N   0  0  0  0  0  0  0  0  0  0  0  0
   21.8857  -21.0142  -13.3685 N   0  0  0  0  0  0  0  0  0  0  0  0
   23.0233  -20.1626  -13.5809 C   0  0  0  0  0  0  0  0  0  0  0  0
   24.2135  -20.7690  -12.8715 C   0  0  0  0  0  0  0  0  0  0  0  0
   24.3390  -20.3310  -11.4589 C   0  0  0  0  0  0  0  0  0  0  0  0
   25.5461  -20.8503  -10.7179 C   0  0  2  0  0  0  0  0  0  0  0  0
   25.4516  -20.1876   -9.3868 N   0  0  0  0  0  0  0  0  0  0  0  0
   26.8107  -20.4345  -11.3678 C   0  0  0  0  0  0  0  0  0  0  0  0
   27.0765  -19.1910  -11.3600 O   0  0  0  0  0  0  0  0  0  0  0  0
   19.8706  -22.5618  -13.2191 C   0  0  0  0  0  0  0  0  0  0  0  0
   31.4644  -23.0084  -10.6424 C   0  0  1  0  0  0  0  0  0  0  0  0
   30.3412  -21.9261  -10.7348 C   0  0  0  0  0  0  0  0  0  0  0  0
   30.9850  -20.7139  -10.0455 C   0  0  0  0  0  0  0  0  0  0  0  0
   30.0521  -21.6986  -12.1696 C   0  0  2  0  0  0  0  0  0  0  0  0
   28.9919  -20.7786  -12.5874 N   0  0  0  0  0  0  0  0  0  0  0  0
   27.7376  -21.2975  -11.9866 C   0  0  0  0  0  0  0  0  0  0  0  0
   28.7449  -20.4903  -13.9806 O   0  0  0  0  0  0  0  0  0  0  0  0
   29.4047  -19.7484  -14.7528 O   0  0  0  0  0  0  0  0  0  0  0  0
  2  1  1  6
  2  3  1  0
  4  2  1  0
  5  4  1  0
  5  6  1  1
  7  5  1  0
  7  8  2  0
  9 10  1  0
 10 11  2  0
 10 12  1  0
 12 13  1  0
 13 14  1  0
 14 15  1  0
 16 15  1  6
 17 16  1  0
 17  7  1  0
 18 16  1  0
 19 18  2  0
 21 20  1  1
 21 22  1  0
 21 23  1  0
 24 23  1  1
 24 25  1  0
 24 26  1  0
 25 18  1  0
 26 28  1  0
 27 26  2  0
M  END
$$$$
