LRL.pdb
     RDKit          3D

 28 27  0  0  1  0  0  0  0  0999 V2000
   17.0657  -16.1798  -15.1047 C   0  0  0  0  0  0  0  0  0  0  0  0
   17.5150  -17.6179  -15.0123 C   0  0  1  0  0  0  0  0  0  0  0  0
   17.5380  -18.1690  -16.4214 C   0  0  0  0  0  0  0  0  0  0  0  0
   18.8937  -17.6568  -14.3842 C   0  0  0  0  0  0  0  0  0  0  0  0
   19.4785  -19.0445  -14.4114 C   0  0  2  0  0  0  0  0  0  0  0  0
   19.0456  -19.8114  -13.2559 N   0  0  0  0  0  0  0  0  0  0  0  0
   20.9606  -18.9156  -14.4308 C   0  0  0  0  0  0  0  0  0  0  0  0
   21.5752  -18.6411  -13.3797 O   0  0  0  0  0  0  0  0  0  0  0  0
   25.4708  -23.5965  -14.2329 N   0  0  0  0  0  0  0  0  0  0  0  0
   24.3351  -24.3251  -14.6568 C   0  0  0  0  0  0  0  0  0  0  0  0
   23.9604  -25.3477  -13.9764 N   0  0  0  0  0  0  0  0  0  0  0  0
   23.5887  -23.9640  -15.8160 N   0  0  0  0  0  0  0  0  0  0  0  0
   23.8328  -22.7569  -16.5560 C   0  0  0  0  0  0  0  0  0  0  0  0
   23.4354  -21.5792  -15.6942 C   0  0  0  0  0  0  0  0  0  0  0  0
   23.5536  -20.2754  -16.3936 C   0  0  0  0  0  0  0  0  0  0  0  0
   23.1454  -19.0641  -15.5924 C   0  0  2  0  0  0  0  0  0  0  0  0
   21.6564  -19.1037  -15.6319 N   0  0  0  0  0  0  0  0  0  0  0  0
   23.6050  -17.8061  -16.2254 C   0  0  0  0  0  0  0  0  0  0  0  0
   22.8582  -17.3141  -17.1295 O   0  0  0  0  0  0  0  0  0  0  0  0
   23.0616  -25.8449  -14.1780 C   0  0  0  0  0  0  0  0  0  0  0  0
   25.6582  -12.7459  -15.8008 C   0  0  2  0  0  0  0  0  0  0  0  0
   26.7083  -13.8704  -16.0724 C   0  0  0  0  0  0  0  0  0  0  0  0
   27.8793  -13.4629  -15.1659 C   0  0  0  0  0  0  0  0  0  0  0  0
   26.0936  -15.1626  -15.6895 C   0  0  1  0  0  0  0  0  0  0  0  0
   25.1369  -15.8323  -16.5732 N   0  0  0  0  0  0  0  0  0  0  0  0
   24.7909  -17.1136  -15.9082 C   0  0  0  0  0  0  0  0  0  0  0  0
   25.4469  -16.1059  -17.9568 O   0  0  0  0  0  0  0  0  0  0  0  0
   26.0670  -17.0888  -18.4378 O   0  0  0  0  0  0  0  0  0  0  0  0
  2  1  1  6
  2  3  1  0
  4  2  1  0
  5  4  1  0
  5  6  1  1
  7  5  1  0
  7  8  2  0
  9 10  1  0
 10 11  2  0
 10 12  1  0
 12 13  1  0
 13 14  1  0
 14 15  1  0
 16 15  1  6
 17 16  1  0
 17  7  1  0
 18 16  1  0
 19 18  2  0
 21 20  1  6
 21 22  1  0
 21 23  1  0
 24 23  1  1
 24 25  1  0
 24 26  1  0
 25 18  1  0
 26 28  1  0
 27 26  2  0
M  END
$$$$
