FQT.pdb
     RDKit          3D

 28 28  0  0  1  0  0  0  0  0999 V2000
   28.2355  -22.1334  -10.4279 N   0  0  0  0  0  0  0  0  0  0  0  0
   27.0422  -21.3405  -10.5513 C   0  0  1  0  0  0  0  0  0  0  0  0
   27.2109  -19.9233  -10.0791 C   0  0  0  0  0  0  0  0  0  0  0  0
   27.6198  -19.9291   -8.6512 C   0  0  0  0  0  0  0  0  0  0  0  0
   26.6276  -19.8683   -7.7042 C   0  0  0  0  0  0  0  0  0  0  0  0
   26.9849  -19.8725   -6.3676 C   0  0  0  0  0  0  0  0  0  0  0  0
   28.2937  -19.9353   -5.9777 C   0  0  0  0  0  0  0  0  0  0  0  0
   29.2812  -19.9959   -6.9298 C   0  0  0  0  0  0  0  0  0  0  0  0
   28.9430  -19.9928   -8.2734 C   0  0  0  0  0  0  0  0  0  0  0  0
   26.5552  -21.3145  -11.9731 C   0  0  0  0  0  0  0  0  0  0  0  0
   27.3287  -21.5617  -12.9247 O   0  0  0  0  0  0  0  0  0  0  0  0
   26.3833  -23.8811  -15.2798 N   0  0  0  0  0  0  0  0  0  0  0  0
   25.0310  -24.0912  -15.6384 C   0  0  0  0  0  0  0  0  0  0  0  0
   24.6633  -24.6229  -16.7140 O   0  0  0  0  0  0  0  0  0  0  0  0
   23.9829  -23.6477  -14.6666 C   0  0  0  0  0  0  0  0  0  0  0  0
   24.6342  -23.0296  -13.4619 C   0  0  0  0  0  0  0  0  0  0  0  0
   24.4662  -21.5500  -13.3813 C   0  0  2  0  0  0  0  0  0  0  0  0
   25.1929  -21.0033  -12.2306 N   0  0  0  0  0  0  0  0  0  0  0  0
   23.0788  -21.0570  -13.3906 C   0  0  0  0  0  0  0  0  0  0  0  0
   22.3042  -21.2563  -12.4549 O   0  0  0  0  0  0  0  0  0  0  0  0
   21.1008  -19.6180  -17.0170 C   0  0  0  0  0  0  0  0  0  0  0  0
   20.9848  -18.8542  -15.7298 C   0  0  1  0  0  0  0  0  0  0  0  0
   19.6988  -18.3239  -15.5803 O   0  0  0  0  0  0  0  0  0  0  0  0
   21.2469  -19.7123  -14.5157 C   0  0  2  0  0  0  0  0  0  0  0  0
   22.5406  -20.3080  -14.4996 N   0  0  0  0  0  0  0  0  0  0  0  0
   20.2025  -20.7616  -14.4852 C   0  0  0  0  0  0  0  0  0  0  0  0
   20.4851  -21.9108  -14.9013 O   0  0  0  0  0  0  0  0  0  0  0  0
   18.9161  -20.5303  -14.0139 O   0  0  0  0  0  0  0  0  0  0  0  0
  2  1  1  6
  2  3  1  0
  3  4  1  0
  4  9  2  0
  5  6  2  0
  5  4  1  0
  6  7  1  0
  7  8  2  0
  9  8  1  0
 10 18  1  0
 10  2  1  0
 11 10  2  0
 13 12  1  0
 13 15  1  0
 14 13  2  0
 17 16  1  1
 16 15  1  0
 17 18  1  0
 19 20  2  0
 19 17  1  0
 22 21  1  6
 22 23  1  0
 24 22  1  0
 24 25  1  6
 25 19  1  0
 26 24  1  0
 27 26  2  0
 28 26  1  0
M  END
$$$$
