FQT.pdb
     RDKit          3D

 28 28  0  0  1  0  0  0  0  0999 V2000
   28.5102  -21.4293   -9.3734 N   0  0  0  0  0  0  0  0  0  0  0  0
   27.1585  -20.9468   -9.2828 C   0  0  1  0  0  0  0  0  0  0  0  0
   27.0413  -19.6126   -8.6001 C   0  0  0  0  0  0  0  0  0  0  0  0
   27.6387  -19.7035   -7.2432 C   0  0  0  0  0  0  0  0  0  0  0  0
   26.8227  -20.1012   -6.2132 C   0  0  0  0  0  0  0  0  0  0  0  0
   27.3575  -20.1931   -4.9405 C   0  0  0  0  0  0  0  0  0  0  0  0
   28.6694  -19.8982   -4.6934 C   0  0  0  0  0  0  0  0  0  0  0  0
   29.4802  -19.5010   -5.7279 C   0  0  0  0  0  0  0  0  0  0  0  0
   28.9626  -19.4030   -7.0095 C   0  0  0  0  0  0  0  0  0  0  0  0
   26.5295  -20.8428  -10.6439 C   0  0  0  0  0  0  0  0  0  0  0  0
   27.2306  -20.6932  -11.6691 O   0  0  0  0  0  0  0  0  0  0  0  0
   25.7733  -24.3109  -14.0614 N   0  0  0  0  0  0  0  0  0  0  0  0
   24.4083  -24.0156  -14.2875 C   0  0  0  0  0  0  0  0  0  0  0  0
   23.6279  -24.7525  -14.9375 O   0  0  0  0  0  0  0  0  0  0  0  0
   23.8735  -22.7424  -13.7106 C   0  0  0  0  0  0  0  0  0  0  0  0
   24.9408  -22.0622  -12.9009 C   0  0  0  0  0  0  0  0  0  0  0  0
   24.4322  -20.9437  -12.0559 C   0  0  2  0  0  0  0  0  0  0  0  0
   25.1150  -20.9165  -10.7582 N   0  0  0  0  0  0  0  0  0  0  0  0
   22.9730  -20.8902  -11.8666 C   0  0  0  0  0  0  0  0  0  0  0  0
   22.4213  -21.3638  -10.8733 O   0  0  0  0  0  0  0  0  0  0  0  0
   20.7361  -17.7870  -11.5765 C   0  0  0  0  0  0  0  0  0  0  0  0
   20.2918  -18.6111  -12.7500 C   0  0  1  0  0  0  0  0  0  0  0  0
   20.8467  -18.1241  -13.9385 O   0  0  0  0  0  0  0  0  0  0  0  0
   20.7046  -20.0588  -12.6369 C   0  0  2  0  0  0  0  0  0  0  0  0
   22.0978  -20.2780  -12.8361 N   0  0  0  0  0  0  0  0  0  0  0  0
   19.9211  -20.8189  -13.6375 C   0  0  0  0  0  0  0  0  0  0  0  0
   20.5089  -21.2785  -14.6460 O   0  0  0  0  0  0  0  0  0  0  0  0
   18.5567  -21.0479  -13.5099 O   0  0  0  0  0  0  0  0  0  0  0  0
  2  1  1  6
  2  3  1  0
  3  4  1  0
  4  9  2  0
  5  6  2  0
  5  4  1  0
  6  7  1  0
  7  8  2  0
  9  8  1  0
 10 18  1  0
 10  2  1  0
 11 10  2  0
 13 12  1  0
 13 15  1  0
 14 13  2  0
 17 16  1  1
 16 15  1  0
 17 18  1  0
 19 20  2  0
 19 17  1  0
 22 21  1  1
 22 23  1  0
 24 22  1  0
 24 25  1  6
 25 19  1  0
 26 24  1  0
 27 26  2  0
 28 26  1  0
M  END
$$$$
