FQT.pdb
     RDKit          3D

 28 28  0  0  1  0  0  0  0  0999 V2000
   28.0717  -21.3102  -10.4086 N   0  0  0  0  0  0  0  0  0  0  0  0
   26.6808  -20.9448  -10.4060 C   0  0  1  0  0  0  0  0  0  0  0  0
   26.4248  -19.5583   -9.8845 C   0  0  0  0  0  0  0  0  0  0  0  0
   26.8314  -19.4897   -8.4576 C   0  0  0  0  0  0  0  0  0  0  0  0
   26.2002  -20.3302   -7.5743 C   0  0  0  0  0  0  0  0  0  0  0  0
   26.5626  -20.2839   -6.2398 C   0  0  0  0  0  0  0  0  0  0  0  0
   27.5273  -19.4257   -5.7904 C   0  0  0  0  0  0  0  0  0  0  0  0
   28.1547  -18.5878   -6.6790 C   0  0  0  0  0  0  0  0  0  0  0  0
   27.8053  -18.6196   -8.0194 C   0  0  0  0  0  0  0  0  0  0  0  0
   26.0913  -21.0521  -11.7844 C   0  0  0  0  0  0  0  0  0  0  0  0
   26.7312  -20.6751  -12.7910 O   0  0  0  0  0  0  0  0  0  0  0  0
   25.0759  -25.3293  -15.2673 N   0  0  0  0  0  0  0  0  0  0  0  0
   24.3314  -24.1931  -15.6624 C   0  0  0  0  0  0  0  0  0  0  0  0
   24.4968  -23.5871  -16.7487 O   0  0  0  0  0  0  0  0  0  0  0  0
   23.2845  -23.6918  -14.7176 C   0  0  0  0  0  0  0  0  0  0  0  0
   23.9155  -23.3322  -13.4023 C   0  0  0  0  0  0  0  0  0  0  0  0
   24.2019  -21.8765  -13.2518 C   0  0  2  0  0  0  0  0  0  0  0  0
   24.7856  -21.5917  -11.9368 N   0  0  0  0  0  0  0  0  0  0  0  0
   23.0754  -20.9666  -13.5185 C   0  0  0  0  0  0  0  0  0  0  0  0
   22.2596  -20.6582  -12.6497 O   0  0  0  0  0  0  0  0  0  0  0  0
   23.0920  -17.4543  -15.8001 C   0  0  0  0  0  0  0  0  0  0  0  0
   22.1141  -18.5088  -16.2308 C   0  0  1  0  0  0  0  0  0  0  0  0
   22.6247  -19.2542  -17.2990 O   0  0  0  0  0  0  0  0  0  0  0  0
   21.7900  -19.4895  -15.1298 C   0  0  2  0  0  0  0  0  0  0  0  0
   22.8578  -20.3790  -14.8177 N   0  0  0  0  0  0  0  0  0  0  0  0
   20.5981  -20.2556  -15.5602 C   0  0  0  0  0  0  0  0  0  0  0  0
   19.4854  -19.6773  -15.5945 O   0  0  0  0  0  0  0  0  0  0  0  0
   20.6560  -21.5936  -15.9300 O   0  0  0  0  0  0  0  0  0  0  0  0
  2  1  1  6
  2  3  1  0
  3  4  1  0
  4  9  2  0
  5  6  2  0
  5  4  1  0
  6  7  1  0
  7  8  2  0
  9  8  1  0
 10 18  1  0
 10  2  1  0
 11 10  2  0
 13 12  1  0
 13 15  1  0
 14 13  2  0
 17 16  1  1
 16 15  1  0
 17 18  1  0
 19 20  2  0
 19 17  1  0
 22 21  1  1
 22 23  1  0
 24 22  1  0
 24 25  1  6
 25 19  1  0
 26 24  1  0
 27 26  2  0
 28 26  1  0
M  END
$$$$
