FQT.pdb
     RDKit          3D

 28 28  0  0  1  0  0  0  0  0999 V2000
   25.0620  -11.5674  -18.1241 N   0  0  0  0  0  0  0  0  0  0  0  0
   24.7501  -11.0420  -16.8223 C   0  0  1  0  0  0  0  0  0  0  0  0
   25.9469  -10.5035  -16.0891 C   0  0  0  0  0  0  0  0  0  0  0  0
   26.9896  -11.5586  -16.0137 C   0  0  0  0  0  0  0  0  0  0  0  0
   28.1234  -11.3890  -16.7691 C   0  0  0  0  0  0  0  0  0  0  0  0
   29.1084  -12.3591  -16.7147 C   0  0  0  0  0  0  0  0  0  0  0  0
   28.9740  -13.4711  -15.9308 C   0  0  0  0  0  0  0  0  0  0  0  0
   27.8376  -13.6348  -15.1777 C   0  0  0  0  0  0  0  0  0  0  0  0
   26.8401  -12.6739  -15.2190 C   0  0  0  0  0  0  0  0  0  0  0  0
   23.7167   -9.9543  -16.9119 C   0  0  0  0  0  0  0  0  0  0  0  0
   23.5922   -9.2663  -17.9492 O   0  0  0  0  0  0  0  0  0  0  0  0
   18.1175  -10.5918  -15.2501 N   0  0  0  0  0  0  0  0  0  0  0  0
   18.0326   -9.1840  -15.3605 C   0  0  0  0  0  0  0  0  0  0  0  0
   16.9582   -8.5379  -15.3051 O   0  0  0  0  0  0  0  0  0  0  0  0
   19.3102   -8.4292  -15.5551 C   0  0  0  0  0  0  0  0  0  0  0  0
   20.4631   -9.3898  -15.6286 C   0  0  0  0  0  0  0  0  0  0  0  0
   21.7838   -8.7283  -15.8331 C   0  0  2  0  0  0  0  0  0  0  0  0
   22.8721   -9.7108  -15.7953 N   0  0  0  0  0  0  0  0  0  0  0  0
   22.0846   -7.5981  -14.9386 C   0  0  0  0  0  0  0  0  0  0  0  0
   22.5306   -7.7597  -13.8026 O   0  0  0  0  0  0  0  0  0  0  0  0
   22.0091   -3.3891  -16.3642 C   0  0  0  0  0  0  0  0  0  0  0  0
   22.8838   -3.9863  -15.3003 C   0  0  1  0  0  0  0  0  0  0  0  0
   23.2540   -3.0189  -14.3598 O   0  0  0  0  0  0  0  0  0  0  0  0
   22.2016   -5.0969  -14.5385 C   0  0  2  0  0  0  0  0  0  0  0  0
   21.8747   -6.2285  -15.3393 N   0  0  0  0  0  0  0  0  0  0  0  0
   20.9746   -4.5275  -13.9360 C   0  0  0  0  0  0  0  0  0  0  0  0
   19.8586   -4.9710  -14.2992 O   0  0  0  0  0  0  0  0  0  0  0  0
   21.0026   -3.5186  -12.9812 O   0  0  0  0  0  0  0  0  0  0  0  0
  2  1  1  6
  2  3  1  0
  3  4  1  0
  4  9  2  0
  5  6  2  0
  5  4  1  0
  6  7  1  0
  7  8  2  0
  9  8  1  0
 10 18  1  0
 10  2  1  0
 11 10  2  0
 13 12  1  0
 13 15  1  0
 14 13  2  0
 17 16  1  1
 16 15  1  0
 17 18  1  0
 19 20  2  0
 19 17  1  0
 22 21  1  6
 22 23  1  0
 24 22  1  0
 24 25  1  6
 25 19  1  0
 26 24  1  0
 27 26  2  0
 28 26  1  0
M  END
$$$$
