FQT.pdb
     RDKit          3D

 28 28  0  0  1  0  0  0  0  0999 V2000
   16.0367  -11.9518  -11.3177 N   0  0  0  0  0  0  0  0  0  0  0  0
   15.3395  -10.7023  -11.1745 C   0  0  1  0  0  0  0  0  0  0  0  0
   14.3963  -10.6712  -10.0043 C   0  0  0  0  0  0  0  0  0  0  0  0
   13.2478  -11.5724  -10.2778 C   0  0  0  0  0  0  0  0  0  0  0  0
   12.1083  -11.0118  -10.7997 C   0  0  0  0  0  0  0  0  0  0  0  0
   11.0256  -11.8321  -11.0627 C   0  0  0  0  0  0  0  0  0  0  0  0
   11.0700  -13.1758  -10.8148 C   0  0  0  0  0  0  0  0  0  0  0  0
   12.2126  -13.7302  -10.2928 C   0  0  0  0  0  0  0  0  0  0  0  0
   13.3073  -12.9248  -10.0228 C   0  0  0  0  0  0  0  0  0  0  0  0
   16.3041   -9.5575  -11.0400 C   0  0  0  0  0  0  0  0  0  0  0  0
   17.2851   -9.6277  -10.2669 O   0  0  0  0  0  0  0  0  0  0  0  0
   20.4441   -7.8204  -12.7965 N   0  0  0  0  0  0  0  0  0  0  0  0
   20.2035   -6.4265  -12.8148 C   0  0  0  0  0  0  0  0  0  0  0  0
   21.1022   -5.5565  -12.7140 O   0  0  0  0  0  0  0  0  0  0  0  0
   18.7850   -5.9734  -12.9642 C   0  0  0  0  0  0  0  0  0  0  0  0
   17.8660   -7.1619  -12.9453 C   0  0  0  0  0  0  0  0  0  0  0  0
   16.9904   -7.2247  -11.7398 C   0  0  2  0  0  0  0  0  0  0  0  0
   16.0902   -8.3807  -11.8072 N   0  0  0  0  0  0  0  0  0  0  0  0
   16.2299   -6.0024  -11.4306 C   0  0  0  0  0  0  0  0  0  0  0  0
   15.3280   -5.5877  -12.1586 O   0  0  0  0  0  0  0  0  0  0  0  0
   14.6197   -4.7419   -7.7782 C   0  0  0  0  0  0  0  0  0  0  0  0
   15.6447   -3.8383   -8.4000 C   0  0  1  0  0  0  0  0  0  0  0  0
   16.9102   -4.0685   -7.8495 O   0  0  0  0  0  0  0  0  0  0  0  0
   15.7740   -4.0402   -9.8905 C   0  0  2  0  0  0  0  0  0  0  0  0
   16.4956   -5.2137  -10.2526 N   0  0  0  0  0  0  0  0  0  0  0  0
   16.4446   -2.8399  -10.4403 C   0  0  0  0  0  0  0  0  0  0  0  0
   15.8604   -1.7320  -10.3673 O   0  0  0  0  0  0  0  0  0  0  0  0
   17.6985   -2.8845  -11.0369 O   0  0  0  0  0  0  0  0  0  0  0  0
  2  1  1  1
  2  3  1  0
  3  4  1  0
  4  9  2  0
  5  6  2  0
  5  4  1  0
  6  7  1  0
  7  8  2  0
  9  8  1  0
 10 18  1  0
 10  2  1  0
 11 10  2  0
 13 12  1  0
 13 15  1  0
 14 13  2  0
 17 16  1  6
 16 15  1  0
 17 18  1  0
 19 20  2  0
 19 17  1  0
 22 21  1  1
 22 23  1  0
 24 22  1  0
 24 25  1  1
 25 19  1  0
 26 24  1  0
 27 26  2  0
 28 26  1  0
M  END
$$$$
