FQT.pdb
     RDKit          3D

 28 28  0  0  1  0  0  0  0  0999 V2000
   24.3447  -14.1374  -18.3926 N   0  0  0  0  0  0  0  0  0  0  0  0
   24.2418  -13.3263  -17.2096 C   0  0  1  0  0  0  0  0  0  0  0  0
   25.5691  -13.0204  -16.5735 C   0  0  0  0  0  0  0  0  0  0  0  0
   26.2221  -14.2917  -16.1692 C   0  0  0  0  0  0  0  0  0  0  0  0
   25.9182  -14.7979  -14.9297 C   0  0  0  0  0  0  0  0  0  0  0  0
   26.5147  -15.9812  -14.5316 C   0  0  0  0  0  0  0  0  0  0  0  0
   27.3913  -16.6476  -15.3417 C   0  0  0  0  0  0  0  0  0  0  0  0
   27.6910  -16.1360  -16.5802 C   0  0  0  0  0  0  0  0  0  0  0  0
   27.1037  -14.9521  -16.9964 C   0  0  0  0  0  0  0  0  0  0  0  0
   23.5434  -12.0282  -17.5034 C   0  0  0  0  0  0  0  0  0  0  0  0
   23.7028  -11.4430  -18.5975 O   0  0  0  0  0  0  0  0  0  0  0  0
   17.8851  -11.2698  -17.2778 N   0  0  0  0  0  0  0  0  0  0  0  0
   18.1210   -9.8764  -17.2132 C   0  0  0  0  0  0  0  0  0  0  0  0
   17.2227   -9.0059  -17.3133 O   0  0  0  0  0  0  0  0  0  0  0  0
   19.5336   -9.4247  -17.0128 C   0  0  0  0  0  0  0  0  0  0  0  0
   20.4405  -10.6183  -16.9115 C   0  0  0  0  0  0  0  0  0  0  0  0
   21.8826  -10.2664  -16.7683 C   0  0  2  0  0  0  0  0  0  0  0  0
   22.6905  -11.4643  -16.5166 N   0  0  0  0  0  0  0  0  0  0  0  0
   22.1964   -9.2215  -15.7795 C   0  0  0  0  0  0  0  0  0  0  0  0
   22.4764   -9.4859  -14.6103 O   0  0  0  0  0  0  0  0  0  0  0  0
   22.5894   -4.2991  -14.7904 C   0  0  0  0  0  0  0  0  0  0  0  0
   22.3736   -5.3884  -15.8005 C   0  0  1  0  0  0  0  0  0  0  0  0
   23.4134   -5.4120  -16.7364 O   0  0  0  0  0  0  0  0  0  0  0  0
   22.3177   -6.7617  -15.1758 C   0  0  2  0  0  0  0  0  0  0  0  0
   22.1951   -7.8201  -16.1210 N   0  0  0  0  0  0  0  0  0  0  0  0
   21.1665   -6.7744  -14.2444 C   0  0  0  0  0  0  0  0  0  0  0  0
   20.0206   -7.0055  -14.6998 O   0  0  0  0  0  0  0  0  0  0  0  0
   21.2981   -6.5408  -12.8812 O   0  0  0  0  0  0  0  0  0  0  0  0
  2  1  1  6
  2  3  1  0
  3  4  1  0
  4  9  2  0
  5  6  2  0
  5  4  1  0
  6  7  1  0
  7  8  2  0
  9  8  1  0
 10 18  1  0
 10  2  1  0
 11 10  2  0
 13 12  1  0
 13 15  1  0
 14 13  2  0
 17 16  1  1
 16 15  1  0
 17 18  1  0
 19 20  2  0
 19 17  1  0
 22 21  1  1
 22 23  1  0
 24 22  1  0
 24 25  1  6
 25 19  1  0
 26 24  1  0
 27 26  2  0
 28 26  1  0
M  END
$$$$
