FQT.pdb
     RDKit          3D

 28 28  0  0  1  0  0  0  0  0999 V2000
   24.6516  -20.9844   -8.7082 N   0  0  0  0  0  0  0  0  0  0  0  0
   25.4922  -20.2257   -9.5948 C   0  0  1  0  0  0  0  0  0  0  0  0
   26.9562  -20.5311   -9.4427 C   0  0  0  0  0  0  0  0  0  0  0  0
   27.4040  -20.1173   -8.0883 C   0  0  0  0  0  0  0  0  0  0  0  0
   28.1586  -21.0088   -7.3668 C   0  0  0  0  0  0  0  0  0  0  0  0
   28.5869  -20.6449   -6.1025 C   0  0  0  0  0  0  0  0  0  0  0  0
   28.2755  -19.4269   -5.5653 C   0  0  0  0  0  0  0  0  0  0  0  0
   27.5205  -18.5398   -6.2922 C   0  0  0  0  0  0  0  0  0  0  0  0
   27.0823  -18.8863   -7.5601 C   0  0  0  0  0  0  0  0  0  0  0  0
   25.1050  -20.4493  -11.0298 C   0  0  0  0  0  0  0  0  0  0  0  0
   24.4049  -21.4307  -11.3638 O   0  0  0  0  0  0  0  0  0  0  0  0
   25.3388  -15.9842  -15.4436 N   0  0  0  0  0  0  0  0  0  0  0  0
   26.5911  -16.6115  -15.2448 C   0  0  0  0  0  0  0  0  0  0  0  0
   27.6798  -16.1604  -15.6761 O   0  0  0  0  0  0  0  0  0  0  0  0
   26.6058  -17.8922  -14.4706 C   0  0  0  0  0  0  0  0  0  0  0  0
   25.2055  -18.2609  -14.0695 C   0  0  0  0  0  0  0  0  0  0  0  0
   25.1009  -19.5950  -13.4115 C   0  0  2  0  0  0  0  0  0  0  0  0
   25.5458  -19.5258  -12.0157 N   0  0  0  0  0  0  0  0  0  0  0  0
   25.7665  -20.7103  -14.1052 C   0  0  0  0  0  0  0  0  0  0  0  0
   26.9358  -21.0212  -13.8784 O   0  0  0  0  0  0  0  0  0  0  0  0
   24.9674  -24.4964  -14.2586 C   0  0  0  0  0  0  0  0  0  0  0  0
   24.8771  -23.8998  -15.6332 C   0  0  1  0  0  0  0  0  0  0  0  0
   23.5512  -23.5896  -15.9547 O   0  0  0  0  0  0  0  0  0  0  0  0
   25.6692  -22.6218  -15.7685 C   0  0  2  0  0  0  0  0  0  0  0  0
   25.0875  -21.5093  -15.0957 N   0  0  0  0  0  0  0  0  0  0  0  0
   25.7946  -22.3333  -17.2155 C   0  0  0  0  0  0  0  0  0  0  0  0
   26.4850  -23.1001  -17.9291 O   0  0  0  0  0  0  0  0  0  0  0  0
   25.1790  -21.2459  -17.8228 O   0  0  0  0  0  0  0  0  0  0  0  0
  2  1  1  1
  2  3  1  0
  3  4  1  0
  4  9  2  0
  5  6  2  0
  5  4  1  0
  6  7  1  0
  7  8  2  0
  9  8  1  0
 10 18  1  0
 10  2  1  0
 11 10  2  0
 13 12  1  0
 13 15  1  0
 14 13  2  0
 17 16  1  6
 16 15  1  0
 17 18  1  0
 19 20  2  0
 19 17  1  0
 22 21  1  1
 22 23  1  0
 24 22  1  0
 24 25  1  1
 25 19  1  0
 26 24  1  0
 27 26  2  0
 28 26  1  0
M  END
$$$$
