FQT.pdb
     RDKit          3D

 28 28  0  0  1  0  0  0  0  0999 V2000
   25.8229  -22.1164   -9.5478 N   0  0  0  0  0  0  0  0  0  0  0  0
   25.8459  -20.8983  -10.3120 C   0  0  1  0  0  0  0  0  0  0  0  0
   27.1918  -20.2291  -10.3355 C   0  0  0  0  0  0  0  0  0  0  0  0
   27.5892  -19.8811   -8.9473 C   0  0  0  0  0  0  0  0  0  0  0  0
   28.5649  -20.6434   -8.3540 C   0  0  0  0  0  0  0  0  0  0  0  0
   28.9513  -20.3377   -7.0611 C   0  0  0  0  0  0  0  0  0  0  0  0
   28.3850  -19.3017   -6.3719 C   0  0  0  0  0  0  0  0  0  0  0  0
   27.4097  -18.5432   -6.9710 C   0  0  0  0  0  0  0  0  0  0  0  0
   27.0095  -18.8341   -8.2652 C   0  0  0  0  0  0  0  0  0  0  0  0
   25.4094  -21.1414  -11.7296 C   0  0  0  0  0  0  0  0  0  0  0  0
   25.7461  -22.1805  -12.3392 O   0  0  0  0  0  0  0  0  0  0  0  0
   21.2930  -23.5905  -13.6574 N   0  0  0  0  0  0  0  0  0  0  0  0
   21.1144  -22.6866  -12.5838 C   0  0  0  0  0  0  0  0  0  0  0  0
   20.2093  -22.7901  -11.7209 O   0  0  0  0  0  0  0  0  0  0  0  0
   22.0705  -21.5398  -12.4815 C   0  0  0  0  0  0  0  0  0  0  0  0
   23.0610  -21.6003  -13.6097 C   0  0  0  0  0  0  0  0  0  0  0  0
   23.9665  -20.4174  -13.6780 C   0  0  2  0  0  0  0  0  0  0  0  0
   24.6016  -20.1696  -12.3794 N   0  0  0  0  0  0  0  0  0  0  0  0
   23.3688  -19.1768  -14.1993 C   0  0  0  0  0  0  0  0  0  0  0  0
   22.7952  -18.3670  -13.4710 O   0  0  0  0  0  0  0  0  0  0  0  0
   23.0212  -18.3753  -18.5547 C   0  0  0  0  0  0  0  0  0  0  0  0
   23.3613  -17.3232  -17.5394 C   0  0  1  0  0  0  0  0  0  0  0  0
   22.8020  -16.0907  -17.8938 O   0  0  0  0  0  0  0  0  0  0  0  0
   22.8469  -17.6551  -16.1594 C   0  0  2  0  0  0  0  0  0  0  0  0
   23.4186  -18.8333  -15.5993 N   0  0  0  0  0  0  0  0  0  0  0  0
   21.3768  -17.8012  -16.2616 C   0  0  0  0  0  0  0  0  0  0  0  0
   20.6896  -16.8040  -16.5890 O   0  0  0  0  0  0  0  0  0  0  0  0
   20.7197  -18.9992  -16.0100 O   0  0  0  0  0  0  0  0  0  0  0  0
  2  1  1  1
  2  3  1  0
  3  4  1  0
  4  9  2  0
  5  6  2  0
  5  4  1  0
  6  7  1  0
  7  8  2  0
  9  8  1  0
 10 18  1  0
 10  2  1  0
 11 10  2  0
 13 12  1  0
 13 15  1  0
 14 13  2  0
 17 16  1  1
 16 15  1  0
 17 18  1  0
 19 20  2  0
 19 17  1  0
 22 21  1  6
 22 23  1  0
 24 22  1  0
 24 25  1  6
 25 19  1  0
 26 24  1  0
 27 26  2  0
 28 26  1  0
M  END
$$$$
