IVN.pdb
     RDKit          3D

 24 23  0  0  1  0  0  0  0  0999 V2000
    7.3535  -12.3562   28.2592 C   0  0  0  0  0  0  0  0  0  0  0  0
    6.5301  -13.2898   27.3985 C   0  0  0  0  0  0  0  0  0  0  0  0
    7.3911  -14.0926   26.4462 C   0  0  2  0  0  0  0  0  0  0  0  0
    8.1598  -13.0971   25.5987 C   0  0  0  0  0  0  0  0  0  0  0  0
    6.4461  -14.9019   25.5788 C   0  0  2  0  0  0  0  0  0  0  0  0
    5.6968  -15.8602   26.3697 N   0  0  0  0  0  0  0  0  0  0  0  0
    7.1637  -15.6534   24.5305 C   0  0  0  0  0  0  0  0  0  0  0  0
    7.5552  -16.8580   24.7156 O   0  0  0  0  0  0  0  0  0  0  0  0
    6.3406  -15.0032   20.6280 C   0  0  0  0  0  0  0  0  0  0  0  0
    7.7989  -15.1047   20.9164 C   0  0  1  0  0  0  0  0  0  0  0  0
    8.5261  -13.7956   20.9055 C   0  0  0  0  0  0  0  0  0  0  0  0
    8.0732  -15.9355   22.1752 C   0  0  2  0  0  0  0  0  0  0  0  0
    7.4785  -15.1243   23.2528 N   0  0  0  0  0  0  0  0  0  0  0  0
    9.5262  -16.1158   22.4198 C   0  0  0  0  0  0  0  0  0  0  0  0
   10.1986  -15.1205   22.8642 O   0  0  0  0  0  0  0  0  0  0  0  0
   10.2037  -19.5640   24.9568 N   0  0  0  0  0  0  0  0  0  0  0  0
   11.2828  -18.6822   24.6619 C   0  0  0  0  0  0  0  0  0  0  0  0
   11.6697  -17.9225   25.5585 O   0  0  0  0  0  0  0  0  0  0  0  0
   11.8711  -18.7158   23.3382 C   0  0  0  0  0  0  0  0  0  0  0  0
   11.6824  -17.4583   22.5377 C   0  0  2  0  0  0  0  0  0  0  0  0
   10.2360  -17.3172   22.1986 N   0  0  0  0  0  0  0  0  0  0  0  0
   12.4669  -17.3591   21.3085 C   0  0  0  0  0  0  0  0  0  0  0  0
   11.9288  -17.2379   20.0592 O   0  0  0  0  0  0  0  0  0  0  0  0
   13.7476  -17.3831   21.3483 O   0  0  0  0  0  0  0  0  0  0  0  0
  1  2  1  0
  2  3  1  0
  3  5  1  0
  3  4  1  6
  5  6  1  1
  7  8  2  0
  7  5  1  0
 10 11  1  1
 10  9  1  0
 12 10  1  0
 12 13  1  1
 13  7  1  0
 14 12  1  0
 15 14  2  0
 17 16  1  0
 18 17  2  0
 20 19  1  6
 19 17  1  0
 20 21  1  0
 21 14  1  0
 22 20  1  0
 22 23  1  0
 24 22  2  0
M  END
$$$$
