IVN.pdb
     RDKit          3D

 24 23  0  0  1  0  0  0  0  0999 V2000
    8.7318  -12.5225   27.6379 C   0  0  0  0  0  0  0  0  0  0  0  0
    7.7411  -13.4838   27.0177 C   0  0  0  0  0  0  0  0  0  0  0  0
    6.9321  -12.8336   25.9151 C   0  0  2  0  0  0  0  0  0  0  0  0
    6.0619  -11.7775   26.5690 C   0  0  0  0  0  0  0  0  0  0  0  0
    6.0693  -13.9220   25.3059 C   0  0  2  0  0  0  0  0  0  0  0  0
    5.4244  -14.7185   26.3330 N   0  0  0  0  0  0  0  0  0  0  0  0
    6.8538  -14.8400   24.4571 C   0  0  0  0  0  0  0  0  0  0  0  0
    7.0453  -16.0621   24.7868 O   0  0  0  0  0  0  0  0  0  0  0  0
    6.6704  -14.5107   20.5113 C   0  0  0  0  0  0  0  0  0  0  0  0
    8.0710  -14.7335   20.9683 C   0  0  1  0  0  0  0  0  0  0  0  0
    8.9486  -13.5224   20.8920 C   0  0  0  0  0  0  0  0  0  0  0  0
    8.1199  -15.4275   22.3344 C   0  0  2  0  0  0  0  0  0  0  0  0
    7.4537  -14.4633   23.2283 N   0  0  0  0  0  0  0  0  0  0  0  0
    9.5123  -15.6636   22.7913 C   0  0  0  0  0  0  0  0  0  0  0  0
   10.4260  -14.8512   22.4101 O   0  0  0  0  0  0  0  0  0  0  0  0
   11.7745  -20.6016   21.9573 N   0  0  0  0  0  0  0  0  0  0  0  0
   11.6521  -19.2691   21.4692 C   0  0  0  0  0  0  0  0  0  0  0  0
   12.4425  -18.9003   20.5917 O   0  0  0  0  0  0  0  0  0  0  0  0
   10.6175  -18.4160   22.0180 C   0  0  0  0  0  0  0  0  0  0  0  0
   11.0203  -17.6585   23.2516 C   0  0  2  0  0  0  0  0  0  0  0  0
    9.9146  -16.7293   23.6272 N   0  0  0  0  0  0  0  0  0  0  0  0
   12.2644  -16.8974   23.1567 C   0  0  0  0  0  0  0  0  0  0  0  0
   12.3282  -15.5407   23.0135 O   0  0  0  0  0  0  0  0  0  0  0  0
   13.3985  -17.4924   23.2047 O   0  0  0  0  0  0  0  0  0  0  0  0
  1  2  1  0
  2  3  1  0
  3  5  1  0
  3  4  1  1
  5  6  1  1
  7  8  2  0
  7  5  1  0
 10 11  1  1
 10  9  1  0
 12 10  1  0
 12 13  1  1
 13  7  1  0
 14 12  1  0
 15 14  2  0
 17 16  1  0
 18 17  2  0
 20 19  1  6
 19 17  1  0
 20 21  1  0
 21 14  1  0
 22 20  1  0
 22 23  1  0
 24 22  2  0
M  END
$$$$
