IVN.pdb
     RDKit          3D

 24 23  0  0  1  0  0  0  0  0999 V2000
    7.0488  -18.5720   20.3568 C   0  0  0  0  0  0  0  0  0  0  0  0
    7.3613  -17.0927   20.4241 C   0  0  0  0  0  0  0  0  0  0  0  0
    7.6774  -16.6422   21.8348 C   0  0  2  0  0  0  0  0  0  0  0  0
    6.4735  -16.9885   22.6899 C   0  0  0  0  0  0  0  0  0  0  0  0
    7.8688  -15.1387   21.7811 C   0  0  2  0  0  0  0  0  0  0  0  0
    8.8446  -14.7684   20.7731 N   0  0  0  0  0  0  0  0  0  0  0  0
    8.3328  -14.5935   23.0719 C   0  0  0  0  0  0  0  0  0  0  0  0
    9.5766  -14.5362   23.3693 O   0  0  0  0  0  0  0  0  0  0  0  0
    6.8280  -12.9296   27.5278 C   0  0  0  0  0  0  0  0  0  0  0  0
    6.7450  -13.0072   26.0421 C   0  0  1  0  0  0  0  0  0  0  0  0
    6.5132  -11.6921   25.3641 C   0  0  0  0  0  0  0  0  0  0  0  0
    7.9195  -13.7926   25.4472 C   0  0  2  0  0  0  0  0  0  0  0  0
    7.4658  -14.0950   24.0776 N   0  0  0  0  0  0  0  0  0  0  0  0
    8.1787  -15.0542   26.1852 C   0  0  0  0  0  0  0  0  0  0  0  0
    8.6858  -14.9816   27.3590 O   0  0  0  0  0  0  0  0  0  0  0  0
    7.0095  -19.4242   28.1137 N   0  0  0  0  0  0  0  0  0  0  0  0
    6.9145  -19.6678   26.7135 C   0  0  0  0  0  0  0  0  0  0  0  0
    6.2672  -20.6542   26.3412 O   0  0  0  0  0  0  0  0  0  0  0  0
    7.5744  -18.7576   25.7994 C   0  0  0  0  0  0  0  0  0  0  0  0
    8.2384  -17.5815   26.4581 C   0  0  2  0  0  0  0  0  0  0  0  0
    7.9048  -16.3478   25.6876 N   0  0  0  0  0  0  0  0  0  0  0  0
    9.6899  -17.6671   26.6062 C   0  0  0  0  0  0  0  0  0  0  0  0
   10.5860  -17.2585   25.6601 O   0  0  0  0  0  0  0  0  0  0  0  0
   10.2094  -18.1498   27.6738 O   0  0  0  0  0  0  0  0  0  0  0  0
  1  2  1  0
  2  3  1  0
  3  5  1  0
  3  4  1  1
  5  6  1  6
  7  8  2  0
  7  5  1  0
 10 11  1  6
 10  9  1  0
 12 10  1  0
 12 13  1  6
 13  7  1  0
 14 12  1  0
 15 14  2  0
 17 16  1  0
 18 17  2  0
 20 19  1  6
 19 17  1  0
 20 21  1  0
 21 14  1  0
 22 20  1  0
 22 23  1  0
 24 22  2  0
M  END
$$$$
