IVN.pdb
     RDKit          3D

 24 23  0  0  1  0  0  0  0  0999 V2000
    6.9202  -10.6693   26.6939 C   0  0  0  0  0  0  0  0  0  0  0  0
    7.5396  -12.0453   26.8098 C   0  0  0  0  0  0  0  0  0  0  0  0
    6.9479  -13.0207   25.8140 C   0  0  2  0  0  0  0  0  0  0  0  0
    5.5335  -13.3184   26.2735 C   0  0  0  0  0  0  0  0  0  0  0  0
    7.7958  -14.2767   25.8757 C   0  0  2  0  0  0  0  0  0  0  0  0
    9.1981  -13.9558   26.0649 N   0  0  0  0  0  0  0  0  0  0  0  0
    7.6851  -15.0801   24.6425 C   0  0  0  0  0  0  0  0  0  0  0  0
    6.7564  -15.9473   24.4861 O   0  0  0  0  0  0  0  0  0  0  0  0
    6.8319  -14.0642   21.3619 C   0  0  0  0  0  0  0  0  0  0  0  0
    8.1821  -14.6818   21.2359 C   0  0  1  0  0  0  0  0  0  0  0  0
    9.3066  -13.6985   21.1294 C   0  0  0  0  0  0  0  0  0  0  0  0
    8.4191  -15.7541   22.3055 C   0  0  2  0  0  0  0  0  0  0  0  0
    8.5748  -14.9693   23.5435 N   0  0  0  0  0  0  0  0  0  0  0  0
    9.6513  -16.5398   22.0453 C   0  0  0  0  0  0  0  0  0  0  0  0
   10.7852  -15.9923   22.2793 O   0  0  0  0  0  0  0  0  0  0  0  0
    9.7626  -20.3194   24.2060 N   0  0  0  0  0  0  0  0  0  0  0  0
   10.8872  -19.8365   23.4774 C   0  0  0  0  0  0  0  0  0  0  0  0
   11.8301  -19.3583   24.1200 O   0  0  0  0  0  0  0  0  0  0  0  0
   10.8743  -19.9269   22.0313 C   0  0  0  0  0  0  0  0  0  0  0  0
   10.9465  -18.6046   21.3212 C   0  0  2  0  0  0  0  0  0  0  0  0
    9.6719  -17.8642   21.5536 N   0  0  0  0  0  0  0  0  0  0  0  0
   11.2020  -18.6643   19.8833 C   0  0  0  0  0  0  0  0  0  0  0  0
   10.3551  -18.1756   18.9298 O   0  0  0  0  0  0  0  0  0  0  0  0
   12.2755  -19.2003   19.4331 O   0  0  0  0  0  0  0  0  0  0  0  0
  1  2  1  0
  2  3  1  0
  3  5  1  0
  3  4  1  1
  5  6  1  6
  7  8  2  0
  7  5  1  0
 10 11  1  1
 10  9  1  0
 12 10  1  0
 12 13  1  1
 13  7  1  0
 14 12  1  0
 15 14  2  0
 17 16  1  0
 18 17  2  0
 20 19  1  6
 19 17  1  0
 20 21  1  0
 21 14  1  0
 22 20  1  0
 22 23  1  0
 24 22  2  0
M  END
$$$$
