IVN.pdb
     RDKit          3D

 24 23  0  0  1  0  0  0  0  0999 V2000
    6.8962  -11.5113   27.7775 C   0  0  0  0  0  0  0  0  0  0  0  0
    6.1679  -12.5651   26.9716 C   0  0  0  0  0  0  0  0  0  0  0  0
    7.1246  -13.5117   26.2774 C   0  0  2  0  0  0  0  0  0  0  0  0
    8.0106  -12.6670   25.3820 C   0  0  0  0  0  0  0  0  0  0  0  0
    6.2787  -14.4534   25.4421 C   0  0  2  0  0  0  0  0  0  0  0  0
    5.4514  -15.3008   26.2804 N   0  0  0  0  0  0  0  0  0  0  0  0
    7.1052  -15.3355   24.5950 C   0  0  0  0  0  0  0  0  0  0  0  0
    7.5283  -16.4681   25.0158 O   0  0  0  0  0  0  0  0  0  0  0  0
    6.8046  -15.3207   20.5340 C   0  0  0  0  0  0  0  0  0  0  0  0
    8.2065  -15.3070   21.0387 C   0  0  1  0  0  0  0  0  0  0  0  0
    8.8938  -13.9813   20.9254 C   0  0  0  0  0  0  0  0  0  0  0  0
    8.3131  -15.9228   22.4385 C   0  0  2  0  0  0  0  0  0  0  0  0
    7.4979  -15.0185   23.2695 N   0  0  0  0  0  0  0  0  0  0  0  0
    9.7120  -15.9436   22.9346 C   0  0  0  0  0  0  0  0  0  0  0  0
   10.2562  -14.8346   23.2728 O   0  0  0  0  0  0  0  0  0  0  0  0
   10.5739  -19.5009   25.6308 N   0  0  0  0  0  0  0  0  0  0  0  0
   11.5350  -18.4567   25.5094 C   0  0  0  0  0  0  0  0  0  0  0  0
   11.7133  -17.7189   26.4864 O   0  0  0  0  0  0  0  0  0  0  0  0
   12.2518  -18.3086   24.2589 C   0  0  0  0  0  0  0  0  0  0  0  0
   11.9291  -17.0539   23.4975 C   0  0  2  0  0  0  0  0  0  0  0  0
   10.5016  -17.1078   23.0659 N   0  0  0  0  0  0  0  0  0  0  0  0
   12.7650  -16.7817   22.3300 C   0  0  0  0  0  0  0  0  0  0  0  0
   13.9806  -16.1615   22.3810 O   0  0  0  0  0  0  0  0  0  0  0  0
   12.3796  -17.1258   21.1572 O   0  0  0  0  0  0  0  0  0  0  0  0
  1  2  1  0
  2  3  1  0
  3  5  1  0
  3  4  1  6
  5  6  1  1
  7  8  2  0
  7  5  1  0
 10 11  1  1
 10  9  1  0
 12 10  1  0
 12 13  1  1
 13  7  1  0
 14 12  1  0
 15 14  2  0
 17 16  1  0
 18 17  2  0
 20 19  1  6
 19 17  1  0
 20 21  1  0
 21 14  1  0
 22 20  1  0
 22 23  1  0
 24 22  2  0
M  END
$$$$
