IVN.pdb
     RDKit          3D

 24 23  0  0  1  0  0  0  0  0999 V2000
    7.8026  -11.7790   19.4857 C   0  0  0  0  0  0  0  0  0  0  0  0
    7.6021  -13.2707   19.3280 C   0  0  0  0  0  0  0  0  0  0  0  0
    8.5891  -13.8770   18.3527 C   0  0  2  0  0  0  0  0  0  0  0  0
    8.2140  -13.3721   16.9726 C   0  0  0  0  0  0  0  0  0  0  0  0
    8.4106  -15.3812   18.4283 C   0  0  2  0  0  0  0  0  0  0  0  0
    7.0513  -15.7668   18.0979 N   0  0  0  0  0  0  0  0  0  0  0  0
    8.7079  -15.9068   19.7752 C   0  0  0  0  0  0  0  0  0  0  0  0
    7.8194  -15.9370   20.6963 O   0  0  0  0  0  0  0  0  0  0  0  0
    7.9102  -17.9546   21.4885 C   0  0  0  0  0  0  0  0  0  0  0  0
    9.3659  -18.2729   21.4829 C   0  0  1  0  0  0  0  0  0  0  0  0
    9.7817  -19.2575   20.4339 C   0  0  0  0  0  0  0  0  0  0  0  0
   10.2256  -17.0037   21.4921 C   0  0  2  0  0  0  0  0  0  0  0  0
    9.9738  -16.4143   20.1646 N   0  0  0  0  0  0  0  0  0  0  0  0
   11.6702  -17.3087   21.6452 C   0  0  0  0  0  0  0  0  0  0  0  0
   12.3777  -17.4592   20.5882 O   0  0  0  0  0  0  0  0  0  0  0  0
   13.5125  -14.2022   20.6400 N   0  0  0  0  0  0  0  0  0  0  0  0
   14.2412  -14.9683   21.5944 C   0  0  0  0  0  0  0  0  0  0  0  0
   15.4107  -15.2678   21.3235 O   0  0  0  0  0  0  0  0  0  0  0  0
   13.5849  -15.3575   22.8261 C   0  0  0  0  0  0  0  0  0  0  0  0
   13.6673  -16.8241   23.1426 C   0  0  2  0  0  0  0  0  0  0  0  0
   12.3361  -17.4470   22.8835 N   0  0  0  0  0  0  0  0  0  0  0  0
   14.0904  -17.1625   24.5000 C   0  0  0  0  0  0  0  0  0  0  0  0
   15.3921  -17.3011   24.8889 O   0  0  0  0  0  0  0  0  0  0  0  0
   13.2239  -17.3532   25.4249 O   0  0  0  0  0  0  0  0  0  0  0  0
  1  2  1  0
  2  3  1  0
  3  5  1  0
  3  4  1  6
  5  6  1  1
  7  8  2  0
  7  5  1  0
 10 11  1  6
 10  9  1  0
 12 10  1  0
 12 13  1  6
 13  7  1  0
 14 12  1  0
 15 14  2  0
 17 16  1  0
 18 17  2  0
 20 19  1  1
 19 17  1  0
 20 21  1  0
 21 14  1  0
 22 20  1  0
 22 23  1  0
 24 22  2  0
M  END
$$$$
