IVN.pdb
     RDKit          3D

 24 23  0  0  1  0  0  0  0  0999 V2000
    8.1479  -11.9922   19.9134 C   0  0  0  0  0  0  0  0  0  0  0  0
    7.7280  -13.0548   20.9059 C   0  0  0  0  0  0  0  0  0  0  0  0
    8.3285  -14.4062   20.5799 C   0  0  2  0  0  0  0  0  0  0  0  0
    7.6983  -14.8681   19.2800 C   0  0  0  0  0  0  0  0  0  0  0  0
    7.9438  -15.3400   21.7114 C   0  0  2  0  0  0  0  0  0  0  0  0
    6.5024  -15.4332   21.8493 N   0  0  0  0  0  0  0  0  0  0  0  0
    8.4874  -14.8913   23.0082 C   0  0  0  0  0  0  0  0  0  0  0  0
    9.7457  -14.7507   23.1973 O   0  0  0  0  0  0  0  0  0  0  0  0
    7.3852  -13.0834   27.5232 C   0  0  0  0  0  0  0  0  0  0  0  0
    7.0509  -13.4927   26.1300 C   0  0  1  0  0  0  0  0  0  0  0  0
    6.3769  -12.4313   25.3163 C   0  0  0  0  0  0  0  0  0  0  0  0
    8.2531  -14.1242   25.4188 C   0  0  2  0  0  0  0  0  0  0  0  0
    7.6867  -14.5821   24.1373 N   0  0  0  0  0  0  0  0  0  0  0  0
    8.8035  -15.2795   26.1710 C   0  0  0  0  0  0  0  0  0  0  0  0
    8.0682  -16.3176   26.3194 O   0  0  0  0  0  0  0  0  0  0  0  0
   13.1316  -18.6011   25.3901 N   0  0  0  0  0  0  0  0  0  0  0  0
   12.0282  -18.2514   26.2200 C   0  0  0  0  0  0  0  0  0  0  0  0
   11.1825  -19.1235   26.4547 O   0  0  0  0  0  0  0  0  0  0  0  0
   11.9483  -16.9034   26.7454 C   0  0  0  0  0  0  0  0  0  0  0  0
   10.6339  -16.5588   27.3869 C   0  0  2  0  0  0  0  0  0  0  0  0
   10.0943  -15.3251   26.7437 N   0  0  0  0  0  0  0  0  0  0  0  0
   10.6612  -16.3626   28.8349 C   0  0  0  0  0  0  0  0  0  0  0  0
   10.7583  -17.3740   29.7474 O   0  0  0  0  0  0  0  0  0  0  0  0
   10.5916  -15.1846   29.3350 O   0  0  0  0  0  0  0  0  0  0  0  0
  1  2  1  0
  2  3  1  0
  3  5  1  0
  3  4  1  6
  5  6  1  1
  7  8  2  0
  7  5  1  0
 10 11  1  6
 10  9  1  0
 12 10  1  0
 12 13  1  6
 13  7  1  0
 14 12  1  0
 15 14  2  0
 17 16  1  0
 18 17  2  0
 20 19  1  6
 19 17  1  0
 20 21  1  0
 21 14  1  0
 22 20  1  0
 22 23  1  0
 24 22  2  0
M  END
$$$$
