PHD.pdb
     RDKit          3D

 26 27  0  0  1  0  0  0  0  0999 V2000
    7.8395  -12.3798   26.2255 N   0  0  0  0  0  0  0  0  0  0  0  0
    7.0821  -11.2769   26.7948 C   0  0  0  0  0  0  0  0  0  0  0  0
    5.6286  -11.5264   26.5261 C   0  0  0  0  0  0  0  0  0  0  0  0
    5.6278  -12.6379   25.5056 C   0  0  0  0  0  0  0  0  0  0  0  0
    6.8642  -13.4045   25.9375 C   0  0  1  0  0  0  0  0  0  0  0  0
    7.3140  -14.4228   25.0034 C   0  0  0  0  0  0  0  0  0  0  0  0
    6.6764  -15.5169   24.8135 O   0  0  0  0  0  0  0  0  0  0  0  0
    8.4891  -14.2557   24.2507 N   0  0  0  0  0  0  0  0  0  0  0  0
    9.0068  -15.3426   23.4373 C   0  0  1  0  0  0  0  0  0  0  0  0
    9.5936  -14.7277   22.1637 C   0  0  0  0  0  0  0  0  0  0  0  0
    8.4421  -14.4410   21.2512 C   0  0  0  0  0  0  0  0  0  0  0  0
    7.1234  -14.7350   21.4165 C   0  0  0  0  0  0  0  0  0  0  0  0
    6.4471  -14.3001   20.3547 N   0  0  0  0  0  0  0  0  0  0  0  0
    7.3557  -13.7354   19.5314 C   0  0  0  0  0  0  0  0  0  0  0  0
    8.5759  -13.8107   20.0585 N   0  0  0  0  0  0  0  0  0  0  0  0
   10.1031  -16.0722   24.1022 C   0  0  0  0  0  0  0  0  0  0  0  0
   11.0390  -15.4934   24.7150 O   0  0  0  0  0  0  0  0  0  0  0  0
   10.1262  -17.4760   24.0640 N   0  0  0  0  0  0  0  0  0  0  0  0
   11.0888  -18.3204   24.6786 C   0  0  1  0  0  0  0  0  0  0  0  0
   10.5079  -19.4784   25.4464 C   0  0  0  0  0  0  0  0  0  0  0  0
   10.2445  -19.1309   26.8497 C   0  0  0  0  0  0  0  0  0  0  0  0
   10.5938  -18.0217   27.2938 O   0  0  0  0  0  0  0  0  0  0  0  0
   12.1215  -18.8383   23.7616 C   0  0  0  0  0  0  0  0  0  0  0  0
   13.2236  -19.5103   24.2675 O   0  0  0  0  0  0  0  0  0  0  0  0
    9.6122  -20.0262   27.6791 O   0  0  0  0  0  0  0  0  0  0  0  0
   12.0654  -18.7053   22.5104 O   0  0  0  0  0  0  0  0  0  0  0  0
  1  2  1  0
  2  3  1  0
  4  3  1  0
  5  6  1  6
  5  1  1  0
  5  4  1  0
  6  8  1  0
  7  6  2  0
  8  9  1  0
  9 10  1  6
 10 11  1  0
 11 12  2  0
 11 15  1  0
 12 13  1  0
 13 14  1  0
 15 14  2  0
 16 18  1  0
 16  9  1  0
 17 16  2  0
 19 18  1  0
 19 23  1  0
 20 21  1  0
 19 20  1  6
 21 22  2  0
 23 24  1  0
 25 21  1  0
 26 23  2  0
M  END
$$$$
