PHD.pdb
     RDKit          3D

 26 27  0  0  1  0  0  0  0  0999 V2000
    8.9955  -14.8073   17.5804 N   0  0  0  0  0  0  0  0  0  0  0  0
    8.2373  -14.0566   16.5925 C   0  0  0  0  0  0  0  0  0  0  0  0
    7.8253  -12.7568   17.2155 C   0  0  0  0  0  0  0  0  0  0  0  0
    8.1004  -12.9495   18.6866 C   0  0  0  0  0  0  0  0  0  0  0  0
    9.3145  -13.8573   18.6197 C   0  0  1  0  0  0  0  0  0  0  0  0
    9.7068  -14.4540   19.8852 C   0  0  0  0  0  0  0  0  0  0  0  0
    9.8840  -13.7641   20.9494 O   0  0  0  0  0  0  0  0  0  0  0  0
    9.9150  -15.8387   20.0067 N   0  0  0  0  0  0  0  0  0  0  0  0
   10.3680  -16.4107   21.2631 C   0  0  1  0  0  0  0  0  0  0  0  0
    9.6301  -17.7380   21.4591 C   0  0  0  0  0  0  0  0  0  0  0  0
    8.1659  -17.4295   21.4169 C   0  0  0  0  0  0  0  0  0  0  0  0
    7.3374  -17.0629   22.4328 C   0  0  0  0  0  0  0  0  0  0  0  0
    6.1089  -16.8908   21.9480 N   0  0  0  0  0  0  0  0  0  0  0  0
    6.1825  -17.1534   20.6259 C   0  0  0  0  0  0  0  0  0  0  0  0
    7.4257  -17.4832   20.2825 N   0  0  0  0  0  0  0  0  0  0  0  0
   11.8099  -16.7224   21.2539 C   0  0  0  0  0  0  0  0  0  0  0  0
   12.3099  -17.6326   20.5411 O   0  0  0  0  0  0  0  0  0  0  0  0
   12.6848  -15.9847   22.0680 N   0  0  0  0  0  0  0  0  0  0  0  0
   14.0837  -16.1893   22.2044 C   0  0  1  0  0  0  0  0  0  0  0  0
   14.9334  -15.0279   21.7600 C   0  0  0  0  0  0  0  0  0  0  0  0
   14.9014  -14.8493   20.3018 C   0  0  0  0  0  0  0  0  0  0  0  0
   14.8499  -15.8421   19.5527 O   0  0  0  0  0  0  0  0  0  0  0  0
   14.5134  -16.5928   23.5565 C   0  0  0  0  0  0  0  0  0  0  0  0
   15.8030  -17.0572   23.7641 O   0  0  0  0  0  0  0  0  0  0  0  0
   14.9278  -13.5877   19.7568 O   0  0  0  0  0  0  0  0  0  0  0  0
   13.7613  -16.5414   24.5655 O   0  0  0  0  0  0  0  0  0  0  0  0
  1  2  1  0
  2  3  1  0
  4  3  1  0
  5  6  1  1
  5  1  1  0
  5  4  1  0
  6  8  1  0
  7  6  2  0
  8  9  1  0
  9 10  1  6
 10 11  1  0
 11 12  2  0
 11 15  1  0
 12 13  1  0
 13 14  1  0
 15 14  2  0
 16 18  1  0
 16  9  1  0
 17 16  2  0
 19 18  1  0
 19 23  1  0
 20 21  1  0
 19 20  1  1
 21 22  2  0
 23 24  1  0
 25 21  1  0
 26 23  2  0
M  END
$$$$
