PHD.pdb
     RDKit          3D

 26 27  0  0  1  0  0  0  0  0999 V2000
    9.9611  -16.4029   16.1202 N   0  0  0  0  0  0  0  0  0  0  0  0
    9.3809  -16.3011   14.7908 C   0  0  0  0  0  0  0  0  0  0  0  0
    9.5324  -14.8835   14.3273 C   0  0  0  0  0  0  0  0  0  0  0  0
    9.9228  -14.1278   15.5736 C   0  0  0  0  0  0  0  0  0  0  0  0
   10.7276  -15.1922   16.2962 C   0  0  1  0  0  0  0  0  0  0  0  0
   11.0593  -14.8813   17.6764 C   0  0  0  0  0  0  0  0  0  0  0  0
   12.0399  -14.1231   17.9978 O   0  0  0  0  0  0  0  0  0  0  0  0
   10.3097  -15.4051   18.7437 N   0  0  0  0  0  0  0  0  0  0  0  0
   10.6761  -15.1113   20.1186 C   0  0  1  0  0  0  0  0  0  0  0  0
    9.3806  -14.9815   20.9244 C   0  0  0  0  0  0  0  0  0  0  0  0
    8.5890  -13.8771   20.2962 C   0  0  0  0  0  0  0  0  0  0  0  0
    8.9214  -13.0716   19.2505 C   0  0  0  0  0  0  0  0  0  0  0  0
    7.9213  -12.2215   19.0248 N   0  0  0  0  0  0  0  0  0  0  0  0
    6.9682  -12.5060   19.9375 C   0  0  0  0  0  0  0  0  0  0  0  0
    7.3549  -13.5105   20.7209 N   0  0  0  0  0  0  0  0  0  0  0  0
   11.4565  -16.1986   20.7392 C   0  0  0  0  0  0  0  0  0  0  0  0
   11.2578  -17.4162   20.4853 O   0  0  0  0  0  0  0  0  0  0  0  0
   12.4723  -15.8872   21.6578 N   0  0  0  0  0  0  0  0  0  0  0  0
   13.4129  -16.7944   22.2142 C   0  0  1  0  0  0  0  0  0  0  0  0
   14.3166  -17.4565   21.2077 C   0  0  0  0  0  0  0  0  0  0  0  0
   15.2693  -16.5071   20.6158 C   0  0  0  0  0  0  0  0  0  0  0  0
   15.2980  -15.3260   21.0078 O   0  0  0  0  0  0  0  0  0  0  0  0
   14.2475  -16.2261   23.2895 C   0  0  0  0  0  0  0  0  0  0  0  0
   14.1534  -14.8785   23.6010 O   0  0  0  0  0  0  0  0  0  0  0  0
   16.1330  -16.9162   19.6279 O   0  0  0  0  0  0  0  0  0  0  0  0
   15.0653  -16.9068   23.9634 O   0  0  0  0  0  0  0  0  0  0  0  0
  1  2  1  0
  2  3  1  0
  4  3  1  0
  5  6  1  1
  5  1  1  0
  5  4  1  0
  6  8  1  0
  7  6  2  0
  8  9  1  0
  9 10  1  1
 10 11  1  0
 11 12  2  0
 11 15  1  0
 12 13  1  0
 13 14  1  0
 15 14  2  0
 16 18  1  0
 16  9  1  0
 17 16  2  0
 19 18  1  0
 19 23  1  0
 20 21  1  0
 19 20  1  6
 21 22  2  0
 23 24  1  0
 25 21  1  0
 26 23  2  0
M  END
$$$$
