PHD.pdb
     RDKit          3D

 26 27  0  0  1  0  0  0  0  0999 V2000
    9.2302  -13.2959   18.6804 N   0  0  0  0  0  0  0  0  0  0  0  0
    8.1425  -12.5589   18.0575 C   0  0  0  0  0  0  0  0  0  0  0  0
    6.8745  -12.9105   18.7758 C   0  0  0  0  0  0  0  0  0  0  0  0
    7.2434  -14.1145   19.6071 C   0  0  0  0  0  0  0  0  0  0  0  0
    8.6919  -13.7925   19.9246 C   0  0  1  0  0  0  0  0  0  0  0  0
    9.4481  -14.8816   20.5192 C   0  0  0  0  0  0  0  0  0  0  0  0
    9.0072  -15.5732   21.5027 O   0  0  0  0  0  0  0  0  0  0  0  0
   10.7203  -15.2358   20.0380 N   0  0  0  0  0  0  0  0  0  0  0  0
   11.4368  -16.3655   20.6049 C   0  0  1  0  0  0  0  0  0  0  0  0
   12.2047  -17.0436   19.4668 C   0  0  0  0  0  0  0  0  0  0  0  0
   13.0699  -15.9936   18.8426 C   0  0  0  0  0  0  0  0  0  0  0  0
   12.7215  -14.7658   18.3694 C   0  0  0  0  0  0  0  0  0  0  0  0
   13.8091  -14.1610   17.8947 N   0  0  0  0  0  0  0  0  0  0  0  0
   14.8323  -15.0224   18.0770 C   0  0  0  0  0  0  0  0  0  0  0  0
   14.4036  -16.1437   18.6524 N   0  0  0  0  0  0  0  0  0  0  0  0
   12.4374  -15.9535   21.6075 C   0  0  0  0  0  0  0  0  0  0  0  0
   12.8968  -14.7827   21.6765 O   0  0  0  0  0  0  0  0  0  0  0  0
   12.9147  -16.8910   22.5380 N   0  0  0  0  0  0  0  0  0  0  0  0
   13.8665  -16.6508   23.5644 C   0  0  1  0  0  0  0  0  0  0  0  0
   13.8099  -17.6240   24.7123 C   0  0  0  0  0  0  0  0  0  0  0  0
   12.4637  -17.7090   25.2952 C   0  0  0  0  0  0  0  0  0  0  0  0
   11.8831  -16.6764   25.6776 O   0  0  0  0  0  0  0  0  0  0  0  0
   15.2621  -16.5619   23.0950 C   0  0  0  0  0  0  0  0  0  0  0  0
   15.6144  -17.0935   21.8641 O   0  0  0  0  0  0  0  0  0  0  0  0
   11.8381  -18.9264   25.4216 O   0  0  0  0  0  0  0  0  0  0  0  0
   16.1826  -16.0180   23.7607 O   0  0  0  0  0  0  0  0  0  0  0  0
  1  2  1  0
  2  3  1  0
  4  3  1  0
  5  6  1  6
  5  1  1  0
  5  4  1  0
  6  8  1  0
  7  6  2  0
  8  9  1  0
  9 10  1  6
 10 11  1  0
 11 12  2  0
 11 15  1  0
 12 13  1  0
 13 14  1  0
 15 14  2  0
 16 18  1  0
 16  9  1  0
 17 16  2  0
 19 18  1  0
 19 23  1  0
 20 21  1  0
 19 20  1  1
 21 22  2  0
 23 24  1  0
 25 21  1  0
 26 23  2  0
M  END
$$$$
