PHD.pdb
     RDKit          3D

 26 27  0  0  1  0  0  0  0  0999 V2000
    8.1975  -18.7069   18.6734 N   0  0  0  0  0  0  0  0  0  0  0  0
    7.4301  -19.1148   17.5076 C   0  0  0  0  0  0  0  0  0  0  0  0
    7.6506  -18.0969   16.4294 C   0  0  0  0  0  0  0  0  0  0  0  0
    8.3056  -16.9399   17.1429 C   0  0  0  0  0  0  0  0  0  0  0  0
    9.1010  -17.6861   18.1981 C   0  0  1  0  0  0  0  0  0  0  0  0
    9.6740  -16.8519   19.2408 C   0  0  0  0  0  0  0  0  0  0  0  0
   10.6326  -16.0317   19.0212 O   0  0  0  0  0  0  0  0  0  0  0  0
    9.1982  -16.9042   20.5622 N   0  0  0  0  0  0  0  0  0  0  0  0
    9.7887  -16.0691   21.5941 C   0  0  1  0  0  0  0  0  0  0  0  0
    8.6437  -15.3859   22.3470 C   0  0  0  0  0  0  0  0  0  0  0  0
    7.9589  -14.4845   21.3676 C   0  0  0  0  0  0  0  0  0  0  0  0
    6.6813  -14.5385   20.9009 C   0  0  0  0  0  0  0  0  0  0  0  0
    6.4933  -13.5406   20.0392 N   0  0  0  0  0  0  0  0  0  0  0  0
    7.6625  -12.8688   19.9756 C   0  0  0  0  0  0  0  0  0  0  0  0
    8.5675  -13.4272   20.7766 N   0  0  0  0  0  0  0  0  0  0  0  0
   10.5453  -16.8523   22.5894 C   0  0  0  0  0  0  0  0  0  0  0  0
   10.0849  -17.8867   23.1414 O   0  0  0  0  0  0  0  0  0  0  0  0
   11.8393  -16.4463   22.9542 N   0  0  0  0  0  0  0  0  0  0  0  0
   12.6940  -17.0921   23.8869 C   0  0  1  0  0  0  0  0  0  0  0  0
   14.0728  -16.4952   23.9914 C   0  0  0  0  0  0  0  0  0  0  0  0
   14.7718  -16.4960   22.6988 C   0  0  0  0  0  0  0  0  0  0  0  0
   14.6689  -17.4732   21.9346 O   0  0  0  0  0  0  0  0  0  0  0  0
   12.1336  -17.2154   25.2457 C   0  0  0  0  0  0  0  0  0  0  0  0
   12.0252  -18.4632   25.8400 O   0  0  0  0  0  0  0  0  0  0  0  0
   15.5418  -15.4201   22.3261 O   0  0  0  0  0  0  0  0  0  0  0  0
   11.7346  -16.2304   25.9216 O   0  0  0  0  0  0  0  0  0  0  0  0
  1  2  1  0
  2  3  1  0
  4  3  1  0
  5  6  1  1
  5  1  1  0
  5  4  1  0
  6  8  1  0
  7  6  2  0
  8  9  1  0
  9 10  1  1
 10 11  1  0
 11 12  2  0
 11 15  1  0
 12 13  1  0
 13 14  1  0
 15 14  2  0
 16 18  1  0
 16  9  1  0
 17 16  2  0
 19 18  1  0
 19 23  1  0
 20 21  1  0
 19 20  1  1
 21 22  2  0
 23 24  1  0
 25 21  1  0
 26 23  2  0
M  END
$$$$
