PHD.pdb
     RDKit          3D

 26 27  0  0  1  0  0  0  0  0999 V2000
    7.0582  -14.9791   22.2437 N   0  0  0  0  0  0  0  0  0  0  0  0
    5.6204  -14.7677   22.2915 C   0  0  0  0  0  0  0  0  0  0  0  0
    5.0183  -15.4062   21.0761 C   0  0  0  0  0  0  0  0  0  0  0  0
    6.2025  -15.6960   20.1870 C   0  0  0  0  0  0  0  0  0  0  0  0
    7.2624  -15.9891   21.2327 C   0  0  1  0  0  0  0  0  0  0  0  0
    8.6215  -16.0709   20.7248 C   0  0  0  0  0  0  0  0  0  0  0  0
    9.0636  -17.0941   20.0944 O   0  0  0  0  0  0  0  0  0  0  0  0
    9.5326  -15.0156   20.9027 N   0  0  0  0  0  0  0  0  0  0  0  0
   10.9127  -15.1494   20.4687 C   0  0  1  0  0  0  0  0  0  0  0  0
   11.2585  -13.9096   19.6393 C   0  0  0  0  0  0  0  0  0  0  0  0
   10.3475  -13.9155   18.4515 C   0  0  0  0  0  0  0  0  0  0  0  0
    9.2945  -13.0986   18.1746 C   0  0  0  0  0  0  0  0  0  0  0  0
    8.7612  -13.4609   17.0092 N   0  0  0  0  0  0  0  0  0  0  0  0
    9.4908  -14.5070   16.5669 C   0  0  0  0  0  0  0  0  0  0  0  0
   10.4611  -14.7995   17.4301 N   0  0  0  0  0  0  0  0  0  0  0  0
   11.8592  -15.1828   21.5997 C   0  0  0  0  0  0  0  0  0  0  0  0
   11.5871  -14.7106   22.7353 O   0  0  0  0  0  0  0  0  0  0  0  0
   13.1270  -15.7619   21.4272 N   0  0  0  0  0  0  0  0  0  0  0  0
   13.9108  -16.3898   22.4316 C   0  0  1  0  0  0  0  0  0  0  0  0
   13.2023  -17.4824   23.1881 C   0  0  0  0  0  0  0  0  0  0  0  0
   14.0424  -18.0477   24.2530 C   0  0  0  0  0  0  0  0  0  0  0  0
   15.1786  -17.5847   24.4633 O   0  0  0  0  0  0  0  0  0  0  0  0
   15.2060  -16.9131   21.9578 C   0  0  0  0  0  0  0  0  0  0  0  0
   16.3887  -16.3484   22.4097 O   0  0  0  0  0  0  0  0  0  0  0  0
   13.5801  -19.0889   25.0221 O   0  0  0  0  0  0  0  0  0  0  0  0
   15.3101  -17.8688   21.1442 O   0  0  0  0  0  0  0  0  0  0  0  0
  1  2  1  0
  2  3  1  0
  4  3  1  0
  5  6  1  6
  5  1  1  0
  5  4  1  0
  6  8  1  0
  7  6  2  0
  8  9  1  0
  9 10  1  6
 10 11  1  0
 11 12  2  0
 11 15  1  0
 12 13  1  0
 13 14  1  0
 15 14  2  0
 16 18  1  0
 16  9  1  0
 17 16  2  0
 19 18  1  0
 19 23  1  0
 20 21  1  0
 19 20  1  6
 21 22  2  0
 23 24  1  0
 25 21  1  0
 26 23  2  0
M  END
$$$$
