SPQ.pdb
     RDKit          3D

 23 23  0  0  1  0  0  0  0  0999 V2000
    7.1138  -18.5836   20.7511 O   0  0  0  0  0  0  0  0  0  0  0  0
    6.4199  -17.8631   19.7801 C   0  0  0  0  0  0  0  0  0  0  0  0
    7.3987  -17.0974   18.8676 C   0  0  2  0  0  0  0  0  0  0  0  0
    8.1793  -18.1381   18.1940 N   0  0  0  0  0  0  0  0  0  0  0  0
    8.2437  -16.2880   19.7542 C   0  0  0  0  0  0  0  0  0  0  0  0
    9.2441  -16.8787   20.2954 O   0  0  0  0  0  0  0  0  0  0  0  0
    7.9788  -14.9233   20.0056 N   0  0  0  0  0  0  0  0  0  0  0  0
    6.8500  -14.1618   19.4441 C   0  0  0  0  0  0  0  0  0  0  0  0
    6.6300  -13.1292   20.5228 C   0  0  0  0  0  0  0  0  0  0  0  0
    8.0854  -12.6676   20.7038 C   0  0  0  0  0  0  0  0  0  0  0  0
    8.7335  -14.0524   20.8657 C   0  0  1  0  0  0  0  0  0  0  0  0
    8.5233  -14.4114   22.3033 C   0  0  0  0  0  0  0  0  0  0  0  0
    7.4274  -14.2528   22.8823 O   0  0  0  0  0  0  0  0  0  0  0  0
    6.5042  -18.9898   26.3715 N   0  0  0  0  0  0  0  0  0  0  0  0
    7.3681  -18.6299   25.3045 C   0  0  0  0  0  0  0  0  0  0  0  0
    7.2650  -19.2589   24.2152 O   0  0  0  0  0  0  0  0  0  0  0  0
    8.3695  -17.5310   25.4832 C   0  0  0  0  0  0  0  0  0  0  0  0
    8.5014  -16.7854   24.1545 C   0  0  0  0  0  0  0  0  0  0  0  0
    9.4554  -15.6281   24.2957 C   0  0  2  0  0  0  0  0  0  0  0  0
    9.6336  -14.9554   23.0220 N   0  0  0  0  0  0  0  0  0  0  0  0
   10.7873  -16.0800   24.7872 C   0  0  0  0  0  0  0  0  0  0  0  0
   11.7245  -16.3479   23.9995 O   0  0  0  0  0  0  0  0  0  0  0  0
   11.0288  -16.2181   26.1540 O   0  0  0  0  0  0  0  0  0  0  0  0
  2  1  1  0
  3  2  1  0
  3  4  1  1
  5  3  1  0
  6  5  2  0
  7  5  1  0
  7  8  1  0
  9  8  1  0
 10 11  1  0
 10  9  1  0
 11 12  1  1
 11  7  1  0
 12 20  1  0
 13 12  2  0
 15 17  1  0
 15 14  1  0
 16 15  2  0
 18 17  1  0
 19 21  1  0
 19 18  1  6
 20 19  1  0
 21 22  2  0
 21 23  1  0
M  END
$$$$
