SPQ.pdb
     RDKit          3D

 23 23  0  0  1  0  0  0  0  0999 V2000
    6.9986  -18.2149   20.5927 O   0  0  0  0  0  0  0  0  0  0  0  0
    6.4589  -17.6961   19.4168 C   0  0  0  0  0  0  0  0  0  0  0  0
    7.5007  -16.8372   18.6725 C   0  0  2  0  0  0  0  0  0  0  0  0
    8.3464  -17.8003   17.9632 N   0  0  0  0  0  0  0  0  0  0  0  0
    8.2600  -16.1210   19.7049 C   0  0  0  0  0  0  0  0  0  0  0  0
    9.1496  -16.7928   20.3372 O   0  0  0  0  0  0  0  0  0  0  0  0
    8.0319  -14.7575   19.9957 N   0  0  0  0  0  0  0  0  0  0  0  0
    7.0886  -13.8840   19.2770 C   0  0  0  0  0  0  0  0  0  0  0  0
    6.7163  -12.9025   20.3616 C   0  0  0  0  0  0  0  0  0  0  0  0
    8.1296  -12.5600   20.8610 C   0  0  0  0  0  0  0  0  0  0  0  0
    8.6470  -13.9956   21.0489 C   0  0  1  0  0  0  0  0  0  0  0  0
    8.1279  -14.4212   22.3865 C   0  0  0  0  0  0  0  0  0  0  0  0
    6.9289  -14.2923   22.7141 O   0  0  0  0  0  0  0  0  0  0  0  0
    6.9144  -19.8598   23.2237 N   0  0  0  0  0  0  0  0  0  0  0  0
    6.9253  -18.6861   24.0216 C   0  0  0  0  0  0  0  0  0  0  0  0
    6.1108  -18.6104   24.9827 O   0  0  0  0  0  0  0  0  0  0  0  0
    7.8841  -17.5768   23.7176 C   0  0  0  0  0  0  0  0  0  0  0  0
    7.5071  -16.3711   24.5796 C   0  0  0  0  0  0  0  0  0  0  0  0
    8.6523  -15.3946   24.6439 C   0  0  2  0  0  0  0  0  0  0  0  0
    9.0580  -14.9951   23.3089 N   0  0  0  0  0  0  0  0  0  0  0  0
    9.8285  -15.9832   25.3439 C   0  0  0  0  0  0  0  0  0  0  0  0
   10.9091  -16.2013   24.7479 O   0  0  0  0  0  0  0  0  0  0  0  0
    9.7565  -16.3110   26.6978 O   0  0  0  0  0  0  0  0  0  0  0  0
  2  1  1  0
  3  2  1  0
  3  4  1  1
  5  3  1  0
  6  5  2  0
  7  5  1  0
  7  8  1  0
  9  8  1  0
 10 11  1  0
 10  9  1  0
 11 12  1  1
 11  7  1  0
 12 20  1  0
 13 12  2  0
 15 17  1  0
 15 14  1  0
 16 15  2  0
 18 17  1  0
 19 21  1  0
 19 18  1  6
 20 19  1  0
 21 22  2  0
 21 23  1  0
M  END
$$$$
