SPQ.pdb
     RDKit          3D

 23 23  0  0  1  0  0  0  0  0999 V2000
    6.7673  -18.5236   19.6688 O   0  0  0  0  0  0  0  0  0  0  0  0
    6.0556  -17.4628   19.1108 C   0  0  0  0  0  0  0  0  0  0  0  0
    6.9248  -16.7012   18.0904 C   0  0  2  0  0  0  0  0  0  0  0  0
    7.3590  -17.7190   17.1305 N   0  0  0  0  0  0  0  0  0  0  0  0
    8.0633  -16.1573   18.8410 C   0  0  0  0  0  0  0  0  0  0  0  0
    9.0859  -16.9189   18.9704 O   0  0  0  0  0  0  0  0  0  0  0  0
    8.0456  -14.8588   19.3973 N   0  0  0  0  0  0  0  0  0  0  0  0
    6.9186  -13.9145   19.3095 C   0  0  0  0  0  0  0  0  0  0  0  0
    7.1088  -13.1155   20.5758 C   0  0  0  0  0  0  0  0  0  0  0  0
    8.6098  -12.8122   20.4367 C   0  0  0  0  0  0  0  0  0  0  0  0
    9.0961  -14.2451   20.1640 C   0  0  1  0  0  0  0  0  0  0  0  0
    9.2084  -14.8786   21.5152 C   0  0  0  0  0  0  0  0  0  0  0  0
    8.2552  -14.9131   22.3226 O   0  0  0  0  0  0  0  0  0  0  0  0
    9.8048  -19.9781   20.7608 N   0  0  0  0  0  0  0  0  0  0  0  0
   10.5909  -19.6848   21.9055 C   0  0  0  0  0  0  0  0  0  0  0  0
   10.7942  -20.6076   22.7421 O   0  0  0  0  0  0  0  0  0  0  0  0
   11.1562  -18.3119   22.1002 C   0  0  0  0  0  0  0  0  0  0  0  0
   10.2567  -17.5607   23.0826 C   0  0  0  0  0  0  0  0  0  0  0  0
   10.6586  -16.1108   23.1574 C   0  0  2  0  0  0  0  0  0  0  0  0
   10.4644  -15.4605   21.8745 N   0  0  0  0  0  0  0  0  0  0  0  0
   12.0868  -15.9637   23.5556 C   0  0  0  0  0  0  0  0  0  0  0  0
   12.9391  -15.4679   22.7820 O   0  0  0  0  0  0  0  0  0  0  0  0
   12.5178  -16.3791   24.8154 O   0  0  0  0  0  0  0  0  0  0  0  0
  2  1  1  0
  3  2  1  0
  3  4  1  6
  5  3  1  0
  6  5  2  0
  7  5  1  0
  7  8  1  0
  9  8  1  0
 10 11  1  0
 10  9  1  0
 11 12  1  1
 11  7  1  0
 12 20  1  0
 13 12  2  0
 15 17  1  0
 15 14  1  0
 16 15  2  0
 18 17  1  0
 19 21  1  0
 19 18  1  6
 20 19  1  0
 21 22  2  0
 21 23  1  0
M  END
$$$$
