SPQ.pdb
     RDKit          3D

 23 23  0  0  1  0  0  0  0  0999 V2000
    8.9218  -17.1783   15.7316 O   0  0  0  0  0  0  0  0  0  0  0  0
    7.8375  -16.3296   15.5143 C   0  0  0  0  0  0  0  0  0  0  0  0
    8.3159  -14.8801   15.2974 C   0  0  2  0  0  0  0  0  0  0  0  0
    9.1044  -14.9235   14.0636 N   0  0  0  0  0  0  0  0  0  0  0  0
    9.1552  -14.5440   16.4541 C   0  0  0  0  0  0  0  0  0  0  0  0
   10.3961  -14.8554   16.3765 O   0  0  0  0  0  0  0  0  0  0  0  0
    8.6333  -13.9071   17.6021 N   0  0  0  0  0  0  0  0  0  0  0  0
    7.2045  -13.6537   17.8546 C   0  0  0  0  0  0  0  0  0  0  0  0
    7.1675  -13.6737   19.3635 C   0  0  0  0  0  0  0  0  0  0  0  0
    8.3569  -12.7387   19.6381 C   0  0  0  0  0  0  0  0  0  0  0  0
    9.3878  -13.4262   18.7278 C   0  0  1  0  0  0  0  0  0  0  0  0
    9.9191  -14.5665   19.5385 C   0  0  0  0  0  0  0  0  0  0  0  0
    9.3006  -15.6446   19.6681 O   0  0  0  0  0  0  0  0  0  0  0  0
   15.9743  -15.2817   20.2119 N   0  0  0  0  0  0  0  0  0  0  0  0
   15.1563  -14.4952   19.3595 C   0  0  0  0  0  0  0  0  0  0  0  0
   15.7151  -13.8274   18.4460 O   0  0  0  0  0  0  0  0  0  0  0  0
   13.6716  -14.4696   19.5527 C   0  0  0  0  0  0  0  0  0  0  0  0
   13.3198  -15.4480   20.6743 C   0  0  0  0  0  0  0  0  0  0  0  0
   11.8296  -15.4818   20.8917 C   0  0  2  0  0  0  0  0  0  0  0  0
   11.1852  -14.3930   20.1804 N   0  0  0  0  0  0  0  0  0  0  0  0
   11.4898  -15.3738   22.3383 C   0  0  0  0  0  0  0  0  0  0  0  0
   10.8806  -14.3808   22.8001 O   0  0  0  0  0  0  0  0  0  0  0  0
   11.8454  -16.3880   23.2274 O   0  0  0  0  0  0  0  0  0  0  0  0
  2  1  1  0
  3  2  1  0
  3  4  1  6
  5  3  1  0
  6  5  2  0
  7  5  1  0
  7  8  1  0
  9  8  1  0
 10 11  1  0
 10  9  1  0
 11 12  1  1
 11  7  1  0
 12 20  1  0
 13 12  2  0
 15 17  1  0
 15 14  1  0
 16 15  2  0
 18 17  1  0
 19 21  1  0
 19 18  1  1
 20 19  1  0
 21 22  2  0
 21 23  1  0
M  END
$$$$
