SPQ.pdb
     RDKit          3D

 23 23  0  0  1  0  0  0  0  0999 V2000
    5.0875  -17.2531   22.2059 O   0  0  0  0  0  0  0  0  0  0  0  0
    6.1700  -16.6362   22.8311 C   0  0  0  0  0  0  0  0  0  0  0  0
    6.3538  -15.1979   22.3072 C   0  0  2  0  0  0  0  0  0  0  0  0
    6.6524  -15.3511   20.8812 N   0  0  0  0  0  0  0  0  0  0  0  0
    7.4991  -14.6361   23.0336 C   0  0  0  0  0  0  0  0  0  0  0  0
    8.6646  -14.9242   22.5849 O   0  0  0  0  0  0  0  0  0  0  0  0
    7.3381  -13.8154   24.1722 N   0  0  0  0  0  0  0  0  0  0  0  0
    6.0445  -13.4007   24.7417 C   0  0  0  0  0  0  0  0  0  0  0  0
    6.4085  -13.2290   26.1965 C   0  0  0  0  0  0  0  0  0  0  0  0
    7.6795  -12.3818   26.0202 C   0  0  0  0  0  0  0  0  0  0  0  0
    8.3906  -13.2702   24.9863 C   0  0  1  0  0  0  0  0  0  0  0  0
    9.0521  -14.3450   25.7906 C   0  0  0  0  0  0  0  0  0  0  0  0
    8.4072  -15.1490   26.4971 O   0  0  0  0  0  0  0  0  0  0  0  0
   10.5835  -16.5018   30.3552 N   0  0  0  0  0  0  0  0  0  0  0  0
   10.4035  -15.1192   30.0895 C   0  0  0  0  0  0  0  0  0  0  0  0
   10.1950  -14.3464   31.0652 O   0  0  0  0  0  0  0  0  0  0  0  0
   10.4625  -14.6079   28.6834 C   0  0  0  0  0  0  0  0  0  0  0  0
   10.4830  -15.8107   27.7391 C   0  0  0  0  0  0  0  0  0  0  0  0
   11.2017  -15.4618   26.4620 C   0  0  2  0  0  0  0  0  0  0  0  0
   10.4782  -14.4364   25.7329 N   0  0  0  0  0  0  0  0  0  0  0  0
   11.3546  -16.6546   25.5824 C   0  0  0  0  0  0  0  0  0  0  0  0
   10.7679  -16.7390   24.4782 O   0  0  0  0  0  0  0  0  0  0  0  0
   12.1650  -17.7218   25.9698 O   0  0  0  0  0  0  0  0  0  0  0  0
  2  1  1  0
  3  2  1  0
  3  4  1  6
  5  3  1  0
  6  5  2  0
  7  5  1  0
  7  8  1  0
  9  8  1  0
 10 11  1  0
 10  9  1  0
 11 12  1  1
 11  7  1  0
 12 20  1  0
 13 12  2  0
 15 17  1  0
 15 14  1  0
 16 15  2  0
 18 17  1  0
 19 21  1  0
 19 18  1  1
 20 19  1  0
 21 22  2  0
 21 23  1  0
M  END
$$$$
