SPQ.pdb
     RDKit          3D

 23 23  0  0  1  0  0  0  0  0999 V2000
    9.1117  -17.1996   16.6122 O   0  0  0  0  0  0  0  0  0  0  0  0
    8.1599  -16.3582   16.0382 C   0  0  0  0  0  0  0  0  0  0  0  0
    8.7386  -14.9445   15.8295 C   0  0  2  0  0  0  0  0  0  0  0  0
    9.6472  -15.0735   14.6876 N   0  0  0  0  0  0  0  0  0  0  0  0
    9.4710  -14.6118   17.0576 C   0  0  0  0  0  0  0  0  0  0  0  0
   10.6830  -15.0211   17.1355 O   0  0  0  0  0  0  0  0  0  0  0  0
    8.8806  -13.8757   18.1090 N   0  0  0  0  0  0  0  0  0  0  0  0
    7.4951  -13.3759   18.1196 C   0  0  0  0  0  0  0  0  0  0  0  0
    7.2011  -13.3643   19.6001 C   0  0  0  0  0  0  0  0  0  0  0  0
    8.4702  -12.6437   20.0841 C   0  0  0  0  0  0  0  0  0  0  0  0
    9.5057  -13.5133   19.3523 C   0  0  1  0  0  0  0  0  0  0  0  0
    9.6878  -14.7146   20.2262 C   0  0  0  0  0  0  0  0  0  0  0  0
    8.9191  -15.6988   20.1844 O   0  0  0  0  0  0  0  0  0  0  0  0
   15.2184  -16.8000   21.4011 N   0  0  0  0  0  0  0  0  0  0  0  0
   14.9034  -15.4448   21.6817 C   0  0  0  0  0  0  0  0  0  0  0  0
   15.8510  -14.6140   21.7506 O   0  0  0  0  0  0  0  0  0  0  0  0
   13.4798  -15.0289   21.8879 C   0  0  0  0  0  0  0  0  0  0  0  0
   12.5901  -16.2557   21.6826 C   0  0  0  0  0  0  0  0  0  0  0  0
   11.1436  -15.8962   21.9005 C   0  0  2  0  0  0  0  0  0  0  0  0
   10.7909  -14.7137   21.1364 N   0  0  0  0  0  0  0  0  0  0  0  0
   10.8601  -15.6363   23.3399 C   0  0  0  0  0  0  0  0  0  0  0  0
   10.4358  -14.5264   23.7383 O   0  0  0  0  0  0  0  0  0  0  0  0
   11.0622  -16.6340   24.2935 O   0  0  0  0  0  0  0  0  0  0  0  0
  2  1  1  0
  3  2  1  0
  3  4  1  6
  5  3  1  0
  6  5  2  0
  7  5  1  0
  7  8  1  0
  9  8  1  0
 10 11  1  0
 10  9  1  0
 11 12  1  1
 11  7  1  0
 12 20  1  0
 13 12  2  0
 15 17  1  0
 15 14  1  0
 16 15  2  0
 18 17  1  0
 19 21  1  0
 19 18  1  1
 20 19  1  0
 21 22  2  0
 21 23  1  0
M  END
$$$$
