SPQ.pdb
     RDKit          3D

 23 23  0  0  1  0  0  0  0  0999 V2000
    7.5450  -17.5778   18.3116 O   0  0  0  0  0  0  0  0  0  0  0  0
    7.2492  -17.2616   16.9865 C   0  0  0  0  0  0  0  0  0  0  0  0
    7.9183  -15.9329   16.5817 C   0  0  2  0  0  0  0  0  0  0  0  0
    8.6732  -16.2457   15.3659 N   0  0  0  0  0  0  0  0  0  0  0  0
    8.8145  -15.5679   17.6857 C   0  0  0  0  0  0  0  0  0  0  0  0
    9.8913  -16.2527   17.8053 O   0  0  0  0  0  0  0  0  0  0  0  0
    8.5170  -14.5143   18.5787 N   0  0  0  0  0  0  0  0  0  0  0  0
    7.2893  -13.7011   18.5506 C   0  0  0  0  0  0  0  0  0  0  0  0
    7.1586  -13.3207   20.0055 C   0  0  0  0  0  0  0  0  0  0  0  0
    8.6006  -12.8482   20.2532 C   0  0  0  0  0  0  0  0  0  0  0  0
    9.3318  -14.0724   19.6781 C   0  0  1  0  0  0  0  0  0  0  0  0
    9.3255  -15.0806   20.7839 C   0  0  0  0  0  0  0  0  0  0  0  0
    8.3191  -15.7673   21.0617 O   0  0  0  0  0  0  0  0  0  0  0  0
   14.7244  -18.8599   23.5138 N   0  0  0  0  0  0  0  0  0  0  0  0
   13.4692  -18.8577   22.8514 C   0  0  0  0  0  0  0  0  0  0  0  0
   13.3340  -19.5820   21.8268 O   0  0  0  0  0  0  0  0  0  0  0  0
   12.3460  -18.0126   23.3676 C   0  0  0  0  0  0  0  0  0  0  0  0
   12.1488  -16.8413   22.4042 C   0  0  0  0  0  0  0  0  0  0  0  0
   10.7149  -16.3799   22.4271 C   0  0  2  0  0  0  0  0  0  0  0  0
   10.5289  -15.2476   21.5384 N   0  0  0  0  0  0  0  0  0  0  0  0
   10.2948  -15.9828   23.8003 C   0  0  0  0  0  0  0  0  0  0  0  0
   10.0552  -14.7890   24.0969 O   0  0  0  0  0  0  0  0  0  0  0  0
   10.1555  -16.9413   24.8039 O   0  0  0  0  0  0  0  0  0  0  0  0
  2  1  1  0
  3  2  1  0
  3  4  1  6
  5  3  1  0
  6  5  2  0
  7  5  1  0
  7  8  1  0
  9  8  1  0
 10 11  1  0
 10  9  1  0
 11 12  1  1
 11  7  1  0
 12 20  1  0
 13 12  2  0
 15 17  1  0
 15 14  1  0
 16 15  2  0
 18 17  1  0
 19 21  1  0
 19 18  1  1
 20 19  1  0
 21 22  2  0
 21 23  1  0
M  END
$$$$
