SPQ.pdb
     RDKit          3D

 23 23  0  0  1  0  0  0  0  0999 V2000
    8.4031  -17.3264   17.6107 O   0  0  0  0  0  0  0  0  0  0  0  0
    9.1888  -16.9588   16.5195 C   0  0  0  0  0  0  0  0  0  0  0  0
    9.2198  -15.4253   16.3634 C   0  0  2  0  0  0  0  0  0  0  0  0
   10.1329  -15.1782   15.2448 N   0  0  0  0  0  0  0  0  0  0  0  0
    9.7608  -14.8924   17.6198 C   0  0  0  0  0  0  0  0  0  0  0  0
   10.9748  -15.1937   17.8991 O   0  0  0  0  0  0  0  0  0  0  0  0
    8.9917  -14.0844   18.4868 N   0  0  0  0  0  0  0  0  0  0  0  0
    7.6336  -13.5902   18.2023 C   0  0  0  0  0  0  0  0  0  0  0  0
    7.0683  -13.4728   19.5969 C   0  0  0  0  0  0  0  0  0  0  0  0
    8.2318  -12.7145   20.2568 C   0  0  0  0  0  0  0  0  0  0  0  0
    9.3771  -13.6309   19.7959 C   0  0  1  0  0  0  0  0  0  0  0  0
    9.3808  -14.7652   20.7721 C   0  0  0  0  0  0  0  0  0  0  0  0
    8.7150  -15.8076   20.5939 O   0  0  0  0  0  0  0  0  0  0  0  0
   15.1228  -14.9446   21.8975 N   0  0  0  0  0  0  0  0  0  0  0  0
   14.7839  -16.1427   22.5787 C   0  0  0  0  0  0  0  0  0  0  0  0
   15.7201  -16.8499   23.0437 O   0  0  0  0  0  0  0  0  0  0  0  0
   13.3490  -16.5421   22.7329 C   0  0  0  0  0  0  0  0  0  0  0  0
   12.4766  -15.3730   22.2736 C   0  0  0  0  0  0  0  0  0  0  0  0
   11.0178  -15.7166   22.4256 C   0  0  2  0  0  0  0  0  0  0  0  0
   10.1847  -14.6287   21.9471 N   0  0  0  0  0  0  0  0  0  0  0  0
   10.6710  -15.9932   23.8479 C   0  0  0  0  0  0  0  0  0  0  0  0
   10.1245  -15.1295   24.5731 O   0  0  0  0  0  0  0  0  0  0  0  0
   10.9491  -17.2362   24.4165 O   0  0  0  0  0  0  0  0  0  0  0  0
  2  1  1  0
  3  2  1  0
  3  4  1  6
  5  3  1  0
  6  5  2  0
  7  5  1  0
  7  8  1  0
  9  8  1  0
 10 11  1  0
 10  9  1  0
 11 12  1  1
 11  7  1  0
 12 20  1  0
 13 12  2  0
 15 17  1  0
 15 14  1  0
 16 15  2  0
 18 17  1  0
 19 21  1  0
 19 18  1  1
 20 19  1  0
 21 22  2  0
 21 23  1  0
M  END
$$$$
