SPQ.pdb
     RDKit          3D

 23 23  0  0  1  0  0  0  0  0999 V2000
    8.3498  -17.4830   16.8238 O   0  0  0  0  0  0  0  0  0  0  0  0
    7.7511  -16.3374   16.3020 C   0  0  0  0  0  0  0  0  0  0  0  0
    8.7883  -15.2089   16.1357 C   0  0  2  0  0  0  0  0  0  0  0  0
    9.7459  -15.7187   15.1512 N   0  0  0  0  0  0  0  0  0  0  0  0
    9.4193  -15.0301   17.4491 C   0  0  0  0  0  0  0  0  0  0  0  0
   10.4311  -15.7727   17.7090 O   0  0  0  0  0  0  0  0  0  0  0  0
    8.9452  -14.0880   18.3890 N   0  0  0  0  0  0  0  0  0  0  0  0
    7.7383  -13.2599   18.2238 C   0  0  0  0  0  0  0  0  0  0  0  0
    7.3259  -13.0562   19.6614 C   0  0  0  0  0  0  0  0  0  0  0  0
    8.6886  -12.6375   20.2376 C   0  0  0  0  0  0  0  0  0  0  0  0
    9.5284  -13.7935   19.6700 C   0  0  1  0  0  0  0  0  0  0  0  0
    9.3185  -14.9277   20.6235 C   0  0  0  0  0  0  0  0  0  0  0  0
    8.2887  -15.6354   20.6099 O   0  0  0  0  0  0  0  0  0  0  0  0
   13.2641  -19.4838   20.4205 N   0  0  0  0  0  0  0  0  0  0  0  0
   13.2373  -18.1503   20.9057 C   0  0  0  0  0  0  0  0  0  0  0  0
   14.3178  -17.6423   21.3146 O   0  0  0  0  0  0  0  0  0  0  0  0
   11.9528  -17.3809   20.9250 C   0  0  0  0  0  0  0  0  0  0  0  0
   11.5628  -17.1408   22.3841 C   0  0  0  0  0  0  0  0  0  0  0  0
   10.2868  -16.3438   22.4609 C   0  0  2  0  0  0  0  0  0  0  0  0
   10.3497  -15.1934   21.5782 N   0  0  0  0  0  0  0  0  0  0  0  0
   10.0277  -15.8670   23.8485 C   0  0  0  0  0  0  0  0  0  0  0  0
   10.0569  -14.6493   24.1433 O   0  0  0  0  0  0  0  0  0  0  0  0
    9.7422  -16.7748   24.8682 O   0  0  0  0  0  0  0  0  0  0  0  0
  2  1  1  0
  3  2  1  0
  3  4  1  6
  5  3  1  0
  6  5  2  0
  7  5  1  0
  7  8  1  0
  9  8  1  0
 10 11  1  0
 10  9  1  0
 11 12  1  1
 11  7  1  0
 12 20  1  0
 13 12  2  0
 15 17  1  0
 15 14  1  0
 16 15  2  0
 18 17  1  0
 19 21  1  0
 19 18  1  1
 20 19  1  0
 21 22  2  0
 21 23  1  0
M  END
$$$$
