SPQ.pdb
     RDKit          3D

 23 23  0  0  1  0  0  0  0  0999 V2000
    8.1364  -13.0304   26.0107 O   0  0  0  0  0  0  0  0  0  0  0  0
    6.8064  -12.6234   25.9185 C   0  0  0  0  0  0  0  0  0  0  0  0
    5.9570  -13.6962   25.2081 C   0  0  2  0  0  0  0  0  0  0  0  0
    5.1601  -14.3120   26.2720 N   0  0  0  0  0  0  0  0  0  0  0  0
    6.9041  -14.6566   24.6285 C   0  0  0  0  0  0  0  0  0  0  0  0
    7.2810  -15.6220   25.3825 O   0  0  0  0  0  0  0  0  0  0  0  0
    7.3829  -14.5348   23.3049 N   0  0  0  0  0  0  0  0  0  0  0  0
    7.1297  -13.3894   22.4142 C   0  0  0  0  0  0  0  0  0  0  0  0
    8.3626  -13.4192   21.5439 C   0  0  0  0  0  0  0  0  0  0  0  0
    8.3590  -14.9145   21.1859 C   0  0  0  0  0  0  0  0  0  0  0  0
    8.2165  -15.4778   22.6094 C   0  0  1  0  0  0  0  0  0  0  0  0
    9.6051  -15.4733   23.1674 C   0  0  0  0  0  0  0  0  0  0  0  0
   10.5083  -14.7369   22.7161 O   0  0  0  0  0  0  0  0  0  0  0  0
   11.3007  -13.8714   28.3562 N   0  0  0  0  0  0  0  0  0  0  0  0
   10.2965  -14.8743   28.3446 C   0  0  0  0  0  0  0  0  0  0  0  0
    9.6086  -15.0419   29.3894 O   0  0  0  0  0  0  0  0  0  0  0  0
   10.0723  -15.7025   27.1174 C   0  0  0  0  0  0  0  0  0  0  0  0
   11.1148  -15.2998   26.0734 C   0  0  0  0  0  0  0  0  0  0  0  0
   11.1572  -16.3116   24.9582 C   0  0  2  0  0  0  0  0  0  0  0  0
    9.8862  -16.3537   24.2587 N   0  0  0  0  0  0  0  0  0  0  0  0
   11.4634  -17.6753   25.4743 C   0  0  0  0  0  0  0  0  0  0  0  0
   10.6256  -18.6055   25.4161 O   0  0  0  0  0  0  0  0  0  0  0  0
   12.7059  -17.9555   26.0427 O   0  0  0  0  0  0  0  0  0  0  0  0
  2  1  1  0
  3  2  1  0
  3  4  1  1
  5  3  1  0
  6  5  2  0
  7  5  1  0
  7  8  1  0
  9  8  1  0
 10 11  1  0
 10  9  1  0
 11 12  1  1
 11  7  1  0
 12 20  1  0
 13 12  2  0
 15 17  1  0
 15 14  1  0
 16 15  2  0
 18 17  1  0
 19 21  1  0
 19 18  1  1
 20 19  1  0
 21 22  2  0
 21 23  1  0
M  END
$$$$
