PDA.pdb
     RDKit          3D

 21 21  0  0  1  0  0  0  0  0999 V2000
    8.2271  -14.7713   19.5064 N   0  0  0  0  0  0  0  0  0  0  0  0
    7.1209  -13.8790   19.3167 C   0  0  0  0  0  0  0  0  0  0  0  0
    7.1986  -12.8729   20.4531 C   0  0  0  0  0  0  0  0  0  0  0  0
    8.7245  -12.7367   20.5549 C   0  0  0  0  0  0  0  0  0  0  0  0
    9.1193  -14.2003   20.4708 C   0  0  1  0  0  0  0  0  0  0  0  0
    8.9931  -14.8668   21.8035 C   0  0  0  0  0  0  0  0  0  0  0  0
    7.9089  -14.8627   22.4464 O   0  0  0  0  0  0  0  0  0  0  0  0
   10.0922  -15.5366   22.4050 N   0  0  0  0  0  0  0  0  0  0  0  0
    9.9119  -16.2615   23.6920 C   0  0  1  0  0  0  0  0  0  0  0  0
   10.7436  -17.4969   23.6871 C   0  0  0  0  0  0  0  0  0  0  0  0
   10.0875  -18.5953   22.9797 C   0  0  0  0  0  0  0  0  0  0  0  0
   10.4462  -19.1852   21.9462 O   0  0  0  0  0  0  0  0  0  0  0  0
   10.2460  -15.3137   24.7953 C   0  0  0  0  0  0  0  0  0  0  0  0
   11.3073  -14.6677   24.8417 O   0  0  0  0  0  0  0  0  0  0  0  0
    8.8739  -19.0642   23.5364 O   0  0  0  0  0  0  0  0  0  0  0  0
    8.6018  -13.3705   27.4260 C   0  0  0  0  0  0  0  0  0  0  0  0
    9.7326  -14.2831   26.9947 C   0  0  2  0  0  0  0  0  0  0  0  0
    9.3340  -15.1024   25.8757 N   0  0  0  0  0  0  0  0  0  0  0  0
   10.1343  -15.1069   28.1663 C   0  0  0  0  0  0  0  0  0  0  0  0
    9.9766  -16.3609   28.2149 O   0  0  0  0  0  0  0  0  0  0  0  0
   10.7092  -14.5097   29.2700 O   0  0  0  0  0  0  0  0  0  0  0  0
  1  2  1  0
  3  2  1  0
  4  5  1  0
  4  3  1  0
  5  1  1  0
  6  8  1  0
  5  6  1  1
  7  6  2  0
  9 13  1  0
  9  8  1  0
  9 10  1  6
 11 12  2  0
 11 10  1  0
 13 18  1  0
 14 13  2  0
 15 11  1  0
 17 16  1  1
 18 17  1  0
 19 17  1  0
 19 21  1  0
 20 19  2  0
M  END
$$$$
