PDA.pdb
     RDKit          3D

 21 21  0  0  1  0  0  0  0  0999 V2000
    9.4166  -14.1102   18.2546 N   0  0  0  0  0  0  0  0  0  0  0  0
    8.2924  -13.9404   17.3811 C   0  0  0  0  0  0  0  0  0  0  0  0
    7.0846  -13.7664   18.2869 C   0  0  0  0  0  0  0  0  0  0  0  0
    7.7401  -12.9581   19.4157 C   0  0  0  0  0  0  0  0  0  0  0  0
    9.0256  -13.7481   19.5843 C   0  0  1  0  0  0  0  0  0  0  0  0
    8.8059  -14.9523   20.4433 C   0  0  0  0  0  0  0  0  0  0  0  0
    8.2448  -14.8697   21.5690 O   0  0  0  0  0  0  0  0  0  0  0  0
    9.2202  -16.2460   20.0271 N   0  0  0  0  0  0  0  0  0  0  0  0
    8.9136  -17.4351   20.8676 C   0  0  1  0  0  0  0  0  0  0  0  0
    8.4602  -18.5552   19.9973 C   0  0  0  0  0  0  0  0  0  0  0  0
    8.0674  -19.7286   20.7759 C   0  0  0  0  0  0  0  0  0  0  0  0
    7.3781  -19.7874   21.8084 O   0  0  0  0  0  0  0  0  0  0  0  0
   10.1332  -17.7489   21.6686 C   0  0  0  0  0  0  0  0  0  0  0  0
   10.2088  -18.7170   22.4451 O   0  0  0  0  0  0  0  0  0  0  0  0
    8.5276  -20.9796   20.3009 O   0  0  0  0  0  0  0  0  0  0  0  0
   13.0360  -18.6114   21.8621 C   0  0  0  0  0  0  0  0  0  0  0  0
   12.4813  -17.2781   22.3226 C   0  0  2  0  0  0  0  0  0  0  0  0
   11.2988  -16.9268   21.5739 N   0  0  0  0  0  0  0  0  0  0  0  0
   13.5519  -16.2561   22.1749 C   0  0  0  0  0  0  0  0  0  0  0  0
   14.5214  -16.3832   21.3724 O   0  0  0  0  0  0  0  0  0  0  0  0
   13.5192  -15.1024   22.9320 O   0  0  0  0  0  0  0  0  0  0  0  0
  1  2  1  0
  3  2  1  0
  4  5  1  0
  4  3  1  0
  5  1  1  0
  6  8  1  0
  5  6  1  1
  7  6  2  0
  9 13  1  0
  9  8  1  0
  9 10  1  6
 11 12  2  0
 11 10  1  0
 13 18  1  0
 14 13  2  0
 15 11  1  0
 17 16  1  6
 18 17  1  0
 19 17  1  0
 19 21  1  0
 20 19  2  0
M  END
$$$$
