PDA.pdb
     RDKit          3D

 21 21  0  0  1  0  0  0  0  0999 V2000
    8.5699  -17.2730   16.6243 N   0  0  0  0  0  0  0  0  0  0  0  0
    8.5160  -18.4113   15.7543 C   0  0  0  0  0  0  0  0  0  0  0  0
    7.7002  -19.4602   16.4920 C   0  0  0  0  0  0  0  0  0  0  0  0
    6.6777  -18.5397   17.1735 C   0  0  0  0  0  0  0  0  0  0  0  0
    7.6071  -17.4470   17.6707 C   0  0  1  0  0  0  0  0  0  0  0  0
    8.2560  -17.8406   18.9592 C   0  0  0  0  0  0  0  0  0  0  0  0
    7.5787  -18.2033   19.9585 O   0  0  0  0  0  0  0  0  0  0  0  0
    9.6682  -17.8239   19.1141 N   0  0  0  0  0  0  0  0  0  0  0  0
   10.2860  -18.2899   20.3851 C   0  0  1  0  0  0  0  0  0  0  0  0
   11.5238  -19.0607   20.0826 C   0  0  0  0  0  0  0  0  0  0  0  0
   11.2301  -20.3258   19.4113 C   0  0  0  0  0  0  0  0  0  0  0  0
   11.4441  -20.6535   18.2317 O   0  0  0  0  0  0  0  0  0  0  0  0
   10.5167  -17.0899   21.2421 C   0  0  0  0  0  0  0  0  0  0  0  0
   11.2972  -16.1722   20.9348 O   0  0  0  0  0  0  0  0  0  0  0  0
   10.6171  -21.3276   20.2007 O   0  0  0  0  0  0  0  0  0  0  0  0
    8.8328  -15.3470   24.0374 C   0  0  0  0  0  0  0  0  0  0  0  0
   10.0883  -15.7827   23.3086 C   0  0  2  0  0  0  0  0  0  0  0  0
    9.8306  -16.9409   22.4873 N   0  0  0  0  0  0  0  0  0  0  0  0
   11.1428  -16.0495   24.3233 C   0  0  0  0  0  0  0  0  0  0  0  0
   11.5623  -17.2117   24.5936 O   0  0  0  0  0  0  0  0  0  0  0  0
   11.7134  -15.0048   25.0222 O   0  0  0  0  0  0  0  0  0  0  0  0
  1  2  1  0
  3  2  1  0
  4  5  1  0
  4  3  1  0
  5  1  1  0
  6  8  1  0
  5  6  1  1
  7  6  2  0
  9 13  1  0
  9  8  1  0
  9 10  1  6
 11 12  2  0
 11 10  1  0
 13 18  1  0
 14 13  2  0
 15 11  1  0
 17 16  1  1
 18 17  1  0
 19 17  1  0
 19 21  1  0
 20 19  2  0
M  END
$$$$
