PDA.pdb
     RDKit          3D

 21 21  0  0  1  0  0  0  0  0999 V2000
    9.3465  -14.2075   19.2592 N   0  0  0  0  0  0  0  0  0  0  0  0
    8.3683  -14.4283   18.2345 C   0  0  0  0  0  0  0  0  0  0  0  0
    7.0286  -14.0646   18.8532 C   0  0  0  0  0  0  0  0  0  0  0  0
    7.4739  -12.8782   19.7200 C   0  0  0  0  0  0  0  0  0  0  0  0
    8.7410  -13.4600   20.3207 C   0  0  1  0  0  0  0  0  0  0  0  0
    8.4270  -14.3268   21.4981 C   0  0  0  0  0  0  0  0  0  0  0  0
    7.3688  -14.1785   22.1666 O   0  0  0  0  0  0  0  0  0  0  0  0
    9.3095  -15.3589   21.9157 N   0  0  0  0  0  0  0  0  0  0  0  0
    9.0771  -16.0643   23.2052 C   0  0  1  0  0  0  0  0  0  0  0  0
    9.8619  -17.3298   23.2278 C   0  0  0  0  0  0  0  0  0  0  0  0
    9.5694  -18.1340   24.4132 C   0  0  0  0  0  0  0  0  0  0  0  0
    8.7247  -17.9367   25.3033 O   0  0  0  0  0  0  0  0  0  0  0  0
    9.4246  -15.1191   24.3066 C   0  0  0  0  0  0  0  0  0  0  0  0
   10.5807  -14.7130   24.5176 O   0  0  0  0  0  0  0  0  0  0  0  0
   10.3472  -19.3035   24.5856 O   0  0  0  0  0  0  0  0  0  0  0  0
    7.6473  -12.7733   26.5741 C   0  0  0  0  0  0  0  0  0  0  0  0
    8.7796  -13.7311   26.2612 C   0  0  2  0  0  0  0  0  0  0  0  0
    8.4145  -14.6267   25.1902 N   0  0  0  0  0  0  0  0  0  0  0  0
    9.1179  -14.4698   27.5072 C   0  0  0  0  0  0  0  0  0  0  0  0
    9.5403  -13.8999   28.5544 O   0  0  0  0  0  0  0  0  0  0  0  0
    8.9767  -15.8419   27.5604 O   0  0  0  0  0  0  0  0  0  0  0  0
  1  2  1  0
  3  2  1  0
  4  5  1  0
  4  3  1  0
  5  1  1  0
  6  8  1  0
  5  6  1  1
  7  6  2  0
  9 13  1  0
  9  8  1  0
  9 10  1  6
 11 12  2  0
 11 10  1  0
 13 18  1  0
 14 13  2  0
 15 11  1  0
 17 16  1  1
 18 17  1  0
 19 17  1  0
 19 21  1  0
 20 19  2  0
M  END
$$$$
