PDA.pdb
     RDKit          3D

 21 21  0  0  1  0  0  0  0  0999 V2000
    7.8516  -14.5646   19.4209 N   0  0  0  0  0  0  0  0  0  0  0  0
    6.9541  -13.4493   19.3415 C   0  0  0  0  0  0  0  0  0  0  0  0
    7.2954  -12.5560   20.5228 C   0  0  0  0  0  0  0  0  0  0  0  0
    8.8182  -12.7509   20.5445 C   0  0  0  0  0  0  0  0  0  0  0  0
    8.8872  -14.2564   20.3615 C   0  0  1  0  0  0  0  0  0  0  0  0
    8.6811  -14.9644   21.6624 C   0  0  0  0  0  0  0  0  0  0  0  0
    7.5278  -15.1968   22.1149 O   0  0  0  0  0  0  0  0  0  0  0  0
    9.7789  -15.4084   22.4474 N   0  0  0  0  0  0  0  0  0  0  0  0
    9.5408  -16.1982   23.6860 C   0  0  1  0  0  0  0  0  0  0  0  0
   10.2153  -17.5208   23.5692 C   0  0  0  0  0  0  0  0  0  0  0  0
    9.9844  -18.3584   24.7451 C   0  0  0  0  0  0  0  0  0  0  0  0
    9.8601  -18.0199   25.9344 O   0  0  0  0  0  0  0  0  0  0  0  0
   10.0128  -15.3801   24.8415 C   0  0  0  0  0  0  0  0  0  0  0  0
   11.1749  -14.9501   24.9434 O   0  0  0  0  0  0  0  0  0  0  0  0
    9.8856  -19.7509   24.5138 O   0  0  0  0  0  0  0  0  0  0  0  0
    8.5267  -13.3100   27.5120 C   0  0  0  0  0  0  0  0  0  0  0  0
    9.6039  -14.2538   27.0158 C   0  0  2  0  0  0  0  0  0  0  0  0
    9.1235  -15.0467   25.9100 N   0  0  0  0  0  0  0  0  0  0  0  0
   10.0358  -15.1037   28.1576 C   0  0  0  0  0  0  0  0  0  0  0  0
   10.5341  -14.6313   29.2199 O   0  0  0  0  0  0  0  0  0  0  0  0
    9.9017  -16.4759   28.0909 O   0  0  0  0  0  0  0  0  0  0  0  0
  1  2  1  0
  3  2  1  0
  4  5  1  0
  4  3  1  0
  5  1  1  0
  6  8  1  0
  5  6  1  1
  7  6  2  0
  9 13  1  0
  9  8  1  0
  9 10  1  6
 11 12  2  0
 11 10  1  0
 13 18  1  0
 14 13  2  0
 15 11  1  0
 17 16  1  1
 18 17  1  0
 19 17  1  0
 19 21  1  0
 20 19  2  0
M  END
$$$$
