PDA.pdb
     RDKit          3D

 21 21  0  0  1  0  0  0  0  0999 V2000
    8.6165  -14.6656   19.4684 N   0  0  0  0  0  0  0  0  0  0  0  0
    7.3661  -14.0485   19.1344 C   0  0  0  0  0  0  0  0  0  0  0  0
    7.0203  -13.1475   20.3084 C   0  0  0  0  0  0  0  0  0  0  0  0
    8.4319  -12.6624   20.6681 C   0  0  0  0  0  0  0  0  0  0  0  0
    9.1837  -13.9791   20.5905 C   0  0  1  0  0  0  0  0  0  0  0  0
    9.0258  -14.7617   21.8550 C   0  0  0  0  0  0  0  0  0  0  0  0
    7.9713  -14.7035   22.5429 O   0  0  0  0  0  0  0  0  0  0  0  0
   10.0598  -15.6082   22.3374 N   0  0  0  0  0  0  0  0  0  0  0  0
    9.8827  -16.3502   23.6151 C   0  0  1  0  0  0  0  0  0  0  0  0
   10.6983  -17.5959   23.5834 C   0  0  0  0  0  0  0  0  0  0  0  0
    9.9708  -18.7402   24.1300 C   0  0  0  0  0  0  0  0  0  0  0  0
   10.1713  -19.9534   23.9492 O   0  0  0  0  0  0  0  0  0  0  0  0
   10.2396  -15.4235   24.7293 C   0  0  0  0  0  0  0  0  0  0  0  0
   11.3232  -14.8170   24.7914 O   0  0  0  0  0  0  0  0  0  0  0  0
    8.8844  -18.4422   24.9863 O   0  0  0  0  0  0  0  0  0  0  0  0
    8.6372  -13.2612   27.1272 C   0  0  0  0  0  0  0  0  0  0  0  0
    9.7048  -14.3089   26.8821 C   0  0  2  0  0  0  0  0  0  0  0  0
    9.3248  -15.1874   25.8021 N   0  0  0  0  0  0  0  0  0  0  0  0
    9.9200  -15.0553   28.1507 C   0  0  0  0  0  0  0  0  0  0  0  0
    9.6542  -16.2849   28.2816 O   0  0  0  0  0  0  0  0  0  0  0  0
   10.4323  -14.4090   29.2575 O   0  0  0  0  0  0  0  0  0  0  0  0
  1  2  1  0
  3  2  1  0
  4  5  1  0
  4  3  1  0
  5  1  1  0
  6  8  1  0
  5  6  1  1
  7  6  2  0
  9 13  1  0
  9  8  1  0
  9 10  1  6
 11 12  2  0
 11 10  1  0
 13 18  1  0
 14 13  2  0
 15 11  1  0
 17 16  1  1
 18 17  1  0
 19 17  1  0
 19 21  1  0
 20 19  2  0
M  END
$$$$
