PDA.pdb
     RDKit          3D

 21 21  0  0  1  0  0  0  0  0999 V2000
    8.2564  -14.6779   19.5960 N   0  0  0  0  0  0  0  0  0  0  0  0
    7.1003  -13.8341   19.5120 C   0  0  0  0  0  0  0  0  0  0  0  0
    7.1465  -12.9418   20.7414 C   0  0  0  0  0  0  0  0  0  0  0  0
    8.6646  -12.7318   20.8339 C   0  0  0  0  0  0  0  0  0  0  0  0
    9.1358  -14.1558   20.5992 C   0  0  1  0  0  0  0  0  0  0  0  0
    9.0723  -14.9561   21.8608 C   0  0  0  0  0  0  0  0  0  0  0  0
    7.9887  -15.1314   22.4805 O   0  0  0  0  0  0  0  0  0  0  0  0
   10.2333  -15.5564   22.4177 N   0  0  0  0  0  0  0  0  0  0  0  0
   10.1471  -16.2967   23.7057 C   0  0  1  0  0  0  0  0  0  0  0  0
   11.1488  -17.3987   23.7135 C   0  0  0  0  0  0  0  0  0  0  0  0
   10.9868  -18.2934   22.5686 C   0  0  0  0  0  0  0  0  0  0  0  0
   10.0163  -19.0083   22.2658 O   0  0  0  0  0  0  0  0  0  0  0  0
   10.3293  -15.3078   24.8086 C   0  0  0  0  0  0  0  0  0  0  0  0
   11.1633  -14.3866   24.7678 O   0  0  0  0  0  0  0  0  0  0  0  0
   12.0777  -18.3669   21.6704 O   0  0  0  0  0  0  0  0  0  0  0  0
    8.6564  -13.5392   27.3283 C   0  0  0  0  0  0  0  0  0  0  0  0
    9.8101  -14.4944   27.0959 C   0  0  2  0  0  0  0  0  0  0  0  0
    9.5300  -15.3801   25.9916 N   0  0  0  0  0  0  0  0  0  0  0  0
   10.0506  -15.2446   28.3576 C   0  0  0  0  0  0  0  0  0  0  0  0
    9.8926  -16.4956   28.4576 O   0  0  0  0  0  0  0  0  0  0  0  0
   10.4665  -14.5782   29.4926 O   0  0  0  0  0  0  0  0  0  0  0  0
  1  2  1  0
  3  2  1  0
  4  5  1  0
  4  3  1  0
  5  1  1  0
  6  8  1  0
  5  6  1  1
  7  6  2  0
  9 13  1  0
  9  8  1  0
  9 10  1  6
 11 12  2  0
 11 10  1  0
 13 18  1  0
 14 13  2  0
 15 11  1  0
 17 16  1  1
 18 17  1  0
 19 17  1  0
 19 21  1  0
 20 19  2  0
M  END
$$$$
