PDA.pdb
     RDKit          3D

 21 21  0  0  1  0  0  0  0  0999 V2000
    9.4069  -13.5771   17.8620 N   0  0  0  0  0  0  0  0  0  0  0  0
    8.2492  -13.8596   17.0648 C   0  0  0  0  0  0  0  0  0  0  0  0
    7.1972  -14.3816   18.0294 C   0  0  0  0  0  0  0  0  0  0  0  0
    7.5157  -13.4947   19.2416 C   0  0  0  0  0  0  0  0  0  0  0  0
    9.0304  -13.5974   19.2441 C   0  0  1  0  0  0  0  0  0  0  0  0
    9.4814  -14.8519   19.9216 C   0  0  0  0  0  0  0  0  0  0  0  0
    8.7703  -15.4300   20.7871 O   0  0  0  0  0  0  0  0  0  0  0  0
   10.7341  -15.4497   19.6183 N   0  0  0  0  0  0  0  0  0  0  0  0
   11.1971  -16.6415   20.3796 C   0  0  1  0  0  0  0  0  0  0  0  0
   12.4338  -17.1830   19.7510 C   0  0  0  0  0  0  0  0  0  0  0  0
   12.1528  -17.8625   18.4874 C   0  0  0  0  0  0  0  0  0  0  0  0
   11.1445  -18.5079   18.1536 O   0  0  0  0  0  0  0  0  0  0  0  0
   11.3749  -16.2279   21.8025 C   0  0  0  0  0  0  0  0  0  0  0  0
   12.2298  -15.4041   22.1717 O   0  0  0  0  0  0  0  0  0  0  0  0
   13.1588  -17.7836   17.4953 O   0  0  0  0  0  0  0  0  0  0  0  0
    9.4510  -16.0573   24.8846 C   0  0  0  0  0  0  0  0  0  0  0  0
   10.7633  -16.3900   24.2031 C   0  0  2  0  0  0  0  0  0  0  0  0
   10.5462  -16.7768   22.8299 N   0  0  0  0  0  0  0  0  0  0  0  0
   11.4281  -17.4691   24.9818 C   0  0  0  0  0  0  0  0  0  0  0  0
   11.8639  -17.3035   26.1576 O   0  0  0  0  0  0  0  0  0  0  0  0
   11.5946  -18.7225   24.4282 O   0  0  0  0  0  0  0  0  0  0  0  0
  1  2  1  0
  3  2  1  0
  4  5  1  0
  4  3  1  0
  5  1  1  0
  6  8  1  0
  5  6  1  6
  7  6  2  0
  9 13  1  0
  9  8  1  0
  9 10  1  6
 11 12  2  0
 11 10  1  0
 13 18  1  0
 14 13  2  0
 15 11  1  0
 17 16  1  1
 18 17  1  0
 19 17  1  0
 19 21  1  0
 20 19  2  0
M  END
$$$$
