PDA.pdb
     RDKit          3D

 21 21  0  0  1  0  0  0  0  0999 V2000
    8.0055  -14.7527   19.1497 N   0  0  0  0  0  0  0  0  0  0  0  0
    7.0277  -13.7212   18.9612 C   0  0  0  0  0  0  0  0  0  0  0  0
    7.2001  -12.7661   20.1306 C   0  0  0  0  0  0  0  0  0  0  0  0
    8.7273  -12.8292   20.2746 C   0  0  0  0  0  0  0  0  0  0  0  0
    8.9351  -14.3283   20.1537 C   0  0  1  0  0  0  0  0  0  0  0  0
    8.6870  -15.0108   21.4609 C   0  0  0  0  0  0  0  0  0  0  0  0
    7.5210  -15.2803   21.8569 O   0  0  0  0  0  0  0  0  0  0  0  0
    9.7572  -15.3875   22.3160 N   0  0  0  0  0  0  0  0  0  0  0  0
    9.4865  -16.1743   23.5497 C   0  0  1  0  0  0  0  0  0  0  0  0
   10.2376  -17.4591   23.4945 C   0  0  0  0  0  0  0  0  0  0  0  0
   10.0693  -18.2442   24.7162 C   0  0  0  0  0  0  0  0  0  0  0  0
    9.0558  -18.3863   25.4213 O   0  0  0  0  0  0  0  0  0  0  0  0
    9.8414  -15.3177   24.7191 C   0  0  0  0  0  0  0  0  0  0  0  0
   10.9780  -14.8476   24.9003 O   0  0  0  0  0  0  0  0  0  0  0  0
   11.2097  -18.9467   25.1727 O   0  0  0  0  0  0  0  0  0  0  0  0
    8.0411  -13.2571   27.2096 C   0  0  0  0  0  0  0  0  0  0  0  0
    9.2169  -14.1233   26.8040 C   0  0  2  0  0  0  0  0  0  0  0  0
    8.8617  -14.9922   25.7080 N   0  0  0  0  0  0  0  0  0  0  0  0
    9.6577  -14.8932   27.9980 C   0  0  0  0  0  0  0  0  0  0  0  0
    9.5810  -16.1534   28.0736 O   0  0  0  0  0  0  0  0  0  0  0  0
   10.1800  -14.2356   29.0935 O   0  0  0  0  0  0  0  0  0  0  0  0
  1  2  1  0
  3  2  1  0
  4  5  1  0
  4  3  1  0
  5  1  1  0
  6  8  1  0
  5  6  1  1
  7  6  2  0
  9 13  1  0
  9  8  1  0
  9 10  1  6
 11 12  2  0
 11 10  1  0
 13 18  1  0
 14 13  2  0
 15 11  1  0
 17 16  1  1
 18 17  1  0
 19 17  1  0
 19 21  1  0
 20 19  2  0
M  END
$$$$
