IFC.pdb
     RDKit          3D

 26 26  0  0  1  0  0  0  0  0999 V2000
   22.9993  -20.4662  -14.5424 C   0  0  0  0  0  0  0  0  0  0  0  0
   24.3874  -20.0387  -14.1267 C   0  0  0  0  0  0  0  0  0  0  0  0
   24.7692  -20.6230  -12.7845 C   0  0  2  0  0  0  0  0  0  0  0  0
   23.7110  -20.2903  -11.7470 C   0  0  0  0  0  0  0  0  0  0  0  0
   26.1395  -20.2032  -12.3332 C   0  0  2  0  0  0  0  0  0  0  0  0
   27.0921  -20.6758  -13.3344 N   0  0  0  0  0  0  0  0  0  0  0  0
   26.5181  -20.7555  -11.0125 C   0  0  0  0  0  0  0  0  0  0  0  0
   26.9084  -21.9230  -10.8069 O   0  0  0  0  0  0  0  0  0  0  0  0
   26.4505  -19.9325   -9.8496 N   0  0  0  0  0  0  0  0  0  0  0  0
   26.9281  -20.3092   -8.5438 C   0  0  1  0  0  0  0  0  0  0  0  0
   27.3558  -19.1627   -7.7109 C   0  0  0  0  0  0  0  0  0  0  0  0
   27.7998  -19.4158   -6.3434 C   0  0  0  0  0  0  0  0  0  0  0  0
   27.0743  -18.9678   -5.2611 C   0  0  0  0  0  0  0  0  0  0  0  0
   27.4451  -19.2196   -3.9593 C   0  0  0  0  0  0  0  0  0  0  0  0
   28.5892  -19.9505   -3.6861 C   0  0  0  0  0  0  0  0  0  0  0  0
   29.3232  -20.4042   -4.7404 C   0  0  0  0  0  0  0  0  0  0  0  0
   28.9543  -20.1536   -6.0416 C   0  0  0  0  0  0  0  0  0  0  0  0
   25.8434  -21.0801   -7.8960 C   0  0  0  0  0  0  0  0  0  0  0  0
   26.0765  -21.9045   -6.9635 O   0  0  0  0  0  0  0  0  0  0  0  0
   24.5077  -20.8885   -8.3250 N   0  0  0  0  0  0  0  0  0  0  0  0
   23.3475  -21.4983   -7.7538 C   0  0  1  0  0  0  0  0  0  0  0  0
   23.2084  -21.3791   -6.2763 C   0  0  0  0  0  0  0  0  0  0  0  0
   21.7025  -22.1022   -5.6317 S   0  0  0  0  0  0  0  0  0  0  0  0
   22.0814  -21.1798   -8.4818 C   0  0  0  0  0  0  0  0  0  0  0  0
   22.0699  -20.2055   -9.2690 O   0  0  0  0  0  0  0  0  0  0  0  0
   20.9332  -21.9131   -8.3160 O   0  0  0  0  0  0  0  0  0  0  0  0
  2  1  1  0
  3  2  1  0
  3  4  1  1
  5  3  1  0
  5  6  1  6
  7  8  2  0
  7  5  1  0
  9  7  1  0
 10 11  1  1
 10  9  1  0
 11 12  1  0
 12 17  2  0
 12 13  1  0
 13 14  2  0
 14 15  1  0
 16 15  2  0
 17 16  1  0
 18 10  1  0
 19 18  2  0
 20 18  1  0
 21 22  1  1
 21 20  1  0
 22 23  1  0
 24 26  1  0
 24 21  1  0
 25 24  2  0
M  END
$$$$
