IFC.pdb
     RDKit          3D

 26 26  0  0  1  0  0  0  0  0999 V2000
   19.8992  -23.3156  -15.1408 C   0  0  0  0  0  0  0  0  0  0  0  0
   20.2987  -22.5649  -13.8922 C   0  0  0  0  0  0  0  0  0  0  0  0
   21.6087  -21.8320  -14.0807 C   0  0  2  0  0  0  0  0  0  0  0  0
   22.7027  -22.8066  -14.4811 C   0  0  0  0  0  0  0  0  0  0  0  0
   22.0020  -21.0201  -12.8792 C   0  0  2  0  0  0  0  0  0  0  0  0
   20.9309  -20.0580  -12.6334 N   0  0  0  0  0  0  0  0  0  0  0  0
   23.2752  -20.2853  -13.0575 C   0  0  0  0  0  0  0  0  0  0  0  0
   23.4094  -19.2271  -13.7053 O   0  0  0  0  0  0  0  0  0  0  0  0
   24.4736  -20.7810  -12.4638 N   0  0  0  0  0  0  0  0  0  0  0  0
   25.7940  -20.2633  -12.7157 C   0  0  1  0  0  0  0  0  0  0  0  0
   26.4873  -19.7791  -11.5009 C   0  0  0  0  0  0  0  0  0  0  0  0
   25.9326  -20.1187  -10.1939 C   0  0  0  0  0  0  0  0  0  0  0  0
   26.5064  -19.6543   -9.0305 C   0  0  0  0  0  0  0  0  0  0  0  0
   25.9886  -19.9256   -7.7840 C   0  0  0  0  0  0  0  0  0  0  0  0
   24.8441  -20.6942   -7.6534 C   0  0  0  0  0  0  0  0  0  0  0  0
   24.2587  -21.1647   -8.7901 C   0  0  0  0  0  0  0  0  0  0  0  0
   24.7746  -20.8947  -10.0362 C   0  0  0  0  0  0  0  0  0  0  0  0
   26.5562  -21.3399  -13.3869 C   0  0  0  0  0  0  0  0  0  0  0  0
   26.6863  -22.4878  -12.8682 O   0  0  0  0  0  0  0  0  0  0  0  0
   27.1525  -21.0838  -14.6454 N   0  0  0  0  0  0  0  0  0  0  0  0
   27.3375  -22.0362  -15.6954 C   0  0  1  0  0  0  0  0  0  0  0  0
   26.1822  -22.9330  -15.9738 C   0  0  0  0  0  0  0  0  0  0  0  0
   26.5514  -24.2489  -17.1306 S   0  0  0  0  0  0  0  0  0  0  0  0
   27.9300  -21.4532  -16.9379 C   0  0  0  0  0  0  0  0  0  0  0  0
   28.8579  -22.0717  -17.5082 O   0  0  0  0  0  0  0  0  0  0  0  0
   27.4965  -20.2658  -17.4723 O   0  0  0  0  0  0  0  0  0  0  0  0
  2  1  1  0
  3  2  1  0
  3  4  1  1
  5  3  1  0
  5  6  1  6
  7  8  2  0
  7  5  1  0
  9  7  1  0
 10 11  1  1
 10  9  1  0
 11 12  1  0
 12 17  2  0
 12 13  1  0
 13 14  2  0
 14 15  1  0
 16 15  2  0
 17 16  1  0
 18 10  1  0
 19 18  2  0
 20 18  1  0
 21 22  1  6
 21 20  1  0
 22 23  1  0
 24 26  1  0
 24 21  1  0
 25 24  2  0
M  END
$$$$
