IFC.pdb
     RDKit          3D

 26 26  0  0  1  0  0  0  0  0999 V2000
   31.2977  -19.1389  -12.6080 C   0  0  0  0  0  0  0  0  0  0  0  0
   29.9543  -19.0809  -13.2965 C   0  0  0  0  0  0  0  0  0  0  0  0
   29.0011  -20.1162  -12.7413 C   0  0  2  0  0  0  0  0  0  0  0  0
   29.6626  -21.4833  -12.7246 C   0  0  0  0  0  0  0  0  0  0  0  0
   27.6847  -20.1461  -13.4652 C   0  0  2  0  0  0  0  0  0  0  0  0
   27.2933  -18.7614  -13.7154 N   0  0  0  0  0  0  0  0  0  0  0  0
   26.6090  -20.8180  -12.7011 C   0  0  0  0  0  0  0  0  0  0  0  0
   26.4220  -22.0512  -12.6562 O   0  0  0  0  0  0  0  0  0  0  0  0
   25.6854  -20.0434  -11.9387 N   0  0  0  0  0  0  0  0  0  0  0  0
   24.5419  -20.5743  -11.2418 C   0  0  1  0  0  0  0  0  0  0  0  0
   24.3209  -19.9690   -9.9092 C   0  0  0  0  0  0  0  0  0  0  0  0
   25.3812  -20.0649   -8.9103 C   0  0  0  0  0  0  0  0  0  0  0  0
   25.9910  -21.2676   -8.6272 C   0  0  0  0  0  0  0  0  0  0  0  0
   27.0177  -21.3871   -7.7177 C   0  0  0  0  0  0  0  0  0  0  0  0
   27.4847  -20.2740   -7.0390 C   0  0  0  0  0  0  0  0  0  0  0  0
   26.8972  -19.0733   -7.3024 C   0  0  0  0  0  0  0  0  0  0  0  0
   25.8714  -18.9521   -8.2106 C   0  0  0  0  0  0  0  0  0  0  0  0
   23.3723  -20.3840  -12.1286 C   0  0  0  0  0  0  0  0  0  0  0  0
   23.4219  -19.6301  -13.1449 O   0  0  0  0  0  0  0  0  0  0  0  0
   22.1661  -21.0661  -11.8381 N   0  0  0  0  0  0  0  0  0  0  0  0
   21.1200  -21.3541  -12.7691 C   0  0  1  0  0  0  0  0  0  0  0  0
   21.5274  -22.0778  -14.0047 C   0  0  0  0  0  0  0  0  0  0  0  0
   20.1500  -22.6970  -14.9668 S   0  0  0  0  0  0  0  0  0  0  0  0
   19.8954  -21.9329  -12.1367 C   0  0  0  0  0  0  0  0  0  0  0  0
   20.0324  -22.7196  -11.1717 O   0  0  0  0  0  0  0  0  0  0  0  0
   18.6299  -21.6361  -12.5770 O   0  0  0  0  0  0  0  0  0  0  0  0
  2  1  1  0
  3  2  1  0
  3  4  1  6
  5  3  1  0
  5  6  1  1
  7  8  2  0
  7  5  1  0
  9  7  1  0
 10 11  1  1
 10  9  1  0
 11 12  1  0
 12 17  2  0
 12 13  1  0
 13 14  2  0
 14 15  1  0
 16 15  2  0
 17 16  1  0
 18 10  1  0
 19 18  2  0
 20 18  1  0
 21 22  1  6
 21 20  1  0
 22 23  1  0
 24 26  1  0
 24 21  1  0
 25 24  2  0
M  END
$$$$
