IFC.pdb
     RDKit          3D

 26 26  0  0  1  0  0  0  0  0999 V2000
   26.6329  -20.1473  -20.0182 C   0  0  0  0  0  0  0  0  0  0  0  0
   27.4819  -20.2851  -18.7762 C   0  0  0  0  0  0  0  0  0  0  0  0
   26.6809  -20.8304  -17.6143 C   0  0  2  0  0  0  0  0  0  0  0  0
   25.3547  -20.0988  -17.5016 C   0  0  0  0  0  0  0  0  0  0  0  0
   27.4404  -20.8046  -16.3181 C   0  0  2  0  0  0  0  0  0  0  0  0
   28.6026  -21.6750  -16.4762 N   0  0  0  0  0  0  0  0  0  0  0  0
   26.6441  -21.2732  -15.1610 C   0  0  0  0  0  0  0  0  0  0  0  0
   26.2909  -22.4537  -14.9625 O   0  0  0  0  0  0  0  0  0  0  0  0
   26.2205  -20.3450  -14.1643 N   0  0  0  0  0  0  0  0  0  0  0  0
   25.5698  -20.7009  -12.9294 C   0  0  1  0  0  0  0  0  0  0  0  0
   26.2613  -20.1942  -11.7227 C   0  0  0  0  0  0  0  0  0  0  0  0
   27.6500  -20.5823  -11.4947 C   0  0  0  0  0  0  0  0  0  0  0  0
   27.9853  -21.5085  -10.5312 C   0  0  0  0  0  0  0  0  0  0  0  0
   29.2800  -21.9234  -10.3144 C   0  0  0  0  0  0  0  0  0  0  0  0
   30.3163  -21.4110  -11.0768 C   0  0  0  0  0  0  0  0  0  0  0  0
   30.0093  -20.4935  -12.0359 C   0  0  0  0  0  0  0  0  0  0  0  0
   28.7164  -20.0778  -12.2539 C   0  0  0  0  0  0  0  0  0  0  0  0
   24.1810  -20.1964  -13.0151 C   0  0  0  0  0  0  0  0  0  0  0  0
   23.9166  -18.9592  -12.9616 O   0  0  0  0  0  0  0  0  0  0  0  0
   23.1182  -21.1196  -13.1663 N   0  0  0  0  0  0  0  0  0  0  0  0
   21.7287  -20.7931  -13.2481 C   0  0  1  0  0  0  0  0  0  0  0  0
   21.0668  -21.0797  -14.5504 C   0  0  0  0  0  0  0  0  0  0  0  0
   22.1451  -20.8869  -15.9668 S   0  0  0  0  0  0  0  0  0  0  0  0
   20.9302  -21.2671  -12.0765 C   0  0  0  0  0  0  0  0  0  0  0  0
   21.2588  -22.3402  -11.5203 O   0  0  0  0  0  0  0  0  0  0  0  0
   19.8508  -20.5715  -11.5923 O   0  0  0  0  0  0  0  0  0  0  0  0
  2  1  1  0
  3  2  1  0
  3  4  1  1
  5  3  1  0
  5  6  1  6
  7  8  2  0
  7  5  1  0
  9  7  1  0
 10 11  1  1
 10  9  1  0
 11 12  1  0
 12 17  2  0
 12 13  1  0
 13 14  2  0
 14 15  1  0
 16 15  2  0
 17 16  1  0
 18 10  1  0
 19 18  2  0
 20 18  1  0
 21 22  1  6
 21 20  1  0
 22 23  1  0
 24 26  1  0
 24 21  1  0
 25 24  2  0
M  END
$$$$
