IFC.pdb
     RDKit          3D

 26 26  0  0  1  0  0  0  0  0999 V2000
   29.5178  -18.8898  -14.2921 C   0  0  0  0  0  0  0  0  0  0  0  0
   28.1433  -19.4822  -14.0871 C   0  0  0  0  0  0  0  0  0  0  0  0
   27.9713  -20.0111  -12.6801 C   0  0  2  0  0  0  0  0  0  0  0  0
   29.1268  -20.9283  -12.3191 C   0  0  0  0  0  0  0  0  0  0  0  0
   26.6437  -20.6814  -12.4663 C   0  0  2  0  0  0  0  0  0  0  0  0
   25.6092  -19.7530  -12.9149 N   0  0  0  0  0  0  0  0  0  0  0  0
   26.3868  -21.0389  -11.0525 C   0  0  0  0  0  0  0  0  0  0  0  0
   26.5621  -22.1696  -10.5539 O   0  0  0  0  0  0  0  0  0  0  0  0
   25.8998  -20.0524  -10.1448 N   0  0  0  0  0  0  0  0  0  0  0  0
   25.2585  -20.3347   -8.8862 C   0  0  1  0  0  0  0  0  0  0  0  0
   25.5807  -19.3598   -7.8201 C   0  0  0  0  0  0  0  0  0  0  0  0
   26.6981  -19.6431   -6.9243 C   0  0  0  0  0  0  0  0  0  0  0  0
   26.8541  -20.8835   -6.3450 C   0  0  0  0  0  0  0  0  0  0  0  0
   27.9150  -21.1951   -5.5247 C   0  0  0  0  0  0  0  0  0  0  0  0
   28.8866  -20.2483   -5.2466 C   0  0  0  0  0  0  0  0  0  0  0  0
   28.7538  -19.0142   -5.8083 C   0  0  0  0  0  0  0  0  0  0  0  0
   27.6946  -18.7012   -6.6280 C   0  0  0  0  0  0  0  0  0  0  0  0
   23.8033  -20.3945   -9.1498 C   0  0  0  0  0  0  0  0  0  0  0  0
   23.2933  -19.8886  -10.1926 O   0  0  0  0  0  0  0  0  0  0  0  0
   22.9573  -21.0388   -8.2150 N   0  0  0  0  0  0  0  0  0  0  0  0
   21.6360  -21.5206   -8.4723 C   0  0  1  0  0  0  0  0  0  0  0  0
   21.4672  -22.3336   -9.7080 C   0  0  0  0  0  0  0  0  0  0  0  0
   19.9378  -23.2633   -9.7579 S   0  0  0  0  0  0  0  0  0  0  0  0
   20.9785  -22.1371   -7.2797 C   0  0  0  0  0  0  0  0  0  0  0  0
   19.8655  -21.6955   -6.9122 O   0  0  0  0  0  0  0  0  0  0  0  0
   21.5513  -23.1649   -6.5733 O   0  0  0  0  0  0  0  0  0  0  0  0
  2  1  1  0
  3  2  1  0
  3  4  1  6
  5  3  1  0
  5  6  1  1
  7  8  2  0
  7  5  1  0
  9  7  1  0
 10 11  1  1
 10  9  1  0
 11 12  1  0
 12 17  2  0
 12 13  1  0
 13 14  2  0
 14 15  1  0
 16 15  2  0
 17 16  1  0
 18 10  1  0
 19 18  2  0
 20 18  1  0
 21 22  1  6
 21 20  1  0
 22 23  1  0
 24 26  1  0
 24 21  1  0
 25 24  2  0
M  END
$$$$
