IFC.pdb
     RDKit          3D

 26 26  0  0  1  0  0  0  0  0999 V2000
   17.2992  -14.5670    0.9122 C   0  0  0  0  0  0  0  0  0  0  0  0
   16.9039  -15.6643    1.8724 C   0  0  0  0  0  0  0  0  0  0  0  0
   17.7593  -15.6446    3.1201 C   0  0  2  0  0  0  0  0  0  0  0  0
   19.2270  -15.7768    2.7524 C   0  0  0  0  0  0  0  0  0  0  0  0
   17.3452  -16.6784    4.1287 C   0  0  2  0  0  0  0  0  0  0  0  0
   15.9215  -16.4853    4.3916 N   0  0  0  0  0  0  0  0  0  0  0  0
   18.0863  -16.5824    5.4070 C   0  0  0  0  0  0  0  0  0  0  0  0
   19.2684  -16.9427    5.5811 O   0  0  0  0  0  0  0  0  0  0  0  0
   17.4474  -16.0434    6.5627 N   0  0  0  0  0  0  0  0  0  0  0  0
   18.1126  -15.7273    7.8007 C   0  0  1  0  0  0  0  0  0  0  0  0
   18.0622  -14.2912    8.1558 C   0  0  0  0  0  0  0  0  0  0  0  0
   18.9563  -13.3660    7.4661 C   0  0  0  0  0  0  0  0  0  0  0  0
   18.5205  -12.6114    6.3988 C   0  0  0  0  0  0  0  0  0  0  0  0
   19.3264  -11.7037    5.7490 C   0  0  0  0  0  0  0  0  0  0  0  0
   20.6363  -11.5132    6.1563 C   0  0  0  0  0  0  0  0  0  0  0  0
   21.0899  -12.2483    7.2098 C   0  0  0  0  0  0  0  0  0  0  0  0
   20.2862  -13.1555    7.8602 C   0  0  0  0  0  0  0  0  0  0  0  0
   17.4939  -16.5707    8.8479 C   0  0  0  0  0  0  0  0  0  0  0  0
   16.2643  -16.8725    8.8207 O   0  0  0  0  0  0  0  0  0  0  0  0
   18.2973  -17.0587    9.9067 N   0  0  0  0  0  0  0  0  0  0  0  0
   17.8513  -17.8812   10.9877 C   0  0  1  0  0  0  0  0  0  0  0  0
   18.1416  -19.3361   10.8633 C   0  0  0  0  0  0  0  0  0  0  0  0
   17.4276  -20.0933    9.4063 S   0  0  0  0  0  0  0  0  0  0  0  0
   18.1924  -17.3365   12.3374 C   0  0  0  0  0  0  0  0  0  0  0  0
   19.1960  -16.5957   12.4500 O   0  0  0  0  0  0  0  0  0  0  0  0
   17.4485  -17.6214   13.4550 O   0  0  0  0  0  0  0  0  0  0  0  0
  2  1  1  0
  3  2  1  0
  3  4  1  6
  5  3  1  0
  5  6  1  1
  7  8  2  0
  7  5  1  0
  9  7  1  0
 10 11  1  1
 10  9  1  0
 11 12  1  0
 12 17  2  0
 12 13  1  0
 13 14  2  0
 14 15  1  0
 16 15  2  0
 17 16  1  0
 18 10  1  0
 19 18  2  0
 20 18  1  0
 21 22  1  6
 21 20  1  0
 22 23  1  0
 24 26  1  0
 24 21  1  0
 25 24  2  0
M  END
$$$$
