IFC.pdb
     RDKit          3D

 26 26  0  0  1  0  0  0  0  0999 V2000
   18.3168  -10.7201  -21.7282 C   0  0  0  0  0  0  0  0  0  0  0  0
   19.6298  -10.5445  -21.0019 C   0  0  0  0  0  0  0  0  0  0  0  0
   19.4488   -9.7906  -19.7028 C   0  0  2  0  0  0  0  0  0  0  0  0
   18.8177   -8.4345  -19.9664 C   0  0  0  0  0  0  0  0  0  0  0  0
   20.7236   -9.6656  -18.9175 C   0  0  2  0  0  0  0  0  0  0  0  0
   21.2166  -11.0177  -18.6684 N   0  0  0  0  0  0  0  0  0  0  0  0
   20.5495   -8.9721  -17.6208 C   0  0  0  0  0  0  0  0  0  0  0  0
   19.9402   -9.4346  -16.6346 O   0  0  0  0  0  0  0  0  0  0  0  0
   21.1011   -7.6709  -17.4285 N   0  0  0  0  0  0  0  0  0  0  0  0
   20.9478   -6.8783  -16.2355 C   0  0  1  0  0  0  0  0  0  0  0  0
   22.2052   -6.6910  -15.4774 C   0  0  0  0  0  0  0  0  0  0  0  0
   22.8984   -7.8696  -14.9659 C   0  0  0  0  0  0  0  0  0  0  0  0
   24.0210   -8.3670  -15.5912 C   0  0  0  0  0  0  0  0  0  0  0  0
   24.7193   -9.4541  -15.1155 C   0  0  0  0  0  0  0  0  0  0  0  0
   24.3068  -10.1014  -13.9629 C   0  0  0  0  0  0  0  0  0  0  0  0
   23.1990   -9.6276  -13.3270 C   0  0  0  0  0  0  0  0  0  0  0  0
   22.5002   -8.5417  -13.8007 C   0  0  0  0  0  0  0  0  0  0  0  0
   20.3637   -5.5838  -16.6524 C   0  0  0  0  0  0  0  0  0  0  0  0
   20.6045   -5.0787  -17.7884 O   0  0  0  0  0  0  0  0  0  0  0  0
   19.5081   -4.8923  -15.7611 N   0  0  0  0  0  0  0  0  0  0  0  0
   18.7438   -3.7238  -16.0687 C   0  0  1  0  0  0  0  0  0  0  0  0
   17.9764   -3.7633  -17.3438 C   0  0  0  0  0  0  0  0  0  0  0  0
   18.9923   -3.5651  -18.8049 S   0  0  0  0  0  0  0  0  0  0  0  0
   17.9319   -3.2175  -14.9202 C   0  0  0  0  0  0  0  0  0  0  0  0
   17.3508   -2.1139  -15.0358 O   0  0  0  0  0  0  0  0  0  0  0  0
   17.8037   -3.9156  -13.7456 O   0  0  0  0  0  0  0  0  0  0  0  0
  2  1  1  0
  3  2  1  0
  3  4  1  6
  5  3  1  0
  5  6  1  1
  7  8  2  0
  7  5  1  0
  9  7  1  0
 10 11  1  6
 10  9  1  0
 11 12  1  0
 12 17  2  0
 12 13  1  0
 13 14  2  0
 14 15  1  0
 16 15  2  0
 17 16  1  0
 18 10  1  0
 19 18  2  0
 20 18  1  0
 21 22  1  6
 21 20  1  0
 22 23  1  0
 24 26  1  0
 24 21  1  0
 25 24  2  0
M  END
$$$$
