IFC.pdb
     RDKit          3D

 26 26  0  0  1  0  0  0  0  0999 V2000
   19.4129  -20.7982  -12.9409 C   0  0  0  0  0  0  0  0  0  0  0  0
   20.6344  -21.4389  -13.5571 C   0  0  0  0  0  0  0  0  0  0  0  0
   21.8433  -20.5343  -13.4618 C   0  0  2  0  0  0  0  0  0  0  0  0
   21.4980  -19.1422  -13.9616 C   0  0  0  0  0  0  0  0  0  0  0  0
   23.0478  -21.0930  -14.1650 C   0  0  2  0  0  0  0  0  0  0  0  0
   23.1142  -22.5178  -13.8509 N   0  0  0  0  0  0  0  0  0  0  0  0
   24.3178  -20.4517  -13.7548 C   0  0  0  0  0  0  0  0  0  0  0  0
   24.5767  -19.2356  -13.8631 O   0  0  0  0  0  0  0  0  0  0  0  0
   25.3622  -21.2385  -13.1850 N   0  0  0  0  0  0  0  0  0  0  0  0
   26.6716  -20.7463  -12.8411 C   0  0  1  0  0  0  0  0  0  0  0  0
   27.1368  -21.1723  -11.5021 C   0  0  0  0  0  0  0  0  0  0  0  0
   26.3520  -20.7900  -10.3320 C   0  0  0  0  0  0  0  0  0  0  0  0
   25.2143  -21.4811   -9.9765 C   0  0  0  0  0  0  0  0  0  0  0  0
   24.4713  -21.1699   -8.8599 C   0  0  0  0  0  0  0  0  0  0  0  0
   24.8518  -20.1249   -8.0347 C   0  0  0  0  0  0  0  0  0  0  0  0
   25.9738  -19.4267   -8.3659 C   0  0  0  0  0  0  0  0  0  0  0  0
   26.7173  -19.7362   -9.4810 C   0  0  0  0  0  0  0  0  0  0  0  0
   27.5932  -21.1966  -13.9081 C   0  0  0  0  0  0  0  0  0  0  0  0
   28.2799  -22.2544  -13.7935 O   0  0  0  0  0  0  0  0  0  0  0  0
   27.7082  -20.4285  -15.0920 N   0  0  0  0  0  0  0  0  0  0  0  0
   28.0809  -20.9238  -16.3804 C   0  0  1  0  0  0  0  0  0  0  0  0
   27.5170  -22.2488  -16.7581 C   0  0  0  0  0  0  0  0  0  0  0  0
   28.7569  -23.4607  -17.2057 S   0  0  0  0  0  0  0  0  0  0  0  0
   27.9581  -19.9101  -17.4722 C   0  0  0  0  0  0  0  0  0  0  0  0
   27.1287  -18.9811  -17.3387 O   0  0  0  0  0  0  0  0  0  0  0  0
   28.7176  -19.9633  -18.6141 O   0  0  0  0  0  0  0  0  0  0  0  0
  2  1  1  0
  3  2  1  0
  3  4  1  6
  5  3  1  0
  5  6  1  1
  7  8  2  0
  7  5  1  0
  9  7  1  0
 10 11  1  1
 10  9  1  0
 11 12  1  0
 12 17  2  0
 12 13  1  0
 13 14  2  0
 14 15  1  0
 16 15  2  0
 17 16  1  0
 18 10  1  0
 19 18  2  0
 20 18  1  0
 21 22  1  6
 21 20  1  0
 22 23  1  0
 24 26  1  0
 24 21  1  0
 25 24  2  0
M  END
$$$$
