IFC.pdb
     RDKit          3D

 26 26  0  0  1  0  0  0  0  0999 V2000
   20.9661  -25.6564  -13.1966 C   0  0  0  0  0  0  0  0  0  0  0  0
   21.5883  -26.9033  -13.7799 C   0  0  0  0  0  0  0  0  0  0  0  0
   21.1723  -28.1408  -13.0155 C   0  0  2  0  0  0  0  0  0  0  0  0
   21.6157  -28.0366  -11.5666 C   0  0  0  0  0  0  0  0  0  0  0  0
   21.6568  -29.4119  -13.6536 C   0  0  2  0  0  0  0  0  0  0  0  0
   21.0838  -29.4720  -14.9957 N   0  0  0  0  0  0  0  0  0  0  0  0
   21.2636  -30.6301  -12.9093 C   0  0  0  0  0  0  0  0  0  0  0  0
   20.0910  -31.0243  -12.7443 O   0  0  0  0  0  0  0  0  0  0  0  0
   22.2629  -31.4551  -12.3133 N   0  0  0  0  0  0  0  0  0  0  0  0
   22.0039  -32.6800  -11.6010 C   0  0  1  0  0  0  0  0  0  0  0  0
   22.2198  -33.8993  -12.4119 C   0  0  0  0  0  0  0  0  0  0  0  0
   21.2361  -34.2462  -13.4332 C   0  0  0  0  0  0  0  0  0  0  0  0
   20.0670  -34.8989  -13.1083 C   0  0  0  0  0  0  0  0  0  0  0  0
   19.1023  -35.2089  -14.0404 C   0  0  0  0  0  0  0  0  0  0  0  0
   19.2786  -34.8666  -15.3707 C   0  0  0  0  0  0  0  0  0  0  0  0
   20.4271  -34.2204  -15.7162 C   0  0  0  0  0  0  0  0  0  0  0  0
   21.3919  -33.9099  -14.7863 C   0  0  0  0  0  0  0  0  0  0  0  0
   22.8637  -32.6660  -10.3964 C   0  0  0  0  0  0  0  0  0  0  0  0
   24.1078  -32.4406  -10.4678 O   0  0  0  0  0  0  0  0  0  0  0  0
   22.2811  -32.9057   -9.1283 N   0  0  0  0  0  0  0  0  0  0  0  0
   22.9684  -32.8988   -7.8746 C   0  0  1  0  0  0  0  0  0  0  0  0
   23.2716  -31.5574   -7.3043 C   0  0  0  0  0  0  0  0  0  0  0  0
   22.9934  -31.4431   -5.5392 S   0  0  0  0  0  0  0  0  0  0  0  0
   22.3890  -33.8385   -6.8667 C   0  0  0  0  0  0  0  0  0  0  0  0
   21.2110  -34.2348   -7.0225 O   0  0  0  0  0  0  0  0  0  0  0  0
   23.0992  -34.2787   -5.7780 O   0  0  0  0  0  0  0  0  0  0  0  0
  2  1  1  0
  3  2  1  0
  3  4  1  1
  5  3  1  0
  5  6  1  6
  7  8  2  0
  7  5  1  0
  9  7  1  0
 10 11  1  6
 10  9  1  0
 11 12  1  0
 12 17  2  0
 12 13  1  0
 13 14  2  0
 14 15  1  0
 16 15  2  0
 17 16  1  0
 18 10  1  0
 19 18  2  0
 20 18  1  0
 21 22  1  1
 21 20  1  0
 22 23  1  0
 24 26  1  0
 24 21  1  0
 25 24  2  0
M  END
$$$$
