IFC.pdb
     RDKit          3D

 26 26  0  0  1  0  0  0  0  0999 V2000
   18.8230  -21.1381  -15.2774 C   0  0  0  0  0  0  0  0  0  0  0  0
   18.8598  -21.4082  -13.7915 C   0  0  0  0  0  0  0  0  0  0  0  0
   20.0321  -20.7169  -13.1307 C   0  0  2  0  0  0  0  0  0  0  0  0
   19.7906  -19.2188  -13.0674 C   0  0  0  0  0  0  0  0  0  0  0  0
   21.3453  -21.0396  -13.7856 C   0  0  2  0  0  0  0  0  0  0  0  0
   21.5077  -22.4906  -13.7456 N   0  0  0  0  0  0  0  0  0  0  0  0
   22.5061  -20.4085  -13.1172 C   0  0  0  0  0  0  0  0  0  0  0  0
   22.7062  -19.1794  -13.0331 O   0  0  0  0  0  0  0  0  0  0  0  0
   23.5049  -21.2218  -12.5046 N   0  0  0  0  0  0  0  0  0  0  0  0
   24.7221  -20.7278  -11.9134 C   0  0  1  0  0  0  0  0  0  0  0  0
   25.1750  -21.5077  -10.7397 C   0  0  0  0  0  0  0  0  0  0  0  0
   26.3791  -21.0788  -10.0343 C   0  0  0  0  0  0  0  0  0  0  0  0
   27.6309  -21.4824  -10.4448 C   0  0  0  0  0  0  0  0  0  0  0  0
   28.7883  -21.0681   -9.8248 C   0  0  0  0  0  0  0  0  0  0  0  0
   28.7325  -20.2096   -8.7396 C   0  0  0  0  0  0  0  0  0  0  0  0
   27.5055  -19.7968   -8.3154 C   0  0  0  0  0  0  0  0  0  0  0  0
   26.3482  -20.2096   -8.9336 C   0  0  0  0  0  0  0  0  0  0  0  0
   25.7433  -20.7106  -12.9846 C   0  0  0  0  0  0  0  0  0  0  0  0
   25.8988  -21.6890  -13.7733 O   0  0  0  0  0  0  0  0  0  0  0  0
   26.5663  -19.5685  -13.1370 N   0  0  0  0  0  0  0  0  0  0  0  0
   27.4110  -19.2864  -14.2554 C   0  0  1  0  0  0  0  0  0  0  0  0
   27.9620  -17.9051  -14.3248 C   0  0  0  0  0  0  0  0  0  0  0  0
   29.0024  -17.6131  -15.7525 S   0  0  0  0  0  0  0  0  0  0  0  0
   28.4460  -20.3355  -14.5062 C   0  0  0  0  0  0  0  0  0  0  0  0
   29.1119  -20.7662  -13.5366 O   0  0  0  0  0  0  0  0  0  0  0  0
   28.6940  -20.8396  -15.7583 O   0  0  0  0  0  0  0  0  0  0  0  0
  2  1  1  0
  3  2  1  0
  3  4  1  6
  5  3  1  0
  5  6  1  1
  7  8  2  0
  7  5  1  0
  9  7  1  0
 10 11  1  1
 10  9  1  0
 11 12  1  0
 12 17  2  0
 12 13  1  0
 13 14  2  0
 14 15  1  0
 16 15  2  0
 17 16  1  0
 18 10  1  0
 19 18  2  0
 20 18  1  0
 21 22  1  1
 21 20  1  0
 22 23  1  0
 24 26  1  0
 24 21  1  0
 25 24  2  0
M  END
$$$$
