IFC.pdb
     RDKit          3D

 26 26  0  0  1  0  0  0  0  0999 V2000
   21.2221  -16.7304  -19.1414 C   0  0  0  0  0  0  0  0  0  0  0  0
   21.3783  -15.2620  -19.4604 C   0  0  0  0  0  0  0  0  0  0  0  0
   20.9323  -14.3927  -18.3053 C   0  0  2  0  0  0  0  0  0  0  0  0
   19.5046  -14.7319  -17.9137 C   0  0  0  0  0  0  0  0  0  0  0  0
   21.0978  -12.9250  -18.5809 C   0  0  2  0  0  0  0  0  0  0  0  0
   22.5037  -12.6981  -18.9055 N   0  0  0  0  0  0  0  0  0  0  0  0
   20.7258  -12.0660  -17.4336 C   0  0  0  0  0  0  0  0  0  0  0  0
   19.6270  -12.0926  -16.8425 O   0  0  0  0  0  0  0  0  0  0  0  0
   21.6585  -11.1154  -16.9229 N   0  0  0  0  0  0  0  0  0  0  0  0
   21.3675  -10.1406  -15.9029 C   0  0  1  0  0  0  0  0  0  0  0  0
   22.5716   -9.6005  -15.2326 C   0  0  0  0  0  0  0  0  0  0  0  0
   22.4278   -8.4376  -14.3617 C   0  0  0  0  0  0  0  0  0  0  0  0
   22.1942   -8.5795  -13.0113 C   0  0  0  0  0  0  0  0  0  0  0  0
   22.0892   -7.5057  -12.1560 C   0  0  0  0  0  0  0  0  0  0  0  0
   22.2183   -6.2132  -12.6360 C   0  0  0  0  0  0  0  0  0  0  0  0
   22.4497   -6.0477  -13.9683 C   0  0  0  0  0  0  0  0  0  0  0  0
   22.5548   -7.1193  -14.8242 C   0  0  0  0  0  0  0  0  0  0  0  0
   20.5743   -9.0696  -16.5466 C   0  0  0  0  0  0  0  0  0  0  0  0
   20.8239   -8.6696  -17.7219 O   0  0  0  0  0  0  0  0  0  0  0  0
   19.5035   -8.4785  -15.8332 N   0  0  0  0  0  0  0  0  0  0  0  0
   18.6906   -7.3937  -16.2874 C   0  0  1  0  0  0  0  0  0  0  0  0
   17.4933   -7.7670  -17.0897 C   0  0  0  0  0  0  0  0  0  0  0  0
   16.9847   -6.5082  -18.2571 S   0  0  0  0  0  0  0  0  0  0  0  0
   18.3847   -6.3867  -15.2257 C   0  0  0  0  0  0  0  0  0  0  0  0
   18.1502   -6.7915  -14.0637 O   0  0  0  0  0  0  0  0  0  0  0  0
   18.3485   -5.0384  -15.4792 O   0  0  0  0  0  0  0  0  0  0  0  0
  2  1  1  0
  3  2  1  0
  3  4  1  6
  5  3  1  0
  5  6  1  1
  7  8  2  0
  7  5  1  0
  9  7  1  0
 10 11  1  6
 10  9  1  0
 11 12  1  0
 12 17  2  0
 12 13  1  0
 13 14  2  0
 14 15  1  0
 16 15  2  0
 17 16  1  0
 18 10  1  0
 19 18  2  0
 20 18  1  0
 21 22  1  1
 21 20  1  0
 22 23  1  0
 24 26  1  0
 24 21  1  0
 25 24  2  0
M  END
$$$$
