VEY.pdb
     RDKit          3D

 29 29  0  0  1  0  0  0  0  0999 V2000
    8.3096  -12.6213   21.6013 C   0  0  0  0  0  0  0  0  0  0  0  0
    7.5010  -13.4217   20.6105 C   0  0  1  0  0  0  0  0  0  0  0  0
    7.2090  -12.5214   19.4224 C   0  0  0  0  0  0  0  0  0  0  0  0
    8.2501  -14.6168   20.0867 C   0  0  2  0  0  0  0  0  0  0  0  0
    7.4667  -15.2001   19.0190 N   0  0  0  0  0  0  0  0  0  0  0  0
    8.5325  -15.6310   21.0988 C   0  0  0  0  0  0  0  0  0  0  0  0
    7.6670  -16.4591   21.5228 O   0  0  0  0  0  0  0  0  0  0  0  0
    9.8379  -15.7085   21.6478 N   0  0  0  0  0  0  0  0  0  0  0  0
   10.2079  -16.7543   22.6158 C   0  0  1  0  0  0  0  0  0  0  0  0
   11.3900  -17.5198   22.1672 C   0  0  0  0  0  0  0  0  0  0  0  0
   11.3773  -18.1319   20.8343 C   0  0  0  0  0  0  0  0  0  0  0  0
   12.5125  -18.8677   20.3325 C   0  0  0  0  0  0  0  0  0  0  0  0
   13.4236  -18.3850   19.6464 O   0  0  0  0  0  0  0  0  0  0  0  0
   10.2483  -16.2369   23.9653 C   0  0  0  0  0  0  0  0  0  0  0  0
   10.9160  -15.2202   24.2506 O   0  0  0  0  0  0  0  0  0  0  0  0
   12.6568  -20.2489   20.6085 O   0  0  0  0  0  0  0  0  0  0  0  0
    6.2736  -11.0193   26.3693 O   0  0  0  0  0  0  0  0  0  0  0  0
    6.7326  -12.3291   26.4766 C   0  0  0  0  0  0  0  0  0  0  0  0
    6.0240  -13.3706   25.9547 C   0  0  0  0  0  0  0  0  0  0  0  0
    6.5257  -14.6706   26.0873 C   0  0  0  0  0  0  0  0  0  0  0  0
    7.7220  -14.9048   26.7369 C   0  0  0  0  0  0  0  0  0  0  0  0
    8.2028  -16.2731   26.8527 C   0  0  0  0  0  0  0  0  0  0  0  0
    9.6229  -16.5084   26.4065 C   0  0  2  0  0  0  0  0  0  0  0  0
    9.5133  -16.8852   24.9880 N   0  0  0  0  0  0  0  0  0  0  0  0
   10.2176  -17.6242   27.1763 C   0  0  0  0  0  0  0  0  0  0  0  0
   10.6822  -17.4374   28.4687 O   0  0  0  0  0  0  0  0  0  0  0  0
    8.4316  -13.8388   27.2623 C   0  0  0  0  0  0  0  0  0  0  0  0
    7.9343  -12.5597   27.1297 C   0  0  0  0  0  0  0  0  0  0  0  0
   10.3196  -18.7740   26.6817 O   0  0  0  0  0  0  0  0  0  0  0  0
  2  1  1  1
  3  2  1  0
  4  2  1  0
  4  5  1  6
  6  4  1  0
  7  6  2  0
  8  6  1  0
  9  8  1  0
 10 11  1  0
  9 10  1  6
 12 16  1  0
 12 11  1  0
 13 12  2  0
 14 24  1  0
 14  9  1  0
 15 14  2  0
 18 17  1  0
 19 18  2  0
 20 19  1  0
 21 27  1  0
 21 20  2  0
 23 22  1  1
 22 21  1  0
 23 25  1  0
 23 24  1  0
 25 26  1  0
 27 28  2  0
 28 18  1  0
 29 25  2  0
M  END
$$$$
