VEY.pdb
     RDKit          3D

 29 29  0  0  1  0  0  0  0  0999 V2000
    8.6498  -12.9247   20.4886 C   0  0  0  0  0  0  0  0  0  0  0  0
    7.8076  -13.7179   19.5202 C   0  0  1  0  0  0  0  0  0  0  0  0
    7.5651  -12.8451   18.3009 C   0  0  0  0  0  0  0  0  0  0  0  0
    8.4999  -14.9650   19.0413 C   0  0  2  0  0  0  0  0  0  0  0  0
    7.6286  -15.6201   18.0897 N   0  0  0  0  0  0  0  0  0  0  0  0
    8.8498  -15.8974   20.1094 C   0  0  0  0  0  0  0  0  0  0  0  0
    7.9970  -16.6088   20.7268 O   0  0  0  0  0  0  0  0  0  0  0  0
   10.2100  -16.0270   20.4897 N   0  0  0  0  0  0  0  0  0  0  0  0
   10.6145  -16.8455   21.6447 C   0  0  1  0  0  0  0  0  0  0  0  0
   11.9284  -17.4862   21.4263 C   0  0  0  0  0  0  0  0  0  0  0  0
   12.4956  -18.3259   22.4869 C   0  0  0  0  0  0  0  0  0  0  0  0
   13.7737  -18.9767   22.3298 C   0  0  0  0  0  0  0  0  0  0  0  0
   14.4845  -18.9093   21.3178 O   0  0  0  0  0  0  0  0  0  0  0  0
   10.4456  -16.1274   22.8882 C   0  0  0  0  0  0  0  0  0  0  0  0
   11.1277  -15.1141   23.1500 O   0  0  0  0  0  0  0  0  0  0  0  0
   14.3143  -19.7671   23.3728 O   0  0  0  0  0  0  0  0  0  0  0  0
    6.3890  -10.5156   27.2601 O   0  0  0  0  0  0  0  0  0  0  0  0
    6.7104  -11.7500   26.7025 C   0  0  0  0  0  0  0  0  0  0  0  0
    5.7821  -12.4804   26.0214 C   0  0  0  0  0  0  0  0  0  0  0  0
    6.1519  -13.7163   25.4784 C   0  0  0  0  0  0  0  0  0  0  0  0
    7.4382  -14.1977   25.6256 C   0  0  0  0  0  0  0  0  0  0  0  0
    7.7761  -15.4887   25.0461 C   0  0  0  0  0  0  0  0  0  0  0  0
    9.2334  -15.8694   25.0992 C   0  0  2  0  0  0  0  0  0  0  0  0
    9.4848  -16.5708   23.8299 N   0  0  0  0  0  0  0  0  0  0  0  0
    9.4763  -16.7872   26.2348 C   0  0  0  0  0  0  0  0  0  0  0  0
    9.6507  -18.1475   26.0339 O   0  0  0  0  0  0  0  0  0  0  0  0
    8.3712  -13.4464   26.3193 C   0  0  0  0  0  0  0  0  0  0  0  0
    8.0032  -12.2295   26.8528 C   0  0  0  0  0  0  0  0  0  0  0  0
    9.5314  -16.3616   27.4149 O   0  0  0  0  0  0  0  0  0  0  0  0
  2  1  1  1
  3  2  1  0
  4  2  1  0
  4  5  1  6
  6  4  1  0
  7  6  2  0
  8  6  1  0
  9  8  1  0
 10 11  1  0
  9 10  1  6
 12 16  1  0
 12 11  1  0
 13 12  2  0
 14 24  1  0
 14  9  1  0
 15 14  2  0
 18 17  1  0
 19 18  2  0
 20 19  1  0
 21 27  1  0
 21 20  2  0
 23 22  1  6
 22 21  1  0
 23 25  1  0
 23 24  1  0
 25 26  1  0
 27 28  2  0
 28 18  1  0
 29 25  2  0
M  END
$$$$
