VEY.pdb
     RDKit          3D

 29 29  0  0  1  0  0  0  0  0999 V2000
    8.5199  -12.7088   20.2113 C   0  0  0  0  0  0  0  0  0  0  0  0
    7.5392  -13.5089   19.3900 C   0  0  1  0  0  0  0  0  0  0  0  0
    7.0491  -12.6166   18.2626 C   0  0  0  0  0  0  0  0  0  0  0  0
    8.1706  -14.7180   18.7549 C   0  0  2  0  0  0  0  0  0  0  0  0
    7.1792  -15.3440   17.9069 N   0  0  0  0  0  0  0  0  0  0  0  0
    8.6827  -15.6931   19.7137 C   0  0  0  0  0  0  0  0  0  0  0  0
    7.9509  -16.5481   20.3035 O   0  0  0  0  0  0  0  0  0  0  0  0
   10.0690  -15.6987   20.0134 N   0  0  0  0  0  0  0  0  0  0  0  0
   10.6533  -16.6749   20.9480 C   0  0  1  0  0  0  0  0  0  0  0  0
   11.6362  -17.5517   20.2775 C   0  0  0  0  0  0  0  0  0  0  0  0
   12.3055  -18.5977   21.0582 C   0  0  0  0  0  0  0  0  0  0  0  0
   13.3060  -19.4540   20.4685 C   0  0  0  0  0  0  0  0  0  0  0  0
   14.4555  -19.6058   20.9038 O   0  0  0  0  0  0  0  0  0  0  0  0
   11.0841  -16.0422   22.1745 C   0  0  0  0  0  0  0  0  0  0  0  0
   11.9845  -15.1762   22.1762 O   0  0  0  0  0  0  0  0  0  0  0  0
   13.0176  -20.2051   19.3035 O   0  0  0  0  0  0  0  0  0  0  0  0
   10.7140  -14.7666   31.0136 O   0  0  0  0  0  0  0  0  0  0  0  0
   10.4910  -15.1094   29.6829 C   0  0  0  0  0  0  0  0  0  0  0  0
   10.1724  -14.1635   28.7540 C   0  0  0  0  0  0  0  0  0  0  0  0
    9.9572  -14.5561   27.4277 C   0  0  0  0  0  0  0  0  0  0  0  0
   10.0641  -15.8821   27.0559 C   0  0  0  0  0  0  0  0  0  0  0  0
    9.8291  -16.2435   25.6663 C   0  0  0  0  0  0  0  0  0  0  0  0
   10.9201  -15.8655   24.6977 C   0  0  2  0  0  0  0  0  0  0  0  0
   10.4731  -16.4002   23.4013 N   0  0  0  0  0  0  0  0  0  0  0  0
   12.1934  -16.5091   25.0923 C   0  0  0  0  0  0  0  0  0  0  0  0
   12.3845  -17.8738   24.9428 O   0  0  0  0  0  0  0  0  0  0  0  0
   10.3882  -16.8325   28.0086 C   0  0  0  0  0  0  0  0  0  0  0  0
   10.5995  -16.4420   29.3139 C   0  0  0  0  0  0  0  0  0  0  0  0
   13.1390  -15.8386   25.5748 O   0  0  0  0  0  0  0  0  0  0  0  0
  2  1  1  6
  3  2  1  0
  4  2  1  0
  4  5  1  1
  6  4  1  0
  7  6  2  0
  8  6  1  0
  9  8  1  0
 10 11  1  0
  9 10  1  6
 12 16  1  0
 12 11  1  0
 13 12  2  0
 14 24  1  0
 14  9  1  0
 15 14  2  0
 18 17  1  0
 19 18  2  0
 20 19  1  0
 21 27  1  0
 21 20  2  0
 23 22  1  1
 22 21  1  0
 23 25  1  0
 23 24  1  0
 25 26  1  0
 27 28  2  0
 28 18  1  0
 29 25  2  0
M  END
$$$$
