VEY.pdb
     RDKit          3D

 29 29  0  0  1  0  0  0  0  0999 V2000
    6.9210  -13.5431   20.3891 C   0  0  0  0  0  0  0  0  0  0  0  0
    7.6908  -13.8652   19.1322 C   0  0  1  0  0  0  0  0  0  0  0  0
    7.4664  -12.7268   18.1519 C   0  0  0  0  0  0  0  0  0  0  0  0
    9.1734  -13.9573   19.3718 C   0  0  2  0  0  0  0  0  0  0  0  0
    9.8062  -14.3031   18.1172 N   0  0  0  0  0  0  0  0  0  0  0  0
    9.5503  -14.9280   20.3957 C   0  0  0  0  0  0  0  0  0  0  0  0
    9.0957  -14.9085   21.5821 O   0  0  0  0  0  0  0  0  0  0  0  0
   10.4722  -15.9534   20.0638 N   0  0  0  0  0  0  0  0  0  0  0  0
   10.8364  -17.0060   21.0266 C   0  0  1  0  0  0  0  0  0  0  0  0
   11.6999  -18.0348   20.4098 C   0  0  0  0  0  0  0  0  0  0  0  0
   12.1894  -19.1423   21.2377 C   0  0  0  0  0  0  0  0  0  0  0  0
   13.0926  -20.1358   20.7092 C   0  0  0  0  0  0  0  0  0  0  0  0
   14.1264  -20.5244   21.2698 O   0  0  0  0  0  0  0  0  0  0  0  0
   11.2947  -16.4443   22.2775 C   0  0  0  0  0  0  0  0  0  0  0  0
   12.2097  -15.5942   22.3105 O   0  0  0  0  0  0  0  0  0  0  0  0
   12.8368  -20.7526   19.4607 O   0  0  0  0  0  0  0  0  0  0  0  0
   10.3786  -14.6534   30.9529 O   0  0  0  0  0  0  0  0  0  0  0  0
   10.2409  -15.0367   29.6217 C   0  0  0  0  0  0  0  0  0  0  0  0
   10.1929  -16.3525   29.2671 C   0  0  0  0  0  0  0  0  0  0  0  0
   10.0537  -16.6895   27.9157 C   0  0  0  0  0  0  0  0  0  0  0  0
    9.9652  -15.7086   26.9472 C   0  0  0  0  0  0  0  0  0  0  0  0
    9.8238  -16.1065   25.5549 C   0  0  0  0  0  0  0  0  0  0  0  0
   11.1109  -16.3280   24.8029 C   0  0  2  0  0  0  0  0  0  0  0  0
   10.6948  -16.8551   23.4932 N   0  0  0  0  0  0  0  0  0  0  0  0
   11.9419  -17.3318   25.5052 C   0  0  0  0  0  0  0  0  0  0  0  0
   11.7350  -18.6899   25.3219 O   0  0  0  0  0  0  0  0  0  0  0  0
   10.0151  -14.3767   27.3203 C   0  0  0  0  0  0  0  0  0  0  0  0
   10.1524  -14.0485   28.6524 C   0  0  0  0  0  0  0  0  0  0  0  0
   12.8593  -16.9834   26.2887 O   0  0  0  0  0  0  0  0  0  0  0  0
  2  1  1  1
  3  2  1  0
  4  2  1  0
  4  5  1  6
  6  4  1  0
  7  6  2  0
  8  6  1  0
  9  8  1  0
 10 11  1  0
  9 10  1  6
 12 16  1  0
 12 11  1  0
 13 12  2  0
 14 24  1  0
 14  9  1  0
 15 14  2  0
 18 17  1  0
 19 18  2  0
 20 19  1  0
 21 27  1  0
 21 20  2  0
 23 22  1  1
 22 21  1  0
 23 25  1  0
 23 24  1  0
 25 26  1  0
 27 28  2  0
 28 18  1  0
 29 25  2  0
M  END
$$$$
