VEY.pdb
     RDKit          3D

 29 29  0  0  1  0  0  0  0  0999 V2000
    8.5362  -12.8686   21.5565 C   0  0  0  0  0  0  0  0  0  0  0  0
    7.5649  -13.6943   20.7497 C   0  0  1  0  0  0  0  0  0  0  0  0
    7.1591  -12.8725   19.5384 C   0  0  0  0  0  0  0  0  0  0  0  0
    8.1794  -14.9677   20.2350 C   0  0  2  0  0  0  0  0  0  0  0  0
    7.2210  -15.6001   19.3544 N   0  0  0  0  0  0  0  0  0  0  0  0
    8.5736  -15.9034   21.2846 C   0  0  0  0  0  0  0  0  0  0  0  0
    7.7680  -16.7127   21.8418 O   0  0  0  0  0  0  0  0  0  0  0  0
    9.9245  -15.9218   21.7162 N   0  0  0  0  0  0  0  0  0  0  0  0
   10.4025  -16.8900   22.7171 C   0  0  1  0  0  0  0  0  0  0  0  0
   11.6426  -17.5630   22.2769 C   0  0  0  0  0  0  0  0  0  0  0  0
   11.6180  -18.3694   21.0519 C   0  0  0  0  0  0  0  0  0  0  0  0
   12.7739  -19.1163   20.6185 C   0  0  0  0  0  0  0  0  0  0  0  0
   12.9259  -20.3366   20.7655 O   0  0  0  0  0  0  0  0  0  0  0  0
   10.4155  -16.3171   24.0445 C   0  0  0  0  0  0  0  0  0  0  0  0
   11.1561  -15.3514   24.3271 O   0  0  0  0  0  0  0  0  0  0  0  0
   13.8517  -18.4665   19.9698 O   0  0  0  0  0  0  0  0  0  0  0  0
    6.4957  -10.8162   25.8257 O   0  0  0  0  0  0  0  0  0  0  0  0
    6.8952  -12.1295   26.0571 C   0  0  0  0  0  0  0  0  0  0  0  0
    6.1048  -13.1814   25.6995 C   0  0  0  0  0  0  0  0  0  0  0  0
    6.5489  -14.4845   25.9525 C   0  0  0  0  0  0  0  0  0  0  0  0
    7.7705  -14.7112   26.5560 C   0  0  0  0  0  0  0  0  0  0  0  0
    8.1894  -16.0828   26.8013 C   0  0  0  0  0  0  0  0  0  0  0  0
    9.6192  -16.4040   26.4493 C   0  0  2  0  0  0  0  0  0  0  0  0
    9.5696  -16.8505   25.0477 N   0  0  0  0  0  0  0  0  0  0  0  0
   10.1178  -17.5024   27.3072 C   0  0  0  0  0  0  0  0  0  0  0  0
   10.3844  -18.7577   26.7837 O   0  0  0  0  0  0  0  0  0  0  0  0
    8.5634  -13.6347   26.9140 C   0  0  0  0  0  0  0  0  0  0  0  0
    8.1226  -12.3525   26.6632 C   0  0  0  0  0  0  0  0  0  0  0  0
   10.3141  -17.3305   28.5355 O   0  0  0  0  0  0  0  0  0  0  0  0
  2  1  1  6
  3  2  1  0
  4  2  1  0
  4  5  1  6
  6  4  1  0
  7  6  2  0
  8  6  1  0
  9  8  1  0
 10 11  1  0
  9 10  1  6
 12 16  1  0
 12 11  1  0
 13 12  2  0
 14 24  1  0
 14  9  1  0
 15 14  2  0
 18 17  1  0
 19 18  2  0
 20 19  1  0
 21 27  1  0
 21 20  2  0
 23 22  1  1
 22 21  1  0
 23 25  1  0
 23 24  1  0
 25 26  1  0
 27 28  2  0
 28 18  1  0
 29 25  2  0
M  END
$$$$
