VEY.pdb
     RDKit          3D

 29 29  0  0  1  0  0  0  0  0999 V2000
    8.1587  -12.7166   21.7251 C   0  0  0  0  0  0  0  0  0  0  0  0
    7.3790  -13.5297   20.7215 C   0  0  1  0  0  0  0  0  0  0  0  0
    7.0148  -12.6098   19.5689 C   0  0  0  0  0  0  0  0  0  0  0  0
    8.1851  -14.6624   20.1462 C   0  0  2  0  0  0  0  0  0  0  0  0
    7.4183  -15.2527   19.0703 N   0  0  0  0  0  0  0  0  0  0  0  0
    8.5401  -15.6925   21.1186 C   0  0  0  0  0  0  0  0  0  0  0  0
    7.7063  -16.5243   21.5954 O   0  0  0  0  0  0  0  0  0  0  0  0
    9.8834  -15.7820   21.5647 N   0  0  0  0  0  0  0  0  0  0  0  0
   10.3008  -16.7798   22.5636 C   0  0  1  0  0  0  0  0  0  0  0  0
   11.5287  -17.4890   22.1466 C   0  0  0  0  0  0  0  0  0  0  0  0
   11.4923  -18.3276   20.9437 C   0  0  0  0  0  0  0  0  0  0  0  0
   12.6846  -18.9532   20.4252 C   0  0  0  0  0  0  0  0  0  0  0  0
   13.0245  -20.1237   20.6451 O   0  0  0  0  0  0  0  0  0  0  0  0
   10.2974  -16.2262   23.8992 C   0  0  0  0  0  0  0  0  0  0  0  0
   10.9627  -15.2069   24.1806 O   0  0  0  0  0  0  0  0  0  0  0  0
   13.5766  -18.2309   19.5961 O   0  0  0  0  0  0  0  0  0  0  0  0
    6.2585  -11.0202   25.9343 O   0  0  0  0  0  0  0  0  0  0  0  0
    6.7542  -12.3018   26.1575 C   0  0  0  0  0  0  0  0  0  0  0  0
    7.7498  -12.5262   27.0617 C   0  0  0  0  0  0  0  0  0  0  0  0
    8.2160  -13.8322   27.2521 C   0  0  0  0  0  0  0  0  0  0  0  0
    7.6803  -14.8860   26.5375 C   0  0  0  0  0  0  0  0  0  0  0  0
    8.1983  -16.2261   26.7670 C   0  0  0  0  0  0  0  0  0  0  0  0
    9.6215  -16.4620   26.3306 C   0  0  2  0  0  0  0  0  0  0  0  0
    9.5213  -16.8412   24.9121 N   0  0  0  0  0  0  0  0  0  0  0  0
   10.2112  -17.5764   27.1062 C   0  0  0  0  0  0  0  0  0  0  0  0
   10.6760  -17.3850   28.3978 O   0  0  0  0  0  0  0  0  0  0  0  0
    6.6701  -14.6448   25.6226 C   0  0  0  0  0  0  0  0  0  0  0  0
    6.2135  -13.3570   25.4379 C   0  0  0  0  0  0  0  0  0  0  0  0
   10.3086  -18.7290   26.6174 O   0  0  0  0  0  0  0  0  0  0  0  0
  2  1  1  1
  3  2  1  0
  4  2  1  0
  4  5  1  6
  6  4  1  0
  7  6  2  0
  8  6  1  0
  9  8  1  0
 10 11  1  0
  9 10  1  6
 12 16  1  0
 12 11  1  0
 13 12  2  0
 14 24  1  0
 14  9  1  0
 15 14  2  0
 18 17  1  0
 19 18  2  0
 20 19  1  0
 21 27  1  0
 21 20  2  0
 23 22  1  1
 22 21  1  0
 23 25  1  0
 23 24  1  0
 25 26  1  0
 27 28  2  0
 28 18  1  0
 29 25  2  0
M  END
$$$$
