VEY.pdb
     RDKit          3D

 29 29  0  0  1  0  0  0  0  0999 V2000
    8.2061  -12.7264   21.2206 C   0  0  0  0  0  0  0  0  0  0  0  0
    7.6368  -13.3761   19.9836 C   0  0  1  0  0  0  0  0  0  0  0  0
    7.7181  -12.3634   18.8543 C   0  0  0  0  0  0  0  0  0  0  0  0
    8.4239  -14.5838   19.5525 C   0  0  2  0  0  0  0  0  0  0  0  0
    7.9033  -15.0215   18.2753 N   0  0  0  0  0  0  0  0  0  0  0  0
    8.3827  -15.6903   20.5047 C   0  0  0  0  0  0  0  0  0  0  0  0
    7.3928  -16.4782   20.6222 O   0  0  0  0  0  0  0  0  0  0  0  0
    9.4995  -15.9101   21.3507 N   0  0  0  0  0  0  0  0  0  0  0  0
    9.4927  -16.9615   22.3814 C   0  0  1  0  0  0  0  0  0  0  0  0
   10.2582  -18.1509   21.9529 C   0  0  0  0  0  0  0  0  0  0  0  0
   11.5727  -17.9643   21.3293 C   0  0  0  0  0  0  0  0  0  0  0  0
   12.3533  -19.0863   20.8671 C   0  0  0  0  0  0  0  0  0  0  0  0
   12.7410  -19.2488   19.7021 O   0  0  0  0  0  0  0  0  0  0  0  0
    9.8092  -16.4261   23.6866 C   0  0  0  0  0  0  0  0  0  0  0  0
   10.8200  -15.7146   23.8683 O   0  0  0  0  0  0  0  0  0  0  0  0
   12.7390  -20.1144   21.7609 O   0  0  0  0  0  0  0  0  0  0  0  0
    6.5198  -10.4294   25.8510 O   0  0  0  0  0  0  0  0  0  0  0  0
    6.8822  -11.7576   26.0570 C   0  0  0  0  0  0  0  0  0  0  0  0
    8.1895  -12.1444   26.0347 C   0  0  0  0  0  0  0  0  0  0  0  0
    8.5054  -13.4914   26.2471 C   0  0  0  0  0  0  0  0  0  0  0  0
    7.5123  -14.4235   26.4772 C   0  0  0  0  0  0  0  0  0  0  0  0
    7.8881  -15.8127   26.6903 C   0  0  0  0  0  0  0  0  0  0  0  0
    9.2339  -16.2182   26.1463 C   0  0  2  0  0  0  0  0  0  0  0  0
    8.9578  -16.7029   24.7843 N   0  0  0  0  0  0  0  0  0  0  0  0
    9.8008  -17.3152   26.9627 C   0  0  0  0  0  0  0  0  0  0  0  0
    9.9389  -18.5949   26.4487 O   0  0  0  0  0  0  0  0  0  0  0  0
    6.1891  -14.0178   26.4975 C   0  0  0  0  0  0  0  0  0  0  0  0
    5.8818  -12.6901   26.2878 C   0  0  0  0  0  0  0  0  0  0  0  0
   10.1737  -17.1198   28.1457 O   0  0  0  0  0  0  0  0  0  0  0  0
  2  1  1  1
  3  2  1  0
  4  2  1  0
  4  5  1  6
  6  4  1  0
  7  6  2  0
  8  6  1  0
  9  8  1  0
 10 11  1  0
  9 10  1  6
 12 16  1  0
 12 11  1  0
 13 12  2  0
 14 24  1  0
 14  9  1  0
 15 14  2  0
 18 17  1  0
 19 18  2  0
 20 19  1  0
 21 27  1  0
 21 20  2  0
 23 22  1  1
 22 21  1  0
 23 25  1  0
 23 24  1  0
 25 26  1  0
 27 28  2  0
 28 18  1  0
 29 25  2  0
M  END
$$$$
