VEY.pdb
     RDKit          3D

 29 29  0  0  1  0  0  0  0  0999 V2000
    8.7110  -13.0460   20.7160 C   0  0  0  0  0  0  0  0  0  0  0  0
    7.8942  -13.7635   19.6699 C   0  0  1  0  0  0  0  0  0  0  0  0
    7.7828  -12.8453   18.4650 C   0  0  0  0  0  0  0  0  0  0  0  0
    8.5483  -15.0341   19.1991 C   0  0  2  0  0  0  0  0  0  0  0  0
    7.7213  -15.5999   18.1551 N   0  0  0  0  0  0  0  0  0  0  0  0
    8.7523  -16.0231   20.2540 C   0  0  0  0  0  0  0  0  0  0  0  0
    7.8455  -16.8175   20.6557 O   0  0  0  0  0  0  0  0  0  0  0  0
   10.0250  -16.1142   20.8732 N   0  0  0  0  0  0  0  0  0  0  0  0
   10.2763  -17.0403   21.9898 C   0  0  1  0  0  0  0  0  0  0  0  0
   11.5218  -17.8106   21.7904 C   0  0  0  0  0  0  0  0  0  0  0  0
   11.5910  -18.7791   20.6910 C   0  0  0  0  0  0  0  0  0  0  0  0
   12.7701  -19.5797   20.4655 C   0  0  0  0  0  0  0  0  0  0  0  0
   13.1128  -20.0448   19.3700 O   0  0  0  0  0  0  0  0  0  0  0  0
   10.1217  -16.3831   23.2683 C   0  0  0  0  0  0  0  0  0  0  0  0
   10.7007  -15.3045   23.5176 O   0  0  0  0  0  0  0  0  0  0  0  0
   13.6442  -19.8944   21.5340 O   0  0  0  0  0  0  0  0  0  0  0  0
    6.0534  -10.9540   27.9757 O   0  0  0  0  0  0  0  0  0  0  0  0
    6.4756  -12.0016   27.1620 C   0  0  0  0  0  0  0  0  0  0  0  0
    5.5942  -12.9287   26.6901 C   0  0  0  0  0  0  0  0  0  0  0  0
    6.0656  -13.9644   25.8751 C   0  0  0  0  0  0  0  0  0  0  0  0
    7.4046  -14.0540   25.5480 C   0  0  0  0  0  0  0  0  0  0  0  0
    7.8491  -15.1494   24.6998 C   0  0  0  0  0  0  0  0  0  0  0  0
    8.7161  -16.1853   25.3682 C   0  0  2  0  0  0  0  0  0  0  0  0
    9.2935  -16.9633   24.2603 N   0  0  0  0  0  0  0  0  0  0  0  0
    7.8866  -17.0671   26.2200 C   0  0  0  0  0  0  0  0  0  0  0  0
    7.8819  -16.9349   27.5997 O   0  0  0  0  0  0  0  0  0  0  0  0
    8.2891  -13.1065   26.0335 C   0  0  0  0  0  0  0  0  0  0  0  0
    7.8211  -12.0877   26.8360 C   0  0  0  0  0  0  0  0  0  0  0  0
    7.1623  -17.9620   25.7187 O   0  0  0  0  0  0  0  0  0  0  0  0
  2  1  1  1
  3  2  1  0
  4  2  1  0
  4  5  1  6
  6  4  1  0
  7  6  2  0
  8  6  1  0
  9  8  1  0
 10 11  1  0
  9 10  1  6
 12 16  1  0
 12 11  1  0
 13 12  2  0
 14 24  1  0
 14  9  1  0
 15 14  2  0
 18 17  1  0
 19 18  2  0
 20 19  1  0
 21 27  1  0
 21 20  2  0
 23 22  1  6
 22 21  1  0
 23 25  1  0
 23 24  1  0
 25 26  1  0
 27 28  2  0
 28 18  1  0
 29 25  2  0
M  END
$$$$
