MGF.pdb
     RDKit          3D

 24 24  0  0  1  0  0  0  0  0999 V2000
   32.0449  -24.9993  -16.8760 C   0  0  0  0  0  0  0  0  0  0  0  0
   30.8228  -23.8433  -16.2154 S   0  0  0  0  0  0  0  0  0  0  0  0
   29.9891  -22.9138  -17.5417 C   0  0  0  0  0  0  0  0  0  0  0  0
   28.9871  -21.9968  -16.9084 C   0  0  0  0  0  0  0  0  0  0  0  0
   28.2511  -22.6750  -15.7801 C   0  0  2  0  0  0  0  0  0  0  0  0
   27.2604  -23.5422  -16.4713 N   0  0  0  0  0  0  0  0  0  0  0  0
   27.4935  -21.7816  -14.9060 C   0  0  0  0  0  0  0  0  0  0  0  0
   28.1497  -20.8607  -14.2939 O   0  0  0  0  0  0  0  0  0  0  0  0
   26.0980  -21.8452  -14.6797 N   0  0  0  0  0  0  0  0  0  0  0  0
   25.4952  -20.9539  -13.7328 C   0  0  0  0  0  0  0  0  0  0  0  0
   25.8492  -21.2729  -12.3325 C   0  0  0  0  0  0  0  0  0  0  0  0
   26.1891  -22.4547  -12.0462 O   0  0  0  0  0  0  0  0  0  0  0  0
   25.8224  -20.3040  -11.2964 N   0  0  0  0  0  0  0  0  0  0  0  0
   26.2607  -20.6022   -9.9338 C   0  0  1  0  0  0  0  0  0  0  0  0
   27.4232  -19.7423   -9.5388 C   0  0  0  0  0  0  0  0  0  0  0  0
   27.7968  -19.8623   -8.1144 C   0  0  0  0  0  0  0  0  0  0  0  0
   28.7761  -20.7652   -7.6881 C   0  0  0  0  0  0  0  0  0  0  0  0
   29.1454  -20.8798   -6.3644 C   0  0  0  0  0  0  0  0  0  0  0  0
   28.5502  -20.0939   -5.4014 C   0  0  0  0  0  0  0  0  0  0  0  0
   27.5852  -19.2016   -5.8084 C   0  0  0  0  0  0  0  0  0  0  0  0
   27.2101  -19.0831   -7.1426 C   0  0  0  0  0  0  0  0  0  0  0  0
   25.1314  -20.5473   -8.9879 C   0  0  0  0  0  0  0  0  0  0  0  0
   25.0962  -21.3538   -7.8620 O   0  0  0  0  0  0  0  0  0  0  0  0
   24.1872  -19.7600   -9.2033 O   0  0  0  0  0  0  0  0  0  0  0  0
  2  3  1  0
  2  1  1  0
  4  3  1  0
  4  5  1  0
  5  6  1  6
  7  5  1  0
  7  9  1  0
  8  7  2  0
 10  9  1  0
 10 11  1  0
 11 12  2  0
 11 13  1  0
 13 14  1  0
 14 15  1  1
 14 22  1  0
 15 16  1  0
 16 17  2  0
 17 18  1  0
 19 18  2  0
 20 19  1  0
 21 20  2  0
 21 16  1  0
 22 23  1  0
 24 22  2  0
M  END
$$$$
