MGF.pdb
     RDKit          3D

 24 24  0  0  1  0  0  0  0  0999 V2000
   22.1269  -16.3050  -15.9496 C   0  0  0  0  0  0  0  0  0  0  0  0
   22.3846  -17.6091  -17.1740 S   0  0  0  0  0  0  0  0  0  0  0  0
   23.4231  -18.9539  -16.5173 C   0  0  0  0  0  0  0  0  0  0  0  0
   23.8382  -18.5841  -15.1256 C   0  0  0  0  0  0  0  0  0  0  0  0
   24.7410  -19.6299  -14.5205 C   0  0  2  0  0  0  0  0  0  0  0  0
   23.9176  -20.8680  -14.5440 N   0  0  0  0  0  0  0  0  0  0  0  0
   25.1151  -19.3976  -13.1269 C   0  0  0  0  0  0  0  0  0  0  0  0
   24.1608  -19.2672  -12.2749 O   0  0  0  0  0  0  0  0  0  0  0  0
   26.4400  -19.3065  -12.6379 N   0  0  0  0  0  0  0  0  0  0  0  0
   26.6640  -18.9385  -11.2710 C   0  0  0  0  0  0  0  0  0  0  0  0
   26.3816  -20.0381  -10.3228 C   0  0  0  0  0  0  0  0  0  0  0  0
   26.4026  -21.2269  -10.7478 O   0  0  0  0  0  0  0  0  0  0  0  0
   26.0878  -19.8115   -8.9533 N   0  0  0  0  0  0  0  0  0  0  0  0
   25.7350  -20.8959   -8.0383 C   0  0  1  0  0  0  0  0  0  0  0  0
   25.8832  -20.4680   -6.6094 C   0  0  0  0  0  0  0  0  0  0  0  0
   27.2755  -20.1641   -6.2192 C   0  0  0  0  0  0  0  0  0  0  0  0
   28.1803  -21.1774   -5.8867 C   0  0  0  0  0  0  0  0  0  0  0  0
   29.4864  -20.9111   -5.5334 C   0  0  0  0  0  0  0  0  0  0  0  0
   29.9505  -19.6140   -5.4957 C   0  0  0  0  0  0  0  0  0  0  0  0
   29.0697  -18.6082   -5.8207 C   0  0  0  0  0  0  0  0  0  0  0  0
   27.7516  -18.8728   -6.1777 C   0  0  0  0  0  0  0  0  0  0  0  0
   24.4075  -21.4513   -8.3584 C   0  0  0  0  0  0  0  0  0  0  0  0
   23.9687  -22.6378   -7.7935 O   0  0  0  0  0  0  0  0  0  0  0  0
   23.6625  -20.8430   -9.1539 O   0  0  0  0  0  0  0  0  0  0  0  0
  2  3  1  0
  2  1  1  0
  4  3  1  0
  4  5  1  0
  5  6  1  1
  7  5  1  0
  7  9  1  0
  8  7  2  0
 10  9  1  0
 10 11  1  0
 11 12  2  0
 11 13  1  0
 13 14  1  0
 14 15  1  1
 14 22  1  0
 15 16  1  0
 16 17  2  0
 17 18  1  0
 19 18  2  0
 20 19  1  0
 21 20  2  0
 21 16  1  0
 22 23  1  0
 24 22  2  0
M  END
$$$$
