MGF.pdb
     RDKit          3D

 24 24  0  0  1  0  0  0  0  0999 V2000
   25.1520  -18.0137  -17.8166 C   0  0  0  0  0  0  0  0  0  0  0  0
   23.5888  -18.8867  -18.0627 S   0  0  0  0  0  0  0  0  0  0  0  0
   23.0574  -19.7554  -16.5524 C   0  0  0  0  0  0  0  0  0  0  0  0
   24.1488  -19.6273  -15.5334 C   0  0  0  0  0  0  0  0  0  0  0  0
   23.7978  -20.3426  -14.2529 C   0  0  2  0  0  0  0  0  0  0  0  0
   22.4593  -19.8009  -13.8976 N   0  0  0  0  0  0  0  0  0  0  0  0
   24.6806  -20.0629  -13.1221 C   0  0  0  0  0  0  0  0  0  0  0  0
   25.8489  -20.5998  -13.1404 O   0  0  0  0  0  0  0  0  0  0  0  0
   24.3566  -19.2488  -12.0109 N   0  0  0  0  0  0  0  0  0  0  0  0
   25.3644  -18.9516  -11.0361 C   0  0  0  0  0  0  0  0  0  0  0  0
   25.5808  -20.0541  -10.0740 C   0  0  0  0  0  0  0  0  0  0  0  0
   24.8730  -21.0949  -10.1739 O   0  0  0  0  0  0  0  0  0  0  0  0
   26.5522  -19.9899   -9.0420 N   0  0  0  0  0  0  0  0  0  0  0  0
   26.8230  -21.1164   -8.1502 C   0  0  1  0  0  0  0  0  0  0  0  0
   28.2430  -21.0976   -7.6703 C   0  0  0  0  0  0  0  0  0  0  0  0
   28.4579  -20.2539   -6.4766 C   0  0  0  0  0  0  0  0  0  0  0  0
   28.2014  -18.8792   -6.4961 C   0  0  0  0  0  0  0  0  0  0  0  0
   28.3843  -18.0805   -5.3869 C   0  0  0  0  0  0  0  0  0  0  0  0
   28.8342  -18.6212   -4.2018 C   0  0  0  0  0  0  0  0  0  0  0  0
   29.0902  -19.9727   -4.1701 C   0  0  0  0  0  0  0  0  0  0  0  0
   28.9068  -20.7816   -5.2867 C   0  0  0  0  0  0  0  0  0  0  0  0
   25.8288  -21.1859   -7.0640 C   0  0  0  0  0  0  0  0  0  0  0  0
   24.9147  -20.1653   -6.8590 O   0  0  0  0  0  0  0  0  0  0  0  0
   25.8081  -22.1825   -6.3129 O   0  0  0  0  0  0  0  0  0  0  0  0
  2  3  1  0
  2  1  1  0
  4  3  1  0
  4  5  1  0
  5  6  1  1
  7  5  1  0
  7  9  1  0
  8  7  2  0
 10  9  1  0
 10 11  1  0
 11 12  2  0
 11 13  1  0
 13 14  1  0
 14 15  1  1
 14 22  1  0
 15 16  1  0
 16 17  2  0
 17 18  1  0
 19 18  2  0
 20 19  1  0
 21 20  2  0
 21 16  1  0
 22 23  1  0
 24 22  2  0
M  END
$$$$
