MGF.pdb
     RDKit          3D

 24 24  0  0  1  0  0  0  0  0999 V2000
   25.3016  -18.6632  -17.9846 C   0  0  0  0  0  0  0  0  0  0  0  0
   23.6903  -19.0391  -17.2573 S   0  0  0  0  0  0  0  0  0  0  0  0
   23.8559  -19.8144  -15.6173 C   0  0  0  0  0  0  0  0  0  0  0  0
   25.3169  -19.9656  -15.3194 C   0  0  0  0  0  0  0  0  0  0  0  0
   25.5446  -20.7063  -14.0255 C   0  0  2  0  0  0  0  0  0  0  0  0
   24.7890  -19.9107  -13.0218 N   0  0  0  0  0  0  0  0  0  0  0  0
   26.9329  -20.7513  -13.5707 C   0  0  0  0  0  0  0  0  0  0  0  0
   27.7522  -21.4722  -14.2507 O   0  0  0  0  0  0  0  0  0  0  0  0
   27.4497  -20.0656  -12.4458 N   0  0  0  0  0  0  0  0  0  0  0  0
   28.3334  -20.7488  -11.5476 C   0  0  0  0  0  0  0  0  0  0  0  0
   27.6820  -21.1319  -10.2760 C   0  0  0  0  0  0  0  0  0  0  0  0
   27.7017  -22.3446   -9.9250 O   0  0  0  0  0  0  0  0  0  0  0  0
   27.0351  -20.1914   -9.4335 N   0  0  0  0  0  0  0  0  0  0  0  0
   26.2095  -20.5963   -8.2968 C   0  0  1  0  0  0  0  0  0  0  0  0
   26.2982  -19.5991   -7.1811 C   0  0  0  0  0  0  0  0  0  0  0  0
   27.4742  -19.7860   -6.3064 C   0  0  0  0  0  0  0  0  0  0  0  0
   27.6821  -20.9775   -5.6041 C   0  0  0  0  0  0  0  0  0  0  0  0
   28.7811  -21.1724   -4.7943 C   0  0  0  0  0  0  0  0  0  0  0  0
   29.7272  -20.1810   -4.6481 C   0  0  0  0  0  0  0  0  0  0  0  0
   29.5337  -19.0040   -5.3340 C   0  0  0  0  0  0  0  0  0  0  0  0
   28.4266  -18.8037   -6.1518 C   0  0  0  0  0  0  0  0  0  0  0  0
   24.8293  -20.8934   -8.7209 C   0  0  0  0  0  0  0  0  0  0  0  0
   23.9174  -21.4688   -7.8510 O   0  0  0  0  0  0  0  0  0  0  0  0
   24.4727  -20.6224   -9.8859 O   0  0  0  0  0  0  0  0  0  0  0  0
  2  3  1  0
  2  1  1  0
  4  3  1  0
  4  5  1  0
  5  6  1  1
  7  5  1  0
  7  9  1  0
  8  7  2  0
 10  9  1  0
 10 11  1  0
 11 12  2  0
 11 13  1  0
 13 14  1  0
 14 15  1  1
 14 22  1  0
 15 16  1  0
 16 17  2  0
 17 18  1  0
 19 18  2  0
 20 19  1  0
 21 20  2  0
 21 16  1  0
 22 23  1  0
 24 22  2  0
M  END
$$$$
