NFL.pdb
     RDKit          3D

 28 28  0  0  1  0  0  0  0  0999 V2000
   24.6544  -43.1303   -4.3685 N   0  0  0  0  0  0  0  0  0  0  0  0
   25.8634  -43.1583   -5.1038 C   0  0  0  0  0  0  0  0  0  0  0  0
   25.9372  -43.9873   -6.0438 O   0  0  0  0  0  0  0  0  0  0  0  0
   27.0088  -42.2784   -4.8196 C   0  0  0  0  0  0  0  0  0  0  0  0
   26.9896  -41.1163   -5.7638 C   0  0  2  0  0  0  0  0  0  0  0  0
   27.8387  -41.2824   -6.8994 N   0  0  0  0  0  0  0  0  0  0  0  0
   27.2204  -39.8166   -5.0644 C   0  0  0  0  0  0  0  0  0  0  0  0
   28.1116  -39.7849   -4.1597 O   0  0  0  0  0  0  0  0  0  0  0  0
   26.4815  -38.6604   -5.3884 N   0  0  0  0  0  0  0  0  0  0  0  0
   26.7378  -37.3941   -4.7284 C   0  0  1  0  0  0  0  0  0  0  0  0
   26.3562  -36.2904   -5.6313 C   0  0  0  0  0  0  0  0  0  0  0  0
   26.2527  -34.9531   -5.0764 C   0  0  0  0  0  0  0  0  0  0  0  0
   27.3978  -34.3119   -4.6647 C   0  0  0  0  0  0  0  0  0  0  0  0
   27.3537  -33.0191   -4.1286 C   0  0  0  0  0  0  0  0  0  0  0  0
   26.1572  -32.3490   -3.9971 C   0  0  0  0  0  0  0  0  0  0  0  0
   25.0132  -32.9920   -4.4092 C   0  0  0  0  0  0  0  0  0  0  0  0
   25.0669  -34.2590   -4.9335 C   0  0  0  0  0  0  0  0  0  0  0  0
   26.1225  -37.3622   -3.3743 C   0  0  0  0  0  0  0  0  0  0  0  0
   24.9636  -37.8273   -3.2395 O   0  0  0  0  0  0  0  0  0  0  0  0
   26.2983  -36.8372    2.2475 C   0  0  0  0  0  0  0  0  0  0  0  0
   26.1077  -37.9666    1.3114 C   0  0  1  0  0  0  0  0  0  0  0  0
   24.6194  -38.3530    1.4108 C   0  0  0  0  0  0  0  0  0  0  0  0
   26.5591  -37.8636   -0.0735 C   0  0  0  0  0  0  0  0  0  0  0  0
   26.1010  -36.7660   -0.9381 C   0  0  2  0  0  0  0  0  0  0  0  0
   26.7745  -36.8356   -2.2457 N   0  0  0  0  0  0  0  0  0  0  0  0
   26.1562  -35.3921   -0.4701 C   0  0  0  0  0  0  0  0  0  0  0  0
   27.2324  -34.5646   -0.8358 O   0  0  0  0  0  0  0  0  0  0  0  0
   25.2844  -34.8835    0.2567 O   0  0  0  0  0  0  0  0  0  0  0  0
  1  2  1  0
  2  3  2  0
  4  5  1  0
  4  2  1  0
  5  7  1  0
  5  6  1  6
  7  8  2  0
  9  7  1  0
 10  9  1  0
 11 12  1  0
 10 11  1  6
 12 17  2  0
 13 12  1  0
 13 14  2  0
 14 15  1  0
 15 16  2  0
 17 16  1  0
 18 10  1  0
 19 18  2  0
 21 20  1  6
 21 22  1  0
 23 21  1  0
 24 25  1  0
 24 23  1  1
 25 18  1  0
 26 24  1  0
 27 26  1  0
 28 26  2  0
M  END
$$$$
