NFL.pdb
     RDKit          3D

 28 28  0  0  1  0  0  0  0  0999 V2000
   24.9273  -20.4107  -16.4974 N   0  0  0  0  0  0  0  0  0  0  0  0
   24.7172  -20.9178  -15.1928 C   0  0  0  0  0  0  0  0  0  0  0  0
   23.6188  -21.4851  -14.9742 O   0  0  0  0  0  0  0  0  0  0  0  0
   25.7078  -20.8105  -14.1092 C   0  0  0  0  0  0  0  0  0  0  0  0
   25.0080  -20.4851  -12.8260 C   0  0  2  0  0  0  0  0  0  0  0  0
   24.1820  -19.3230  -12.8986 N   0  0  0  0  0  0  0  0  0  0  0  0
   25.9473  -20.4456  -11.6650 C   0  0  0  0  0  0  0  0  0  0  0  0
   27.1429  -20.8271  -11.8616 O   0  0  0  0  0  0  0  0  0  0  0  0
   25.5326  -20.0027  -10.3923 N   0  0  0  0  0  0  0  0  0  0  0  0
   26.4591  -19.9436   -9.2774 C   0  0  1  0  0  0  0  0  0  0  0  0
   26.4573  -18.5781   -8.7169 C   0  0  0  0  0  0  0  0  0  0  0  0
   27.3717  -18.2802   -7.6297 C   0  0  0  0  0  0  0  0  0  0  0  0
   26.8619  -18.0609   -6.3712 C   0  0  0  0  0  0  0  0  0  0  0  0
   27.7010  -17.7762   -5.2869 C   0  0  0  0  0  0  0  0  0  0  0  0
   29.0672  -17.7070   -5.4498 C   0  0  0  0  0  0  0  0  0  0  0  0
   29.5751  -17.9263   -6.7091 C   0  0  0  0  0  0  0  0  0  0  0  0
   28.7444  -18.2047   -7.7653 C   0  0  0  0  0  0  0  0  0  0  0  0
   26.1985  -21.0402   -8.3064 C   0  0  0  0  0  0  0  0  0  0  0  0
   25.0871  -21.6232   -8.3561 O   0  0  0  0  0  0  0  0  0  0  0  0
   30.1422  -21.7195   -4.3645 C   0  0  0  0  0  0  0  0  0  0  0  0
   29.1183  -21.7780   -5.4306 C   0  0  1  0  0  0  0  0  0  0  0  0
   29.7223  -22.6460   -6.5512 C   0  0  0  0  0  0  0  0  0  0  0  0
   27.7446  -22.1608   -5.1165 C   0  0  0  0  0  0  0  0  0  0  0  0
   26.7241  -22.2474   -6.1716 C   0  0  2  0  0  0  0  0  0  0  0  0
   27.1333  -21.4492   -7.3395 N   0  0  0  0  0  0  0  0  0  0  0  0
   25.3354  -21.9418   -5.8752 C   0  0  0  0  0  0  0  0  0  0  0  0
   24.5984  -22.7724   -5.0130 O   0  0  0  0  0  0  0  0  0  0  0  0
   24.7366  -20.9605   -6.3501 O   0  0  0  0  0  0  0  0  0  0  0  0
  1  2  1  0
  2  3  2  0
  4  5  1  0
  4  2  1  0
  5  7  1  0
  5  6  1  6
  7  8  2  0
  9  7  1  0
 10  9  1  0
 11 12  1  0
 10 11  1  1
 12 17  2  0
 13 12  1  0
 13 14  2  0
 14 15  1  0
 15 16  2  0
 17 16  1  0
 18 10  1  0
 19 18  2  0
 21 20  1  1
 21 22  1  0
 23 21  1  0
 24 25  1  0
 24 23  1  1
 25 18  1  0
 26 24  1  0
 27 26  1  0
 28 26  2  0
M  END
$$$$
