NFL.pdb
     RDKit          3D

 28 28  0  0  1  0  0  0  0  0999 V2000
   26.2221  -22.0161  -16.0961 N   0  0  0  0  0  0  0  0  0  0  0  0
   26.2610  -20.9635  -15.1507 C   0  0  0  0  0  0  0  0  0  0  0  0
   26.5872  -19.8288  -15.5775 O   0  0  0  0  0  0  0  0  0  0  0  0
   25.9430  -21.1393  -13.7242 C   0  0  0  0  0  0  0  0  0  0  0  0
   27.1193  -20.7217  -12.8972 C   0  0  2  0  0  0  0  0  0  0  0  0
   28.3719  -21.1853  -13.4011 N   0  0  0  0  0  0  0  0  0  0  0  0
   26.9336  -21.0408  -11.4496 C   0  0  0  0  0  0  0  0  0  0  0  0
   26.3798  -22.1459  -11.1566 O   0  0  0  0  0  0  0  0  0  0  0  0
   27.3540  -20.1550  -10.4365 N   0  0  0  0  0  0  0  0  0  0  0  0
   27.1859  -20.4824   -9.0333 C   0  0  1  0  0  0  0  0  0  0  0  0
   28.1897  -19.7464   -8.2397 C   0  0  0  0  0  0  0  0  0  0  0  0
   28.1629  -19.8886   -6.7954 C   0  0  0  0  0  0  0  0  0  0  0  0
   27.7841  -18.8127   -6.0267 C   0  0  0  0  0  0  0  0  0  0  0  0
   27.7352  -18.8991   -4.6300 C   0  0  0  0  0  0  0  0  0  0  0  0
   28.0666  -20.0689   -3.9823 C   0  0  0  0  0  0  0  0  0  0  0  0
   28.4454  -21.1436   -4.7527 C   0  0  0  0  0  0  0  0  0  0  0  0
   28.4900  -21.0490   -6.1210 C   0  0  0  0  0  0  0  0  0  0  0  0
   25.7713  -20.3056   -8.6082 C   0  0  0  0  0  0  0  0  0  0  0  0
   25.1845  -19.2431   -8.9312 O   0  0  0  0  0  0  0  0  0  0  0  0
   21.9330  -21.6221  -11.0448 C   0  0  0  0  0  0  0  0  0  0  0  0
   22.6186  -20.9685   -9.9086 C   0  0  1  0  0  0  0  0  0  0  0  0
   21.8948  -19.6256   -9.6925 C   0  0  0  0  0  0  0  0  0  0  0  0
   22.8272  -21.6901   -8.6564 C   0  0  0  0  0  0  0  0  0  0  0  0
   23.6318  -21.1064   -7.5728 C   0  0  2  0  0  0  0  0  0  0  0  0
   25.0664  -21.2670   -7.8634 N   0  0  0  0  0  0  0  0  0  0  0  0
   23.3997  -21.4997   -6.1939 C   0  0  0  0  0  0  0  0  0  0  0  0
   22.2291  -21.0915   -5.5310 O   0  0  0  0  0  0  0  0  0  0  0  0
   24.1955  -22.1973   -5.5405 O   0  0  0  0  0  0  0  0  0  0  0  0
  1  2  1  0
  2  3  2  0
  4  5  1  0
  4  2  1  0
  5  7  1  0
  5  6  1  6
  7  8  2  0
  9  7  1  0
 10  9  1  0
 11 12  1  0
 10 11  1  1
 12 17  2  0
 13 12  1  0
 13 14  2  0
 14 15  1  0
 15 16  2  0
 17 16  1  0
 18 10  1  0
 19 18  2  0
 21 20  1  6
 21 22  1  0
 23 21  1  0
 24 25  1  0
 24 23  1  6
 25 18  1  0
 26 24  1  0
 27 26  1  0
 28 26  2  0
M  END
$$$$
