NFL.pdb
     RDKit          3D

 28 28  0  0  1  0  0  0  0  0999 V2000
   14.4769  -23.9745    2.6192 N   0  0  0  0  0  0  0  0  0  0  0  0
   14.3803  -22.5904    2.8988 C   0  0  0  0  0  0  0  0  0  0  0  0
   13.2291  -22.0895    2.8953 O   0  0  0  0  0  0  0  0  0  0  0  0
   15.5437  -21.7355    3.1861 C   0  0  0  0  0  0  0  0  0  0  0  0
   15.5256  -20.5479    2.2743 C   0  0  2  0  0  0  0  0  0  0  0  0
   15.6192  -20.8827    0.8897 N   0  0  0  0  0  0  0  0  0  0  0  0
   16.5214  -19.5103    2.6787 C   0  0  0  0  0  0  0  0  0  0  0  0
   17.7255  -19.6737    2.3082 O   0  0  0  0  0  0  0  0  0  0  0  0
   16.1496  -18.3861    3.4440 N   0  0  0  0  0  0  0  0  0  0  0  0
   17.1307  -17.4027    3.8623 C   0  0  1  0  0  0  0  0  0  0  0  0
   16.6613  -16.0562    3.4808 C   0  0  0  0  0  0  0  0  0  0  0  0
   17.4770  -14.9137    3.8499 C   0  0  0  0  0  0  0  0  0  0  0  0
   18.6012  -14.6306    3.1097 C   0  0  0  0  0  0  0  0  0  0  0  0
   19.4186  -13.5367    3.4196 C   0  0  0  0  0  0  0  0  0  0  0  0
   19.1195  -12.7089    4.4794 C   0  0  0  0  0  0  0  0  0  0  0  0
   17.9950  -12.9938    5.2184 C   0  0  0  0  0  0  0  0  0  0  0  0
   17.2002  -14.0682    4.9066 C   0  0  0  0  0  0  0  0  0  0  0  0
   17.4882  -17.5794    5.2955 C   0  0  0  0  0  0  0  0  0  0  0  0
   16.5945  -17.9762    6.0839 O   0  0  0  0  0  0  0  0  0  0  0  0
   21.5665  -20.3906    6.6837 C   0  0  0  0  0  0  0  0  0  0  0  0
   20.3109  -19.7223    7.0899 C   0  0  1  0  0  0  0  0  0  0  0  0
   19.7308  -20.5714    8.2373 C   0  0  0  0  0  0  0  0  0  0  0  0
   20.2992  -18.2954    7.3996 C   0  0  0  0  0  0  0  0  0  0  0  0
   19.0758  -17.4963    7.2354 C   0  0  2  0  0  0  0  0  0  0  0  0
   18.7726  -17.3214    5.8051 N   0  0  0  0  0  0  0  0  0  0  0  0
   18.9504  -16.2050    7.8887 C   0  0  0  0  0  0  0  0  0  0  0  0
   18.7567  -16.1333    9.2793 O   0  0  0  0  0  0  0  0  0  0  0  0
   19.0056  -15.1232    7.2774 O   0  0  0  0  0  0  0  0  0  0  0  0
  1  2  1  0
  2  3  2  0
  4  5  1  0
  4  2  1  0
  5  7  1  0
  5  6  1  6
  7  8  2  0
  9  7  1  0
 10  9  1  0
 11 12  1  0
 10 11  1  1
 12 17  2  0
 13 12  1  0
 13 14  2  0
 14 15  1  0
 15 16  2  0
 17 16  1  0
 18 10  1  0
 19 18  2  0
 21 20  1  1
 21 22  1  0
 23 21  1  0
 24 25  1  0
 24 23  1  6
 25 18  1  0
 26 24  1  0
 27 26  1  0
 28 26  2  0
M  END
$$$$
