NFL.pdb
     RDKit          3D

 28 28  0  0  1  0  0  0  0  0999 V2000
   24.3204  -22.3718  -14.0168 N   0  0  0  0  0  0  0  0  0  0  0  0
   24.2504  -22.0782  -12.6340 C   0  0  0  0  0  0  0  0  0  0  0  0
   23.1062  -22.0424  -12.1184 O   0  0  0  0  0  0  0  0  0  0  0  0
   25.4330  -21.8198  -11.7965 C   0  0  0  0  0  0  0  0  0  0  0  0
   25.4357  -20.3848  -11.3687 C   0  0  2  0  0  0  0  0  0  0  0  0
   25.5372  -19.4606  -12.4520 N   0  0  0  0  0  0  0  0  0  0  0  0
   26.4395  -20.1175  -10.2951 C   0  0  0  0  0  0  0  0  0  0  0  0
   27.6423  -19.9162  -10.6506 O   0  0  0  0  0  0  0  0  0  0  0  0
   26.0763  -20.0873   -8.9331 N   0  0  0  0  0  0  0  0  0  0  0  0
   27.0467  -19.7702   -7.9024 C   0  0  1  0  0  0  0  0  0  0  0  0
   26.3365  -19.3170   -6.6903 C   0  0  0  0  0  0  0  0  0  0  0  0
   27.1201  -19.0217   -5.5046 C   0  0  0  0  0  0  0  0  0  0  0  0
   27.1559  -19.9421   -4.4831 C   0  0  0  0  0  0  0  0  0  0  0  0
   27.9013  -19.7089   -3.3210 C   0  0  0  0  0  0  0  0  0  0  0  0
   28.6233  -18.5459   -3.1661 C   0  0  0  0  0  0  0  0  0  0  0  0
   28.5861  -17.6266   -4.1885 C   0  0  0  0  0  0  0  0  0  0  0  0
   27.8526  -17.8645   -5.3236 C   0  0  0  0  0  0  0  0  0  0  0  0
   28.0059  -20.8905   -7.7075 C   0  0  0  0  0  0  0  0  0  0  0  0
   27.5430  -22.0519   -7.5873 O   0  0  0  0  0  0  0  0  0  0  0  0
   32.7808  -21.8717  -10.1635 C   0  0  0  0  0  0  0  0  0  0  0  0
   31.5187  -21.9028   -9.3925 C   0  0  1  0  0  0  0  0  0  0  0  0
   30.7638  -23.1600   -9.8655 C   0  0  0  0  0  0  0  0  0  0  0  0
   31.5381  -21.7865   -7.9370 C   0  0  0  0  0  0  0  0  0  0  0  0
   30.2881  -21.7770   -7.1629 C   0  0  2  0  0  0  0  0  0  0  0  0
   29.3986  -20.7090   -7.6491 N   0  0  0  0  0  0  0  0  0  0  0  0
   30.3246  -21.7138   -5.7121 C   0  0  0  0  0  0  0  0  0  0  0  0
   30.2480  -20.4719   -5.0576 O   0  0  0  0  0  0  0  0  0  0  0  0
   30.4220  -22.7201   -4.9879 O   0  0  0  0  0  0  0  0  0  0  0  0
  1  2  1  0
  2  3  2  0
  4  5  1  0
  4  2  1  0
  5  7  1  0
  5  6  1  6
  7  8  2  0
  9  7  1  0
 10  9  1  0
 11 12  1  0
 10 11  1  1
 12 17  2  0
 13 12  1  0
 13 14  2  0
 14 15  1  0
 15 16  2  0
 17 16  1  0
 18 10  1  0
 19 18  2  0
 21 20  1  1
 21 22  1  0
 23 21  1  0
 24 25  1  0
 24 23  1  6
 25 18  1  0
 26 24  1  0
 27 26  1  0
 28 26  2  0
M  END
$$$$
