NFL.pdb
     RDKit          3D

 28 28  0  0  1  0  0  0  0  0999 V2000
   23.4586  -16.7688  -21.0401 N   0  0  0  0  0  0  0  0  0  0  0  0
   24.7222  -17.1699  -20.5443 C   0  0  0  0  0  0  0  0  0  0  0  0
   25.7130  -16.4817  -20.8919 O   0  0  0  0  0  0  0  0  0  0  0  0
   24.9180  -18.3308  -19.6607 C   0  0  0  0  0  0  0  0  0  0  0  0
   25.4127  -17.8631  -18.3270 C   0  0  2  0  0  0  0  0  0  0  0  0
   26.7836  -17.4649  -18.3281 N   0  0  0  0  0  0  0  0  0  0  0  0
   25.1022  -18.8360  -17.2367 C   0  0  0  0  0  0  0  0  0  0  0  0
   24.6831  -19.9863  -17.5757 O   0  0  0  0  0  0  0  0  0  0  0  0
   25.2646  -18.5004  -15.8770 N   0  0  0  0  0  0  0  0  0  0  0  0
   24.9503  -19.4489  -14.8252 C   0  0  1  0  0  0  0  0  0  0  0  0
   25.8058  -19.1754  -13.6537 C   0  0  0  0  0  0  0  0  0  0  0  0
   25.5850  -19.9493  -12.4457 C   0  0  0  0  0  0  0  0  0  0  0  0
   26.2427  -21.1475  -12.2923 C   0  0  0  0  0  0  0  0  0  0  0  0
   26.0698  -21.9293  -11.1436 C   0  0  0  0  0  0  0  0  0  0  0  0
   25.2322  -21.5195  -10.1295 C   0  0  0  0  0  0  0  0  0  0  0  0
   24.5752  -20.3212  -10.2848 C   0  0  0  0  0  0  0  0  0  0  0  0
   24.7514  -19.5622  -11.4144 C   0  0  0  0  0  0  0  0  0  0  0  0
   23.4869  -19.4889  -14.5603 C   0  0  0  0  0  0  0  0  0  0  0  0
   22.8960  -18.4035  -14.3363 O   0  0  0  0  0  0  0  0  0  0  0  0
   18.8528  -19.1603  -15.7633 C   0  0  0  0  0  0  0  0  0  0  0  0
   19.1111  -20.5753  -15.4181 C   0  0  1  0  0  0  0  0  0  0  0  0
   18.2772  -21.4120  -16.4074 C   0  0  0  0  0  0  0  0  0  0  0  0
   20.4799  -21.0688  -15.2959 C   0  0  0  0  0  0  0  0  0  0  0  0
   21.3216  -20.6871  -14.1522 C   0  0  2  0  0  0  0  0  0  0  0  0
   22.7403  -20.6798  -14.5468 N   0  0  0  0  0  0  0  0  0  0  0  0
   21.2044  -21.3925  -12.8879 C   0  0  0  0  0  0  0  0  0  0  0  0
   20.3911  -20.8758  -11.8641 O   0  0  0  0  0  0  0  0  0  0  0  0
   21.7958  -22.4593  -12.6446 O   0  0  0  0  0  0  0  0  0  0  0  0
  1  2  1  0
  2  3  2  0
  4  5  1  0
  4  2  1  0
  5  7  1  0
  5  6  1  6
  7  8  2  0
  9  7  1  0
 10  9  1  0
 11 12  1  0
 10 11  1  1
 12 17  2  0
 13 12  1  0
 13 14  2  0
 14 15  1  0
 15 16  2  0
 17 16  1  0
 18 10  1  0
 19 18  2  0
 21 20  1  6
 21 22  1  0
 23 21  1  0
 24 25  1  0
 24 23  1  6
 25 18  1  0
 26 24  1  0
 27 26  1  0
 28 26  2  0
M  END
$$$$
