NFL.pdb
     RDKit          3D

 28 28  0  0  1  0  0  0  0  0999 V2000
   12.3516  -13.0135  -16.4925 N   0  0  0  0  0  0  0  0  0  0  0  0
   13.4804  -12.1602  -16.5221 C   0  0  0  0  0  0  0  0  0  0  0  0
   13.8888  -11.7981  -17.6527 O   0  0  0  0  0  0  0  0  0  0  0  0
   14.1777  -11.6915  -15.3135 C   0  0  0  0  0  0  0  0  0  0  0  0
   15.6542  -11.8654  -15.4920 C   0  0  2  0  0  0  0  0  0  0  0  0
   16.0696  -13.2294  -15.5618 N   0  0  0  0  0  0  0  0  0  0  0  0
   16.4401  -11.0803  -14.4931 C   0  0  0  0  0  0  0  0  0  0  0  0
   16.5693  -11.5710  -13.3285 O   0  0  0  0  0  0  0  0  0  0  0  0
   17.0219   -9.8384  -14.8200 N   0  0  0  0  0  0  0  0  0  0  0  0
   17.8537   -9.1238  -13.8702 C   0  0  1  0  0  0  0  0  0  0  0  0
   19.0716   -8.6469  -14.5544 C   0  0  0  0  0  0  0  0  0  0  0  0
   19.9677   -7.7657  -13.8280 C   0  0  0  0  0  0  0  0  0  0  0  0
   20.8653   -8.3121  -12.9406 C   0  0  0  0  0  0  0  0  0  0  0  0
   21.7557   -7.5072  -12.2197 C   0  0  0  0  0  0  0  0  0  0  0  0
   21.7586   -6.1387  -12.3787 C   0  0  0  0  0  0  0  0  0  0  0  0
   20.8601   -5.5942  -13.2664 C   0  0  0  0  0  0  0  0  0  0  0  0
   19.9915   -6.3917  -13.9683 C   0  0  0  0  0  0  0  0  0  0  0  0
   17.0704   -8.0852  -13.1483 C   0  0  0  0  0  0  0  0  0  0  0  0
   16.2389   -7.4091  -13.8032 O   0  0  0  0  0  0  0  0  0  0  0  0
   14.1603   -5.9559   -8.8850 C   0  0  0  0  0  0  0  0  0  0  0  0
   15.6161   -6.1845   -8.7560 C   0  0  1  0  0  0  0  0  0  0  0  0
   15.8596   -6.5423   -7.2773 C   0  0  0  0  0  0  0  0  0  0  0  0
   16.3048   -7.0969   -9.6646 C   0  0  0  0  0  0  0  0  0  0  0  0
   16.4120   -6.7961  -11.1000 C   0  0  2  0  0  0  0  0  0  0  0  0
   17.2199   -7.8258  -11.7748 N   0  0  0  0  0  0  0  0  0  0  0  0
   16.8736   -5.4922  -11.5434 C   0  0  0  0  0  0  0  0  0  0  0  0
   18.2504   -5.2332  -11.6605 O   0  0  0  0  0  0  0  0  0  0  0  0
   16.1044   -4.5597  -11.8361 O   0  0  0  0  0  0  0  0  0  0  0  0
  1  2  1  0
  2  3  2  0
  4  5  1  0
  4  2  1  0
  5  7  1  0
  5  6  1  1
  7  8  2  0
  9  7  1  0
 10  9  1  0
 11 12  1  0
 10 11  1  6
 12 17  2  0
 13 12  1  0
 13 14  2  0
 14 15  1  0
 15 16  2  0
 17 16  1  0
 18 10  1  0
 19 18  2  0
 21 20  1  6
 21 22  1  0
 23 21  1  0
 24 25  1  0
 24 23  1  1
 25 18  1  0
 26 24  1  0
 27 26  1  0
 28 26  2  0
M  END
$$$$
