NFL.pdb
     RDKit          3D

 28 28  0  0  1  0  0  0  0  0999 V2000
   27.7676  -17.1705  -16.8033 N   0  0  0  0  0  0  0  0  0  0  0  0
   27.6581  -17.4194  -15.4142 C   0  0  0  0  0  0  0  0  0  0  0  0
   28.2921  -16.6527  -14.6484 O   0  0  0  0  0  0  0  0  0  0  0  0
   26.8526  -18.5118  -14.8447 C   0  0  0  0  0  0  0  0  0  0  0  0
   27.7425  -19.4352  -14.0715 C   0  0  2  0  0  0  0  0  0  0  0  0
   28.8392  -19.9469  -14.8287 N   0  0  0  0  0  0  0  0  0  0  0  0
   26.9734  -20.5140  -13.3811 C   0  0  0  0  0  0  0  0  0  0  0  0
   26.9850  -21.6719  -13.9034 O   0  0  0  0  0  0  0  0  0  0  0  0
   26.2569  -20.2672  -12.1922 N   0  0  0  0  0  0  0  0  0  0  0  0
   25.5625  -21.3345  -11.4969 C   0  0  1  0  0  0  0  0  0  0  0  0
   25.4684  -20.9984  -10.0626 C   0  0  0  0  0  0  0  0  0  0  0  0
   26.6998  -20.8625   -9.3062 C   0  0  0  0  0  0  0  0  0  0  0  0
   27.7999  -21.5952   -9.6866 C   0  0  0  0  0  0  0  0  0  0  0  0
   29.0134  -21.4960   -8.9950 C   0  0  0  0  0  0  0  0  0  0  0  0
   29.1412  -20.6584   -7.9087 C   0  0  0  0  0  0  0  0  0  0  0  0
   28.0399  -19.9267   -7.5298 C   0  0  0  0  0  0  0  0  0  0  0  0
   26.8551  -20.0308   -8.2142 C   0  0  0  0  0  0  0  0  0  0  0  0
   24.2763  -21.6627  -12.1685 C   0  0  0  0  0  0  0  0  0  0  0  0
   23.9514  -22.8721  -12.2665 O   0  0  0  0  0  0  0  0  0  0  0  0
   19.5963  -23.1982  -12.8787 C   0  0  0  0  0  0  0  0  0  0  0  0
   19.9032  -21.9846  -12.0904 C   0  0  1  0  0  0  0  0  0  0  0  0
   19.2056  -22.1753  -10.7298 C   0  0  0  0  0  0  0  0  0  0  0  0
   21.2820  -21.5270  -11.9436 C   0  0  0  0  0  0  0  0  0  0  0  0
   22.0374  -21.0207  -13.0991 C   0  0  2  0  0  0  0  0  0  0  0  0
   23.4143  -20.6867  -12.6979 N   0  0  0  0  0  0  0  0  0  0  0  0
   21.5149  -19.9215  -13.8919 C   0  0  0  0  0  0  0  0  0  0  0  0
   20.4666  -20.1435  -14.8020 O   0  0  0  0  0  0  0  0  0  0  0  0
   21.9487  -18.7584  -13.8149 O   0  0  0  0  0  0  0  0  0  0  0  0
  1  2  1  0
  2  3  2  0
  4  5  1  0
  4  2  1  0
  5  7  1  0
  5  6  1  6
  7  8  2  0
  9  7  1  0
 10  9  1  0
 11 12  1  0
 10 11  1  1
 12 17  2  0
 13 12  1  0
 13 14  2  0
 14 15  1  0
 15 16  2  0
 17 16  1  0
 18 10  1  0
 19 18  2  0
 21 20  1  1
 21 22  1  0
 23 21  1  0
 24 25  1  0
 24 23  1  1
 25 18  1  0
 26 24  1  0
 27 26  1  0
 28 26  2  0
M  END
$$$$
