NFL.pdb
     RDKit          3D

 28 28  0  0  1  0  0  0  0  0999 V2000
   22.7274  -21.0129  -14.7046 N   0  0  0  0  0  0  0  0  0  0  0  0
   23.2242  -20.2272  -13.6372 C   0  0  0  0  0  0  0  0  0  0  0  0
   23.2204  -18.9822  -13.7991 O   0  0  0  0  0  0  0  0  0  0  0  0
   23.7320  -20.7945  -12.3774 C   0  0  0  0  0  0  0  0  0  0  0  0
   25.1909  -20.4843  -12.2445 C   0  0  2  0  0  0  0  0  0  0  0  0
   25.9875  -20.9900  -13.3158 N   0  0  0  0  0  0  0  0  0  0  0  0
   25.7294  -20.8655  -10.9042 C   0  0  0  0  0  0  0  0  0  0  0  0
   25.8210  -22.1040  -10.6369 O   0  0  0  0  0  0  0  0  0  0  0  0
   26.1248  -19.8942   -9.9619 N   0  0  0  0  0  0  0  0  0  0  0  0
   26.6270  -20.2742   -8.6550 C   0  0  1  0  0  0  0  0  0  0  0  0
   27.7269  -19.3660   -8.2749 C   0  0  0  0  0  0  0  0  0  0  0  0
   28.2825  -19.4808   -6.9389 C   0  0  0  0  0  0  0  0  0  0  0  0
   28.9314  -20.6406   -6.5843 C   0  0  0  0  0  0  0  0  0  0  0  0
   29.4907  -20.7999   -5.3106 C   0  0  0  0  0  0  0  0  0  0  0  0
   29.4068  -19.7955   -4.3714 C   0  0  0  0  0  0  0  0  0  0  0  0
   28.7573  -18.6366   -4.7277 C   0  0  0  0  0  0  0  0  0  0  0  0
   28.2126  -18.4901   -5.9787 C   0  0  0  0  0  0  0  0  0  0  0  0
   25.5189  -20.3935   -7.6697 C   0  0  0  0  0  0  0  0  0  0  0  0
   24.7068  -19.4401   -7.5739 O   0  0  0  0  0  0  0  0  0  0  0  0
   21.5846  -24.3433   -5.3470 C   0  0  0  0  0  0  0  0  0  0  0  0
   22.2534  -23.0242   -5.3150 C   0  0  1  0  0  0  0  0  0  0  0  0
   22.1523  -22.5330   -3.8580 C   0  0  0  0  0  0  0  0  0  0  0  0
   23.5991  -22.8638   -5.8587 C   0  0  0  0  0  0  0  0  0  0  0  0
   24.2755  -21.5586   -5.8292 C   0  0  2  0  0  0  0  0  0  0  0  0
   25.3419  -21.5170   -6.8437 N   0  0  0  0  0  0  0  0  0  0  0  0
   24.8118  -21.0387   -4.5833 C   0  0  0  0  0  0  0  0  0  0  0  0
   24.0795  -20.0987   -3.8373 O   0  0  0  0  0  0  0  0  0  0  0  0
   25.9128  -21.3831   -4.1184 O   0  0  0  0  0  0  0  0  0  0  0  0
  1  2  1  0
  2  3  2  0
  4  5  1  0
  4  2  1  0
  5  7  1  0
  5  6  1  6
  7  8  2  0
  9  7  1  0
 10  9  1  0
 11 12  1  0
 10 11  1  1
 12 17  2  0
 13 12  1  0
 13 14  2  0
 14 15  1  0
 15 16  2  0
 17 16  1  0
 18 10  1  0
 19 18  2  0
 21 20  1  1
 21 22  1  0
 23 21  1  0
 24 25  1  0
 24 23  1  1
 25 18  1  0
 26 24  1  0
 27 26  1  0
 28 26  2  0
M  END
$$$$
