NFL.pdb
     RDKit          3D

 28 28  0  0  1  0  0  0  0  0999 V2000
   30.0857  -19.8671  -16.8632 N   0  0  0  0  0  0  0  0  0  0  0  0
   29.1791  -18.8072  -16.6224 C   0  0  0  0  0  0  0  0  0  0  0  0
   28.9710  -18.0115  -17.5709 O   0  0  0  0  0  0  0  0  0  0  0  0
   28.4876  -18.6042  -15.3388 C   0  0  0  0  0  0  0  0  0  0  0  0
   27.5163  -19.7216  -15.1148 C   0  0  2  0  0  0  0  0  0  0  0  0
   26.6670  -19.9799  -16.2327 N   0  0  0  0  0  0  0  0  0  0  0  0
   26.7505  -19.5575  -13.8426 C   0  0  0  0  0  0  0  0  0  0  0  0
   26.4425  -18.3770  -13.4889 O   0  0  0  0  0  0  0  0  0  0  0  0
   26.3778  -20.6658  -13.0549 N   0  0  0  0  0  0  0  0  0  0  0  0
   25.4500  -20.5248  -11.9486 C   0  0  1  0  0  0  0  0  0  0  0  0
   24.1990  -21.2393  -12.2704 C   0  0  0  0  0  0  0  0  0  0  0  0
   23.3181  -20.6662  -13.2715 C   0  0  0  0  0  0  0  0  0  0  0  0
   22.3424  -19.7823  -12.8733 C   0  0  0  0  0  0  0  0  0  0  0  0
   21.4710  -19.1963  -13.7996 C   0  0  0  0  0  0  0  0  0  0  0  0
   21.5658  -19.4895  -15.1424 C   0  0  0  0  0  0  0  0  0  0  0  0
   22.5419  -20.3737  -15.5386 C   0  0  0  0  0  0  0  0  0  0  0  0
   23.3912  -20.9426  -14.6230 C   0  0  0  0  0  0  0  0  0  0  0  0
   26.0930  -20.8976  -10.6599 C   0  0  0  0  0  0  0  0  0  0  0  0
   26.6801  -22.0058  -10.5901 O   0  0  0  0  0  0  0  0  0  0  0  0
   28.6030  -18.1524   -6.3825 C   0  0  0  0  0  0  0  0  0  0  0  0
   28.1083  -19.2320   -7.2646 C   0  0  1  0  0  0  0  0  0  0  0  0
   29.0501  -20.4302   -7.0371 C   0  0  0  0  0  0  0  0  0  0  0  0
   26.7018  -19.6234   -7.2372 C   0  0  0  0  0  0  0  0  0  0  0  0
   26.1810  -20.6365   -8.1670 C   0  0  2  0  0  0  0  0  0  0  0  0
   26.0711  -20.0720   -9.5225 N   0  0  0  0  0  0  0  0  0  0  0  0
   24.9476  -21.3424   -7.8664 C   0  0  0  0  0  0  0  0  0  0  0  0
   23.8210  -21.1775   -8.6910 O   0  0  0  0  0  0  0  0  0  0  0  0
   24.8196  -22.1087   -6.8951 O   0  0  0  0  0  0  0  0  0  0  0  0
  1  2  1  0
  2  3  2  0
  4  5  1  0
  4  2  1  0
  5  7  1  0
  5  6  1  6
  7  8  2  0
  9  7  1  0
 10  9  1  0
 11 12  1  0
 10 11  1  6
 12 17  2  0
 13 12  1  0
 13 14  2  0
 14 15  1  0
 15 16  2  0
 17 16  1  0
 18 10  1  0
 19 18  2  0
 21 20  1  1
 21 22  1  0
 23 21  1  0
 24 25  1  0
 24 23  1  1
 25 18  1  0
 26 24  1  0
 27 26  1  0
 28 26  2  0
M  END
$$$$
