REY.pdb
     RDKit          3D

 33 33  0  0  1  0  0  0  0  0999 V2000
    9.2635  -13.6044   17.3138 N   0  0  0  0  0  0  0  0  0  0  0  0
    8.2872  -13.0118   18.1919 C   0  0  0  0  0  0  0  0  0  0  0  0
    8.3162  -11.7557   18.4197 N   0  0  0  0  0  0  0  0  0  0  0  0
    7.2962  -13.7985   18.8133 N   0  0  0  0  0  0  0  0  0  0  0  0
    7.1290  -15.2403   18.5651 C   0  0  0  0  0  0  0  0  0  0  0  0
    8.1614  -16.0627   19.2381 C   0  0  0  0  0  0  0  0  0  0  0  0
    7.7331  -16.9325   20.3620 C   0  0  0  0  0  0  0  0  0  0  0  0
    8.4050  -18.2502   20.4719 C   0  0  2  0  0  0  0  0  0  0  0  0
    7.4197  -19.3105   20.3589 N   0  0  0  0  0  0  0  0  0  0  0  0
    9.1586  -18.3920   21.7558 C   0  0  0  0  0  0  0  0  0  0  0  0
    8.5837  -18.8154   22.8045 O   0  0  0  0  0  0  0  0  0  0  0  0
    7.6641  -11.2210   19.0059 N   0  0  0  0  0  0  0  0  0  0  0  0
   10.5263  -18.0779   21.9024 C   0  0  2  0  0  0  0  0  0  0  0  0
   11.2151  -17.9617   23.1641 C   0  0  0  0  0  0  0  0  0  0  0  0
   12.7029  -17.8910   23.0350 C   0  0  0  0  0  0  0  0  0  0  0  0
   13.3257  -17.9235   24.4129 C   0  0  0  0  0  0  0  0  0  0  0  0
   13.9278  -19.2654   24.6830 O   0  0  0  0  0  0  0  0  0  0  0  0
   14.0334  -20.1293   23.8055 C   0  0  0  0  0  0  0  0  0  0  0  0
   10.7493  -16.8045   23.9599 O   0  0  0  0  0  0  0  0  0  0  0  0
   10.8853  -15.6111   23.5816 O   0  0  0  0  0  0  0  0  0  0  0  0
   14.3701  -19.5095   25.9719 O   0  0  0  0  0  0  0  0  0  0  0  0
    6.3949  -10.7827   27.7804 C   0  0  0  0  0  0  0  0  0  0  0  0
    6.8366  -12.0466   27.4056 C   0  0  0  0  0  0  0  0  0  0  0  0
    7.9615  -12.6079   27.9589 C   0  0  0  0  0  0  0  0  0  0  0  0
    8.3806  -13.8574   27.5758 C   0  0  0  0  0  0  0  0  0  0  0  0
    7.7042  -14.6227   26.6182 C   0  0  0  0  0  0  0  0  0  0  0  0
    8.1977  -15.9523   26.2150 C   0  0  2  0  0  0  0  0  0  0  0  0
    9.6975  -15.9617   26.0916 N   0  0  0  0  0  0  0  0  0  0  0  0
   10.1195  -17.0517   25.2074 C   0  0  0  0  0  0  0  0  0  0  0  0
   10.3062  -16.1792   27.4065 O   0  0  0  0  0  0  0  0  0  0  0  0
   10.2657  -17.4266   27.9947 C   0  0  0  0  0  0  0  0  0  0  0  0
    6.5734  -14.0269   26.0792 C   0  0  0  0  0  0  0  0  0  0  0  0
    6.1503  -12.7726   26.4624 O   0  0  0  0  0  0  0  0  0  0  0  0
  2  3  2  0
  2  1  1  0
  4  2  1  0
  5  4  1  0
  6  5  1  0
  7  6  1  0
  8  7  1  0
  8 10  1  0
  8  9  1  1
 10 12  1  0
 10 11  2  0
 12 13  1  0
 13 14  1  6
 14 15  1  0
 16 20  1  0
 16 15  1  0
 17 16  2  0
 18 28  1  0
 18 13  1  0
 19 18  2  0
 22 21  1  0
 23 22  2  0
 24 23  1  0
 25 31  1  0
 25 24  2  0
 27 26  1  6
 26 25  1  0
 27 29  1  0
 27 28  1  0
 29 30  1  0
 31 32  2  0
 32 22  1  0
 33 29  2  0
M  END
$$$$
