REY.pdb
     RDKit          3D

 33 33  0  0  1  0  0  0  0  0999 V2000
    9.1644  -11.6757   20.0172 N   0  0  0  0  0  0  0  0  0  0  0  0
    7.9878  -12.3375   19.5141 C   0  0  0  0  0  0  0  0  0  0  0  0
    6.8423  -11.7905   19.6526 N   0  0  0  0  0  0  0  0  0  0  0  0
    8.0767  -13.5890   18.8713 N   0  0  0  0  0  0  0  0  0  0  0  0
    8.3871  -14.8442   19.5758 C   0  0  0  0  0  0  0  0  0  0  0  0
    7.2565  -15.3372   20.3967 C   0  0  0  0  0  0  0  0  0  0  0  0
    7.5738  -16.0573   21.6552 C   0  0  0  0  0  0  0  0  0  0  0  0
    8.5933  -17.1307   21.5641 C   0  0  2  0  0  0  0  0  0  0  0  0
    7.9891  -18.3314   21.0152 N   0  0  0  0  0  0  0  0  0  0  0  0
    9.2106  -17.4344   22.8919 C   0  0  0  0  0  0  0  0  0  0  0  0
    8.5123  -17.9010   23.8428 O   0  0  0  0  0  0  0  0  0  0  0  0
    5.9519  -12.1183   19.2596 N   0  0  0  0  0  0  0  0  0  0  0  0
   10.5757  -17.2346   23.1875 C   0  0  2  0  0  0  0  0  0  0  0  0
   11.2249  -17.6496   24.4065 C   0  0  0  0  0  0  0  0  0  0  0  0
   12.6713  -17.9871   24.2351 C   0  0  0  0  0  0  0  0  0  0  0  0
   12.8167  -19.0190   23.1390 C   0  0  0  0  0  0  0  0  0  0  0  0
   14.2607  -19.3189   22.8914 O   0  0  0  0  0  0  0  0  0  0  0  0
   14.6284  -20.1197   22.0249 C   0  0  0  0  0  0  0  0  0  0  0  0
   11.0930  -16.6486   25.4882 O   0  0  0  0  0  0  0  0  0  0  0  0
   11.5842  -15.4913   25.4171 O   0  0  0  0  0  0  0  0  0  0  0  0
   15.1858  -18.6567   23.6802 O   0  0  0  0  0  0  0  0  0  0  0  0
    6.1803  -12.5864   24.2863 C   0  0  0  0  0  0  0  0  0  0  0  0
    6.8061  -13.3995   25.2246 C   0  0  0  0  0  0  0  0  0  0  0  0
    7.8237  -12.9290   26.0182 C   0  0  0  0  0  0  0  0  0  0  0  0
    8.4281  -13.7478   26.9391 C   0  0  0  0  0  0  0  0  0  0  0  0
    8.0551  -15.0844   27.1246 C   0  0  0  0  0  0  0  0  0  0  0  0
    8.7435  -15.9404   28.1082 C   0  0  2  0  0  0  0  0  0  0  0  0
   10.2053  -16.0801   27.7794 N   0  0  0  0  0  0  0  0  0  0  0  0
   10.3794  -17.0104   26.6603 C   0  0  0  0  0  0  0  0  0  0  0  0
   10.9290  -16.6162   28.9352 O   0  0  0  0  0  0  0  0  0  0  0  0
   11.5543  -17.8436   28.8568 C   0  0  0  0  0  0  0  0  0  0  0  0
    7.0256  -15.5277   26.3075 C   0  0  0  0  0  0  0  0  0  0  0  0
    6.4168  -14.7077   25.3822 O   0  0  0  0  0  0  0  0  0  0  0  0
  2  3  2  0
  2  1  1  0
  4  2  1  0
  5  4  1  0
  6  5  1  0
  7  6  1  0
  8  7  1  0
  8 10  1  0
  8  9  1  1
 10 12  1  0
 10 11  2  0
 12 13  1  0
 13 14  1  6
 14 15  1  0
 16 20  1  0
 16 15  1  0
 17 16  2  0
 18 28  1  0
 18 13  1  0
 19 18  2  0
 22 21  1  0
 23 22  2  0
 24 23  1  0
 25 31  1  0
 25 24  2  0
 27 26  1  6
 26 25  1  0
 27 29  1  0
 27 28  1  0
 29 30  1  0
 31 32  2  0
 32 22  1  0
 33 29  2  0
M  END
$$$$
