REY.pdb
     RDKit          3D

 33 33  0  0  1  0  0  0  0  0999 V2000
    7.4695  -11.4738   20.1752 N   0  0  0  0  0  0  0  0  0  0  0  0
    7.6860  -12.8037   19.6651 C   0  0  0  0  0  0  0  0  0  0  0  0
    7.2768  -13.1104   18.4951 N   0  0  0  0  0  0  0  0  0  0  0  0
    8.3413  -13.7817   20.4405 N   0  0  0  0  0  0  0  0  0  0  0  0
    7.8527  -15.1628   20.5891 C   0  0  0  0  0  0  0  0  0  0  0  0
    6.6561  -15.2587   21.4574 C   0  0  0  0  0  0  0  0  0  0  0  0
    6.6597  -16.2791   22.5353 C   0  0  0  0  0  0  0  0  0  0  0  0
    7.5058  -17.4763   22.3099 C   0  0  2  0  0  0  0  0  0  0  0  0
    6.6699  -18.6627   22.2674 N   0  0  0  0  0  0  0  0  0  0  0  0
    8.5539  -17.6312   23.3653 C   0  0  0  0  0  0  0  0  0  0  0  0
    8.2617  -18.0939   24.5099 O   0  0  0  0  0  0  0  0  0  0  0  0
    7.3341  -14.0315   18.0446 N   0  0  0  0  0  0  0  0  0  0  0  0
    9.9100  -17.2878   23.1817 C   0  0  2  0  0  0  0  0  0  0  0  0
   10.9258  -17.3646   24.2025 C   0  0  0  0  0  0  0  0  0  0  0  0
   12.3061  -17.0815   23.7028 C   0  0  0  0  0  0  0  0  0  0  0  0
   13.2940  -17.2664   24.8330 C   0  0  0  0  0  0  0  0  0  0  0  0
   14.6928  -17.0700   24.3422 O   0  0  0  0  0  0  0  0  0  0  0  0
   15.0679  -17.4806   23.2385 C   0  0  0  0  0  0  0  0  0  0  0  0
   10.6426  -16.4771   25.3521 O   0  0  0  0  0  0  0  0  0  0  0  0
   10.6806  -15.2207   25.2757 O   0  0  0  0  0  0  0  0  0  0  0  0
   15.5669  -16.4008   25.1818 O   0  0  0  0  0  0  0  0  0  0  0  0
    7.2694  -11.4559   24.9432 C   0  0  0  0  0  0  0  0  0  0  0  0
    7.6501  -12.5383   25.7284 C   0  0  0  0  0  0  0  0  0  0  0  0
    8.6703  -12.4390   26.6427 C   0  0  0  0  0  0  0  0  0  0  0  0
    9.0305  -13.5193   27.4089 C   0  0  0  0  0  0  0  0  0  0  0  0
    8.3960  -14.7634   27.3101 C   0  0  0  0  0  0  0  0  0  0  0  0
    8.8261  -15.9081   28.1339 C   0  0  2  0  0  0  0  0  0  0  0  0
   10.2515  -16.2877   27.8364 N   0  0  0  0  0  0  0  0  0  0  0  0
   10.3126  -17.0699   26.5985 C   0  0  0  0  0  0  0  0  0  0  0  0
   10.7871  -17.1114   28.9234 O   0  0  0  0  0  0  0  0  0  0  0  0
   11.2516  -18.3852   28.6677 C   0  0  0  0  0  0  0  0  0  0  0  0
    7.3712  -14.8298   26.3776 C   0  0  0  0  0  0  0  0  0  0  0  0
    7.0074  -13.7466   25.6072 O   0  0  0  0  0  0  0  0  0  0  0  0
  2  3  2  0
  2  1  1  0
  4  2  1  0
  5  4  1  0
  6  5  1  0
  7  6  1  0
  8  7  1  0
  8 10  1  0
  8  9  1  1
 10 12  1  0
 10 11  2  0
 12 13  1  0
 13 14  1  6
 14 15  1  0
 16 20  1  0
 16 15  1  0
 17 16  2  0
 18 28  1  0
 18 13  1  0
 19 18  2  0
 22 21  1  0
 23 22  2  0
 24 23  1  0
 25 31  1  0
 25 24  2  0
 27 26  1  6
 26 25  1  0
 27 29  1  0
 27 28  1  0
 29 30  1  0
 31 32  2  0
 32 22  1  0
 33 29  2  0
M  END
$$$$
