REY.pdb
     RDKit          3D

 33 33  0  0  1  0  0  0  0  0999 V2000
    5.5924  -18.0692   17.2064 N   0  0  0  0  0  0  0  0  0  0  0  0
    6.0019  -17.7522   15.8621 C   0  0  0  0  0  0  0  0  0  0  0  0
    5.3532  -18.2286   14.8707 N   0  0  0  0  0  0  0  0  0  0  0  0
    7.1162  -16.9241   15.6179 N   0  0  0  0  0  0  0  0  0  0  0  0
    7.9507  -16.3486   16.6860 C   0  0  0  0  0  0  0  0  0  0  0  0
    8.9833  -17.2899   17.1787 C   0  0  0  0  0  0  0  0  0  0  0  0
    9.9650  -16.7868   18.1718 C   0  0  0  0  0  0  0  0  0  0  0  0
   10.9462  -17.7714   18.6892 C   0  0  2  0  0  0  0  0  0  0  0  0
   10.5788  -19.1044   18.2463 N   0  0  0  0  0  0  0  0  0  0  0  0
   11.0409  -17.7404   20.1814 C   0  0  0  0  0  0  0  0  0  0  0  0
   10.1391  -18.2669   20.9018 O   0  0  0  0  0  0  0  0  0  0  0  0
    5.5782  -18.1138   13.8752 N   0  0  0  0  0  0  0  0  0  0  0  0
   12.1060  -17.1434   20.8884 C   0  0  1  0  0  0  0  0  0  0  0  0
   12.2046  -17.0723   22.3254 C   0  0  0  0  0  0  0  0  0  0  0  0
   13.5829  -16.7730   22.8215 C   0  0  0  0  0  0  0  0  0  0  0  0
   13.5948  -16.8381   24.3325 C   0  0  0  0  0  0  0  0  0  0  0  0
   14.9861  -16.6645   24.8524 O   0  0  0  0  0  0  0  0  0  0  0  0
   15.4766  -17.4286   25.6910 C   0  0  0  0  0  0  0  0  0  0  0  0
   11.2632  -16.0922   22.9106 O   0  0  0  0  0  0  0  0  0  0  0  0
   11.3321  -14.8549   22.6865 O   0  0  0  0  0  0  0  0  0  0  0  0
   15.7171  -15.6003   24.3528 O   0  0  0  0  0  0  0  0  0  0  0  0
    7.7993  -13.5673   18.5410 C   0  0  0  0  0  0  0  0  0  0  0  0
    7.8353  -14.1156   19.8181 C   0  0  0  0  0  0  0  0  0  0  0  0
    7.6053  -15.4526   20.0327 C   0  0  0  0  0  0  0  0  0  0  0  0
    7.6462  -15.9746   21.3014 C   0  0  0  0  0  0  0  0  0  0  0  0
    7.9185  -15.1958   22.4326 C   0  0  0  0  0  0  0  0  0  0  0  0
    7.9311  -15.7878   23.7829 C   0  0  2  0  0  0  0  0  0  0  0  0
    9.2887  -15.6619   24.4196 N   0  0  0  0  0  0  0  0  0  0  0  0
   10.2346  -16.5694   23.7639 C   0  0  0  0  0  0  0  0  0  0  0  0
    9.2126  -16.0281   25.8364 O   0  0  0  0  0  0  0  0  0  0  0  0
    8.4561  -15.2749   26.7104 C   0  0  0  0  0  0  0  0  0  0  0  0
    8.1454  -13.8507   22.1811 C   0  0  0  0  0  0  0  0  0  0  0  0
    8.1052  -13.3241   20.9082 O   0  0  0  0  0  0  0  0  0  0  0  0
  2  3  2  0
  2  1  1  0
  4  2  1  0
  5  4  1  0
  6  5  1  0
  7  6  1  0
  8  7  1  0
  8 10  1  0
  8  9  1  1
 10 12  1  0
 10 11  2  0
 12 13  1  0
 13 14  1  1
 14 15  1  0
 16 20  1  0
 16 15  1  0
 17 16  2  0
 18 28  1  0
 18 13  1  0
 19 18  2  0
 22 21  1  0
 23 22  2  0
 24 23  1  0
 25 31  1  0
 25 24  2  0
 27 26  1  6
 26 25  1  0
 27 29  1  0
 27 28  1  0
 29 30  1  0
 31 32  2  0
 32 22  1  0
 33 29  2  0
M  END
$$$$
