REY.pdb
     RDKit          3D

 33 33  0  0  1  0  0  0  0  0999 V2000
    8.8196  -13.1939   15.4742 N   0  0  0  0  0  0  0  0  0  0  0  0
    7.8892  -13.6634   14.4795 C   0  0  0  0  0  0  0  0  0  0  0  0
    7.9289  -13.1859   13.2959 N   0  0  0  0  0  0  0  0  0  0  0  0
    6.9253  -14.6436   14.7913 N   0  0  0  0  0  0  0  0  0  0  0  0
    6.6789  -15.1357   16.1571 C   0  0  0  0  0  0  0  0  0  0  0  0
    7.7325  -16.0623   16.6329 C   0  0  0  0  0  0  0  0  0  0  0  0
    7.5501  -16.6987   17.9613 C   0  0  0  0  0  0  0  0  0  0  0  0
    8.0824  -15.9557   19.1294 C   0  0  2  0  0  0  0  0  0  0  0  0
    9.2337  -15.1696   18.7235 N   0  0  0  0  0  0  0  0  0  0  0  0
    8.4612  -16.8685   20.2518 C   0  0  0  0  0  0  0  0  0  0  0  0
    8.2098  -18.1107   20.1935 O   0  0  0  0  0  0  0  0  0  0  0  0
    7.2866  -13.4000   12.5237 N   0  0  0  0  0  0  0  0  0  0  0  0
    9.1086  -16.4386   21.4293 C   0  0  1  0  0  0  0  0  0  0  0  0
   10.1956  -17.1337   22.0736 C   0  0  0  0  0  0  0  0  0  0  0  0
   11.3646  -17.3884   21.1770 C   0  0  0  0  0  0  0  0  0  0  0  0
   12.4703  -18.0455   21.9728 C   0  0  0  0  0  0  0  0  0  0  0  0
   13.6825  -18.2426   21.1195 O   0  0  0  0  0  0  0  0  0  0  0  0
   14.5096  -17.3437   20.9317 C   0  0  0  0  0  0  0  0  0  0  0  0
   10.6700  -16.4396   23.2912 O   0  0  0  0  0  0  0  0  0  0  0  0
   11.5313  -15.5213   23.2671 O   0  0  0  0  0  0  0  0  0  0  0  0
   13.8480  -19.4881   20.5383 O   0  0  0  0  0  0  0  0  0  0  0  0
    5.9361  -11.1865   27.9529 C   0  0  0  0  0  0  0  0  0  0  0  0
    6.5028  -12.1813   27.1640 C   0  0  0  0  0  0  0  0  0  0  0  0
    6.0292  -13.4705   27.1835 C   0  0  0  0  0  0  0  0  0  0  0  0
    6.6021  -14.4380   26.3964 C   0  0  0  0  0  0  0  0  0  0  0  0
    7.6814  -14.1793   25.5429 C   0  0  0  0  0  0  0  0  0  0  0  0
    8.2857  -15.2500   24.7291 C   0  0  2  0  0  0  0  0  0  0  0  0
    9.4645  -15.8678   25.4314 N   0  0  0  0  0  0  0  0  0  0  0  0
   10.1284  -16.8272   24.5444 C   0  0  0  0  0  0  0  0  0  0  0  0
    9.0144  -16.5869   26.6261 O   0  0  0  0  0  0  0  0  0  0  0  0
    9.0813  -15.9866   27.8665 C   0  0  0  0  0  0  0  0  0  0  0  0
    8.1352  -12.8685   25.5476 C   0  0  0  0  0  0  0  0  0  0  0  0
    7.5616  -11.8951   26.3367 O   0  0  0  0  0  0  0  0  0  0  0  0
  2  3  2  0
  2  1  1  0
  4  2  1  0
  5  4  1  0
  6  5  1  0
  7  6  1  0
  8  7  1  0
  8 10  1  0
  8  9  1  6
 10 12  1  0
 10 11  2  0
 12 13  1  0
 13 14  1  6
 14 15  1  0
 16 20  1  0
 16 15  1  0
 17 16  2  0
 18 28  1  0
 18 13  1  0
 19 18  2  0
 22 21  1  0
 23 22  2  0
 24 23  1  0
 25 31  1  0
 25 24  2  0
 27 26  1  6
 26 25  1  0
 27 29  1  0
 27 28  1  0
 29 30  1  0
 31 32  2  0
 32 22  1  0
 33 29  2  0
M  END
$$$$
