REY.pdb
     RDKit          3D

 33 33  0  0  1  0  0  0  0  0999 V2000
    7.0424  -12.6849   16.5093 N   0  0  0  0  0  0  0  0  0  0  0  0
    7.8668  -13.8271   16.8112 C   0  0  0  0  0  0  0  0  0  0  0  0
    8.2656  -14.5905   15.8684 N   0  0  0  0  0  0  0  0  0  0  0  0
    8.2405  -14.1234   18.1377 N   0  0  0  0  0  0  0  0  0  0  0  0
    7.6735  -13.4418   19.3134 C   0  0  0  0  0  0  0  0  0  0  0  0
    8.2161  -13.9557   20.5927 C   0  0  0  0  0  0  0  0  0  0  0  0
    7.7162  -15.2642   21.0839 C   0  0  0  0  0  0  0  0  0  0  0  0
    8.7101  -16.3616   21.1708 C   0  0  2  0  0  0  0  0  0  0  0  0
    8.3840  -17.3924   20.2017 N   0  0  0  0  0  0  0  0  0  0  0  0
    8.7737  -16.9556   22.5418 C   0  0  0  0  0  0  0  0  0  0  0  0
    7.8881  -17.7727   22.9389 O   0  0  0  0  0  0  0  0  0  0  0  0
    8.8442  -15.4338   15.9621 N   0  0  0  0  0  0  0  0  0  0  0  0
    9.7905  -16.6668   23.4764 C   0  0  1  0  0  0  0  0  0  0  0  0
    9.9152  -17.2805   24.7755 C   0  0  0  0  0  0  0  0  0  0  0  0
   10.7452  -18.5240   24.7782 C   0  0  0  0  0  0  0  0  0  0  0  0
   11.9111  -18.3482   23.8311 C   0  0  0  0  0  0  0  0  0  0  0  0
   12.7451  -19.5888   23.7924 O   0  0  0  0  0  0  0  0  0  0  0  0
   12.7221  -20.3691   22.8342 C   0  0  0  0  0  0  0  0  0  0  0  0
   10.4478  -16.3486   25.7940 O   0  0  0  0  0  0  0  0  0  0  0  0
   11.3991  -15.5549   25.5685 O   0  0  0  0  0  0  0  0  0  0  0  0
   13.5573  -19.8363   24.8859 O   0  0  0  0  0  0  0  0  0  0  0  0
    6.7995  -11.6458   24.4370 C   0  0  0  0  0  0  0  0  0  0  0  0
    7.3802  -12.3705   25.4718 C   0  0  0  0  0  0  0  0  0  0  0  0
    8.7283  -12.3048   25.7266 C   0  0  0  0  0  0  0  0  0  0  0  0
    9.2821  -13.0277   26.7535 C   0  0  0  0  0  0  0  0  0  0  0  0
    8.5261  -13.8596   27.5881 C   0  0  0  0  0  0  0  0  0  0  0  0
    9.1600  -14.6391   28.6671 C   0  0  2  0  0  0  0  0  0  0  0  0
   10.3166  -15.4488   28.1464 N   0  0  0  0  0  0  0  0  0  0  0  0
    9.8585  -16.3497   27.0849 C   0  0  0  0  0  0  0  0  0  0  0  0
   10.8819  -16.2644   29.2245 O   0  0  0  0  0  0  0  0  0  0  0  0
   11.5123  -15.6635   30.2946 C   0  0  0  0  0  0  0  0  0  0  0  0
    7.1692  -13.9036   27.3035 C   0  0  0  0  0  0  0  0  0  0  0  0
    6.6106  -13.1785   26.2732 O   0  0  0  0  0  0  0  0  0  0  0  0
  2  3  2  0
  2  1  1  0
  4  2  1  0
  5  4  1  0
  6  5  1  0
  7  6  1  0
  8  7  1  0
  8 10  1  0
  8  9  1  6
 10 12  1  0
 10 11  2  0
 12 13  1  0
 13 14  1  6
 14 15  1  0
 16 20  1  0
 16 15  1  0
 17 16  2  0
 18 28  1  0
 18 13  1  0
 19 18  2  0
 22 21  1  0
 23 22  2  0
 24 23  1  0
 25 31  1  0
 25 24  2  0
 27 26  1  6
 26 25  1  0
 27 29  1  0
 27 28  1  0
 29 30  1  0
 31 32  2  0
 32 22  1  0
 33 29  2  0
M  END
$$$$
