REY.pdb
     RDKit          3D

 33 33  0  0  1  0  0  0  0  0999 V2000
    8.3060  -13.3478   17.6933 N   0  0  0  0  0  0  0  0  0  0  0  0
    8.2405  -12.8641   19.0487 C   0  0  0  0  0  0  0  0  0  0  0  0
    8.7326  -11.7227   19.3411 N   0  0  0  0  0  0  0  0  0  0  0  0
    7.6437  -13.6346   20.0672 N   0  0  0  0  0  0  0  0  0  0  0  0
    7.2393  -15.0397   19.8923 C   0  0  0  0  0  0  0  0  0  0  0  0
    6.7023  -15.6421   21.1348 C   0  0  0  0  0  0  0  0  0  0  0  0
    6.2920  -17.0679   21.0947 C   0  0  0  0  0  0  0  0  0  0  0  0
    7.2133  -18.0022   20.4032 C   0  0  2  0  0  0  0  0  0  0  0  0
    6.6205  -19.3268   20.3579 N   0  0  0  0  0  0  0  0  0  0  0  0
    8.5515  -18.0672   21.0675 C   0  0  0  0  0  0  0  0  0  0  0  0
    8.6950  -18.6465   22.1870 O   0  0  0  0  0  0  0  0  0  0  0  0
    8.7507  -11.2789   20.2671 N   0  0  0  0  0  0  0  0  0  0  0  0
    9.7269  -17.5089   20.5221 C   0  0  2  0  0  0  0  0  0  0  0  0
   11.0207  -17.5263   21.1591 C   0  0  0  0  0  0  0  0  0  0  0  0
   12.1415  -17.1136   20.2598 C   0  0  0  0  0  0  0  0  0  0  0  0
   13.4601  -17.3797   20.9511 C   0  0  0  0  0  0  0  0  0  0  0  0
   14.6018  -16.9905   20.0673 O   0  0  0  0  0  0  0  0  0  0  0  0
   14.7837  -17.5071   18.9594 C   0  0  0  0  0  0  0  0  0  0  0  0
   11.0608  -16.6968   22.3837 O   0  0  0  0  0  0  0  0  0  0  0  0
   11.0450  -15.4379   22.3617 O   0  0  0  0  0  0  0  0  0  0  0  0
   15.4617  -16.0148   20.5420 O   0  0  0  0  0  0  0  0  0  0  0  0
   10.4554  -14.1446   30.7332 C   0  0  0  0  0  0  0  0  0  0  0  0
   10.3277  -14.7750   29.5006 C   0  0  0  0  0  0  0  0  0  0  0  0
   10.5870  -16.1153   29.3489 C   0  0  0  0  0  0  0  0  0  0  0  0
   10.4543  -16.7191   28.1235 C   0  0  0  0  0  0  0  0  0  0  0  0
   10.0554  -16.0238   26.9756 C   0  0  0  0  0  0  0  0  0  0  0  0
    9.9462  -16.7018   25.6709 C   0  0  1  0  0  0  0  0  0  0  0  0
   11.2339  -16.6057   24.8982 N   0  0  0  0  0  0  0  0  0  0  0  0
   11.1197  -17.3513   23.6416 C   0  0  0  0  0  0  0  0  0  0  0  0
   12.3294  -17.1893   25.6770 O   0  0  0  0  0  0  0  0  0  0  0  0
   12.4896  -18.5584   25.7356 C   0  0  0  0  0  0  0  0  0  0  0  0
    9.8020  -14.6730   27.1632 C   0  0  0  0  0  0  0  0  0  0  0  0
    9.9343  -14.0644   28.3926 O   0  0  0  0  0  0  0  0  0  0  0  0
  2  3  2  0
  2  1  1  0
  4  2  1  0
  5  4  1  0
  6  5  1  0
  7  6  1  0
  8  7  1  0
  8 10  1  0
  8  9  1  1
 10 12  1  0
 10 11  2  0
 12 13  1  0
 13 14  1  6
 14 15  1  0
 16 20  1  0
 16 15  1  0
 17 16  2  0
 18 28  1  0
 18 13  1  0
 19 18  2  0
 22 21  1  0
 23 22  2  0
 24 23  1  0
 25 31  1  0
 25 24  2  0
 27 26  1  6
 26 25  1  0
 27 29  1  0
 27 28  1  0
 29 30  1  0
 31 32  2  0
 32 22  1  0
 33 29  2  0
M  END
$$$$
