REY.pdb
     RDKit          3D

 33 33  0  0  1  0  0  0  0  0999 V2000
    7.9614  -12.6470   17.2008 N   0  0  0  0  0  0  0  0  0  0  0  0
    8.3433  -13.0201   18.5388 C   0  0  0  0  0  0  0  0  0  0  0  0
    8.7626  -12.1294   19.3521 N   0  0  0  0  0  0  0  0  0  0  0  0
    8.2673  -14.3602   18.9694 N   0  0  0  0  0  0  0  0  0  0  0  0
    7.1704  -14.8863   19.7992 C   0  0  0  0  0  0  0  0  0  0  0  0
    7.2689  -14.4649   21.2162 C   0  0  0  0  0  0  0  0  0  0  0  0
    7.1577  -15.5124   22.2619 C   0  0  0  0  0  0  0  0  0  0  0  0
    7.9412  -16.7525   22.0418 C   0  0  2  0  0  0  0  0  0  0  0  0
    7.0403  -17.8520   21.7460 N   0  0  0  0  0  0  0  0  0  0  0  0
    8.7923  -17.0970   23.2222 C   0  0  0  0  0  0  0  0  0  0  0  0
    8.3146  -17.7465   24.2017 O   0  0  0  0  0  0  0  0  0  0  0  0
    9.1161  -12.2824   20.3042 N   0  0  0  0  0  0  0  0  0  0  0  0
   10.1525  -16.7409   23.3403 C   0  0  2  0  0  0  0  0  0  0  0  0
   11.0028  -17.0895   24.4517 C   0  0  0  0  0  0  0  0  0  0  0  0
   12.4512  -17.1902   24.0949 C   0  0  0  0  0  0  0  0  0  0  0  0
   12.6292  -18.2410   23.0219 C   0  0  0  0  0  0  0  0  0  0  0  0
   14.0630  -18.3257   22.6057 O   0  0  0  0  0  0  0  0  0  0  0  0
   14.4178  -18.1832   21.4304 C   0  0  0  0  0  0  0  0  0  0  0  0
   10.8554  -16.1584   25.5921 O   0  0  0  0  0  0  0  0  0  0  0  0
   11.0069  -14.9128   25.4862 O   0  0  0  0  0  0  0  0  0  0  0  0
   14.9940  -18.5732   23.6000 O   0  0  0  0  0  0  0  0  0  0  0  0
    6.3689  -12.3047   24.5284 C   0  0  0  0  0  0  0  0  0  0  0  0
    6.9801  -13.1290   25.4665 C   0  0  0  0  0  0  0  0  0  0  0  0
    7.9277  -12.6478   26.3367 C   0  0  0  0  0  0  0  0  0  0  0  0
    8.5189  -13.4780   27.2559 C   0  0  0  0  0  0  0  0  0  0  0  0
    8.2016  -14.8374   27.3634 C   0  0  0  0  0  0  0  0  0  0  0  0
    8.8748  -15.7036   28.3485 C   0  0  2  0  0  0  0  0  0  0  0  0
   10.3414  -15.8404   28.0406 N   0  0  0  0  0  0  0  0  0  0  0  0
   10.5278  -16.6948   26.8645 C   0  0  0  0  0  0  0  0  0  0  0  0
   11.0339  -16.4636   29.1716 O   0  0  0  0  0  0  0  0  0  0  0  0
   11.6616  -17.6825   29.0175 C   0  0  0  0  0  0  0  0  0  0  0  0
    7.2420  -15.2909   26.4703 C   0  0  0  0  0  0  0  0  0  0  0  0
    6.6467  -14.4594   25.5465 O   0  0  0  0  0  0  0  0  0  0  0  0
  2  3  2  0
  2  1  1  0
  4  2  1  0
  5  4  1  0
  6  5  1  0
  7  6  1  0
  8  7  1  0
  8 10  1  0
  8  9  1  1
 10 12  1  0
 10 11  2  0
 12 13  1  0
 13 14  1  6
 14 15  1  0
 16 20  1  0
 16 15  1  0
 17 16  2  0
 18 28  1  0
 18 13  1  0
 19 18  2  0
 22 21  1  0
 23 22  2  0
 24 23  1  0
 25 31  1  0
 25 24  2  0
 27 26  1  6
 26 25  1  0
 27 29  1  0
 27 28  1  0
 29 30  1  0
 31 32  2  0
 32 22  1  0
 33 29  2  0
M  END
$$$$
