REY.pdb
     RDKit          3D

 33 33  0  0  1  0  0  0  0  0999 V2000
    6.2313  -13.6436   15.3538 N   0  0  0  0  0  0  0  0  0  0  0  0
    7.6155  -13.9926   15.5477 C   0  0  0  0  0  0  0  0  0  0  0  0
    8.0878  -15.0467   15.0033 N   0  0  0  0  0  0  0  0  0  0  0  0
    8.4639  -13.1896   16.3368 N   0  0  0  0  0  0  0  0  0  0  0  0
    8.1529  -12.7943   17.7208 C   0  0  0  0  0  0  0  0  0  0  0  0
    7.0016  -13.5364   18.2854 C   0  0  0  0  0  0  0  0  0  0  0  0
    7.2660  -14.4960   19.3866 C   0  0  0  0  0  0  0  0  0  0  0  0
    8.6896  -14.7417   19.7222 C   0  0  2  0  0  0  0  0  0  0  0  0
    9.3293  -15.4614   18.6355 N   0  0  0  0  0  0  0  0  0  0  0  0
    8.8428  -15.5072   20.9977 C   0  0  0  0  0  0  0  0  0  0  0  0
    8.2475  -15.1364   22.0549 O   0  0  0  0  0  0  0  0  0  0  0  0
    9.0604  -15.3747   15.0379 N   0  0  0  0  0  0  0  0  0  0  0  0
    9.6354  -16.6674   21.1269 C   0  0  2  0  0  0  0  0  0  0  0  0
    9.7588  -17.4520   22.3307 C   0  0  0  0  0  0  0  0  0  0  0  0
    9.2009  -18.8338   22.2101 C   0  0  0  0  0  0  0  0  0  0  0  0
   10.3269  -19.8042   21.9311 C   0  0  0  0  0  0  0  0  0  0  0  0
   10.2658  -20.2833   20.5159 O   0  0  0  0  0  0  0  0  0  0  0  0
    9.4804  -19.8037   19.6909 C   0  0  0  0  0  0  0  0  0  0  0  0
   11.1563  -17.5411   22.8086 O   0  0  0  0  0  0  0  0  0  0  0  0
   11.8273  -18.6062   22.7749 O   0  0  0  0  0  0  0  0  0  0  0  0
   11.1347  -21.2995   20.1567 O   0  0  0  0  0  0  0  0  0  0  0  0
   10.1509  -14.6440   30.8015 C   0  0  0  0  0  0  0  0  0  0  0  0
   10.2057  -14.9362   29.4433 C   0  0  0  0  0  0  0  0  0  0  0  0
   10.1367  -13.9474   28.4924 C   0  0  0  0  0  0  0  0  0  0  0  0
   10.1932  -14.2568   27.1564 C   0  0  0  0  0  0  0  0  0  0  0  0
   10.3218  -15.5697   26.6876 C   0  0  0  0  0  0  0  0  0  0  0  0
   10.3560  -15.8655   25.2435 C   0  0  1  0  0  0  0  0  0  0  0  0
   11.7674  -16.0688   24.7629 N   0  0  0  0  0  0  0  0  0  0  0  0
   11.7685  -16.3714   23.3288 C   0  0  0  0  0  0  0  0  0  0  0  0
   12.3782  -17.1987   25.4680 O   0  0  0  0  0  0  0  0  0  0  0  0
   11.7618  -18.4331   25.4705 C   0  0  0  0  0  0  0  0  0  0  0  0
   10.3881  -16.5435   27.6732 C   0  0  0  0  0  0  0  0  0  0  0  0
   10.3318  -16.2356   29.0153 O   0  0  0  0  0  0  0  0  0  0  0  0
  2  3  2  0
  2  1  1  0
  4  2  1  0
  5  4  1  0
  6  5  1  0
  7  6  1  0
  8  7  1  0
  8 10  1  0
  8  9  1  6
 10 12  1  0
 10 11  2  0
 12 13  1  0
 13 14  1  1
 14 15  1  0
 16 20  1  0
 16 15  1  0
 17 16  2  0
 18 28  1  0
 18 13  1  0
 19 18  2  0
 22 21  1  0
 23 22  2  0
 24 23  1  0
 25 31  1  0
 25 24  2  0
 27 26  1  6
 26 25  1  0
 27 29  1  0
 27 28  1  0
 29 30  1  0
 31 32  2  0
 32 22  1  0
 33 29  2  0
M  END
$$$$
