HVH.pdb
     RDKit          3D

 28 29  0  0  1  0  0  0  0  0999 V2000
   11.1646  -17.0457   17.7706 N   0  0  0  0  0  0  0  0  0  0  0  0
   10.5291  -17.5824   18.9336 C   0  0  1  0  0  0  0  0  0  0  0  0
   11.4486  -18.6528   19.5020 C   0  0  0  0  0  0  0  0  0  0  0  0
   11.4599  -19.8582   18.6170 C   0  0  0  0  0  0  0  0  0  0  0  0
   10.4820  -20.8268   18.5549 C   0  0  0  0  0  0  0  0  0  0  0  0
   10.8410  -21.7633   17.6370 N   0  0  0  0  0  0  0  0  0  0  0  0
   12.0306  -21.3741   17.1381 C   0  0  0  0  0  0  0  0  0  0  0  0
   12.4072  -20.2185   17.7317 N   0  0  0  0  0  0  0  0  0  0  0  0
   10.4033  -16.5461   20.0216 C   0  0  0  0  0  0  0  0  0  0  0  0
   11.4055  -15.9353   20.4560 O   0  0  0  0  0  0  0  0  0  0  0  0
    7.4113  -13.8348   20.3522 C   0  0  0  0  0  0  0  0  0  0  0  0
    7.5755  -14.6192   21.6206 C   0  0  1  0  0  0  0  0  0  0  0  0
    6.4889  -15.6011   21.8438 C   0  0  0  0  0  0  0  0  0  0  0  0
    8.9683  -15.2476   21.6386 C   0  0  2  0  0  0  0  0  0  0  0  0
    9.1498  -16.2150   20.6022 N   0  0  0  0  0  0  0  0  0  0  0  0
    9.2809  -15.7912   22.9925 C   0  0  0  0  0  0  0  0  0  0  0  0
    9.2540  -17.0279   23.2268 O   0  0  0  0  0  0  0  0  0  0  0  0
    9.6244  -14.9527   24.0876 N   0  0  0  0  0  0  0  0  0  0  0  0
    9.9451  -15.5322   25.4234 C   0  0  1  0  0  0  0  0  0  0  0  0
   10.0943  -14.3535   26.3050 C   0  0  0  0  0  0  0  0  0  0  0  0
   10.3053  -14.5840   27.7280 C   0  0  0  0  0  0  0  0  0  0  0  0
   10.3874  -15.6865   28.5152 C   0  0  0  0  0  0  0  0  0  0  0  0
   10.6415  -15.2784   29.7878 N   0  0  0  0  0  0  0  0  0  0  0  0
   10.7163  -13.9436   29.7867 C   0  0  0  0  0  0  0  0  0  0  0  0
   10.5169  -13.5180   28.5598 N   0  0  0  0  0  0  0  0  0  0  0  0
    8.6755  -16.2378   25.8178 C   0  0  0  0  0  0  0  0  0  0  0  0
    7.5966  -15.7650   25.3483 O   0  0  0  0  0  0  0  0  0  0  0  0
    8.6156  -17.3410   26.6394 O   0  0  0  0  0  0  0  0  0  0  0  0
  2  1  1  6
  2  9  1  0
  3  2  1  0
  3  4  1  0
  4  5  2  0
  5  6  1  0
  7  6  1  0
  8  4  1  0
  8  7  2  0
  9 10  2  0
 12 11  1  6
 12 14  1  0
 13 12  1  0
 14 16  1  0
 14 15  1  6
 15  9  1  0
 16 18  1  0
 16 17  2  0
 18 19  1  0
 19 26  1  0
 19 20  1  1
 21 20  1  0
 21 25  1  0
 22 21  2  0
 23 22  1  0
 23 24  1  0
 24 25  2  0
 26 27  2  0
 26 28  1  0
M  END
$$$$
