HVH.pdb
     RDKit          3D

 28 29  0  0  1  0  0  0  0  0999 V2000
   10.2571  -14.2889   21.0021 N   0  0  0  0  0  0  0  0  0  0  0  0
    9.0718  -14.0066   21.7502 C   0  0  1  0  0  0  0  0  0  0  0  0
    7.9504  -14.8494   21.1618 C   0  0  0  0  0  0  0  0  0  0  0  0
    7.4963  -14.2799   19.8557 C   0  0  0  0  0  0  0  0  0  0  0  0
    7.9790  -13.1354   19.2595 C   0  0  0  0  0  0  0  0  0  0  0  0
    7.3256  -12.9366   18.0839 N   0  0  0  0  0  0  0  0  0  0  0  0
    6.4476  -13.9509   17.9577 C   0  0  0  0  0  0  0  0  0  0  0  0
    6.5501  -14.7665   19.0318 N   0  0  0  0  0  0  0  0  0  0  0  0
    9.2019  -14.4599   23.1824 C   0  0  0  0  0  0  0  0  0  0  0  0
   10.0677  -15.2971   23.5226 O   0  0  0  0  0  0  0  0  0  0  0  0
    7.9920  -11.9277   26.3080 C   0  0  0  0  0  0  0  0  0  0  0  0
    7.6195  -13.3707   26.4821 C   0  0  1  0  0  0  0  0  0  0  0  0
    6.1779  -13.6314   26.2617 C   0  0  0  0  0  0  0  0  0  0  0  0
    8.5281  -14.2274   25.6015 C   0  0  2  0  0  0  0  0  0  0  0  0
    8.3541  -13.9621   24.2077 N   0  0  0  0  0  0  0  0  0  0  0  0
    8.3701  -15.6731   25.9348 C   0  0  0  0  0  0  0  0  0  0  0  0
    7.3117  -16.2986   25.6634 O   0  0  0  0  0  0  0  0  0  0  0  0
    9.3957  -16.4227   26.5725 N   0  0  0  0  0  0  0  0  0  0  0  0
    9.2042  -17.8676   26.8865 C   0  0  1  0  0  0  0  0  0  0  0  0
   10.3586  -18.5352   26.2457 C   0  0  0  0  0  0  0  0  0  0  0  0
   10.3711  -18.6380   24.7925 C   0  0  0  0  0  0  0  0  0  0  0  0
    9.4333  -18.8912   23.8447 C   0  0  0  0  0  0  0  0  0  0  0  0
   10.0339  -18.8173   22.6264 N   0  0  0  0  0  0  0  0  0  0  0  0
   11.3235  -18.5218   22.8185 C   0  0  0  0  0  0  0  0  0  0  0  0
   11.5359  -18.4121   24.1104 N   0  0  0  0  0  0  0  0  0  0  0  0
    9.4078  -17.9367   28.3761 C   0  0  0  0  0  0  0  0  0  0  0  0
    9.7308  -16.8548   28.9535 O   0  0  0  0  0  0  0  0  0  0  0  0
    9.2680  -19.0780   29.1335 O   0  0  0  0  0  0  0  0  0  0  0  0
  2  1  1  6
  2  9  1  0
  3  2  1  0
  3  4  1  0
  4  5  2  0
  5  6  1  0
  7  6  1  0
  8  4  1  0
  8  7  2  0
  9 10  2  0
 12 11  1  6
 12 14  1  0
 13 12  1  0
 14 16  1  0
 14 15  1  6
 15  9  1  0
 16 18  1  0
 16 17  2  0
 18 19  1  0
 19 26  1  0
 19 20  1  6
 21 20  1  0
 21 25  1  0
 22 21  2  0
 23 22  1  0
 23 24  1  0
 24 25  2  0
 26 27  2  0
 26 28  1  0
M  END
$$$$
