HVH.pdb
     RDKit          3D

 28 29  0  0  1  0  0  0  0  0999 V2000
    9.5470  -13.0818   20.9566 N   0  0  0  0  0  0  0  0  0  0  0  0
    8.3546  -13.5328   21.6041 C   0  0  1  0  0  0  0  0  0  0  0  0
    7.9653  -14.8591   20.9688 C   0  0  0  0  0  0  0  0  0  0  0  0
    7.6116  -14.6669   19.5285 C   0  0  0  0  0  0  0  0  0  0  0  0
    7.7929  -13.5136   18.7968 C   0  0  0  0  0  0  0  0  0  0  0  0
    7.3529  -13.7188   17.5269 N   0  0  0  0  0  0  0  0  0  0  0  0
    6.9043  -14.9884   17.4775 C   0  0  0  0  0  0  0  0  0  0  0  0
    7.0607  -15.5647   18.6911 N   0  0  0  0  0  0  0  0  0  0  0  0
    8.6004  -13.8442   23.0587 C   0  0  0  0  0  0  0  0  0  0  0  0
    9.6860  -14.3335   23.4439 O   0  0  0  0  0  0  0  0  0  0  0  0
    7.0540  -13.3123   27.7542 C   0  0  0  0  0  0  0  0  0  0  0  0
    6.7232  -13.1341   26.3015 C   0  0  1  0  0  0  0  0  0  0  0  0
    6.4405  -11.7265   25.9364 C   0  0  0  0  0  0  0  0  0  0  0  0
    7.8318  -13.7640   25.4593 C   0  0  2  0  0  0  0  0  0  0  0  0
    7.6185  -13.5992   24.0556 N   0  0  0  0  0  0  0  0  0  0  0  0
    8.0373  -15.1905   25.8451 C   0  0  0  0  0  0  0  0  0  0  0  0
    7.1046  -16.0328   25.7706 O   0  0  0  0  0  0  0  0  0  0  0  0
    9.2869  -15.6784   26.3153 N   0  0  0  0  0  0  0  0  0  0  0  0
    9.4262  -17.0809   26.8017 C   0  0  1  0  0  0  0  0  0  0  0  0
   10.6598  -17.5715   26.1487 C   0  0  0  0  0  0  0  0  0  0  0  0
   10.5960  -17.9174   24.7349 C   0  0  0  0  0  0  0  0  0  0  0  0
    9.6108  -17.9453   23.8018 C   0  0  0  0  0  0  0  0  0  0  0  0
   10.1631  -18.3188   22.6161 N   0  0  0  0  0  0  0  0  0  0  0  0
   11.4703  -18.5178   22.8134 C   0  0  0  0  0  0  0  0  0  0  0  0
   11.7400  -18.2803   24.0771 N   0  0  0  0  0  0  0  0  0  0  0  0
    9.7211  -16.9197   28.2688 C   0  0  0  0  0  0  0  0  0  0  0  0
    9.7853  -17.9853   28.9531 O   0  0  0  0  0  0  0  0  0  0  0  0
    9.9207  -15.7120   28.8993 O   0  0  0  0  0  0  0  0  0  0  0  0
  2  1  1  6
  2  9  1  0
  3  2  1  0
  3  4  1  0
  4  5  2  0
  5  6  1  0
  7  6  1  0
  8  4  1  0
  8  7  2  0
  9 10  2  0
 12 11  1  1
 12 14  1  0
 13 12  1  0
 14 16  1  0
 14 15  1  6
 15  9  1  0
 16 18  1  0
 16 17  2  0
 18 19  1  0
 19 26  1  0
 19 20  1  6
 21 20  1  0
 21 25  1  0
 22 21  2  0
 23 22  1  0
 23 24  1  0
 24 25  2  0
 26 27  2  0
 26 28  1  0
M  END
$$$$
