HVH.pdb
     RDKit          3D

 28 29  0  0  1  0  0  0  0  0999 V2000
    8.2787  -14.2181   20.4492 N   0  0  0  0  0  0  0  0  0  0  0  0
    7.6517  -14.8139   21.5877 C   0  0  1  0  0  0  0  0  0  0  0  0
    7.8229  -16.3206   21.4655 C   0  0  0  0  0  0  0  0  0  0  0  0
    6.8989  -16.8706   20.4261 C   0  0  0  0  0  0  0  0  0  0  0  0
    6.0981  -16.1328   19.5819 C   0  0  0  0  0  0  0  0  0  0  0  0
    5.4010  -16.9787   18.7777 N   0  0  0  0  0  0  0  0  0  0  0  0
    5.7699  -18.2275   19.1242 C   0  0  0  0  0  0  0  0  0  0  0  0
    6.6786  -18.1633   20.1242 N   0  0  0  0  0  0  0  0  0  0  0  0
    8.3551  -14.4352   22.8665 C   0  0  0  0  0  0  0  0  0  0  0  0
    9.5927  -14.2516   22.8974 O   0  0  0  0  0  0  0  0  0  0  0  0
    7.3443  -11.7109   25.5636 C   0  0  0  0  0  0  0  0  0  0  0  0
    7.4282  -13.0571   26.2210 C   0  0  1  0  0  0  0  0  0  0  0  0
    6.1024  -13.6223   26.5637 C   0  0  0  0  0  0  0  0  0  0  0  0
    8.2707  -13.9847   25.3464 C   0  0  2  0  0  0  0  0  0  0  0  0
    7.6521  -14.2694   24.0897 N   0  0  0  0  0  0  0  0  0  0  0  0
    8.6410  -15.2199   26.0969 C   0  0  0  0  0  0  0  0  0  0  0  0
    7.8138  -16.1512   26.2795 O   0  0  0  0  0  0  0  0  0  0  0  0
    9.9377  -15.4163   26.6451 N   0  0  0  0  0  0  0  0  0  0  0  0
   10.2492  -16.6271   27.4576 C   0  0  1  0  0  0  0  0  0  0  0  0
   11.4615  -16.2526   28.2184 C   0  0  0  0  0  0  0  0  0  0  0  0
   11.9372  -17.1702   29.2452 C   0  0  0  0  0  0  0  0  0  0  0  0
   11.5110  -18.3634   29.7317 C   0  0  0  0  0  0  0  0  0  0  0  0
   12.3986  -18.7750   30.6768 N   0  0  0  0  0  0  0  0  0  0  0  0
   13.3594  -17.8503   30.7722 C   0  0  0  0  0  0  0  0  0  0  0  0
   13.0934  -16.8862   29.9203 N   0  0  0  0  0  0  0  0  0  0  0  0
    9.1053  -16.7036   28.4326 C   0  0  0  0  0  0  0  0  0  0  0  0
    8.5782  -15.6018   28.7736 O   0  0  0  0  0  0  0  0  0  0  0  0
    8.6074  -17.8715   28.9655 O   0  0  0  0  0  0  0  0  0  0  0  0
  2  1  1  6
  2  9  1  0
  3  2  1  0
  3  4  1  0
  4  5  2  0
  5  6  1  0
  7  6  1  0
  8  4  1  0
  8  7  2  0
  9 10  2  0
 12 11  1  6
 12 14  1  0
 13 12  1  0
 14 16  1  0
 14 15  1  6
 15  9  1  0
 16 18  1  0
 16 17  2  0
 18 19  1  0
 19 26  1  0
 19 20  1  1
 21 20  1  0
 21 25  1  0
 22 21  2  0
 23 22  1  0
 23 24  1  0
 24 25  2  0
 26 27  2  0
 26 28  1  0
M  END
$$$$
