HVH.pdb
     RDKit          3D

 28 29  0  0  1  0  0  0  0  0999 V2000
   10.1430  -16.3419   15.8005 N   0  0  0  0  0  0  0  0  0  0  0  0
    9.1263  -16.4130   16.8034 C   0  0  1  0  0  0  0  0  0  0  0  0
    8.8794  -17.8848   17.0982 C   0  0  0  0  0  0  0  0  0  0  0  0
    7.9066  -18.4598   16.1185 C   0  0  0  0  0  0  0  0  0  0  0  0
    7.6110  -17.9467   14.8744 C   0  0  0  0  0  0  0  0  0  0  0  0
    6.6828  -18.7393   14.2755 N   0  0  0  0  0  0  0  0  0  0  0  0
    6.4094  -19.7324   15.1442 C   0  0  0  0  0  0  0  0  0  0  0  0
    7.1512  -19.5640   16.2627 N   0  0  0  0  0  0  0  0  0  0  0  0
    9.5948  -15.8183   18.1074 C   0  0  0  0  0  0  0  0  0  0  0  0
   10.7789  -15.9466   18.4917 O   0  0  0  0  0  0  0  0  0  0  0  0
    7.9937  -12.4012   19.8048 C   0  0  0  0  0  0  0  0  0  0  0  0
    8.0776  -13.5490   20.7675 C   0  0  1  0  0  0  0  0  0  0  0  0
    6.7575  -14.1425   21.0835 C   0  0  0  0  0  0  0  0  0  0  0  0
    9.0851  -14.5683   20.2377 C   0  0  2  0  0  0  0  0  0  0  0  0
    8.7209  -15.0887   18.9571 N   0  0  0  0  0  0  0  0  0  0  0  0
    9.3252  -15.6414   21.2462 C   0  0  0  0  0  0  0  0  0  0  0  0
    8.6397  -16.6973   21.2587 O   0  0  0  0  0  0  0  0  0  0  0  0
   10.3327  -15.5358   22.2432 N   0  0  0  0  0  0  0  0  0  0  0  0
   10.5182  -16.6106   23.2599 C   0  0  1  0  0  0  0  0  0  0  0  0
   11.9824  -16.8161   23.3090 C   0  0  0  0  0  0  0  0  0  0  0  0
   12.5821  -17.7129   22.3300 C   0  0  0  0  0  0  0  0  0  0  0  0
   12.1068  -18.6740   21.4979 C   0  0  0  0  0  0  0  0  0  0  0  0
   13.1504  -19.1566   20.7709 N   0  0  0  0  0  0  0  0  0  0  0  0
   14.2540  -18.5028   21.1475 C   0  0  0  0  0  0  0  0  0  0  0  0
   13.9255  -17.6368   22.0794 N   0  0  0  0  0  0  0  0  0  0  0  0
   10.1073  -15.9530   24.5498 C   0  0  0  0  0  0  0  0  0  0  0  0
    9.8890  -14.7047   24.5038 O   0  0  0  0  0  0  0  0  0  0  0  0
    9.9574  -16.6099   25.7506 O   0  0  0  0  0  0  0  0  0  0  0  0
  2  1  1  6
  2  9  1  0
  3  2  1  0
  3  4  1  0
  4  5  2  0
  5  6  1  0
  7  6  1  0
  8  4  1  0
  8  7  2  0
  9 10  2  0
 12 11  1  6
 12 14  1  0
 13 12  1  0
 14 16  1  0
 14 15  1  6
 15  9  1  0
 16 18  1  0
 16 17  2  0
 18 19  1  0
 19 26  1  0
 19 20  1  1
 21 20  1  0
 21 25  1  0
 22 21  2  0
 23 22  1  0
 23 24  1  0
 24 25  2  0
 26 27  2  0
 26 28  1  0
M  END
$$$$
