HVH.pdb
     RDKit          3D

 28 29  0  0  1  0  0  0  0  0999 V2000
    9.5876  -16.5940   15.8179 N   0  0  0  0  0  0  0  0  0  0  0  0
    8.6607  -16.7124   16.9002 C   0  0  1  0  0  0  0  0  0  0  0  0
    8.4798  -18.1958   17.1846 C   0  0  0  0  0  0  0  0  0  0  0  0
    7.7108  -18.8512   16.0821 C   0  0  0  0  0  0  0  0  0  0  0  0
    7.0735  -18.2063   15.0446 C   0  0  0  0  0  0  0  0  0  0  0  0
    6.4830  -19.1311   14.2418 N   0  0  0  0  0  0  0  0  0  0  0  0
    6.7548  -20.3357   14.7810 C   0  0  0  0  0  0  0  0  0  0  0  0
    7.4996  -20.1673   15.8975 N   0  0  0  0  0  0  0  0  0  0  0  0
    9.2201  -16.1278   18.1725 C   0  0  0  0  0  0  0  0  0  0  0  0
   10.3970  -16.3576   18.5305 O   0  0  0  0  0  0  0  0  0  0  0  0
    7.7584  -12.5979   19.8850 C   0  0  0  0  0  0  0  0  0  0  0  0
    7.9281  -13.7318   20.8529 C   0  0  1  0  0  0  0  0  0  0  0  0
    6.6425  -14.3334   21.2774 C   0  0  0  0  0  0  0  0  0  0  0  0
    8.9024  -14.7487   20.2600 C   0  0  2  0  0  0  0  0  0  0  0  0
    8.4438  -15.2935   19.0206 N   0  0  0  0  0  0  0  0  0  0  0  0
    9.2348  -15.8027   21.2623 C   0  0  0  0  0  0  0  0  0  0  0  0
    8.5408  -16.8472   21.3729 O   0  0  0  0  0  0  0  0  0  0  0  0
   10.3446  -15.6908   22.1434 N   0  0  0  0  0  0  0  0  0  0  0  0
   10.6113  -16.7350   23.1738 C   0  0  1  0  0  0  0  0  0  0  0  0
   12.0113  -17.1430   22.9244 C   0  0  0  0  0  0  0  0  0  0  0  0
   12.2642  -18.1181   21.8719 C   0  0  0  0  0  0  0  0  0  0  0  0
   11.4934  -18.9862   21.1688 C   0  0  0  0  0  0  0  0  0  0  0  0
   12.2898  -19.6246   20.2695 N   0  0  0  0  0  0  0  0  0  0  0  0
   13.5339  -19.1573   20.4141 C   0  0  0  0  0  0  0  0  0  0  0  0
   13.5299  -18.2556   21.3697 N   0  0  0  0  0  0  0  0  0  0  0  0
   10.5841  -15.9697   24.4694 C   0  0  0  0  0  0  0  0  0  0  0  0
   10.8230  -16.6331   25.5233 O   0  0  0  0  0  0  0  0  0  0  0  0
   10.3212  -14.6224   24.5776 O   0  0  0  0  0  0  0  0  0  0  0  0
  2  1  1  6
  2  9  1  0
  3  2  1  0
  3  4  1  0
  4  5  2  0
  5  6  1  0
  7  6  1  0
  8  4  1  0
  8  7  2  0
  9 10  2  0
 12 11  1  6
 12 14  1  0
 13 12  1  0
 14 16  1  0
 14 15  1  6
 15  9  1  0
 16 18  1  0
 16 17  2  0
 18 19  1  0
 19 26  1  0
 19 20  1  6
 21 20  1  0
 21 25  1  0
 22 21  2  0
 23 22  1  0
 23 24  1  0
 24 25  2  0
 26 27  2  0
 26 28  1  0
M  END
$$$$
