HVH.pdb
     RDKit          3D

 28 29  0  0  1  0  0  0  0  0999 V2000
    8.3941  -16.5696   15.8432 N   0  0  0  0  0  0  0  0  0  0  0  0
    9.7828  -16.4842   16.1728 C   0  0  1  0  0  0  0  0  0  0  0  0
   10.4692  -15.7120   15.0562 C   0  0  0  0  0  0  0  0  0  0  0  0
   10.4421  -16.4961   13.7829 C   0  0  0  0  0  0  0  0  0  0  0  0
   11.0815  -17.6954   13.5565 C   0  0  0  0  0  0  0  0  0  0  0  0
   10.8259  -18.1026   12.2847 N   0  0  0  0  0  0  0  0  0  0  0  0
   10.0355  -17.1611   11.7329 C   0  0  0  0  0  0  0  0  0  0  0  0
    9.8019  -16.1860   12.6407 N   0  0  0  0  0  0  0  0  0  0  0  0
   10.0050  -15.6651   17.4190 C   0  0  0  0  0  0  0  0  0  0  0  0
   11.1553  -15.4699   17.8716 O   0  0  0  0  0  0  0  0  0  0  0  0
    6.6357  -14.3869   19.8685 C   0  0  0  0  0  0  0  0  0  0  0  0
    7.8602  -13.5317   19.7253 C   0  0  1  0  0  0  0  0  0  0  0  0
    8.0930  -12.6470   20.8906 C   0  0  0  0  0  0  0  0  0  0  0  0
    9.0553  -14.4267   19.4001 C   0  0  2  0  0  0  0  0  0  0  0  0
    8.9268  -15.0792   18.1348 N   0  0  0  0  0  0  0  0  0  0  0  0
    9.3129  -15.3834   20.5157 C   0  0  0  0  0  0  0  0  0  0  0  0
    8.7046  -16.4829   20.5929 O   0  0  0  0  0  0  0  0  0  0  0  0
   10.2519  -15.1123   21.5479 N   0  0  0  0  0  0  0  0  0  0  0  0
   10.4651  -16.0807   22.6614 C   0  0  1  0  0  0  0  0  0  0  0  0
   11.9286  -16.0697   22.8778 C   0  0  0  0  0  0  0  0  0  0  0  0
   12.7471  -16.9692   22.0755 C   0  0  0  0  0  0  0  0  0  0  0  0
   12.4866  -17.9385   21.1620 C   0  0  0  0  0  0  0  0  0  0  0  0
   13.6748  -18.4193   20.7066 N   0  0  0  0  0  0  0  0  0  0  0  0
   14.6549  -17.7563   21.3287 C   0  0  0  0  0  0  0  0  0  0  0  0
   14.1112  -16.8864   22.1496 N   0  0  0  0  0  0  0  0  0  0  0  0
    9.8249  -15.4065   23.8449 C   0  0  0  0  0  0  0  0  0  0  0  0
    9.5224  -14.1831   23.7036 O   0  0  0  0  0  0  0  0  0  0  0  0
    9.5539  -16.0236   25.0456 O   0  0  0  0  0  0  0  0  0  0  0  0
  2  1  1  6
  2  9  1  0
  3  2  1  0
  3  4  1  0
  4  5  2  0
  5  6  1  0
  7  6  1  0
  8  4  1  0
  8  7  2  0
  9 10  2  0
 12 11  1  1
 12 14  1  0
 13 12  1  0
 14 16  1  0
 14 15  1  6
 15  9  1  0
 16 18  1  0
 16 17  2  0
 18 19  1  0
 19 26  1  0
 19 20  1  1
 21 20  1  0
 21 25  1  0
 22 21  2  0
 23 22  1  0
 23 24  1  0
 24 25  2  0
 26 27  2  0
 26 28  1  0
M  END
$$$$
