HVH.pdb
     RDKit          3D

 28 29  0  0  1  0  0  0  0  0999 V2000
   10.0585  -14.5774   21.0636 N   0  0  0  0  0  0  0  0  0  0  0  0
    8.8735  -14.1182   21.7190 C   0  0  1  0  0  0  0  0  0  0  0  0
    7.6945  -14.8460   21.0909 C   0  0  0  0  0  0  0  0  0  0  0  0
    7.4815  -14.3834   19.6848 C   0  0  0  0  0  0  0  0  0  0  0  0
    8.3149  -13.5500   18.9712 C   0  0  0  0  0  0  0  0  0  0  0  0
    7.7930  -13.3544   17.7311 N   0  0  0  0  0  0  0  0  0  0  0  0
    6.6472  -14.0619   17.6820 C   0  0  0  0  0  0  0  0  0  0  0  0
    6.4571  -14.6866   18.8666 N   0  0  0  0  0  0  0  0  0  0  0  0
    8.8582  -14.5152   23.1735 C   0  0  0  0  0  0  0  0  0  0  0  0
    9.4572  -15.5384   23.5740 O   0  0  0  0  0  0  0  0  0  0  0  0
    5.9947  -13.0374   26.0333 C   0  0  0  0  0  0  0  0  0  0  0  0
    7.4542  -12.9635   26.3736 C   0  0  1  0  0  0  0  0  0  0  0  0
    7.7190  -13.0537   27.8284 C   0  0  0  0  0  0  0  0  0  0  0  0
    8.2076  -14.0133   25.5579 C   0  0  2  0  0  0  0  0  0  0  0  0
    8.1679  -13.7523   24.1531 N   0  0  0  0  0  0  0  0  0  0  0  0
    7.7311  -15.3850   25.9006 C   0  0  0  0  0  0  0  0  0  0  0  0
    6.5115  -15.6917   25.8402 O   0  0  0  0  0  0  0  0  0  0  0  0
    8.6177  -16.4171   26.3117 N   0  0  0  0  0  0  0  0  0  0  0  0
    8.0944  -17.7154   26.8252 C   0  0  1  0  0  0  0  0  0  0  0  0
    8.5829  -18.7155   25.8506 C   0  0  0  0  0  0  0  0  0  0  0  0
    7.9935  -18.7192   24.5182 C   0  0  0  0  0  0  0  0  0  0  0  0
    7.0206  -18.0010   23.9021 C   0  0  0  0  0  0  0  0  0  0  0  0
    6.9294  -18.4314   22.6149 N   0  0  0  0  0  0  0  0  0  0  0  0
    7.8331  -19.4005   22.4380 C   0  0  0  0  0  0  0  0  0  0  0  0
    8.4753  -19.5805   23.5700 N   0  0  0  0  0  0  0  0  0  0  0  0
    8.8539  -17.9213   28.1081 C   0  0  0  0  0  0  0  0  0  0  0  0
    9.7608  -17.0747   28.3705 O   0  0  0  0  0  0  0  0  0  0  0  0
    8.6289  -18.9505   28.9947 O   0  0  0  0  0  0  0  0  0  0  0  0
  2  1  1  6
  2  9  1  0
  3  2  1  0
  3  4  1  0
  4  5  2  0
  5  6  1  0
  7  6  1  0
  8  4  1  0
  8  7  2  0
  9 10  2  0
 12 11  1  1
 12 14  1  0
 13 12  1  0
 14 16  1  0
 14 15  1  6
 15  9  1  0
 16 18  1  0
 16 17  2  0
 18 19  1  0
 19 26  1  0
 19 20  1  6
 21 20  1  0
 21 25  1  0
 22 21  2  0
 23 22  1  0
 23 24  1  0
 24 25  2  0
 26 27  2  0
 26 28  1  0
M  END
$$$$
