MHQ.pdb
     RDKit          3D

 28 28  0  0  1  0  0  0  0  0999 V2000
    7.9500  -11.5159   24.9775 C   0  0  0  0  0  0  0  0  0  0  0  0
    6.7175  -11.5083   23.6768 S   0  0  0  0  0  0  0  0  0  0  0  0
    7.1167  -12.5438   22.2898 C   0  0  0  0  0  0  0  0  0  0  0  0
    7.6998  -13.8594   22.6623 C   0  0  0  0  0  0  0  0  0  0  0  0
    8.1338  -14.7264   21.5135 C   0  0  2  0  0  0  0  0  0  0  0  0
    6.9797  -15.1283   20.7228 N   0  0  0  0  0  0  0  0  0  0  0  0
    8.7729  -15.9894   22.0094 C   0  0  0  0  0  0  0  0  0  0  0  0
    8.0931  -17.0080   22.1681 O   0  0  0  0  0  0  0  0  0  0  0  0
   10.1460  -16.0731   22.3107 N   0  0  0  0  0  0  0  0  0  0  0  0
   10.9160  -17.1161   22.8314 C   0  0  1  0  0  0  0  0  0  0  0  0
   12.3129  -17.3454   22.3461 C   0  0  0  0  0  0  0  0  0  0  0  0
   12.4326  -17.7454   20.9291 C   0  0  0  0  0  0  0  0  0  0  0  0
   11.7381  -18.8233   20.3281 C   0  0  0  0  0  0  0  0  0  0  0  0
   12.0745  -18.9088   19.0386 N   0  0  0  0  0  0  0  0  0  0  0  0
   12.9536  -17.9290   18.7991 C   0  0  0  0  0  0  0  0  0  0  0  0
   13.1572  -17.2422   19.9401 N   0  0  0  0  0  0  0  0  0  0  0  0
   10.8479  -17.2126   24.2896 C   0  0  0  0  0  0  0  0  0  0  0  0
   11.3229  -16.2212   24.9463 O   0  0  0  0  0  0  0  0  0  0  0  0
    6.5247  -19.6091   25.5379 N   0  0  0  0  0  0  0  0  0  0  0  0
    6.4480  -18.2027   25.8324 C   0  0  0  0  0  0  0  0  0  0  0  0
    5.4662  -17.4982   25.5045 O   0  0  0  0  0  0  0  0  0  0  0  0
    7.5940  -17.6048   26.5518 C   0  0  0  0  0  0  0  0  0  0  0  0
    8.6294  -18.6791   26.7897 C   0  0  0  0  0  0  0  0  0  0  0  0
    9.9878  -18.1068   26.4231 C   0  0  2  0  0  0  0  0  0  0  0  0
   10.3047  -18.3004   25.0331 N   0  0  0  0  0  0  0  0  0  0  0  0
   11.0557  -18.7143   27.2784 C   0  0  0  0  0  0  0  0  0  0  0  0
   12.0432  -19.3069   26.7828 O   0  0  0  0  0  0  0  0  0  0  0  0
   10.9611  -18.6259   28.6540 O   0  0  0  0  0  0  0  0  0  0  0  0
  2  1  1  0
  3  2  1  0
  4  3  1  0
  5  4  1  0
  5  6  1  1
  7  5  1  0
  8  7  2  0
  9  7  1  0
 10  9  1  0
 10 11  1  1
 11 12  1  0
 12 13  2  0
 12 16  1  0
 13 14  1  0
 14 15  1  0
 16 15  2  0
 17 18  2  0
 17 10  1  0
 20 21  2  0
 20 19  1  0
 22 20  1  0
 24 23  1  1
 23 22  1  0
 24 25  1  0
 25 17  1  0
 26 28  1  0
 26 24  1  0
 27 26  2  0
M  END
$$$$
