MHQ.pdb
     RDKit          3D

 28 28  0  0  1  0  0  0  0  0999 V2000
    7.7179  -11.6084   18.9780 C   0  0  0  0  0  0  0  0  0  0  0  0
    7.9457  -12.4715   20.5318 S   0  0  0  0  0  0  0  0  0  0  0  0
    7.4793  -14.1850   20.4876 C   0  0  0  0  0  0  0  0  0  0  0  0
    7.6281  -14.8884   21.7887 C   0  0  0  0  0  0  0  0  0  0  0  0
    8.7176  -15.9226   21.8472 C   0  0  2  0  0  0  0  0  0  0  0  0
    8.4560  -16.9835   20.8856 N   0  0  0  0  0  0  0  0  0  0  0  0
    8.7649  -16.5724   23.1981 C   0  0  0  0  0  0  0  0  0  0  0  0
    8.8745  -15.8813   24.2156 O   0  0  0  0  0  0  0  0  0  0  0  0
    8.6882  -17.9683   23.3679 N   0  0  0  0  0  0  0  0  0  0  0  0
    8.8164  -18.7694   24.5052 C   0  0  1  0  0  0  0  0  0  0  0  0
    8.6307  -20.2516   24.4159 C   0  0  0  0  0  0  0  0  0  0  0  0
    7.3392  -20.6945   23.8519 C   0  0  0  0  0  0  0  0  0  0  0  0
    6.0664  -20.3429   24.3633 C   0  0  0  0  0  0  0  0  0  0  0  0
    5.1131  -20.9102   23.6199 N   0  0  0  0  0  0  0  0  0  0  0  0
    5.7309  -21.6067   22.6589 C   0  0  0  0  0  0  0  0  0  0  0  0
    7.0622  -21.4674   22.8115 N   0  0  0  0  0  0  0  0  0  0  0  0
    9.9882  -18.4384   25.3163 C   0  0  0  0  0  0  0  0  0  0  0  0
   10.9412  -17.8309   24.7143 O   0  0  0  0  0  0  0  0  0  0  0  0
    8.4403  -14.2641   27.8682 N   0  0  0  0  0  0  0  0  0  0  0  0
    9.7065  -14.2335   28.5514 C   0  0  0  0  0  0  0  0  0  0  0  0
   10.1293  -13.2131   29.1411 O   0  0  0  0  0  0  0  0  0  0  0  0
   10.5085  -15.4762   28.5327 C   0  0  0  0  0  0  0  0  0  0  0  0
    9.8792  -16.4435   27.5575 C   0  0  0  0  0  0  0  0  0  0  0  0
   10.7063  -17.7174   27.5647 C   0  0  2  0  0  0  0  0  0  0  0  0
   10.1581  -18.7291   26.7011 N   0  0  0  0  0  0  0  0  0  0  0  0
   10.8293  -18.2493   28.9585 C   0  0  0  0  0  0  0  0  0  0  0  0
   11.3905  -17.5954   29.8693 O   0  0  0  0  0  0  0  0  0  0  0  0
   10.3138  -19.4949   29.2618 O   0  0  0  0  0  0  0  0  0  0  0  0
  2  1  1  0
  3  2  1  0
  4  3  1  0
  5  4  1  0
  5  6  1  6
  7  5  1  0
  8  7  2  0
  9  7  1  0
 10  9  1  0
 10 11  1  6
 11 12  1  0
 12 13  2  0
 12 16  1  0
 13 14  1  0
 14 15  1  0
 16 15  2  0
 17 18  2  0
 17 10  1  0
 20 21  2  0
 20 19  1  0
 22 20  1  0
 24 23  1  1
 23 22  1  0
 24 25  1  0
 25 17  1  0
 26 28  1  0
 26 24  1  0
 27 26  2  0
M  END
$$$$
