MHQ.pdb
     RDKit          3D

 28 28  0  0  1  0  0  0  0  0999 V2000
    8.0060  -10.6443   25.1429 C   0  0  0  0  0  0  0  0  0  0  0  0
    6.8102  -11.8338   25.7482 S   0  0  0  0  0  0  0  0  0  0  0  0
    6.3001  -13.0322   24.5403 C   0  0  0  0  0  0  0  0  0  0  0  0
    7.1013  -14.2842   24.5513 C   0  0  0  0  0  0  0  0  0  0  0  0
    7.7663  -14.6414   23.2513 C   0  0  2  0  0  0  0  0  0  0  0  0
    6.7639  -14.8984   22.2277 N   0  0  0  0  0  0  0  0  0  0  0  0
    8.5680  -15.9013   23.3902 C   0  0  0  0  0  0  0  0  0  0  0  0
    8.0312  -16.9369   23.7955 O   0  0  0  0  0  0  0  0  0  0  0  0
    9.9386  -15.9633   23.0725 N   0  0  0  0  0  0  0  0  0  0  0  0
   10.8680  -17.0000   23.1872 C   0  0  1  0  0  0  0  0  0  0  0  0
   11.7631  -17.3490   22.0399 C   0  0  0  0  0  0  0  0  0  0  0  0
   11.0716  -17.7324   20.7921 C   0  0  0  0  0  0  0  0  0  0  0  0
    9.9518  -18.5957   20.7165 C   0  0  0  0  0  0  0  0  0  0  0  0
    9.5751  -18.7295   19.4423 N   0  0  0  0  0  0  0  0  0  0  0  0
   10.4111  -17.9860   18.7085 C   0  0  0  0  0  0  0  0  0  0  0  0
   11.3004  -17.3960   19.5307 N   0  0  0  0  0  0  0  0  0  0  0  0
   11.6180  -16.9675   24.4429 C   0  0  0  0  0  0  0  0  0  0  0  0
   12.4918  -16.0386   24.5576 O   0  0  0  0  0  0  0  0  0  0  0  0
   10.9788  -14.0116   28.6067 N   0  0  0  0  0  0  0  0  0  0  0  0
    9.9560  -15.0234   28.5768 C   0  0  0  0  0  0  0  0  0  0  0  0
    8.8198  -14.8478   29.0726 O   0  0  0  0  0  0  0  0  0  0  0  0
   10.3008  -16.3061   27.9256 C   0  0  0  0  0  0  0  0  0  0  0  0
   11.6748  -16.1819   27.3097 C   0  0  0  0  0  0  0  0  0  0  0  0
   12.0811  -17.5521   26.7956 C   0  0  2  0  0  0  0  0  0  0  0  0
   11.4616  -17.8684   25.5361 N   0  0  0  0  0  0  0  0  0  0  0  0
   11.7486  -18.6058   27.8056 C   0  0  0  0  0  0  0  0  0  0  0  0
   10.8156  -19.4239   27.6259 O   0  0  0  0  0  0  0  0  0  0  0  0
   12.4836  -18.6889   28.9727 O   0  0  0  0  0  0  0  0  0  0  0  0
  2  1  1  0
  3  2  1  0
  4  3  1  0
  5  4  1  0
  5  6  1  6
  7  5  1  0
  8  7  2  0
  9  7  1  0
 10  9  1  0
 10 11  1  6
 11 12  1  0
 12 13  2  0
 12 16  1  0
 13 14  1  0
 14 15  1  0
 16 15  2  0
 17 18  2  0
 17 10  1  0
 20 21  2  0
 20 19  1  0
 22 20  1  0
 24 23  1  1
 23 22  1  0
 24 25  1  0
 25 17  1  0
 26 28  1  0
 26 24  1  0
 27 26  2  0
M  END
$$$$
