MHQ.pdb
     RDKit          3D

 28 28  0  0  1  0  0  0  0  0999 V2000
    8.4055  -11.9230   19.6237 C   0  0  0  0  0  0  0  0  0  0  0  0
    7.0347  -12.7235   20.4550 S   0  0  0  0  0  0  0  0  0  0  0  0
    6.5468  -14.2701   19.7300 C   0  0  0  0  0  0  0  0  0  0  0  0
    7.2100  -15.4577   20.3297 C   0  0  0  0  0  0  0  0  0  0  0  0
    8.3066  -16.0740   19.5067 C   0  0  2  0  0  0  0  0  0  0  0  0
    7.7500  -16.7044   18.3186 N   0  0  0  0  0  0  0  0  0  0  0  0
    9.0078  -17.1545   20.2750 C   0  0  0  0  0  0  0  0  0  0  0  0
    8.3805  -18.1423   20.6697 O   0  0  0  0  0  0  0  0  0  0  0  0
   10.3823  -17.0967   20.5763 N   0  0  0  0  0  0  0  0  0  0  0  0
   11.2044  -17.9550   21.3106 C   0  0  1  0  0  0  0  0  0  0  0  0
   12.5697  -18.3112   20.8121 C   0  0  0  0  0  0  0  0  0  0  0  0
   12.6096  -18.9581   19.4847 C   0  0  0  0  0  0  0  0  0  0  0  0
   12.5016  -18.2791   18.2468 C   0  0  0  0  0  0  0  0  0  0  0  0
   12.5770  -19.1594   17.2454 N   0  0  0  0  0  0  0  0  0  0  0  0
   12.7282  -20.3679   17.7994 C   0  0  0  0  0  0  0  0  0  0  0  0
   12.7458  -20.2304   19.1394 N   0  0  0  0  0  0  0  0  0  0  0  0
   11.2356  -17.6432   22.7396 C   0  0  0  0  0  0  0  0  0  0  0  0
   11.8698  -16.5825   23.0749 O   0  0  0  0  0  0  0  0  0  0  0  0
    7.0320  -17.6716   26.8201 N   0  0  0  0  0  0  0  0  0  0  0  0
    7.1083  -17.3245   25.4256 C   0  0  0  0  0  0  0  0  0  0  0  0
    6.1019  -16.9963   24.7570 O   0  0  0  0  0  0  0  0  0  0  0  0
    8.4460  -17.3698   24.7957 C   0  0  0  0  0  0  0  0  0  0  0  0
    9.4602  -17.7683   25.8422 C   0  0  0  0  0  0  0  0  0  0  0  0
   10.7911  -17.9848   25.1432 C   0  0  2  0  0  0  0  0  0  0  0  0
   10.6282  -18.4079   23.7777 N   0  0  0  0  0  0  0  0  0  0  0  0
   11.6147  -18.9858   25.8919 C   0  0  0  0  0  0  0  0  0  0  0  0
   11.9774  -20.0669   25.3706 O   0  0  0  0  0  0  0  0  0  0  0  0
   11.9918  -18.7221   27.1947 O   0  0  0  0  0  0  0  0  0  0  0  0
  2  1  1  0
  3  2  1  0
  4  3  1  0
  5  4  1  0
  5  6  1  6
  7  5  1  0
  8  7  2  0
  9  7  1  0
 10  9  1  0
 10 11  1  6
 11 12  1  0
 12 13  2  0
 12 16  1  0
 13 14  1  0
 14 15  1  0
 16 15  2  0
 17 18  2  0
 17 10  1  0
 20 21  2  0
 20 19  1  0
 22 20  1  0
 24 23  1  1
 23 22  1  0
 24 25  1  0
 25 17  1  0
 26 28  1  0
 26 24  1  0
 27 26  2  0
M  END
$$$$
