MHQ.pdb
     RDKit          3D

 28 28  0  0  1  0  0  0  0  0999 V2000
    6.8102  -11.5940   26.7931 C   0  0  0  0  0  0  0  0  0  0  0  0
    7.0173  -11.4674   25.0177 S   0  0  0  0  0  0  0  0  0  0  0  0
    6.4474  -12.8875   24.1154 C   0  0  0  0  0  0  0  0  0  0  0  0
    7.1491  -14.1505   24.4649 C   0  0  0  0  0  0  0  0  0  0  0  0
    8.1794  -14.6167   23.4744 C   0  0  2  0  0  0  0  0  0  0  0  0
    7.5707  -14.8022   22.1653 N   0  0  0  0  0  0  0  0  0  0  0  0
    8.7425  -15.9475   23.8763 C   0  0  0  0  0  0  0  0  0  0  0  0
    8.3732  -16.4868   24.9240 O   0  0  0  0  0  0  0  0  0  0  0  0
    9.6964  -16.6303   23.0971 N   0  0  0  0  0  0  0  0  0  0  0  0
   10.5727  -17.6718   23.4121 C   0  0  1  0  0  0  0  0  0  0  0  0
   11.4137  -18.3056   22.3490 C   0  0  0  0  0  0  0  0  0  0  0  0
   12.0934  -19.5568   22.7422 C   0  0  0  0  0  0  0  0  0  0  0  0
   11.9393  -20.2069   23.9907 C   0  0  0  0  0  0  0  0  0  0  0  0
   12.6925  -21.3093   24.0172 N   0  0  0  0  0  0  0  0  0  0  0  0
   13.3172  -21.3831   22.8362 C   0  0  0  0  0  0  0  0  0  0  0  0
   12.9482  -20.3275   22.0850 N   0  0  0  0  0  0  0  0  0  0  0  0
   11.3603  -17.4193   24.6190 C   0  0  0  0  0  0  0  0  0  0  0  0
   11.9187  -16.2700   24.7015 O   0  0  0  0  0  0  0  0  0  0  0  0
    9.1845  -14.9791   28.4165 N   0  0  0  0  0  0  0  0  0  0  0  0
   10.1580  -15.4363   29.3725 C   0  0  0  0  0  0  0  0  0  0  0  0
   10.1709  -15.0436   30.5613 O   0  0  0  0  0  0  0  0  0  0  0  0
   11.1649  -16.4076   28.8918 C   0  0  0  0  0  0  0  0  0  0  0  0
   10.8051  -16.8203   27.4837 C   0  0  0  0  0  0  0  0  0  0  0  0
   11.8535  -17.8099   27.0055 C   0  0  2  0  0  0  0  0  0  0  0  0
   11.5566  -18.3302   25.6974 N   0  0  0  0  0  0  0  0  0  0  0  0
   11.9895  -18.9357   27.9827 C   0  0  0  0  0  0  0  0  0  0  0  0
   11.3387  -20.0003   27.8606 O   0  0  0  0  0  0  0  0  0  0  0  0
   12.8536  -18.8095   29.0535 O   0  0  0  0  0  0  0  0  0  0  0  0
  2  1  1  0
  3  2  1  0
  4  3  1  0
  5  4  1  0
  5  6  1  6
  7  5  1  0
  8  7  2  0
  9  7  1  0
 10  9  1  0
 10 11  1  6
 11 12  1  0
 12 13  2  0
 12 16  1  0
 13 14  1  0
 14 15  1  0
 16 15  2  0
 17 18  2  0
 17 10  1  0
 20 21  2  0
 20 19  1  0
 22 20  1  0
 24 23  1  1
 23 22  1  0
 24 25  1  0
 25 17  1  0
 26 28  1  0
 26 24  1  0
 27 26  2  0
M  END
$$$$
