MHQ.pdb
     RDKit          3D

 28 28  0  0  1  0  0  0  0  0999 V2000
    8.3346  -11.3548   19.4774 C   0  0  0  0  0  0  0  0  0  0  0  0
    7.4524  -12.7500   18.7803 S   0  0  0  0  0  0  0  0  0  0  0  0
    7.7046  -14.2785   19.6495 C   0  0  0  0  0  0  0  0  0  0  0  0
    9.1171  -14.7412   19.6666 C   0  0  0  0  0  0  0  0  0  0  0  0
    9.3823  -15.9894   20.4613 C   0  0  2  0  0  0  0  0  0  0  0  0
    8.2856  -16.9323   20.2974 N   0  0  0  0  0  0  0  0  0  0  0  0
    9.4658  -15.6815   21.9268 C   0  0  0  0  0  0  0  0  0  0  0  0
   10.4259  -15.0465   22.3738 O   0  0  0  0  0  0  0  0  0  0  0  0
    8.4772  -16.0915   22.8422 N   0  0  0  0  0  0  0  0  0  0  0  0
    8.3119  -15.8270   24.2040 C   0  0  1  0  0  0  0  0  0  0  0  0
    6.9744  -15.4285   24.7442 C   0  0  0  0  0  0  0  0  0  0  0  0
    7.0051  -14.4523   25.8525 C   0  0  0  0  0  0  0  0  0  0  0  0
    8.1811  -13.9594   26.4682 C   0  0  0  0  0  0  0  0  0  0  0  0
    7.8531  -13.0946   27.4315 N   0  0  0  0  0  0  0  0  0  0  0  0
    6.5173  -13.0204   27.4505 C   0  0  0  0  0  0  0  0  0  0  0  0
    6.0251  -13.8384   26.5000 N   0  0  0  0  0  0  0  0  0  0  0  0
    8.9478  -16.8222   25.0675 C   0  0  0  0  0  0  0  0  0  0  0  0
    8.4621  -18.0061   25.0214 O   0  0  0  0  0  0  0  0  0  0  0  0
   14.5184  -19.5603   26.2345 N   0  0  0  0  0  0  0  0  0  0  0  0
   13.6484  -19.2705   25.1255 C   0  0  0  0  0  0  0  0  0  0  0  0
   14.0637  -19.1882   23.9471 O   0  0  0  0  0  0  0  0  0  0  0  0
   12.2155  -19.0691   25.4323 C   0  0  0  0  0  0  0  0  0  0  0  0
   12.0831  -17.8972   26.3766 C   0  0  0  0  0  0  0  0  0  0  0  0
   10.6061  -17.6999   26.6708 C   0  0  2  0  0  0  0  0  0  0  0  0
   10.0479  -16.5911   25.9437 N   0  0  0  0  0  0  0  0  0  0  0  0
   10.3901  -17.5065   28.1395 C   0  0  0  0  0  0  0  0  0  0  0  0
   10.6917  -18.3915   28.9749 O   0  0  0  0  0  0  0  0  0  0  0  0
    9.8436  -16.3237   28.5992 O   0  0  0  0  0  0  0  0  0  0  0  0
  2  1  1  0
  3  2  1  0
  4  3  1  0
  5  4  1  0
  5  6  1  1
  7  5  1  0
  8  7  2  0
  9  7  1  0
 10  9  1  0
 10 11  1  1
 11 12  1  0
 12 13  2  0
 12 16  1  0
 13 14  1  0
 14 15  1  0
 16 15  2  0
 17 18  2  0
 17 10  1  0
 20 21  2  0
 20 19  1  0
 22 20  1  0
 24 23  1  1
 23 22  1  0
 24 25  1  0
 25 17  1  0
 26 28  1  0
 26 24  1  0
 27 26  2  0
M  END
$$$$
