MHQ.pdb
     RDKit          3D

 28 28  0  0  1  0  0  0  0  0999 V2000
    7.8220  -12.1248   20.3606 C   0  0  0  0  0  0  0  0  0  0  0  0
    7.0631  -13.2141   21.5642 S   0  0  0  0  0  0  0  0  0  0  0  0
    7.2503  -14.9429   21.2012 C   0  0  0  0  0  0  0  0  0  0  0  0
    7.6342  -15.2297   19.7940 C   0  0  0  0  0  0  0  0  0  0  0  0
    7.7799  -16.6843   19.4439 C   0  0  2  0  0  0  0  0  0  0  0  0
    6.5267  -17.3862   19.6794 N   0  0  0  0  0  0  0  0  0  0  0  0
    8.8085  -17.3426   20.3146 C   0  0  0  0  0  0  0  0  0  0  0  0
    8.4629  -17.9487   21.3335 O   0  0  0  0  0  0  0  0  0  0  0  0
   10.1850  -17.3028   20.0197 N   0  0  0  0  0  0  0  0  0  0  0  0
   11.2982  -17.7374   20.7433 C   0  0  1  0  0  0  0  0  0  0  0  0
   12.6300  -17.8806   20.0762 C   0  0  0  0  0  0  0  0  0  0  0  0
   12.6806  -18.8555   18.9674 C   0  0  0  0  0  0  0  0  0  0  0  0
   12.2484  -20.2014   19.0492 C   0  0  0  0  0  0  0  0  0  0  0  0
   12.4324  -20.8029   17.8712 N   0  0  0  0  0  0  0  0  0  0  0  0
   12.9636  -19.8922   17.0473 C   0  0  0  0  0  0  0  0  0  0  0  0
   13.1057  -18.7326   17.7182 N   0  0  0  0  0  0  0  0  0  0  0  0
   11.4341  -17.0815   22.0440 C   0  0  0  0  0  0  0  0  0  0  0  0
   11.4258  -15.8011   22.0370 O   0  0  0  0  0  0  0  0  0  0  0  0
    6.5911  -17.6611   24.8148 N   0  0  0  0  0  0  0  0  0  0  0  0
    7.2819  -16.4818   25.2651 C   0  0  0  0  0  0  0  0  0  0  0  0
    6.6955  -15.3949   25.4713 O   0  0  0  0  0  0  0  0  0  0  0  0
    8.7406  -16.6006   25.4808 C   0  0  0  0  0  0  0  0  0  0  0  0
    9.3819  -17.0776   24.1987 C   0  0  0  0  0  0  0  0  0  0  0  0
   10.8750  -17.2079   24.4445 C   0  0  2  0  0  0  0  0  0  0  0  0
   11.5723  -17.7363   23.3023 N   0  0  0  0  0  0  0  0  0  0  0  0
   11.1314  -18.0698   25.6414 C   0  0  0  0  0  0  0  0  0  0  0  0
   11.6763  -17.6192   26.6768 O   0  0  0  0  0  0  0  0  0  0  0  0
   10.7616  -19.4008   25.6160 O   0  0  0  0  0  0  0  0  0  0  0  0
  2  1  1  0
  3  2  1  0
  4  3  1  0
  5  4  1  0
  5  6  1  1
  7  5  1  0
  8  7  2  0
  9  7  1  0
 10  9  1  0
 10 11  1  6
 11 12  1  0
 12 13  2  0
 12 16  1  0
 13 14  1  0
 14 15  1  0
 16 15  2  0
 17 18  2  0
 17 10  1  0
 20 21  2  0
 20 19  1  0
 22 20  1  0
 24 23  1  6
 23 22  1  0
 24 25  1  0
 25 17  1  0
 26 28  1  0
 26 24  1  0
 27 26  2  0
M  END
$$$$
