MHQ.pdb
     RDKit          3D

 28 28  0  0  1  0  0  0  0  0999 V2000
    7.3709  -11.0547   26.5207 C   0  0  0  0  0  0  0  0  0  0  0  0
    6.0764  -11.9802   27.3446 S   0  0  0  0  0  0  0  0  0  0  0  0
    5.6018  -13.4723   26.5056 C   0  0  0  0  0  0  0  0  0  0  0  0
    6.7394  -14.2239   25.9133 C   0  0  0  0  0  0  0  0  0  0  0  0
    6.3715  -15.4703   25.1579 C   0  0  2  0  0  0  0  0  0  0  0  0
    5.7650  -16.4421   26.0559 N   0  0  0  0  0  0  0  0  0  0  0  0
    7.5915  -16.1248   24.5811 C   0  0  0  0  0  0  0  0  0  0  0  0
    8.1417  -17.0520   25.1832 O   0  0  0  0  0  0  0  0  0  0  0  0
    8.1552  -15.7237   23.3544 N   0  0  0  0  0  0  0  0  0  0  0  0
    9.2240  -16.2380   22.6163 C   0  0  1  0  0  0  0  0  0  0  0  0
    9.4006  -15.8702   21.1766 C   0  0  0  0  0  0  0  0  0  0  0  0
   10.5528  -16.4996   20.4996 C   0  0  0  0  0  0  0  0  0  0  0  0
   11.7862  -16.8147   21.1198 C   0  0  0  0  0  0  0  0  0  0  0  0
   12.6065  -17.3734   20.2263 N   0  0  0  0  0  0  0  0  0  0  0  0
   11.9424  -17.4246   19.0659 C   0  0  0  0  0  0  0  0  0  0  0  0
   10.7155  -16.8980   19.2461 N   0  0  0  0  0  0  0  0  0  0  0  0
   10.5000  -16.1802   23.3298 C   0  0  0  0  0  0  0  0  0  0  0  0
   11.1572  -15.0859   23.2285 O   0  0  0  0  0  0  0  0  0  0  0  0
   11.6165  -13.9370   27.6431 N   0  0  0  0  0  0  0  0  0  0  0  0
   10.9453  -15.1783   27.9251 C   0  0  0  0  0  0  0  0  0  0  0  0
   10.2417  -15.3468   28.9471 O   0  0  0  0  0  0  0  0  0  0  0  0
   11.1188  -16.2722   26.9445 C   0  0  0  0  0  0  0  0  0  0  0  0
   12.0621  -15.8050   25.8607 C   0  0  0  0  0  0  0  0  0  0  0  0
   12.2549  -16.9521   24.8840 C   0  0  2  0  0  0  0  0  0  0  0  0
   11.0672  -17.2229   24.1186 N   0  0  0  0  0  0  0  0  0  0  0  0
   12.6848  -18.1876   25.6117 C   0  0  0  0  0  0  0  0  0  0  0  0
   11.9713  -19.2181   25.6449 O   0  0  0  0  0  0  0  0  0  0  0  0
   13.9000  -18.2049   26.2689 O   0  0  0  0  0  0  0  0  0  0  0  0
  2  1  1  0
  3  2  1  0
  4  3  1  0
  5  4  1  0
  5  6  1  1
  7  5  1  0
  8  7  2  0
  9  7  1  0
 10  9  1  0
 10 11  1  6
 11 12  1  0
 12 13  2  0
 12 16  1  0
 13 14  1  0
 14 15  1  0
 16 15  2  0
 17 18  2  0
 17 10  1  0
 20 21  2  0
 20 19  1  0
 22 20  1  0
 24 23  1  1
 23 22  1  0
 24 25  1  0
 25 17  1  0
 26 28  1  0
 26 24  1  0
 27 26  2  0
M  END
$$$$
