MHQ.pdb
     RDKit          3D

 28 28  0  0  1  0  0  0  0  0999 V2000
    9.1366  -12.4955   18.9964 C   0  0  0  0  0  0  0  0  0  0  0  0
    7.7386  -12.6385   20.1083 S   0  0  0  0  0  0  0  0  0  0  0  0
    7.0038  -14.2553   20.1495 C   0  0  0  0  0  0  0  0  0  0  0  0
    7.2737  -15.0131   21.3995 C   0  0  0  0  0  0  0  0  0  0  0  0
    8.7245  -15.2390   21.7218 C   0  0  2  0  0  0  0  0  0  0  0  0
    9.3735  -15.9629   20.6386 N   0  0  0  0  0  0  0  0  0  0  0  0
    8.8728  -16.0859   22.9508 C   0  0  0  0  0  0  0  0  0  0  0  0
    8.2142  -15.8303   23.9637 O   0  0  0  0  0  0  0  0  0  0  0  0
    9.7488  -17.1871   23.0080 N   0  0  0  0  0  0  0  0  0  0  0  0
   10.0419  -18.0822   24.0398 C   0  0  1  0  0  0  0  0  0  0  0  0
   10.6146  -19.4310   23.7363 C   0  0  0  0  0  0  0  0  0  0  0  0
    9.7739  -20.2984   22.8858 C   0  0  0  0  0  0  0  0  0  0  0  0
    8.3637  -20.2173   22.7865 C   0  0  0  0  0  0  0  0  0  0  0  0
    7.9213  -21.1433   21.9321 N   0  0  0  0  0  0  0  0  0  0  0  0
    8.9942  -21.8072   21.4867 C   0  0  0  0  0  0  0  0  0  0  0  0
   10.0946  -21.2897   22.0667 N   0  0  0  0  0  0  0  0  0  0  0  0
   10.7411  -17.4595   25.1640 C   0  0  0  0  0  0  0  0  0  0  0  0
   11.9214  -17.0235   24.9263 O   0  0  0  0  0  0  0  0  0  0  0  0
    9.1816  -13.2854   28.9092 N   0  0  0  0  0  0  0  0  0  0  0  0
    8.8848  -13.6208   27.5416 C   0  0  0  0  0  0  0  0  0  0  0  0
    8.0992  -12.9462   26.8377 O   0  0  0  0  0  0  0  0  0  0  0  0
    9.5545  -14.8161   26.9840 C   0  0  0  0  0  0  0  0  0  0  0  0
   10.4378  -15.4179   28.0518 C   0  0  0  0  0  0  0  0  0  0  0  0
   11.0589  -16.6828   27.4849 C   0  0  2  0  0  0  0  0  0  0  0  0
   10.2284  -17.2976   26.4839 N   0  0  0  0  0  0  0  0  0  0  0  0
   11.3415  -17.6602   28.5829 C   0  0  0  0  0  0  0  0  0  0  0  0
   12.0581  -17.3608   29.5673 O   0  0  0  0  0  0  0  0  0  0  0  0
   10.8030  -18.9311   28.5208 O   0  0  0  0  0  0  0  0  0  0  0  0
  2  1  1  0
  3  2  1  0
  4  3  1  0
  5  4  1  0
  5  6  1  6
  7  5  1  0
  8  7  2  0
  9  7  1  0
 10  9  1  0
 10 11  1  6
 11 12  1  0
 12 13  2  0
 12 16  1  0
 13 14  1  0
 14 15  1  0
 16 15  2  0
 17 18  2  0
 17 10  1  0
 20 21  2  0
 20 19  1  0
 22 20  1  0
 24 23  1  1
 23 22  1  0
 24 25  1  0
 25 17  1  0
 26 28  1  0
 26 24  1  0
 27 26  2  0
M  END
$$$$
