YKT.pdb
     RDKit          3D

 29 29  0  0  1  0  0  0  0  0999 V2000
    8.7729  -11.8050   21.4497 O   0  0  0  0  0  0  0  0  0  0  0  0
    8.3849  -12.5457   20.3383 C   0  0  0  0  0  0  0  0  0  0  0  0
    7.4956  -13.5927   20.4567 C   0  0  0  0  0  0  0  0  0  0  0  0
    7.0969  -14.3392   19.3746 C   0  0  0  0  0  0  0  0  0  0  0  0
    7.5827  -14.0563   18.1260 C   0  0  0  0  0  0  0  0  0  0  0  0
    7.1516  -14.8592   16.9734 C   0  0  0  0  0  0  0  0  0  0  0  0
    8.2165  -15.9120   16.7241 C   0  0  2  0  0  0  0  0  0  0  0  0
    7.8285  -16.8485   15.7138 N   0  0  0  0  0  0  0  0  0  0  0  0
    8.4166  -16.6503   18.0028 C   0  0  0  0  0  0  0  0  0  0  0  0
    7.5265  -17.4494   18.4159 O   0  0  0  0  0  0  0  0  0  0  0  0
    8.4691  -13.0251   17.9573 C   0  0  0  0  0  0  0  0  0  0  0  0
    8.8542  -12.2880   19.0682 C   0  0  0  0  0  0  0  0  0  0  0  0
    9.5673  -16.5021   18.7909 N   0  0  0  0  0  0  0  0  0  0  0  0
    9.8862  -17.3016   19.9282 C   0  0  1  0  0  0  0  0  0  0  0  0
   11.1164  -18.1258   19.6353 C   0  0  0  0  0  0  0  0  0  0  0  0
   11.4814  -19.1008   20.7034 C   0  0  0  0  0  0  0  0  0  0  0  0
   12.6718  -19.9540   20.3440 C   0  0  0  0  0  0  0  0  0  0  0  0
   12.9854  -20.9081   21.4754 C   0  0  0  0  0  0  0  0  0  0  0  0
   14.2086  -21.6240   21.1727 N   0  0  0  0  0  0  0  0  0  0  0  0
   10.1637  -16.4783   21.1398 C   0  0  0  0  0  0  0  0  0  0  0  0
   11.0085  -15.5475   21.0836 O   0  0  0  0  0  0  0  0  0  0  0  0
    7.6896  -14.8280   23.7728 C   0  0  0  0  0  0  0  0  0  0  0  0
    8.6205  -15.8282   24.4192 C   0  0  1  0  0  0  0  0  0  0  0  0
    7.9594  -17.0759   24.3448 O   0  0  0  0  0  0  0  0  0  0  0  0
    9.8893  -15.9883   23.6005 C   0  0  2  0  0  0  0  0  0  0  0  0
    9.5046  -16.7026   22.3761 N   0  0  0  0  0  0  0  0  0  0  0  0
   10.8207  -16.8142   24.3886 C   0  0  0  0  0  0  0  0  0  0  0  0
   11.0546  -17.9875   24.0458 O   0  0  0  0  0  0  0  0  0  0  0  0
   11.4336  -16.2926   25.5032 O   0  0  0  0  0  0  0  0  0  0  0  0
  2  1  1  0
  2  3  2  0
  4  3  1  0
  5  4  2  0
  6  5  1  0
  7  6  1  0
  7  8  1  6
  9  7  1  0
 10  9  2  0
 11 12  2  0
 11  5  1  0
 12  2  1  0
 13  9  1  0
 14 13  1  0
 15 16  1  0
 14 15  1  6
 16 17  1  0
 18 17  1  0
 19 18  1  0
 20 14  1  0
 20 21  2  0
 23 22  1  6
 24 23  1  0
 25 23  1  0
 25 26  1  6
 26 20  1  0
 27 25  1  0
 28 27  2  0
 29 27  1  0
M  END
$$$$
