YKT.pdb
     RDKit          3D

 29 29  0  0  1  0  0  0  0  0999 V2000
   18.6662  -13.6689   17.7503 O   0  0  0  0  0  0  0  0  0  0  0  0
   17.3467  -13.7667   18.1789 C   0  0  0  0  0  0  0  0  0  0  0  0
   17.0090  -14.5386   19.2703 C   0  0  0  0  0  0  0  0  0  0  0  0
   15.7135  -14.6514   19.7132 C   0  0  0  0  0  0  0  0  0  0  0  0
   14.7048  -13.9866   19.0687 C   0  0  0  0  0  0  0  0  0  0  0  0
   13.3216  -14.1122   19.5483 C   0  0  0  0  0  0  0  0  0  0  0  0
   12.6778  -15.2621   18.7947 C   0  0  2  0  0  0  0  0  0  0  0  0
   11.9375  -14.8168   17.6535 N   0  0  0  0  0  0  0  0  0  0  0  0
   11.7390  -15.9367   19.7348 C   0  0  0  0  0  0  0  0  0  0  0  0
   10.5192  -15.6003   19.7580 O   0  0  0  0  0  0  0  0  0  0  0  0
   14.9904  -13.2068   17.9787 C   0  0  0  0  0  0  0  0  0  0  0  0
   16.3078  -13.1113   17.5535 C   0  0  0  0  0  0  0  0  0  0  0  0
   12.1466  -16.9488   20.6160 N   0  0  0  0  0  0  0  0  0  0  0  0
   11.2749  -17.6874   21.4699 C   0  0  1  0  0  0  0  0  0  0  0  0
   11.6543  -19.1480   21.4349 C   0  0  0  0  0  0  0  0  0  0  0  0
   11.6308  -19.7649   20.0771 C   0  0  0  0  0  0  0  0  0  0  0  0
   12.0712  -21.2072   20.0748 C   0  0  0  0  0  0  0  0  0  0  0  0
   11.9257  -21.7908   18.6867 C   0  0  0  0  0  0  0  0  0  0  0  0
   12.4854  -23.1274   18.6683 N   0  0  0  0  0  0  0  0  0  0  0  0
   11.3470  -17.2288   22.8867 C   0  0  0  0  0  0  0  0  0  0  0  0
   12.4552  -16.8955   23.3807 O   0  0  0  0  0  0  0  0  0  0  0  0
    8.7382  -14.8068   24.8609 C   0  0  0  0  0  0  0  0  0  0  0  0
    8.9306  -16.1673   25.4908 C   0  0  1  0  0  0  0  0  0  0  0  0
    7.9807  -17.0157   24.8764 O   0  0  0  0  0  0  0  0  0  0  0  0
   10.2881  -16.7413   25.1253 C   0  0  2  0  0  0  0  0  0  0  0  0
   10.1994  -17.1503   23.7174 N   0  0  0  0  0  0  0  0  0  0  0  0
   10.5097  -17.9238   25.9757 C   0  0  0  0  0  0  0  0  0  0  0  0
   10.4680  -19.0641   25.4790 O   0  0  0  0  0  0  0  0  0  0  0  0
   10.7629  -17.7720   27.3185 O   0  0  0  0  0  0  0  0  0  0  0  0
  2  1  1  0
  2  3  2  0
  4  3  1  0
  5  4  2  0
  6  5  1  0
  7  6  1  0
  7  8  1  6
  9  7  1  0
 10  9  2  0
 11 12  2  0
 11  5  1  0
 12  2  1  0
 13  9  1  0
 14 13  1  0
 15 16  1  0
 14 15  1  1
 16 17  1  0
 18 17  1  0
 19 18  1  0
 20 14  1  0
 20 21  2  0
 23 22  1  6
 24 23  1  0
 25 23  1  0
 25 26  1  6
 26 20  1  0
 27 25  1  0
 28 27  2  0
 29 27  1  0
M  END
$$$$
