YKT.pdb
     RDKit          3D

 29 29  0  0  1  0  0  0  0  0999 V2000
    4.7216   -9.5086   25.9384 O   0  0  0  0  0  0  0  0  0  0  0  0
    5.4304  -10.7045   25.9818 C   0  0  0  0  0  0  0  0  0  0  0  0
    5.2566  -11.5968   27.0185 C   0  0  0  0  0  0  0  0  0  0  0  0
    5.9444  -12.7841   27.0842 C   0  0  0  0  0  0  0  0  0  0  0  0
    6.8380  -13.1178   26.1019 C   0  0  0  0  0  0  0  0  0  0  0  0
    7.5700  -14.3895   26.1791 C   0  0  0  0  0  0  0  0  0  0  0  0
    6.9988  -15.3122   25.1175 C   0  0  2  0  0  0  0  0  0  0  0  0
    5.7327  -15.8602   25.4985 N   0  0  0  0  0  0  0  0  0  0  0  0
    7.9652  -16.4322   24.9383 C   0  0  0  0  0  0  0  0  0  0  0  0
    8.1136  -17.2905   25.8564 O   0  0  0  0  0  0  0  0  0  0  0  0
    7.0455  -12.2635   25.0508 C   0  0  0  0  0  0  0  0  0  0  0  0
    6.3368  -11.0712   25.0103 C   0  0  0  0  0  0  0  0  0  0  0  0
    8.7369  -16.5881   23.7777 N   0  0  0  0  0  0  0  0  0  0  0  0
    9.8724  -17.4435   23.6614 C   0  0  1  0  0  0  0  0  0  0  0  0
   10.4260  -17.3577   22.2597 C   0  0  0  0  0  0  0  0  0  0  0  0
   11.6059  -18.2328   22.0017 C   0  0  0  0  0  0  0  0  0  0  0  0
   12.0758  -18.1854   20.5695 C   0  0  0  0  0  0  0  0  0  0  0  0
   13.2573  -19.1114   20.3813 C   0  0  0  0  0  0  0  0  0  0  0  0
   13.7294  -19.0133   19.0147 N   0  0  0  0  0  0  0  0  0  0  0  0
   10.9620  -17.0708   24.6083 C   0  0  0  0  0  0  0  0  0  0  0  0
   11.7026  -16.0860   24.3533 O   0  0  0  0  0  0  0  0  0  0  0  0
   10.9522  -15.4198   27.5735 C   0  0  0  0  0  0  0  0  0  0  0  0
   11.5310  -16.7665   27.9427 C   0  0  1  0  0  0  0  0  0  0  0  0
   10.4227  -17.6067   28.1983 O   0  0  0  0  0  0  0  0  0  0  0  0
   12.2487  -17.3860   26.7566 C   0  0  2  0  0  0  0  0  0  0  0  0
   11.2046  -17.7912   25.8063 N   0  0  0  0  0  0  0  0  0  0  0  0
   12.9655  -18.5757   27.2480 C   0  0  0  0  0  0  0  0  0  0  0  0
   12.5837  -19.7130   26.9171 O   0  0  0  0  0  0  0  0  0  0  0  0
   14.0567  -18.4339   28.0722 O   0  0  0  0  0  0  0  0  0  0  0  0
  2  1  1  0
  2  3  2  0
  4  3  1  0
  5  4  2  0
  6  5  1  0
  7  6  1  0
  7  8  1  1
  9  7  1  0
 10  9  2  0
 11 12  2  0
 11  5  1  0
 12  2  1  0
 13  9  1  0
 14 13  1  0
 15 16  1  0
 14 15  1  6
 16 17  1  0
 18 17  1  0
 19 18  1  0
 20 14  1  0
 20 21  2  0
 23 22  1  6
 24 23  1  0
 25 23  1  0
 25 26  1  6
 26 20  1  0
 27 25  1  0
 28 27  2  0
 29 27  1  0
M  END
$$$$
