YKT.pdb
     RDKit          3D

 29 29  0  0  1  0  0  0  0  0999 V2000
    5.0154  -10.6377   28.2760 O   0  0  0  0  0  0  0  0  0  0  0  0
    5.7253  -11.5548   27.5082 C   0  0  0  0  0  0  0  0  0  0  0  0
    6.7530  -12.2945   28.0540 C   0  0  0  0  0  0  0  0  0  0  0  0
    7.4690  -13.2062   27.3169 C   0  0  0  0  0  0  0  0  0  0  0  0
    7.1740  -13.4071   25.9950 C   0  0  0  0  0  0  0  0  0  0  0  0
    7.9443  -14.3840   25.2131 C   0  0  0  0  0  0  0  0  0  0  0  0
    6.9793  -15.4568   24.7415 C   0  0  2  0  0  0  0  0  0  0  0  0
    6.8748  -16.5400   25.6713 N   0  0  0  0  0  0  0  0  0  0  0  0
    7.5041  -15.9882   23.4521 C   0  0  0  0  0  0  0  0  0  0  0  0
    7.9473  -17.1719   23.3912 O   0  0  0  0  0  0  0  0  0  0  0  0
    6.1611  -12.6957   25.4072 C   0  0  0  0  0  0  0  0  0  0  0  0
    5.4546  -11.7815   26.1759 C   0  0  0  0  0  0  0  0  0  0  0  0
    7.5329  -15.2264   22.2749 N   0  0  0  0  0  0  0  0  0  0  0  0
    8.0945  -15.6583   21.0369 C   0  0  1  0  0  0  0  0  0  0  0  0
    7.9796  -14.5504   20.0181 C   0  0  0  0  0  0  0  0  0  0  0  0
    8.5461  -14.8764   18.6774 C   0  0  0  0  0  0  0  0  0  0  0  0
    8.3212  -13.7868   17.6593 C   0  0  0  0  0  0  0  0  0  0  0  0
    8.8892  -14.2038   16.3206 C   0  0  0  0  0  0  0  0  0  0  0  0
    8.8306  -13.0818   15.4053 N   0  0  0  0  0  0  0  0  0  0  0  0
    9.5360  -16.0174   21.1632 C   0  0  0  0  0  0  0  0  0  0  0  0
   10.3415  -15.1997   21.6790 O   0  0  0  0  0  0  0  0  0  0  0  0
   11.2567  -19.1578   22.7266 C   0  0  0  0  0  0  0  0  0  0  0  0
   11.5639  -19.0360   21.2516 C   0  0  1  0  0  0  0  0  0  0  0  0
   10.5136  -19.7046   20.5814 O   0  0  0  0  0  0  0  0  0  0  0  0
   11.4788  -17.5878   20.8030 C   0  0  2  0  0  0  0  0  0  0  0  0
   10.0487  -17.2637   20.7193 N   0  0  0  0  0  0  0  0  0  0  0  0
   12.0887  -17.5048   19.4645 C   0  0  0  0  0  0  0  0  0  0  0  0
   11.3653  -17.4375   18.4541 O   0  0  0  0  0  0  0  0  0  0  0  0
   13.4567  -17.5014   19.3271 O   0  0  0  0  0  0  0  0  0  0  0  0
  2  1  1  0
  2  3  2  0
  4  3  1  0
  5  4  2  0
  6  5  1  0
  7  6  1  0
  7  8  1  1
  9  7  1  0
 10  9  2  0
 11 12  2  0
 11  5  1  0
 12  2  1  0
 13  9  1  0
 14 13  1  0
 15 16  1  0
 14 15  1  6
 16 17  1  0
 18 17  1  0
 19 18  1  0
 20 14  1  0
 20 21  2  0
 23 22  1  1
 24 23  1  0
 25 23  1  0
 25 26  1  6
 26 20  1  0
 27 25  1  0
 28 27  2  0
 29 27  1  0
M  END
$$$$
