YKT.pdb
     RDKit          3D

 29 29  0  0  1  0  0  0  0  0999 V2000
    8.1516  -12.4529   16.7453 O   0  0  0  0  0  0  0  0  0  0  0  0
    8.0041  -12.9369   18.0409 C   0  0  0  0  0  0  0  0  0  0  0  0
    6.7542  -13.1205   18.5933 C   0  0  0  0  0  0  0  0  0  0  0  0
    6.5821  -13.5970   19.8702 C   0  0  0  0  0  0  0  0  0  0  0  0
    7.6696  -13.9078   20.6418 C   0  0  0  0  0  0  0  0  0  0  0  0
    7.4776  -14.4170   22.0067 C   0  0  0  0  0  0  0  0  0  0  0  0
    7.4912  -15.9333   21.9363 C   0  0  2  0  0  0  0  0  0  0  0  0
    6.2165  -16.4714   21.5698 N   0  0  0  0  0  0  0  0  0  0  0  0
    7.8451  -16.4362   23.2936 C   0  0  0  0  0  0  0  0  0  0  0  0
    6.9639  -16.4766   24.2010 O   0  0  0  0  0  0  0  0  0  0  0  0
    8.9328  -13.7423   20.1372 C   0  0  0  0  0  0  0  0  0  0  0  0
    9.0767  -13.2592   18.8443 C   0  0  0  0  0  0  0  0  0  0  0  0
    9.1344  -16.8773   23.6253 N   0  0  0  0  0  0  0  0  0  0  0  0
    9.5667  -17.2193   24.9409 C   0  0  1  0  0  0  0  0  0  0  0  0
   10.6638  -18.2527   24.8576 C   0  0  0  0  0  0  0  0  0  0  0  0
   11.1338  -18.7692   26.1756 C   0  0  0  0  0  0  0  0  0  0  0  0
   12.1439  -19.8818   26.0490 C   0  0  0  0  0  0  0  0  0  0  0  0
   12.5325  -20.3870   27.4210 C   0  0  0  0  0  0  0  0  0  0  0  0
   13.2976  -21.6098   27.2818 N   0  0  0  0  0  0  0  0  0  0  0  0
   10.1004  -16.0431   25.6856 C   0  0  0  0  0  0  0  0  0  0  0  0
   10.9594  -15.2984   25.1463 O   0  0  0  0  0  0  0  0  0  0  0  0
    8.7415  -12.9580   26.5934 C   0  0  0  0  0  0  0  0  0  0  0  0
    9.1114  -13.5851   27.9181 C   0  0  1  0  0  0  0  0  0  0  0  0
    7.9863  -14.3448   28.3137 O   0  0  0  0  0  0  0  0  0  0  0  0
   10.2393  -14.5864   27.7421 C   0  0  2  0  0  0  0  0  0  0  0  0
    9.6740  -15.7208   27.0000 N   0  0  0  0  0  0  0  0  0  0  0  0
   10.6524  -15.0253   29.0864 C   0  0  0  0  0  0  0  0  0  0  0  0
   10.4674  -16.2039   29.4405 O   0  0  0  0  0  0  0  0  0  0  0  0
   11.2427  -14.1360   29.9530 O   0  0  0  0  0  0  0  0  0  0  0  0
  2  1  1  0
  2  3  2  0
  4  3  1  0
  5  4  2  0
  6  5  1  0
  7  6  1  0
  7  8  1  1
  9  7  1  0
 10  9  2  0
 11 12  2  0
 11  5  1  0
 12  2  1  0
 13  9  1  0
 14 13  1  0
 15 16  1  0
 14 15  1  6
 16 17  1  0
 18 17  1  0
 19 18  1  0
 20 14  1  0
 20 21  2  0
 23 22  1  6
 24 23  1  0
 25 23  1  0
 25 26  1  6
 26 20  1  0
 27 25  1  0
 28 27  2  0
 29 27  1  0
M  END
$$$$
