YKT.pdb
     RDKit          3D

 29 29  0  0  1  0  0  0  0  0999 V2000
    6.1190  -10.5759   26.9109 O   0  0  0  0  0  0  0  0  0  0  0  0
    6.3367  -11.9311   26.6859 C   0  0  0  0  0  0  0  0  0  0  0  0
    5.2829  -12.7955   26.4775 C   0  0  0  0  0  0  0  0  0  0  0  0
    5.4716  -14.1377   26.2532 C   0  0  0  0  0  0  0  0  0  0  0  0
    6.7367  -14.6610   26.2306 C   0  0  0  0  0  0  0  0  0  0  0  0
    6.9306  -16.0976   25.9901 C   0  0  0  0  0  0  0  0  0  0  0  0
    6.3038  -16.4261   24.6471 C   0  0  2  0  0  0  0  0  0  0  0  0
    5.7857  -17.7596   24.6013 N   0  0  0  0  0  0  0  0  0  0  0  0
    7.3724  -16.2973   23.6167 C   0  0  0  0  0  0  0  0  0  0  0  0
    8.2025  -17.2375   23.4478 O   0  0  0  0  0  0  0  0  0  0  0  0
    7.8166  -13.8420   26.4325 C   0  0  0  0  0  0  0  0  0  0  0  0
    7.5961  -12.4904   26.6567 C   0  0  0  0  0  0  0  0  0  0  0  0
    7.5091  -15.1615   22.8053 N   0  0  0  0  0  0  0  0  0  0  0  0
    8.5686  -14.9459   21.8750 C   0  0  1  0  0  0  0  0  0  0  0  0
    8.5679  -13.5013   21.4372 C   0  0  0  0  0  0  0  0  0  0  0  0
    7.8951  -13.2471   20.1305 C   0  0  0  0  0  0  0  0  0  0  0  0
    8.6379  -13.8367   18.9580 C   0  0  0  0  0  0  0  0  0  0  0  0
    7.8543  -13.6133   17.6833 C   0  0  0  0  0  0  0  0  0  0  0  0
    8.5558  -14.2307   16.5757 N   0  0  0  0  0  0  0  0  0  0  0  0
    9.9064  -15.2471   22.4599 C   0  0  0  0  0  0  0  0  0  0  0  0
   10.3966  -14.4797   23.3284 O   0  0  0  0  0  0  0  0  0  0  0  0
   11.3301  -17.9455   24.5301 C   0  0  0  0  0  0  0  0  0  0  0  0
   12.0497  -17.9729   23.2011 C   0  0  1  0  0  0  0  0  0  0  0  0
   11.2720  -18.7991   22.3573 O   0  0  0  0  0  0  0  0  0  0  0  0
   12.0356  -16.5992   22.5541 C   0  0  2  0  0  0  0  0  0  0  0  0
   10.6649  -16.3821   22.0731 N   0  0  0  0  0  0  0  0  0  0  0  0
   12.9649  -16.6409   21.4117 C   0  0  0  0  0  0  0  0  0  0  0  0
   14.1933  -16.5994   21.6070 O   0  0  0  0  0  0  0  0  0  0  0  0
   12.4794  -16.7256   20.1282 O   0  0  0  0  0  0  0  0  0  0  0  0
  2  1  1  0
  2  3  2  0
  4  3  1  0
  5  4  2  0
  6  5  1  0
  7  6  1  0
  7  8  1  1
  9  7  1  0
 10  9  2  0
 11 12  2  0
 11  5  1  0
 12  2  1  0
 13  9  1  0
 14 13  1  0
 15 16  1  0
 14 15  1  1
 16 17  1  0
 18 17  1  0
 19 18  1  0
 20 14  1  0
 20 21  2  0
 23 22  1  1
 24 23  1  0
 25 23  1  0
 25 26  1  6
 26 20  1  0
 27 25  1  0
 28 27  2  0
 29 27  1  0
M  END
$$$$
