TRE.pdb
     RDKit          3D

 28 27  0  0  1  0  0  0  0  0999 V2000
   26.3461  -19.7110  -18.0570 C   0  0  0  0  0  0  0  0  0  0  0  0
   27.0416  -21.0332  -18.1151 C   0  0  1  0  0  0  0  0  0  0  0  0
   28.1486  -20.9247  -18.9555 O   0  0  0  0  0  0  0  0  0  0  0  0
   27.3992  -21.5768  -16.7561 C   0  0  2  0  0  0  0  0  0  0  0  0
   28.0924  -22.8290  -16.9579 N   0  0  0  0  0  0  0  0  0  0  0  0
   26.2320  -21.7574  -15.8728 C   0  0  0  0  0  0  0  0  0  0  0  0
   25.4252  -22.7051  -16.1132 O   0  0  0  0  0  0  0  0  0  0  0  0
   26.2149  -20.3487   -7.7974 N   0  0  0  0  0  0  0  0  0  0  0  0
   25.0700  -20.5551   -8.6091 C   0  0  0  0  0  0  0  0  0  0  0  0
   23.8874  -20.5618   -8.1119 N   0  0  0  0  0  0  0  0  0  0  0  0
   25.1913  -20.7657  -10.0251 N   0  0  0  0  0  0  0  0  0  0  0  0
   26.1901  -21.6771  -10.5363 C   0  0  0  0  0  0  0  0  0  0  0  0
   26.2810  -21.5744  -12.0602 C   0  0  0  0  0  0  0  0  0  0  0  0
   25.1429  -20.6849  -12.5427 C   0  0  0  0  0  0  0  0  0  0  0  0
   24.7482  -21.0581  -13.9574 C   0  0  2  0  0  0  0  0  0  0  0  0
   25.9466  -20.9388  -14.7646 N   0  0  0  0  0  0  0  0  0  0  0  0
   23.6674  -20.1771  -14.4135 C   0  0  0  0  0  0  0  0  0  0  0  0
   23.9218  -19.0133  -14.8095 O   0  0  0  0  0  0  0  0  0  0  0  0
   23.0730  -20.7056   -8.7305 N   0  0  0  0  0  0  0  0  0  0  0  0
   22.3100  -20.5958  -14.4263 C   0  0  2  0  0  0  0  0  0  0  0  0
   21.2673  -19.6960  -14.9572 C   0  0  0  0  0  0  0  0  0  0  0  0
   21.4652  -19.5750  -16.4362 C   0  0  0  0  0  0  0  0  0  0  0  0
   21.0790  -20.7772  -17.2326 C   0  0  0  0  0  0  0  0  0  0  0  0
   21.8331  -20.9986  -18.4613 O   0  0  0  0  0  0  0  0  0  0  0  0
   22.7661  -21.8257  -18.5166 C   0  0  0  0  0  0  0  0  0  0  0  0
   19.9312  -20.1944  -14.5611 O   0  0  0  0  0  0  0  0  0  0  0  0
   18.7832  -19.4249  -14.8223 O   0  0  0  0  0  0  0  0  0  0  0  0
   21.5157  -20.2807  -19.5993 O   0  0  0  0  0  0  0  0  0  0  0  0
  2  1  1  1
  2  3  1  0
  4  2  1  0
  4  6  1  0
  4  5  1  6
  6  7  2  0
  9 10  2  0
  9  8  1  0
 11  9  1  0
 12 11  1  0
 13 12  1  0
 14 13  1  0
 15 14  1  1
 16  6  1  0
 16 15  1  0
 17 15  1  0
 17 19  1  0
 18 17  2  0
 20 19  1  0
 20 21  1  6
 21 22  1  0
 22 23  1  0
 23 24  2  0
 23 27  1  0
 25 26  1  0
 25 20  1  0
 28 25  2  0
M  END
$$$$
