TRE.pdb
     RDKit          3D

 28 27  0  0  1  0  0  0  0  0999 V2000
   26.9190  -22.0897  -10.3297 C   0  0  0  0  0  0  0  0  0  0  0  0
   26.2716  -21.5888  -11.5807 C   0  0  1  0  0  0  0  0  0  0  0  0
   25.4518  -22.5909  -12.0975 O   0  0  0  0  0  0  0  0  0  0  0  0
   25.5402  -20.2852  -11.3904 C   0  0  2  0  0  0  0  0  0  0  0  0
   24.4879  -20.5144  -10.4263 N   0  0  0  0  0  0  0  0  0  0  0  0
   24.9945  -19.7324  -12.6442 C   0  0  0  0  0  0  0  0  0  0  0  0
   23.7366  -19.6733  -12.7889 O   0  0  0  0  0  0  0  0  0  0  0  0
   29.4820  -21.8908  -16.2083 N   0  0  0  0  0  0  0  0  0  0  0  0
   29.1967  -21.4754  -17.5343 C   0  0  0  0  0  0  0  0  0  0  0  0
   29.2435  -22.2961  -18.5193 N   0  0  0  0  0  0  0  0  0  0  0  0
   28.8430  -20.1139  -17.8264 N   0  0  0  0  0  0  0  0  0  0  0  0
   28.6218  -19.1781  -16.7471 C   0  0  0  0  0  0  0  0  0  0  0  0
   27.4257  -19.6117  -15.8972 C   0  0  0  0  0  0  0  0  0  0  0  0
   26.4377  -18.4538  -15.8460 C   0  0  0  0  0  0  0  0  0  0  0  0
   25.2482  -18.8160  -14.9798 C   0  0  2  0  0  0  0  0  0  0  0  0
   25.7845  -19.2585  -13.7076 N   0  0  0  0  0  0  0  0  0  0  0  0
   24.4508  -19.8495  -15.6493 C   0  0  0  0  0  0  0  0  0  0  0  0
   24.6532  -21.0643  -15.4056 O   0  0  0  0  0  0  0  0  0  0  0  0
   29.0207  -21.9653  -19.4719 N   0  0  0  0  0  0  0  0  0  0  0  0
   23.4330  -19.5257  -16.5858 C   0  0  1  0  0  0  0  0  0  0  0  0
   22.1796  -20.3051  -16.6095 C   0  0  0  0  0  0  0  0  0  0  0  0
   21.5540  -20.2224  -15.2519 C   0  0  0  0  0  0  0  0  0  0  0  0
   20.2301  -20.8990  -15.1166 C   0  0  0  0  0  0  0  0  0  0  0  0
   19.5464  -20.7154  -13.8414 O   0  0  0  0  0  0  0  0  0  0  0  0
   18.6051  -19.9058  -13.7140 C   0  0  0  0  0  0  0  0  0  0  0  0
   21.3140  -19.8222  -17.7085 O   0  0  0  0  0  0  0  0  0  0  0  0
   21.3006  -18.4581  -18.0511 O   0  0  0  0  0  0  0  0  0  0  0  0
   19.9417  -21.4506  -12.7394 O   0  0  0  0  0  0  0  0  0  0  0  0
  2  1  1  1
  2  3  1  0
  4  2  1  0
  4  6  1  0
  4  5  1  1
  6  7  2  0
  9 10  2  0
  9  8  1  0
 11  9  1  0
 12 11  1  0
 13 12  1  0
 14 13  1  0
 15 14  1  6
 16  6  1  0
 16 15  1  0
 17 15  1  0
 17 19  1  0
 18 17  2  0
 20 19  1  0
 20 21  1  6
 21 22  1  0
 22 23  1  0
 23 24  2  0
 23 27  1  0
 25 26  1  0
 25 20  1  0
 28 25  2  0
M  END
$$$$
