TRE.pdb
     RDKit          3D

 28 27  0  0  1  0  0  0  0  0999 V2000
   19.8653  -22.3492  -17.5269 C   0  0  0  0  0  0  0  0  0  0  0  0
   19.0509  -22.0408  -16.3116 C   0  0  1  0  0  0  0  0  0  0  0  0
   17.9493  -22.8945  -16.2775 O   0  0  0  0  0  0  0  0  0  0  0  0
   19.8505  -22.0784  -15.0351 C   0  0  2  0  0  0  0  0  0  0  0  0
   18.9361  -21.8341  -13.9425 N   0  0  0  0  0  0  0  0  0  0  0  0
   20.9653  -21.1130  -15.0147 C   0  0  0  0  0  0  0  0  0  0  0  0
   20.7005  -19.8738  -15.0476 O   0  0  0  0  0  0  0  0  0  0  0  0
   27.0546  -20.2137  -10.2864 N   0  0  0  0  0  0  0  0  0  0  0  0
   25.9233  -20.9672   -9.8803 C   0  0  0  0  0  0  0  0  0  0  0  0
   25.3272  -20.7359   -8.7681 N   0  0  0  0  0  0  0  0  0  0  0  0
   25.3998  -22.0228  -10.7023 N   0  0  0  0  0  0  0  0  0  0  0  0
   25.5529  -21.9629  -12.1384 C   0  0  0  0  0  0  0  0  0  0  0  0
   24.3654  -21.2381  -12.7753 C   0  0  0  0  0  0  0  0  0  0  0  0
   24.5846  -21.2050  -14.2820 C   0  0  0  0  0  0  0  0  0  0  0  0
   23.4171  -20.5248  -14.9679 C   0  0  2  0  0  0  0  0  0  0  0  0
   22.3234  -21.4765  -14.9604 N   0  0  0  0  0  0  0  0  0  0  0  0
   23.8105  -20.1238  -16.3231 C   0  0  0  0  0  0  0  0  0  0  0  0
   24.0686  -20.9923  -17.1921 O   0  0  0  0  0  0  0  0  0  0  0  0
   24.4940  -21.2887   -8.5095 N   0  0  0  0  0  0  0  0  0  0  0  0
   23.9144  -18.7591  -16.7037 C   0  0  2  0  0  0  0  0  0  0  0  0
   24.3644  -18.4069  -18.0647 C   0  0  0  0  0  0  0  0  0  0  0  0
   23.6063  -17.1939  -18.5067 C   0  0  0  0  0  0  0  0  0  0  0  0
   22.1248  -17.3603  -18.5854 C   0  0  0  0  0  0  0  0  0  0  0  0
   21.3743  -16.1943  -19.0378 O   0  0  0  0  0  0  0  0  0  0  0  0
   21.7169  -15.0348  -18.7282 C   0  0  0  0  0  0  0  0  0  0  0  0
   25.8352  -18.2425  -18.0756 O   0  0  0  0  0  0  0  0  0  0  0  0
   26.5519  -18.3665  -19.2793 O   0  0  0  0  0  0  0  0  0  0  0  0
   20.2540  -16.3651  -19.8296 O   0  0  0  0  0  0  0  0  0  0  0  0
  2  1  1  6
  2  3  1  0
  4  2  1  0
  4  6  1  0
  4  5  1  1
  6  7  2  0
  9 10  2  0
  9  8  1  0
 11  9  1  0
 12 11  1  0
 13 12  1  0
 14 13  1  0
 15 14  1  6
 16  6  1  0
 16 15  1  0
 17 15  1  0
 17 19  1  0
 18 17  2  0
 20 19  1  0
 20 21  1  6
 21 22  1  0
 22 23  1  0
 23 24  2  0
 23 27  1  0
 25 26  1  0
 25 20  1  0
 28 25  2  0
M  END
$$$$
