TRE.pdb
     RDKit          3D

 28 27  0  0  1  0  0  0  0  0999 V2000
   25.7244  -19.4595   -9.4220 C   0  0  0  0  0  0  0  0  0  0  0  0
   25.4724  -20.9223   -9.6006 C   0  0  1  0  0  0  0  0  0  0  0  0
   24.1076  -21.1666   -9.4553 O   0  0  0  0  0  0  0  0  0  0  0  0
   26.0221  -21.4666  -10.8937 C   0  0  2  0  0  0  0  0  0  0  0  0
   27.4284  -21.1355  -10.9412 N   0  0  0  0  0  0  0  0  0  0  0  0
   25.3207  -20.9580  -12.0873 C   0  0  0  0  0  0  0  0  0  0  0  0
   25.6490  -19.8254  -12.5521 O   0  0  0  0  0  0  0  0  0  0  0  0
   27.8983  -23.9288  -16.6653 N   0  0  0  0  0  0  0  0  0  0  0  0
   26.7073  -24.3590  -17.3047 C   0  0  0  0  0  0  0  0  0  0  0  0
   26.6217  -25.5138  -17.8567 N   0  0  0  0  0  0  0  0  0  0  0  0
   25.5464  -23.5142  -17.3588 N   0  0  0  0  0  0  0  0  0  0  0  0
   25.4027  -22.4240  -16.4207 C   0  0  0  0  0  0  0  0  0  0  0  0
   24.8206  -22.9268  -15.0981 C   0  0  0  0  0  0  0  0  0  0  0  0
   23.4639  -22.2648  -14.8967 C   0  0  0  0  0  0  0  0  0  0  0  0
   23.5766  -21.1283  -13.9007 C   0  0  2  0  0  0  0  0  0  0  0  0
   24.2967  -21.6528  -12.7569 N   0  0  0  0  0  0  0  0  0  0  0  0
   22.2354  -20.6457  -13.5537 C   0  0  0  0  0  0  0  0  0  0  0  0
   21.5299  -21.2726  -12.7259 O   0  0  0  0  0  0  0  0  0  0  0  0
   25.7377  -25.8016  -18.3066 N   0  0  0  0  0  0  0  0  0  0  0  0
   21.6869  -19.4686  -14.1295 C   0  0  2  0  0  0  0  0  0  0  0  0
   20.3533  -18.9960  -13.7088 C   0  0  0  0  0  0  0  0  0  0  0  0
   20.1308  -17.6400  -14.3028 C   0  0  0  0  0  0  0  0  0  0  0  0
   18.7676  -17.0678  -14.0954 C   0  0  0  0  0  0  0  0  0  0  0  0
   18.4795  -15.8288  -14.8090 O   0  0  0  0  0  0  0  0  0  0  0  0
   17.3466  -15.3059  -14.7817 C   0  0  0  0  0  0  0  0  0  0  0  0
   19.3300  -19.9984  -14.0809 O   0  0  0  0  0  0  0  0  0  0  0  0
   18.2090  -20.2043  -13.2568 O   0  0  0  0  0  0  0  0  0  0  0  0
   19.4779  -15.2091  -15.5373 O   0  0  0  0  0  0  0  0  0  0  0  0
  2  1  1  6
  2  3  1  0
  4  2  1  0
  4  6  1  0
  4  5  1  6
  6  7  2  0
  9 10  2  0
  9  8  1  0
 11  9  1  0
 12 11  1  0
 13 12  1  0
 14 13  1  0
 15 14  1  6
 16  6  1  0
 16 15  1  0
 17 15  1  0
 17 19  1  0
 18 17  2  0
 20 19  1  0
 20 21  1  6
 21 22  1  0
 22 23  1  0
 23 24  2  0
 23 27  1  0
 25 26  1  0
 25 20  1  0
 28 25  2  0
M  END
$$$$
