TRE.pdb
     RDKit          3D

 28 27  0  0  1  0  0  0  0  0999 V2000
   28.2073  -16.6926  -19.4719 C   0  0  0  0  0  0  0  0  0  0  0  0
   27.3174  -17.4160  -18.5127 C   0  0  1  0  0  0  0  0  0  0  0  0
   26.0293  -17.4685  -19.0432 O   0  0  0  0  0  0  0  0  0  0  0  0
   27.8394  -18.7760  -18.1278 C   0  0  2  0  0  0  0  0  0  0  0  0
   27.9490  -19.5577  -19.3387 N   0  0  0  0  0  0  0  0  0  0  0  0
   26.9984  -19.4645  -17.1308 C   0  0  0  0  0  0  0  0  0  0  0  0
   25.9882  -20.1176  -17.5307 O   0  0  0  0  0  0  0  0  0  0  0  0
   26.2916  -20.1201   -8.7132 N   0  0  0  0  0  0  0  0  0  0  0  0
   25.3414  -20.8969   -9.4244 C   0  0  0  0  0  0  0  0  0  0  0  0
   24.0874  -20.8276   -9.1630 N   0  0  0  0  0  0  0  0  0  0  0  0
   25.7487  -21.7951  -10.4692 N   0  0  0  0  0  0  0  0  0  0  0  0
   26.6601  -21.3424  -11.4958 C   0  0  0  0  0  0  0  0  0  0  0  0
   26.0455  -20.1864  -12.2877 C   0  0  0  0  0  0  0  0  0  0  0  0
   27.0070  -19.8183  -13.4099 C   0  0  0  0  0  0  0  0  0  0  0  0
   26.3355  -19.9968  -14.7566 C   0  0  2  0  0  0  0  0  0  0  0  0
   27.2424  -19.4471  -15.7453 N   0  0  0  0  0  0  0  0  0  0  0  0
   25.0317  -19.3246  -14.7474 C   0  0  0  0  0  0  0  0  0  0  0  0
   24.9613  -18.0782  -14.6150 O   0  0  0  0  0  0  0  0  0  0  0  0
   23.4200  -21.4043   -9.7002 N   0  0  0  0  0  0  0  0  0  0  0  0
   23.8138  -20.0426  -14.8855 C   0  0  2  0  0  0  0  0  0  0  0  0
   22.5247  -19.3287  -14.7998 C   0  0  0  0  0  0  0  0  0  0  0  0
   21.8302  -19.4609  -16.1195 C   0  0  0  0  0  0  0  0  0  0  0  0
   20.4371  -18.9263  -16.1644 C   0  0  0  0  0  0  0  0  0  0  0  0
   19.7025  -19.1610  -17.4023 O   0  0  0  0  0  0  0  0  0  0  0  0
   20.2303  -19.7321  -18.3785 C   0  0  0  0  0  0  0  0  0  0  0  0
   21.7474  -19.8414  -13.6494 O   0  0  0  0  0  0  0  0  0  0  0  0
   20.6880  -19.0843  -13.1177 O   0  0  0  0  0  0  0  0  0  0  0  0
   18.3884  -18.7451  -17.5091 O   0  0  0  0  0  0  0  0  0  0  0  0
  2  1  1  6
  2  3  1  0
  4  2  1  0
  4  6  1  0
  4  5  1  6
  6  7  2  0
  9 10  2  0
  9  8  1  0
 11  9  1  0
 12 11  1  0
 13 12  1  0
 14 13  1  0
 15 14  1  1
 16  6  1  0
 16 15  1  0
 17 15  1  0
 17 19  1  0
 18 17  2  0
 20 19  1  0
 20 21  1  6
 21 22  1  0
 22 23  1  0
 23 24  2  0
 23 27  1  0
 25 26  1  0
 25 20  1  0
 28 25  2  0
M  END
$$$$
