TRE.pdb
     RDKit          3D

 28 27  0  0  1  0  0  0  0  0999 V2000
   26.6038  -16.8874  -17.0056 C   0  0  0  0  0  0  0  0  0  0  0  0
   27.1910  -17.8797  -17.9573 C   0  0  1  0  0  0  0  0  0  0  0  0
   28.0184  -17.2085  -18.8563 O   0  0  0  0  0  0  0  0  0  0  0  0
   27.8929  -19.0209  -17.2678 C   0  0  2  0  0  0  0  0  0  0  0  0
   28.4282  -19.8857  -18.2949 N   0  0  0  0  0  0  0  0  0  0  0  0
   27.0202  -19.7738  -16.3475 C   0  0  0  0  0  0  0  0  0  0  0  0
   26.1892  -20.5991  -16.8323 O   0  0  0  0  0  0  0  0  0  0  0  0
   26.9844  -20.5230   -7.4504 N   0  0  0  0  0  0  0  0  0  0  0  0
   25.7440  -21.0692   -7.8692 C   0  0  0  0  0  0  0  0  0  0  0  0
   24.8842  -21.5074   -7.0240 N   0  0  0  0  0  0  0  0  0  0  0  0
   25.4017  -21.1533   -9.2621 N   0  0  0  0  0  0  0  0  0  0  0  0
   26.2162  -20.4787  -10.2475 C   0  0  0  0  0  0  0  0  0  0  0  0
   25.6093  -20.6345  -11.6434 C   0  0  0  0  0  0  0  0  0  0  0  0
   26.5796  -20.0318  -12.6506 C   0  0  0  0  0  0  0  0  0  0  0  0
   26.0537  -20.2134  -14.0602 C   0  0  2  0  0  0  0  0  0  0  0  0
   27.0457  -19.6382  -14.9474 N   0  0  0  0  0  0  0  0  0  0  0  0
   24.7422  -19.5673  -14.1812 C   0  0  0  0  0  0  0  0  0  0  0  0
   24.6301  -18.3259  -14.0320 O   0  0  0  0  0  0  0  0  0  0  0  0
   23.9984  -21.9177   -7.3610 N   0  0  0  0  0  0  0  0  0  0  0  0
   23.5630  -20.3059  -14.4675 C   0  0  1  0  0  0  0  0  0  0  0  0
   22.2564  -19.6203  -14.5067 C   0  0  0  0  0  0  0  0  0  0  0  0
   21.8067  -19.5559  -15.9332 C   0  0  0  0  0  0  0  0  0  0  0  0
   20.4351  -19.0063  -16.1462 C   0  0  0  0  0  0  0  0  0  0  0  0
   20.3138  -17.9679  -17.1632 O   0  0  0  0  0  0  0  0  0  0  0  0
   21.2491  -17.7075  -17.9476 C   0  0  0  0  0  0  0  0  0  0  0  0
   21.3078  -20.3049  -13.6002 O   0  0  0  0  0  0  0  0  0  0  0  0
   21.5775  -21.6091  -13.1481 O   0  0  0  0  0  0  0  0  0  0  0  0
   19.1389  -17.2475  -17.2708 O   0  0  0  0  0  0  0  0  0  0  0  0
  2  1  1  1
  2  3  1  0
  4  2  1  0
  4  6  1  0
  4  5  1  6
  6  7  2  0
  9 10  2  0
  9  8  1  0
 11  9  1  0
 12 11  1  0
 13 12  1  0
 14 13  1  0
 15 14  1  1
 16  6  1  0
 16 15  1  0
 17 15  1  0
 17 19  1  0
 18 17  2  0
 20 19  1  0
 20 21  1  6
 21 22  1  0
 22 23  1  0
 23 24  2  0
 23 27  1  0
 25 26  1  0
 25 20  1  0
 28 25  2  0
M  END
$$$$
