TRE.pdb
     RDKit          3D

 28 27  0  0  1  0  0  0  0  0999 V2000
   26.5650  -10.3497  -15.5679 C   0  0  0  0  0  0  0  0  0  0  0  0
   26.6020  -11.1793  -16.8112 C   0  0  1  0  0  0  0  0  0  0  0  0
   27.7022  -12.0334  -16.7517 O   0  0  0  0  0  0  0  0  0  0  0  0
   25.3134  -11.9147  -17.0734 C   0  0  2  0  0  0  0  0  0  0  0  0
   25.4854  -12.6708  -18.2934 N   0  0  0  0  0  0  0  0  0  0  0  0
   24.1407  -11.0250  -17.1661 C   0  0  0  0  0  0  0  0  0  0  0  0
   23.8560  -10.5049  -18.2865 O   0  0  0  0  0  0  0  0  0  0  0  0
   16.6409  -12.1740  -13.9022 N   0  0  0  0  0  0  0  0  0  0  0  0
   17.4796  -12.5355  -14.9877 C   0  0  0  0  0  0  0  0  0  0  0  0
   17.3768  -13.6771  -15.5638 N   0  0  0  0  0  0  0  0  0  0  0  0
   18.4806  -11.6331  -15.4857 N   0  0  0  0  0  0  0  0  0  0  0  0
   18.6170  -10.3157  -14.9065 C   0  0  0  0  0  0  0  0  0  0  0  0
   19.7839   -9.5643  -15.5506 C   0  0  0  0  0  0  0  0  0  0  0  0
   20.9995  -10.4816  -15.5415 C   0  0  0  0  0  0  0  0  0  0  0  0
   22.1915   -9.7802  -16.1609 C   0  0  2  0  0  0  0  0  0  0  0  0
   23.3027  -10.7082  -16.0813 N   0  0  0  0  0  0  0  0  0  0  0  0
   22.4483   -8.5255  -15.4456 C   0  0  0  0  0  0  0  0  0  0  0  0
   22.9331   -8.5428  -14.2877 O   0  0  0  0  0  0  0  0  0  0  0  0
   17.9644  -13.8902  -16.3859 N   0  0  0  0  0  0  0  0  0  0  0  0
   22.1643   -7.2587  -16.0224 C   0  0  2  0  0  0  0  0  0  0  0  0
   22.5771   -6.0240  -15.3267 C   0  0  0  0  0  0  0  0  0  0  0  0
   22.3857   -4.8739  -16.2658 C   0  0  0  0  0  0  0  0  0  0  0  0
   22.7526   -3.5345  -15.7182 C   0  0  0  0  0  0  0  0  0  0  0  0
   22.5843   -2.4053  -16.6260 O   0  0  0  0  0  0  0  0  0  0  0  0
   22.2355   -2.5664  -17.8134 C   0  0  0  0  0  0  0  0  0  0  0  0
   21.8346   -5.8989  -14.0525 O   0  0  0  0  0  0  0  0  0  0  0  0
   20.5471   -6.4509  -13.9270 O   0  0  0  0  0  0  0  0  0  0  0  0
   22.8139   -1.1201  -16.1714 O   0  0  0  0  0  0  0  0  0  0  0  0
  2  1  1  1
  2  3  1  0
  4  2  1  0
  4  6  1  0
  4  5  1  6
  6  7  2  0
  9 10  2  0
  9  8  1  0
 11  9  1  0
 12 11  1  0
 13 12  1  0
 14 13  1  0
 15 14  1  1
 16  6  1  0
 16 15  1  0
 17 15  1  0
 17 19  1  0
 18 17  2  0
 20 19  1  0
 20 21  1  6
 21 22  1  0
 22 23  1  0
 23 24  2  0
 23 27  1  0
 25 26  1  0
 25 20  1  0
 28 25  2  0
M  END
$$$$
