TRE.pdb
     RDKit          3D

 28 27  0  0  1  0  0  0  0  0999 V2000
   28.3776  -22.5345  -18.7295 C   0  0  0  0  0  0  0  0  0  0  0  0
   27.2782  -22.4272  -17.7220 C   0  0  1  0  0  0  0  0  0  0  0  0
   26.0770  -22.8009  -18.3227 O   0  0  0  0  0  0  0  0  0  0  0  0
   27.5548  -23.1964  -16.4563 C   0  0  2  0  0  0  0  0  0  0  0  0
   27.7431  -24.5820  -16.8225 N   0  0  0  0  0  0  0  0  0  0  0  0
   26.4909  -23.0590  -15.4441 C   0  0  0  0  0  0  0  0  0  0  0  0
   25.8000  -24.0780  -15.1424 O   0  0  0  0  0  0  0  0  0  0  0  0
   26.1783  -19.7744   -7.8638 N   0  0  0  0  0  0  0  0  0  0  0  0
   25.1387  -20.3916   -8.6058 C   0  0  0  0  0  0  0  0  0  0  0  0
   23.9597  -20.5319   -8.1201 N   0  0  0  0  0  0  0  0  0  0  0  0
   25.3673  -20.8855   -9.9355 N   0  0  0  0  0  0  0  0  0  0  0  0
   26.6585  -20.7059  -10.5601 C   0  0  0  0  0  0  0  0  0  0  0  0
   26.6805  -21.3572  -11.9445 C   0  0  0  0  0  0  0  0  0  0  0  0
   25.5688  -20.7338  -12.7780 C   0  0  0  0  0  0  0  0  0  0  0  0
   25.0940  -21.7104  -13.8350 C   0  0  2  0  0  0  0  0  0  0  0  0
   26.1842  -21.8575  -14.7794 N   0  0  0  0  0  0  0  0  0  0  0  0
   23.8684  -21.2000  -14.4589 C   0  0  0  0  0  0  0  0  0  0  0  0
   23.9260  -20.2816  -15.3129 O   0  0  0  0  0  0  0  0  0  0  0  0
   23.2259  -20.9921   -8.6825 N   0  0  0  0  0  0  0  0  0  0  0  0
   22.5858  -21.7141  -14.1293 C   0  0  2  0  0  0  0  0  0  0  0  0
   21.3815  -21.1588  -14.7774 C   0  0  0  0  0  0  0  0  0  0  0  0
   20.2080  -21.9975  -14.3765 C   0  0  0  0  0  0  0  0  0  0  0  0
   19.2509  -22.3232  -15.4750 C   0  0  0  0  0  0  0  0  0  0  0  0
   18.8792  -23.7278  -15.6028 O   0  0  0  0  0  0  0  0  0  0  0  0
   18.2125  -24.3111  -14.7235 C   0  0  0  0  0  0  0  0  0  0  0  0
   21.2491  -19.7248  -14.4360 O   0  0  0  0  0  0  0  0  0  0  0  0
   20.7866  -18.8085  -15.3976 O   0  0  0  0  0  0  0  0  0  0  0  0
   19.2692  -24.4412  -16.7209 O   0  0  0  0  0  0  0  0  0  0  0  0
  2  1  1  6
  2  3  1  0
  4  2  1  0
  4  6  1  0
  4  5  1  6
  6  7  2  0
  9 10  2  0
  9  8  1  0
 11  9  1  0
 12 11  1  0
 13 12  1  0
 14 13  1  0
 15 14  1  1
 16  6  1  0
 16 15  1  0
 17 15  1  0
 17 19  1  0
 18 17  2  0
 20 19  1  0
 20 21  1  1
 21 22  1  0
 22 23  1  0
 23 24  2  0
 23 27  1  0
 25 26  1  0
 25 20  1  0
 28 25  2  0
M  END
$$$$
