AMV.pdb
     RDKit          3D

 21 20  0  0  1  0  0  0  0  0999 V2000
   14.4656  -22.4564    0.9838 C   0  0  0  0  0  0  0  0  0  0  0  0
   15.4346  -21.6328    0.1962 C   0  0  2  0  0  0  0  0  0  0  0  0
   15.9562  -22.3231   -0.9674 N   0  0  0  0  0  0  0  0  0  0  0  0
   16.5259  -21.1493    1.0748 C   0  0  0  0  0  0  0  0  0  0  0  0
   17.6977  -21.4987    0.8115 O   0  0  0  0  0  0  0  0  0  0  0  0
   21.6644  -16.9540    1.3887 C   0  0  0  0  0  0  0  0  0  0  0  0
   19.8726  -16.7222    1.4483 S   0  0  0  0  0  0  0  0  0  0  0  0
   19.0887  -17.8537    2.6156 C   0  0  0  0  0  0  0  0  0  0  0  0
   18.0007  -18.6365    1.9321 C   0  0  0  0  0  0  0  0  0  0  0  0
   17.3834  -19.6252    2.8982 C   0  0  2  0  0  0  0  0  0  0  0  0
   16.3204  -20.3154    2.1945 N   0  0  0  0  0  0  0  0  0  0  0  0
   16.8612  -18.9313    4.1025 C   0  0  0  0  0  0  0  0  0  0  0  0
   15.8138  -18.2449    3.9874 O   0  0  0  0  0  0  0  0  0  0  0  0
   17.7324  -20.2477    7.9978 C   0  0  0  0  0  0  0  0  0  0  0  0
   16.4690  -19.5639    7.5244 C   0  0  1  0  0  0  0  0  0  0  0  0
   15.7447  -19.0550    8.7243 C   0  0  0  0  0  0  0  0  0  0  0  0
   16.8337  -18.4775    6.5352 C   0  0  2  0  0  0  0  0  0  0  0  0
   17.4802  -19.0038    5.3651 N   0  0  0  0  0  0  0  0  0  0  0  0
   17.6218  -17.3936    7.1757 C   0  0  0  0  0  0  0  0  0  0  0  0
   18.8743  -17.4927    7.2190 O   0  0  0  0  0  0  0  0  0  0  0  0
   17.0532  -16.2600    7.7384 O   0  0  0  0  0  0  0  0  0  0  0  0
  2  1  1  1
  3  2  1  0
  4  2  1  0
  5  4  2  0
  6  7  1  0
  7  8  1  0
  8  9  1  0
 10  9  1  6
 10 11  1  0
 10 12  1  0
 11  4  1  0
 12 13  2  0
 12 18  1  0
 15 16  1  1
 15 14  1  0
 17 15  1  0
 17 18  1  6
 19 17  1  0
 19 21  1  0
 20 19  2  0
M  END
$$$$
