AMV.pdb
     RDKit          3D

 21 20  0  0  1  0  0  0  0  0999 V2000
   29.0087  -21.7071  -15.5611 C   0  0  0  0  0  0  0  0  0  0  0  0
   27.9660  -20.6721  -15.2793 C   0  0  2  0  0  0  0  0  0  0  0  0
   28.5177  -19.4279  -14.7792 N   0  0  0  0  0  0  0  0  0  0  0  0
   26.9395  -21.2186  -14.3604 C   0  0  0  0  0  0  0  0  0  0  0  0
   26.2407  -22.1779  -14.7555 O   0  0  0  0  0  0  0  0  0  0  0  0
   26.8647  -19.7633   -8.0512 C   0  0  0  0  0  0  0  0  0  0  0  0
   25.4857  -20.9307   -8.1079 S   0  0  0  0  0  0  0  0  0  0  0  0
   24.9856  -21.2959   -9.8031 C   0  0  0  0  0  0  0  0  0  0  0  0
   26.0291  -20.8079  -10.7710 C   0  0  0  0  0  0  0  0  0  0  0  0
   25.6570  -21.2049  -12.1837 C   0  0  2  0  0  0  0  0  0  0  0  0
   26.7030  -20.7191  -13.0621 N   0  0  0  0  0  0  0  0  0  0  0  0
   24.3382  -20.6370  -12.5619 C   0  0  0  0  0  0  0  0  0  0  0  0
   24.2153  -19.3859  -12.5939 O   0  0  0  0  0  0  0  0  0  0  0  0
   22.8204  -20.5156  -15.5939 C   0  0  0  0  0  0  0  0  0  0  0  0
   21.6856  -21.0680  -14.7603 C   0  0  1  0  0  0  0  0  0  0  0  0
   21.5235  -22.5101  -15.1028 C   0  0  0  0  0  0  0  0  0  0  0  0
   21.9823  -20.8262  -13.2957 C   0  0  2  0  0  0  0  0  0  0  0  0
   23.2203  -21.4293  -12.8860 N   0  0  0  0  0  0  0  0  0  0  0  0
   20.8445  -21.2308  -12.4309 C   0  0  0  0  0  0  0  0  0  0  0  0
   20.9877  -22.2045  -11.6486 O   0  0  0  0  0  0  0  0  0  0  0  0
   19.6132  -20.5912  -12.4320 O   0  0  0  0  0  0  0  0  0  0  0  0
  2  1  1  1
  3  2  1  0
  4  2  1  0
  5  4  2  0
  6  7  1  0
  7  8  1  0
  8  9  1  0
 10  9  1  1
 10 11  1  0
 10 12  1  0
 11  4  1  0
 12 13  2  0
 12 18  1  0
 15 16  1  1
 15 14  1  0
 17 15  1  0
 17 18  1  1
 19 17  1  0
 19 21  1  0
 20 19  2  0
M  END
$$$$
