AMV.pdb
     RDKit          3D

 21 20  0  0  1  0  0  0  0  0999 V2000
   17.9043  -14.5893  -16.3836 C   0  0  0  0  0  0  0  0  0  0  0  0
   17.8467  -13.9113  -17.7158 C   0  0  2  0  0  0  0  0  0  0  0  0
   18.2398  -14.7745  -18.8126 N   0  0  0  0  0  0  0  0  0  0  0  0
   18.6505  -12.6663  -17.6901 C   0  0  0  0  0  0  0  0  0  0  0  0
   19.8931  -12.7606  -17.7980 O   0  0  0  0  0  0  0  0  0  0  0  0
   15.9340   -6.5931  -17.9695 C   0  0  0  0  0  0  0  0  0  0  0  0
   17.5231   -6.4631  -18.8212 S   0  0  0  0  0  0  0  0  0  0  0  0
   18.6600   -7.7732  -18.3230 C   0  0  0  0  0  0  0  0  0  0  0  0
   17.9164   -9.0693  -18.1464 C   0  0  0  0  0  0  0  0  0  0  0  0
   18.8581  -10.1487  -17.6564 C   0  0  2  0  0  0  0  0  0  0  0  0
   18.0950  -11.3767  -17.5505 N   0  0  0  0  0  0  0  0  0  0  0  0
   19.4522   -9.7769  -16.3474 C   0  0  0  0  0  0  0  0  0  0  0  0
   18.7371   -9.8792  -15.3179 O   0  0  0  0  0  0  0  0  0  0  0  0
   22.2876  -11.1696  -14.5163 C   0  0  0  0  0  0  0  0  0  0  0  0
   22.5710   -9.6851  -14.5784 C   0  0  1  0  0  0  0  0  0  0  0  0
   23.6588   -9.4663  -15.5745 C   0  0  0  0  0  0  0  0  0  0  0  0
   21.2910   -8.9492  -14.9127 C   0  0  2  0  0  0  0  0  0  0  0  0
   20.7748   -9.3163  -16.2022 N   0  0  0  0  0  0  0  0  0  0  0  0
   21.4482   -7.4795  -14.7656 C   0  0  0  0  0  0  0  0  0  0  0  0
   21.4527   -6.7594  -15.7962 O   0  0  0  0  0  0  0  0  0  0  0  0
   21.5927   -6.8409  -13.5423 O   0  0  0  0  0  0  0  0  0  0  0  0
  2  1  1  1
  3  2  1  0
  4  2  1  0
  5  4  2  0
  6  7  1  0
  7  8  1  0
  8  9  1  0
 10  9  1  1
 10 11  1  0
 10 12  1  0
 11  4  1  0
 12 13  2  0
 12 18  1  0
 15 16  1  6
 15 14  1  0
 17 15  1  0
 17 18  1  6
 19 17  1  0
 19 21  1  0
 20 19  2  0
M  END
$$$$
