AMV.pdb
     RDKit          3D

 21 20  0  0  1  0  0  0  0  0999 V2000
   17.0986  -10.2301  -16.6000 C   0  0  0  0  0  0  0  0  0  0  0  0
   17.8031  -10.0102  -15.2988 C   0  0  2  0  0  0  0  0  0  0  0  0
   18.2924  -11.2371  -14.7005 N   0  0  0  0  0  0  0  0  0  0  0  0
   16.9285   -9.2623  -14.3648 C   0  0  0  0  0  0  0  0  0  0  0  0
   16.5117   -8.1364  -14.7160 O   0  0  0  0  0  0  0  0  0  0  0  0
   11.9421   -9.9360   -8.2731 C   0  0  0  0  0  0  0  0  0  0  0  0
   13.0394  -10.6872   -9.4976 S   0  0  0  0  0  0  0  0  0  0  0  0
   13.9001   -9.4417  -10.4801 C   0  0  0  0  0  0  0  0  0  0  0  0
   14.8742  -10.1001  -11.4189 C   0  0  0  0  0  0  0  0  0  0  0  0
   15.6271   -9.0514  -12.2096 C   0  0  2  0  0  0  0  0  0  0  0  0
   16.5369   -9.7467  -13.0987 N   0  0  0  0  0  0  0  0  0  0  0  0
   16.3649   -8.1354  -11.3034 C   0  0  0  0  0  0  0  0  0  0  0  0
   17.4318   -8.5469  -10.7798 O   0  0  0  0  0  0  0  0  0  0  0  0
   17.1120   -4.4630  -12.1622 C   0  0  0  0  0  0  0  0  0  0  0  0
   16.6680   -4.5129  -10.7172 C   0  0  1  0  0  0  0  0  0  0  0  0
   15.2972   -3.9317  -10.6372 C   0  0  0  0  0  0  0  0  0  0  0  0
   16.7463   -5.9417  -10.2231 C   0  0  2  0  0  0  0  0  0  0  0  0
   15.9295   -6.8308  -11.0019 N   0  0  0  0  0  0  0  0  0  0  0  0
   16.4560   -6.0368   -8.7695 C   0  0  0  0  0  0  0  0  0  0  0  0
   15.3437   -6.4892   -8.3969 O   0  0  0  0  0  0  0  0  0  0  0  0
   17.3498   -5.6514   -7.7807 O   0  0  0  0  0  0  0  0  0  0  0  0
  2  1  1  6
  3  2  1  0
  4  2  1  0
  5  4  2  0
  6  7  1  0
  7  8  1  0
  8  9  1  0
 10  9  1  1
 10 11  1  0
 10 12  1  0
 11  4  1  0
 12 13  2  0
 12 18  1  0
 15 16  1  6
 15 14  1  0
 17 15  1  0
 17 18  1  6
 19 17  1  0
 19 21  1  0
 20 19  2  0
M  END
$$$$
