AMV.pdb
     RDKit          3D

 21 20  0  0  1  0  0  0  0  0999 V2000
   19.2079  -13.9342  -18.0589 C   0  0  0  0  0  0  0  0  0  0  0  0
   19.5426  -12.4779  -18.1283 C   0  0  2  0  0  0  0  0  0  0  0  0
   20.0306  -12.0661  -19.4301 N   0  0  0  0  0  0  0  0  0  0  0  0
   20.4985  -12.1220  -17.0530 C   0  0  0  0  0  0  0  0  0  0  0  0
   20.1739  -12.3599  -15.8687 O   0  0  0  0  0  0  0  0  0  0  0  0
   27.9217  -12.4255  -15.0185 C   0  0  0  0  0  0  0  0  0  0  0  0
   26.7386  -12.1395  -16.3551 S   0  0  0  0  0  0  0  0  0  0  0  0
   25.1423  -11.5772  -15.7284 C   0  0  0  0  0  0  0  0  0  0  0  0
   24.0897  -11.7027  -16.7962 C   0  0  0  0  0  0  0  0  0  0  0  0
   22.7417  -11.2791  -16.2525 C   0  0  2  0  0  0  0  0  0  0  0  0
   21.7573  -11.5288  -17.2870 N   0  0  0  0  0  0  0  0  0  0  0  0
   22.7549   -9.8458  -15.8654 C   0  0  0  0  0  0  0  0  0  0  0  0
   23.5795   -9.4720  -14.9924 O   0  0  0  0  0  0  0  0  0  0  0  0
   23.1244   -6.8650  -18.0611 C   0  0  0  0  0  0  0  0  0  0  0  0
   21.9429   -6.5527  -17.1697 C   0  0  1  0  0  0  0  0  0  0  0  0
   20.7081   -6.6213  -18.0027 C   0  0  0  0  0  0  0  0  0  0  0  0
   21.9353   -7.5146  -16.0008 C   0  0  2  0  0  0  0  0  0  0  0  0
   21.8911   -8.8860  -16.4267 N   0  0  0  0  0  0  0  0  0  0  0  0
   20.8589   -7.1904  -15.0300 C   0  0  0  0  0  0  0  0  0  0  0  0
   19.8992   -7.9909  -14.8920 O   0  0  0  0  0  0  0  0  0  0  0  0
   20.8455   -6.0410  -14.2531 O   0  0  0  0  0  0  0  0  0  0  0  0
  2  1  1  6
  3  2  1  0
  4  2  1  0
  5  4  2  0
  6  7  1  0
  7  8  1  0
  8  9  1  0
 10  9  1  6
 10 11  1  0
 10 12  1  0
 11  4  1  0
 12 13  2  0
 12 18  1  0
 15 16  1  6
 15 14  1  0
 17 15  1  0
 17 18  1  6
 19 17  1  0
 19 21  1  0
 20 19  2  0
M  END
$$$$
