AMV.pdb
     RDKit          3D

 21 20  0  0  1  0  0  0  0  0999 V2000
   18.3850  -12.5389  -16.5910 C   0  0  0  0  0  0  0  0  0  0  0  0
   19.0362  -11.3893  -17.2925 C   0  0  2  0  0  0  0  0  0  0  0  0
   19.7830  -11.7884  -18.4697 N   0  0  0  0  0  0  0  0  0  0  0  0
   19.8835  -10.6269  -16.3451 C   0  0  0  0  0  0  0  0  0  0  0  0
   19.3517  -10.1719  -15.3084 O   0  0  0  0  0  0  0  0  0  0  0  0
   26.4953  -10.6604  -16.6369 C   0  0  0  0  0  0  0  0  0  0  0  0
   26.0956  -10.3400  -14.9033 S   0  0  0  0  0  0  0  0  0  0  0  0
   24.4281   -9.6767  -14.7114 C   0  0  0  0  0  0  0  0  0  0  0  0
   23.4989  -10.3036  -15.7150 C   0  0  0  0  0  0  0  0  0  0  0  0
   22.1117   -9.7121  -15.5827 C   0  0  2  0  0  0  0  0  0  0  0  0
   21.2590  -10.3831  -16.5442 N   0  0  0  0  0  0  0  0  0  0  0  0
   22.1367   -8.2474  -15.8247 C   0  0  0  0  0  0  0  0  0  0  0  0
   22.5791   -7.8330  -16.9266 O   0  0  0  0  0  0  0  0  0  0  0  0
   19.8778   -5.9558  -16.7430 C   0  0  0  0  0  0  0  0  0  0  0  0
   20.4122   -5.3014  -15.4884 C   0  0  1  0  0  0  0  0  0  0  0  0
   19.4029   -5.4884  -14.4069 C   0  0  0  0  0  0  0  0  0  0  0  0
   21.7658   -5.8931  -15.1582 C   0  0  2  0  0  0  0  0  0  0  0  0
   21.6901   -7.3010  -14.8826 N   0  0  0  0  0  0  0  0  0  0  0  0
   22.4433   -5.1412  -14.0710 C   0  0  0  0  0  0  0  0  0  0  0  0
   22.8297   -3.9651  -14.2905 O   0  0  0  0  0  0  0  0  0  0  0  0
   22.6804   -5.6637  -12.8077 O   0  0  0  0  0  0  0  0  0  0  0  0
  2  1  1  1
  3  2  1  0
  4  2  1  0
  5  4  2  0
  6  7  1  0
  7  8  1  0
  8  9  1  0
 10  9  1  6
 10 11  1  0
 10 12  1  0
 11  4  1  0
 12 13  2  0
 12 18  1  0
 15 16  1  1
 15 14  1  0
 17 15  1  0
 17 18  1  1
 19 17  1  0
 19 21  1  0
 20 19  2  0
M  END
$$$$
