AMV.pdb
     RDKit          3D

 21 20  0  0  1  0  0  0  0  0999 V2000
   27.3438  -17.4807  -16.1735 C   0  0  0  0  0  0  0  0  0  0  0  0
   28.3851  -18.5535  -16.2232 C   0  0  2  0  0  0  0  0  0  0  0  0
   28.5146  -19.1625  -17.5327 N   0  0  0  0  0  0  0  0  0  0  0  0
   28.1223  -19.5689  -15.1761 C   0  0  0  0  0  0  0  0  0  0  0  0
   27.2189  -20.4099  -15.3793 O   0  0  0  0  0  0  0  0  0  0  0  0
   32.3089  -21.8697  -10.5449 C   0  0  0  0  0  0  0  0  0  0  0  0
   30.7941  -21.5073   -9.6276 S   0  0  0  0  0  0  0  0  0  0  0  0
   29.3588  -21.4050  -10.7170 C   0  0  0  0  0  0  0  0  0  0  0  0
   29.6662  -20.5323  -11.9035 C   0  0  0  0  0  0  0  0  0  0  0  0
   28.5208  -20.5738  -12.8926 C   0  0  2  0  0  0  0  0  0  0  0  0
   28.8332  -19.6432  -13.9594 N   0  0  0  0  0  0  0  0  0  0  0  0
   27.2398  -20.2159  -12.2326 C   0  0  0  0  0  0  0  0  0  0  0  0
   27.0713  -19.0251  -11.8648 O   0  0  0  0  0  0  0  0  0  0  0  0
   22.5249  -20.8007  -11.3204 C   0  0  0  0  0  0  0  0  0  0  0  0
   23.7599  -21.2422  -12.0738 C   0  0  1  0  0  0  0  0  0  0  0  0
   23.6509  -20.7357  -13.4720 C   0  0  0  0  0  0  0  0  0  0  0  0
   24.9900  -20.7428  -11.3464 C   0  0  2  0  0  0  0  0  0  0  0  0
   26.2060  -21.1428  -11.9985 N   0  0  0  0  0  0  0  0  0  0  0  0
   24.9697  -21.1206   -9.9100 C   0  0  0  0  0  0  0  0  0  0  0  0
   24.1067  -20.6053   -9.1549 O   0  0  0  0  0  0  0  0  0  0  0  0
   25.8577  -22.0214   -9.3399 O   0  0  0  0  0  0  0  0  0  0  0  0
  2  1  1  6
  3  2  1  0
  4  2  1  0
  5  4  2  0
  6  7  1  0
  7  8  1  0
  8  9  1  0
 10  9  1  1
 10 11  1  0
 10 12  1  0
 11  4  1  0
 12 13  2  0
 12 18  1  0
 15 16  1  6
 15 14  1  0
 17 15  1  0
 17 18  1  6
 19 17  1  0
 19 21  1  0
 20 19  2  0
M  END
$$$$
