AMV.pdb
     RDKit          3D

 21 20  0  0  1  0  0  0  0  0999 V2000
   27.9760  -19.0675  -15.4835 C   0  0  0  0  0  0  0  0  0  0  0  0
   28.3874  -20.3622  -14.8573 C   0  0  2  0  0  0  0  0  0  0  0  0
   28.8410  -21.3442  -15.8229 N   0  0  0  0  0  0  0  0  0  0  0  0
   27.2887  -20.8947  -14.0170 C   0  0  0  0  0  0  0  0  0  0  0  0
   26.4438  -21.6458  -14.5522 O   0  0  0  0  0  0  0  0  0  0  0  0
   26.5075  -19.2414   -7.5886 C   0  0  0  0  0  0  0  0  0  0  0  0
   25.6651  -20.8316   -7.7596 S   0  0  0  0  0  0  0  0  0  0  0  0
   25.2579  -21.1930   -9.4803 C   0  0  0  0  0  0  0  0  0  0  0  0
   26.3801  -20.7591  -10.3837 C   0  0  0  0  0  0  0  0  0  0  0  0
   26.0574  -21.1073  -11.8212 C   0  0  2  0  0  0  0  0  0  0  0  0
   27.1391  -20.6034  -12.6444 N   0  0  0  0  0  0  0  0  0  0  0  0
   24.7582  -20.5155  -12.2292 C   0  0  0  0  0  0  0  0  0  0  0  0
   24.6951  -19.2698  -12.3898 O   0  0  0  0  0  0  0  0  0  0  0  0
   23.2081  -20.5409  -15.1879 C   0  0  0  0  0  0  0  0  0  0  0  0
   22.0471  -20.9663  -14.3167 C   0  0  1  0  0  0  0  0  0  0  0  0
   21.7879  -22.4126  -14.5705 C   0  0  0  0  0  0  0  0  0  0  0  0
   22.3722  -20.6571  -12.8709 C   0  0  2  0  0  0  0  0  0  0  0  0
   23.5950  -21.2792  -12.4446 N   0  0  0  0  0  0  0  0  0  0  0  0
   21.2338  -20.9761  -11.9718 C   0  0  0  0  0  0  0  0  0  0  0  0
   21.3799  -21.8620  -11.0918 O   0  0  0  0  0  0  0  0  0  0  0  0
   19.9990  -20.3475  -12.0430 O   0  0  0  0  0  0  0  0  0  0  0  0
  2  1  1  6
  3  2  1  0
  4  2  1  0
  5  4  2  0
  6  7  1  0
  7  8  1  0
  8  9  1  0
 10  9  1  1
 10 11  1  0
 10 12  1  0
 11  4  1  0
 12 13  2  0
 12 18  1  0
 15 16  1  1
 15 14  1  0
 17 15  1  0
 17 18  1  1
 19 17  1  0
 19 21  1  0
 20 19  2  0
M  END
$$$$
