AMV.pdb
     RDKit          3D

 21 20  0  0  1  0  0  0  0  0999 V2000
   20.5540  -14.0968  -16.6523 C   0  0  0  0  0  0  0  0  0  0  0  0
   20.7152  -12.8120  -17.4013 C   0  0  2  0  0  0  0  0  0  0  0  0
   21.5574  -12.9377  -18.5749 N   0  0  0  0  0  0  0  0  0  0  0  0
   21.2063  -11.7493  -16.4922 C   0  0  0  0  0  0  0  0  0  0  0  0
   20.5624  -11.5214  -15.4444 O   0  0  0  0  0  0  0  0  0  0  0  0
   27.2185   -9.4960  -16.4601 C   0  0  0  0  0  0  0  0  0  0  0  0
   26.6652  -10.6428  -15.1769 S   0  0  0  0  0  0  0  0  0  0  0  0
   24.8651  -10.7010  -15.0607 C   0  0  0  0  0  0  0  0  0  0  0  0
   24.2492   -9.7078  -16.0084 C   0  0  0  0  0  0  0  0  0  0  0  0
   22.7395   -9.8118  -15.9648 C   0  0  2  0  0  0  0  0  0  0  0  0
   22.3610  -10.9770  -16.7398 N   0  0  0  0  0  0  0  0  0  0  0  0
   22.1094   -8.5827  -16.5097 C   0  0  0  0  0  0  0  0  0  0  0  0
   22.1618   -8.3863  -17.7507 O   0  0  0  0  0  0  0  0  0  0  0  0
   18.8161   -5.2154  -16.8507 C   0  0  0  0  0  0  0  0  0  0  0  0
   19.3672   -6.5433  -16.3807 C   0  0  1  0  0  0  0  0  0  0  0  0
   18.8961   -7.5965  -17.3252 C   0  0  0  0  0  0  0  0  0  0  0  0
   20.8751   -6.4493  -16.2865 C   0  0  2  0  0  0  0  0  0  0  0  0
   21.4572   -7.6277  -15.7064 N   0  0  0  0  0  0  0  0  0  0  0  0
   21.3057   -5.2080  -15.5938 C   0  0  0  0  0  0  0  0  0  0  0  0
   21.6362   -5.2677  -14.3822 O   0  0  0  0  0  0  0  0  0  0  0  0
   21.3673   -3.9663  -16.2097 O   0  0  0  0  0  0  0  0  0  0  0  0
  2  1  1  1
  3  2  1  0
  4  2  1  0
  5  4  2  0
  6  7  1  0
  7  8  1  0
  8  9  1  0
 10  9  1  6
 10 11  1  0
 10 12  1  0
 11  4  1  0
 12 13  2  0
 12 18  1  0
 15 16  1  6
 15 14  1  0
 17 15  1  0
 17 18  1  1
 19 17  1  0
 19 21  1  0
 20 19  2  0
M  END
$$$$
