AMV.pdb
     RDKit          3D

 21 20  0  0  1  0  0  0  0  0999 V2000
   27.9239  -18.2744  -16.6177 C   0  0  0  0  0  0  0  0  0  0  0  0
   28.7099  -19.5463  -16.5722 C   0  0  2  0  0  0  0  0  0  0  0  0
   28.5817  -20.3396  -17.7791 N   0  0  0  0  0  0  0  0  0  0  0  0
   28.3454  -20.3288  -15.3673 C   0  0  0  0  0  0  0  0  0  0  0  0
   27.3802  -21.1206  -15.4443 O   0  0  0  0  0  0  0  0  0  0  0  0
   32.5768  -22.0395  -10.7274 C   0  0  0  0  0  0  0  0  0  0  0  0
   31.0701  -21.8562   -9.7456 S   0  0  0  0  0  0  0  0  0  0  0  0
   29.5984  -21.7671  -10.7864 C   0  0  0  0  0  0  0  0  0  0  0  0
   29.9156  -21.0652  -12.0788 C   0  0  0  0  0  0  0  0  0  0  0  0
   28.6841  -21.0074  -12.9574 C   0  0  2  0  0  0  0  0  0  0  0  0
   29.0252  -20.2329  -14.1344 N   0  0  0  0  0  0  0  0  0  0  0  0
   27.5442  -20.3948  -12.2293 C   0  0  0  0  0  0  0  0  0  0  0  0
   27.5581  -19.1519  -12.0382 O   0  0  0  0  0  0  0  0  0  0  0  0
   24.2070  -19.9942  -13.0951 C   0  0  0  0  0  0  0  0  0  0  0  0
   24.0656  -20.5777  -11.7068 C   0  0  1  0  0  0  0  0  0  0  0  0
   23.5474  -21.9691  -11.8437 C   0  0  0  0  0  0  0  0  0  0  0  0
   25.4005  -20.4990  -10.9971 C   0  0  2  0  0  0  0  0  0  0  0  0
   26.4501  -21.1359  -11.7432 N   0  0  0  0  0  0  0  0  0  0  0  0
   25.3121  -21.0049   -9.6034 C   0  0  0  0  0  0  0  0  0  0  0  0
   25.9406  -22.0480   -9.2911 O   0  0  0  0  0  0  0  0  0  0  0  0
   24.5673  -20.3886   -8.6081 O   0  0  0  0  0  0  0  0  0  0  0  0
  2  1  1  6
  3  2  1  0
  4  2  1  0
  5  4  2  0
  6  7  1  0
  7  8  1  0
  8  9  1  0
 10  9  1  1
 10 11  1  0
 10 12  1  0
 11  4  1  0
 12 13  2  0
 12 18  1  0
 15 16  1  6
 15 14  1  0
 17 15  1  0
 17 18  1  6
 19 17  1  0
 19 21  1  0
 20 19  2  0
M  END
$$$$
