KFF.pdb
     RDKit          3D

 32 33  0  0  1  0  0  0  0  0999 V2000
    8.9538  -18.2425   19.3796 N   0  0  0  0  0  0  0  0  0  0  0  0
   10.2560  -17.5805   19.5731 C   0  0  1  0  0  0  0  0  0  0  0  0
   10.4853  -16.7812   18.3280 C   0  0  0  0  0  0  0  0  0  0  0  0
   11.5810  -17.2672   17.4448 C   0  0  0  0  0  0  0  0  0  0  0  0
   11.0268  -17.5024   16.0592 C   0  0  0  0  0  0  0  0  0  0  0  0
   12.0558  -18.0544   15.1096 C   0  0  0  0  0  0  0  0  0  0  0  0
   11.3354  -18.3827   13.8683 N   0  0  0  0  0  0  0  0  0  0  0  0
   10.2033  -16.7296   20.7790 C   0  0  0  0  0  0  0  0  0  0  0  0
   11.2484  -16.1443   21.1476 O   0  0  0  0  0  0  0  0  0  0  0  0
    9.0223  -16.5673   21.5080 N   0  0  0  0  0  0  0  0  0  0  0  0
    8.9437  -15.7630   22.7359 C   0  0  1  0  0  0  0  0  0  0  0  0
    7.5131  -15.2649   22.7897 C   0  0  0  0  0  0  0  0  0  0  0  0
    7.2049  -14.4446   23.9602 C   0  0  0  0  0  0  0  0  0  0  0  0
    7.5842  -13.1239   24.0596 C   0  0  0  0  0  0  0  0  0  0  0  0
    7.2657  -12.3789   25.1911 C   0  0  0  0  0  0  0  0  0  0  0  0
    6.5744  -12.9299   26.2266 C   0  0  0  0  0  0  0  0  0  0  0  0
    6.1848  -14.2581   26.1435 C   0  0  0  0  0  0  0  0  0  0  0  0
    6.5060  -14.9905   25.0144 C   0  0  0  0  0  0  0  0  0  0  0  0
    9.2532  -16.6425   23.8763 C   0  0  0  0  0  0  0  0  0  0  0  0
    8.7125  -17.7794   23.9658 O   0  0  0  0  0  0  0  0  0  0  0  0
   10.1537  -16.2252   24.8770 N   0  0  0  0  0  0  0  0  0  0  0  0
   10.6521  -17.1256   25.9302 C   0  0  1  0  0  0  0  0  0  0  0  0
   11.7269  -16.3778   26.6480 C   0  0  0  0  0  0  0  0  0  0  0  0
   11.1273  -15.3090   27.4647 C   0  0  0  0  0  0  0  0  0  0  0  0
   10.8492  -14.0888   26.8509 C   0  0  0  0  0  0  0  0  0  0  0  0
   10.2781  -13.0718   27.5845 C   0  0  0  0  0  0  0  0  0  0  0  0
    9.9805  -13.2498   28.9150 C   0  0  0  0  0  0  0  0  0  0  0  0
   10.2540  -14.4528   29.5224 C   0  0  0  0  0  0  0  0  0  0  0  0
   10.8295  -15.4799   28.7855 C   0  0  0  0  0  0  0  0  0  0  0  0
    9.5029  -17.4895   26.7816 C   0  0  0  0  0  0  0  0  0  0  0  0
    8.3937  -16.9429   26.6202 O   0  0  0  0  0  0  0  0  0  0  0  0
    9.5958  -18.4401   27.7838 O   0  0  0  0  0  0  0  0  0  0  0  0
  2  3  1  0
  2  1  1  6
  3  4  1  0
  5  4  1  0
  6  5  1  0
  7  6  1  0
  8  9  2  0
  8  2  1  0
 10  8  1  0
 11 19  1  0
 11 10  1  0
 11 12  1  1
 13 12  1  0
 14 13  2  0
 15 14  1  0
 16 15  2  0
 16 17  1  0
 17 18  2  0
 18 13  1  0
 19 21  1  0
 20 19  2  0
 21 22  1  0
 22 30  1  0
 23 24  1  0
 22 23  1  1
 24 29  2  0
 25 26  2  0
 25 24  1  0
 26 27  1  0
 27 28  2  0
 29 28  1  0
 30 31  2  0
 30 32  1  0
M  END
$$$$
