KFF.pdb
     RDKit          3D

 32 33  0  0  1  0  0  0  0  0999 V2000
    8.9812  -18.2544   19.1834 N   0  0  0  0  0  0  0  0  0  0  0  0
    8.6497  -18.5118   20.5959 C   0  0  1  0  0  0  0  0  0  0  0  0
    9.5339  -19.6461   21.0122 C   0  0  0  0  0  0  0  0  0  0  0  0
    9.6621  -20.7559   20.0282 C   0  0  0  0  0  0  0  0  0  0  0  0
   10.3985  -21.9046   20.6768 C   0  0  0  0  0  0  0  0  0  0  0  0
   10.5761  -23.0765   19.7494 C   0  0  0  0  0  0  0  0  0  0  0  0
   11.6874  -22.7243   18.8501 N   0  0  0  0  0  0  0  0  0  0  0  0
    8.8965  -17.2924   21.3915 C   0  0  0  0  0  0  0  0  0  0  0  0
    9.8834  -16.5758   21.1023 O   0  0  0  0  0  0  0  0  0  0  0  0
    8.0591  -16.9273   22.4487 N   0  0  0  0  0  0  0  0  0  0  0  0
    8.3265  -15.7744   23.3204 C   0  0  1  0  0  0  0  0  0  0  0  0
    6.9603  -15.2146   23.6636 C   0  0  0  0  0  0  0  0  0  0  0  0
    6.9923  -14.0391   24.5326 C   0  0  0  0  0  0  0  0  0  0  0  0
    6.4398  -14.0359   25.7947 C   0  0  0  0  0  0  0  0  0  0  0  0
    6.4970  -12.8952   26.5898 C   0  0  0  0  0  0  0  0  0  0  0  0
    7.0967  -11.7560   26.1467 C   0  0  0  0  0  0  0  0  0  0  0  0
    7.6580  -11.7415   24.8787 C   0  0  0  0  0  0  0  0  0  0  0  0
    7.5961  -12.8806   24.0958 C   0  0  0  0  0  0  0  0  0  0  0  0
    9.0270  -16.2641   24.5201 C   0  0  0  0  0  0  0  0  0  0  0  0
    8.4719  -16.1953   25.6514 O   0  0  0  0  0  0  0  0  0  0  0  0
   10.3213  -16.8129   24.4181 N   0  0  0  0  0  0  0  0  0  0  0  0
   11.4677  -16.3068   25.1913 C   0  0  1  0  0  0  0  0  0  0  0  0
   11.2548  -16.7545   26.5997 C   0  0  0  0  0  0  0  0  0  0  0  0
   10.8641  -15.6042   27.4323 C   0  0  0  0  0  0  0  0  0  0  0  0
   10.6248  -14.3851   26.8002 C   0  0  0  0  0  0  0  0  0  0  0  0
   10.2471  -13.2920   27.5493 C   0  0  0  0  0  0  0  0  0  0  0  0
   10.1043  -13.3931   28.9131 C   0  0  0  0  0  0  0  0  0  0  0  0
   10.3397  -14.5949   29.5385 C   0  0  0  0  0  0  0  0  0  0  0  0
   10.7205  -15.6986   28.7861 C   0  0  0  0  0  0  0  0  0  0  0  0
   12.6931  -16.8447   24.5692 C   0  0  0  0  0  0  0  0  0  0  0  0
   13.8146  -16.5947   25.0538 O   0  0  0  0  0  0  0  0  0  0  0  0
   12.6603  -17.6410   23.4372 O   0  0  0  0  0  0  0  0  0  0  0  0
  2  3  1  0
  2  1  1  6
  3  4  1  0
  5  4  1  0
  6  5  1  0
  7  6  1  0
  8  9  2  0
  8  2  1  0
 10  8  1  0
 11 19  1  0
 11 10  1  0
 11 12  1  1
 13 12  1  0
 14 13  2  0
 15 14  1  0
 16 15  2  0
 16 17  1  0
 17 18  2  0
 18 13  1  0
 19 21  1  0
 20 19  2  0
 21 22  1  0
 22 30  1  0
 23 24  1  0
 22 23  1  1
 24 29  2  0
 25 26  2  0
 25 24  1  0
 26 27  1  0
 27 28  2  0
 29 28  1  0
 30 31  2  0
 30 32  1  0
M  END
$$$$
