KFF.pdb
     RDKit          3D

 32 33  0  0  1  0  0  0  0  0999 V2000
   10.3799  -17.4095   18.7604 N   0  0  0  0  0  0  0  0  0  0  0  0
    9.4525  -17.8727   19.8076 C   0  0  1  0  0  0  0  0  0  0  0  0
    9.8496  -19.2877   20.0938 C   0  0  0  0  0  0  0  0  0  0  0  0
    9.0585  -20.3327   19.3876 C   0  0  0  0  0  0  0  0  0  0  0  0
    9.6953  -20.6073   18.0455 C   0  0  0  0  0  0  0  0  0  0  0  0
    8.9531  -21.6507   17.2545 C   0  0  0  0  0  0  0  0  0  0  0  0
    9.6165  -21.7206   15.9420 N   0  0  0  0  0  0  0  0  0  0  0  0
    9.5791  -17.0074   20.9976 C   0  0  0  0  0  0  0  0  0  0  0  0
   10.7262  -16.6916   21.3917 O   0  0  0  0  0  0  0  0  0  0  0  0
    8.4556  -16.5396   21.6842 N   0  0  0  0  0  0  0  0  0  0  0  0
    8.5448  -15.7159   22.8982 C   0  0  1  0  0  0  0  0  0  0  0  0
    7.1594  -15.1277   23.0781 C   0  0  0  0  0  0  0  0  0  0  0  0
    7.0115  -14.2876   24.2657 C   0  0  0  0  0  0  0  0  0  0  0  0
    7.5155  -13.0072   24.3345 C   0  0  0  0  0  0  0  0  0  0  0  0
    7.3478  -12.2411   25.4841 C   0  0  0  0  0  0  0  0  0  0  0  0
    6.6850  -12.7313   26.5678 C   0  0  0  0  0  0  0  0  0  0  0  0
    6.1714  -14.0183   26.5159 C   0  0  0  0  0  0  0  0  0  0  0  0
    6.3432  -14.7721   25.3685 C   0  0  0  0  0  0  0  0  0  0  0  0
    8.9075  -16.5980   24.0208 C   0  0  0  0  0  0  0  0  0  0  0  0
    8.3506  -17.7232   24.1491 O   0  0  0  0  0  0  0  0  0  0  0  0
    9.8774  -16.1962   24.9612 N   0  0  0  0  0  0  0  0  0  0  0  0
   10.5398  -17.1380   25.8791 C   0  0  1  0  0  0  0  0  0  0  0  0
   11.6052  -16.3617   26.5805 C   0  0  0  0  0  0  0  0  0  0  0  0
   10.9891  -15.4211   27.5315 C   0  0  0  0  0  0  0  0  0  0  0  0
   10.8551  -15.8213   28.8600 C   0  0  0  0  0  0  0  0  0  0  0  0
   10.2927  -14.9606   29.7773 C   0  0  0  0  0  0  0  0  0  0  0  0
    9.8631  -13.7119   29.3942 C   0  0  0  0  0  0  0  0  0  0  0  0
    9.9946  -13.3151   28.0841 C   0  0  0  0  0  0  0  0  0  0  0  0
   10.5612  -14.1804   27.1572 C   0  0  0  0  0  0  0  0  0  0  0  0
    9.5037  -17.6827   26.7778 C   0  0  0  0  0  0  0  0  0  0  0  0
    9.8053  -18.4859   27.6828 O   0  0  0  0  0  0  0  0  0  0  0  0
    8.1685  -17.3348   26.6648 O   0  0  0  0  0  0  0  0  0  0  0  0
  2  3  1  0
  2  1  1  6
  3  4  1  0
  5  4  1  0
  6  5  1  0
  7  6  1  0
  8  9  2  0
  8  2  1  0
 10  8  1  0
 11 19  1  0
 11 10  1  0
 11 12  1  1
 13 12  1  0
 14 13  2  0
 15 14  1  0
 16 15  2  0
 16 17  1  0
 17 18  2  0
 18 13  1  0
 19 21  1  0
 20 19  2  0
 21 22  1  0
 22 30  1  0
 23 24  1  0
 22 23  1  1
 24 29  2  0
 25 26  2  0
 25 24  1  0
 26 27  1  0
 27 28  2  0
 29 28  1  0
 30 31  2  0
 30 32  1  0
M  END
$$$$
