FFS.pdb
     RDKit          3D

 29 30  0  0  1  0  0  0  0  0999 V2000
    7.0316  -18.4515   26.5825 N   0  0  0  0  0  0  0  0  0  0  0  0
    7.9249  -17.3105   26.5419 C   0  0  1  0  0  0  0  0  0  0  0  0
    9.2931  -17.6405   27.0360 C   0  0  0  0  0  0  0  0  0  0  0  0
    9.9805  -16.3747   27.4307 C   0  0  0  0  0  0  0  0  0  0  0  0
   10.7917  -15.6752   26.5925 C   0  0  0  0  0  0  0  0  0  0  0  0
   11.3859  -14.5159   27.0535 C   0  0  0  0  0  0  0  0  0  0  0  0
   11.1588  -14.0795   28.3385 C   0  0  0  0  0  0  0  0  0  0  0  0
   10.3382  -14.7838   29.1913 C   0  0  0  0  0  0  0  0  0  0  0  0
    9.7501  -15.9313   28.7352 C   0  0  0  0  0  0  0  0  0  0  0  0
    8.0029  -16.8337   25.1396 C   0  0  0  0  0  0  0  0  0  0  0  0
    7.7893  -17.6443   24.1810 O   0  0  0  0  0  0  0  0  0  0  0  0
    8.3082  -15.4998   24.8030 N   0  0  0  0  0  0  0  0  0  0  0  0
    8.2682  -15.0879   23.4111 C   0  0  1  0  0  0  0  0  0  0  0  0
    7.9979  -13.6036   23.4153 C   0  0  0  0  0  0  0  0  0  0  0  0
    7.1824  -13.2483   24.5882 C   0  0  0  0  0  0  0  0  0  0  0  0
    7.4896  -12.1616   25.3472 C   0  0  0  0  0  0  0  0  0  0  0  0
    6.7191  -11.8270   26.4431 C   0  0  0  0  0  0  0  0  0  0  0  0
    5.6364  -12.6163   26.7487 C   0  0  0  0  0  0  0  0  0  0  0  0
    5.2907  -13.7258   26.0060 C   0  0  0  0  0  0  0  0  0  0  0  0
    6.0910  -14.0213   24.9185 C   0  0  0  0  0  0  0  0  0  0  0  0
    9.5603  -15.4228   22.7942 C   0  0  0  0  0  0  0  0  0  0  0  0
    9.7778  -15.2362   21.5728 O   0  0  0  0  0  0  0  0  0  0  0  0
   12.5873  -17.2312   24.9995 O   0  0  0  0  0  0  0  0  0  0  0  0
   12.9844  -16.2792   24.0542 C   0  0  0  0  0  0  0  0  0  0  0  0
   11.8963  -16.2168   23.0098 C   0  0  2  0  0  0  0  0  0  0  0  0
   10.5931  -15.9705   23.5890 N   0  0  0  0  0  0  0  0  0  0  0  0
   11.8813  -17.5276   22.3113 C   0  0  0  0  0  0  0  0  0  0  0  0
   12.8992  -17.9210   21.6875 O   0  0  0  0  0  0  0  0  0  0  0  0
   10.7806  -18.3716   22.3033 O   0  0  0  0  0  0  0  0  0  0  0  0
  2 10  1  0
  2  1  1  6
  2  3  1  0
  4  3  1  0
  4  9  1  0
  5  4  2  0
  6  5  1  0
  6  7  2  0
  7  8  1  0
  8  9  2  0
 10 11  2  0
 12 13  1  0
 12 10  1  0
 13 21  1  0
 14 15  1  0
 13 14  1  1
 15 16  2  0
 16 17  1  0
 18 17  2  0
 19 18  1  0
 20 15  1  0
 20 19  2  0
 21 22  2  0
 21 26  1  0
 25 24  1  1
 24 23  1  0
 25 27  1  0
 26 25  1  0
 27 28  2  0
 27 29  1  0
M  END
$$$$
