FFS.pdb
     RDKit          3D

 29 30  0  0  1  0  0  0  0  0999 V2000
   10.8874  -15.9767   21.5242 N   0  0  0  0  0  0  0  0  0  0  0  0
    9.7147  -15.4172   22.1670 C   0  0  1  0  0  0  0  0  0  0  0  0
    8.4500  -15.7923   21.4707 C   0  0  0  0  0  0  0  0  0  0  0  0
    7.8876  -14.5781   20.8072 C   0  0  0  0  0  0  0  0  0  0  0  0
    6.7308  -14.5887   20.0920 C   0  0  0  0  0  0  0  0  0  0  0  0
    6.2949  -13.4126   19.5120 C   0  0  0  0  0  0  0  0  0  0  0  0
    7.0209  -12.2528   19.6574 C   0  0  0  0  0  0  0  0  0  0  0  0
    8.1927  -12.2364   20.3807 C   0  0  0  0  0  0  0  0  0  0  0  0
    8.6243  -13.4004   20.9548 C   0  0  0  0  0  0  0  0  0  0  0  0
    9.6768  -15.9060   23.5668 C   0  0  0  0  0  0  0  0  0  0  0  0
   10.7314  -16.3771   24.1032 O   0  0  0  0  0  0  0  0  0  0  0  0
    8.5084  -15.8766   24.3541 N   0  0  0  0  0  0  0  0  0  0  0  0
    8.6076  -16.0907   25.7869 C   0  0  1  0  0  0  0  0  0  0  0  0
    7.3116  -15.5966   26.3807 C   0  0  0  0  0  0  0  0  0  0  0  0
    7.3167  -14.1255   26.4352 C   0  0  0  0  0  0  0  0  0  0  0  0
    8.3557  -13.4528   27.0003 C   0  0  0  0  0  0  0  0  0  0  0  0
    8.3609  -12.0727   27.0444 C   0  0  0  0  0  0  0  0  0  0  0  0
    7.2934  -11.3957   26.5051 C   0  0  0  0  0  0  0  0  0  0  0  0
    6.2209  -12.0389   25.9236 C   0  0  0  0  0  0  0  0  0  0  0  0
    6.2600  -13.4204   25.9025 C   0  0  0  0  0  0  0  0  0  0  0  0
    8.8243  -17.5256   26.0244 C   0  0  0  0  0  0  0  0  0  0  0  0
    7.8905  -18.3587   25.9367 O   0  0  0  0  0  0  0  0  0  0  0  0
   12.5702  -18.8945   26.1497 O   0  0  0  0  0  0  0  0  0  0  0  0
   11.6123  -19.8999   25.9793 C   0  0  0  0  0  0  0  0  0  0  0  0
   10.3342  -19.4001   26.6079 C   0  0  2  0  0  0  0  0  0  0  0  0
   10.1161  -17.9907   26.3615 N   0  0  0  0  0  0  0  0  0  0  0  0
   10.4447  -19.6294   28.0713 C   0  0  0  0  0  0  0  0  0  0  0  0
   10.3557  -18.6622   28.8692 O   0  0  0  0  0  0  0  0  0  0  0  0
   10.6463  -20.8825   28.6309 O   0  0  0  0  0  0  0  0  0  0  0  0
  2 10  1  0
  2  1  1  6
  2  3  1  0
  4  3  1  0
  4  9  1  0
  5  4  2  0
  6  5  1  0
  6  7  2  0
  7  8  1  0
  8  9  2  0
 10 11  2  0
 12 13  1  0
 12 10  1  0
 13 21  1  0
 14 15  1  0
 13 14  1  1
 15 16  2  0
 16 17  1  0
 18 17  2  0
 19 18  1  0
 20 15  1  0
 20 19  2  0
 21 22  2  0
 21 26  1  0
 25 24  1  6
 24 23  1  0
 25 27  1  0
 26 25  1  0
 27 28  2  0
 27 29  1  0
M  END
$$$$
