FFS.pdb
     RDKit          3D

 29 30  0  0  1  0  0  0  0  0999 V2000
    6.2980  -16.5643   20.4682 N   0  0  0  0  0  0  0  0  0  0  0  0
    5.9731  -16.8422   21.8533 C   0  0  1  0  0  0  0  0  0  0  0  0
    5.8608  -18.3037   22.1298 C   0  0  0  0  0  0  0  0  0  0  0  0
    4.4748  -18.7510   21.7987 C   0  0  0  0  0  0  0  0  0  0  0  0
    3.4347  -18.6600   22.6703 C   0  0  0  0  0  0  0  0  0  0  0  0
    2.1891  -19.1054   22.2705 C   0  0  0  0  0  0  0  0  0  0  0  0
    2.0076  -19.6311   21.0120 C   0  0  0  0  0  0  0  0  0  0  0  0
    3.0572  -19.7255   20.1255 C   0  0  0  0  0  0  0  0  0  0  0  0
    4.2901  -19.2848   20.5210 C   0  0  0  0  0  0  0  0  0  0  0  0
    7.0358  -16.2542   22.7047 C   0  0  0  0  0  0  0  0  0  0  0  0
    8.2096  -16.0970   22.2365 O   0  0  0  0  0  0  0  0  0  0  0  0
    6.8110  -15.8505   24.0360 N   0  0  0  0  0  0  0  0  0  0  0  0
    7.9289  -15.3916   24.8412 C   0  0  1  0  0  0  0  0  0  0  0  0
    7.3320  -14.7378   26.0629 C   0  0  0  0  0  0  0  0  0  0  0  0
    8.4037  -14.3457   26.9928 C   0  0  0  0  0  0  0  0  0  0  0  0
    9.0140  -13.1346   26.8820 C   0  0  0  0  0  0  0  0  0  0  0  0
   10.0145  -12.7669   27.7595 C   0  0  0  0  0  0  0  0  0  0  0  0
   10.3790  -13.6517   28.7460 C   0  0  0  0  0  0  0  0  0  0  0  0
    9.7864  -14.8883   28.8928 C   0  0  0  0  0  0  0  0  0  0  0  0
    8.7900  -15.2124   27.9915 C   0  0  0  0  0  0  0  0  0  0  0  0
    8.7633  -16.5551   25.1766 C   0  0  0  0  0  0  0  0  0  0  0  0
    8.2748  -17.5965   25.6773 O   0  0  0  0  0  0  0  0  0  0  0  0
   12.3471  -16.8314   23.4314 O   0  0  0  0  0  0  0  0  0  0  0  0
   11.7582  -18.0272   23.8563 C   0  0  0  0  0  0  0  0  0  0  0  0
   10.9547  -17.7060   25.0931 C   0  0  2  0  0  0  0  0  0  0  0  0
   10.1550  -16.5104   24.9328 N   0  0  0  0  0  0  0  0  0  0  0  0
   11.9194  -17.5038   26.2043 C   0  0  0  0  0  0  0  0  0  0  0  0
   11.9537  -16.4070   26.8174 O   0  0  0  0  0  0  0  0  0  0  0  0
   12.8130  -18.4792   26.6215 O   0  0  0  0  0  0  0  0  0  0  0  0
  2 10  1  0
  2  1  1  6
  2  3  1  0
  4  3  1  0
  4  9  1  0
  5  4  2  0
  6  5  1  0
  6  7  2  0
  7  8  1  0
  8  9  2  0
 10 11  2  0
 12 13  1  0
 12 10  1  0
 13 21  1  0
 14 15  1  0
 13 14  1  1
 15 16  2  0
 16 17  1  0
 18 17  2  0
 19 18  1  0
 20 15  1  0
 20 19  2  0
 21 22  2  0
 21 26  1  0
 25 24  1  6
 24 23  1  0
 25 27  1  0
 26 25  1  0
 27 28  2  0
 27 29  1  0
M  END
$$$$
