FFS.pdb
     RDKit          3D

 29 30  0  0  1  0  0  0  0  0999 V2000
    7.9409  -16.2033   21.6011 N   0  0  0  0  0  0  0  0  0  0  0  0
    8.7761  -15.1134   22.0657 C   0  0  1  0  0  0  0  0  0  0  0  0
    8.0961  -13.7899   21.9603 C   0  0  0  0  0  0  0  0  0  0  0  0
    7.6832  -13.5726   20.5416 C   0  0  0  0  0  0  0  0  0  0  0  0
    6.5331  -14.0731   20.0157 C   0  0  0  0  0  0  0  0  0  0  0  0
    6.2413  -13.8198   18.6889 C   0  0  0  0  0  0  0  0  0  0  0  0
    7.1013  -13.0739   17.9161 C   0  0  0  0  0  0  0  0  0  0  0  0
    8.2671  -12.5646   18.4435 C   0  0  0  0  0  0  0  0  0  0  0  0
    8.5561  -12.8152   19.7567 C   0  0  0  0  0  0  0  0  0  0  0  0
    9.1366  -15.3772   23.4801 C   0  0  0  0  0  0  0  0  0  0  0  0
   10.1087  -14.7518   24.0144 O   0  0  0  0  0  0  0  0  0  0  0  0
    8.4445  -16.3052   24.2836 N   0  0  0  0  0  0  0  0  0  0  0  0
    8.7384  -16.3784   25.7038 C   0  0  1  0  0  0  0  0  0  0  0  0
    7.4448  -16.0803   26.4209 C   0  0  0  0  0  0  0  0  0  0  0  0
    7.2643  -14.6242   26.5396 C   0  0  0  0  0  0  0  0  0  0  0  0
    6.1854  -14.0082   25.9846 C   0  0  0  0  0  0  0  0  0  0  0  0
    6.0153  -12.6432   26.1029 C   0  0  0  0  0  0  0  0  0  0  0  0
    6.9599  -11.9223   26.7934 C   0  0  0  0  0  0  0  0  0  0  0  0
    8.0674  -12.5074   27.3706 C   0  0  0  0  0  0  0  0  0  0  0  0
    8.1953  -13.8760   27.2260 C   0  0  0  0  0  0  0  0  0  0  0  0
    9.2484  -17.7255   25.9999 C   0  0  0  0  0  0  0  0  0  0  0  0
    8.5082  -18.7373   25.9547 O   0  0  0  0  0  0  0  0  0  0  0  0
   13.2735  -18.3261   26.2651 O   0  0  0  0  0  0  0  0  0  0  0  0
   12.4819  -19.4207   25.9009 C   0  0  0  0  0  0  0  0  0  0  0  0
   11.1366  -19.2279   26.5579 C   0  0  2  0  0  0  0  0  0  0  0  0
   10.6082  -17.8972   26.3462 N   0  0  0  0  0  0  0  0  0  0  0  0
   11.3216  -19.4547   28.0142 C   0  0  0  0  0  0  0  0  0  0  0  0
   11.0886  -18.5281   28.8309 O   0  0  0  0  0  0  0  0  0  0  0  0
   11.7486  -20.6622   28.5467 O   0  0  0  0  0  0  0  0  0  0  0  0
  2 10  1  0
  2  1  1  1
  2  3  1  0
  4  3  1  0
  4  9  1  0
  5  4  2  0
  6  5  1  0
  6  7  2  0
  7  8  1  0
  8  9  2  0
 10 11  2  0
 12 13  1  0
 12 10  1  0
 13 21  1  0
 14 15  1  0
 13 14  1  1
 15 16  2  0
 16 17  1  0
 18 17  2  0
 19 18  1  0
 20 15  1  0
 20 19  2  0
 21 22  2  0
 21 26  1  0
 25 24  1  6
 24 23  1  0
 25 27  1  0
 26 25  1  0
 27 28  2  0
 27 29  1  0
M  END
$$$$
