FFS.pdb
     RDKit          3D

 29 30  0  0  1  0  0  0  0  0999 V2000
    9.3080  -16.3475   25.2056 N   0  0  0  0  0  0  0  0  0  0  0  0
    7.9332  -16.7408   25.4437 C   0  0  1  0  0  0  0  0  0  0  0  0
    7.1890  -15.7419   26.2644 C   0  0  0  0  0  0  0  0  0  0  0  0
    8.1724  -14.9237   27.0350 C   0  0  0  0  0  0  0  0  0  0  0  0
    9.1449  -15.4677   27.8149 C   0  0  0  0  0  0  0  0  0  0  0  0
   10.0052  -14.6248   28.4926 C   0  0  0  0  0  0  0  0  0  0  0  0
    9.8776  -13.2596   28.3781 C   0  0  0  0  0  0  0  0  0  0  0  0
    8.8948  -12.7035   27.5897 C   0  0  0  0  0  0  0  0  0  0  0  0
    8.0432  -13.5375   26.9190 C   0  0  0  0  0  0  0  0  0  0  0  0
    7.2644  -16.9039   24.1299 C   0  0  0  0  0  0  0  0  0  0  0  0
    6.0054  -17.0873   24.0773 O   0  0  0  0  0  0  0  0  0  0  0  0
    7.9643  -16.8659   22.9074 N   0  0  0  0  0  0  0  0  0  0  0  0
    7.2364  -17.0371   21.6626 C   0  0  1  0  0  0  0  0  0  0  0  0
    6.2471  -15.9003   21.5896 C   0  0  0  0  0  0  0  0  0  0  0  0
    6.9610  -14.6304   21.3786 C   0  0  0  0  0  0  0  0  0  0  0  0
    7.3441  -14.2452   20.1311 C   0  0  0  0  0  0  0  0  0  0  0  0
    8.0079  -13.0505   19.9353 C   0  0  0  0  0  0  0  0  0  0  0  0
    8.2723  -12.2607   21.0286 C   0  0  0  0  0  0  0  0  0  0  0  0
    7.9017  -12.6140   22.3091 C   0  0  0  0  0  0  0  0  0  0  0  0
    7.2396  -13.8184   22.4560 C   0  0  0  0  0  0  0  0  0  0  0  0
    8.2043  -17.0126   20.5558 C   0  0  0  0  0  0  0  0  0  0  0  0
    7.8528  -17.1992   19.3661 O   0  0  0  0  0  0  0  0  0  0  0  0
   11.5871  -15.3190   20.1547 O   0  0  0  0  0  0  0  0  0  0  0  0
   11.4891  -16.4452   19.3303 C   0  0  0  0  0  0  0  0  0  0  0  0
   10.5898  -17.4301   20.0373 C   0  0  2  0  0  0  0  0  0  0  0  0
    9.5708  -16.7733   20.8277 N   0  0  0  0  0  0  0  0  0  0  0  0
   11.4496  -18.2485   20.9302 C   0  0  0  0  0  0  0  0  0  0  0  0
   11.2649  -18.2300   22.1734 O   0  0  0  0  0  0  0  0  0  0  0  0
   12.4757  -19.0574   20.4645 O   0  0  0  0  0  0  0  0  0  0  0  0
  2 10  1  0
  2  1  1  6
  2  3  1  0
  4  3  1  0
  4  9  1  0
  5  4  2  0
  6  5  1  0
  6  7  2  0
  7  8  1  0
  8  9  2  0
 10 11  2  0
 12 13  1  0
 12 10  1  0
 13 21  1  0
 14 15  1  0
 13 14  1  6
 15 16  2  0
 16 17  1  0
 18 17  2  0
 19 18  1  0
 20 15  1  0
 20 19  2  0
 21 22  2  0
 21 26  1  0
 25 24  1  1
 24 23  1  0
 25 27  1  0
 26 25  1  0
 27 28  2  0
 27 29  1  0
M  END
$$$$
