FFS.pdb
     RDKit          3D

 29 30  0  0  1  0  0  0  0  0999 V2000
    7.6852  -17.0130   21.3755 N   0  0  0  0  0  0  0  0  0  0  0  0
    9.0988  -16.7113   21.4853 C   0  0  1  0  0  0  0  0  0  0  0  0
    9.5106  -15.5823   20.6017 C   0  0  0  0  0  0  0  0  0  0  0  0
    8.5406  -14.4595   20.7719 C   0  0  0  0  0  0  0  0  0  0  0  0
    7.1915  -14.6298   20.7413 C   0  0  0  0  0  0  0  0  0  0  0  0
    6.3765  -13.5258   20.9049 C   0  0  0  0  0  0  0  0  0  0  0  0
    6.9233  -12.2776   21.0954 C   0  0  0  0  0  0  0  0  0  0  0  0
    8.2886  -12.0997   21.1273 C   0  0  0  0  0  0  0  0  0  0  0  0
    9.0954  -13.1921   20.9654 C   0  0  0  0  0  0  0  0  0  0  0  0
    9.3906  -16.3698   22.8989 C   0  0  0  0  0  0  0  0  0  0  0  0
   10.5451  -15.9411   23.2228 O   0  0  0  0  0  0  0  0  0  0  0  0
    8.4358  -16.4975   23.9275 N   0  0  0  0  0  0  0  0  0  0  0  0
    8.8401  -16.2888   25.3065 C   0  0  1  0  0  0  0  0  0  0  0  0
    7.6026  -15.8505   26.0500 C   0  0  0  0  0  0  0  0  0  0  0  0
    7.5164  -14.3809   26.0526 C   0  0  0  0  0  0  0  0  0  0  0  0
    8.5238  -13.6247   26.5671 C   0  0  0  0  0  0  0  0  0  0  0  0
    8.4432  -12.2463   26.5624 C   0  0  0  0  0  0  0  0  0  0  0  0
    7.3231  -11.6571   26.0268 C   0  0  0  0  0  0  0  0  0  0  0  0
    6.2801  -12.3865   25.4958 C   0  0  0  0  0  0  0  0  0  0  0  0
    6.4054  -13.7627   25.5224 C   0  0  0  0  0  0  0  0  0  0  0  0
    9.3885  -17.5520   25.8221 C   0  0  0  0  0  0  0  0  0  0  0  0
    8.6957  -18.5959   25.8866 O   0  0  0  0  0  0  0  0  0  0  0  0
   13.3664  -17.7643   26.6963 O   0  0  0  0  0  0  0  0  0  0  0  0
   12.7656  -18.9770   26.3413 C   0  0  0  0  0  0  0  0  0  0  0  0
   11.3021  -18.8615   26.6923 C   0  0  2  0  0  0  0  0  0  0  0  0
   10.7317  -17.6036   26.2599 N   0  0  0  0  0  0  0  0  0  0  0  0
   11.1946  -18.9650   28.1702 C   0  0  0  0  0  0  0  0  0  0  0  0
   10.6920  -18.0226   28.8330 O   0  0  0  0  0  0  0  0  0  0  0  0
   11.6273  -20.0703   28.8878 O   0  0  0  0  0  0  0  0  0  0  0  0
  2 10  1  0
  2  1  1  1
  2  3  1  0
  4  3  1  0
  4  9  1  0
  5  4  2  0
  6  5  1  0
  6  7  2  0
  7  8  1  0
  8  9  2  0
 10 11  2  0
 12 13  1  0
 12 10  1  0
 13 21  1  0
 14 15  1  0
 13 14  1  1
 15 16  2  0
 16 17  1  0
 18 17  2  0
 19 18  1  0
 20 15  1  0
 20 19  2  0
 21 22  2  0
 21 26  1  0
 25 24  1  1
 24 23  1  0
 25 27  1  0
 26 25  1  0
 27 28  2  0
 27 29  1  0
M  END
$$$$
