FFS.pdb
     RDKit          3D

 29 30  0  0  1  0  0  0  0  0999 V2000
   11.1366  -16.5309   21.9409 N   0  0  0  0  0  0  0  0  0  0  0  0
    9.9447  -15.7647   22.2467 C   0  0  1  0  0  0  0  0  0  0  0  0
    8.8062  -16.0971   21.3419 C   0  0  0  0  0  0  0  0  0  0  0  0
    8.2066  -14.8263   20.8361 C   0  0  0  0  0  0  0  0  0  0  0  0
    8.8474  -13.6277   20.8888 C   0  0  0  0  0  0  0  0  0  0  0  0
    8.2058  -12.5067   20.3976 C   0  0  0  0  0  0  0  0  0  0  0  0
    6.9409  -12.6046   19.8650 C   0  0  0  0  0  0  0  0  0  0  0  0
    6.2876  -13.8157   19.8090 C   0  0  0  0  0  0  0  0  0  0  0  0
    6.9224  -14.9254   20.2951 C   0  0  0  0  0  0  0  0  0  0  0  0
    9.5625  -16.0449   23.6521 C   0  0  0  0  0  0  0  0  0  0  0  0
   10.4529  -16.3877   24.4956 O   0  0  0  0  0  0  0  0  0  0  0  0
    8.2351  -15.9499   24.1155 N   0  0  0  0  0  0  0  0  0  0  0  0
    7.9685  -16.0360   25.5403 C   0  0  1  0  0  0  0  0  0  0  0  0
    6.6352  -15.3662   25.7640 C   0  0  0  0  0  0  0  0  0  0  0  0
    6.8360  -13.9333   26.0351 C   0  0  0  0  0  0  0  0  0  0  0  0
    5.8206  -13.0433   25.8666 C   0  0  0  0  0  0  0  0  0  0  0  0
    6.0099  -11.7008   26.1278 C   0  0  0  0  0  0  0  0  0  0  0  0
    7.2462  -11.2852   26.5609 C   0  0  0  0  0  0  0  0  0  0  0  0
    8.3014  -12.1540   26.7443 C   0  0  0  0  0  0  0  0  0  0  0  0
    8.0647  -13.4879   26.4704 C   0  0  0  0  0  0  0  0  0  0  0  0
    7.9558  -17.4561   25.9217 C   0  0  0  0  0  0  0  0  0  0  0  0
    7.7197  -17.8226   27.0980 O   0  0  0  0  0  0  0  0  0  0  0  0
    9.4111  -20.2428   23.3710 O   0  0  0  0  0  0  0  0  0  0  0  0
    8.3330  -20.7489   24.1052 C   0  0  0  0  0  0  0  0  0  0  0  0
    8.1533  -19.8457   25.3011 C   0  0  2  0  0  0  0  0  0  0  0  0
    8.2155  -18.4443   24.9447 N   0  0  0  0  0  0  0  0  0  0  0  0
    9.2481  -20.1565   26.2557 C   0  0  0  0  0  0  0  0  0  0  0  0
   10.0961  -19.2767   26.5503 O   0  0  0  0  0  0  0  0  0  0  0  0
    9.3987  -21.3951   26.8618 O   0  0  0  0  0  0  0  0  0  0  0  0
  2 10  1  0
  2  1  1  6
  2  3  1  0
  4  3  1  0
  4  9  1  0
  5  4  2  0
  6  5  1  0
  6  7  2  0
  7  8  1  0
  8  9  2  0
 10 11  2  0
 12 13  1  0
 12 10  1  0
 13 21  1  0
 14 15  1  0
 13 14  1  6
 15 16  2  0
 16 17  1  0
 18 17  2  0
 19 18  1  0
 20 15  1  0
 20 19  2  0
 21 22  2  0
 21 26  1  0
 25 24  1  6
 24 23  1  0
 25 27  1  0
 26 25  1  0
 27 28  2  0
 27 29  1  0
M  END
$$$$
