FFS.pdb
     RDKit          3D

 29 30  0  0  1  0  0  0  0  0999 V2000
   10.6679  -17.4655   20.1096 N   0  0  0  0  0  0  0  0  0  0  0  0
    9.9568  -16.3458   20.6942 C   0  0  1  0  0  0  0  0  0  0  0  0
    8.5154  -16.3235   20.3106 C   0  0  0  0  0  0  0  0  0  0  0  0
    7.9414  -14.9933   20.6733 C   0  0  0  0  0  0  0  0  0  0  0  0
    6.9839  -14.8299   21.6253 C   0  0  0  0  0  0  0  0  0  0  0  0
    6.5133  -13.5570   21.8859 C   0  0  0  0  0  0  0  0  0  0  0  0
    7.0070  -12.4758   21.1926 C   0  0  0  0  0  0  0  0  0  0  0  0
    7.9766  -12.6355   20.2277 C   0  0  0  0  0  0  0  0  0  0  0  0
    8.4424  -13.8954   19.9697 C   0  0  0  0  0  0  0  0  0  0  0  0
   10.0785  -16.4398   22.1694 C   0  0  0  0  0  0  0  0  0  0  0  0
   10.6841  -17.4294   22.6944 O   0  0  0  0  0  0  0  0  0  0  0  0
    9.5471  -15.4695   23.0424 N   0  0  0  0  0  0  0  0  0  0  0  0
    9.9419  -15.4739   24.4398 C   0  0  1  0  0  0  0  0  0  0  0  0
    9.0966  -14.4274   25.1230 C   0  0  0  0  0  0  0  0  0  0  0  0
    9.4320  -14.3724   26.5553 C   0  0  0  0  0  0  0  0  0  0  0  0
    8.9099  -15.2759   27.4285 C   0  0  0  0  0  0  0  0  0  0  0  0
    9.2312  -15.2258   28.7704 C   0  0  0  0  0  0  0  0  0  0  0  0
   10.0894  -14.2433   29.2026 C   0  0  0  0  0  0  0  0  0  0  0  0
   10.6401  -13.3086   28.3512 C   0  0  0  0  0  0  0  0  0  0  0  0
   10.2896  -13.3983   27.0172 C   0  0  0  0  0  0  0  0  0  0  0  0
    9.7126  -16.8225   24.9791 C   0  0  0  0  0  0  0  0  0  0  0  0
    8.5786  -17.3588   24.9584 O   0  0  0  0  0  0  0  0  0  0  0  0
   12.5175  -19.4732   25.0055 O   0  0  0  0  0  0  0  0  0  0  0  0
   11.2489  -19.9495   25.3540 C   0  0  0  0  0  0  0  0  0  0  0  0
   10.5622  -18.8477   26.1240 C   0  0  2  0  0  0  0  0  0  0  0  0
   10.7917  -17.5440   25.5389 N   0  0  0  0  0  0  0  0  0  0  0  0
   11.1106  -18.8678   27.5043 C   0  0  0  0  0  0  0  0  0  0  0  0
   11.7060  -17.8592   27.9605 O   0  0  0  0  0  0  0  0  0  0  0  0
   11.0038  -19.9633   28.3483 O   0  0  0  0  0  0  0  0  0  0  0  0
  2 10  1  0
  2  1  1  6
  2  3  1  0
  4  3  1  0
  4  9  1  0
  5  4  2  0
  6  5  1  0
  6  7  2  0
  7  8  1  0
  8  9  2  0
 10 11  2  0
 12 13  1  0
 12 10  1  0
 13 21  1  0
 14 15  1  0
 13 14  1  1
 15 16  2  0
 16 17  1  0
 18 17  2  0
 19 18  1  0
 20 15  1  0
 20 19  2  0
 21 22  2  0
 21 26  1  0
 25 24  1  6
 24 23  1  0
 25 27  1  0
 26 25  1  0
 27 28  2  0
 27 29  1  0
M  END
$$$$
