FFS.pdb
     RDKit          3D

 29 30  0  0  1  0  0  0  0  0999 V2000
    9.1603  -17.6876   20.1207 N   0  0  0  0  0  0  0  0  0  0  0  0
    8.3890  -17.9884   21.3106 C   0  0  1  0  0  0  0  0  0  0  0  0
    8.7051  -19.3350   21.8690 C   0  0  0  0  0  0  0  0  0  0  0  0
    7.9988  -20.3706   21.0570 C   0  0  0  0  0  0  0  0  0  0  0  0
    8.5984  -21.0677   20.0548 C   0  0  0  0  0  0  0  0  0  0  0  0
    7.8578  -22.0036   19.3581 C   0  0  0  0  0  0  0  0  0  0  0  0
    6.5372  -22.2240   19.6753 C   0  0  0  0  0  0  0  0  0  0  0  0
    5.9252  -21.5211   20.6893 C   0  0  0  0  0  0  0  0  0  0  0  0
    6.6580  -20.5948   21.3789 C   0  0  0  0  0  0  0  0  0  0  0  0
    8.6797  -16.9471   22.3259 C   0  0  0  0  0  0  0  0  0  0  0  0
    9.8482  -16.4469   22.4053 O   0  0  0  0  0  0  0  0  0  0  0  0
    7.7092  -16.4700   23.2294 N   0  0  0  0  0  0  0  0  0  0  0  0
    8.0485  -15.3871   24.1354 C   0  0  1  0  0  0  0  0  0  0  0  0
    6.7614  -14.6537   24.4213 C   0  0  0  0  0  0  0  0  0  0  0  0
    6.9862  -13.6394   25.4642 C   0  0  0  0  0  0  0  0  0  0  0  0
    7.7348  -12.5321   25.2095 C   0  0  0  0  0  0  0  0  0  0  0  0
    7.9387  -11.5791   26.1876 C   0  0  0  0  0  0  0  0  0  0  0  0
    7.3688  -11.7752   27.4227 C   0  0  0  0  0  0  0  0  0  0  0  0
    6.6039  -12.8829   27.7221 C   0  0  0  0  0  0  0  0  0  0  0  0
    6.4273  -13.8095   26.7118 C   0  0  0  0  0  0  0  0  0  0  0  0
    8.6451  -15.9697   25.3466 C   0  0  0  0  0  0  0  0  0  0  0  0
    8.0517  -16.8463   26.0199 O   0  0  0  0  0  0  0  0  0  0  0  0
   12.6078  -15.5885   25.7553 O   0  0  0  0  0  0  0  0  0  0  0  0
   12.0053  -16.7083   26.3388 C   0  0  0  0  0  0  0  0  0  0  0  0
   10.6309  -16.2807   26.7936 C   0  0  2  0  0  0  0  0  0  0  0  0
    9.9218  -15.5381   25.7737 N   0  0  0  0  0  0  0  0  0  0  0  0
   10.8117  -15.4185   27.9896 C   0  0  0  0  0  0  0  0  0  0  0  0
   11.4653  -15.8398   28.9772 O   0  0  0  0  0  0  0  0  0  0  0  0
   10.2886  -14.1377   28.0889 O   0  0  0  0  0  0  0  0  0  0  0  0
  2 10  1  0
  2  1  1  6
  2  3  1  0
  4  3  1  0
  4  9  1  0
  5  4  2  0
  6  5  1  0
  6  7  2  0
  7  8  1  0
  8  9  2  0
 10 11  2  0
 12 13  1  0
 12 10  1  0
 13 21  1  0
 14 15  1  0
 13 14  1  1
 15 16  2  0
 16 17  1  0
 18 17  2  0
 19 18  1  0
 20 15  1  0
 20 19  2  0
 21 22  2  0
 21 26  1  0
 25 24  1  6
 24 23  1  0
 25 27  1  0
 26 25  1  0
 27 28  2  0
 27 29  1  0
M  END
$$$$
