FFS.pdb
     RDKit          3D

 29 30  0  0  1  0  0  0  0  0999 V2000
    9.5563  -15.9271   19.1678 N   0  0  0  0  0  0  0  0  0  0  0  0
    8.5202  -16.3438   20.0921 C   0  0  1  0  0  0  0  0  0  0  0  0
    8.4487  -17.8267   20.2367 C   0  0  0  0  0  0  0  0  0  0  0  0
    7.8383  -18.4019   19.0010 C   0  0  0  0  0  0  0  0  0  0  0  0
    6.4954  -18.5109   18.8150 C   0  0  0  0  0  0  0  0  0  0  0  0
    6.0281  -19.0617   17.6369 C   0  0  0  0  0  0  0  0  0  0  0  0
    6.9087  -19.4912   16.6707 C   0  0  0  0  0  0  0  0  0  0  0  0
    8.2694  -19.3829   16.8538 C   0  0  0  0  0  0  0  0  0  0  0  0
    8.7320  -18.8379   18.0198 C   0  0  0  0  0  0  0  0  0  0  0  0
    8.8020  -15.7274   21.4114 C   0  0  0  0  0  0  0  0  0  0  0  0
   10.0066  -15.5555   21.7872 O   0  0  0  0  0  0  0  0  0  0  0  0
    7.7840  -15.3118   22.2927 N   0  0  0  0  0  0  0  0  0  0  0  0
    8.1417  -14.6601   23.5401 C   0  0  1  0  0  0  0  0  0  0  0  0
    7.0699  -13.6317   23.8044 C   0  0  0  0  0  0  0  0  0  0  0  0
    7.2564  -13.0497   25.1436 C   0  0  0  0  0  0  0  0  0  0  0  0
    8.2972  -12.2118   25.4005 C   0  0  0  0  0  0  0  0  0  0  0  0
    8.4661  -11.6621   26.6558 C   0  0  0  0  0  0  0  0  0  0  0  0
    7.5596  -11.9811   27.6383 C   0  0  0  0  0  0  0  0  0  0  0  0
    6.4915  -12.8258   27.4199 C   0  0  0  0  0  0  0  0  0  0  0  0
    6.3633  -13.3516   26.1480 C   0  0  0  0  0  0  0  0  0  0  0  0
    8.2099  -15.6850   24.5923 C   0  0  0  0  0  0  0  0  0  0  0  0
    7.2126  -16.3791   24.9047 O   0  0  0  0  0  0  0  0  0  0  0  0
   11.6180  -17.4499   25.2516 O   0  0  0  0  0  0  0  0  0  0  0  0
   10.4648  -18.0824   25.7288 C   0  0  0  0  0  0  0  0  0  0  0  0
    9.5391  -16.9959   26.2198 C   0  0  2  0  0  0  0  0  0  0  0  0
    9.4270  -15.9031   25.2775 N   0  0  0  0  0  0  0  0  0  0  0  0
   10.0991  -16.4847   27.4971 C   0  0  0  0  0  0  0  0  0  0  0  0
   10.3909  -15.2678   27.6151 O   0  0  0  0  0  0  0  0  0  0  0  0
   10.3277  -17.2905   28.6028 O   0  0  0  0  0  0  0  0  0  0  0  0
  2 10  1  0
  2  1  1  6
  2  3  1  0
  4  3  1  0
  4  9  1  0
  5  4  2  0
  6  5  1  0
  6  7  2  0
  7  8  1  0
  8  9  2  0
 10 11  2  0
 12 13  1  0
 12 10  1  0
 13 21  1  0
 14 15  1  0
 13 14  1  1
 15 16  2  0
 16 17  1  0
 18 17  2  0
 19 18  1  0
 20 15  1  0
 20 19  2  0
 21 22  2  0
 21 26  1  0
 25 24  1  6
 24 23  1  0
 25 27  1  0
 26 25  1  0
 27 28  2  0
 27 29  1  0
M  END
$$$$
