FFS.pdb
     RDKit          3D

 29 30  0  0  1  0  0  0  0  0999 V2000
   11.0051  -16.1133   22.0528 N   0  0  0  0  0  0  0  0  0  0  0  0
    9.7044  -15.5932   22.4257 C   0  0  1  0  0  0  0  0  0  0  0  0
    8.6354  -15.9896   21.4638 C   0  0  0  0  0  0  0  0  0  0  0  0
    8.1981  -14.7799   20.7049 C   0  0  0  0  0  0  0  0  0  0  0  0
    8.5471  -14.5457   19.4114 C   0  0  0  0  0  0  0  0  0  0  0  0
    8.0947  -13.3935   18.7970 C   0  0  0  0  0  0  0  0  0  0  0  0
    7.3050  -12.5008   19.4846 C   0  0  0  0  0  0  0  0  0  0  0  0
    6.9485  -12.7331   20.7945 C   0  0  0  0  0  0  0  0  0  0  0  0
    7.3963  -13.8733   21.4027 C   0  0  0  0  0  0  0  0  0  0  0  0
    9.3723  -16.1038   23.7780 C   0  0  0  0  0  0  0  0  0  0  0  0
   10.2888  -16.5938   24.5140 O   0  0  0  0  0  0  0  0  0  0  0  0
    8.0656  -16.0752   24.3049 N   0  0  0  0  0  0  0  0  0  0  0  0
    7.8610  -16.3274   25.7202 C   0  0  1  0  0  0  0  0  0  0  0  0
    6.6172  -15.5683   26.1112 C   0  0  0  0  0  0  0  0  0  0  0  0
    6.9325  -14.1385   26.2638 C   0  0  0  0  0  0  0  0  0  0  0  0
    8.1701  -13.7365   26.6614 C   0  0  0  0  0  0  0  0  0  0  0  0
    8.4651  -12.3945   26.7975 C   0  0  0  0  0  0  0  0  0  0  0  0
    7.4806  -11.4758   26.5224 C   0  0  0  0  0  0  0  0  0  0  0  0
    6.2140  -11.8410   26.1172 C   0  0  0  0  0  0  0  0  0  0  0  0
    5.9654  -13.1951   25.9950 C   0  0  0  0  0  0  0  0  0  0  0  0
    7.7191  -17.7781   25.9140 C   0  0  0  0  0  0  0  0  0  0  0  0
    7.3736  -18.2671   27.0164 O   0  0  0  0  0  0  0  0  0  0  0  0
    8.9160  -20.3278   22.9348 O   0  0  0  0  0  0  0  0  0  0  0  0
    7.9065  -20.8555   23.7472 C   0  0  0  0  0  0  0  0  0  0  0  0
    7.9412  -20.0871   25.0460 C   0  0  2  0  0  0  0  0  0  0  0  0
    7.9764  -18.6556   24.8358 N   0  0  0  0  0  0  0  0  0  0  0  0
    9.1677  -20.5052   25.7719 C   0  0  0  0  0  0  0  0  0  0  0  0
    9.3180  -21.7046   26.1167 O   0  0  0  0  0  0  0  0  0  0  0  0
   10.1900  -19.6285   26.1040 O   0  0  0  0  0  0  0  0  0  0  0  0
  2 10  1  0
  2  1  1  6
  2  3  1  0
  4  3  1  0
  4  9  1  0
  5  4  2  0
  6  5  1  0
  6  7  2  0
  7  8  1  0
  8  9  2  0
 10 11  2  0
 12 13  1  0
 12 10  1  0
 13 21  1  0
 14 15  1  0
 13 14  1  6
 15 16  2  0
 16 17  1  0
 18 17  2  0
 19 18  1  0
 20 15  1  0
 20 19  2  0
 21 22  2  0
 21 26  1  0
 25 24  1  6
 24 23  1  0
 25 27  1  0
 26 25  1  0
 27 28  2  0
 27 29  1  0
M  END
$$$$
