FFS.pdb
     RDKit          3D

 29 30  0  0  1  0  0  0  0  0999 V2000
   10.3245  -16.1456   21.4317 N   0  0  0  0  0  0  0  0  0  0  0  0
    9.2124  -15.5259   22.1248 C   0  0  1  0  0  0  0  0  0  0  0  0
    7.9204  -15.7019   21.4003 C   0  0  0  0  0  0  0  0  0  0  0  0
    7.7145  -14.5337   20.4929 C   0  0  0  0  0  0  0  0  0  0  0  0
    7.5416  -13.2621   20.9434 C   0  0  0  0  0  0  0  0  0  0  0  0
    7.3540  -12.2485   20.0229 C   0  0  0  0  0  0  0  0  0  0  0  0
    7.3430  -12.5243   18.6749 C   0  0  0  0  0  0  0  0  0  0  0  0
    7.5177  -13.8100   18.2134 C   0  0  0  0  0  0  0  0  0  0  0  0
    7.7033  -14.8133   19.1242 C   0  0  0  0  0  0  0  0  0  0  0  0
    9.1132  -16.1318   23.4750 C   0  0  0  0  0  0  0  0  0  0  0  0
   10.0696  -16.8432   23.9230 O   0  0  0  0  0  0  0  0  0  0  0  0
    7.9904  -15.9583   24.3087 N   0  0  0  0  0  0  0  0  0  0  0  0
    8.1261  -16.1610   25.7402 C   0  0  1  0  0  0  0  0  0  0  0  0
    6.9130  -15.5277   26.3755 C   0  0  0  0  0  0  0  0  0  0  0  0
    7.0206  -14.0613   26.3039 C   0  0  0  0  0  0  0  0  0  0  0  0
    8.0964  -13.4150   26.8295 C   0  0  0  0  0  0  0  0  0  0  0  0
    8.1978  -12.0400   26.7552 C   0  0  0  0  0  0  0  0  0  0  0  0
    7.1879  -11.3406   26.1390 C   0  0  0  0  0  0  0  0  0  0  0  0
    6.0809  -11.9567   25.5939 C   0  0  0  0  0  0  0  0  0  0  0  0
    6.0233  -13.3342   25.6921 C   0  0  0  0  0  0  0  0  0  0  0  0
    8.2046  -17.6071   25.9953 C   0  0  0  0  0  0  0  0  0  0  0  0
    7.1801  -18.3306   26.0198 O   0  0  0  0  0  0  0  0  0  0  0  0
   11.5902  -19.5644   25.3902 O   0  0  0  0  0  0  0  0  0  0  0  0
   10.4521  -20.3593   25.5642 C   0  0  0  0  0  0  0  0  0  0  0  0
    9.5441  -19.6233   26.5193 C   0  0  2  0  0  0  0  0  0  0  0  0
    9.4635  -18.2095   26.2205 N   0  0  0  0  0  0  0  0  0  0  0  0
   10.1019  -19.8038   27.8841 C   0  0  0  0  0  0  0  0  0  0  0  0
   10.2047  -20.9561   28.3756 O   0  0  0  0  0  0  0  0  0  0  0  0
   10.5300  -18.7482   28.6755 O   0  0  0  0  0  0  0  0  0  0  0  0
  2 10  1  0
  2  1  1  6
  2  3  1  0
  4  3  1  0
  4  9  1  0
  5  4  2  0
  6  5  1  0
  6  7  2  0
  7  8  1  0
  8  9  2  0
 10 11  2  0
 12 13  1  0
 12 10  1  0
 13 21  1  0
 14 15  1  0
 13 14  1  1
 15 16  2  0
 16 17  1  0
 18 17  2  0
 19 18  1  0
 20 15  1  0
 20 19  2  0
 21 22  2  0
 21 26  1  0
 25 24  1  6
 24 23  1  0
 25 27  1  0
 26 25  1  0
 27 28  2  0
 27 29  1  0
M  END
$$$$
