ITS.pdb
     RDKit          3D

 22 21  0  0  1  0  0  0  0  0999 V2000
    7.1538  -11.1809   27.7365 C   0  0  0  0  0  0  0  0  0  0  0  0
    6.2324  -11.9389   26.7637 C   0  0  0  0  0  0  0  0  0  0  0  0
    7.0332  -13.1001   26.2645 C   0  0  2  0  0  0  0  0  0  0  0  0
    8.4122  -12.6629   25.8084 C   0  0  0  0  0  0  0  0  0  0  0  0
    6.3557  -13.9841   25.2715 C   0  0  2  0  0  0  0  0  0  0  0  0
    5.1057  -14.4202   25.9547 N   0  0  0  0  0  0  0  0  0  0  0  0
    7.1193  -15.1912   24.8797 C   0  0  0  0  0  0  0  0  0  0  0  0
    7.2220  -16.1965   25.6680 O   0  0  0  0  0  0  0  0  0  0  0  0
    7.6622  -16.0975   21.0133 C   0  0  0  0  0  0  0  0  0  0  0  0
    8.8893  -16.4072   21.8219 C   0  0  1  0  0  0  0  0  0  0  0  0
    9.7950  -15.3805   21.6869 O   0  0  0  0  0  0  0  0  0  0  0  0
    8.5473  -16.5497   23.3221 C   0  0  2  0  0  0  0  0  0  0  0  0
    7.7906  -15.3629   23.6372 N   0  0  0  0  0  0  0  0  0  0  0  0
    9.7817  -16.7437   24.0657 C   0  0  0  0  0  0  0  0  0  0  0  0
   10.3375  -15.6736   24.4965 O   0  0  0  0  0  0  0  0  0  0  0  0
   10.6027  -19.2467   26.9334 O   0  0  0  0  0  0  0  0  0  0  0  0
   11.7000  -19.1668   26.1030 C   0  0  0  0  0  0  0  0  0  0  0  0
   11.6547  -18.0224   25.1471 C   0  0  2  0  0  0  0  0  0  0  0  0
   10.4340  -17.9516   24.3679 N   0  0  0  0  0  0  0  0  0  0  0  0
   12.7854  -18.2095   24.1682 C   0  0  0  0  0  0  0  0  0  0  0  0
   12.6003  -18.2710   22.9352 O   0  0  0  0  0  0  0  0  0  0  0  0
   14.1008  -18.3223   24.6159 O   0  0  0  0  0  0  0  0  0  0  0  0
  2  1  1  0
  3  5  1  0
  3  2  1  0
  3  4  1  6
  5  7  1  0
  5  6  1  1
  7  8  2  0
 10  9  1  6
 10 12  1  0
 11 10  1  0
 12 13  1  1
 13  7  1  0
 14 12  1  0
 14 15  2  0
 16 17  1  0
 18 17  1  1
 18 19  1  0
 18 20  1  0
 19 14  1  0
 20 21  2  0
 20 22  1  0
M  END
$$$$
