ITS.pdb
     RDKit          3D

 22 21  0  0  1  0  0  0  0  0999 V2000
    8.0115  -11.7398   26.9963 C   0  0  0  0  0  0  0  0  0  0  0  0
    7.8514  -13.2571   27.2012 C   0  0  0  0  0  0  0  0  0  0  0  0
    6.9912  -13.7326   26.0729 C   0  0  2  0  0  0  0  0  0  0  0  0
    5.7339  -12.8936   25.9473 C   0  0  0  0  0  0  0  0  0  0  0  0
    6.7078  -15.1972   26.0379 C   0  0  2  0  0  0  0  0  0  0  0  0
    7.5859  -15.7707   27.0958 N   0  0  0  0  0  0  0  0  0  0  0  0
    7.0221  -15.8683   24.7555 C   0  0  0  0  0  0  0  0  0  0  0  0
    6.4310  -16.9522   24.4113 O   0  0  0  0  0  0  0  0  0  0  0  0
    6.8839  -14.2812   21.4821 C   0  0  0  0  0  0  0  0  0  0  0  0
    8.2028  -14.9995   21.4842 C   0  0  1  0  0  0  0  0  0  0  0  0
    9.2099  -14.1024   21.7553 O   0  0  0  0  0  0  0  0  0  0  0  0
    8.2369  -16.0996   22.5688 C   0  0  2  0  0  0  0  0  0  0  0  0
    7.9704  -15.4022   23.8030 N   0  0  0  0  0  0  0  0  0  0  0  0
    9.5092  -16.7984   22.4848 C   0  0  0  0  0  0  0  0  0  0  0  0
   10.3456  -16.5307   23.4168 O   0  0  0  0  0  0  0  0  0  0  0  0
   10.5738  -19.5823   19.5655 O   0  0  0  0  0  0  0  0  0  0  0  0
   11.2541  -19.6661   20.7614 C   0  0  0  0  0  0  0  0  0  0  0  0
   11.2019  -18.4182   21.5771 C   0  0  2  0  0  0  0  0  0  0  0  0
    9.9302  -17.7246   21.5148 N   0  0  0  0  0  0  0  0  0  0  0  0
   12.2393  -17.4754   21.0230 C   0  0  0  0  0  0  0  0  0  0  0  0
   11.9468  -16.3497   20.5696 O   0  0  0  0  0  0  0  0  0  0  0  0
   13.5856  -17.8362   20.9981 O   0  0  0  0  0  0  0  0  0  0  0  0
  2  1  1  0
  3  5  1  0
  3  2  1  0
  3  4  1  1
  5  7  1  0
  5  6  1  1
  7  8  2  0
 10  9  1  1
 10 12  1  0
 11 10  1  0
 12 13  1  1
 13  7  1  0
 14 12  1  0
 14 15  2  0
 16 17  1  0
 18 17  1  6
 18 19  1  0
 18 20  1  0
 19 14  1  0
 20 21  2  0
 20 22  1  0
M  END
$$$$
