ITS.pdb
     RDKit          3D

 22 21  0  0  1  0  0  0  0  0999 V2000
    6.9638  -12.2613   19.7331 C   0  0  0  0  0  0  0  0  0  0  0  0
    7.7325  -12.9472   18.5893 C   0  0  0  0  0  0  0  0  0  0  0  0
    8.7782  -13.7903   19.2485 C   0  0  2  0  0  0  0  0  0  0  0  0
    9.6360  -12.9674   20.1907 C   0  0  0  0  0  0  0  0  0  0  0  0
    9.5902  -14.6539   18.3422 C   0  0  2  0  0  0  0  0  0  0  0  0
    8.5822  -15.3855   17.5249 N   0  0  0  0  0  0  0  0  0  0  0  0
   10.4496  -15.6488   19.0243 C   0  0  0  0  0  0  0  0  0  0  0  0
    9.9419  -16.6328   19.6697 O   0  0  0  0  0  0  0  0  0  0  0  0
   13.3596  -17.4833   17.5897 C   0  0  0  0  0  0  0  0  0  0  0  0
   13.8422  -16.9270   18.8986 C   0  0  1  0  0  0  0  0  0  0  0  0
   14.5793  -15.7890   18.6660 O   0  0  0  0  0  0  0  0  0  0  0  0
   12.6567  -16.5505   19.8156 C   0  0  2  0  0  0  0  0  0  0  0  0
   11.8719  -15.6260   19.0346 N   0  0  0  0  0  0  0  0  0  0  0  0
   13.1821  -16.0471   21.0744 C   0  0  0  0  0  0  0  0  0  0  0  0
   13.3631  -14.7805   21.1270 O   0  0  0  0  0  0  0  0  0  0  0  0
   13.3320  -16.1258   25.8623 O   0  0  0  0  0  0  0  0  0  0  0  0
   12.9521  -16.6107   24.6292 C   0  0  0  0  0  0  0  0  0  0  0  0
   13.8150  -16.1479   23.5039 C   0  0  2  0  0  0  0  0  0  0  0  0
   13.5124  -16.7738   22.2315 N   0  0  0  0  0  0  0  0  0  0  0  0
   15.2355  -16.5196   23.8445 C   0  0  0  0  0  0  0  0  0  0  0  0
   15.8099  -16.0996   24.8702 O   0  0  0  0  0  0  0  0  0  0  0  0
   15.9691  -17.3609   23.0093 O   0  0  0  0  0  0  0  0  0  0  0  0
  2  1  1  0
  3  5  1  0
  3  2  1  0
  3  4  1  6
  5  7  1  0
  5  6  1  6
  7  8  2  0
 10  9  1  6
 10 12  1  0
 11 10  1  0
 12 13  1  6
 13  7  1  0
 14 12  1  0
 14 15  2  0
 16 17  1  0
 18 17  1  1
 18 19  1  0
 18 20  1  0
 19 14  1  0
 20 21  2  0
 20 22  1  0
M  END
$$$$
