ITS.pdb
     RDKit          3D

 22 21  0  0  1  0  0  0  0  0999 V2000
    6.6542  -11.4983   27.8061 C   0  0  0  0  0  0  0  0  0  0  0  0
    5.7932  -12.3844   26.8878 C   0  0  0  0  0  0  0  0  0  0  0  0
    6.7497  -13.2990   26.1895 C   0  0  2  0  0  0  0  0  0  0  0  0
    7.9220  -12.5311   25.6091 C   0  0  0  0  0  0  0  0  0  0  0  0
    6.1487  -14.2515   25.2108 C   0  0  2  0  0  0  0  0  0  0  0  0
    5.1405  -15.0105   26.0025 N   0  0  0  0  0  0  0  0  0  0  0  0
    7.0963  -15.2190   24.6112 C   0  0  0  0  0  0  0  0  0  0  0  0
    7.4429  -16.2829   25.2362 O   0  0  0  0  0  0  0  0  0  0  0  0
    7.0933  -15.4030   20.7561 C   0  0  0  0  0  0  0  0  0  0  0  0
    8.4661  -15.8062   21.2127 C   0  0  1  0  0  0  0  0  0  0  0  0
    9.3419  -14.7679   20.9950 O   0  0  0  0  0  0  0  0  0  0  0  0
    8.4777  -16.1337   22.7228 C   0  0  2  0  0  0  0  0  0  0  0  0
    7.6975  -15.0828   23.3291 N   0  0  0  0  0  0  0  0  0  0  0  0
    9.8582  -16.2487   23.1647 C   0  0  0  0  0  0  0  0  0  0  0  0
   10.3888  -15.1663   23.5966 O   0  0  0  0  0  0  0  0  0  0  0  0
   11.8113  -19.7920   23.8964 O   0  0  0  0  0  0  0  0  0  0  0  0
   12.3851  -18.6571   24.4281 C   0  0  0  0  0  0  0  0  0  0  0  0
   12.0235  -17.4011   23.7090 C   0  0  2  0  0  0  0  0  0  0  0  0
   10.6749  -17.3927   23.1766 N   0  0  0  0  0  0  0  0  0  0  0  0
   12.9565  -17.2724   22.5322 C   0  0  0  0  0  0  0  0  0  0  0  0
   12.5435  -17.1527   21.3603 O   0  0  0  0  0  0  0  0  0  0  0  0
   14.3382  -17.2830   22.7172 O   0  0  0  0  0  0  0  0  0  0  0  0
  2  1  1  0
  3  5  1  0
  3  2  1  0
  3  4  1  6
  5  7  1  0
  5  6  1  1
  7  8  2  0
 10  9  1  1
 10 12  1  0
 11 10  1  0
 12 13  1  1
 13  7  1  0
 14 12  1  0
 14 15  2  0
 16 17  1  0
 18 17  1  6
 18 19  1  0
 18 20  1  0
 19 14  1  0
 20 21  2  0
 20 22  1  0
M  END
$$$$
