ITS.pdb
     RDKit          3D

 22 21  0  0  1  0  0  0  0  0999 V2000
    6.6370  -11.5950   27.1766 C   0  0  0  0  0  0  0  0  0  0  0  0
    6.0250  -12.5166   26.1062 C   0  0  0  0  0  0  0  0  0  0  0  0
    6.9990  -13.6386   25.9286 C   0  0  2  0  0  0  0  0  0  0  0  0
    8.4118  -13.1178   25.7455 C   0  0  0  0  0  0  0  0  0  0  0  0
    6.6328  -14.6691   24.9135 C   0  0  2  0  0  0  0  0  0  0  0  0
    5.2833  -15.1405   25.3330 N   0  0  0  0  0  0  0  0  0  0  0  0
    7.5379  -15.8398   24.8507 C   0  0  0  0  0  0  0  0  0  0  0  0
    7.4814  -16.7703   25.7302 O   0  0  0  0  0  0  0  0  0  0  0  0
    8.7360  -17.1936   21.3121 C   0  0  0  0  0  0  0  0  0  0  0  0
    9.8455  -17.2840   22.3203 C   0  0  1  0  0  0  0  0  0  0  0  0
   10.6810  -16.2006   22.1768 O   0  0  0  0  0  0  0  0  0  0  0  0
    9.2907  -17.2731   23.7625 C   0  0  2  0  0  0  0  0  0  0  0  0
    8.5244  -16.0541   23.8483 N   0  0  0  0  0  0  0  0  0  0  0  0
   10.4022  -17.4027   24.6909 C   0  0  0  0  0  0  0  0  0  0  0  0
   10.8820  -16.3000   25.1309 O   0  0  0  0  0  0  0  0  0  0  0  0
   10.8201  -19.2215   28.0286 O   0  0  0  0  0  0  0  0  0  0  0  0
   11.9255  -19.5082   27.2565 C   0  0  0  0  0  0  0  0  0  0  0  0
   12.1138  -18.5841   26.1008 C   0  0  2  0  0  0  0  0  0  0  0  0
   11.0092  -18.5800   25.1616 N   0  0  0  0  0  0  0  0  0  0  0  0
   13.3282  -19.0549   25.3421 C   0  0  0  0  0  0  0  0  0  0  0  0
   13.2845  -19.3625   24.1331 O   0  0  0  0  0  0  0  0  0  0  0  0
   14.5640  -19.1644   25.9777 O   0  0  0  0  0  0  0  0  0  0  0  0
  2  1  1  0
  3  5  1  0
  3  2  1  0
  3  4  1  6
  5  7  1  0
  5  6  1  1
  7  8  2  0
 10  9  1  6
 10 12  1  0
 11 10  1  0
 12 13  1  1
 13  7  1  0
 14 12  1  0
 14 15  2  0
 16 17  1  0
 18 17  1  1
 18 19  1  0
 18 20  1  0
 19 14  1  0
 20 21  2  0
 20 22  1  0
M  END
$$$$
