CLD.pdb
     RDKit          3D

 23 22  0  0  1  0  0  0  0  0999 V2000
    7.2569  -16.8140   21.8029 N   0  0  0  0  0  0  0  0  0  0  0  0
    8.4591  -16.0598   21.5774 C   0  0  1  0  0  0  0  0  0  0  0  0
    8.2010  -14.9916   20.5230 C   0  0  0  0  0  0  0  0  0  0  0  0
    6.5732  -14.2360   20.7363 S   0  0  0  0  0  0  0  0  0  0  0  0
    8.8180  -15.3508   22.8251 C   0  0  0  0  0  0  0  0  0  0  0  0
    9.8671  -14.6599   22.9130 O   0  0  0  0  0  0  0  0  0  0  0  0
    5.4484  -12.5929   26.2414 C   0  0  0  0  0  0  0  0  0  0  0  0
    6.6785  -12.9674   25.3840 C   0  0  1  0  0  0  0  0  0  0  0  0
    7.6090  -11.7876   25.4956 C   0  0  0  0  0  0  0  0  0  0  0  0
    7.1945  -14.2429   25.9384 C   0  0  0  0  0  0  0  0  0  0  0  0
    8.3418  -14.8849   25.2361 C   0  0  2  0  0  0  0  0  0  0  0  0
    7.9714  -15.4391   23.9630 N   0  0  0  0  0  0  0  0  0  0  0  0
    9.0815  -15.8454   26.0785 C   0  0  0  0  0  0  0  0  0  0  0  0
    9.5545  -15.4742   27.1804 O   0  0  0  0  0  0  0  0  0  0  0  0
    9.2883  -17.1982   25.6941 N   0  0  0  0  0  0  0  0  0  0  0  0
   10.0698  -18.1129   26.5038 C   0  0  1  0  0  0  0  0  0  0  0  0
    9.4349  -19.4707   26.5859 C   0  0  0  0  0  0  0  0  0  0  0  0
    8.1898  -19.4979   27.3888 C   0  0  0  0  0  0  0  0  0  0  0  0
    8.2370  -19.2306   28.6104 O   0  0  0  0  0  0  0  0  0  0  0  0
   11.4662  -18.1771   26.0125 C   0  0  0  0  0  0  0  0  0  0  0  0
   12.4469  -18.9110   26.6857 O   0  0  0  0  0  0  0  0  0  0  0  0
    6.9624  -19.8114   26.8333 O   0  0  0  0  0  0  0  0  0  0  0  0
   11.8216  -17.5743   24.9724 O   0  0  0  0  0  0  0  0  0  0  0  0
  2  1  1  1
  2  5  1  0
  3  2  1  0
  4  3  1  0
  5  6  2  0
  8  7  1  1
  8  9  1  0
 11 10  1  1
 10  8  1  0
 11 13  1  0
 12  5  1  0
 12 11  1  0
 13 15  1  0
 14 13  2  0
 16 15  1  0
 16 20  1  0
 16 17  1  6
 18 17  1  0
 18 22  1  0
 19 18  2  0
 20 21  1  0
 23 20  2  0
M  END
$$$$
