CLD.pdb
     RDKit          3D

 23 22  0  0  1  0  0  0  0  0999 V2000
    9.7729  -17.5449   16.0113 N   0  0  0  0  0  0  0  0  0  0  0  0
    9.1875  -18.0010   17.2418 C   0  0  1  0  0  0  0  0  0  0  0  0
    9.6632  -19.4169   17.5390 C   0  0  0  0  0  0  0  0  0  0  0  0
    9.0634  -19.9892   19.1449 S   0  0  0  0  0  0  0  0  0  0  0  0
    9.6738  -17.1460   18.3466 C   0  0  0  0  0  0  0  0  0  0  0  0
   10.9036  -16.9770   18.5580 O   0  0  0  0  0  0  0  0  0  0  0  0
    6.4891  -12.9662   20.3841 C   0  0  0  0  0  0  0  0  0  0  0  0
    7.6894  -13.7023   19.7470 C   0  0  1  0  0  0  0  0  0  0  0  0
    8.6887  -12.6209   19.4272 C   0  0  0  0  0  0  0  0  0  0  0  0
    8.1327  -14.7076   20.7437 C   0  0  0  0  0  0  0  0  0  0  0  0
    9.1693  -15.6900   20.3170 C   0  0  2  0  0  0  0  0  0  0  0  0
    8.7465  -16.4909   19.2013 N   0  0  0  0  0  0  0  0  0  0  0  0
    9.6998  -16.5028   21.4292 C   0  0  0  0  0  0  0  0  0  0  0  0
    8.9235  -17.2272   22.0987 O   0  0  0  0  0  0  0  0  0  0  0  0
   11.0758  -16.5048   21.7860 N   0  0  0  0  0  0  0  0  0  0  0  0
   11.5890  -17.3453   22.8505 C   0  0  1  0  0  0  0  0  0  0  0  0
   12.0348  -18.6851   22.3408 C   0  0  0  0  0  0  0  0  0  0  0  0
   12.6260  -19.5529   23.3863 C   0  0  0  0  0  0  0  0  0  0  0  0
   12.0212  -19.7134   24.4700 O   0  0  0  0  0  0  0  0  0  0  0  0
   12.6622  -16.6441   23.5935 C   0  0  0  0  0  0  0  0  0  0  0  0
   13.0687  -15.3521   23.2485 O   0  0  0  0  0  0  0  0  0  0  0  0
   13.8356  -20.2000   23.2085 O   0  0  0  0  0  0  0  0  0  0  0  0
   13.2473  -17.1843   24.5617 O   0  0  0  0  0  0  0  0  0  0  0  0
  2  1  1  6
  2  5  1  0
  3  2  1  0
  4  3  1  0
  5  6  2  0
  8  7  1  1
  8  9  1  0
 11 10  1  1
 10  8  1  0
 11 13  1  0
 12  5  1  0
 12 11  1  0
 13 15  1  0
 14 13  2  0
 16 15  1  0
 16 20  1  0
 16 17  1  6
 18 17  1  0
 18 22  1  0
 19 18  2  0
 20 21  1  0
 23 20  2  0
M  END
$$$$
