CLD.pdb
     RDKit          3D

 23 22  0  0  1  0  0  0  0  0999 V2000
    8.1492  -13.0689   19.9993 N   0  0  0  0  0  0  0  0  0  0  0  0
    7.4937  -14.0668   20.7989 C   0  0  1  0  0  0  0  0  0  0  0  0
    7.7158  -15.4415   20.1823 C   0  0  0  0  0  0  0  0  0  0  0  0
    6.6775  -15.6838   18.7230 S   0  0  0  0  0  0  0  0  0  0  0  0
    8.1217  -14.0926   22.1380 C   0  0  0  0  0  0  0  0  0  0  0  0
    9.3705  -14.0208   22.2826 O   0  0  0  0  0  0  0  0  0  0  0  0
    5.3566  -12.2112   26.6593 C   0  0  0  0  0  0  0  0  0  0  0  0
    6.4880  -12.3527   25.6160 C   0  0  1  0  0  0  0  0  0  0  0  0
    7.5274  -11.3410   26.0239 C   0  0  0  0  0  0  0  0  0  0  0  0
    6.9213  -13.7705   25.6677 C   0  0  0  0  0  0  0  0  0  0  0  0
    7.8767  -14.2372   24.6232 C   0  0  2  0  0  0  0  0  0  0  0  0
    7.3132  -14.2004   23.3017 N   0  0  0  0  0  0  0  0  0  0  0  0
    8.4995  -15.5382   24.9375 C   0  0  0  0  0  0  0  0  0  0  0  0
    7.8321  -16.5947   24.8189 O   0  0  0  0  0  0  0  0  0  0  0  0
    9.8462  -15.6547   25.3771 N   0  0  0  0  0  0  0  0  0  0  0  0
   10.4558  -16.9436   25.6424 C   0  0  1  0  0  0  0  0  0  0  0  0
   11.9173  -16.9531   25.2993 C   0  0  0  0  0  0  0  0  0  0  0  0
   12.1949  -16.6769   23.8703 C   0  0  0  0  0  0  0  0  0  0  0  0
   11.3883  -17.0693   22.9976 O   0  0  0  0  0  0  0  0  0  0  0  0
   10.2074  -17.3565   27.0435 C   0  0  0  0  0  0  0  0  0  0  0  0
   10.5393  -18.6349   27.5006 O   0  0  0  0  0  0  0  0  0  0  0  0
   13.3251  -15.9940   23.4585 O   0  0  0  0  0  0  0  0  0  0  0  0
    9.6890  -16.5732   27.8737 O   0  0  0  0  0  0  0  0  0  0  0  0
  2  1  1  6
  2  5  1  0
  3  2  1  0
  4  3  1  0
  5  6  2  0
  8  7  1  1
  8  9  1  0
 11 10  1  1
 10  8  1  0
 11 13  1  0
 12  5  1  0
 12 11  1  0
 13 15  1  0
 14 13  2  0
 16 15  1  0
 16 20  1  0
 16 17  1  1
 18 17  1  0
 18 22  1  0
 19 18  2  0
 20 21  1  0
 23 20  2  0
M  END
$$$$
