CLD.pdb
     RDKit          3D

 23 22  0  0  1  0  0  0  0  0999 V2000
    8.8637  -14.7980   19.5084 N   0  0  0  0  0  0  0  0  0  0  0  0
    7.7501  -14.9077   20.4098 C   0  0  1  0  0  0  0  0  0  0  0  0
    7.2485  -16.3456   20.4284 C   0  0  0  0  0  0  0  0  0  0  0  0
    6.6771  -16.8644   18.7942 S   0  0  0  0  0  0  0  0  0  0  0  0
    8.2140  -14.5993   21.7802 C   0  0  0  0  0  0  0  0  0  0  0  0
    9.3625  -14.9288   22.1779 O   0  0  0  0  0  0  0  0  0  0  0  0
    8.1688  -11.8978   26.4336 C   0  0  0  0  0  0  0  0  0  0  0  0
    6.8934  -12.7556   26.2719 C   0  0  1  0  0  0  0  0  0  0  0  0
    5.8111  -11.9890   26.9871 C   0  0  0  0  0  0  0  0  0  0  0  0
    6.6956  -12.9289   24.8120 C   0  0  0  0  0  0  0  0  0  0  0  0
    7.6540  -13.8108   24.0870 C   0  0  2  0  0  0  0  0  0  0  0  0
    7.3577  -13.9151   22.6848 N   0  0  0  0  0  0  0  0  0  0  0  0
    7.8375  -15.1283   24.7270 C   0  0  0  0  0  0  0  0  0  0  0  0
    7.0144  -16.0498   24.5059 O   0  0  0  0  0  0  0  0  0  0  0  0
    8.9238  -15.4097   25.5995 N   0  0  0  0  0  0  0  0  0  0  0  0
    9.4746  -16.7449   25.7299 C   0  0  1  0  0  0  0  0  0  0  0  0
   10.2462  -17.1541   24.5089 C   0  0  0  0  0  0  0  0  0  0  0  0
   10.8623  -18.4974   24.6169 C   0  0  0  0  0  0  0  0  0  0  0  0
   11.3417  -18.8707   25.7109 O   0  0  0  0  0  0  0  0  0  0  0  0
   10.2844  -16.8537   26.9659 C   0  0  0  0  0  0  0  0  0  0  0  0
   10.3978  -18.0592   27.6640 O   0  0  0  0  0  0  0  0  0  0  0  0
   10.9291  -19.3653   23.5418 O   0  0  0  0  0  0  0  0  0  0  0  0
   10.8998  -15.8665   27.4331 O   0  0  0  0  0  0  0  0  0  0  0  0
  2  1  1  6
  2  5  1  0
  3  2  1  0
  4  3  1  0
  5  6  2  0
  8  7  1  6
  8  9  1  0
 11 10  1  1
 10  8  1  0
 11 13  1  0
 12  5  1  0
 12 11  1  0
 13 15  1  0
 14 13  2  0
 16 15  1  0
 16 20  1  0
 16 17  1  6
 18 17  1  0
 18 22  1  0
 19 18  2  0
 20 21  1  0
 23 20  2  0
M  END
$$$$
