CLD.pdb
     RDKit          3D

 23 22  0  0  1  0  0  0  0  0999 V2000
    8.9770  -15.5776   20.7637 N   0  0  0  0  0  0  0  0  0  0  0  0
    8.0920  -15.8622   21.8594 C   0  0  1  0  0  0  0  0  0  0  0  0
    7.9791  -17.3695   22.0459 C   0  0  0  0  0  0  0  0  0  0  0  0
    7.3459  -18.1714   20.5552 S   0  0  0  0  0  0  0  0  0  0  0  0
    8.6833  -15.3209   23.1026 C   0  0  0  0  0  0  0  0  0  0  0  0
    9.9257  -15.1566   23.2253 O   0  0  0  0  0  0  0  0  0  0  0  0
    5.6947  -11.9658   26.6349 C   0  0  0  0  0  0  0  0  0  0  0  0
    6.7784  -12.4435   25.6420 C   0  0  1  0  0  0  0  0  0  0  0  0
    7.7479  -11.2949   25.5360 C   0  0  0  0  0  0  0  0  0  0  0  0
    7.3327  -13.6974   26.2085 C   0  0  0  0  0  0  0  0  0  0  0  0
    8.3696  -14.4135   25.4124 C   0  0  2  0  0  0  0  0  0  0  0  0
    7.8458  -14.9719   24.1964 N   0  0  0  0  0  0  0  0  0  0  0  0
    9.1397  -15.3953   26.2011 C   0  0  0  0  0  0  0  0  0  0  0  0
    9.7006  -15.0387   27.2659 O   0  0  0  0  0  0  0  0  0  0  0  0
    9.2797  -16.7533   25.8048 N   0  0  0  0  0  0  0  0  0  0  0  0
   10.0756  -17.6951   26.5681 C   0  0  1  0  0  0  0  0  0  0  0  0
    9.3733  -19.0105   26.7413 C   0  0  0  0  0  0  0  0  0  0  0  0
    9.9372  -19.8478   27.8260 C   0  0  0  0  0  0  0  0  0  0  0  0
   10.9337  -19.4416   28.4648 O   0  0  0  0  0  0  0  0  0  0  0  0
   11.4174  -17.8531   25.9597 C   0  0  0  0  0  0  0  0  0  0  0  0
   11.5766  -18.2485   24.6286 O   0  0  0  0  0  0  0  0  0  0  0  0
    9.3983  -21.0763   28.1636 O   0  0  0  0  0  0  0  0  0  0  0  0
   12.4627  -17.6376   26.6173 O   0  0  0  0  0  0  0  0  0  0  0  0
  2  1  1  6
  2  5  1  0
  3  2  1  0
  4  3  1  0
  5  6  2  0
  8  7  1  1
  8  9  1  0
 11 10  1  1
 10  8  1  0
 11 13  1  0
 12  5  1  0
 12 11  1  0
 13 15  1  0
 14 13  2  0
 16 15  1  0
 16 20  1  0
 16 17  1  6
 18 17  1  0
 18 22  1  0
 19 18  2  0
 20 21  1  0
 23 20  2  0
M  END
$$$$
