CLD.pdb
     RDKit          3D

 23 22  0  0  1  0  0  0  0  0999 V2000
    8.1531  -14.8016   20.0695 N   0  0  0  0  0  0  0  0  0  0  0  0
    7.3836  -15.0664   21.2538 C   0  0  1  0  0  0  0  0  0  0  0  0
    7.0464  -16.5500   21.3221 C   0  0  0  0  0  0  0  0  0  0  0  0
    8.5354  -17.5688   21.2165 S   0  0  0  0  0  0  0  0  0  0  0  0
    8.2139  -14.7618   22.4396 C   0  0  0  0  0  0  0  0  0  0  0  0
    9.4432  -14.5087   22.3370 O   0  0  0  0  0  0  0  0  0  0  0  0
    5.8546  -12.3700   27.0201 C   0  0  0  0  0  0  0  0  0  0  0  0
    6.7390  -12.5815   25.7705 C   0  0  1  0  0  0  0  0  0  0  0  0
    7.5958  -11.3453   25.6816 C   0  0  0  0  0  0  0  0  0  0  0  0
    7.4714  -13.8520   25.9941 C   0  0  0  0  0  0  0  0  0  0  0  0
    8.3605  -14.3362   24.9001 C   0  0  2  0  0  0  0  0  0  0  0  0
    7.6287  -14.7496   23.7345 N   0  0  0  0  0  0  0  0  0  0  0  0
    9.3380  -15.3493   25.3442 C   0  0  0  0  0  0  0  0  0  0  0  0
    9.9849  -15.1698   26.4048 O   0  0  0  0  0  0  0  0  0  0  0  0
    9.5872  -16.5430   24.6137 N   0  0  0  0  0  0  0  0  0  0  0  0
   10.6462  -17.4611   24.9861 C   0  0  1  0  0  0  0  0  0  0  0  0
   10.4193  -18.8350   24.4252 C   0  0  0  0  0  0  0  0  0  0  0  0
    9.4016  -19.6187   25.1639 C   0  0  0  0  0  0  0  0  0  0  0  0
    8.8524  -20.5964   24.6083 O   0  0  0  0  0  0  0  0  0  0  0  0
   11.9677  -16.9116   24.6028 C   0  0  0  0  0  0  0  0  0  0  0  0
   12.0868  -15.6971   23.9213 O   0  0  0  0  0  0  0  0  0  0  0  0
    9.0302  -19.3073   26.4594 O   0  0  0  0  0  0  0  0  0  0  0  0
   13.0313  -17.5164   24.8760 O   0  0  0  0  0  0  0  0  0  0  0  0
  2  1  1  6
  2  5  1  0
  3  2  1  0
  4  3  1  0
  5  6  2  0
  8  7  1  1
  8  9  1  0
 11 10  1  1
 10  8  1  0
 11 13  1  0
 12  5  1  0
 12 11  1  0
 13 15  1  0
 14 13  2  0
 16 15  1  0
 16 20  1  0
 16 17  1  6
 18 17  1  0
 18 22  1  0
 19 18  2  0
 20 21  1  0
 23 20  2  0
M  END
$$$$
