CLD.pdb
     RDKit          3D

 23 22  0  0  1  0  0  0  0  0999 V2000
    6.7824  -15.8086   21.2034 N   0  0  0  0  0  0  0  0  0  0  0  0
    8.1889  -15.5188   21.1512 C   0  0  1  0  0  0  0  0  0  0  0  0
    8.4227  -14.2764   20.3020 C   0  0  0  0  0  0  0  0  0  0  0  0
    7.4857  -14.3484   18.7584 S   0  0  0  0  0  0  0  0  0  0  0  0
    8.6604  -15.1984   22.5162 C   0  0  0  0  0  0  0  0  0  0  0  0
    9.8635  -14.9073   22.7474 O   0  0  0  0  0  0  0  0  0  0  0  0
    5.7251  -12.4583   26.4169 C   0  0  0  0  0  0  0  0  0  0  0  0
    6.8976  -12.8791   25.5023 C   0  0  1  0  0  0  0  0  0  0  0  0
    8.0232  -11.9393   25.8489 C   0  0  0  0  0  0  0  0  0  0  0  0
    7.1505  -14.3124   25.7893 C   0  0  0  0  0  0  0  0  0  0  0  0
    8.1765  -15.0097   24.9631 C   0  0  2  0  0  0  0  0  0  0  0  0
    7.7489  -15.2140   23.6064 N   0  0  0  0  0  0  0  0  0  0  0  0
    8.6912  -16.2446   25.5869 C   0  0  0  0  0  0  0  0  0  0  0  0
    7.9108  -17.2012   25.8145 O   0  0  0  0  0  0  0  0  0  0  0  0
   10.0560  -16.4062   25.9500 N   0  0  0  0  0  0  0  0  0  0  0  0
   10.5739  -17.6705   26.4363 C   0  0  1  0  0  0  0  0  0  0  0  0
   11.9521  -17.9503   25.9111 C   0  0  0  0  0  0  0  0  0  0  0  0
   12.5083  -19.2480   26.3611 C   0  0  0  0  0  0  0  0  0  0  0  0
   11.7485  -20.1020   26.8705 O   0  0  0  0  0  0  0  0  0  0  0  0
   10.5187  -17.7189   27.9162 C   0  0  0  0  0  0  0  0  0  0  0  0
   10.6326  -18.9242   28.6147 O   0  0  0  0  0  0  0  0  0  0  0  0
   13.8514  -19.5555   26.2386 O   0  0  0  0  0  0  0  0  0  0  0  0
   10.3675  -16.6786   28.5990 O   0  0  0  0  0  0  0  0  0  0  0  0
  2  1  1  1
  2  5  1  0
  3  2  1  0
  4  3  1  0
  5  6  2  0
  8  7  1  1
  8  9  1  0
 11 10  1  1
 10  8  1  0
 11 13  1  0
 12  5  1  0
 12 11  1  0
 13 15  1  0
 14 13  2  0
 16 15  1  0
 16 20  1  0
 16 17  1  1
 18 17  1  0
 18 22  1  0
 19 18  2  0
 20 21  1  0
 23 20  2  0
M  END
$$$$
