LIR.pdb
     RDKit          3D

 28 27  0  0  1  0  0  0  0  0999 V2000
    7.9391  -14.5266   18.2998 C   0  0  0  0  0  0  0  0  0  0  0  0
    7.3763  -13.4422   19.2092 C   0  0  2  0  0  0  0  0  0  0  0  0
    7.8175  -12.1168   18.5993 C   0  0  0  0  0  0  0  0  0  0  0  0
    8.0214  -13.5378   20.5519 C   0  0  0  0  0  0  0  0  0  0  0  0
    7.6986  -14.7983   21.3103 C   0  0  2  0  0  0  0  0  0  0  0  0
    6.2828  -15.0135   21.4677 N   0  0  0  0  0  0  0  0  0  0  0  0
    8.3855  -14.6501   22.6222 C   0  0  0  0  0  0  0  0  0  0  0  0
    9.6395  -14.5520   22.6314 O   0  0  0  0  0  0  0  0  0  0  0  0
    6.1710  -11.5329   26.2823 C   0  0  0  0  0  0  0  0  0  0  0  0
    7.1608  -12.2868   25.4607 C   0  0  0  0  0  0  0  0  0  0  0  0
    7.6111  -13.5742   26.1077 C   0  0  2  0  0  0  0  0  0  0  0  0
    8.4893  -13.3625   27.3025 C   0  0  0  0  0  0  0  0  0  0  0  0
    8.3615  -14.4622   25.1447 C   0  0  2  0  0  0  0  0  0  0  0  0
    7.7096  -14.6120   23.8738 N   0  0  0  0  0  0  0  0  0  0  0  0
    8.6414  -15.7450   25.8286 C   0  0  0  0  0  0  0  0  0  0  0  0
    7.6173  -16.4185   26.1632 O   0  0  0  0  0  0  0  0  0  0  0  0
   13.8397  -18.1554   23.4642 N   0  0  0  0  0  0  0  0  0  0  0  0
   13.1074  -18.7319   22.3585 C   0  0  0  0  0  0  0  0  0  0  0  0
   13.7666  -19.0887   21.3121 N   0  0  0  0  0  0  0  0  0  0  0  0
   11.7195  -18.9086   22.4056 N   0  0  0  0  0  0  0  0  0  0  0  0
   10.9499  -18.1398   23.4187 C   0  0  0  0  0  0  0  0  0  0  0  0
   11.1860  -18.8325   24.6966 C   0  0  0  0  0  0  0  0  0  0  0  0
   11.3254  -18.1542   25.9766 C   0  0  0  0  0  0  0  0  0  0  0  0
   10.1503  -17.6168   26.6664 C   0  0  2  0  0  0  0  0  0  0  0  0
    9.9050  -16.2348   26.1143 N   0  0  0  0  0  0  0  0  0  0  0  0
   10.2068  -17.3640   28.1035 C   0  0  0  0  0  0  0  0  0  0  0  0
    9.9251  -18.3701   29.0591 O   0  0  0  0  0  0  0  0  0  0  0  0
   10.4998  -16.2682   28.5847 O   0  0  0  0  0  0  0  0  0  0  0  0
  2  1  1  6
  3  2  1  0
  4  2  1  0
  5  4  1  0
  5  6  1  1
  7  8  2  0
  7  5  1  0
  9 10  1  0
 10 11  1  0
 11 13  1  0
 11 12  1  1
 13 14  1  6
 14  7  1  0
 15 13  1  0
 15 25  1  0
 16 15  2  0
 18 17  1  0
 18 20  1  0
 19 18  2  0
 21 20  1  0
 22 21  1  0
 22 23  1  0
 24 23  1  6
 24 25  1  0
 24 26  1  0
 26 28  2  0
 26 27  1  0
M  END
$$$$
