LIR.pdb
     RDKit          3D

 28 27  0  0  1  0  0  0  0  0999 V2000
    8.6848  -12.7386   19.9677 C   0  0  0  0  0  0  0  0  0  0  0  0
    7.3730  -13.4902   19.7838 C   0  0  2  0  0  0  0  0  0  0  0  0
    6.2807  -12.4270   19.7809 C   0  0  0  0  0  0  0  0  0  0  0  0
    7.1292  -14.3591   20.9728 C   0  0  0  0  0  0  0  0  0  0  0  0
    8.1999  -15.3883   21.2229 C   0  0  2  0  0  0  0  0  0  0  0  0
    8.4108  -16.2655   20.0997 N   0  0  0  0  0  0  0  0  0  0  0  0
    7.7499  -16.1328   22.4304 C   0  0  0  0  0  0  0  0  0  0  0  0
    7.2427  -15.4806   23.3789 O   0  0  0  0  0  0  0  0  0  0  0  0
    5.3377  -21.0209   22.1856 C   0  0  0  0  0  0  0  0  0  0  0  0
    5.7621  -19.6545   22.6053 C   0  0  0  0  0  0  0  0  0  0  0  0
    6.9819  -19.6591   23.4946 C   0  0  2  0  0  0  0  0  0  0  0  0
    6.7490  -20.3204   24.8182 C   0  0  0  0  0  0  0  0  0  0  0  0
    7.4915  -18.2645   23.7676 C   0  0  2  0  0  0  0  0  0  0  0  0
    7.8577  -17.5437   22.5807 N   0  0  0  0  0  0  0  0  0  0  0  0
    8.5786  -18.3623   24.7678 C   0  0  0  0  0  0  0  0  0  0  0  0
    9.6701  -18.8516   24.3395 O   0  0  0  0  0  0  0  0  0  0  0  0
    6.7578  -13.7508   26.3105 N   0  0  0  0  0  0  0  0  0  0  0  0
    7.4536  -12.5081   26.5607 C   0  0  0  0  0  0  0  0  0  0  0  0
    6.9500  -11.4225   26.0869 N   0  0  0  0  0  0  0  0  0  0  0  0
    8.6426  -12.4645   27.2985 N   0  0  0  0  0  0  0  0  0  0  0  0
    8.9621  -13.6179   28.1801 C   0  0  0  0  0  0  0  0  0  0  0  0
    9.6475  -14.5926   27.3146 C   0  0  0  0  0  0  0  0  0  0  0  0
    8.9772  -15.6926   26.6375 C   0  0  0  0  0  0  0  0  0  0  0  0
    9.4824  -17.0619   26.7612 C   0  0  2  0  0  0  0  0  0  0  0  0
    8.4793  -17.9674   26.0915 N   0  0  0  0  0  0  0  0  0  0  0  0
    9.6069  -17.6712   28.0824 C   0  0  0  0  0  0  0  0  0  0  0  0
    8.9098  -18.8509   28.4390 O   0  0  0  0  0  0  0  0  0  0  0  0
   10.3193  -17.2078   28.9746 O   0  0  0  0  0  0  0  0  0  0  0  0
  2  1  1  1
  3  2  1  0
  4  2  1  0
  5  4  1  0
  5  6  1  6
  7  8  2  0
  7  5  1  0
  9 10  1  0
 10 11  1  0
 11 13  1  0
 11 12  1  1
 13 14  1  6
 14  7  1  0
 15 13  1  0
 15 25  1  0
 16 15  2  0
 18 17  1  0
 18 20  1  0
 19 18  2  0
 21 20  1  0
 22 21  1  0
 22 23  1  0
 24 23  1  1
 24 25  1  0
 24 26  1  0
 26 28  2  0
 26 27  1  0
M  END
$$$$
