LIR.pdb
     RDKit          3D

 28 27  0  0  1  0  0  0  0  0999 V2000
    5.6598  -14.3105   18.7169 C   0  0  0  0  0  0  0  0  0  0  0  0
    7.0598  -14.9075   18.7738 C   0  0  2  0  0  0  0  0  0  0  0  0
    6.8941  -16.3889   18.4551 C   0  0  0  0  0  0  0  0  0  0  0  0
    7.5792  -14.8198   20.1704 C   0  0  0  0  0  0  0  0  0  0  0  0
    7.6996  -13.4166   20.7039 C   0  0  2  0  0  0  0  0  0  0  0  0
    8.5771  -12.5885   19.9165 N   0  0  0  0  0  0  0  0  0  0  0  0
    8.1897  -13.5716   22.1005 C   0  0  0  0  0  0  0  0  0  0  0  0
    9.4241  -13.7274   22.2858 O   0  0  0  0  0  0  0  0  0  0  0  0
    5.3534  -11.2849   26.1821 C   0  0  0  0  0  0  0  0  0  0  0  0
    6.5396  -11.7538   25.4100 C   0  0  0  0  0  0  0  0  0  0  0  0
    6.8572  -13.2119   25.6378 C   0  0  2  0  0  0  0  0  0  0  0  0
    7.4651  -13.4844   26.9793 C   0  0  0  0  0  0  0  0  0  0  0  0
    7.8001  -13.7581   24.5929 C   0  0  2  0  0  0  0  0  0  0  0  0
    7.3456  -13.5548   23.2459 N   0  0  0  0  0  0  0  0  0  0  0  0
    8.0784  -15.1741   24.9234 C   0  0  0  0  0  0  0  0  0  0  0  0
    7.1761  -16.0006   24.5811 O   0  0  0  0  0  0  0  0  0  0  0  0
   15.1487  -18.8234   22.0210 N   0  0  0  0  0  0  0  0  0  0  0  0
   14.3254  -19.9059   22.5126 C   0  0  0  0  0  0  0  0  0  0  0  0
   14.8144  -21.0965   22.4998 N   0  0  0  0  0  0  0  0  0  0  0  0
   13.0303  -19.6862   22.9964 N   0  0  0  0  0  0  0  0  0  0  0  0
   12.4824  -18.3060   22.9286 C   0  0  0  0  0  0  0  0  0  0  0  0
   11.5237  -18.2114   24.0424 C   0  0  0  0  0  0  0  0  0  0  0  0
   10.7414  -17.0220   24.3444 C   0  0  0  0  0  0  0  0  0  0  0  0
    9.7387  -17.0414   25.4119 C   0  0  2  0  0  0  0  0  0  0  0  0
    9.2201  -15.6328   25.5594 N   0  0  0  0  0  0  0  0  0  0  0  0
   10.1420  -17.3609   26.7785 C   0  0  0  0  0  0  0  0  0  0  0  0
   10.5540  -16.3652   27.6970 O   0  0  0  0  0  0  0  0  0  0  0  0
   10.1544  -18.5084   27.2274 O   0  0  0  0  0  0  0  0  0  0  0  0
  2  1  1  1
  3  2  1  0
  4  2  1  0
  5  4  1  0
  5  6  1  6
  7  8  2  0
  7  5  1  0
  9 10  1  0
 10 11  1  0
 11 13  1  0
 11 12  1  1
 13 14  1  6
 14  7  1  0
 15 13  1  0
 15 25  1  0
 16 15  2  0
 18 17  1  0
 18 20  1  0
 19 18  2  0
 21 20  1  0
 22 21  1  0
 22 23  1  0
 24 23  1  6
 24 25  1  0
 24 26  1  0
 26 28  2  0
 26 27  1  0
M  END
$$$$
