LIR.pdb
     RDKit          3D

 28 27  0  0  1  0  0  0  0  0999 V2000
    5.9159  -21.2387   24.7360 C   0  0  0  0  0  0  0  0  0  0  0  0
    5.4783  -20.1599   23.7540 C   0  0  2  0  0  0  0  0  0  0  0  0
    5.6539  -20.7645   22.3658 C   0  0  0  0  0  0  0  0  0  0  0  0
    6.4136  -19.0001   23.8433 C   0  0  0  0  0  0  0  0  0  0  0  0
    5.8529  -17.7050   23.3172 C   0  0  2  0  0  0  0  0  0  0  0  0
    5.6206  -17.7286   21.8956 N   0  0  0  0  0  0  0  0  0  0  0  0
    6.8481  -16.6663   23.6987 C   0  0  0  0  0  0  0  0  0  0  0  0
    7.6790  -16.2896   22.8328 O   0  0  0  0  0  0  0  0  0  0  0  0
    5.3500  -12.6132   26.9126 C   0  0  0  0  0  0  0  0  0  0  0  0
    6.1467  -13.2783   25.8421 C   0  0  0  0  0  0  0  0  0  0  0  0
    7.3144  -14.0712   26.3774 C   0  0  2  0  0  0  0  0  0  0  0  0
    8.4557  -13.2139   26.8313 C   0  0  0  0  0  0  0  0  0  0  0  0
    7.8555  -15.0446   25.3582 C   0  0  2  0  0  0  0  0  0  0  0  0
    6.9194  -16.0690   24.9882 N   0  0  0  0  0  0  0  0  0  0  0  0
    9.1452  -15.5667   25.8639 C   0  0  0  0  0  0  0  0  0  0  0  0
   10.0757  -14.7082   25.9709 O   0  0  0  0  0  0  0  0  0  0  0  0
   13.9155  -16.1030   20.2741 N   0  0  0  0  0  0  0  0  0  0  0  0
   12.8491  -15.2019   20.6508 C   0  0  0  0  0  0  0  0  0  0  0  0
   12.5991  -14.1999   19.8825 N   0  0  0  0  0  0  0  0  0  0  0  0
   12.0949  -15.3975   21.8139 N   0  0  0  0  0  0  0  0  0  0  0  0
   12.6088  -16.3542   22.8289 C   0  0  0  0  0  0  0  0  0  0  0  0
   11.6525  -16.2884   23.9468 C   0  0  0  0  0  0  0  0  0  0  0  0
   10.8976  -17.4304   24.4406 C   0  0  0  0  0  0  0  0  0  0  0  0
   10.6681  -17.6069   25.8764 C   0  0  2  0  0  0  0  0  0  0  0  0
    9.3876  -16.8848   26.2133 N   0  0  0  0  0  0  0  0  0  0  0  0
   11.6045  -17.0281   26.8359 C   0  0  0  0  0  0  0  0  0  0  0  0
   11.1910  -16.1230   27.8431 O   0  0  0  0  0  0  0  0  0  0  0  0
   12.8103  -17.2815   26.8387 O   0  0  0  0  0  0  0  0  0  0  0  0
  2  1  1  1
  3  2  1  0
  4  2  1  0
  5  4  1  0
  5  6  1  6
  7  8  2  0
  7  5  1  0
  9 10  1  0
 10 11  1  0
 11 13  1  0
 11 12  1  6
 13 14  1  1
 14  7  1  0
 15 13  1  0
 15 25  1  0
 16 15  2  0
 18 17  1  0
 18 20  1  0
 19 18  2  0
 21 20  1  0
 22 21  1  0
 22 23  1  0
 24 23  1  6
 24 25  1  0
 24 26  1  0
 26 28  2  0
 26 27  1  0
M  END
$$$$
