VNS.pdb
     RDKit          3D

 22 21  0  0  1  0  0  0  0  0999 V2000
   13.5348  -19.6391   17.3852 C   0  0  0  0  0  0  0  0  0  0  0  0
   12.4428  -20.3760   18.1296 C   0  0  2  0  0  0  0  0  0  0  0  0
   11.3142  -20.6217   17.1512 C   0  0  0  0  0  0  0  0  0  0  0  0
   11.9986  -19.5423   19.3007 C   0  0  2  0  0  0  0  0  0  0  0  0
   11.2128  -18.4496   18.7973 N   0  0  0  0  0  0  0  0  0  0  0  0
   13.1408  -19.0840   20.1308 C   0  0  0  0  0  0  0  0  0  0  0  0
   13.8579  -19.9410   20.7129 O   0  0  0  0  0  0  0  0  0  0  0  0
   17.8579  -17.7938   20.6499 N   0  0  0  0  0  0  0  0  0  0  0  0
   16.6302  -17.5003   20.0074 C   0  0  0  0  0  0  0  0  0  0  0  0
   16.3531  -18.0151   18.8997 O   0  0  0  0  0  0  0  0  0  0  0  0
   15.6625  -16.5831   20.6368 C   0  0  0  0  0  0  0  0  0  0  0  0
   14.4759  -17.2202   21.2421 C   0  0  2  0  0  0  0  0  0  0  0  0
   13.4801  -17.7173   20.3117 N   0  0  0  0  0  0  0  0  0  0  0  0
   13.9078  -16.6808   22.4677 C   0  0  0  0  0  0  0  0  0  0  0  0
   14.5492  -15.6761   22.9831 O   0  0  0  0  0  0  0  0  0  0  0  0
   10.1769  -16.2977   23.4107 O   0  0  0  0  0  0  0  0  0  0  0  0
   11.1013  -15.4967   24.0436 C   0  0  0  0  0  0  0  0  0  0  0  0
   12.3067  -16.3439   24.3879 C   0  0  2  0  0  0  0  0  0  0  0  0
   12.7796  -17.0681   23.1933 N   0  0  0  0  0  0  0  0  0  0  0  0
   12.0652  -17.2652   25.4969 C   0  0  0  0  0  0  0  0  0  0  0  0
   11.7680  -16.8829   26.8028 O   0  0  0  0  0  0  0  0  0  0  0  0
   12.1222  -18.5072   25.2918 O   0  0  0  0  0  0  0  0  0  0  0  0
  2  1  1  6
  2  3  1  0
  2  4  1  0
  4  6  1  0
  4  5  1  6
  6 13  1  0
  6  7  2  0
  8  9  1  0
  9 11  1  0
 10  9  2  0
 12 11  1  6
 12 14  1  0
 13 12  1  0
 14 15  2  0
 14 19  1  0
 16 17  1  0
 18 17  1  6
 18 20  1  0
 19 18  1  0
 20 21  1  0
 22 20  2  0
M  END
$$$$
