VNS.pdb
     RDKit          3D

 22 21  0  0  1  0  0  0  0  0999 V2000
    7.7223  -20.6174   15.8111 C   0  0  0  0  0  0  0  0  0  0  0  0
    6.6348  -20.4275   16.8458 C   0  0  2  0  0  0  0  0  0  0  0  0
    5.4247  -19.8631   16.1326 C   0  0  0  0  0  0  0  0  0  0  0  0
    7.1359  -19.5007   17.9200 C   0  0  2  0  0  0  0  0  0  0  0  0
    7.2036  -18.1753   17.3690 N   0  0  0  0  0  0  0  0  0  0  0  0
    8.4337  -19.9458   18.4870 C   0  0  0  0  0  0  0  0  0  0  0  0
    8.5119  -21.0863   19.0166 O   0  0  0  0  0  0  0  0  0  0  0  0
   13.3912  -20.8404   19.6231 N   0  0  0  0  0  0  0  0  0  0  0  0
   13.3634  -19.6987   18.7852 C   0  0  0  0  0  0  0  0  0  0  0  0
   14.4239  -19.1037   18.4855 O   0  0  0  0  0  0  0  0  0  0  0  0
   12.0823  -19.1967   18.2554 C   0  0  0  0  0  0  0  0  0  0  0  0
   10.8840  -19.5336   19.0498 C   0  0  2  0  0  0  0  0  0  0  0  0
    9.6109  -19.1523   18.4684 N   0  0  0  0  0  0  0  0  0  0  0  0
   10.9182  -19.4193   20.4995 C   0  0  0  0  0  0  0  0  0  0  0  0
   11.1670  -18.2300   20.9581 O   0  0  0  0  0  0  0  0  0  0  0  0
    9.6691  -22.0397   23.5297 O   0  0  0  0  0  0  0  0  0  0  0  0
    9.6108  -20.6694   23.6531 C   0  0  0  0  0  0  0  0  0  0  0  0
   10.8018  -20.0768   22.9322 C   0  0  2  0  0  0  0  0  0  0  0  0
   10.7310  -20.3838   21.4914 N   0  0  0  0  0  0  0  0  0  0  0  0
   12.0836  -20.4987   23.4947 C   0  0  0  0  0  0  0  0  0  0  0  0
   12.6260  -20.0277   24.6879 O   0  0  0  0  0  0  0  0  0  0  0  0
   12.7772  -21.3520   22.8797 O   0  0  0  0  0  0  0  0  0  0  0  0
  2  1  1  6
  2  3  1  0
  2  4  1  0
  4  6  1  0
  4  5  1  6
  6 13  1  0
  6  7  2  0
  8  9  1  0
  9 11  1  0
 10  9  2  0
 12 11  1  6
 12 14  1  0
 13 12  1  0
 14 15  2  0
 14 19  1  0
 16 17  1  0
 18 17  1  1
 18 20  1  0
 19 18  1  0
 20 21  1  0
 22 20  2  0
M  END
$$$$
