VNS.pdb
     RDKit          3D

 22 21  0  0  1  0  0  0  0  0999 V2000
    7.4120  -13.2479   20.1794 C   0  0  0  0  0  0  0  0  0  0  0  0
    8.4497  -13.2200   19.0787 C   0  0  2  0  0  0  0  0  0  0  0  0
    7.9254  -12.3146   17.9847 C   0  0  0  0  0  0  0  0  0  0  0  0
    8.6787  -14.6226   18.5845 C   0  0  2  0  0  0  0  0  0  0  0  0
    7.4815  -15.0629   17.9228 N   0  0  0  0  0  0  0  0  0  0  0  0
    9.0955  -15.5419   19.6731 C   0  0  0  0  0  0  0  0  0  0  0  0
    8.2214  -16.2376   20.2557 O   0  0  0  0  0  0  0  0  0  0  0  0
   13.9502  -18.4520   22.1083 N   0  0  0  0  0  0  0  0  0  0  0  0
   12.5950  -18.3897   21.7010 C   0  0  0  0  0  0  0  0  0  0  0  0
   11.7566  -19.2022   22.1544 O   0  0  0  0  0  0  0  0  0  0  0  0
   12.1553  -17.3653   20.7361 C   0  0  0  0  0  0  0  0  0  0  0  0
   10.9045  -16.6585   21.0772 C   0  0  2  0  0  0  0  0  0  0  0  0
   10.4402  -15.6876   20.1046 N   0  0  0  0  0  0  0  0  0  0  0  0
   10.6409  -16.2726   22.4547 C   0  0  0  0  0  0  0  0  0  0  0  0
   11.3861  -15.3145   22.9164 O   0  0  0  0  0  0  0  0  0  0  0  0
    7.3528  -17.0027   24.7221 O   0  0  0  0  0  0  0  0  0  0  0  0
    8.1067  -15.8847   25.0013 C   0  0  0  0  0  0  0  0  0  0  0  0
    9.5592  -16.2125   24.7329 C   0  0  2  0  0  0  0  0  0  0  0  0
    9.7149  -16.7672   23.3752 N   0  0  0  0  0  0  0  0  0  0  0  0
   10.1422  -17.1055   25.7329 C   0  0  0  0  0  0  0  0  0  0  0  0
   10.2569  -16.8177   27.0908 O   0  0  0  0  0  0  0  0  0  0  0  0
   10.5847  -18.2294   25.3745 O   0  0  0  0  0  0  0  0  0  0  0  0
  2  1  1  1
  2  3  1  0
  2  4  1  0
  4  6  1  0
  4  5  1  1
  6 13  1  0
  6  7  2  0
  8  9  1  0
  9 11  1  0
 10  9  2  0
 12 11  1  1
 12 14  1  0
 13 12  1  0
 14 15  2  0
 14 19  1  0
 16 17  1  0
 18 17  1  1
 18 20  1  0
 19 18  1  0
 20 21  1  0
 22 20  2  0
M  END
$$$$
