VNS.pdb
     RDKit          3D

 22 21  0  0  1  0  0  0  0  0999 V2000
    7.8165  -13.3487   21.3741 C   0  0  0  0  0  0  0  0  0  0  0  0
    8.3571  -13.4865   19.9677 C   0  0  2  0  0  0  0  0  0  0  0  0
    7.5476  -12.5663   19.0791 C   0  0  0  0  0  0  0  0  0  0  0  0
    8.2447  -14.9239   19.5373 C   0  0  2  0  0  0  0  0  0  0  0  0
    6.8535  -15.2837   19.5446 N   0  0  0  0  0  0  0  0  0  0  0  0
    9.0686  -15.8290   20.3774 C   0  0  0  0  0  0  0  0  0  0  0  0
    8.5388  -16.3935   21.3714 O   0  0  0  0  0  0  0  0  0  0  0  0
   12.5035  -18.0951   17.6632 N   0  0  0  0  0  0  0  0  0  0  0  0
   12.0301  -18.4535   18.9491 C   0  0  0  0  0  0  0  0  0  0  0  0
   11.3053  -19.4636   19.1013 O   0  0  0  0  0  0  0  0  0  0  0  0
   12.3859  -17.6394   20.1257 C   0  0  0  0  0  0  0  0  0  0  0  0
   11.2512  -17.0498   20.8641 C   0  0  2  0  0  0  0  0  0  0  0  0
   10.4389  -16.1018   20.1253 N   0  0  0  0  0  0  0  0  0  0  0  0
   11.3957  -16.7172   22.2727 C   0  0  0  0  0  0  0  0  0  0  0  0
   11.8283  -15.5179   22.5196 O   0  0  0  0  0  0  0  0  0  0  0  0
   10.0322  -16.2400   26.6543 O   0  0  0  0  0  0  0  0  0  0  0  0
    9.8839  -16.7675   25.3910 C   0  0  0  0  0  0  0  0  0  0  0  0
   11.2589  -16.9351   24.7822 C   0  0  2  0  0  0  0  0  0  0  0  0
   11.1493  -17.4797   23.4160 N   0  0  0  0  0  0  0  0  0  0  0  0
   12.1552  -17.7505   25.6002 C   0  0  0  0  0  0  0  0  0  0  0  0
   12.7953  -18.9104   25.1702 O   0  0  0  0  0  0  0  0  0  0  0  0
   12.3892  -17.4076   26.7898 O   0  0  0  0  0  0  0  0  0  0  0  0
  2  1  1  1
  2  3  1  0
  2  4  1  0
  4  6  1  0
  4  5  1  1
  6 13  1  0
  6  7  2  0
  8  9  1  0
  9 11  1  0
 10  9  2  0
 12 11  1  6
 12 14  1  0
 13 12  1  0
 14 15  2  0
 14 19  1  0
 16 17  1  0
 18 17  1  1
 18 20  1  0
 19 18  1  0
 20 21  1  0
 22 20  2  0
M  END
$$$$
