VNS.pdb
     RDKit          3D

 22 21  0  0  1  0  0  0  0  0999 V2000
    7.5047  -13.2175   20.4112 C   0  0  0  0  0  0  0  0  0  0  0  0
    8.5097  -13.2735   19.2815 C   0  0  2  0  0  0  0  0  0  0  0  0
    7.9978  -12.3763   18.1749 C   0  0  0  0  0  0  0  0  0  0  0  0
    8.6559  -14.6998   18.8249 C   0  0  2  0  0  0  0  0  0  0  0  0
    7.4227  -15.0974   18.2037 N   0  0  0  0  0  0  0  0  0  0  0  0
    9.0516  -15.6071   19.9313 C   0  0  0  0  0  0  0  0  0  0  0  0
    8.1547  -16.1301   20.6451 O   0  0  0  0  0  0  0  0  0  0  0  0
   12.1086  -19.9770   21.8989 N   0  0  0  0  0  0  0  0  0  0  0  0
   12.4401  -18.6051   22.0171 C   0  0  0  0  0  0  0  0  0  0  0  0
   13.0849  -18.1895   23.0072 O   0  0  0  0  0  0  0  0  0  0  0  0
   12.0287  -17.6484   20.9733 C   0  0  0  0  0  0  0  0  0  0  0  0
   10.8241  -16.8495   21.2750 C   0  0  2  0  0  0  0  0  0  0  0  0
   10.4002  -15.9269   20.2390 N   0  0  0  0  0  0  0  0  0  0  0  0
   10.6025  -16.3507   22.6233 C   0  0  0  0  0  0  0  0  0  0  0  0
   11.2917  -15.2990   22.9477 O   0  0  0  0  0  0  0  0  0  0  0  0
    7.5155  -15.8900   24.1666 O   0  0  0  0  0  0  0  0  0  0  0  0
    8.2583  -15.8786   25.3260 C   0  0  0  0  0  0  0  0  0  0  0  0
    9.6957  -16.1915   24.9720 C   0  0  2  0  0  0  0  0  0  0  0  0
    9.7680  -16.8198   23.6396 N   0  0  0  0  0  0  0  0  0  0  0  0
   10.3700  -17.0135   25.9754 C   0  0  0  0  0  0  0  0  0  0  0  0
   10.9976  -18.2305   25.7205 O   0  0  0  0  0  0  0  0  0  0  0  0
   10.4056  -16.6218   27.1724 O   0  0  0  0  0  0  0  0  0  0  0  0
  2  1  1  1
  2  3  1  0
  2  4  1  0
  4  6  1  0
  4  5  1  1
  6 13  1  0
  6  7  2  0
  8  9  1  0
  9 11  1  0
 10  9  2  0
 12 11  1  6
 12 14  1  0
 13 12  1  0
 14 15  2  0
 14 19  1  0
 16 17  1  0
 18 17  1  1
 18 20  1  0
 19 18  1  0
 20 21  1  0
 22 20  2  0
M  END
$$$$
