VNS.pdb
     RDKit          3D

 22 21  0  0  1  0  0  0  0  0999 V2000
    8.0827  -13.4107   20.9068 C   0  0  0  0  0  0  0  0  0  0  0  0
    8.6973  -12.9335   19.6091 C   0  0  2  0  0  0  0  0  0  0  0  0
    7.8284  -11.8115   19.0821 C   0  0  0  0  0  0  0  0  0  0  0  0
    8.7685  -14.0876   18.6463 C   0  0  2  0  0  0  0  0  0  0  0  0
    7.4325  -14.5703   18.4297 N   0  0  0  0  0  0  0  0  0  0  0  0
    9.6880  -15.1550   19.1143 C   0  0  0  0  0  0  0  0  0  0  0  0
    9.2047  -16.1913   19.6435 O   0  0  0  0  0  0  0  0  0  0  0  0
   15.3401  -17.5461   18.8727 N   0  0  0  0  0  0  0  0  0  0  0  0
   13.9288  -17.6217   18.9650 C   0  0  0  0  0  0  0  0  0  0  0  0
   13.3747  -18.6543   19.4069 O   0  0  0  0  0  0  0  0  0  0  0  0
   13.0941  -16.4828   18.5406 C   0  0  0  0  0  0  0  0  0  0  0  0
   12.0333  -16.0786   19.4849 C   0  0  2  0  0  0  0  0  0  0  0  0
   11.1011  -15.0786   19.0000 N   0  0  0  0  0  0  0  0  0  0  0  0
   12.3321  -15.9551   20.9032 C   0  0  0  0  0  0  0  0  0  0  0  0
   13.0647  -14.9340   21.2305 O   0  0  0  0  0  0  0  0  0  0  0  0
   12.0010  -16.9948   25.6179 O   0  0  0  0  0  0  0  0  0  0  0  0
   11.5506  -17.2665   24.3452 C   0  0  0  0  0  0  0  0  0  0  0  0
   12.4156  -16.5069   23.3633 C   0  0  2  0  0  0  0  0  0  0  0  0
   11.9636  -16.7604   21.9825 N   0  0  0  0  0  0  0  0  0  0  0  0
   13.8413  -16.7956   23.5086 C   0  0  0  0  0  0  0  0  0  0  0  0
   14.7154  -16.1042   24.3440 O   0  0  0  0  0  0  0  0  0  0  0  0
   14.3524  -17.7350   22.8422 O   0  0  0  0  0  0  0  0  0  0  0  0
  2  1  1  1
  2  3  1  0
  2  4  1  0
  4  6  1  0
  4  5  1  1
  6 13  1  0
  6  7  2  0
  8  9  1  0
  9 11  1  0
 10  9  2  0
 12 11  1  6
 12 14  1  0
 13 12  1  0
 14 15  2  0
 14 19  1  0
 16 17  1  0
 18 17  1  1
 18 20  1  0
 19 18  1  0
 20 21  1  0
 22 20  2  0
M  END
$$$$
