VAI.pdb
     RDKit          3D

 21 20  0  0  1  0  0  0  0  0999 V2000
    7.3632  -12.7690   20.0374 C   0  0  0  0  0  0  0  0  0  0  0  0
    8.5410  -13.3515   19.2540 C   0  0  2  0  0  0  0  0  0  0  0  0
    8.5614  -12.6750   17.9210 C   0  0  0  0  0  0  0  0  0  0  0  0
    8.3314  -14.8552   19.1719 C   0  0  2  0  0  0  0  0  0  0  0  0
    7.1348  -15.0312   18.3291 N   0  0  0  0  0  0  0  0  0  0  0  0
    8.0423  -15.4621   20.4912 C   0  0  0  0  0  0  0  0  0  0  0  0
    6.8849  -15.3323   20.9766 O   0  0  0  0  0  0  0  0  0  0  0  0
    9.3821  -18.0041   22.8683 C   0  0  0  0  0  0  0  0  0  0  0  0
    8.6149  -16.7297   22.5927 C   0  0  2  0  0  0  0  0  0  0  0  0
    8.9761  -16.1933   21.2723 N   0  0  0  0  0  0  0  0  0  0  0  0
    8.9655  -15.7375   23.6241 C   0  0  0  0  0  0  0  0  0  0  0  0
    9.9790  -15.0069   23.5008 O   0  0  0  0  0  0  0  0  0  0  0  0
    6.7127  -11.3169   26.9301 C   0  0  0  0  0  0  0  0  0  0  0  0
    7.7146  -12.4332   26.9006 C   0  0  0  0  0  0  0  0  0  0  0  0
    7.4234  -13.4977   25.9034 C   0  0  2  0  0  0  0  0  0  0  0  0
    6.1373  -14.2098   26.3216 C   0  0  0  0  0  0  0  0  0  0  0  0
    8.4740  -14.5410   25.7196 C   0  0  2  0  0  0  0  0  0  0  0  0
    8.1686  -15.5789   24.7858 N   0  0  0  0  0  0  0  0  0  0  0  0
    8.6704  -15.1869   27.0676 C   0  0  0  0  0  0  0  0  0  0  0  0
    8.2808  -16.4982   27.2240 O   0  0  0  0  0  0  0  0  0  0  0  0
    9.1664  -14.5721   28.0197 O   0  0  0  0  0  0  0  0  0  0  0  0
  2  4  1  0
  2  1  1  1
  3  2  1  0
  4  5  1  6
  6  4  1  0
  7  6  2  0
  9  8  1  1
  9 11  1  0
  9 10  1  0
 10  6  1  0
 11 18  1  0
 12 11  2  0
 14 13  1  0
 15 17  1  0
 15 14  1  0
 15 16  1  1
 17 18  1  6
 19 20  1  0
 19 17  1  0
 21 19  2  0
M  END
$$$$
