VAI.pdb
     RDKit          3D

 21 20  0  0  1  0  0  0  0  0999 V2000
    7.2944  -12.8708   20.3008 C   0  0  0  0  0  0  0  0  0  0  0  0
    8.4481  -13.4976   19.5158 C   0  0  2  0  0  0  0  0  0  0  0  0
    8.4070  -12.9218   18.1368 C   0  0  0  0  0  0  0  0  0  0  0  0
    8.2554  -15.0054   19.5533 C   0  0  2  0  0  0  0  0  0  0  0  0
    7.0263  -15.2554   18.7787 N   0  0  0  0  0  0  0  0  0  0  0  0
    8.0312  -15.5162   20.9250 C   0  0  0  0  0  0  0  0  0  0  0  0
    6.8770  -15.4194   21.4257 O   0  0  0  0  0  0  0  0  0  0  0  0
    9.4651  -17.9149   23.3444 C   0  0  0  0  0  0  0  0  0  0  0  0
    8.7058  -16.6332   23.0809 C   0  0  2  0  0  0  0  0  0  0  0  0
    9.0250  -16.1186   21.7412 N   0  0  0  0  0  0  0  0  0  0  0  0
    9.1083  -15.6334   24.0856 C   0  0  0  0  0  0  0  0  0  0  0  0
   10.1490  -14.9475   23.9347 O   0  0  0  0  0  0  0  0  0  0  0  0
    5.5229  -12.6386   27.3149 C   0  0  0  0  0  0  0  0  0  0  0  0
    6.3606  -13.6997   26.6645 C   0  0  0  0  0  0  0  0  0  0  0  0
    7.7801  -13.3154   26.4420 C   0  0  2  0  0  0  0  0  0  0  0  0
    7.8429  -12.3882   25.2285 C   0  0  0  0  0  0  0  0  0  0  0  0
    8.7409  -14.4317   26.2034 C   0  0  2  0  0  0  0  0  0  0  0  0
    8.3321  -15.4166   25.2520 N   0  0  0  0  0  0  0  0  0  0  0  0
    8.9193  -15.1279   27.5288 C   0  0  0  0  0  0  0  0  0  0  0  0
    8.5469  -16.4499   27.6248 O   0  0  0  0  0  0  0  0  0  0  0  0
    9.3859  -14.5443   28.5148 O   0  0  0  0  0  0  0  0  0  0  0  0
  2  4  1  0
  2  1  1  1
  3  2  1  0
  4  5  1  6
  6  4  1  0
  7  6  2  0
  9  8  1  1
  9 11  1  0
  9 10  1  0
 10  6  1  0
 11 18  1  0
 12 11  2  0
 14 13  1  0
 15 17  1  0
 15 14  1  0
 15 16  1  6
 17 18  1  6
 19 20  1  0
 19 17  1  0
 21 19  2  0
M  END
$$$$
