VAI.pdb
     RDKit          3D

 21 20  0  0  1  0  0  0  0  0999 V2000
    6.4462  -20.6970   21.7257 C   0  0  0  0  0  0  0  0  0  0  0  0
    6.8833  -19.4334   22.4687 C   0  0  2  0  0  0  0  0  0  0  0  0
    5.6628  -18.8542   23.1091 C   0  0  0  0  0  0  0  0  0  0  0  0
    7.5339  -18.5108   21.4501 C   0  0  2  0  0  0  0  0  0  0  0  0
    8.7183  -19.2444   20.9682 N   0  0  0  0  0  0  0  0  0  0  0  0
    8.0071  -17.2431   22.0515 C   0  0  0  0  0  0  0  0  0  0  0  0
    8.9474  -17.2858   22.8918 O   0  0  0  0  0  0  0  0  0  0  0  0
    7.4935  -13.5095   21.7575 C   0  0  0  0  0  0  0  0  0  0  0  0
    7.9316  -14.7617   22.4846 C   0  0  2  0  0  0  0  0  0  0  0  0
    7.4821  -15.9571   21.7562 N   0  0  0  0  0  0  0  0  0  0  0  0
    7.3238  -14.7630   23.8268 C   0  0  0  0  0  0  0  0  0  0  0  0
    6.1304  -15.1143   23.9962 O   0  0  0  0  0  0  0  0  0  0  0  0
   10.1819  -13.4184   28.8199 C   0  0  0  0  0  0  0  0  0  0  0  0
    9.2460  -13.2477   27.6599 C   0  0  0  0  0  0  0  0  0  0  0  0
    8.3327  -14.3987   27.4291 C   0  0  2  0  0  0  0  0  0  0  0  0
    9.1805  -15.6594   27.2619 C   0  0  0  0  0  0  0  0  0  0  0  0
    7.4313  -14.3042   26.2439 C   0  0  2  0  0  0  0  0  0  0  0  0
    8.0688  -14.3675   24.9663 N   0  0  0  0  0  0  0  0  0  0  0  0
    6.7420  -12.9670   26.3412 C   0  0  0  0  0  0  0  0  0  0  0  0
    5.8208  -12.7813   27.3475 O   0  0  0  0  0  0  0  0  0  0  0  0
    6.9838  -12.0489   25.5480 O   0  0  0  0  0  0  0  0  0  0  0  0
  2  4  1  0
  2  1  1  6
  3  2  1  0
  4  5  1  1
  6  4  1  0
  7  6  2  0
  9  8  1  6
  9 11  1  0
  9 10  1  0
 10  6  1  0
 11 18  1  0
 12 11  2  0
 14 13  1  0
 15 17  1  0
 15 14  1  0
 15 16  1  6
 17 18  1  6
 19 20  1  0
 19 17  1  0
 21 19  2  0
M  END
$$$$
