VAI.pdb
     RDKit          3D

 21 20  0  0  1  0  0  0  0  0999 V2000
    8.7013  -18.6346   26.5813 C   0  0  0  0  0  0  0  0  0  0  0  0
    7.1896  -18.8081   26.4235 C   0  0  2  0  0  0  0  0  0  0  0  0
    6.7616  -19.8545   27.4018 C   0  0  0  0  0  0  0  0  0  0  0  0
    6.9254  -19.1836   24.9740 C   0  0  2  0  0  0  0  0  0  0  0  0
    7.6949  -20.4211   24.7509 N   0  0  0  0  0  0  0  0  0  0  0  0
    7.4283  -18.1668   24.0223 C   0  0  0  0  0  0  0  0  0  0  0  0
    8.6612  -18.1455   23.7548 O   0  0  0  0  0  0  0  0  0  0  0  0
    6.1128  -15.5280   21.6526 C   0  0  0  0  0  0  0  0  0  0  0  0
    7.2066  -16.2244   22.4321 C   0  0  2  0  0  0  0  0  0  0  0  0
    6.6241  -17.1940   23.3713 N   0  0  0  0  0  0  0  0  0  0  0  0
    7.9579  -15.2120   23.1947 C   0  0  0  0  0  0  0  0  0  0  0  0
    8.7274  -14.4060   22.6163 O   0  0  0  0  0  0  0  0  0  0  0  0
    5.7628  -12.2055   27.2171 C   0  0  0  0  0  0  0  0  0  0  0  0
    6.5065  -13.3615   26.6162 C   0  0  0  0  0  0  0  0  0  0  0  0
    7.7246  -12.9816   25.8519 C   0  0  2  0  0  0  0  0  0  0  0  0
    7.2984  -12.1147   24.6674 C   0  0  0  0  0  0  0  0  0  0  0  0
    8.5476  -14.1034   25.3131 C   0  0  2  0  0  0  0  0  0  0  0  0
    7.8340  -15.1185   24.6039 N   0  0  0  0  0  0  0  0  0  0  0  0
    9.2036  -14.7572   26.5027 C   0  0  0  0  0  0  0  0  0  0  0  0
    8.9466  -16.0893   26.7373 O   0  0  0  0  0  0  0  0  0  0  0  0
    9.9556  -14.1306   27.2593 O   0  0  0  0  0  0  0  0  0  0  0  0
  2  4  1  0
  2  1  1  6
  3  2  1  0
  4  5  1  6
  6  4  1  0
  7  6  2  0
  9  8  1  1
  9 11  1  0
  9 10  1  0
 10  6  1  0
 11 18  1  0
 12 11  2  0
 14 13  1  0
 15 17  1  0
 15 14  1  0
 15 16  1  6
 17 18  1  1
 19 20  1  0
 19 17  1  0
 21 19  2  0
M  END
$$$$
