VKK.pdb
     RDKit          3D

 26 25  0  0  1  0  0  0  0  0999 V2000
    6.1293  -11.4153   26.9815 C   0  0  0  0  0  0  0  0  0  0  0  0
    6.9894  -12.3728   26.2026 C   0  0  1  0  0  0  0  0  0  0  0  0
    8.1594  -12.8923   26.9671 C   0  0  0  0  0  0  0  0  0  0  0  0
    6.1239  -13.4936   25.6946 C   0  0  2  0  0  0  0  0  0  0  0  0
    5.6568  -14.3568   26.7386 N   0  0  0  0  0  0  0  0  0  0  0  0
    6.8721  -14.3139   24.6978 C   0  0  0  0  0  0  0  0  0  0  0  0
    7.1412  -15.5021   25.0413 O   0  0  0  0  0  0  0  0  0  0  0  0
    7.2284  -13.7540   23.4761 N   0  0  0  0  0  0  0  0  0  0  0  0
    7.7530  -14.6460   22.3867 C   0  0  1  0  0  0  0  0  0  0  0  0
    7.7605  -13.8732   21.1373 C   0  0  0  0  0  0  0  0  0  0  0  0
    8.0515  -14.3753   19.8218 C   0  0  0  0  0  0  0  0  0  0  0  0
    8.1049  -13.5714   18.5943 C   0  0  0  0  0  0  0  0  0  0  0  0
    8.3822  -14.6337   17.4659 C   0  0  0  0  0  0  0  0  0  0  0  0
    8.2743  -14.0074   16.1869 N   0  0  0  0  0  0  0  0  0  0  0  0
    9.1537  -14.9316   22.8560 C   0  0  0  0  0  0  0  0  0  0  0  0
    9.7817  -14.0745   23.4828 O   0  0  0  0  0  0  0  0  0  0  0  0
    9.7887  -16.1645   22.6023 N   0  0  0  0  0  0  0  0  0  0  0  0
   11.1159  -16.4042   23.2918 C   0  0  1  0  0  0  0  0  0  0  0  0
   11.0321  -17.7644   23.8631 C   0  0  0  0  0  0  0  0  0  0  0  0
   11.0373  -17.9607   25.3032 C   0  0  0  0  0  0  0  0  0  0  0  0
   10.8963  -19.2674   25.9652 C   0  0  0  0  0  0  0  0  0  0  0  0
   10.7809  -19.0419   27.5121 C   0  0  0  0  0  0  0  0  0  0  0  0
   10.6789  -20.3270   28.1317 N   0  0  0  0  0  0  0  0  0  0  0  0
   12.0577  -16.3260   22.1479 C   0  0  0  0  0  0  0  0  0  0  0  0
   13.2217  -15.9468   22.2870 O   0  0  0  0  0  0  0  0  0  0  0  0
   11.5856  -16.7033   20.8709 O   0  0  0  0  0  0  0  0  0  0  0  0
  2  4  1  0
  2  1  1  1
  3  2  1  0
  4  6  1  0
  4  5  1  1
  6  7  2  0
  8  9  1  0
  8  6  1  0
 10 11  1  0
  9 10  1  6
 12 11  1  0
 13 12  1  0
 14 13  1  0
 15 16  2  0
 15  9  1  0
 17 15  1  0
 18 17  1  0
 18 24  1  0
 18 19  1  6
 20 19  1  0
 21 20  1  0
 22 21  1  0
 23 22  1  0
 24 26  1  0
 25 24  2  0
M  END
$$$$
