VKK.pdb
     RDKit          3D

 26 25  0  0  1  0  0  0  0  0999 V2000
    7.5208  -21.5871   20.6621 C   0  0  0  0  0  0  0  0  0  0  0  0
    8.3511  -20.3599   20.9222 C   0  0  1  0  0  0  0  0  0  0  0  0
    9.8147  -20.6295   21.0146 C   0  0  0  0  0  0  0  0  0  0  0  0
    8.0467  -19.3387   19.8603 C   0  0  2  0  0  0  0  0  0  0  0  0
    8.2680  -19.8296   18.5324 N   0  0  0  0  0  0  0  0  0  0  0  0
    8.8814  -18.1183   20.0618 C   0  0  0  0  0  0  0  0  0  0  0  0
   10.0264  -18.1294   19.5225 O   0  0  0  0  0  0  0  0  0  0  0  0
    8.3796  -17.0585   20.8087 N   0  0  0  0  0  0  0  0  0  0  0  0
    9.2036  -15.8105   20.9548 C   0  0  1  0  0  0  0  0  0  0  0  0
    8.2819  -14.6838   21.1533 C   0  0  0  0  0  0  0  0  0  0  0  0
    7.6887  -13.8717   20.1257 C   0  0  0  0  0  0  0  0  0  0  0  0
    8.2145  -13.6979   18.7659 C   0  0  0  0  0  0  0  0  0  0  0  0
    7.1876  -12.7121   18.0933 C   0  0  0  0  0  0  0  0  0  0  0  0
    7.5310  -12.5335   16.7186 N   0  0  0  0  0  0  0  0  0  0  0  0
    9.9911  -16.0935   22.2052 C   0  0  0  0  0  0  0  0  0  0  0  0
    9.4251  -16.5522   23.2007 O   0  0  0  0  0  0  0  0  0  0  0  0
   11.3774  -15.8500   22.2849 N   0  0  0  0  0  0  0  0  0  0  0  0
   12.1110  -16.4559   23.4634 C   0  0  1  0  0  0  0  0  0  0  0  0
   12.0774  -17.9176   23.2493 C   0  0  0  0  0  0  0  0  0  0  0  0
   12.8996  -18.8004   24.0600 C   0  0  0  0  0  0  0  0  0  0  0  0
   12.3803  -19.9278   24.8506 C   0  0  0  0  0  0  0  0  0  0  0  0
   13.5774  -20.6291   25.5801 C   0  0  0  0  0  0  0  0  0  0  0  0
   13.0297  -21.5804   26.4971 N   0  0  0  0  0  0  0  0  0  0  0  0
   13.4699  -15.8872   23.2854 C   0  0  0  0  0  0  0  0  0  0  0  0
   13.8498  -15.4334   22.2047 O   0  0  0  0  0  0  0  0  0  0  0  0
   14.3367  -15.8743   24.4008 O   0  0  0  0  0  0  0  0  0  0  0  0
  2  4  1  0
  2  1  1  6
  3  2  1  0
  4  6  1  0
  4  5  1  6
  6  7  2  0
  8  9  1  0
  8  6  1  0
 10 11  1  0
  9 10  1  1
 12 11  1  0
 13 12  1  0
 14 13  1  0
 15 16  2  0
 15  9  1  0
 17 15  1  0
 18 17  1  0
 18 24  1  0
 18 19  1  6
 20 19  1  0
 21 20  1  0
 22 21  1  0
 23 22  1  0
 24 26  1  0
 25 24  2  0
M  END
$$$$
