VKK.pdb
     RDKit          3D

 26 25  0  0  1  0  0  0  0  0999 V2000
    6.4070  -11.9343   27.1859 C   0  0  0  0  0  0  0  0  0  0  0  0
    7.1828  -12.8238   26.2531 C   0  0  1  0  0  0  0  0  0  0  0  0
    8.2853  -13.5781   26.9156 C   0  0  0  0  0  0  0  0  0  0  0  0
    6.2214  -13.7512   25.5613 C   0  0  2  0  0  0  0  0  0  0  0  0
    5.6815  -14.7505   26.4349 N   0  0  0  0  0  0  0  0  0  0  0  0
    6.8931  -14.4326   24.4163 C   0  0  0  0  0  0  0  0  0  0  0  0
    6.9864  -15.6926   24.4928 O   0  0  0  0  0  0  0  0  0  0  0  0
    7.3706  -13.6769   23.3515 N   0  0  0  0  0  0  0  0  0  0  0  0
    8.1078  -14.3649   22.2375 C   0  0  1  0  0  0  0  0  0  0  0  0
    8.2523  -13.4056   21.1341 C   0  0  0  0  0  0  0  0  0  0  0  0
    7.7765  -13.5716   19.7876 C   0  0  0  0  0  0  0  0  0  0  0  0
    8.4807  -14.2869   18.7160 C   0  0  0  0  0  0  0  0  0  0  0  0
    7.5791  -14.0398   17.4492 C   0  0  0  0  0  0  0  0  0  0  0  0
    8.2203  -14.5861   16.2958 N   0  0  0  0  0  0  0  0  0  0  0  0
    9.4382  -14.6643   22.8733 C   0  0  0  0  0  0  0  0  0  0  0  0
    9.9623  -13.8393   23.6260 O   0  0  0  0  0  0  0  0  0  0  0  0
   10.1221  -15.8743   22.6378 N   0  0  0  0  0  0  0  0  0  0  0  0
   11.4198  -16.0834   23.3904 C   0  0  1  0  0  0  0  0  0  0  0  0
   11.0937  -16.9923   24.5090 C   0  0  0  0  0  0  0  0  0  0  0  0
   11.2720  -18.4279   24.3682 C   0  0  0  0  0  0  0  0  0  0  0  0
   11.0213  -19.4063   25.4385 C   0  0  0  0  0  0  0  0  0  0  0  0
   11.3794  -20.8380   24.9104 C   0  0  0  0  0  0  0  0  0  0  0  0
   12.3484  -21.3992   25.8002 N   0  0  0  0  0  0  0  0  0  0  0  0
   12.2567  -16.7366   22.3538 C   0  0  0  0  0  0  0  0  0  0  0  0
   13.4407  -17.0144   22.5520 O   0  0  0  0  0  0  0  0  0  0  0  0
   11.6583  -17.0414   21.1109 O   0  0  0  0  0  0  0  0  0  0  0  0
  2  4  1  0
  2  1  1  1
  3  2  1  0
  4  6  1  0
  4  5  1  1
  6  7  2  0
  8  9  1  0
  8  6  1  0
 10 11  1  0
  9 10  1  6
 12 11  1  0
 13 12  1  0
 14 13  1  0
 15 16  2  0
 15  9  1  0
 17 15  1  0
 18 17  1  0
 18 24  1  0
 18 19  1  1
 20 19  1  0
 21 20  1  0
 22 21  1  0
 23 22  1  0
 24 26  1  0
 25 24  2  0
M  END
$$$$
