VKK.pdb
     RDKit          3D

 26 25  0  0  1  0  0  0  0  0999 V2000
    8.9508  -12.9847   20.7926 C   0  0  0  0  0  0  0  0  0  0  0  0
    7.8611  -13.2824   19.7991 C   0  0  1  0  0  0  0  0  0  0  0  0
    7.6197  -12.1837   18.8203 C   0  0  0  0  0  0  0  0  0  0  0  0
    8.1842  -14.5765   19.1033 C   0  0  2  0  0  0  0  0  0  0  0  0
    7.1923  -14.9575   18.1420 N   0  0  0  0  0  0  0  0  0  0  0  0
    8.3291  -15.6776   20.0999 C   0  0  0  0  0  0  0  0  0  0  0  0
    7.2546  -16.1289   20.5938 O   0  0  0  0  0  0  0  0  0  0  0  0
    9.5968  -16.1429   20.4301 N   0  0  0  0  0  0  0  0  0  0  0  0
    9.7319  -17.2443   21.4433 C   0  0  1  0  0  0  0  0  0  0  0  0
   10.5500  -18.3079   20.8450 C   0  0  0  0  0  0  0  0  0  0  0  0
   10.9119  -19.5569   21.4582 C   0  0  0  0  0  0  0  0  0  0  0  0
   10.2449  -20.8447   21.2292 C   0  0  0  0  0  0  0  0  0  0  0  0
   11.0133  -21.8359   22.1810 C   0  0  0  0  0  0  0  0  0  0  0  0
   10.5015  -23.1574   22.0038 N   0  0  0  0  0  0  0  0  0  0  0  0
   10.4678  -16.5588   22.5624 C   0  0  0  0  0  0  0  0  0  0  0  0
   11.3148  -15.6986   22.3084 O   0  0  0  0  0  0  0  0  0  0  0  0
   10.2223  -16.8673   23.9159 N   0  0  0  0  0  0  0  0  0  0  0  0
   11.0618  -16.1400   24.9456 C   0  0  1  0  0  0  0  0  0  0  0  0
   10.1386  -15.7974   26.0474 C   0  0  0  0  0  0  0  0  0  0  0  0
   10.6548  -15.3292   27.3229 C   0  0  0  0  0  0  0  0  0  0  0  0
    9.8154  -14.8970   28.4518 C   0  0  0  0  0  0  0  0  0  0  0  0
   10.7443  -14.4018   29.6134 C   0  0  0  0  0  0  0  0  0  0  0  0
    9.9046  -13.9979   30.6985 N   0  0  0  0  0  0  0  0  0  0  0  0
   12.0342  -17.1940   25.3269 C   0  0  0  0  0  0  0  0  0  0  0  0
   13.1594  -16.9209   25.7480 O   0  0  0  0  0  0  0  0  0  0  0  0
   11.6371  -18.5435   25.1967 O   0  0  0  0  0  0  0  0  0  0  0  0
  2  4  1  0
  2  1  1  1
  3  2  1  0
  4  6  1  0
  4  5  1  6
  6  7  2  0
  8  9  1  0
  8  6  1  0
 10 11  1  0
  9 10  1  6
 12 11  1  0
 13 12  1  0
 14 13  1  0
 15 16  2  0
 15  9  1  0
 17 15  1  0
 18 17  1  0
 18 24  1  0
 18 19  1  1
 20 19  1  0
 21 20  1  0
 22 21  1  0
 23 22  1  0
 24 26  1  0
 25 24  2  0
M  END
$$$$
