VKK.pdb
     RDKit          3D

 26 25  0  0  1  0  0  0  0  0999 V2000
    8.8085  -12.8397   20.8923 C   0  0  0  0  0  0  0  0  0  0  0  0
    7.9171  -13.2288   19.7447 C   0  0  1  0  0  0  0  0  0  0  0  0
    7.9243  -12.2535   18.6168 C   0  0  0  0  0  0  0  0  0  0  0  0
    8.3028  -14.6071   19.2812 C   0  0  2  0  0  0  0  0  0  0  0  0
    7.5418  -15.0504   18.1508 N   0  0  0  0  0  0  0  0  0  0  0  0
    8.1291  -15.5926   20.3880 C   0  0  0  0  0  0  0  0  0  0  0  0
    6.9365  -15.8466   20.7277 O   0  0  0  0  0  0  0  0  0  0  0  0
    9.2489  -16.1685   20.9771 N   0  0  0  0  0  0  0  0  0  0  0  0
    9.0631  -17.1483   22.1010 C   0  0  1  0  0  0  0  0  0  0  0  0
    9.6209  -18.4375   21.6705 C   0  0  0  0  0  0  0  0  0  0  0  0
    8.8927  -19.5367   21.0972 C   0  0  0  0  0  0  0  0  0  0  0  0
    7.5038  -19.8958   21.4101 C   0  0  0  0  0  0  0  0  0  0  0  0
    7.2129  -21.1178   20.4611 C   0  0  0  0  0  0  0  0  0  0  0  0
    5.8596  -21.5409   20.6326 N   0  0  0  0  0  0  0  0  0  0  0  0
    9.8935  -16.5371   23.1967 C   0  0  0  0  0  0  0  0  0  0  0  0
   11.0461  -16.1644   22.9631 O   0  0  0  0  0  0  0  0  0  0  0  0
    9.3961  -16.3705   24.5052 N   0  0  0  0  0  0  0  0  0  0  0  0
   10.3477  -15.7869   25.5289 C   0  0  1  0  0  0  0  0  0  0  0  0
    9.4939  -15.1892   26.5765 C   0  0  0  0  0  0  0  0  0  0  0  0
   10.0661  -14.7770   27.8474 C   0  0  0  0  0  0  0  0  0  0  0  0
    9.2953  -14.1916   28.9559 C   0  0  0  0  0  0  0  0  0  0  0  0
   10.2717  -13.8757   30.1408 C   0  0  0  0  0  0  0  0  0  0  0  0
   10.5327  -15.1030   30.8272 N   0  0  0  0  0  0  0  0  0  0  0  0
   11.0540  -17.0044   25.9986 C   0  0  0  0  0  0  0  0  0  0  0  0
   10.4920  -18.0989   26.0650 O   0  0  0  0  0  0  0  0  0  0  0  0
   12.4104  -16.8830   26.3743 O   0  0  0  0  0  0  0  0  0  0  0  0
  2  4  1  0
  2  1  1  1
  3  2  1  0
  4  6  1  0
  4  5  1  6
  6  7  2  0
  8  9  1  0
  8  6  1  0
 10 11  1  0
  9 10  1  6
 12 11  1  0
 13 12  1  0
 14 13  1  0
 15 16  2  0
 15  9  1  0
 17 15  1  0
 18 17  1  0
 18 24  1  0
 18 19  1  1
 20 19  1  0
 21 20  1  0
 22 21  1  0
 23 22  1  0
 24 26  1  0
 25 24  2  0
M  END
$$$$
