VKK.pdb
     RDKit          3D

 26 25  0  0  1  0  0  0  0  0999 V2000
    7.5598  -12.1224   19.7276 C   0  0  0  0  0  0  0  0  0  0  0  0
    8.1946  -13.3402   20.3416 C   0  0  1  0  0  0  0  0  0  0  0  0
    7.7090  -13.6453   21.7180 C   0  0  0  0  0  0  0  0  0  0  0  0
    7.9905  -14.5083   19.4158 C   0  0  2  0  0  0  0  0  0  0  0  0
    6.6108  -14.8602   19.2553 N   0  0  0  0  0  0  0  0  0  0  0  0
    8.7309  -15.7023   19.9183 C   0  0  0  0  0  0  0  0  0  0  0  0
    8.0359  -16.5881   20.4966 O   0  0  0  0  0  0  0  0  0  0  0  0
   10.1065  -15.7851   19.7345 N   0  0  0  0  0  0  0  0  0  0  0  0
   10.8130  -17.0704   20.0610 C   0  0  1  0  0  0  0  0  0  0  0  0
   11.7973  -17.3245   19.0003 C   0  0  0  0  0  0  0  0  0  0  0  0
   12.7038  -18.4378   18.9224 C   0  0  0  0  0  0  0  0  0  0  0  0
   13.7003  -18.6543   17.8660 C   0  0  0  0  0  0  0  0  0  0  0  0
   14.3481  -20.0385   18.2440 C   0  0  0  0  0  0  0  0  0  0  0  0
   13.7204  -21.0779   17.4920 N   0  0  0  0  0  0  0  0  0  0  0  0
   11.4917  -16.7390   21.3623 C   0  0  0  0  0  0  0  0  0  0  0  0
   11.9144  -15.5979   21.5650 O   0  0  0  0  0  0  0  0  0  0  0  0
   11.6666  -17.7003   22.3785 N   0  0  0  0  0  0  0  0  0  0  0  0
   12.2894  -17.2205   23.6731 C   0  0  1  0  0  0  0  0  0  0  0  0
   11.8902  -18.2050   24.7002 C   0  0  0  0  0  0  0  0  0  0  0  0
   12.3972  -18.1001   26.0584 C   0  0  0  0  0  0  0  0  0  0  0  0
   12.0412  -19.0177   27.1524 C   0  0  0  0  0  0  0  0  0  0  0  0
   12.9054  -18.6643   28.4115 C   0  0  0  0  0  0  0  0  0  0  0  0
   12.6144  -19.6324   29.4234 N   0  0  0  0  0  0  0  0  0  0  0  0
   13.7351  -17.2949   23.3470 C   0  0  0  0  0  0  0  0  0  0  0  0
   14.1961  -18.1839   22.6291 O   0  0  0  0  0  0  0  0  0  0  0  0
   14.5897  -16.3069   23.8847 O   0  0  0  0  0  0  0  0  0  0  0  0
  2  4  1  0
  2  1  1  6
  3  2  1  0
  4  6  1  0
  4  5  1  1
  6  7  2  0
  8  9  1  0
  8  6  1  0
 10 11  1  0
  9 10  1  6
 12 11  1  0
 13 12  1  0
 14 13  1  0
 15 16  2  0
 15  9  1  0
 17 15  1  0
 18 17  1  0
 18 24  1  0
 18 19  1  1
 20 19  1  0
 21 20  1  0
 22 21  1  0
 23 22  1  0
 24 26  1  0
 25 24  2  0
M  END
$$$$
