VKK.pdb
     RDKit          3D

 26 25  0  0  1  0  0  0  0  0999 V2000
   13.2348  -19.0122   16.3565 C   0  0  0  0  0  0  0  0  0  0  0  0
   12.2604  -18.0517   15.7312 C   0  0  1  0  0  0  0  0  0  0  0  0
   12.8167  -17.2960   14.5723 C   0  0  0  0  0  0  0  0  0  0  0  0
   11.0176  -18.8078   15.3480 C   0  0  2  0  0  0  0  0  0  0  0  0
   10.0840  -18.0112   14.6084 N   0  0  0  0  0  0  0  0  0  0  0  0
   10.3349  -19.3326   16.5666 C   0  0  0  0  0  0  0  0  0  0  0  0
    9.7056  -18.4839   17.2636 O   0  0  0  0  0  0  0  0  0  0  0  0
   10.4185  -20.6865   16.8715 N   0  0  0  0  0  0  0  0  0  0  0  0
    9.6840  -21.2137   18.0717 C   0  0  1  0  0  0  0  0  0  0  0  0
    9.0671  -22.4928   17.6953 C   0  0  0  0  0  0  0  0  0  0  0  0
    8.3723  -23.3983   18.5697 C   0  0  0  0  0  0  0  0  0  0  0  0
    7.7742  -24.6787   18.1713 C   0  0  0  0  0  0  0  0  0  0  0  0
    7.1459  -25.2270   19.5067 C   0  0  0  0  0  0  0  0  0  0  0  0
    6.5078  -26.4792   19.2525 N   0  0  0  0  0  0  0  0  0  0  0  0
   10.7982  -21.4196   19.0616 C   0  0  0  0  0  0  0  0  0  0  0  0
   11.9523  -21.5976   18.6639 O   0  0  0  0  0  0  0  0  0  0  0  0
   10.5701  -21.4170   20.4528 N   0  0  0  0  0  0  0  0  0  0  0  0
   11.7863  -21.5551   21.3449 C   0  0  1  0  0  0  0  0  0  0  0  0
   11.3955  -20.9804   22.6490 C   0  0  0  0  0  0  0  0  0  0  0  0
   12.2637  -21.1206   23.8062 C   0  0  0  0  0  0  0  0  0  0  0  0
   12.0011  -20.5148   25.1214 C   0  0  0  0  0  0  0  0  0  0  0  0
   13.1334  -20.9493   26.1145 C   0  0  0  0  0  0  0  0  0  0  0  0
   12.9077  -20.2715   27.3536 N   0  0  0  0  0  0  0  0  0  0  0  0
   11.9433  -23.0296   21.3986 C   0  0  0  0  0  0  0  0  0  0  0  0
   13.0443  -23.5627   21.5463 O   0  0  0  0  0  0  0  0  0  0  0  0
   10.7834  -23.8267   21.2762 O   0  0  0  0  0  0  0  0  0  0  0  0
  2  4  1  0
  2  1  1  6
  3  2  1  0
  4  6  1  0
  4  5  1  1
  6  7  2  0
  8  9  1  0
  8  6  1  0
 10 11  1  0
  9 10  1  6
 12 11  1  0
 13 12  1  0
 14 13  1  0
 15 16  2  0
 15  9  1  0
 17 15  1  0
 18 17  1  0
 18 24  1  0
 18 19  1  1
 20 19  1  0
 21 20  1  0
 22 21  1  0
 23 22  1  0
 24 26  1  0
 25 24  2  0
M  END
$$$$
