VKK.pdb
     RDKit          3D

 26 25  0  0  1  0  0  0  0  0999 V2000
    9.0413  -13.1177   21.2887 C   0  0  0  0  0  0  0  0  0  0  0  0
    7.7993  -13.3343   20.4681 C   0  0  1  0  0  0  0  0  0  0  0  0
    7.4911  -12.2152   19.5322 C   0  0  0  0  0  0  0  0  0  0  0  0
    7.9277  -14.6425   19.7364 C   0  0  2  0  0  0  0  0  0  0  0  0
    6.8257  -14.9028   18.8584 N   0  0  0  0  0  0  0  0  0  0  0  0
    8.0389  -15.7698   20.7077 C   0  0  0  0  0  0  0  0  0  0  0  0
    6.9991  -16.0327   21.3798 O   0  0  0  0  0  0  0  0  0  0  0  0
    9.2410  -16.4581   20.8265 N   0  0  0  0  0  0  0  0  0  0  0  0
    9.3206  -17.6386   21.7528 C   0  0  1  0  0  0  0  0  0  0  0  0
   10.1324  -18.6718   21.0956 C   0  0  0  0  0  0  0  0  0  0  0  0
    9.6439  -19.7813   20.3227 C   0  0  0  0  0  0  0  0  0  0  0  0
    9.8653  -19.9830   18.8853 C   0  0  0  0  0  0  0  0  0  0  0  0
    9.0417  -21.2851   18.5612 C   0  0  0  0  0  0  0  0  0  0  0  0
    9.5553  -22.3752   19.3279 N   0  0  0  0  0  0  0  0  0  0  0  0
   10.0374  -17.0615   22.9431 C   0  0  0  0  0  0  0  0  0  0  0  0
   10.9352  -16.2312   22.7802 O   0  0  0  0  0  0  0  0  0  0  0  0
    9.7168  -17.4399   24.2627 N   0  0  0  0  0  0  0  0  0  0  0  0
   10.4862  -16.7583   25.3751 C   0  0  1  0  0  0  0  0  0  0  0  0
    9.4700  -16.0970   26.2199 C   0  0  0  0  0  0  0  0  0  0  0  0
    9.8150  -15.6157   27.5473 C   0  0  0  0  0  0  0  0  0  0  0  0
    9.5237  -14.2609   28.0426 C   0  0  0  0  0  0  0  0  0  0  0  0
   10.0550  -14.1334   29.5118 C   0  0  0  0  0  0  0  0  0  0  0  0
    9.6686  -12.8469   30.0031 N   0  0  0  0  0  0  0  0  0  0  0  0
   11.1159  -17.9205   26.0494 C   0  0  0  0  0  0  0  0  0  0  0  0
   11.9041  -18.6649   25.4640 O   0  0  0  0  0  0  0  0  0  0  0  0
   10.7892  -18.1614   27.4025 O   0  0  0  0  0  0  0  0  0  0  0  0
  2  4  1  0
  2  1  1  6
  3  2  1  0
  4  6  1  0
  4  5  1  1
  6  7  2  0
  8  9  1  0
  8  6  1  0
 10 11  1  0
  9 10  1  6
 12 11  1  0
 13 12  1  0
 14 13  1  0
 15 16  2  0
 15  9  1  0
 17 15  1  0
 18 17  1  0
 18 24  1  0
 18 19  1  1
 20 19  1  0
 21 20  1  0
 22 21  1  0
 23 22  1  0
 24 26  1  0
 25 24  2  0
M  END
$$$$
