DYK.pdb
     RDKit          3D

 30 30  0  0  1  0  0  0  0  0999 V2000
   28.5884  -19.6641  -14.5441 N   0  0  0  0  0  0  0  0  0  0  0  0
   27.5114  -20.6292  -14.4926 C   0  0  1  0  0  0  0  0  0  0  0  0
   27.7427  -21.6308  -15.5867 C   0  0  0  0  0  0  0  0  0  0  0  0
   28.1472  -20.9160  -16.8060 C   0  0  0  0  0  0  0  0  0  0  0  0
   27.3980  -20.0674  -17.3202 O   0  0  0  0  0  0  0  0  0  0  0  0
   27.4600  -21.2217  -13.1562 C   0  0  0  0  0  0  0  0  0  0  0  0
   26.9116  -22.3646  -12.9782 O   0  0  0  0  0  0  0  0  0  0  0  0
   29.3672  -21.1900  -17.3826 O   0  0  0  0  0  0  0  0  0  0  0  0
   26.5587  -20.0437   -4.3388 O   0  0  0  0  0  0  0  0  0  0  0  0
   27.0398  -20.1380   -5.6261 C   0  0  0  0  0  0  0  0  0  0  0  0
   26.7987  -21.2683   -6.3506 C   0  0  0  0  0  0  0  0  0  0  0  0
   27.2760  -21.3870   -7.6572 C   0  0  0  0  0  0  0  0  0  0  0  0
   27.9973  -20.3832   -8.2544 C   0  0  0  0  0  0  0  0  0  0  0  0
   28.5082  -20.5098   -9.6297 C   0  0  0  0  0  0  0  0  0  0  0  0
   27.5004  -20.8732  -10.6636 C   0  0  2  0  0  0  0  0  0  0  0  0
   27.9857  -20.6095  -12.0122 N   0  0  0  0  0  0  0  0  0  0  0  0
   26.2513  -20.0599  -10.4524 C   0  0  0  0  0  0  0  0  0  0  0  0
   26.2457  -18.8341  -10.7388 O   0  0  0  0  0  0  0  0  0  0  0  0
   28.2264  -19.2415   -7.4874 C   0  0  0  0  0  0  0  0  0  0  0  0
   27.7631  -19.1090   -6.1997 C   0  0  0  0  0  0  0  0  0  0  0  0
   25.0747  -20.6416   -9.9366 N   0  0  0  0  0  0  0  0  0  0  0  0
   23.7346  -20.1294   -9.9685 C   0  0  1  0  0  0  0  0  0  0  0  0
   23.2433  -19.8716  -11.3834 C   0  0  0  0  0  0  0  0  0  0  0  0
   22.8547  -21.1787  -11.9936 C   0  0  0  0  0  0  0  0  0  0  0  0
   22.4590  -20.9812  -13.4331 C   0  0  0  0  0  0  0  0  0  0  0  0
   22.0112  -22.2751  -14.0272 C   0  0  0  0  0  0  0  0  0  0  0  0
   21.6078  -22.0796  -15.4179 N   0  0  0  0  0  0  0  0  0  0  0  0
   22.7873  -20.8936   -9.1525 C   0  0  0  0  0  0  0  0  0  0  0  0
   23.1975  -21.9440   -8.5974 O   0  0  0  0  0  0  0  0  0  0  0  0
   21.4634  -20.5351   -8.9501 O   0  0  0  0  0  0  0  0  0  0  0  0
  2  1  1  1
  3  2  1  0
  4  3  1  0
  5  4  2  0
  6  2  1  0
  6  7  2  0
  8  4  1  0
  9 10  1  0
 10 11  2  0
 11 12  1  0
 13 12  2  0
 13 14  1  0
 15 14  1  1
 15 16  1  0
 16  6  1  0
 17 15  1  0
 17 18  2  0
 19 13  1  0
 20 10  1  0
 20 19  2  0
 21 17  1  0
 22 21  1  0
 22 28  1  0
 22 23  1  6
 24 23  1  0
 25 24  1  0
 26 25  1  0
 27 26  1  0
 28 29  2  0
 28 30  1  0
M  END
$$$$
