DYK.pdb
     RDKit          3D

 30 30  0  0  1  0  0  0  0  0999 V2000
   21.2928   -6.6637  -18.6565 N   0  0  0  0  0  0  0  0  0  0  0  0
   20.0200   -6.8062  -17.9830 C   0  0  1  0  0  0  0  0  0  0  0  0
   19.8805   -8.2423  -17.5687 C   0  0  0  0  0  0  0  0  0  0  0  0
   19.1583   -8.9714  -18.6214 C   0  0  0  0  0  0  0  0  0  0  0  0
   18.8081   -8.3938  -19.6651 O   0  0  0  0  0  0  0  0  0  0  0  0
   19.9594   -5.8647  -16.8651 C   0  0  0  0  0  0  0  0  0  0  0  0
   18.8847   -5.7453  -16.1801 O   0  0  0  0  0  0  0  0  0  0  0  0
   18.8677  -10.3061  -18.4482 O   0  0  0  0  0  0  0  0  0  0  0  0
   21.4777   -9.0804  -11.2083 O   0  0  0  0  0  0  0  0  0  0  0  0
   21.6377   -7.9558  -11.9876 C   0  0  0  0  0  0  0  0  0  0  0  0
   21.0244   -6.7938  -11.6213 C   0  0  0  0  0  0  0  0  0  0  0  0
   21.1717   -5.6410  -12.3949 C   0  0  0  0  0  0  0  0  0  0  0  0
   21.9298   -5.6338  -13.5395 C   0  0  0  0  0  0  0  0  0  0  0  0
   22.0800   -4.4210  -14.3610 C   0  0  0  0  0  0  0  0  0  0  0  0
   20.9790   -4.1530  -15.3266 C   0  0  2  0  0  0  0  0  0  0  0  0
   21.0297   -5.0522  -16.4723 N   0  0  0  0  0  0  0  0  0  0  0  0
   21.0946   -2.7420  -15.8385 C   0  0  0  0  0  0  0  0  0  0  0  0
   21.9503   -2.4628  -16.7185 O   0  0  0  0  0  0  0  0  0  0  0  0
   22.5433   -6.8370  -13.8862 C   0  0  0  0  0  0  0  0  0  0  0  0
   22.4083   -7.9807  -13.1350 C   0  0  0  0  0  0  0  0  0  0  0  0
   20.2607   -1.7138  -15.3525 N   0  0  0  0  0  0  0  0  0  0  0  0
   20.0220   -0.4146  -15.9132 C   0  0  1  0  0  0  0  0  0  0  0  0
   19.7587   -0.4653  -17.4091 C   0  0  0  0  0  0  0  0  0  0  0  0
   19.6399    0.9353  -17.9152 C   0  0  0  0  0  0  0  0  0  0  0  0
   18.7006    0.9833  -19.0913 C   0  0  0  0  0  0  0  0  0  0  0  0
   18.6737    2.3570  -19.6741 C   0  0  0  0  0  0  0  0  0  0  0  0
   17.7431    2.4101  -20.7994 N   0  0  0  0  0  0  0  0  0  0  0  0
   19.0365    0.3791  -15.1743 C   0  0  0  0  0  0  0  0  0  0  0  0
   19.2305    1.6166  -15.0713 O   0  0  0  0  0  0  0  0  0  0  0  0
   17.8994   -0.1445  -14.5784 O   0  0  0  0  0  0  0  0  0  0  0  0
  2  1  1  1
  3  2  1  0
  4  3  1  0
  5  4  2  0
  6  2  1  0
  6  7  2  0
  8  4  1  0
  9 10  1  0
 10 11  2  0
 11 12  1  0
 13 12  2  0
 13 14  1  0
 15 14  1  1
 15 16  1  0
 16  6  1  0
 17 15  1  0
 17 18  2  0
 19 13  1  0
 20 10  1  0
 20 19  2  0
 21 17  1  0
 22 21  1  0
 22 28  1  0
 22 23  1  6
 24 23  1  0
 25 24  1  0
 26 25  1  0
 27 26  1  0
 28 29  2  0
 28 30  1  0
M  END
$$$$
