DYK.pdb
     RDKit          3D

 30 30  0  0  1  0  0  0  0  0999 V2000
   27.7466  -11.4455  -15.8183 N   0  0  0  0  0  0  0  0  0  0  0  0
   26.4996  -11.4123  -16.5517 C   0  0  1  0  0  0  0  0  0  0  0  0
   25.9651  -12.8140  -16.6081 C   0  0  0  0  0  0  0  0  0  0  0  0
   25.9934  -13.2763  -18.0034 C   0  0  0  0  0  0  0  0  0  0  0  0
   25.5255  -12.5706  -18.9136 O   0  0  0  0  0  0  0  0  0  0  0  0
   25.5898  -10.4630  -15.9107 C   0  0  0  0  0  0  0  0  0  0  0  0
   25.6665  -10.2461  -14.6514 O   0  0  0  0  0  0  0  0  0  0  0  0
   26.5435  -14.5025  -18.3031 O   0  0  0  0  0  0  0  0  0  0  0  0
   20.6685   -3.1756  -14.9338 O   0  0  0  0  0  0  0  0  0  0  0  0
   21.5382   -4.1949  -15.2532 C   0  0  0  0  0  0  0  0  0  0  0  0
   22.2133   -4.8368  -14.2568 C   0  0  0  0  0  0  0  0  0  0  0  0
   23.1001   -5.8729  -14.5558 C   0  0  0  0  0  0  0  0  0  0  0  0
   23.3234   -6.2793  -15.8479 C   0  0  0  0  0  0  0  0  0  0  0  0
   24.2641   -7.3667  -16.1659 C   0  0  0  0  0  0  0  0  0  0  0  0
   23.7475   -8.7486  -15.9657 C   0  0  2  0  0  0  0  0  0  0  0  0
   24.6028   -9.7455  -16.5969 N   0  0  0  0  0  0  0  0  0  0  0  0
   22.3749   -8.8626  -16.5734 C   0  0  0  0  0  0  0  0  0  0  0  0
   22.2133   -8.6416  -17.8022 O   0  0  0  0  0  0  0  0  0  0  0  0
   22.6181   -5.6033  -16.8428 C   0  0  0  0  0  0  0  0  0  0  0  0
   21.7413   -4.5812  -16.5649 C   0  0  0  0  0  0  0  0  0  0  0  0
   21.2535   -9.2142  -15.7940 N   0  0  0  0  0  0  0  0  0  0  0  0
   19.8671   -9.2027  -16.1640 C   0  0  1  0  0  0  0  0  0  0  0  0
   19.0131  -10.0659  -15.2500 C   0  0  0  0  0  0  0  0  0  0  0  0
   17.6203  -10.0903  -15.7896 C   0  0  0  0  0  0  0  0  0  0  0  0
   16.7540  -10.9893  -14.9474 C   0  0  0  0  0  0  0  0  0  0  0  0
   15.4167  -11.1637  -15.5867 C   0  0  0  0  0  0  0  0  0  0  0  0
   14.6126  -12.1160  -14.8241 N   0  0  0  0  0  0  0  0  0  0  0  0
   19.3203   -7.8599  -16.3763 C   0  0  0  0  0  0  0  0  0  0  0  0
   18.8829   -7.5729  -17.5192 O   0  0  0  0  0  0  0  0  0  0  0  0
   19.2523   -6.8800  -15.3979 O   0  0  0  0  0  0  0  0  0  0  0  0
  2  1  1  1
  3  2  1  0
  4  3  1  0
  5  4  2  0
  6  2  1  0
  6  7  2  0
  8  4  1  0
  9 10  1  0
 10 11  2  0
 11 12  1  0
 13 12  2  0
 13 14  1  0
 15 14  1  6
 15 16  1  0
 16  6  1  0
 17 15  1  0
 17 18  2  0
 19 13  1  0
 20 10  1  0
 20 19  2  0
 21 17  1  0
 22 21  1  0
 22 28  1  0
 22 23  1  1
 24 23  1  0
 25 24  1  0
 26 25  1  0
 27 26  1  0
 28 29  2  0
 28 30  1  0
M  END
$$$$
