DYK.pdb
     RDKit          3D

 30 30  0  0  1  0  0  0  0  0999 V2000
   17.9805  -16.2431  -16.5844 N   0  0  0  0  0  0  0  0  0  0  0  0
   19.0718  -15.4118  -16.1241 C   0  0  1  0  0  0  0  0  0  0  0  0
   20.3495  -16.0090  -16.6383 C   0  0  0  0  0  0  0  0  0  0  0  0
   20.6452  -17.2281  -15.8717 C   0  0  0  0  0  0  0  0  0  0  0  0
   19.9114  -17.5778  -14.9310 O   0  0  0  0  0  0  0  0  0  0  0  0
   18.8479  -14.0356  -16.5664 C   0  0  0  0  0  0  0  0  0  0  0  0
   18.8683  -13.7477  -17.8136 O   0  0  0  0  0  0  0  0  0  0  0  0
   21.7453  -17.9884  -16.1997 O   0  0  0  0  0  0  0  0  0  0  0  0
   15.4884   -5.8869  -17.0884 O   0  0  0  0  0  0  0  0  0  0  0  0
   15.8481   -7.1679  -16.7317 C   0  0  0  0  0  0  0  0  0  0  0  0
   15.8651   -8.1479  -17.6803 C   0  0  0  0  0  0  0  0  0  0  0  0
   16.2263   -9.4537  -17.3429 C   0  0  0  0  0  0  0  0  0  0  0  0
   16.5733   -9.7962  -16.0596 C   0  0  0  0  0  0  0  0  0  0  0  0
   16.9470  -11.1744  -15.7003 C   0  0  0  0  0  0  0  0  0  0  0  0
   18.2975  -11.6157  -16.1453 C   0  0  2  0  0  0  0  0  0  0  0  0
   18.6035  -12.9675  -15.6951 N   0  0  0  0  0  0  0  0  0  0  0  0
   19.3392  -10.6898  -15.5763 C   0  0  0  0  0  0  0  0  0  0  0  0
   19.5756  -10.6968  -14.3398 O   0  0  0  0  0  0  0  0  0  0  0  0
   16.5459   -8.7718  -15.1140 C   0  0  0  0  0  0  0  0  0  0  0  0
   16.1928   -7.4811  -15.4301 C   0  0  0  0  0  0  0  0  0  0  0  0
   20.0648   -9.8053  -16.4009 N   0  0  0  0  0  0  0  0  0  0  0  0
   20.9983   -8.7855  -16.0164 C   0  0  1  0  0  0  0  0  0  0  0  0
   21.3931   -7.8892  -17.1785 C   0  0  0  0  0  0  0  0  0  0  0  0
   22.4505   -6.9445  -16.7079 C   0  0  0  0  0  0  0  0  0  0  0  0
   22.8409   -6.0078  -17.8205 C   0  0  0  0  0  0  0  0  0  0  0  0
   23.8858   -5.0528  -17.3479 C   0  0  0  0  0  0  0  0  0  0  0  0
   24.2766   -4.1545  -18.4321 N   0  0  0  0  0  0  0  0  0  0  0  0
   20.6059   -8.0438  -14.8150 C   0  0  0  0  0  0  0  0  0  0  0  0
   21.4215   -7.9899  -13.8602 O   0  0  0  0  0  0  0  0  0  0  0  0
   19.3909   -7.3945  -14.6593 O   0  0  0  0  0  0  0  0  0  0  0  0
  2  1  1  6
  3  2  1  0
  4  3  1  0
  5  4  2  0
  6  2  1  0
  6  7  2  0
  8  4  1  0
  9 10  1  0
 10 11  2  0
 11 12  1  0
 13 12  2  0
 13 14  1  0
 15 14  1  1
 15 16  1  0
 16  6  1  0
 17 15  1  0
 17 18  2  0
 19 13  1  0
 20 10  1  0
 20 19  2  0
 21 17  1  0
 22 21  1  0
 22 28  1  0
 22 23  1  6
 24 23  1  0
 25 24  1  0
 26 25  1  0
 27 26  1  0
 28 29  2  0
 28 30  1  0
M  END
$$$$
