DYK.pdb
     RDKit          3D

 30 30  0  0  1  0  0  0  0  0999 V2000
   22.8265  -12.4972  -18.6077 N   0  0  0  0  0  0  0  0  0  0  0  0
   22.4012  -11.1296  -18.8145 C   0  0  1  0  0  0  0  0  0  0  0  0
   20.9191  -11.1431  -19.0527 C   0  0  0  0  0  0  0  0  0  0  0  0
   20.6509  -11.8125  -20.3338 C   0  0  0  0  0  0  0  0  0  0  0  0
   19.9737  -12.8543  -20.3740 O   0  0  0  0  0  0  0  0  0  0  0  0
   22.8030  -10.3217  -17.6632 C   0  0  0  0  0  0  0  0  0  0  0  0
   22.5935  -10.7453  -16.4735 O   0  0  0  0  0  0  0  0  0  0  0  0
   21.1550  -11.2793  -21.4990 O   0  0  0  0  0  0  0  0  0  0  0  0
   28.6976  -12.4523  -16.4069 O   0  0  0  0  0  0  0  0  0  0  0  0
   27.8548  -11.3630  -16.4340 C   0  0  0  0  0  0  0  0  0  0  0  0
   27.6631  -10.6930  -17.6066 C   0  0  0  0  0  0  0  0  0  0  0  0
   26.8137   -9.5863  -17.6589 C   0  0  0  0  0  0  0  0  0  0  0  0
   26.1480   -9.1361  -16.5460 C   0  0  0  0  0  0  0  0  0  0  0  0
   25.2577   -7.9642  -16.5975 C   0  0  0  0  0  0  0  0  0  0  0  0
   23.7988   -8.2603  -16.6166 C   0  0  2  0  0  0  0  0  0  0  0  0
   23.4236   -9.0712  -17.7679 N   0  0  0  0  0  0  0  0  0  0  0  0
   23.0271   -6.9696  -16.6865 C   0  0  0  0  0  0  0  0  0  0  0  0
   23.0565   -6.2781  -17.7380 O   0  0  0  0  0  0  0  0  0  0  0  0
   26.3653   -9.8425  -15.3636 C   0  0  0  0  0  0  0  0  0  0  0  0
   27.1983  -10.9343  -15.2955 C   0  0  0  0  0  0  0  0  0  0  0  0
   22.2641   -6.5100  -15.5932 N   0  0  0  0  0  0  0  0  0  0  0  0
   21.4674   -5.3205  -15.4947 C   0  0  1  0  0  0  0  0  0  0  0  0
   19.9771   -5.6104  -15.5627 C   0  0  0  0  0  0  0  0  0  0  0  0
   19.2387   -4.3172  -15.4423 C   0  0  0  0  0  0  0  0  0  0  0  0
   17.7535   -4.5648  -15.4626 C   0  0  0  0  0  0  0  0  0  0  0  0
   17.0138   -3.2713  -15.3780 C   0  0  0  0  0  0  0  0  0  0  0  0
   15.5789   -3.5173  -15.2528 N   0  0  0  0  0  0  0  0  0  0  0  0
   21.8410   -4.4463  -14.3796 C   0  0  0  0  0  0  0  0  0  0  0  0
   21.6356   -3.2123  -14.5006 O   0  0  0  0  0  0  0  0  0  0  0  0
   22.4083   -4.8898  -13.1948 O   0  0  0  0  0  0  0  0  0  0  0  0
  2  1  1  1
  3  2  1  0
  4  3  1  0
  5  4  2  0
  6  2  1  0
  6  7  2  0
  8  4  1  0
  9 10  1  0
 10 11  2  0
 11 12  1  0
 13 12  2  0
 13 14  1  0
 15 14  1  6
 15 16  1  0
 16  6  1  0
 17 15  1  0
 17 18  2  0
 19 13  1  0
 20 10  1  0
 20 19  2  0
 21 17  1  0
 22 21  1  0
 22 28  1  0
 22 23  1  1
 24 23  1  0
 25 24  1  0
 26 25  1  0
 27 26  1  0
 28 29  2  0
 28 30  1  0
M  END
$$$$
