DYK.pdb
     RDKit          3D

 30 30  0  0  1  0  0  0  0  0999 V2000
   25.9273   -9.8999  -21.0008 N   0  0  0  0  0  0  0  0  0  0  0  0
   24.8714  -10.8280  -20.6579 C   0  0  1  0  0  0  0  0  0  0  0  0
   25.3671  -12.2138  -20.9537 C   0  0  0  0  0  0  0  0  0  0  0  0
   25.5331  -12.3576  -22.4074 C   0  0  0  0  0  0  0  0  0  0  0  0
   26.5344  -12.9255  -22.8769 O   0  0  0  0  0  0  0  0  0  0  0  0
   24.4900  -10.6275  -19.2600 C   0  0  0  0  0  0  0  0  0  0  0  0
   23.6803  -11.4385  -18.6897 O   0  0  0  0  0  0  0  0  0  0  0  0
   24.5699  -11.8582  -23.2552 O   0  0  0  0  0  0  0  0  0  0  0  0
   30.0147  -12.9610  -16.3580 O   0  0  0  0  0  0  0  0  0  0  0  0
   28.9945  -12.0362  -16.3199 C   0  0  0  0  0  0  0  0  0  0  0  0
   29.0897  -10.9020  -17.0718 C   0  0  0  0  0  0  0  0  0  0  0  0
   28.0685   -9.9502  -17.0497 C   0  0  0  0  0  0  0  0  0  0  0  0
   26.9444  -10.1177  -16.2798 C   0  0  0  0  0  0  0  0  0  0  0  0
   25.8698   -9.1113  -16.2493 C   0  0  0  0  0  0  0  0  0  0  0  0
   24.6567   -9.4354  -17.0492 C   0  0  2  0  0  0  0  0  0  0  0  0
   24.9618   -9.5743  -18.4675 N   0  0  0  0  0  0  0  0  0  0  0  0
   23.6471   -8.3291  -16.8977 C   0  0  0  0  0  0  0  0  0  0  0  0
   23.8612   -7.2082  -17.4291 O   0  0  0  0  0  0  0  0  0  0  0  0
   26.8777  -11.2872  -15.5233 C   0  0  0  0  0  0  0  0  0  0  0  0
   27.8745  -12.2342  -15.5342 C   0  0  0  0  0  0  0  0  0  0  0  0
   22.4550   -8.5176  -16.1681 N   0  0  0  0  0  0  0  0  0  0  0  0
   21.3910   -7.5834  -15.9350 C   0  0  1  0  0  0  0  0  0  0  0  0
   20.0184   -8.2293  -16.0261 C   0  0  0  0  0  0  0  0  0  0  0  0
   18.9839   -7.1573  -15.9143 C   0  0  0  0  0  0  0  0  0  0  0  0
   17.6057   -7.7531  -16.0295 C   0  0  0  0  0  0  0  0  0  0  0  0
   16.5702   -6.6854  -15.9065 C   0  0  0  0  0  0  0  0  0  0  0  0
   15.2458   -7.2305  -16.1962 N   0  0  0  0  0  0  0  0  0  0  0  0
   21.5719   -6.7654  -14.7328 C   0  0  0  0  0  0  0  0  0  0  0  0
   21.8858   -7.3464  -13.6634 O   0  0  0  0  0  0  0  0  0  0  0  0
   21.4197   -5.3879  -14.6945 O   0  0  0  0  0  0  0  0  0  0  0  0
  2  1  1  1
  3  2  1  0
  4  3  1  0
  5  4  2  0
  6  2  1  0
  6  7  2  0
  8  4  1  0
  9 10  1  0
 10 11  2  0
 11 12  1  0
 13 12  2  0
 13 14  1  0
 15 14  1  1
 15 16  1  0
 16  6  1  0
 17 15  1  0
 17 18  2  0
 19 13  1  0
 20 10  1  0
 20 19  2  0
 21 17  1  0
 22 21  1  0
 22 28  1  0
 22 23  1  1
 24 23  1  0
 25 24  1  0
 26 25  1  0
 27 26  1  0
 28 29  2  0
 28 30  1  0
M  END
$$$$
