DYK.pdb
     RDKit          3D

 30 30  0  0  1  0  0  0  0  0999 V2000
   16.2336  -12.2408  -15.2288 N   0  0  0  0  0  0  0  0  0  0  0  0
   17.5946  -11.7515  -15.2754 C   0  0  1  0  0  0  0  0  0  0  0  0
   18.3632  -12.6279  -16.2213 C   0  0  0  0  0  0  0  0  0  0  0  0
   18.5468  -13.9482  -15.6012 C   0  0  0  0  0  0  0  0  0  0  0  0
   18.4320  -14.0914  -14.3716 O   0  0  0  0  0  0  0  0  0  0  0  0
   17.5854  -10.3401  -15.6597 C   0  0  0  0  0  0  0  0  0  0  0  0
   16.8739   -9.9455  -16.6480 O   0  0  0  0  0  0  0  0  0  0  0  0
   18.8488  -15.0350  -16.3909 O   0  0  0  0  0  0  0  0  0  0  0  0
   16.9593   -7.7045   -9.0950 O   0  0  0  0  0  0  0  0  0  0  0  0
   17.0240   -7.5621  -10.4636 C   0  0  0  0  0  0  0  0  0  0  0  0
   16.6233   -8.5912  -11.2642 C   0  0  0  0  0  0  0  0  0  0  0  0
   16.6796   -8.4704  -12.6540 C   0  0  0  0  0  0  0  0  0  0  0  0
   17.1351   -7.3257  -13.2595 C   0  0  0  0  0  0  0  0  0  0  0  0
   17.2025   -7.1992  -14.7250 C   0  0  0  0  0  0  0  0  0  0  0  0
   18.3077   -7.9441  -15.3886 C   0  0  2  0  0  0  0  0  0  0  0  0
   18.3247   -9.3493  -15.0028 N   0  0  0  0  0  0  0  0  0  0  0  0
   19.6278   -7.3381  -14.9932 C   0  0  0  0  0  0  0  0  0  0  0  0
   20.2950   -7.8471  -14.0548 O   0  0  0  0  0  0  0  0  0  0  0  0
   17.5370   -6.2927  -12.4134 C   0  0  0  0  0  0  0  0  0  0  0  0
   17.4875   -6.3958  -11.0432 C   0  0  0  0  0  0  0  0  0  0  0  0
   20.1420   -6.2028  -15.6532 N   0  0  0  0  0  0  0  0  0  0  0  0
   21.3925   -5.5325  -15.4387 C   0  0  1  0  0  0  0  0  0  0  0  0
   21.6391   -4.4229  -16.4475 C   0  0  0  0  0  0  0  0  0  0  0  0
   23.0420   -3.9370  -16.2811 C   0  0  0  0  0  0  0  0  0  0  0  0
   23.3823   -2.9537  -17.3697 C   0  0  0  0  0  0  0  0  0  0  0  0
   24.8120   -2.5394  -17.2621 C   0  0  0  0  0  0  0  0  0  0  0  0
   25.2033   -1.7646  -18.4376 N   0  0  0  0  0  0  0  0  0  0  0  0
   21.6137   -5.1184  -14.0506 C   0  0  0  0  0  0  0  0  0  0  0  0
   20.7332   -4.4136  -13.4959 O   0  0  0  0  0  0  0  0  0  0  0  0
   22.7332   -5.4526  -13.3043 O   0  0  0  0  0  0  0  0  0  0  0  0
  2  1  1  6
  3  2  1  0
  4  3  1  0
  5  4  2  0
  6  2  1  0
  6  7  2  0
  8  4  1  0
  9 10  1  0
 10 11  2  0
 11 12  1  0
 13 12  2  0
 13 14  1  0
 15 14  1  1
 15 16  1  0
 16  6  1  0
 17 15  1  0
 17 18  2  0
 19 13  1  0
 20 10  1  0
 20 19  2  0
 21 17  1  0
 22 21  1  0
 22 28  1  0
 22 23  1  6
 24 23  1  0
 25 24  1  0
 26 25  1  0
 27 26  1  0
 28 29  2  0
 28 30  1  0
M  END
$$$$
