DYK.pdb
     RDKit          3D

 30 30  0  0  1  0  0  0  0  0999 V2000
   21.8773  -11.1838  -18.1818 N   0  0  0  0  0  0  0  0  0  0  0  0
   22.4832   -9.9034  -17.8860 C   0  0  1  0  0  0  0  0  0  0  0  0
   22.6628   -9.1720  -19.1847 C   0  0  0  0  0  0  0  0  0  0  0  0
   23.7143   -9.8414  -19.9643 C   0  0  0  0  0  0  0  0  0  0  0  0
   23.6263   -9.9290  -21.2013 O   0  0  0  0  0  0  0  0  0  0  0  0
   21.6491   -9.1881  -16.9205 C   0  0  0  0  0  0  0  0  0  0  0  0
   20.3856   -9.3902  -16.8854 O   0  0  0  0  0  0  0  0  0  0  0  0
   24.8058  -10.3758  -19.3169 O   0  0  0  0  0  0  0  0  0  0  0  0
   18.7848   -5.5033   -9.4477 O   0  0  0  0  0  0  0  0  0  0  0  0
   19.5344   -6.0501  -10.4657 C   0  0  0  0  0  0  0  0  0  0  0  0
   19.3013   -7.3371  -10.8529 C   0  0  0  0  0  0  0  0  0  0  0  0
   20.0482   -7.9132  -11.8822 C   0  0  0  0  0  0  0  0  0  0  0  0
   21.0333   -7.2148  -12.5351 C   0  0  0  0  0  0  0  0  0  0  0  0
   21.8273   -7.8231  -13.6158 C   0  0  0  0  0  0  0  0  0  0  0  0
   21.3199   -7.5978  -14.9972 C   0  0  2  0  0  0  0  0  0  0  0  0
   22.1475   -8.2629  -15.9956 N   0  0  0  0  0  0  0  0  0  0  0  0
   21.3252   -6.1227  -15.2979 C   0  0  0  0  0  0  0  0  0  0  0  0
   22.4148   -5.4928  -15.3262 O   0  0  0  0  0  0  0  0  0  0  0  0
   21.2466   -5.9021  -12.1159 C   0  0  0  0  0  0  0  0  0  0  0  0
   20.5197   -5.3203  -11.1041 C   0  0  0  0  0  0  0  0  0  0  0  0
   20.1287   -5.4205  -15.5512 N   0  0  0  0  0  0  0  0  0  0  0  0
   19.9481   -4.0175  -15.7921 C   0  0  1  0  0  0  0  0  0  0  0  0
   18.6010   -3.7034  -16.4219 C   0  0  0  0  0  0  0  0  0  0  0  0
   18.8243   -2.7903  -17.5830 C   0  0  0  0  0  0  0  0  0  0  0  0
   17.5220   -2.5241  -18.2907 C   0  0  0  0  0  0  0  0  0  0  0  0
   17.7335   -1.5699  -19.4186 C   0  0  0  0  0  0  0  0  0  0  0  0
   16.4806   -1.3530  -20.1385 N   0  0  0  0  0  0  0  0  0  0  0  0
   20.2638   -3.1714  -14.6381 C   0  0  0  0  0  0  0  0  0  0  0  0
   19.3886   -3.0366  -13.7462 O   0  0  0  0  0  0  0  0  0  0  0  0
   21.4676   -2.5065  -14.4625 O   0  0  0  0  0  0  0  0  0  0  0  0
  2  1  1  6
  3  2  1  0
  4  3  1  0
  5  4  2  0
  6  2  1  0
  6  7  2  0
  8  4  1  0
  9 10  1  0
 10 11  2  0
 11 12  1  0
 13 12  2  0
 13 14  1  0
 15 14  1  1
 15 16  1  0
 16  6  1  0
 17 15  1  0
 17 18  2  0
 19 13  1  0
 20 10  1  0
 20 19  2  0
 21 17  1  0
 22 21  1  0
 22 28  1  0
 22 23  1  1
 24 23  1  0
 25 24  1  0
 26 25  1  0
 27 26  1  0
 28 29  2  0
 28 30  1  0
M  END
$$$$
