DYK.pdb
     RDKit          3D

 30 30  0  0  1  0  0  0  0  0999 V2000
   15.2139  -24.0937    4.5112 N   0  0  0  0  0  0  0  0  0  0  0  0
   15.1242  -23.2367    5.6737 C   0  0  1  0  0  0  0  0  0  0  0  0
   15.5089  -24.0526    6.8737 C   0  0  0  0  0  0  0  0  0  0  0  0
   14.4516  -25.0404    7.1341 C   0  0  0  0  0  0  0  0  0  0  0  0
   13.3688  -24.9836    6.5260 O   0  0  0  0  0  0  0  0  0  0  0  0
   15.9683  -22.0596    5.4697 C   0  0  0  0  0  0  0  0  0  0  0  0
   17.1292  -22.1818    4.9444 O   0  0  0  0  0  0  0  0  0  0  0  0
   14.6642  -26.0368    8.0603 O   0  0  0  0  0  0  0  0  0  0  0  0
   15.9870  -21.6385   -0.6018 O   0  0  0  0  0  0  0  0  0  0  0  0
   15.9241  -20.9641    0.5976 C   0  0  0  0  0  0  0  0  0  0  0  0
   17.0013  -20.2396    1.0163 C   0  0  0  0  0  0  0  0  0  0  0  0
   16.9614  -19.5476    2.2282 C   0  0  0  0  0  0  0  0  0  0  0  0
   15.8504  -19.5703    3.0342 C   0  0  0  0  0  0  0  0  0  0  0  0
   15.8091  -18.8474    4.3165 C   0  0  0  0  0  0  0  0  0  0  0  0
   16.3708  -19.5748    5.4878 C   0  0  2  0  0  0  0  0  0  0  0  0
   15.5879  -20.7585    5.8192 N   0  0  0  0  0  0  0  0  0  0  0  0
   16.3701  -18.6666    6.6883 C   0  0  0  0  0  0  0  0  0  0  0  0
   15.2802  -18.3436    7.2291 O   0  0  0  0  0  0  0  0  0  0  0  0
   14.7666  -20.3197    2.5778 C   0  0  0  0  0  0  0  0  0  0  0  0
   14.7900  -21.0065    1.3869 C   0  0  0  0  0  0  0  0  0  0  0  0
   17.5713  -18.1625    7.2286 N   0  0  0  0  0  0  0  0  0  0  0  0
   17.7482  -17.2651    8.3343 C   0  0  1  0  0  0  0  0  0  0  0  0
   19.0819  -17.4614    9.0361 C   0  0  0  0  0  0  0  0  0  0  0  0
   19.1434  -18.8631    9.5493 C   0  0  0  0  0  0  0  0  0  0  0  0
   20.4862  -19.1263   10.1780 C   0  0  0  0  0  0  0  0  0  0  0  0
   20.5001  -20.4735   10.8199 C   0  0  0  0  0  0  0  0  0  0  0  0
   21.7942  -20.7182   11.4528 N   0  0  0  0  0  0  0  0  0  0  0  0
   17.4580  -15.8648    8.0148 C   0  0  0  0  0  0  0  0  0  0  0  0
   17.4491  -15.0325    8.9566 O   0  0  0  0  0  0  0  0  0  0  0  0
   17.1914  -15.3933    6.7386 O   0  0  0  0  0  0  0  0  0  0  0  0
  2  1  1  6
  3  2  1  0
  4  3  1  0
  5  4  2  0
  6  2  1  0
  6  7  2  0
  8  4  1  0
  9 10  1  0
 10 11  2  0
 11 12  1  0
 13 12  2  0
 13 14  1  0
 15 14  1  6
 15 16  1  0
 16  6  1  0
 17 15  1  0
 17 18  2  0
 19 13  1  0
 20 10  1  0
 20 19  2  0
 21 17  1  0
 22 21  1  0
 22 28  1  0
 22 23  1  6
 24 23  1  0
 25 24  1  0
 26 25  1  0
 27 26  1  0
 28 29  2  0
 28 30  1  0
M  END
$$$$
