DYK.pdb
     RDKit          3D

 30 30  0  0  1  0  0  0  0  0999 V2000
   18.9751   -9.4274  -15.7446 N   0  0  0  0  0  0  0  0  0  0  0  0
   19.3687   -8.2776  -14.9590 C   0  0  1  0  0  0  0  0  0  0  0  0
   20.7065   -7.8175  -15.4612 C   0  0  0  0  0  0  0  0  0  0  0  0
   21.7106   -8.8431  -15.1432 C   0  0  0  0  0  0  0  0  0  0  0  0
   22.1305   -9.6126  -16.0247 O   0  0  0  0  0  0  0  0  0  0  0  0
   18.3261   -7.2554  -15.0465 C   0  0  0  0  0  0  0  0  0  0  0  0
   18.4587   -6.1442  -14.4252 O   0  0  0  0  0  0  0  0  0  0  0  0
   22.1894   -8.9511  -13.8567 O   0  0  0  0  0  0  0  0  0  0  0  0
   20.3185   -2.5750  -19.1117 O   0  0  0  0  0  0  0  0  0  0  0  0
   19.2955   -3.3969  -18.6933 C   0  0  0  0  0  0  0  0  0  0  0  0
   18.1497   -2.8437  -18.2015 C   0  0  0  0  0  0  0  0  0  0  0  0
   17.0990   -3.6562  -17.7714 C   0  0  0  0  0  0  0  0  0  0  0  0
   17.1787   -5.0256  -17.8262 C   0  0  0  0  0  0  0  0  0  0  0  0
   16.0746   -5.8844  -17.3658 C   0  0  0  0  0  0  0  0  0  0  0  0
   16.1606   -6.3472  -15.9533 C   0  0  2  0  0  0  0  0  0  0  0  0
   17.1478   -7.4063  -15.7874 N   0  0  0  0  0  0  0  0  0  0  0  0
   14.8234   -6.8872  -15.5214 C   0  0  0  0  0  0  0  0  0  0  0  0
   14.6747   -8.1247  -15.3445 O   0  0  0  0  0  0  0  0  0  0  0  0
   18.3625   -5.5595  -18.3338 C   0  0  0  0  0  0  0  0  0  0  0  0
   19.4062   -4.7732  -18.7616 C   0  0  0  0  0  0  0  0  0  0  0  0
   13.7210   -6.0340  -15.3076 N   0  0  0  0  0  0  0  0  0  0  0  0
   12.3972   -6.3743  -14.8707 C   0  0  1  0  0  0  0  0  0  0  0  0
   12.3982   -7.1788  -13.5814 C   0  0  0  0  0  0  0  0  0  0  0  0
   10.9825   -7.4823  -13.2133 C   0  0  0  0  0  0  0  0  0  0  0  0
   10.9364   -8.2420  -11.9139 C   0  0  0  0  0  0  0  0  0  0  0  0
    9.5244   -8.5675  -11.5565 C   0  0  0  0  0  0  0  0  0  0  0  0
    9.4814   -9.3280  -10.3096 N   0  0  0  0  0  0  0  0  0  0  0  0
   11.4691   -5.2405  -14.8498 C   0  0  0  0  0  0  0  0  0  0  0  0
   10.2483   -5.4717  -15.0394 O   0  0  0  0  0  0  0  0  0  0  0  0
   11.8477   -3.9243  -14.6343 O   0  0  0  0  0  0  0  0  0  0  0  0
  2  1  1  6
  3  2  1  0
  4  3  1  0
  5  4  2  0
  6  2  1  0
  6  7  2  0
  8  4  1  0
  9 10  1  0
 10 11  2  0
 11 12  1  0
 13 12  2  0
 13 14  1  0
 15 14  1  6
 15 16  1  0
 16  6  1  0
 17 15  1  0
 17 18  2  0
 19 13  1  0
 20 10  1  0
 20 19  2  0
 21 17  1  0
 22 21  1  0
 22 28  1  0
 22 23  1  1
 24 23  1  0
 25 24  1  0
 26 25  1  0
 27 26  1  0
 28 29  2  0
 28 30  1  0
M  END
$$$$
