FFH.pdb
     RDKit          3D

 33 35  0  0  1  0  0  0  0  0999 V2000
    9.4418  -17.6730   21.0066 N   0  0  0  0  0  0  0  0  0  0  0  0
    8.9394  -16.5962   21.8085 C   0  0  1  0  0  0  0  0  0  0  0  0
    7.5438  -16.1579   21.3539 C   0  0  0  0  0  0  0  0  0  0  0  0
    7.5751  -14.7161   20.9735 C   0  0  0  0  0  0  0  0  0  0  0  0
    7.8057  -14.3084   19.6752 C   0  0  0  0  0  0  0  0  0  0  0  0
    7.8358  -12.9622   19.3178 C   0  0  0  0  0  0  0  0  0  0  0  0
    7.6345  -11.9991   20.2594 C   0  0  0  0  0  0  0  0  0  0  0  0
    7.4028  -12.3710   21.5589 C   0  0  0  0  0  0  0  0  0  0  0  0
    7.3738  -13.7241   21.9115 C   0  0  0  0  0  0  0  0  0  0  0  0
    8.9799  -16.8672   23.2477 C   0  0  0  0  0  0  0  0  0  0  0  0
    9.9057  -17.6069   23.7301 O   0  0  0  0  0  0  0  0  0  0  0  0
    8.0489  -16.3627   24.1855 N   0  0  0  0  0  0  0  0  0  0  0  0
    8.3394  -16.2648   25.6123 C   0  0  1  0  0  0  0  0  0  0  0  0
    7.2719  -15.5113   26.3434 C   0  0  0  0  0  0  0  0  0  0  0  0
    7.2783  -14.0730   26.1770 C   0  0  0  0  0  0  0  0  0  0  0  0
    6.1337  -13.3410   25.8545 C   0  0  0  0  0  0  0  0  0  0  0  0
    6.2093  -11.9833   25.7145 C   0  0  0  0  0  0  0  0  0  0  0  0
    7.4152  -11.3305   25.8910 C   0  0  0  0  0  0  0  0  0  0  0  0
    8.5518  -12.0183   26.2068 C   0  0  0  0  0  0  0  0  0  0  0  0
    8.4666  -13.3913   26.3465 C   0  0  0  0  0  0  0  0  0  0  0  0
    8.6359  -17.6002   26.1876 C   0  0  0  0  0  0  0  0  0  0  0  0
    7.7477  -18.4362   26.4814 O   0  0  0  0  0  0  0  0  0  0  0  0
   10.0045  -18.0259   26.4497 N   0  0  0  0  0  0  0  0  0  0  0  0
   10.2682  -19.2478   27.1431 C   0  0  1  0  0  0  0  0  0  0  0  0
   11.4093  -19.9771   26.5235 C   0  0  0  0  0  0  0  0  0  0  0  0
   11.2694  -20.2514   25.0876 C   0  0  0  0  0  0  0  0  0  0  0  0
   10.1852  -20.4655   24.2923 C   0  0  0  0  0  0  0  0  0  0  0  0
   10.6189  -20.6377   23.0145 N   0  0  0  0  0  0  0  0  0  0  0  0
   11.9434  -20.5301   23.0274 C   0  0  0  0  0  0  0  0  0  0  0  0
   12.3800  -20.2954   24.2658 N   0  0  0  0  0  0  0  0  0  0  0  0
   10.4497  -19.0639   28.6188 C   0  0  0  0  0  0  0  0  0  0  0  0
   10.5700  -20.1138   29.4980 O   0  0  0  0  0  0  0  0  0  0  0  0
   10.4908  -17.8814   29.0387 O   0  0  0  0  0  0  0  0  0  0  0  0
  2  1  1  6
  3  4  1  0
  3  2  1  0
  4  5  2  0
  5  6  1  0
  7  6  2  0
  8  7  1  0
  9  8  2  0
  9  4  1  0
 10  2  1  0
 10 11  2  0
 12 10  1  0
 13 12  1  0
 13 14  1  1
 15 14  1  0
 15 20  1  0
 16 15  2  0
 17 16  1  0
 17 18  2  0
 18 19  1  0
 19 20  2  0
 21 13  1  0
 22 21  2  0
 23 21  1  0
 24 23  1  0
 24 25  1  6
 25 26  1  0
 26 30  1  0
 26 27  2  0
 27 28  1  0
 28 29  1  0
 30 29  2  0
 31 24  1  0
 32 31  1  0
 33 31  2  0
M  END
$$$$
