FFH.pdb
     RDKit          3D

 33 35  0  0  1  0  0  0  0  0999 V2000
    9.6682  -16.7007   19.2715 N   0  0  0  0  0  0  0  0  0  0  0  0
    8.4683  -16.7542   20.0540 C   0  0  1  0  0  0  0  0  0  0  0  0
    7.8615  -18.1608   20.0607 C   0  0  0  0  0  0  0  0  0  0  0  0
    6.6134  -18.1596   20.8771 C   0  0  0  0  0  0  0  0  0  0  0  0
    6.6022  -18.5717   22.1943 C   0  0  0  0  0  0  0  0  0  0  0  0
    5.4374  -18.5718   22.9587 C   0  0  0  0  0  0  0  0  0  0  0  0
    4.2605  -18.1572   22.4132 C   0  0  0  0  0  0  0  0  0  0  0  0
    4.2376  -17.7415   21.1066 C   0  0  0  0  0  0  0  0  0  0  0  0
    5.4103  -17.7438   20.3443 C   0  0  0  0  0  0  0  0  0  0  0  0
    8.6284  -16.2271   21.4116 C   0  0  0  0  0  0  0  0  0  0  0  0
    9.6558  -16.5496   22.1023 O   0  0  0  0  0  0  0  0  0  0  0  0
    7.7105  -15.3597   22.0487 N   0  0  0  0  0  0  0  0  0  0  0  0
    7.9495  -14.7905   23.3711 C   0  0  1  0  0  0  0  0  0  0  0  0
    7.0764  -13.6014   23.6271 C   0  0  0  0  0  0  0  0  0  0  0  0
    7.1110  -13.0619   24.9703 C   0  0  0  0  0  0  0  0  0  0  0  0
    6.2436  -13.4831   25.9803 C   0  0  0  0  0  0  0  0  0  0  0  0
    6.3321  -12.9333   27.2287 C   0  0  0  0  0  0  0  0  0  0  0  0
    7.2777  -11.9609   27.4966 C   0  0  0  0  0  0  0  0  0  0  0  0
    8.1400  -11.5281   26.5302 C   0  0  0  0  0  0  0  0  0  0  0  0
    8.0437  -12.0894   25.2703 C   0  0  0  0  0  0  0  0  0  0  0  0
    7.8686  -15.8348   24.4223 C   0  0  0  0  0  0  0  0  0  0  0  0
    6.9989  -16.7391   24.4294 O   0  0  0  0  0  0  0  0  0  0  0  0
    8.8148  -15.8706   25.5297 N   0  0  0  0  0  0  0  0  0  0  0  0
    9.3487  -17.1130   25.9931 C   0  0  1  0  0  0  0  0  0  0  0  0
    9.9935  -17.8645   24.8806 C   0  0  0  0  0  0  0  0  0  0  0  0
   10.4740  -19.2074   25.2303 C   0  0  0  0  0  0  0  0  0  0  0  0
   10.4039  -19.9416   26.3749 C   0  0  0  0  0  0  0  0  0  0  0  0
   10.9844  -21.1501   26.1445 N   0  0  0  0  0  0  0  0  0  0  0  0
   11.4012  -21.1557   24.8826 C   0  0  0  0  0  0  0  0  0  0  0  0
   11.1115  -19.9959   24.2907 N   0  0  0  0  0  0  0  0  0  0  0  0
   10.2574  -16.9630   27.1748 C   0  0  0  0  0  0  0  0  0  0  0  0
   10.3695  -17.9128   28.1621 O   0  0  0  0  0  0  0  0  0  0  0  0
   10.9354  -15.9080   27.2342 O   0  0  0  0  0  0  0  0  0  0  0  0
  2  1  1  1
  3  4  1  0
  3  2  1  0
  4  5  2  0
  5  6  1  0
  7  6  2  0
  8  7  1  0
  9  8  2  0
  9  4  1  0
 10  2  1  0
 10 11  2  0
 12 10  1  0
 13 12  1  0
 13 14  1  1
 15 14  1  0
 15 20  1  0
 16 15  2  0
 17 16  1  0
 17 18  2  0
 18 19  1  0
 19 20  2  0
 21 13  1  0
 22 21  2  0
 23 21  1  0
 24 23  1  0
 24 25  1  6
 25 26  1  0
 26 30  1  0
 26 27  2  0
 27 28  1  0
 28 29  1  0
 30 29  2  0
 31 24  1  0
 32 31  1  0
 33 31  2  0
M  END
$$$$
