FFH.pdb
     RDKit          3D

 33 35  0  0  1  0  0  0  0  0999 V2000
   10.2487  -17.9186   20.7311 N   0  0  0  0  0  0  0  0  0  0  0  0
    9.4899  -16.7261   20.9701 C   0  0  1  0  0  0  0  0  0  0  0  0
    8.2298  -16.6756   20.1005 C   0  0  0  0  0  0  0  0  0  0  0  0
    7.8832  -15.2543   19.8100 C   0  0  0  0  0  0  0  0  0  0  0  0
    6.5945  -14.7766   19.9365 C   0  0  0  0  0  0  0  0  0  0  0  0
    6.2685  -13.4495   19.6654 C   0  0  0  0  0  0  0  0  0  0  0  0
    7.2324  -12.5765   19.2615 C   0  0  0  0  0  0  0  0  0  0  0  0
    8.5231  -13.0196   19.1258 C   0  0  0  0  0  0  0  0  0  0  0  0
    8.8442  -14.3531   19.3995 C   0  0  0  0  0  0  0  0  0  0  0  0
    9.1813  -16.4999   22.3844 C   0  0  0  0  0  0  0  0  0  0  0  0
    9.5926  -17.3306   23.2661 O   0  0  0  0  0  0  0  0  0  0  0  0
    8.4399  -15.4009   22.8778 N   0  0  0  0  0  0  0  0  0  0  0  0
    8.3675  -15.0709   24.2975 C   0  0  1  0  0  0  0  0  0  0  0  0
    7.4988  -13.8766   24.5438 C   0  0  0  0  0  0  0  0  0  0  0  0
    7.3552  -13.4661   25.9248 C   0  0  0  0  0  0  0  0  0  0  0  0
    8.4393  -13.3394   26.7959 C   0  0  0  0  0  0  0  0  0  0  0  0
    8.2334  -12.9443   28.0882 C   0  0  0  0  0  0  0  0  0  0  0  0
    6.9553  -12.6691   28.5377 C   0  0  0  0  0  0  0  0  0  0  0  0
    5.8749  -12.7836   27.7103 C   0  0  0  0  0  0  0  0  0  0  0  0
    6.0920  -13.1838   26.4047 C   0  0  0  0  0  0  0  0  0  0  0  0
    7.9971  -16.2615   25.1022 C   0  0  0  0  0  0  0  0  0  0  0  0
    6.8108  -16.6239   25.2903 O   0  0  0  0  0  0  0  0  0  0  0  0
    9.0117  -17.0956   25.7331 N   0  0  0  0  0  0  0  0  0  0  0  0
    8.6482  -18.0704   26.7134 C   0  0  1  0  0  0  0  0  0  0  0  0
    8.6557  -19.4411   26.1308 C   0  0  0  0  0  0  0  0  0  0  0  0
    7.6426  -19.6854   25.0962 C   0  0  0  0  0  0  0  0  0  0  0  0
    6.6882  -18.8920   24.5361 C   0  0  0  0  0  0  0  0  0  0  0  0
    6.0338  -19.6142   23.5871 N   0  0  0  0  0  0  0  0  0  0  0  0
    6.5779  -20.8265   23.5663 C   0  0  0  0  0  0  0  0  0  0  0  0
    7.5584  -20.9131   24.4665 N   0  0  0  0  0  0  0  0  0  0  0  0
    9.4661  -17.9844   27.9656 C   0  0  0  0  0  0  0  0  0  0  0  0
    9.1835  -18.7088   29.0992 O   0  0  0  0  0  0  0  0  0  0  0  0
   10.4499  -17.2048   27.9439 O   0  0  0  0  0  0  0  0  0  0  0  0
  2  1  1  1
  3  4  1  0
  3  2  1  0
  4  5  2  0
  5  6  1  0
  7  6  2  0
  8  7  1  0
  9  8  2  0
  9  4  1  0
 10  2  1  0
 10 11  2  0
 12 10  1  0
 13 12  1  0
 13 14  1  6
 15 14  1  0
 15 20  1  0
 16 15  2  0
 17 16  1  0
 17 18  2  0
 18 19  1  0
 19 20  2  0
 21 13  1  0
 22 21  2  0
 23 21  1  0
 24 23  1  0
 24 25  1  6
 25 26  1  0
 26 30  1  0
 26 27  2  0
 27 28  1  0
 28 29  1  0
 30 29  2  0
 31 24  1  0
 32 31  1  0
 33 31  2  0
M  END
$$$$
