FFH.pdb
     RDKit          3D

 33 35  0  0  1  0  0  0  0  0999 V2000
    6.6912  -18.7459   20.7566 N   0  0  0  0  0  0  0  0  0  0  0  0
    5.9829  -17.8122   21.5821 C   0  0  1  0  0  0  0  0  0  0  0  0
    4.8295  -18.4851   22.3330 C   0  0  0  0  0  0  0  0  0  0  0  0
    3.8588  -19.0483   21.3507 C   0  0  0  0  0  0  0  0  0  0  0  0
    3.6167  -20.4040   21.2588 C   0  0  0  0  0  0  0  0  0  0  0  0
    2.7106  -20.9323   20.3418 C   0  0  0  0  0  0  0  0  0  0  0  0
    2.0300  -20.1073   19.4988 C   0  0  0  0  0  0  0  0  0  0  0  0
    2.2477  -18.7549   19.5646 C   0  0  0  0  0  0  0  0  0  0  0  0
    3.1586  -18.2305   20.4873 C   0  0  0  0  0  0  0  0  0  0  0  0
    6.8495  -17.0538   22.4879 C   0  0  0  0  0  0  0  0  0  0  0  0
    7.9918  -17.5253   22.8188 O   0  0  0  0  0  0  0  0  0  0  0  0
    6.5199  -15.7981   23.0494 N   0  0  0  0  0  0  0  0  0  0  0  0
    7.2696  -15.2049   24.1519 C   0  0  1  0  0  0  0  0  0  0  0  0
    6.9121  -13.7647   24.3519 C   0  0  0  0  0  0  0  0  0  0  0  0
    7.3169  -13.1758   25.6111 C   0  0  0  0  0  0  0  0  0  0  0  0
    6.4039  -12.7308   26.5695 C   0  0  0  0  0  0  0  0  0  0  0  0
    6.8543  -12.1863   27.7396 C   0  0  0  0  0  0  0  0  0  0  0  0
    8.2113  -12.0739   27.9792 C   0  0  0  0  0  0  0  0  0  0  0  0
    9.1288  -12.4998   27.0619 C   0  0  0  0  0  0  0  0  0  0  0  0
    8.6648  -13.0493   25.8810 C   0  0  0  0  0  0  0  0  0  0  0  0
    7.1530  -16.0306   25.3795 C   0  0  0  0  0  0  0  0  0  0  0  0
    6.0553  -16.4177   25.8476 O   0  0  0  0  0  0  0  0  0  0  0  0
    8.3319  -16.4478   26.1272 N   0  0  0  0  0  0  0  0  0  0  0  0
    8.3391  -17.6818   26.8487 C   0  0  1  0  0  0  0  0  0  0  0  0
    7.9137  -18.8118   25.9768 C   0  0  0  0  0  0  0  0  0  0  0  0
    7.9129  -20.1315   26.6210 C   0  0  0  0  0  0  0  0  0  0  0  0
    8.2062  -20.5387   27.8868 C   0  0  0  0  0  0  0  0  0  0  0  0
    8.0071  -21.8823   27.9612 N   0  0  0  0  0  0  0  0  0  0  0  0
    7.5989  -22.2896   26.7639 C   0  0  0  0  0  0  0  0  0  0  0  0
    7.5277  -21.2590   25.9201 N   0  0  0  0  0  0  0  0  0  0  0  0
    9.6411  -17.9580   27.5364 C   0  0  0  0  0  0  0  0  0  0  0  0
   10.7196  -17.1080   27.4734 O   0  0  0  0  0  0  0  0  0  0  0  0
    9.7161  -19.0248   28.1940 O   0  0  0  0  0  0  0  0  0  0  0  0
  2  1  1  1
  3  4  1  0
  3  2  1  0
  4  5  2  0
  5  6  1  0
  7  6  2  0
  8  7  1  0
  9  8  2  0
  9  4  1  0
 10  2  1  0
 10 11  2  0
 12 10  1  0
 13 12  1  0
 13 14  1  1
 15 14  1  0
 15 20  1  0
 16 15  2  0
 17 16  1  0
 17 18  2  0
 18 19  1  0
 19 20  2  0
 21 13  1  0
 22 21  2  0
 23 21  1  0
 24 23  1  0
 24 25  1  6
 25 26  1  0
 26 30  1  0
 26 27  2  0
 27 28  1  0
 28 29  1  0
 30 29  2  0
 31 24  1  0
 32 31  1  0
 33 31  2  0
M  END
$$$$
