FFH.pdb
     RDKit          3D

 33 35  0  0  1  0  0  0  0  0999 V2000
    7.5170  -17.4803   21.0705 N   0  0  0  0  0  0  0  0  0  0  0  0
    8.8360  -17.1396   21.5169 C   0  0  1  0  0  0  0  0  0  0  0  0
    9.5276  -16.1750   20.5485 C   0  0  0  0  0  0  0  0  0  0  0  0
    8.8978  -14.8272   20.6555 C   0  0  0  0  0  0  0  0  0  0  0  0
    7.5720  -14.6136   20.3370 C   0  0  0  0  0  0  0  0  0  0  0  0
    6.9818  -13.3554   20.4358 C   0  0  0  0  0  0  0  0  0  0  0  0
    7.7137  -12.2870   20.8570 C   0  0  0  0  0  0  0  0  0  0  0  0
    9.0341  -12.4657   21.1812 C   0  0  0  0  0  0  0  0  0  0  0  0
    9.6210  -13.7312   21.0799 C   0  0  0  0  0  0  0  0  0  0  0  0
    8.8803  -16.6470   22.8960 C   0  0  0  0  0  0  0  0  0  0  0  0
    9.9948  -16.2778   23.4043 O   0  0  0  0  0  0  0  0  0  0  0  0
    7.7549  -16.5401   23.7462 N   0  0  0  0  0  0  0  0  0  0  0  0
    7.8620  -16.1805   25.1564 C   0  0  1  0  0  0  0  0  0  0  0  0
    6.6864  -15.3727   25.6118 C   0  0  0  0  0  0  0  0  0  0  0  0
    6.9369  -13.9697   25.8675 C   0  0  0  0  0  0  0  0  0  0  0  0
    8.1630  -13.4899   26.3328 C   0  0  0  0  0  0  0  0  0  0  0  0
    8.3332  -12.1513   26.5511 C   0  0  0  0  0  0  0  0  0  0  0  0
    7.2958  -11.2689   26.3132 C   0  0  0  0  0  0  0  0  0  0  0  0
    6.0852  -11.7072   25.8580 C   0  0  0  0  0  0  0  0  0  0  0  0
    5.9215  -13.0627   25.6398 C   0  0  0  0  0  0  0  0  0  0  0  0
    8.1304  -17.3773   25.9918 C   0  0  0  0  0  0  0  0  0  0  0  0
    7.2654  -18.2511   26.2414 O   0  0  0  0  0  0  0  0  0  0  0  0
    9.4417  -17.6110   26.5823 N   0  0  0  0  0  0  0  0  0  0  0  0
    9.6965  -18.7898   27.3498 C   0  0  1  0  0  0  0  0  0  0  0  0
    9.9470  -19.9598   26.4630 C   0  0  0  0  0  0  0  0  0  0  0  0
   10.9401  -19.7393   25.4039 C   0  0  0  0  0  0  0  0  0  0  0  0
   11.6532  -18.6435   25.0237 C   0  0  0  0  0  0  0  0  0  0  0  0
   12.4686  -18.9992   23.9945 N   0  0  0  0  0  0  0  0  0  0  0  0
   12.2590  -20.2885   23.7500 C   0  0  0  0  0  0  0  0  0  0  0  0
   11.3388  -20.7775   24.5828 N   0  0  0  0  0  0  0  0  0  0  0  0
   10.7806  -18.6104   28.3681 C   0  0  0  0  0  0  0  0  0  0  0  0
   11.1649  -19.6018   29.2394 O   0  0  0  0  0  0  0  0  0  0  0  0
   11.3450  -17.4894   28.3991 O   0  0  0  0  0  0  0  0  0  0  0  0
  2  1  1  6
  3  4  1  0
  3  2  1  0
  4  5  2  0
  5  6  1  0
  7  6  2  0
  8  7  1  0
  9  8  2  0
  9  4  1  0
 10  2  1  0
 10 11  2  0
 12 10  1  0
 13 12  1  0
 13 14  1  1
 15 14  1  0
 15 20  1  0
 16 15  2  0
 17 16  1  0
 17 18  2  0
 18 19  1  0
 19 20  2  0
 21 13  1  0
 22 21  2  0
 23 21  1  0
 24 23  1  0
 24 25  1  6
 25 26  1  0
 26 30  1  0
 26 27  2  0
 27 28  1  0
 28 29  1  0
 30 29  2  0
 31 24  1  0
 32 31  1  0
 33 31  2  0
M  END
$$$$
