FFH.pdb
     RDKit          3D

 33 35  0  0  1  0  0  0  0  0999 V2000
   10.0246  -17.7578   20.2748 N   0  0  0  0  0  0  0  0  0  0  0  0
    9.2422  -16.5952   20.5765 C   0  0  1  0  0  0  0  0  0  0  0  0
    7.9150  -16.5943   19.8114 C   0  0  0  0  0  0  0  0  0  0  0  0
    7.7011  -15.2558   19.1892 C   0  0  0  0  0  0  0  0  0  0  0  0
    8.0334  -15.0006   17.8741 C   0  0  0  0  0  0  0  0  0  0  0  0
    7.8348  -13.7511   17.2909 C   0  0  0  0  0  0  0  0  0  0  0  0
    7.2980  -12.7332   18.0191 C   0  0  0  0  0  0  0  0  0  0  0  0
    6.9569  -12.9541   19.3289 C   0  0  0  0  0  0  0  0  0  0  0  0
    7.1587  -14.2107   19.9087 C   0  0  0  0  0  0  0  0  0  0  0  0
    9.0402  -16.3793   22.0115 C   0  0  0  0  0  0  0  0  0  0  0  0
    9.6355  -17.1315   22.8580 O   0  0  0  0  0  0  0  0  0  0  0  0
    8.2127  -15.3733   22.5627 N   0  0  0  0  0  0  0  0  0  0  0  0
    8.3380  -14.9163   23.9429 C   0  0  1  0  0  0  0  0  0  0  0  0
    7.4896  -13.7108   24.2054 C   0  0  0  0  0  0  0  0  0  0  0  0
    7.4242  -13.2639   25.5810 C   0  0  0  0  0  0  0  0  0  0  0  0
    8.5099  -12.6893   26.2451 C   0  0  0  0  0  0  0  0  0  0  0  0
    8.3790  -12.2863   27.5447 C   0  0  0  0  0  0  0  0  0  0  0  0
    7.1752  -12.4451   28.2058 C   0  0  0  0  0  0  0  0  0  0  0  0
    6.0953  -13.0034   27.5837 C   0  0  0  0  0  0  0  0  0  0  0  0
    6.2362  -13.4083   26.2692 C   0  0  0  0  0  0  0  0  0  0  0  0
    8.1111  -16.0315   24.8953 C   0  0  0  0  0  0  0  0  0  0  0  0
    7.0688  -16.7298   24.9026 O   0  0  0  0  0  0  0  0  0  0  0  0
    9.1071  -16.3869   25.8976 N   0  0  0  0  0  0  0  0  0  0  0  0
    9.0074  -17.6157   26.6213 C   0  0  1  0  0  0  0  0  0  0  0  0
    9.3315  -18.7772   25.7474 C   0  0  0  0  0  0  0  0  0  0  0  0
    9.3204  -20.0844   26.4165 C   0  0  0  0  0  0  0  0  0  0  0  0
   10.2030  -20.6991   27.2514 C   0  0  0  0  0  0  0  0  0  0  0  0
    9.6821  -21.9022   27.6145 N   0  0  0  0  0  0  0  0  0  0  0  0
    8.5027  -22.0211   27.0138 C   0  0  0  0  0  0  0  0  0  0  0  0
    8.2437  -20.9400   26.2767 N   0  0  0  0  0  0  0  0  0  0  0  0
    9.8056  -17.6225   27.8891 C   0  0  0  0  0  0  0  0  0  0  0  0
    9.6873  -18.6018   28.8466 O   0  0  0  0  0  0  0  0  0  0  0  0
   10.6125  -16.6747   28.0523 O   0  0  0  0  0  0  0  0  0  0  0  0
  2  1  1  1
  3  4  1  0
  3  2  1  0
  4  5  2  0
  5  6  1  0
  7  6  2  0
  8  7  1  0
  9  8  2  0
  9  4  1  0
 10  2  1  0
 10 11  2  0
 12 10  1  0
 13 12  1  0
 13 14  1  1
 15 14  1  0
 15 20  1  0
 16 15  2  0
 17 16  1  0
 17 18  2  0
 18 19  1  0
 19 20  2  0
 21 13  1  0
 22 21  2  0
 23 21  1  0
 24 23  1  0
 24 25  1  6
 25 26  1  0
 26 30  1  0
 26 27  2  0
 27 28  1  0
 28 29  1  0
 30 29  2  0
 31 24  1  0
 32 31  1  0
 33 31  2  0
M  END
$$$$
