NVG.pdb
     RDKit          3D

 20 19  0  0  1  0  0  0  0  0999 V2000
   22.0383  -22.0832  -11.3780 N   0  0  0  0  0  0  0  0  0  0  0  0
   22.1984  -20.7131  -11.0002 C   0  0  0  0  0  0  0  0  0  0  0  0
   21.1960  -20.0579  -10.6215 O   0  0  0  0  0  0  0  0  0  0  0  0
   23.5160  -20.0240  -11.0372 C   0  0  0  0  0  0  0  0  0  0  0  0
   24.5297  -21.0254  -11.5696 C   0  0  2  0  0  0  0  0  0  0  0  0
   25.1003  -21.7285  -10.4298 N   0  0  0  0  0  0  0  0  0  0  0  0
   25.5937  -20.3319  -12.3414 C   0  0  0  0  0  0  0  0  0  0  0  0
   26.5205  -19.7779  -11.7138 O   0  0  0  0  0  0  0  0  0  0  0  0
   28.5796  -19.8392  -15.9621 C   0  0  0  0  0  0  0  0  0  0  0  0
   27.4450  -20.6216  -15.3394 C   0  0  1  0  0  0  0  0  0  0  0  0
   28.0202  -21.8053  -14.6406 C   0  0  0  0  0  0  0  0  0  0  0  0
   26.7062  -19.6838  -14.4216 C   0  0  2  0  0  0  0  0  0  0  0  0
   25.5986  -20.2743  -13.7554 N   0  0  0  0  0  0  0  0  0  0  0  0
   26.1931  -18.5446  -15.2562 C   0  0  0  0  0  0  0  0  0  0  0  0
   25.2563  -18.7385  -16.0558 O   0  0  0  0  0  0  0  0  0  0  0  0
   26.7500  -17.2559  -15.1546 N   0  0  0  0  0  0  0  0  0  0  0  0
   26.1419  -16.1592  -15.8867 C   0  0  0  0  0  0  0  0  0  0  0  0
   26.6710  -16.1342  -17.2701 C   0  0  0  0  0  0  0  0  0  0  0  0
   26.0976  -15.3244  -18.2177 O   0  0  0  0  0  0  0  0  0  0  0  0
   27.6537  -16.8586  -17.5855 O   0  0  0  0  0  0  0  0  0  0  0  0
  2  3  2  0
  2  1  1  0
  4  2  1  0
  5  4  1  0
  5  7  1  0
  5  6  1  1
  7  8  2  0
 10 12  1  0
 10  9  1  1
 11 10  1  0
 12 13  1  6
 13  7  1  0
 14 16  1  0
 14 12  1  0
 15 14  2  0
 17 18  1  0
 17 16  1  0
 18 19  1  0
 20 18  2  0
M  END
$$$$
