NVG.pdb
     RDKit          3D

 20 19  0  0  1  0  0  0  0  0999 V2000
   19.6961  -14.3397  -16.2390 N   0  0  0  0  0  0  0  0  0  0  0  0
   20.1373  -13.4042  -17.2267 C   0  0  0  0  0  0  0  0  0  0  0  0
   20.9281  -13.7848  -18.1251 O   0  0  0  0  0  0  0  0  0  0  0  0
   19.6943  -11.9842  -17.2350 C   0  0  0  0  0  0  0  0  0  0  0  0
   18.7990  -11.7880  -16.0210 C   0  0  2  0  0  0  0  0  0  0  0  0
   17.4819  -12.3126  -16.3509 N   0  0  0  0  0  0  0  0  0  0  0  0
   18.7129  -10.3482  -15.6626 C   0  0  0  0  0  0  0  0  0  0  0  0
   18.2470   -9.5513  -16.5038 O   0  0  0  0  0  0  0  0  0  0  0  0
   16.6040   -8.5164  -13.6695 C   0  0  0  0  0  0  0  0  0  0  0  0
   17.9504   -8.1468  -13.0882 C   0  0  1  0  0  0  0  0  0  0  0  0
   18.1371   -8.9053  -11.8193 C   0  0  0  0  0  0  0  0  0  0  0  0
   18.9892   -8.4595  -14.1324 C   0  0  2  0  0  0  0  0  0  0  0  0
   19.1367   -9.8454  -14.4094 N   0  0  0  0  0  0  0  0  0  0  0  0
   20.3072   -7.9435  -13.6283 C   0  0  0  0  0  0  0  0  0  0  0  0
   21.1159   -8.7305  -13.0979 O   0  0  0  0  0  0  0  0  0  0  0  0
   20.6511   -6.5834  -13.7423 N   0  0  0  0  0  0  0  0  0  0  0  0
   21.9526   -6.1380  -13.2772 C   0  0  0  0  0  0  0  0  0  0  0  0
   22.1124   -4.6933  -13.5631 C   0  0  0  0  0  0  0  0  0  0  0  0
   23.1948   -4.0052  -13.0757 O   0  0  0  0  0  0  0  0  0  0  0  0
   21.2528   -4.0864  -14.2577 O   0  0  0  0  0  0  0  0  0  0  0  0
  2  3  2  0
  2  1  1  0
  4  2  1  0
  5  4  1  0
  5  7  1  0
  5  6  1  6
  7  8  2  0
 10 12  1  0
 10  9  1  6
 11 10  1  0
 12 13  1  1
 13  7  1  0
 14 16  1  0
 14 12  1  0
 15 14  2  0
 17 18  1  0
 17 16  1  0
 18 19  1  0
 20 18  2  0
M  END
$$$$
