NVG.pdb
     RDKit          3D

 20 19  0  0  1  0  0  0  0  0999 V2000
   15.7825  -12.0187  -17.7753 N   0  0  0  0  0  0  0  0  0  0  0  0
   15.4414  -11.0088  -16.8217 C   0  0  0  0  0  0  0  0  0  0  0  0
   14.2953  -10.4960  -16.8517 O   0  0  0  0  0  0  0  0  0  0  0  0
   16.3969  -10.5352  -15.7847 C   0  0  0  0  0  0  0  0  0  0  0  0
   17.6776  -11.3378  -15.9567 C   0  0  2  0  0  0  0  0  0  0  0  0
   17.4460  -12.6665  -15.4092 N   0  0  0  0  0  0  0  0  0  0  0  0
   18.8082  -10.6741  -15.2566 C   0  0  0  0  0  0  0  0  0  0  0  0
   18.8798  -10.7726  -14.0137 O   0  0  0  0  0  0  0  0  0  0  0  0
   23.3137   -9.2355  -14.8746 C   0  0  0  0  0  0  0  0  0  0  0  0
   22.2529   -9.8681  -15.7475 C   0  0  1  0  0  0  0  0  0  0  0  0
   22.4475  -11.3452  -15.7253 C   0  0  0  0  0  0  0  0  0  0  0  0
   20.9149   -9.4313  -15.2125 C   0  0  2  0  0  0  0  0  0  0  0  0
   19.8041   -9.9370  -15.9403 N   0  0  0  0  0  0  0  0  0  0  0  0
   20.8692   -7.9309  -15.2778 C   0  0  0  0  0  0  0  0  0  0  0  0
   20.8938   -7.3606  -16.3863 O   0  0  0  0  0  0  0  0  0  0  0  0
   20.7990   -7.1505  -14.1086 N   0  0  0  0  0  0  0  0  0  0  0  0
   20.7909   -5.7027  -14.2198 C   0  0  0  0  0  0  0  0  0  0  0  0
   21.8554   -5.1345  -13.3604 C   0  0  0  0  0  0  0  0  0  0  0  0
   22.1715   -3.8017  -13.4374 O   0  0  0  0  0  0  0  0  0  0  0  0
   22.4784   -5.8743  -12.5515 O   0  0  0  0  0  0  0  0  0  0  0  0
  2  3  2  0
  2  1  1  0
  4  2  1  0
  5  4  1  0
  5  7  1  0
  5  6  1  1
  7  8  2  0
 10 12  1  0
 10  9  1  1
 11 10  1  0
 12 13  1  6
 13  7  1  0
 14 16  1  0
 14 12  1  0
 15 14  2  0
 17 18  1  0
 17 16  1  0
 18 19  1  0
 20 18  2  0
M  END
$$$$
