NVG.pdb
     RDKit          3D

 20 19  0  0  1  0  0  0  0  0999 V2000
   25.4597  -18.9371  -16.8688 N   0  0  0  0  0  0  0  0  0  0  0  0
   24.2056  -19.1919  -16.2302 C   0  0  0  0  0  0  0  0  0  0  0  0
   23.2515  -18.3945  -16.4072 O   0  0  0  0  0  0  0  0  0  0  0  0
   23.9810  -20.3742  -15.3559 C   0  0  0  0  0  0  0  0  0  0  0  0
   25.0291  -20.3216  -14.2547 C   0  0  2  0  0  0  0  0  0  0  0  0
   26.2252  -20.9890  -14.7476 N   0  0  0  0  0  0  0  0  0  0  0  0
   24.5284  -20.9883  -13.0245 C   0  0  0  0  0  0  0  0  0  0  0  0
   24.3600  -22.2257  -13.0436 O   0  0  0  0  0  0  0  0  0  0  0  0
   23.9154  -21.3140   -8.2622 C   0  0  0  0  0  0  0  0  0  0  0  0
   24.3464  -20.3949   -9.3832 C   0  0  1  0  0  0  0  0  0  0  0  0
   25.8275  -20.2439   -9.3222 C   0  0  0  0  0  0  0  0  0  0  0  0
   23.8580  -21.0020  -10.6718 C   0  0  2  0  0  0  0  0  0  0  0  0
   24.2357  -20.2791  -11.8353 N   0  0  0  0  0  0  0  0  0  0  0  0
   22.3570  -21.0390  -10.6143 C   0  0  0  0  0  0  0  0  0  0  0  0
   21.7089  -19.9801  -10.7296 O   0  0  0  0  0  0  0  0  0  0  0  0
   21.6625  -22.2497  -10.4321 N   0  0  0  0  0  0  0  0  0  0  0  0
   20.2106  -22.2459  -10.4518 C   0  0  0  0  0  0  0  0  0  0  0  0
   19.6968  -22.3351   -9.0653 C   0  0  0  0  0  0  0  0  0  0  0  0
   18.3497  -22.2527   -8.8180 O   0  0  0  0  0  0  0  0  0  0  0  0
   20.4962  -22.4877   -8.1023 O   0  0  0  0  0  0  0  0  0  0  0  0
  2  3  2  0
  2  1  1  0
  4  2  1  0
  5  4  1  0
  5  7  1  0
  5  6  1  6
  7  8  2  0
 10 12  1  0
 10  9  1  1
 11 10  1  0
 12 13  1  6
 13  7  1  0
 14 16  1  0
 14 12  1  0
 15 14  2  0
 17 18  1  0
 17 16  1  0
 18 19  1  0
 20 18  2  0
M  END
$$$$
