NVG.pdb
     RDKit          3D

 20 19  0  0  1  0  0  0  0  0999 V2000
   28.8447  -17.8362  -16.2411 N   0  0  0  0  0  0  0  0  0  0  0  0
   27.4427  -17.6217  -16.4249 C   0  0  0  0  0  0  0  0  0  0  0  0
   27.0520  -16.5981  -17.0390 O   0  0  0  0  0  0  0  0  0  0  0  0
   26.4168  -18.5698  -15.9140 C   0  0  0  0  0  0  0  0  0  0  0  0
   27.1552  -19.6608  -15.1535 C   0  0  2  0  0  0  0  0  0  0  0  0
   27.8979  -20.4531  -16.1228 N   0  0  0  0  0  0  0  0  0  0  0  0
   26.1975  -20.5154  -14.4044 C   0  0  0  0  0  0  0  0  0  0  0  0
   25.7061  -21.5076  -14.9821 O   0  0  0  0  0  0  0  0  0  0  0  0
   26.5790  -21.8916  -10.8990 C   0  0  0  0  0  0  0  0  0  0  0  0
   25.1611  -21.3719  -10.9816 C   0  0  1  0  0  0  0  0  0  0  0  0
   25.0530  -20.1652  -10.1142 C   0  0  0  0  0  0  0  0  0  0  0  0
   24.8702  -21.0954  -12.4329 C   0  0  2  0  0  0  0  0  0  0  0  0
   25.8212  -20.2505  -13.0661 N   0  0  0  0  0  0  0  0  0  0  0  0
   23.5291  -20.4217  -12.5053 C   0  0  0  0  0  0  0  0  0  0  0  0
   23.3763  -19.2948  -11.9939 O   0  0  0  0  0  0  0  0  0  0  0  0
   22.4352  -21.0382  -13.1413 N   0  0  0  0  0  0  0  0  0  0  0  0
   21.1528  -20.3576  -13.1681 C   0  0  0  0  0  0  0  0  0  0  0  0
   20.0924  -21.2818  -12.7033 C   0  0  0  0  0  0  0  0  0  0  0  0
   18.8280  -20.8146  -12.4477 O   0  0  0  0  0  0  0  0  0  0  0  0
   20.3465  -22.5060  -12.5396 O   0  0  0  0  0  0  0  0  0  0  0  0
  2  3  2  0
  2  1  1  0
  4  2  1  0
  5  4  1  0
  5  7  1  0
  5  6  1  6
  7  8  2  0
 10 12  1  0
 10  9  1  6
 11 10  1  0
 12 13  1  1
 13  7  1  0
 14 16  1  0
 14 12  1  0
 15 14  2  0
 17 18  1  0
 17 16  1  0
 18 19  1  0
 20 18  2  0
M  END
$$$$
