NVG.pdb
     RDKit          3D

 20 19  0  0  1  0  0  0  0  0999 V2000
   25.4224  -37.7563  -13.4743 N   0  0  0  0  0  0  0  0  0  0  0  0
   25.4383  -36.7419  -14.4824 C   0  0  0  0  0  0  0  0  0  0  0  0
   25.0871  -37.0319  -15.6529 O   0  0  0  0  0  0  0  0  0  0  0  0
   25.8577  -35.3430  -14.2001 C   0  0  0  0  0  0  0  0  0  0  0  0
   24.6079  -34.5735  -13.8004 C   0  0  2  0  0  0  0  0  0  0  0  0
   24.1394  -33.8476  -14.9720 N   0  0  0  0  0  0  0  0  0  0  0  0
   24.9062  -33.6335  -12.6885 C   0  0  0  0  0  0  0  0  0  0  0  0
   25.3137  -32.4871  -12.9703 O   0  0  0  0  0  0  0  0  0  0  0  0
   24.0206  -31.6715   -8.4879 C   0  0  0  0  0  0  0  0  0  0  0  0
   23.6562  -32.6853   -9.5494 C   0  0  1  0  0  0  0  0  0  0  0  0
   22.5595  -32.1174  -10.3830 C   0  0  0  0  0  0  0  0  0  0  0  0
   24.9087  -32.9854  -10.3296 C   0  0  2  0  0  0  0  0  0  0  0  0
   24.7474  -33.9847  -11.3269 N   0  0  0  0  0  0  0  0  0  0  0  0
   25.9455  -33.4656   -9.3539 C   0  0  0  0  0  0  0  0  0  0  0  0
   25.9873  -34.6721   -9.0419 O   0  0  0  0  0  0  0  0  0  0  0  0
   26.8760  -32.5784   -8.7811 N   0  0  0  0  0  0  0  0  0  0  0  0
   27.9168  -33.1020   -7.9144 C   0  0  0  0  0  0  0  0  0  0  0  0
   27.3693  -33.3104   -6.5538 C   0  0  0  0  0  0  0  0  0  0  0  0
   28.1451  -33.8741   -5.5726 O   0  0  0  0  0  0  0  0  0  0  0  0
   26.1844  -32.9701   -6.2890 O   0  0  0  0  0  0  0  0  0  0  0  0
  2  3  2  0
  2  1  1  0
  4  2  1  0
  5  4  1  0
  5  7  1  0
  5  6  1  6
  7  8  2  0
 10 12  1  0
 10  9  1  1
 11 10  1  0
 12 13  1  6
 13  7  1  0
 14 16  1  0
 14 12  1  0
 15 14  2  0
 17 18  1  0
 17 16  1  0
 18 19  1  0
 20 18  2  0
M  END
$$$$
