NVG.pdb
     RDKit          3D

 20 19  0  0  1  0  0  0  0  0999 V2000
   26.1751  -21.7221  -17.3552 N   0  0  0  0  0  0  0  0  0  0  0  0
   25.5674  -22.9686  -17.0050 C   0  0  0  0  0  0  0  0  0  0  0  0
   25.8317  -23.9935  -17.6812 O   0  0  0  0  0  0  0  0  0  0  0  0
   24.6257  -23.1039  -15.8617 C   0  0  0  0  0  0  0  0  0  0  0  0
   24.4712  -21.7225  -15.2437 C   0  0  2  0  0  0  0  0  0  0  0  0
   25.6859  -21.4320  -14.4960 N   0  0  0  0  0  0  0  0  0  0  0  0
   23.2848  -21.6798  -14.3496 C   0  0  0  0  0  0  0  0  0  0  0  0
   23.4213  -22.0366  -13.1606 O   0  0  0  0  0  0  0  0  0  0  0  0
   21.5640  -19.0563  -12.9079 C   0  0  0  0  0  0  0  0  0  0  0  0
   20.4349  -19.8111  -13.5733 C   0  0  1  0  0  0  0  0  0  0  0  0
   20.0265  -19.0621  -14.7950 C   0  0  0  0  0  0  0  0  0  0  0  0
   20.9357  -21.2016  -13.8617 C   0  0  2  0  0  0  0  0  0  0  0  0
   22.0099  -21.2520  -14.7906 N   0  0  0  0  0  0  0  0  0  0  0  0
   19.7891  -21.9859  -14.4341 C   0  0  0  0  0  0  0  0  0  0  0  0
   19.5642  -21.9446  -15.6599 O   0  0  0  0  0  0  0  0  0  0  0  0
   18.9584  -22.7707  -13.6125 N   0  0  0  0  0  0  0  0  0  0  0  0
   17.8537  -23.5005  -14.2089 C   0  0  0  0  0  0  0  0  0  0  0  0
   16.6433  -22.6466  -14.2164 C   0  0  0  0  0  0  0  0  0  0  0  0
   15.4516  -23.1365  -14.6878 O   0  0  0  0  0  0  0  0  0  0  0  0
   16.7014  -21.4618  -13.7888 O   0  0  0  0  0  0  0  0  0  0  0  0
  2  3  2  0
  2  1  1  0
  4  2  1  0
  5  4  1  0
  5  7  1  0
  5  6  1  1
  7  8  2  0
 10 12  1  0
 10  9  1  6
 11 10  1  0
 12 13  1  6
 13  7  1  0
 14 16  1  0
 14 12  1  0
 15 14  2  0
 17 18  1  0
 17 16  1  0
 18 19  1  0
 20 18  2  0
M  END
$$$$
