NVG.pdb
     RDKit          3D

 20 19  0  0  1  0  0  0  0  0999 V2000
   17.7331  -23.8620   -9.1819 N   0  0  0  0  0  0  0  0  0  0  0  0
   18.9106  -24.6517   -9.3704 C   0  0  0  0  0  0  0  0  0  0  0  0
   19.2973  -25.4101   -8.4470 O   0  0  0  0  0  0  0  0  0  0  0  0
   19.7050  -24.6123  -10.6274 C   0  0  0  0  0  0  0  0  0  0  0  0
   18.9505  -23.7248  -11.6056 C   0  0  2  0  0  0  0  0  0  0  0  0
   17.8908  -24.5237  -12.2038 N   0  0  0  0  0  0  0  0  0  0  0  0
   19.8672  -23.2048  -12.6535 C   0  0  0  0  0  0  0  0  0  0  0  0
   20.0598  -23.8978  -13.6744 O   0  0  0  0  0  0  0  0  0  0  0  0
   21.9251  -19.6904  -15.1579 C   0  0  0  0  0  0  0  0  0  0  0  0
   21.0151  -20.0446  -14.0030 C   0  0  1  0  0  0  0  0  0  0  0  0
   19.6067  -19.8030  -14.4249 C   0  0  0  0  0  0  0  0  0  0  0  0
   21.2942  -21.4785  -13.6376 C   0  0  2  0  0  0  0  0  0  0  0  0
   20.5289  -21.9589  -12.5409 N   0  0  0  0  0  0  0  0  0  0  0  0
   22.7475  -21.5770  -13.2689 C   0  0  0  0  0  0  0  0  0  0  0  0
   23.1906  -20.8997  -12.3204 O   0  0  0  0  0  0  0  0  0  0  0  0
   23.6246  -22.4218  -13.9746 N   0  0  0  0  0  0  0  0  0  0  0  0
   25.0299  -22.4514  -13.6100 C   0  0  0  0  0  0  0  0  0  0  0  0
   25.8367  -21.8576  -14.7012 C   0  0  0  0  0  0  0  0  0  0  0  0
   27.2067  -21.8519  -14.6270 O   0  0  0  0  0  0  0  0  0  0  0  0
   25.2678  -21.3527  -15.7069 O   0  0  0  0  0  0  0  0  0  0  0  0
  2  3  2  0
  2  1  1  0
  4  2  1  0
  5  4  1  0
  5  7  1  0
  5  6  1  6
  7  8  2  0
 10 12  1  0
 10  9  1  6
 11 10  1  0
 12 13  1  1
 13  7  1  0
 14 16  1  0
 14 12  1  0
 15 14  2  0
 17 18  1  0
 17 16  1  0
 18 19  1  0
 20 18  2  0
M  END
$$$$
