NVG.pdb
     RDKit          3D

 20 19  0  0  1  0  0  0  0  0999 V2000
   14.6920  -10.1977  -13.8928 N   0  0  0  0  0  0  0  0  0  0  0  0
   15.4055  -11.4093  -14.1545 C   0  0  0  0  0  0  0  0  0  0  0  0
   14.7690  -12.4373  -14.4944 O   0  0  0  0  0  0  0  0  0  0  0  0
   16.8855  -11.5044  -14.0397 C   0  0  0  0  0  0  0  0  0  0  0  0
   17.4581  -11.2635  -15.4283 C   0  0  2  0  0  0  0  0  0  0  0  0
   17.4742  -12.5389  -16.1296 N   0  0  0  0  0  0  0  0  0  0  0  0
   18.8304  -10.7002  -15.3371 C   0  0  0  0  0  0  0  0  0  0  0  0
   19.7795  -11.4775  -15.1033 O   0  0  0  0  0  0  0  0  0  0  0  0
   20.8093   -9.5540  -17.8872 C   0  0  0  0  0  0  0  0  0  0  0  0
   20.8668   -8.3809  -16.9344 C   0  0  1  0  0  0  0  0  0  0  0  0
   19.9801   -7.3054  -17.4613 C   0  0  0  0  0  0  0  0  0  0  0  0
   20.4547   -8.8867  -15.5772 C   0  0  2  0  0  0  0  0  0  0  0  0
   19.1039   -9.3218  -15.5041 N   0  0  0  0  0  0  0  0  0  0  0  0
   20.6333   -7.7589  -14.6006 C   0  0  0  0  0  0  0  0  0  0  0  0
   19.6604   -7.0359  -14.3083 O   0  0  0  0  0  0  0  0  0  0  0  0
   21.8818   -7.4992  -14.0049 N   0  0  0  0  0  0  0  0  0  0  0  0
   22.0024   -6.4085  -13.0539 C   0  0  0  0  0  0  0  0  0  0  0  0
   22.1603   -5.1298  -13.7851 C   0  0  0  0  0  0  0  0  0  0  0  0
   22.3339   -3.9548  -13.0983 O   0  0  0  0  0  0  0  0  0  0  0  0
   22.1360   -5.1140  -15.0456 O   0  0  0  0  0  0  0  0  0  0  0  0
  2  3  2  0
  2  1  1  0
  4  2  1  0
  5  4  1  0
  5  7  1  0
  5  6  1  6
  7  8  2  0
 10 12  1  0
 10  9  1  6
 11 10  1  0
 12 13  1  6
 13  7  1  0
 14 16  1  0
 14 12  1  0
 15 14  2  0
 17 18  1  0
 17 16  1  0
 18 19  1  0
 20 18  2  0
M  END
$$$$
