NVG.pdb
     RDKit          3D

 20 19  0  0  1  0  0  0  0  0999 V2000
   16.5248  -11.6592  -18.5497 N   0  0  0  0  0  0  0  0  0  0  0  0
   16.0080  -10.9795  -17.4023 C   0  0  0  0  0  0  0  0  0  0  0  0
   14.8357  -10.5295  -17.4298 O   0  0  0  0  0  0  0  0  0  0  0  0
   16.8088  -10.7810  -16.1646 C   0  0  0  0  0  0  0  0  0  0  0  0
   18.1379  -11.4907  -16.3732 C   0  0  2  0  0  0  0  0  0  0  0  0
   17.9484  -12.8952  -16.0412 N   0  0  0  0  0  0  0  0  0  0  0  0
   19.1919  -10.8889  -15.5155 C   0  0  0  0  0  0  0  0  0  0  0  0
   19.1558  -11.1059  -14.2861 O   0  0  0  0  0  0  0  0  0  0  0  0
   23.5020   -9.2366  -14.4435 C   0  0  0  0  0  0  0  0  0  0  0  0
   22.6092   -9.9648  -15.4232 C   0  0  1  0  0  0  0  0  0  0  0  0
   22.8265  -11.4294  -15.2559 C   0  0  0  0  0  0  0  0  0  0  0  0
   21.1939   -9.5327  -15.1445 C   0  0  2  0  0  0  0  0  0  0  0  0
   20.2321  -10.0819  -16.0347 N   0  0  0  0  0  0  0  0  0  0  0  0
   21.1441   -8.0364  -15.2719 C   0  0  0  0  0  0  0  0  0  0  0  0
   21.3766   -7.5030  -16.3747 O   0  0  0  0  0  0  0  0  0  0  0  0
   20.8390   -7.2189  -14.1675 N   0  0  0  0  0  0  0  0  0  0  0  0
   20.9037   -5.7755  -14.3123 C   0  0  0  0  0  0  0  0  0  0  0  0
   21.8495   -5.2203  -13.3165 C   0  0  0  0  0  0  0  0  0  0  0  0
   22.2639   -3.9154  -13.4057 O   0  0  0  0  0  0  0  0  0  0  0  0
   22.2800   -5.9453  -12.3790 O   0  0  0  0  0  0  0  0  0  0  0  0
  2  3  2  0
  2  1  1  0
  4  2  1  0
  5  4  1  0
  5  7  1  0
  5  6  1  1
  7  8  2  0
 10 12  1  0
 10  9  1  1
 11 10  1  0
 12 13  1  6
 13  7  1  0
 14 16  1  0
 14 12  1  0
 15 14  2  0
 17 18  1  0
 17 16  1  0
 18 19  1  0
 20 18  2  0
M  END
$$$$
