DQR.pdb
     RDKit          3D

 29 28  0  0  1  0  0  0  0  0999 V2000
   25.1013  -22.5022  -16.8300 N   0  0  0  0  0  0  0  0  0  0  0  0
   25.5749  -21.8306  -15.6336 C   0  0  1  0  0  0  0  0  0  0  0  0
   26.5190  -20.7043  -15.9834 C   0  0  0  0  0  0  0  0  0  0  0  0
   27.7423  -21.2441  -16.5784 C   0  0  0  0  0  0  0  0  0  0  0  0
   27.8926  -22.4833  -16.6810 O   0  0  0  0  0  0  0  0  0  0  0  0
   24.4000  -21.2697  -14.8943 C   0  0  0  0  0  0  0  0  0  0  0  0
   24.5697  -20.7155  -13.7947 O   0  0  0  0  0  0  0  0  0  0  0  0
   28.7369  -20.4089  -17.0304 O   0  0  0  0  0  0  0  0  0  0  0  0
   19.7588  -17.9624  -16.6601 N   0  0  0  0  0  0  0  0  0  0  0  0
   19.1799  -18.3705  -15.4265 C   0  0  0  0  0  0  0  0  0  0  0  0
   18.1214  -17.8762  -15.0220 O   0  0  0  0  0  0  0  0  0  0  0  0
   19.9382  -19.4298  -14.6641 C   0  0  0  0  0  0  0  0  0  0  0  0
   21.1975  -19.8079  -15.3941 C   0  0  0  0  0  0  0  0  0  0  0  0
   21.9106  -20.8930  -14.6887 C   0  0  2  0  0  0  0  0  0  0  0  0
   23.0897  -21.3482  -15.4070 N   0  0  0  0  0  0  0  0  0  0  0  0
   21.1293  -22.0750  -14.3009 C   0  0  0  0  0  0  0  0  0  0  0  0
   20.9355  -23.0224  -15.0885 O   0  0  0  0  0  0  0  0  0  0  0  0
   18.2901  -25.2285   -6.3932 N   0  0  0  0  0  0  0  0  0  0  0  0
   17.8061  -26.1559   -7.3824 C   0  0  0  0  0  0  0  0  0  0  0  0
   17.1976  -27.2465   -7.0972 N   0  0  0  0  0  0  0  0  0  0  0  0
   18.0164  -25.8526   -8.7573 N   0  0  0  0  0  0  0  0  0  0  0  0
   18.7331  -24.6689   -9.1572 C   0  0  0  0  0  0  0  0  0  0  0  0
   18.8290  -24.5554  -10.6678 C   0  0  0  0  0  0  0  0  0  0  0  0
   19.6163  -23.3917  -11.1372 C   0  0  0  0  0  0  0  0  0  0  0  0
   19.7302  -23.3696  -12.6356 C   0  0  2  0  0  0  0  0  0  0  0  0
   20.5552  -22.1945  -13.0058 N   0  0  0  0  0  0  0  0  0  0  0  0
   18.3752  -23.2090  -13.2169 C   0  0  0  0  0  0  0  0  0  0  0  0
   17.6130  -22.0706  -13.1936 O   0  0  0  0  0  0  0  0  0  0  0  0
   17.8737  -24.2420  -13.7951 O   0  0  0  0  0  0  0  0  0  0  0  0
  2  3  1  0
  2  1  1  6
  4  3  1  0
  5  4  2  0
  6  2  1  0
  7  6  2  0
  8  4  1  0
  9 10  1  0
 10 12  1  0
 11 10  2  0
 12 13  1  0
 14 13  1  6
 14 15  1  0
 15  6  1  0
 16 14  1  0
 16 17  2  0
 18 19  1  0
 19 21  1  0
 20 19  2  0
 21 22  1  0
 22 23  1  0
 23 24  1  0
 25 24  1  1
 26 25  1  0
 26 16  1  0
 27 25  1  0
 28 27  1  0
 29 27  2  0
M  END
$$$$
