DQR.pdb
     RDKit          3D

 29 28  0  0  1  0  0  0  0  0999 V2000
   17.9122  -23.5089  -13.3870 N   0  0  0  0  0  0  0  0  0  0  0  0
   18.3188  -23.0518  -12.0708 C   0  0  1  0  0  0  0  0  0  0  0  0
   17.5157  -21.8451  -11.6453 C   0  0  0  0  0  0  0  0  0  0  0  0
   17.9352  -20.6703  -12.4106 C   0  0  0  0  0  0  0  0  0  0  0  0
   19.0963  -20.6104  -12.8763 O   0  0  0  0  0  0  0  0  0  0  0  0
   18.0991  -24.1560  -11.0839 C   0  0  0  0  0  0  0  0  0  0  0  0
   16.9415  -24.4831  -10.7709 O   0  0  0  0  0  0  0  0  0  0  0  0
   17.0710  -19.6231  -12.6290 O   0  0  0  0  0  0  0  0  0  0  0  0
   21.4642  -29.1294  -10.4777 N   0  0  0  0  0  0  0  0  0  0  0  0
   20.3324  -29.0030  -11.3300 C   0  0  0  0  0  0  0  0  0  0  0  0
   20.1445  -29.7898  -12.2649 O   0  0  0  0  0  0  0  0  0  0  0  0
   19.3974  -27.8608  -11.0146 C   0  0  0  0  0  0  0  0  0  0  0  0
   19.8933  -27.0834   -9.8266 C   0  0  0  0  0  0  0  0  0  0  0  0
   19.0066  -25.9368   -9.5390 C   0  0  2  0  0  0  0  0  0  0  0  0
   19.1724  -24.8484  -10.4884 N   0  0  0  0  0  0  0  0  0  0  0  0
   19.0519  -25.3702   -8.1845 C   0  0  0  0  0  0  0  0  0  0  0  0
   20.0780  -24.8221   -7.7350 O   0  0  0  0  0  0  0  0  0  0  0  0
   11.7606  -25.6941   -3.9533 N   0  0  0  0  0  0  0  0  0  0  0  0
   12.8985  -25.5635   -3.0809 C   0  0  0  0  0  0  0  0  0  0  0  0
   12.8084  -25.3247   -1.8255 N   0  0  0  0  0  0  0  0  0  0  0  0
   14.2008  -25.7013   -3.6390 N   0  0  0  0  0  0  0  0  0  0  0  0
   14.3871  -25.9034   -5.0529 C   0  0  0  0  0  0  0  0  0  0  0  0
   15.8533  -26.0749   -5.4062 C   0  0  0  0  0  0  0  0  0  0  0  0
   16.6328  -24.8155   -5.3776 C   0  0  0  0  0  0  0  0  0  0  0  0
   18.0287  -25.0177   -5.8963 C   0  0  2  0  0  0  0  0  0  0  0  0
   17.9249  -25.4210   -7.3194 N   0  0  0  0  0  0  0  0  0  0  0  0
   18.6703  -26.1142   -5.1309 C   0  0  0  0  0  0  0  0  0  0  0  0
   19.2926  -25.9981   -3.9157 O   0  0  0  0  0  0  0  0  0  0  0  0
   18.6368  -27.2826   -5.6663 O   0  0  0  0  0  0  0  0  0  0  0  0
  2  3  1  0
  2  1  1  6
  4  3  1  0
  5  4  2  0
  6  2  1  0
  7  6  2  0
  8  4  1  0
  9 10  1  0
 10 12  1  0
 11 10  2  0
 12 13  1  0
 14 13  1  1
 14 15  1  0
 15  6  1  0
 16 14  1  0
 16 17  2  0
 18 19  1  0
 19 21  1  0
 20 19  2  0
 21 22  1  0
 22 23  1  0
 23 24  1  0
 25 24  1  1
 26 25  1  0
 26 16  1  0
 27 25  1  0
 28 27  1  0
 29 27  2  0
M  END
$$$$
