DQR.pdb
     RDKit          3D

 29 28  0  0  1  0  0  0  0  0999 V2000
   16.8027  -11.0206  -15.4121 N   0  0  0  0  0  0  0  0  0  0  0  0
   16.0504  -11.1311  -14.1758 C   0  0  1  0  0  0  0  0  0  0  0  0
   16.0902  -12.5442  -13.6429 C   0  0  0  0  0  0  0  0  0  0  0  0
   15.0456  -13.3479  -14.2790 C   0  0  0  0  0  0  0  0  0  0  0  0
   14.6619  -14.4118  -13.7411 O   0  0  0  0  0  0  0  0  0  0  0  0
   16.6494  -10.2098  -13.1589 C   0  0  0  0  0  0  0  0  0  0  0  0
   16.1791  -10.1698  -12.0090 O   0  0  0  0  0  0  0  0  0  0  0  0
   14.4737  -12.9529  -15.4656 O   0  0  0  0  0  0  0  0  0  0  0  0
   22.1892   -7.2778  -13.4846 N   0  0  0  0  0  0  0  0  0  0  0  0
   21.6942   -6.6951  -12.2850 C   0  0  0  0  0  0  0  0  0  0  0  0
   22.3824   -5.9083  -11.6247 O   0  0  0  0  0  0  0  0  0  0  0  0
   20.2958   -7.1002  -11.8867 C   0  0  0  0  0  0  0  0  0  0  0  0
   19.7055   -8.0360  -12.9052 C   0  0  0  0  0  0  0  0  0  0  0  0
   18.3411   -8.4477  -12.5150 C   0  0  2  0  0  0  0  0  0  0  0  0
   17.7428   -9.3742  -13.4622 N   0  0  0  0  0  0  0  0  0  0  0  0
   17.3660   -7.3836  -12.2413 C   0  0  0  0  0  0  0  0  0  0  0  0
   16.7068   -6.8456  -13.1532 O   0  0  0  0  0  0  0  0  0  0  0  0
   13.5373   -4.1533   -4.6768 N   0  0  0  0  0  0  0  0  0  0  0  0
   12.5749   -4.2045   -5.7465 C   0  0  0  0  0  0  0  0  0  0  0  0
   11.3093   -4.1166   -5.5692 N   0  0  0  0  0  0  0  0  0  0  0  0
   13.0493   -4.3668   -7.0788 N   0  0  0  0  0  0  0  0  0  0  0  0
   14.1078   -5.2948   -7.3842 C   0  0  0  0  0  0  0  0  0  0  0  0
   14.5333   -5.2009   -8.8382 C   0  0  0  0  0  0  0  0  0  0  0  0
   15.6801   -6.0704   -9.1892 C   0  0  0  0  0  0  0  0  0  0  0  0
   16.0611   -5.9255  -10.6358 C   0  0  2  0  0  0  0  0  0  0  0  0
   17.1278   -6.9153  -10.9204 N   0  0  0  0  0  0  0  0  0  0  0  0
   16.5994   -4.5611  -10.8553 C   0  0  0  0  0  0  0  0  0  0  0  0
   15.9085   -3.4874  -11.3525 O   0  0  0  0  0  0  0  0  0  0  0  0
   17.8343   -4.3762  -10.5488 O   0  0  0  0  0  0  0  0  0  0  0  0
  2  3  1  0
  2  1  1  6
  4  3  1  0
  5  4  2  0
  6  2  1  0
  7  6  2  0
  8  4  1  0
  9 10  1  0
 10 12  1  0
 11 10  2  0
 12 13  1  0
 14 13  1  6
 14 15  1  0
 15  6  1  0
 16 14  1  0
 16 17  2  0
 18 19  1  0
 19 21  1  0
 20 19  2  0
 21 22  1  0
 22 23  1  0
 23 24  1  0
 25 24  1  1
 26 25  1  0
 26 16  1  0
 27 25  1  0
 28 27  1  0
 29 27  2  0
M  END
$$$$
