DQR.pdb
     RDKit          3D

 29 28  0  0  1  0  0  0  0  0999 V2000
   25.9722  -21.6298  -17.0315 N   0  0  0  0  0  0  0  0  0  0  0  0
   26.5478  -20.8969  -15.9188 C   0  0  1  0  0  0  0  0  0  0  0  0
   27.4625  -19.7992  -16.4095 C   0  0  0  0  0  0  0  0  0  0  0  0
   28.5581  -20.3738  -17.1915 C   0  0  0  0  0  0  0  0  0  0  0  0
   28.5521  -21.5945  -17.4715 O   0  0  0  0  0  0  0  0  0  0  0  0
   25.4418  -20.2867  -15.1151 C   0  0  0  0  0  0  0  0  0  0  0  0
   25.7100  -19.6313  -14.0935 O   0  0  0  0  0  0  0  0  0  0  0  0
   29.6016  -19.5915  -17.6276 O   0  0  0  0  0  0  0  0  0  0  0  0
   22.7843  -17.0281  -17.5658 N   0  0  0  0  0  0  0  0  0  0  0  0
   23.5709  -16.6079  -16.4576 C   0  0  0  0  0  0  0  0  0  0  0  0
   24.3166  -15.6251  -16.5385 O   0  0  0  0  0  0  0  0  0  0  0  0
   23.4304  -17.4337  -15.2020 C   0  0  0  0  0  0  0  0  0  0  0  0
   22.4912  -18.5862  -15.4288 C   0  0  0  0  0  0  0  0  0  0  0  0
   22.9863  -19.8090  -14.7632 C   0  0  2  0  0  0  0  0  0  0  0  0
   24.0882  -20.4301  -15.4799 N   0  0  0  0  0  0  0  0  0  0  0  0
   22.0022  -20.8531  -14.4482 C   0  0  0  0  0  0  0  0  0  0  0  0
   21.8342  -21.8430  -15.1881 O   0  0  0  0  0  0  0  0  0  0  0  0
   17.9785  -25.3927   -9.7027 N   0  0  0  0  0  0  0  0  0  0  0  0
   18.4404  -24.6343   -8.5695 C   0  0  0  0  0  0  0  0  0  0  0  0
   18.4965  -25.0997   -7.3773 N   0  0  0  0  0  0  0  0  0  0  0  0
   18.8551  -23.2884   -8.7772 N   0  0  0  0  0  0  0  0  0  0  0  0
   18.1990  -22.4485   -9.7461 C   0  0  0  0  0  0  0  0  0  0  0  0
   18.7593  -22.6589  -11.1411 C   0  0  0  0  0  0  0  0  0  0  0  0
   19.7848  -21.6656  -11.5362 C   0  0  0  0  0  0  0  0  0  0  0  0
   20.2017  -21.8418  -12.9693 C   0  0  2  0  0  0  0  0  0  0  0  0
   21.1920  -20.7835  -13.2821 N   0  0  0  0  0  0  0  0  0  0  0  0
   19.0141  -21.6621  -13.8394 C   0  0  0  0  0  0  0  0  0  0  0  0
   18.2351  -22.6598  -14.3638 O   0  0  0  0  0  0  0  0  0  0  0  0
   18.6919  -20.4509  -14.1261 O   0  0  0  0  0  0  0  0  0  0  0  0
  2  3  1  0
  2  1  1  6
  4  3  1  0
  5  4  2  0
  6  2  1  0
  7  6  2  0
  8  4  1  0
  9 10  1  0
 10 12  1  0
 11 10  2  0
 12 13  1  0
 14 13  1  6
 14 15  1  0
 15  6  1  0
 16 14  1  0
 16 17  2  0
 18 19  1  0
 19 21  1  0
 20 19  2  0
 21 22  1  0
 22 23  1  0
 23 24  1  0
 25 24  1  1
 26 25  1  0
 26 16  1  0
 27 25  1  0
 28 27  1  0
 29 27  2  0
M  END
$$$$
