DQR.pdb
     RDKit          3D

 29 28  0  0  1  0  0  0  0  0999 V2000
   29.1444  -21.8815  -17.9548 N   0  0  0  0  0  0  0  0  0  0  0  0
   28.7060  -20.7416  -17.1705 C   0  0  1  0  0  0  0  0  0  0  0  0
   27.5607  -20.0268  -17.8486 C   0  0  0  0  0  0  0  0  0  0  0  0
   27.1253  -18.8932  -17.0318 C   0  0  0  0  0  0  0  0  0  0  0  0
   27.9712  -18.2096  -16.4108 O   0  0  0  0  0  0  0  0  0  0  0  0
   28.2533  -21.2220  -15.8267 C   0  0  0  0  0  0  0  0  0  0  0  0
   27.5606  -22.2504  -15.7398 O   0  0  0  0  0  0  0  0  0  0  0  0
   25.7940  -18.5627  -16.9332 O   0  0  0  0  0  0  0  0  0  0  0  0
   31.6092  -20.8855  -10.7756 N   0  0  0  0  0  0  0  0  0  0  0  0
   30.4317  -21.3957  -10.1617 C   0  0  0  0  0  0  0  0  0  0  0  0
   30.4293  -21.7473   -8.9764 O   0  0  0  0  0  0  0  0  0  0  0  0
   29.2112  -21.4739  -11.0462 C   0  0  0  0  0  0  0  0  0  0  0  0
   29.5268  -20.9741  -12.4291 C   0  0  0  0  0  0  0  0  0  0  0  0
   28.3417  -21.0670  -13.3068 C   0  0  2  0  0  0  0  0  0  0  0  0
   28.5888  -20.5410  -14.6394 N   0  0  0  0  0  0  0  0  0  0  0  0
   27.0871  -20.4841  -12.8128 C   0  0  0  0  0  0  0  0  0  0  0  0
   26.7912  -19.2901  -13.0184 O   0  0  0  0  0  0  0  0  0  0  0  0
   18.9213  -19.9236  -13.8712 N   0  0  0  0  0  0  0  0  0  0  0  0
   20.1147  -20.0578  -14.6653 C   0  0  0  0  0  0  0  0  0  0  0  0
   20.1768  -19.7647  -15.9108 N   0  0  0  0  0  0  0  0  0  0  0  0
   21.2951  -20.5481  -14.0386 N   0  0  0  0  0  0  0  0  0  0  0  0
   21.2668  -21.0539  -12.6903 C   0  0  0  0  0  0  0  0  0  0  0  0
   22.4697  -20.5867  -11.8910 C   0  0  0  0  0  0  0  0  0  0  0  0
   23.7640  -21.1110  -12.3854 C   0  0  0  0  0  0  0  0  0  0  0  0
   24.9105  -20.6476  -11.5314 C   0  0  2  0  0  0  0  0  0  0  0  0
   26.1491  -21.2557  -12.0742 N   0  0  0  0  0  0  0  0  0  0  0  0
   24.7029  -21.1335  -10.1456 C   0  0  0  0  0  0  0  0  0  0  0  0
   23.8393  -20.6053   -9.2222 O   0  0  0  0  0  0  0  0  0  0  0  0
   25.4056  -22.1472   -9.7826 O   0  0  0  0  0  0  0  0  0  0  0  0
  2  3  1  0
  2  1  1  6
  4  3  1  0
  5  4  2  0
  6  2  1  0
  7  6  2  0
  8  4  1  0
  9 10  1  0
 10 12  1  0
 11 10  2  0
 12 13  1  0
 14 13  1  1
 14 15  1  0
 15  6  1  0
 16 14  1  0
 16 17  2  0
 18 19  1  0
 19 21  1  0
 20 19  2  0
 21 22  1  0
 22 23  1  0
 23 24  1  0
 25 24  1  6
 26 25  1  0
 26 16  1  0
 27 25  1  0
 28 27  1  0
 29 27  2  0
M  END
$$$$
