DQR.pdb
     RDKit          3D

 29 28  0  0  1  0  0  0  0  0999 V2000
   21.3604  -22.4630  -13.4260 N   0  0  0  0  0  0  0  0  0  0  0  0
   21.0265  -21.0548  -13.3154 C   0  0  1  0  0  0  0  0  0  0  0  0
   20.1075  -20.8073  -12.1421 C   0  0  0  0  0  0  0  0  0  0  0  0
   18.8725  -21.5757  -12.3037 C   0  0  0  0  0  0  0  0  0  0  0  0
   18.8633  -22.5980  -13.0270 O   0  0  0  0  0  0  0  0  0  0  0  0
   22.2870  -20.2706  -13.1211 C   0  0  0  0  0  0  0  0  0  0  0  0
   22.2337  -19.0338  -13.0091 O   0  0  0  0  0  0  0  0  0  0  0  0
   17.7134  -21.1923  -11.6707 O   0  0  0  0  0  0  0  0  0  0  0  0
   27.7528  -22.3611  -10.9746 N   0  0  0  0  0  0  0  0  0  0  0  0
   28.1740  -21.0704  -11.3991 C   0  0  0  0  0  0  0  0  0  0  0  0
   29.3317  -20.6806  -11.2086 O   0  0  0  0  0  0  0  0  0  0  0  0
   27.1246  -20.2299  -12.0851 C   0  0  0  0  0  0  0  0  0  0  0  0
   25.8270  -20.9833  -12.1877 C   0  0  0  0  0  0  0  0  0  0  0  0
   24.7989  -20.1723  -12.8723 C   0  0  2  0  0  0  0  0  0  0  0  0
   23.5500  -20.8926  -13.0595 N   0  0  0  0  0  0  0  0  0  0  0  0
   25.1663  -19.5573  -14.1547 C   0  0  0  0  0  0  0  0  0  0  0  0
   25.0032  -20.1511  -15.2393 O   0  0  0  0  0  0  0  0  0  0  0  0
   23.5445  -11.6159  -16.5173 N   0  0  0  0  0  0  0  0  0  0  0  0
   22.9016  -12.8517  -16.1537 C   0  0  0  0  0  0  0  0  0  0  0  0
   21.6902  -12.9296  -15.7445 N   0  0  0  0  0  0  0  0  0  0  0  0
   23.6501  -14.0590  -16.2470 N   0  0  0  0  0  0  0  0  0  0  0  0
   25.0189  -14.0534  -16.6954 C   0  0  0  0  0  0  0  0  0  0  0  0
   25.6126  -15.4504  -16.7009 C   0  0  0  0  0  0  0  0  0  0  0  0
   25.4014  -16.2013  -15.4415 C   0  0  0  0  0  0  0  0  0  0  0  0
   25.9776  -17.5871  -15.5210 C   0  0  2  0  0  0  0  0  0  0  0  0
   25.7273  -18.2526  -14.2199 N   0  0  0  0  0  0  0  0  0  0  0  0
   27.4416  -17.4857  -15.7362 C   0  0  0  0  0  0  0  0  0  0  0  0
   28.0744  -17.3222  -16.9403 O   0  0  0  0  0  0  0  0  0  0  0  0
   28.1814  -17.5613  -14.6873 O   0  0  0  0  0  0  0  0  0  0  0  0
  2  3  1  0
  2  1  1  1
  4  3  1  0
  5  4  2  0
  6  2  1  0
  7  6  2  0
  8  4  1  0
  9 10  1  0
 10 12  1  0
 11 10  2  0
 12 13  1  0
 14 13  1  6
 14 15  1  0
 15  6  1  0
 16 14  1  0
 16 17  2  0
 18 19  1  0
 19 21  1  0
 20 19  2  0
 21 22  1  0
 22 23  1  0
 23 24  1  0
 25 24  1  1
 26 25  1  0
 26 16  1  0
 27 25  1  0
 28 27  1  0
 29 27  2  0
M  END
$$$$
