DQR.pdb
     RDKit          3D

 29 28  0  0  1  0  0  0  0  0999 V2000
   13.0018   -8.2008   -9.4067 N   0  0  0  0  0  0  0  0  0  0  0  0
   14.4263   -8.4761   -9.4459 C   0  0  1  0  0  0  0  0  0  0  0  0
   14.7225   -9.6700  -10.3230 C   0  0  0  0  0  0  0  0  0  0  0  0
   14.1740  -10.8839   -9.7169 C   0  0  0  0  0  0  0  0  0  0  0  0
   13.4216  -10.7986   -8.7193 O   0  0  0  0  0  0  0  0  0  0  0  0
   15.1373   -7.2789   -9.9961 C   0  0  0  0  0  0  0  0  0  0  0  0
   14.7107   -6.7259  -11.0243 O   0  0  0  0  0  0  0  0  0  0  0  0
   14.4723  -12.1257  -10.2269 O   0  0  0  0  0  0  0  0  0  0  0  0
   16.6892   -2.3044   -7.3179 N   0  0  0  0  0  0  0  0  0  0  0  0
   17.4147   -2.0423   -8.5131 C   0  0  0  0  0  0  0  0  0  0  0  0
   17.8660   -0.9167   -8.7536 O   0  0  0  0  0  0  0  0  0  0  0  0
   17.5890   -3.2159   -9.4461 C   0  0  0  0  0  0  0  0  0  0  0  0
   16.8804   -4.4288   -8.9090 C   0  0  0  0  0  0  0  0  0  0  0  0
   16.9841   -5.5612   -9.8526 C   0  0  2  0  0  0  0  0  0  0  0  0
   16.2893   -6.7483   -9.3818 N   0  0  0  0  0  0  0  0  0  0  0  0
   18.3304   -5.9622  -10.2824 C   0  0  0  0  0  0  0  0  0  0  0  0
   19.1306   -6.5182   -9.5039 O   0  0  0  0  0  0  0  0  0  0  0  0
   19.9733  -10.5146  -17.1494 N   0  0  0  0  0  0  0  0  0  0  0  0
   19.7641  -11.1395  -15.8694 C   0  0  0  0  0  0  0  0  0  0  0  0
   19.4989  -12.3839  -15.7203 N   0  0  0  0  0  0  0  0  0  0  0  0
   19.8505  -10.3339  -14.6988 N   0  0  0  0  0  0  0  0  0  0  0  0
   19.9760   -8.9018  -14.7884 C   0  0  0  0  0  0  0  0  0  0  0  0
   20.0618   -8.2597  -13.4157 C   0  0  0  0  0  0  0  0  0  0  0  0
   19.9621   -6.7818  -13.4329 C   0  0  0  0  0  0  0  0  0  0  0  0
   20.1204   -6.2011  -12.0558 C   0  0  2  0  0  0  0  0  0  0  0  0
   18.7858   -5.7338  -11.6095 N   0  0  0  0  0  0  0  0  0  0  0  0
   21.0381   -5.0382  -12.1287 C   0  0  0  0  0  0  0  0  0  0  0  0
   22.4073   -5.0837  -12.1085 O   0  0  0  0  0  0  0  0  0  0  0  0
   20.4884   -3.8793  -12.2174 O   0  0  0  0  0  0  0  0  0  0  0  0
  2  3  1  0
  2  1  1  6
  4  3  1  0
  5  4  2  0
  6  2  1  0
  7  6  2  0
  8  4  1  0
  9 10  1  0
 10 12  1  0
 11 10  2  0
 12 13  1  0
 14 13  1  1
 14 15  1  0
 15  6  1  0
 16 14  1  0
 16 17  2  0
 18 19  1  0
 19 21  1  0
 20 19  2  0
 21 22  1  0
 22 23  1  0
 23 24  1  0
 25 24  1  6
 26 25  1  0
 26 16  1  0
 27 25  1  0
 28 27  1  0
 29 27  2  0
M  END
$$$$
