PEF.pdb
     RDKit          3D

 28 29  0  0  1  0  0  0  0  0999 V2000
   20.0825  -13.2693  -19.0202 N   0  0  0  0  0  0  0  0  0  0  0  0
   20.3314  -14.1884  -20.1329 C   0  0  0  0  0  0  0  0  0  0  0  0
   18.9356  -14.4486  -20.6370 C   0  0  0  0  0  0  0  0  0  0  0  0
   18.2766  -13.1000  -20.4791 C   0  0  0  0  0  0  0  0  0  0  0  0
   19.2325  -12.2899  -19.6218 C   0  0  1  0  0  0  0  0  0  0  0  0
   18.5101  -11.4559  -18.6532 C   0  0  0  0  0  0  0  0  0  0  0  0
   18.1103  -10.3249  -19.0301 O   0  0  0  0  0  0  0  0  0  0  0  0
   18.2253  -11.8273  -17.3157 N   0  0  0  0  0  0  0  0  0  0  0  0
   17.5192  -10.9667  -16.4120 C   0  0  1  0  0  0  0  0  0  0  0  0
   16.7529  -11.7233  -15.3509 C   0  0  0  0  0  0  0  0  0  0  0  0
   15.5182  -12.3704  -15.9387 C   0  0  0  0  0  0  0  0  0  0  0  0
   14.8698  -13.2303  -14.9460 C   0  0  0  0  0  0  0  0  0  0  0  0
   15.3392  -13.3619  -13.8014 O   0  0  0  0  0  0  0  0  0  0  0  0
   18.4888  -10.0080  -15.7669 C   0  0  0  0  0  0  0  0  0  0  0  0
   19.6767  -10.3444  -15.5425 O   0  0  0  0  0  0  0  0  0  0  0  0
   13.7077  -13.9106  -15.2946 O   0  0  0  0  0  0  0  0  0  0  0  0
   18.0735   -8.7040  -15.4010 N   0  0  0  0  0  0  0  0  0  0  0  0
   18.9769   -7.7002  -14.8798 C   0  0  1  0  0  0  0  0  0  0  0  0
   20.1928   -7.5191  -15.7043 C   0  0  0  0  0  0  0  0  0  0  0  0
   20.9934   -6.3755  -15.2224 C   0  0  0  0  0  0  0  0  0  0  0  0
   21.1051   -5.1727  -15.9053 C   0  0  0  0  0  0  0  0  0  0  0  0
   21.8721   -4.1529  -15.3869 C   0  0  0  0  0  0  0  0  0  0  0  0
   22.5503   -4.2795  -14.1888 C   0  0  0  0  0  0  0  0  0  0  0  0
   22.4499   -5.4610  -13.5028 C   0  0  0  0  0  0  0  0  0  0  0  0
   21.6881   -6.4769  -14.0156 C   0  0  0  0  0  0  0  0  0  0  0  0
   18.2611   -6.4607  -14.4916 C   0  0  0  0  0  0  0  0  0  0  0  0
   17.1737   -5.9822  -15.2510 O   0  0  0  0  0  0  0  0  0  0  0  0
   18.5357   -5.7487  -13.4958 O   0  0  0  0  0  0  0  0  0  0  0  0
  2  1  1  0
  3  4  1  0
  3  2  1  0
  4  5  1  0
  5  1  1  0
  5  6  1  1
  6  7  2  0
  8  6  1  0
  8  9  1  0
  9 14  1  0
  9 10  1  1
 11 10  1  0
 12 11  1  0
 12 16  1  0
 13 12  2  0
 14 15  2  0
 17 18  1  0
 17 14  1  0
 18 26  1  0
 18 19  1  6
 20 19  1  0
 21 20  2  0
 22 21  1  0
 23 22  2  0
 23 24  1  0
 24 25  2  0
 25 20  1  0
 26 28  2  0
 26 27  1  0
M  END
$$$$
