PEF.pdb
     RDKit          3D

 28 29  0  0  1  0  0  0  0  0999 V2000
   19.1112  -12.7786  -16.6608 N   0  0  0  0  0  0  0  0  0  0  0  0
   18.6590  -14.1532  -16.8863 C   0  0  0  0  0  0  0  0  0  0  0  0
   18.6134  -14.2207  -18.3908 C   0  0  0  0  0  0  0  0  0  0  0  0
   19.8175  -13.4025  -18.7892 C   0  0  0  0  0  0  0  0  0  0  0  0
   20.2503  -12.6905  -17.5201 C   0  0  1  0  0  0  0  0  0  0  0  0
   20.6801  -11.3141  -17.7963 C   0  0  0  0  0  0  0  0  0  0  0  0
   21.8037  -11.1430  -18.3342 O   0  0  0  0  0  0  0  0  0  0  0  0
   19.9229  -10.1530  -17.5022 N   0  0  0  0  0  0  0  0  0  0  0  0
   20.3610   -8.8367  -17.8644 C   0  0  1  0  0  0  0  0  0  0  0  0
   19.4823   -8.1868  -18.9090 C   0  0  0  0  0  0  0  0  0  0  0  0
   20.0437   -6.8445  -19.3234 C   0  0  0  0  0  0  0  0  0  0  0  0
   19.1581   -6.1974  -20.2940 C   0  0  0  0  0  0  0  0  0  0  0  0
   18.8493   -6.7591  -21.3602 O   0  0  0  0  0  0  0  0  0  0  0  0
   20.4282   -7.9702  -16.6314 C   0  0  0  0  0  0  0  0  0  0  0  0
   19.4178   -7.7982  -15.9073 O   0  0  0  0  0  0  0  0  0  0  0  0
   18.6553   -4.9311  -20.0136 O   0  0  0  0  0  0  0  0  0  0  0  0
   21.6392   -7.3319  -16.2671 N   0  0  0  0  0  0  0  0  0  0  0  0
   21.7641   -6.4651  -15.1145 C   0  0  1  0  0  0  0  0  0  0  0  0
   22.4278   -7.1132  -13.9611 C   0  0  0  0  0  0  0  0  0  0  0  0
   23.4611   -8.0669  -14.4123 C   0  0  0  0  0  0  0  0  0  0  0  0
   24.4942   -7.7303  -15.2753 C   0  0  0  0  0  0  0  0  0  0  0  0
   25.4200   -8.6796  -15.6477 C   0  0  0  0  0  0  0  0  0  0  0  0
   25.3624   -9.9823  -15.1882 C   0  0  0  0  0  0  0  0  0  0  0  0
   24.3482  -10.3301  -14.3354 C   0  0  0  0  0  0  0  0  0  0  0  0
   23.4262   -9.3884  -13.9633 C   0  0  0  0  0  0  0  0  0  0  0  0
   22.2679   -5.1207  -15.4864 C   0  0  0  0  0  0  0  0  0  0  0  0
   22.2792   -4.0654  -14.5513 O   0  0  0  0  0  0  0  0  0  0  0  0
   22.7150   -4.8025  -16.6146 O   0  0  0  0  0  0  0  0  0  0  0  0
  2  1  1  0
  3  4  1  0
  3  2  1  0
  4  5  1  0
  5  1  1  0
  5  6  1  6
  6  7  2  0
  8  6  1  0
  8  9  1  0
  9 14  1  0
  9 10  1  6
 11 10  1  0
 12 11  1  0
 12 16  1  0
 13 12  2  0
 14 15  2  0
 17 18  1  0
 17 14  1  0
 18 26  1  0
 18 19  1  1
 20 19  1  0
 21 20  2  0
 22 21  1  0
 23 22  2  0
 23 24  1  0
 24 25  2  0
 25 20  1  0
 26 28  2  0
 26 27  1  0
M  END
$$$$
