PEF.pdb
     RDKit          3D

 28 29  0  0  1  0  0  0  0  0999 V2000
   27.2525  -22.0854  -17.9897 N   0  0  0  0  0  0  0  0  0  0  0  0
   28.1635  -22.5890  -19.0199 C   0  0  0  0  0  0  0  0  0  0  0  0
   29.4175  -21.8043  -18.7340 C   0  0  0  0  0  0  0  0  0  0  0  0
   29.4242  -21.7410  -17.2260 C   0  0  0  0  0  0  0  0  0  0  0  0
   28.0418  -22.2052  -16.8038 C   0  0  1  0  0  0  0  0  0  0  0  0
   27.5342  -21.4205  -15.6715 C   0  0  0  0  0  0  0  0  0  0  0  0
   28.1940  -21.4333  -14.6012 O   0  0  0  0  0  0  0  0  0  0  0  0
   26.3496  -20.6431  -15.6890 N   0  0  0  0  0  0  0  0  0  0  0  0
   25.9648  -19.8025  -14.5931 C   0  0  1  0  0  0  0  0  0  0  0  0
   25.1182  -18.6246  -15.0193 C   0  0  0  0  0  0  0  0  0  0  0  0
   25.5601  -18.1064  -16.3701 C   0  0  0  0  0  0  0  0  0  0  0  0
   24.6749  -17.0293  -16.8191 C   0  0  0  0  0  0  0  0  0  0  0  0
   23.4849  -17.2500  -17.1068 O   0  0  0  0  0  0  0  0  0  0  0  0
   25.2305  -20.6226  -13.5618 C   0  0  0  0  0  0  0  0  0  0  0  0
   24.2932  -21.3882  -13.8935 O   0  0  0  0  0  0  0  0  0  0  0  0
   25.1792  -15.7372  -16.9241 O   0  0  0  0  0  0  0  0  0  0  0  0
   25.5876  -20.5427  -12.1932 N   0  0  0  0  0  0  0  0  0  0  0  0
   24.9397  -21.3186  -11.1572 C   0  0  1  0  0  0  0  0  0  0  0  0
   25.8914  -21.9906  -10.2442 C   0  0  0  0  0  0  0  0  0  0  0  0
   26.6175  -21.0054   -9.4179 C   0  0  0  0  0  0  0  0  0  0  0  0
   28.0002  -20.9627   -9.3091 C   0  0  0  0  0  0  0  0  0  0  0  0
   28.6016  -20.0100   -8.5169 C   0  0  0  0  0  0  0  0  0  0  0  0
   27.8701  -19.0737   -7.8099 C   0  0  0  0  0  0  0  0  0  0  0  0
   26.5040  -19.1029   -7.9070 C   0  0  0  0  0  0  0  0  0  0  0  0
   25.9030  -20.0490   -8.6938 C   0  0  0  0  0  0  0  0  0  0  0  0
   23.8368  -20.5660  -10.5115 C   0  0  0  0  0  0  0  0  0  0  0  0
   23.7100  -19.1725  -10.6847 O   0  0  0  0  0  0  0  0  0  0  0  0
   22.9474  -21.0690   -9.7834 O   0  0  0  0  0  0  0  0  0  0  0  0
  2  1  1  0
  3  4  1  0
  3  2  1  0
  4  5  1  0
  5  1  1  0
  5  6  1  1
  6  7  2  0
  8  6  1  0
  8  9  1  0
  9 14  1  0
  9 10  1  6
 11 10  1  0
 12 11  1  0
 12 16  1  0
 13 12  2  0
 14 15  2  0
 17 18  1  0
 17 14  1  0
 18 26  1  0
 18 19  1  1
 20 19  1  0
 21 20  2  0
 22 21  1  0
 23 22  2  0
 23 24  1  0
 24 25  2  0
 25 20  1  0
 26 28  2  0
 26 27  1  0
M  END
$$$$
