PEF.pdb
     RDKit          3D

 28 29  0  0  1  0  0  0  0  0999 V2000
   27.7232  -20.5616  -15.4773 N   0  0  0  0  0  0  0  0  0  0  0  0
   28.4030  -20.0784  -16.6811 C   0  0  0  0  0  0  0  0  0  0  0  0
   28.2371  -18.5865  -16.5520 C   0  0  0  0  0  0  0  0  0  0  0  0
   28.3911  -18.3700  -15.0662 C   0  0  0  0  0  0  0  0  0  0  0  0
   28.3133  -19.7569  -14.4536 C   0  0  1  0  0  0  0  0  0  0  0  0
   27.5556  -19.7469  -13.1961 C   0  0  0  0  0  0  0  0  0  0  0  0
   27.9732  -19.0177  -12.2608 O   0  0  0  0  0  0  0  0  0  0  0  0
   26.3808  -20.5003  -12.9505 N   0  0  0  0  0  0  0  0  0  0  0  0
   25.4789  -20.1917  -11.8795 C   0  0  1  0  0  0  0  0  0  0  0  0
   24.0830  -20.7254  -12.1086 C   0  0  0  0  0  0  0  0  0  0  0  0
   23.1567  -20.3045  -10.9891 C   0  0  0  0  0  0  0  0  0  0  0  0
   21.7975  -20.7887  -11.2408 C   0  0  0  0  0  0  0  0  0  0  0  0
   21.2564  -21.6147  -10.4840 O   0  0  0  0  0  0  0  0  0  0  0  0
   26.0328  -20.7283  -10.5830 C   0  0  0  0  0  0  0  0  0  0  0  0
   26.4795  -21.8985  -10.5069 O   0  0  0  0  0  0  0  0  0  0  0  0
   21.1029  -20.3131  -12.3481 O   0  0  0  0  0  0  0  0  0  0  0  0
   26.0586  -19.9166   -9.4223 N   0  0  0  0  0  0  0  0  0  0  0  0
   26.6967  -20.3185   -8.1867 C   0  0  1  0  0  0  0  0  0  0  0  0
   27.7052  -19.3487   -7.7037 C   0  0  0  0  0  0  0  0  0  0  0  0
   28.0617  -19.6132   -6.2952 C   0  0  0  0  0  0  0  0  0  0  0  0
   27.3714  -19.0830   -5.2145 C   0  0  0  0  0  0  0  0  0  0  0  0
   27.7676  -19.3797   -3.9292 C   0  0  0  0  0  0  0  0  0  0  0  0
   28.8475  -20.2013   -3.6642 C   0  0  0  0  0  0  0  0  0  0  0  0
   29.5392  -20.7324   -4.7206 C   0  0  0  0  0  0  0  0  0  0  0  0
   29.1478  -20.4394   -5.9998 C   0  0  0  0  0  0  0  0  0  0  0  0
   25.7110  -20.7891   -7.1835 C   0  0  0  0  0  0  0  0  0  0  0  0
   26.0911  -21.6692   -6.1496 O   0  0  0  0  0  0  0  0  0  0  0  0
   24.4992  -20.4657   -7.1534 O   0  0  0  0  0  0  0  0  0  0  0  0
  2  1  1  0
  3  4  1  0
  3  2  1  0
  4  5  1  0
  5  1  1  0
  5  6  1  1
  6  7  2  0
  8  6  1  0
  8  9  1  0
  9 14  1  0
  9 10  1  6
 11 10  1  0
 12 11  1  0
 12 16  1  0
 13 12  2  0
 14 15  2  0
 17 18  1  0
 17 14  1  0
 18 26  1  0
 18 19  1  1
 20 19  1  0
 21 20  2  0
 22 21  1  0
 23 22  2  0
 23 24  1  0
 24 25  2  0
 25 20  1  0
 26 28  2  0
 26 27  1  0
M  END
$$$$
