PEF.pdb
     RDKit          3D

 28 29  0  0  1  0  0  0  0  0999 V2000
   27.9223  -20.3732  -16.2562 N   0  0  0  0  0  0  0  0  0  0  0  0
   29.0218  -21.0906  -16.9051 C   0  0  0  0  0  0  0  0  0  0  0  0
   29.8991  -21.4392  -15.7308 C   0  0  0  0  0  0  0  0  0  0  0  0
   28.8898  -21.7580  -14.6549 C   0  0  0  0  0  0  0  0  0  0  0  0
   27.5609  -21.2660  -15.1998 C   0  0  1  0  0  0  0  0  0  0  0  0
   26.7470  -20.6429  -14.1487 C   0  0  0  0  0  0  0  0  0  0  0  0
   26.8948  -19.4119  -13.9392 O   0  0  0  0  0  0  0  0  0  0  0  0
   25.7998  -21.3243  -13.3447 N   0  0  0  0  0  0  0  0  0  0  0  0
   25.0995  -20.6830  -12.2704 C   0  0  1  0  0  0  0  0  0  0  0  0
   23.6175  -20.9821  -12.2677 C   0  0  0  0  0  0  0  0  0  0  0  0
   22.9286  -20.2733  -11.1224 C   0  0  0  0  0  0  0  0  0  0  0  0
   21.4968  -20.5816  -11.1175 C   0  0  0  0  0  0  0  0  0  0  0  0
   20.9987  -21.3467  -11.9625 O   0  0  0  0  0  0  0  0  0  0  0  0
   25.7130  -21.0902  -10.9539 C   0  0  0  0  0  0  0  0  0  0  0  0
   25.9703  -22.2931  -10.7060 O   0  0  0  0  0  0  0  0  0  0  0  0
   20.6830  -20.0055  -10.1476 O   0  0  0  0  0  0  0  0  0  0  0  0
   26.0113  -20.1169   -9.9687 N   0  0  0  0  0  0  0  0  0  0  0  0
   26.6385  -20.4346   -8.7034 C   0  0  1  0  0  0  0  0  0  0  0  0
   27.6147  -19.4146   -8.2590 C   0  0  0  0  0  0  0  0  0  0  0  0
   28.1301  -19.7271   -6.9109 C   0  0  0  0  0  0  0  0  0  0  0  0
   29.0764  -20.7100   -6.6579 C   0  0  0  0  0  0  0  0  0  0  0  0
   29.5066  -20.9393   -5.3698 C   0  0  0  0  0  0  0  0  0  0  0  0
   29.0251  -20.2158   -4.2944 C   0  0  0  0  0  0  0  0  0  0  0  0
   28.0904  -19.2420   -4.5280 C   0  0  0  0  0  0  0  0  0  0  0  0
   27.6607  -19.0116   -5.8077 C   0  0  0  0  0  0  0  0  0  0  0  0
   25.6482  -20.8748   -7.6909 C   0  0  0  0  0  0  0  0  0  0  0  0
   24.3332  -20.3662   -7.6925 O   0  0  0  0  0  0  0  0  0  0  0  0
   25.8690  -21.7053   -6.7768 O   0  0  0  0  0  0  0  0  0  0  0  0
  2  1  1  0
  3  4  1  0
  3  2  1  0
  4  5  1  0
  5  1  1  0
  5  6  1  1
  6  7  2  0
  8  6  1  0
  8  9  1  0
  9 14  1  0
  9 10  1  1
 11 10  1  0
 12 11  1  0
 12 16  1  0
 13 12  2  0
 14 15  2  0
 17 18  1  0
 17 14  1  0
 18 26  1  0
 18 19  1  1
 20 19  1  0
 21 20  2  0
 22 21  1  0
 23 22  2  0
 23 24  1  0
 24 25  2  0
 25 20  1  0
 26 28  2  0
 26 27  1  0
M  END
$$$$
