PEF.pdb
     RDKit          3D

 28 29  0  0  1  0  0  0  0  0999 V2000
   14.2686  -23.7634   -4.1984 N   0  0  0  0  0  0  0  0  0  0  0  0
   13.6000  -23.7435   -5.5012 C   0  0  0  0  0  0  0  0  0  0  0  0
   12.1754  -24.0546   -5.1223 C   0  0  0  0  0  0  0  0  0  0  0  0
   12.0170  -23.3127   -3.8175 C   0  0  0  0  0  0  0  0  0  0  0  0
   13.4258  -22.9166   -3.4134 C   0  0  1  0  0  0  0  0  0  0  0  0
   13.6284  -23.0552   -1.9659 C   0  0  0  0  0  0  0  0  0  0  0  0
   12.9736  -22.3001   -1.2030 O   0  0  0  0  0  0  0  0  0  0  0  0
   14.5109  -23.9804   -1.3549 N   0  0  0  0  0  0  0  0  0  0  0  0
   14.6137  -24.1207    0.0683 C   0  0  1  0  0  0  0  0  0  0  0  0
   15.2143  -25.4421    0.4911 C   0  0  0  0  0  0  0  0  0  0  0  0
   16.5994  -25.6138   -0.0924 C   0  0  0  0  0  0  0  0  0  0  0  0
   17.1292  -26.9407    0.2299 C   0  0  0  0  0  0  0  0  0  0  0  0
   16.9967  -27.8965   -0.5552 O   0  0  0  0  0  0  0  0  0  0  0  0
   15.4241  -22.9793    0.6306 C   0  0  0  0  0  0  0  0  0  0  0  0
   16.3425  -22.4479   -0.0394 O   0  0  0  0  0  0  0  0  0  0  0  0
   17.7921  -27.1304    1.4380 O   0  0  0  0  0  0  0  0  0  0  0  0
   15.1615  -22.4844    1.9317 N   0  0  0  0  0  0  0  0  0  0  0  0
   15.6919  -21.2318    2.4266 C   0  0  1  0  0  0  0  0  0  0  0  0
   15.4964  -20.1008    1.4921 C   0  0  0  0  0  0  0  0  0  0  0  0
   16.0726  -18.8562    2.0396 C   0  0  0  0  0  0  0  0  0  0  0  0
   15.3233  -17.8760    2.6747 C   0  0  0  0  0  0  0  0  0  0  0  0
   15.9378  -16.7426    3.1593 C   0  0  0  0  0  0  0  0  0  0  0  0
   17.2994  -16.5355    3.0373 C   0  0  0  0  0  0  0  0  0  0  0  0
   18.0527  -17.4941    2.4127 C   0  0  0  0  0  0  0  0  0  0  0  0
   17.4447  -18.6221    1.9297 C   0  0  0  0  0  0  0  0  0  0  0  0
   15.3053  -20.9870    3.8373 C   0  0  0  0  0  0  0  0  0  0  0  0
   16.1963  -20.3668    4.7371 O   0  0  0  0  0  0  0  0  0  0  0  0
   14.1998  -21.2901    4.3472 O   0  0  0  0  0  0  0  0  0  0  0  0
  2  1  1  0
  3  4  1  0
  3  2  1  0
  4  5  1  0
  5  1  1  0
  5  6  1  1
  6  7  2  0
  8  6  1  0
  8  9  1  0
  9 14  1  0
  9 10  1  6
 11 10  1  0
 12 11  1  0
 12 16  1  0
 13 12  2  0
 14 15  2  0
 17 18  1  0
 17 14  1  0
 18 26  1  0
 18 19  1  6
 20 19  1  0
 21 20  2  0
 22 21  1  0
 23 22  2  0
 23 24  1  0
 24 25  2  0
 25 20  1  0
 26 28  2  0
 26 27  1  0
M  END
$$$$
