PEF.pdb
     RDKit          3D

 28 29  0  0  1  0  0  0  0  0999 V2000
   27.5202  -20.6180  -15.2171 N   0  0  0  0  0  0  0  0  0  0  0  0
   28.1084  -20.1679  -16.4805 C   0  0  0  0  0  0  0  0  0  0  0  0
   27.7511  -18.7042  -16.4838 C   0  0  0  0  0  0  0  0  0  0  0  0
   27.9030  -18.3296  -15.0296 C   0  0  0  0  0  0  0  0  0  0  0  0
   28.0188  -19.6505  -14.2902 C   0  0  1  0  0  0  0  0  0  0  0  0
   27.2898  -19.6187  -13.0162 C   0  0  0  0  0  0  0  0  0  0  0  0
   27.5832  -18.7171  -12.1903 O   0  0  0  0  0  0  0  0  0  0  0  0
   26.2729  -20.5312  -12.6400 N   0  0  0  0  0  0  0  0  0  0  0  0
   25.4068  -20.2994  -11.5211 C   0  0  1  0  0  0  0  0  0  0  0  0
   24.0744  -21.0024  -11.6482 C   0  0  0  0  0  0  0  0  0  0  0  0
   23.2367  -20.3725  -12.7391 C   0  0  0  0  0  0  0  0  0  0  0  0
   21.8981  -20.9665  -12.7631 C   0  0  0  0  0  0  0  0  0  0  0  0
   20.9504  -20.4465  -12.1474 O   0  0  0  0  0  0  0  0  0  0  0  0
   26.0990  -20.7259  -10.2505 C   0  0  0  0  0  0  0  0  0  0  0  0
   26.7551  -21.7944  -10.1999 O   0  0  0  0  0  0  0  0  0  0  0  0
   21.6877  -22.1339  -13.4895 O   0  0  0  0  0  0  0  0  0  0  0  0
   26.0202  -19.9237   -9.0855 N   0  0  0  0  0  0  0  0  0  0  0  0
   26.6913  -20.2553   -7.8466 C   0  0  1  0  0  0  0  0  0  0  0  0
   27.5177  -19.1498   -7.3118 C   0  0  0  0  0  0  0  0  0  0  0  0
   28.0763  -19.4983   -5.9899 C   0  0  0  0  0  0  0  0  0  0  0  0
   27.6109  -18.9692   -4.7944 C   0  0  0  0  0  0  0  0  0  0  0  0
   28.1863  -19.3472   -3.6015 C   0  0  0  0  0  0  0  0  0  0  0  0
   29.2307  -20.2512   -3.5432 C   0  0  0  0  0  0  0  0  0  0  0  0
   29.7013  -20.7824   -4.7149 C   0  0  0  0  0  0  0  0  0  0  0  0
   29.1313  -20.4086   -5.9027 C   0  0  0  0  0  0  0  0  0  0  0  0
   25.7767  -20.9122   -6.8815 C   0  0  0  0  0  0  0  0  0  0  0  0
   24.3794  -20.8782   -7.0670 O   0  0  0  0  0  0  0  0  0  0  0  0
   26.1363  -21.5360   -5.8540 O   0  0  0  0  0  0  0  0  0  0  0  0
  2  1  1  0
  3  4  1  0
  3  2  1  0
  4  5  1  0
  5  1  1  0
  5  6  1  1
  6  7  2  0
  8  6  1  0
  8  9  1  0
  9 14  1  0
  9 10  1  6
 11 10  1  0
 12 11  1  0
 12 16  1  0
 13 12  2  0
 14 15  2  0
 17 18  1  0
 17 14  1  0
 18 26  1  0
 18 19  1  1
 20 19  1  0
 21 20  2  0
 22 21  1  0
 23 22  2  0
 23 24  1  0
 24 25  2  0
 25 20  1  0
 26 28  2  0
 26 27  1  0
M  END
$$$$
