PEF.pdb
     RDKit          3D

 28 29  0  0  1  0  0  0  0  0999 V2000
   28.2264  -21.5857  -14.5128 N   0  0  0  0  0  0  0  0  0  0  0  0
   28.8752  -21.7759  -15.8119 C   0  0  0  0  0  0  0  0  0  0  0  0
   28.2751  -20.6576  -16.6238 C   0  0  0  0  0  0  0  0  0  0  0  0
   28.1858  -19.5369  -15.6168 C   0  0  0  0  0  0  0  0  0  0  0  0
   28.4373  -20.1927  -14.2708 C   0  0  1  0  0  0  0  0  0  0  0  0
   27.5668  -19.6329  -13.2295 C   0  0  0  0  0  0  0  0  0  0  0  0
   27.2098  -18.4324  -13.3408 O   0  0  0  0  0  0  0  0  0  0  0  0
   27.0928  -20.3441  -12.0992 N   0  0  0  0  0  0  0  0  0  0  0  0
   26.0608  -19.8323  -11.2455 C   0  0  1  0  0  0  0  0  0  0  0  0
   24.7095  -19.7722  -11.9208 C   0  0  0  0  0  0  0  0  0  0  0  0
   24.7649  -20.4110  -13.2910 C   0  0  0  0  0  0  0  0  0  0  0  0
   23.5503  -20.1017  -14.0489 C   0  0  0  0  0  0  0  0  0  0  0  0
   23.4247  -20.4497  -15.2366 O   0  0  0  0  0  0  0  0  0  0  0  0
   25.9784  -20.6714   -9.9947 C   0  0  0  0  0  0  0  0  0  0  0  0
   26.2477  -21.8968  -10.0202 O   0  0  0  0  0  0  0  0  0  0  0  0
   22.5207  -19.4056  -13.4242 O   0  0  0  0  0  0  0  0  0  0  0  0
   25.5937  -20.0880   -8.7624 N   0  0  0  0  0  0  0  0  0  0  0  0
   25.4492  -20.8446   -7.5368 C   0  0  1  0  0  0  0  0  0  0  0  0
   25.6710  -20.0357   -6.3173 C   0  0  0  0  0  0  0  0  0  0  0  0
   27.1104  -19.9366   -6.0024 C   0  0  0  0  0  0  0  0  0  0  0  0
   27.9444  -21.0367   -5.8610 C   0  0  0  0  0  0  0  0  0  0  0  0
   29.2782  -20.8589   -5.5673 C   0  0  0  0  0  0  0  0  0  0  0  0
   29.8338  -19.6035   -5.4039 C   0  0  0  0  0  0  0  0  0  0  0  0
   29.0234  -18.5075   -5.5404 C   0  0  0  0  0  0  0  0  0  0  0  0
   27.6967  -18.6809   -5.8323 C   0  0  0  0  0  0  0  0  0  0  0  0
   24.2286  -21.6869   -7.5481 C   0  0  0  0  0  0  0  0  0  0  0  0
   24.0557  -22.7272   -6.6121 O   0  0  0  0  0  0  0  0  0  0  0  0
   23.2723  -21.5636   -8.3508 O   0  0  0  0  0  0  0  0  0  0  0  0
  2  1  1  0
  3  4  1  0
  3  2  1  0
  4  5  1  0
  5  1  1  0
  5  6  1  1
  6  7  2  0
  8  6  1  0
  8  9  1  0
  9 14  1  0
  9 10  1  6
 11 10  1  0
 12 11  1  0
 12 16  1  0
 13 12  2  0
 14 15  2  0
 17 18  1  0
 17 14  1  0
 18 26  1  0
 18 19  1  1
 20 19  1  0
 21 20  2  0
 22 21  1  0
 23 22  2  0
 23 24  1  0
 24 25  2  0
 25 20  1  0
 26 28  2  0
 26 27  1  0
M  END
$$$$
