VNY.pdb
     RDKit          3D

 28 28  0  0  1  0  0  0  0  0999 V2000
   22.7559  -22.3367  -20.3688 C   0  0  0  0  0  0  0  0  0  0  0  0
   21.6356  -21.6888  -19.5911 C   0  0  1  0  0  0  0  0  0  0  0  0
   20.4020  -22.5651  -19.8011 C   0  0  0  0  0  0  0  0  0  0  0  0
   21.9855  -21.7164  -18.1189 C   0  0  2  0  0  0  0  0  0  0  0  0
   22.8297  -22.8523  -17.8753 N   0  0  0  0  0  0  0  0  0  0  0  0
   20.7575  -21.8112  -17.2898 C   0  0  0  0  0  0  0  0  0  0  0  0
   19.8391  -20.9653  -17.3255 O   0  0  0  0  0  0  0  0  0  0  0  0
   17.2330  -25.6485  -14.2131 N   0  0  0  0  0  0  0  0  0  0  0  0
   17.5162  -24.3880  -14.8386 C   0  0  0  0  0  0  0  0  0  0  0  0
   16.7183  -23.4595  -14.5812 O   0  0  0  0  0  0  0  0  0  0  0  0
   18.6961  -24.2650  -15.7217 C   0  0  0  0  0  0  0  0  0  0  0  0
   19.4916  -23.0190  -15.4858 C   0  0  2  0  0  0  0  0  0  0  0  0
   20.5952  -22.9113  -16.4021 N   0  0  0  0  0  0  0  0  0  0  0  0
   20.0030  -22.9647  -14.0857 C   0  0  0  0  0  0  0  0  0  0  0  0
   20.5630  -23.9694  -13.5805 O   0  0  0  0  0  0  0  0  0  0  0  0
   26.1538  -20.0442   -9.0435 O   0  0  0  0  0  0  0  0  0  0  0  0
   25.1537  -20.5904   -9.8361 C   0  0  0  0  0  0  0  0  0  0  0  0
   23.8399  -20.6131   -9.4240 C   0  0  0  0  0  0  0  0  0  0  0  0
   22.8669  -21.1603  -10.2284 C   0  0  0  0  0  0  0  0  0  0  0  0
   23.1436  -21.7081  -11.4711 C   0  0  0  0  0  0  0  0  0  0  0  0
   22.0591  -22.2977  -12.2772 C   0  0  0  0  0  0  0  0  0  0  0  0
   20.9917  -21.2850  -12.5092 C   0  0  2  0  0  0  0  0  0  0  0  0
   19.8851  -21.8111  -13.2818 N   0  0  0  0  0  0  0  0  0  0  0  0
   21.4442  -20.0337  -13.1511 C   0  0  0  0  0  0  0  0  0  0  0  0
   21.8928  -18.9505  -12.3987 O   0  0  0  0  0  0  0  0  0  0  0  0
   24.4660  -21.6725  -11.8589 C   0  0  0  0  0  0  0  0  0  0  0  0
   25.4555  -21.1285  -11.0673 C   0  0  0  0  0  0  0  0  0  0  0  0
   21.4465  -19.8871  -14.3934 O   0  0  0  0  0  0  0  0  0  0  0  0
  2  3  1  1
  2  1  1  0
  4  5  1  6
  4  2  1  0
  6  4  1  0
  7  6  2  0
  9 11  1  0
  9  8  1  0
 10  9  2  0
 12 11  1  1
 12 13  1  0
 13  6  1  0
 14 12  1  0
 14 15  2  0
 17 16  1  0
 17 18  2  0
 19 18  1  0
 20 19  2  0
 21 20  1  0
 22 21  1  6
 23 22  1  0
 23 14  1  0
 24 22  1  0
 25 24  1  0
 26 27  2  0
 26 20  1  0
 27 17  1  0
 28 24  2  0
M  END
$$$$
