VNY.pdb
     RDKit          3D

 28 28  0  0  1  0  0  0  0  0999 V2000
   22.1571  -16.1744  -20.8950 C   0  0  0  0  0  0  0  0  0  0  0  0
   23.1589  -17.2970  -20.7693 C   0  0  1  0  0  0  0  0  0  0  0  0
   24.5236  -16.6377  -20.5777 C   0  0  0  0  0  0  0  0  0  0  0  0
   22.8435  -18.0935  -19.5217 C   0  0  2  0  0  0  0  0  0  0  0  0
   22.2030  -17.2214  -18.5774 N   0  0  0  0  0  0  0  0  0  0  0  0
   24.0842  -18.6557  -18.9308 C   0  0  0  0  0  0  0  0  0  0  0  0
   24.8043  -19.4919  -19.5158 O   0  0  0  0  0  0  0  0  0  0  0  0
   27.4544  -17.8513  -18.8253 N   0  0  0  0  0  0  0  0  0  0  0  0
   27.4886  -17.2525  -17.5212 C   0  0  0  0  0  0  0  0  0  0  0  0
   28.3186  -16.3295  -17.3660 O   0  0  0  0  0  0  0  0  0  0  0  0
   26.5705  -17.7458  -16.4719 C   0  0  0  0  0  0  0  0  0  0  0  0
   25.6271  -18.8040  -16.9527 C   0  0  2  0  0  0  0  0  0  0  0  0
   24.4947  -18.2367  -17.6345 N   0  0  0  0  0  0  0  0  0  0  0  0
   25.1507  -19.6532  -15.8227 C   0  0  0  0  0  0  0  0  0  0  0  0
   25.9797  -20.2337  -15.0784 O   0  0  0  0  0  0  0  0  0  0  0  0
   26.2778  -21.8518   -8.8740 O   0  0  0  0  0  0  0  0  0  0  0  0
   25.6766  -21.1880   -9.9346 C   0  0  0  0  0  0  0  0  0  0  0  0
   26.4007  -20.7815  -11.0332 C   0  0  0  0  0  0  0  0  0  0  0  0
   25.7811  -20.1251  -12.0717 C   0  0  0  0  0  0  0  0  0  0  0  0
   24.4247  -19.8406  -12.0747 C   0  0  0  0  0  0  0  0  0  0  0  0
   23.8237  -19.1159  -13.2093 C   0  0  0  0  0  0  0  0  0  0  0  0
   23.2867  -20.0865  -14.2035 C   0  0  2  0  0  0  0  0  0  0  0  0
   23.7805  -19.8404  -15.5429 N   0  0  0  0  0  0  0  0  0  0  0  0
   21.8129  -20.1679  -14.2666 C   0  0  0  0  0  0  0  0  0  0  0  0
   21.0605  -20.6015  -13.1773 O   0  0  0  0  0  0  0  0  0  0  0  0
   23.7240  -20.2583  -10.9633 C   0  0  0  0  0  0  0  0  0  0  0  0
   24.3266  -20.9174   -9.9126 C   0  0  0  0  0  0  0  0  0  0  0  0
   21.1734  -19.8535  -15.2947 O   0  0  0  0  0  0  0  0  0  0  0  0
  2  3  1  1
  2  1  1  0
  4  5  1  1
  4  2  1  0
  6  4  1  0
  7  6  2  0
  9 11  1  0
  9  8  1  0
 10  9  2  0
 12 11  1  1
 12 13  1  0
 13  6  1  0
 14 12  1  0
 14 15  2  0
 17 16  1  0
 17 18  2  0
 19 18  1  0
 20 19  2  0
 21 20  1  0
 22 21  1  1
 23 22  1  0
 23 14  1  0
 24 22  1  0
 25 24  1  0
 26 27  2  0
 26 20  1  0
 27 17  1  0
 28 24  2  0
M  END
$$$$
