VNY.pdb
     RDKit          3D

 28 28  0  0  1  0  0  0  0  0999 V2000
   22.5446  -17.0464  -15.6898 C   0  0  0  0  0  0  0  0  0  0  0  0
   22.6258  -18.4749  -15.2079 C   0  0  1  0  0  0  0  0  0  0  0  0
   23.3939  -19.2482  -16.2783 C   0  0  0  0  0  0  0  0  0  0  0  0
   23.4360  -18.5123  -13.9301 C   0  0  2  0  0  0  0  0  0  0  0  0
   24.5381  -17.6016  -14.0659 N   0  0  0  0  0  0  0  0  0  0  0  0
   23.9417  -19.8838  -13.6698 C   0  0  0  0  0  0  0  0  0  0  0  0
   23.2002  -20.8866  -13.6026 O   0  0  0  0  0  0  0  0  0  0  0  0
   25.4514  -23.8157  -14.4187 N   0  0  0  0  0  0  0  0  0  0  0  0
   26.6656  -23.1249  -14.7484 C   0  0  0  0  0  0  0  0  0  0  0  0
   27.4307  -23.7149  -15.5432 O   0  0  0  0  0  0  0  0  0  0  0  0
   26.9321  -21.7994  -14.1489 C   0  0  0  0  0  0  0  0  0  0  0  0
   25.8976  -21.3749  -13.1537 C   0  0  2  0  0  0  0  0  0  0  0  0
   25.3369  -20.0921  -13.4840 N   0  0  0  0  0  0  0  0  0  0  0  0
   26.4654  -21.3274  -11.7752 C   0  0  0  0  0  0  0  0  0  0  0  0
   27.7078  -21.3987  -11.6032 O   0  0  0  0  0  0  0  0  0  0  0  0
   29.1765  -19.6312   -3.8786 O   0  0  0  0  0  0  0  0  0  0  0  0
   28.7131  -19.7246   -5.1837 C   0  0  0  0  0  0  0  0  0  0  0  0
   27.8605  -18.7822   -5.7143 C   0  0  0  0  0  0  0  0  0  0  0  0
   27.4153  -18.8974   -7.0112 C   0  0  0  0  0  0  0  0  0  0  0  0
   27.7888  -19.9428   -7.8410 C   0  0  0  0  0  0  0  0  0  0  0  0
   27.2609  -20.0207   -9.2153 C   0  0  0  0  0  0  0  0  0  0  0  0
   26.2073  -21.0707   -9.2950 C   0  0  2  0  0  0  0  0  0  0  0  0
   25.6544  -21.2032  -10.6273 N   0  0  0  0  0  0  0  0  0  0  0  0
   25.0854  -20.9055   -8.3480 C   0  0  0  0  0  0  0  0  0  0  0  0
   25.1508  -21.4023   -7.0481 O   0  0  0  0  0  0  0  0  0  0  0  0
   28.6423  -20.8717   -7.2848 C   0  0  0  0  0  0  0  0  0  0  0  0
   29.0995  -20.7738   -5.9875 C   0  0  0  0  0  0  0  0  0  0  0  0
   24.0292  -20.3153   -8.6655 O   0  0  0  0  0  0  0  0  0  0  0  0
  2  3  1  6
  2  1  1  0
  4  5  1  6
  4  2  1  0
  6  4  1  0
  7  6  2  0
  9 11  1  0
  9  8  1  0
 10  9  2  0
 12 11  1  6
 12 13  1  0
 13  6  1  0
 14 12  1  0
 14 15  2  0
 17 16  1  0
 17 18  2  0
 19 18  1  0
 20 19  2  0
 21 20  1  0
 22 21  1  6
 23 22  1  0
 23 14  1  0
 24 22  1  0
 25 24  1  0
 26 27  2  0
 26 20  1  0
 27 17  1  0
 28 24  2  0
M  END
$$$$
