VNY.pdb
     RDKit          3D

 28 28  0  0  1  0  0  0  0  0999 V2000
   27.6851  -11.3066  -15.6961 C   0  0  0  0  0  0  0  0  0  0  0  0
   26.5106  -10.3640  -15.8036 C   0  0  1  0  0  0  0  0  0  0  0  0
   26.7550   -9.5106  -17.0468 C   0  0  0  0  0  0  0  0  0  0  0  0
   25.2540  -11.1761  -16.0316 C   0  0  2  0  0  0  0  0  0  0  0  0
   25.5109  -12.1233  -17.0801 N   0  0  0  0  0  0  0  0  0  0  0  0
   24.1217  -10.2943  -16.4123 C   0  0  0  0  0  0  0  0  0  0  0  0
   23.8176  -10.0419  -17.5972 O   0  0  0  0  0  0  0  0  0  0  0  0
   19.9740   -7.2690  -16.1913 N   0  0  0  0  0  0  0  0  0  0  0  0
   19.9754   -8.0543  -14.9899 C   0  0  0  0  0  0  0  0  0  0  0  0
   18.9506   -7.9647  -14.2780 O   0  0  0  0  0  0  0  0  0  0  0  0
   21.1499   -8.8960  -14.6745 C   0  0  0  0  0  0  0  0  0  0  0  0
   22.2542   -8.7811  -15.6786 C   0  0  2  0  0  0  0  0  0  0  0  0
   23.3282   -9.6949  -15.3947 N   0  0  0  0  0  0  0  0  0  0  0  0
   22.7888   -7.3896  -15.7329 C   0  0  0  0  0  0  0  0  0  0  0  0
   24.0168   -7.1803  -15.5709 O   0  0  0  0  0  0  0  0  0  0  0  0
   21.7302   -4.4887  -22.3663 O   0  0  0  0  0  0  0  0  0  0  0  0
   22.1900   -4.5747  -21.0594 C   0  0  0  0  0  0  0  0  0  0  0  0
   22.2188   -3.4740  -20.2322 C   0  0  0  0  0  0  0  0  0  0  0  0
   22.6792   -3.5856  -18.9404 C   0  0  0  0  0  0  0  0  0  0  0  0
   23.1303   -4.7826  -18.4070 C   0  0  0  0  0  0  0  0  0  0  0  0
   23.6305   -4.8325  -17.0210 C   0  0  0  0  0  0  0  0  0  0  0  0
   22.4861   -4.9244  -16.0720 C   0  0  2  0  0  0  0  0  0  0  0  0
   21.9613   -6.2702  -15.9629 N   0  0  0  0  0  0  0  0  0  0  0  0
   21.3581   -4.0152  -16.3610 C   0  0  0  0  0  0  0  0  0  0  0  0
   21.4847   -2.6339  -16.2311 O   0  0  0  0  0  0  0  0  0  0  0  0
   23.0907   -5.8679  -19.2561 C   0  0  0  0  0  0  0  0  0  0  0  0
   22.6329   -5.7765  -20.5537 C   0  0  0  0  0  0  0  0  0  0  0  0
   20.2417   -4.4388  -16.7339 O   0  0  0  0  0  0  0  0  0  0  0  0
  2  3  1  6
  2  1  1  0
  4  5  1  6
  4  2  1  0
  6  4  1  0
  7  6  2  0
  9 11  1  0
  9  8  1  0
 10  9  2  0
 12 11  1  1
 12 13  1  0
 13  6  1  0
 14 12  1  0
 14 15  2  0
 17 16  1  0
 17 18  2  0
 19 18  1  0
 20 19  2  0
 21 20  1  0
 22 21  1  6
 23 22  1  0
 23 14  1  0
 24 22  1  0
 25 24  1  0
 26 27  2  0
 26 20  1  0
 27 17  1  0
 28 24  2  0
M  END
$$$$
