VNY.pdb
     RDKit          3D

 28 28  0  0  1  0  0  0  0  0999 V2000
   25.9585  -32.2590   -9.2411 C   0  0  0  0  0  0  0  0  0  0  0  0
   25.1742  -32.6159   -8.0013 C   0  0  1  0  0  0  0  0  0  0  0  0
   23.7015  -32.4003   -8.3456 C   0  0  0  0  0  0  0  0  0  0  0  0
   25.3760  -34.0860   -7.7039 C   0  0  2  0  0  0  0  0  0  0  0  0
   25.1016  -34.8319   -8.9000 N   0  0  0  0  0  0  0  0  0  0  0  0
   24.4722  -34.5291   -6.6124 C   0  0  0  0  0  0  0  0  0  0  0  0
   23.3494  -35.0372   -6.8158 O   0  0  0  0  0  0  0  0  0  0  0  0
   26.2693  -37.3698   -3.3238 N   0  0  0  0  0  0  0  0  0  0  0  0
   24.9413  -36.8311   -3.4036 C   0  0  0  0  0  0  0  0  0  0  0  0
   24.0489  -37.6302   -3.7643 O   0  0  0  0  0  0  0  0  0  0  0  0
   24.7132  -35.4094   -3.0656 C   0  0  0  0  0  0  0  0  0  0  0  0
   24.0127  -34.6438   -4.1444 C   0  0  2  0  0  0  0  0  0  0  0  0
   24.8828  -34.3780   -5.2585 N   0  0  0  0  0  0  0  0  0  0  0  0
   23.4679  -33.3568   -3.6231 C   0  0  0  0  0  0  0  0  0  0  0  0
   23.6949  -32.2833   -4.2348 O   0  0  0  0  0  0  0  0  0  0  0  0
   19.2907  -26.4340   -0.9945 O   0  0  0  0  0  0  0  0  0  0  0  0
   19.7795  -27.6392   -1.4797 C   0  0  0  0  0  0  0  0  0  0  0  0
   21.0278  -27.7311   -2.0542 C   0  0  0  0  0  0  0  0  0  0  0  0
   21.4895  -28.9377   -2.5275 C   0  0  0  0  0  0  0  0  0  0  0  0
   20.7447  -30.1044   -2.4565 C   0  0  0  0  0  0  0  0  0  0  0  0
   21.2878  -31.3625   -3.0004 C   0  0  0  0  0  0  0  0  0  0  0  0
   22.1175  -32.0446   -1.9683 C   0  0  2  0  0  0  0  0  0  0  0  0
   22.6910  -33.2854   -2.4474 N   0  0  0  0  0  0  0  0  0  0  0  0
   21.4266  -32.3222   -0.6922 C   0  0  0  0  0  0  0  0  0  0  0  0
   21.4499  -31.4111    0.3614 O   0  0  0  0  0  0  0  0  0  0  0  0
   19.4995  -29.9842   -1.8773 C   0  0  0  0  0  0  0  0  0  0  0  0
   19.0190  -28.7841   -1.3970 C   0  0  0  0  0  0  0  0  0  0  0  0
   20.7913  -33.3820   -0.4973 O   0  0  0  0  0  0  0  0  0  0  0  0
  2  3  1  6
  2  1  1  0
  4  5  1  6
  4  2  1  0
  6  4  1  0
  7  6  2  0
  9 11  1  0
  9  8  1  0
 10  9  2  0
 12 11  1  1
 12 13  1  0
 13  6  1  0
 14 12  1  0
 14 15  2  0
 17 16  1  0
 17 18  2  0
 19 18  1  0
 20 19  2  0
 21 20  1  0
 22 21  1  6
 23 22  1  0
 23 14  1  0
 24 22  1  0
 25 24  1  0
 26 27  2  0
 26 20  1  0
 27 17  1  0
 28 24  2  0
M  END
$$$$
