VNY.pdb
     RDKit          3D

 28 28  0  0  1  0  0  0  0  0999 V2000
   21.4407  -19.8552  -21.5234 C   0  0  0  0  0  0  0  0  0  0  0  0
   21.8842  -19.8283  -20.0804 C   0  0  1  0  0  0  0  0  0  0  0  0
   20.8221  -19.0384  -19.3175 C   0  0  0  0  0  0  0  0  0  0  0  0
   21.8895  -21.2444  -19.5462 C   0  0  2  0  0  0  0  0  0  0  0  0
   20.5876  -21.8128  -19.7571 N   0  0  0  0  0  0  0  0  0  0  0  0
   22.2192  -21.2575  -18.0986 C   0  0  0  0  0  0  0  0  0  0  0  0
   23.2512  -20.7364  -17.6258 O   0  0  0  0  0  0  0  0  0  0  0  0
   22.5154  -21.9230  -13.1446 N   0  0  0  0  0  0  0  0  0  0  0  0
   22.2847  -20.6529  -13.7721 C   0  0  0  0  0  0  0  0  0  0  0  0
   22.4812  -19.6463  -13.0556 O   0  0  0  0  0  0  0  0  0  0  0  0
   21.8427  -20.6100  -15.1829 C   0  0  0  0  0  0  0  0  0  0  0  0
   21.5884  -21.9630  -15.7706 C   0  0  2  0  0  0  0  0  0  0  0  0
   21.3310  -21.8890  -17.1839 N   0  0  0  0  0  0  0  0  0  0  0  0
   20.4430  -22.6368  -15.0930 C   0  0  0  0  0  0  0  0  0  0  0  0
   20.2659  -23.8724  -15.2351 O   0  0  0  0  0  0  0  0  0  0  0  0
   14.7402  -26.0822   -9.7746 O   0  0  0  0  0  0  0  0  0  0  0  0
   15.7903  -25.4616  -10.4372 C   0  0  0  0  0  0  0  0  0  0  0  0
   16.4763  -24.4091   -9.8730 C   0  0  0  0  0  0  0  0  0  0  0  0
   17.5138  -23.8109  -10.5505 C   0  0  0  0  0  0  0  0  0  0  0  0
   17.9209  -24.2213  -11.8101 C   0  0  0  0  0  0  0  0  0  0  0  0
   19.0272  -23.5257  -12.4927 C   0  0  0  0  0  0  0  0  0  0  0  0
   18.4839  -22.6044  -13.5294 C   0  0  2  0  0  0  0  0  0  0  0  0
   19.5267  -21.9360  -14.2805 N   0  0  0  0  0  0  0  0  0  0  0  0
   17.5509  -21.5754  -13.0261 C   0  0  0  0  0  0  0  0  0  0  0  0
   16.1905  -21.8362  -12.8775 O   0  0  0  0  0  0  0  0  0  0  0  0
   17.2175  -25.2762  -12.3514 C   0  0  0  0  0  0  0  0  0  0  0  0
   16.1750  -25.8889  -11.6885 C   0  0  0  0  0  0  0  0  0  0  0  0
   17.9349  -20.4273  -12.7109 O   0  0  0  0  0  0  0  0  0  0  0  0
  2  3  1  1
  2  1  1  0
  4  5  1  1
  4  2  1  0
  6  4  1  0
  7  6  2  0
  9 11  1  0
  9  8  1  0
 10  9  2  0
 12 11  1  1
 12 13  1  0
 13  6  1  0
 14 12  1  0
 14 15  2  0
 17 16  1  0
 17 18  2  0
 19 18  1  0
 20 19  2  0
 21 20  1  0
 22 21  1  1
 23 22  1  0
 23 14  1  0
 24 22  1  0
 25 24  1  0
 26 27  2  0
 26 20  1  0
 27 17  1  0
 28 24  2  0
M  END
$$$$
