VNY.pdb
     RDKit          3D

 28 28  0  0  1  0  0  0  0  0999 V2000
   26.2006  -16.2549  -23.2321 C   0  0  0  0  0  0  0  0  0  0  0  0
   24.7825  -16.0930  -23.7244 C   0  0  1  0  0  0  0  0  0  0  0  0
   24.4103  -17.4079  -24.4074 C   0  0  0  0  0  0  0  0  0  0  0  0
   23.8706  -15.9101  -22.5305 C   0  0  2  0  0  0  0  0  0  0  0  0
   24.5855  -15.1785  -21.5225 N   0  0  0  0  0  0  0  0  0  0  0  0
   23.4410  -17.2255  -21.9924 C   0  0  0  0  0  0  0  0  0  0  0  0
   22.6646  -17.9937  -22.5984 O   0  0  0  0  0  0  0  0  0  0  0  0
   24.5193  -20.9566  -21.6356 N   0  0  0  0  0  0  0  0  0  0  0  0
   25.1637  -20.6983  -20.3793 C   0  0  0  0  0  0  0  0  0  0  0  0
   26.1495  -21.4210  -20.1128 O   0  0  0  0  0  0  0  0  0  0  0  0
   24.6415  -19.6280  -19.5023 C   0  0  0  0  0  0  0  0  0  0  0  0
   23.4925  -18.8755  -20.0975 C   0  0  2  0  0  0  0  0  0  0  0  0
   23.9240  -17.6551  -20.7248 N   0  0  0  0  0  0  0  0  0  0  0  0
   22.4613  -18.5643  -19.0655 C   0  0  0  0  0  0  0  0  0  0  0  0
   22.7598  -17.8585  -18.0701 O   0  0  0  0  0  0  0  0  0  0  0  0
   17.0953  -16.3223  -23.3686 O   0  0  0  0  0  0  0  0  0  0  0  0
   17.7480  -16.5301  -22.1613 C   0  0  0  0  0  0  0  0  0  0  0  0
   17.1113  -17.1162  -21.0900 C   0  0  0  0  0  0  0  0  0  0  0  0
   17.7806  -17.3113  -19.9037 C   0  0  0  0  0  0  0  0  0  0  0  0
   19.1029  -16.9390  -19.7200 C   0  0  0  0  0  0  0  0  0  0  0  0
   19.7582  -17.1568  -18.4174 C   0  0  0  0  0  0  0  0  0  0  0  0
   20.0905  -18.5993  -18.2519 C   0  0  2  0  0  0  0  0  0  0  0  0
   21.1347  -19.0362  -19.1558 N   0  0  0  0  0  0  0  0  0  0  0  0
   18.9478  -19.5254  -18.3907 C   0  0  0  0  0  0  0  0  0  0  0  0
   17.8447  -19.4526  -17.5429 O   0  0  0  0  0  0  0  0  0  0  0  0
   19.7160  -16.3548  -20.8079 C   0  0  0  0  0  0  0  0  0  0  0  0
   19.0625  -16.1508  -22.0050 C   0  0  0  0  0  0  0  0  0  0  0  0
   18.9155  -20.4140  -19.2705 O   0  0  0  0  0  0  0  0  0  0  0  0
  2  3  1  1
  2  1  1  0
  4  5  1  1
  4  2  1  0
  6  4  1  0
  7  6  2  0
  9 11  1  0
  9  8  1  0
 10  9  2  0
 12 11  1  1
 12 13  1  0
 13  6  1  0
 14 12  1  0
 14 15  2  0
 17 16  1  0
 17 18  2  0
 19 18  1  0
 20 19  2  0
 21 20  1  0
 22 21  1  6
 23 22  1  0
 23 14  1  0
 24 22  1  0
 25 24  1  0
 26 27  2  0
 26 20  1  0
 27 17  1  0
 28 24  2  0
M  END
$$$$
