VNY.pdb
     RDKit          3D

 28 28  0  0  1  0  0  0  0  0999 V2000
   18.6672  -11.4672  -14.4323 C   0  0  0  0  0  0  0  0  0  0  0  0
   18.7336  -12.2130  -15.7434 C   0  0  1  0  0  0  0  0  0  0  0  0
   18.0274  -13.5485  -15.5161 C   0  0  0  0  0  0  0  0  0  0  0  0
   17.9517  -11.4399  -16.7833 C   0  0  2  0  0  0  0  0  0  0  0  0
   18.0308  -12.1496  -18.0294 N   0  0  0  0  0  0  0  0  0  0  0  0
   18.5041  -10.0712  -16.9443 C   0  0  0  0  0  0  0  0  0  0  0  0
   19.5645   -9.8276  -17.5578 O   0  0  0  0  0  0  0  0  0  0  0  0
   17.7193   -4.5383  -18.0169 N   0  0  0  0  0  0  0  0  0  0  0  0
   17.5852   -5.2378  -16.7707 C   0  0  0  0  0  0  0  0  0  0  0  0
   17.8415   -4.5739  -15.7418 O   0  0  0  0  0  0  0  0  0  0  0  0
   17.1655   -6.6560  -16.7760 C   0  0  0  0  0  0  0  0  0  0  0  0
   18.2816   -7.6103  -16.4857 C   0  0  2  0  0  0  0  0  0  0  0  0
   17.8092   -8.9649  -16.3807 N   0  0  0  0  0  0  0  0  0  0  0  0
   18.9963   -7.2361  -15.2311 C   0  0  0  0  0  0  0  0  0  0  0  0
   18.5946   -7.6724  -14.1236 O   0  0  0  0  0  0  0  0  0  0  0  0
   25.4082   -7.4478  -18.2990 O   0  0  0  0  0  0  0  0  0  0  0  0
   24.5695   -7.3753  -17.1952 C   0  0  0  0  0  0  0  0  0  0  0  0
   23.7916   -8.4445  -16.8104 C   0  0  0  0  0  0  0  0  0  0  0  0
   22.9684   -8.3472  -15.7121 C   0  0  0  0  0  0  0  0  0  0  0  0
   22.8747   -7.1960  -14.9462 C   0  0  0  0  0  0  0  0  0  0  0  0
   21.9581   -7.1481  -13.7924 C   0  0  0  0  0  0  0  0  0  0  0  0
   20.8976   -6.1293  -14.0294 C   0  0  2  0  0  0  0  0  0  0  0  0
   20.1294   -6.3954  -15.2283 N   0  0  0  0  0  0  0  0  0  0  0  0
   21.3738   -4.7321  -14.0914 C   0  0  0  0  0  0  0  0  0  0  0  0
   22.0679   -4.1520  -13.0320 O   0  0  0  0  0  0  0  0  0  0  0  0
   23.6636   -6.1414  -15.3534 C   0  0  0  0  0  0  0  0  0  0  0  0
   24.4950   -6.2191  -16.4509 C   0  0  0  0  0  0  0  0  0  0  0  0
   21.1781   -4.0071  -15.0918 O   0  0  0  0  0  0  0  0  0  0  0  0
  2  3  1  1
  2  1  1  0
  4  5  1  6
  4  2  1  0
  6  4  1  0
  7  6  2  0
  9 11  1  0
  9  8  1  0
 10  9  2  0
 12 11  1  1
 12 13  1  0
 13  6  1  0
 14 12  1  0
 14 15  2  0
 17 16  1  0
 17 18  2  0
 19 18  1  0
 20 19  2  0
 21 20  1  0
 22 21  1  6
 23 22  1  0
 23 14  1  0
 24 22  1  0
 25 24  1  0
 26 27  2  0
 26 20  1  0
 27 17  1  0
 28 24  2  0
M  END
$$$$
