VNY.pdb
     RDKit          3D

 28 28  0  0  1  0  0  0  0  0999 V2000
   35.8256   -5.1894  -17.1434 C   0  0  0  0  0  0  0  0  0  0  0  0
   35.2400   -6.5792  -17.2147 C   0  0  1  0  0  0  0  0  0  0  0  0
   35.9710   -7.4098  -16.1613 C   0  0  0  0  0  0  0  0  0  0  0  0
   33.7784   -6.5122  -16.8278 C   0  0  2  0  0  0  0  0  0  0  0  0
   33.6670   -6.8045  -15.4262 N   0  0  0  0  0  0  0  0  0  0  0  0
   32.9826   -7.4889  -17.6135 C   0  0  0  0  0  0  0  0  0  0  0  0
   32.7883   -7.3839  -18.8428 O   0  0  0  0  0  0  0  0  0  0  0  0
   30.4416  -11.7917  -18.9265 N   0  0  0  0  0  0  0  0  0  0  0  0
   31.6657  -12.0644  -18.2283 C   0  0  0  0  0  0  0  0  0  0  0  0
   32.1058  -13.2308  -18.3334 O   0  0  0  0  0  0  0  0  0  0  0  0
   32.3136  -10.9858  -17.4511 C   0  0  0  0  0  0  0  0  0  0  0  0
   31.6872   -9.6419  -17.6571 C   0  0  2  0  0  0  0  0  0  0  0  0
   32.4019   -8.6091  -16.9559 N   0  0  0  0  0  0  0  0  0  0  0  0
   30.2608   -9.6412  -17.2208 C   0  0  0  0  0  0  0  0  0  0  0  0
   29.9548   -9.2421  -16.0696 O   0  0  0  0  0  0  0  0  0  0  0  0
   22.0946   -9.3310  -15.0615 O   0  0  0  0  0  0  0  0  0  0  0  0
   23.4511   -9.3712  -15.3536 C   0  0  0  0  0  0  0  0  0  0  0  0
   24.0484   -8.4071  -16.1348 C   0  0  0  0  0  0  0  0  0  0  0  0
   25.3952   -8.4695  -16.4098 C   0  0  0  0  0  0  0  0  0  0  0  0
   26.2115   -9.4811  -15.9290 C   0  0  0  0  0  0  0  0  0  0  0  0
   27.6442   -9.5030  -16.2761 C   0  0  0  0  0  0  0  0  0  0  0  0
   27.8203   -9.9947  -17.6711 C   0  0  2  0  0  0  0  0  0  0  0  0
   29.2134  -10.0778  -18.0593 N   0  0  0  0  0  0  0  0  0  0  0  0
   27.1027   -9.2193  -18.7039 C   0  0  0  0  0  0  0  0  0  0  0  0
   25.8128   -9.5600  -19.1047 O   0  0  0  0  0  0  0  0  0  0  0  0
   25.5882  -10.4327  -15.1501 C   0  0  0  0  0  0  0  0  0  0  0  0
   24.2401  -10.3877  -14.8632 C   0  0  0  0  0  0  0  0  0  0  0  0
   27.6154   -8.2257  -19.2649 O   0  0  0  0  0  0  0  0  0  0  0  0
  2  3  1  1
  2  1  1  0
  4  5  1  1
  4  2  1  0
  6  4  1  0
  7  6  2  0
  9 11  1  0
  9  8  1  0
 10  9  2  0
 12 11  1  1
 12 13  1  0
 13  6  1  0
 14 12  1  0
 14 15  2  0
 17 16  1  0
 17 18  2  0
 19 18  1  0
 20 19  2  0
 21 20  1  0
 22 21  1  1
 23 22  1  0
 23 14  1  0
 24 22  1  0
 25 24  1  0
 26 27  2  0
 26 20  1  0
 27 17  1  0
 28 24  2  0
M  END
$$$$
