VNY.pdb
     RDKit          3D

 28 28  0  0  1  0  0  0  0  0999 V2000
   21.1775  -11.8516  -20.7979 C   0  0  0  0  0  0  0  0  0  0  0  0
   20.1027  -10.8142  -20.5787 C   0  0  1  0  0  0  0  0  0  0  0  0
   19.1120  -11.4223  -19.5875 C   0  0  0  0  0  0  0  0  0  0  0  0
   20.7261   -9.5964  -19.9314 C   0  0  2  0  0  0  0  0  0  0  0  0
   21.4954  -10.0296  -18.7987 N   0  0  0  0  0  0  0  0  0  0  0  0
   19.6777   -8.6398  -19.4953 C   0  0  0  0  0  0  0  0  0  0  0  0
   18.8982   -8.0691  -20.2870 O   0  0  0  0  0  0  0  0  0  0  0  0
   16.6338   -5.7661  -16.4346 N   0  0  0  0  0  0  0  0  0  0  0  0
   16.9964   -6.9543  -15.7157 C   0  0  0  0  0  0  0  0  0  0  0  0
   16.3508   -7.1765  -14.6674 O   0  0  0  0  0  0  0  0  0  0  0  0
   18.0767   -7.8181  -16.2394 C   0  0  0  0  0  0  0  0  0  0  0  0
   18.5414   -7.4298  -17.6083 C   0  0  2  0  0  0  0  0  0  0  0  0
   19.5337   -8.3417  -18.1115 N   0  0  0  0  0  0  0  0  0  0  0  0
   19.0929   -6.0439  -17.6158 C   0  0  0  0  0  0  0  0  0  0  0  0
   20.2300   -5.8162  -17.1327 O   0  0  0  0  0  0  0  0  0  0  0  0
   20.8487   -5.3347  -24.1020 O   0  0  0  0  0  0  0  0  0  0  0  0
   20.2856   -4.7490  -22.9765 C   0  0  0  0  0  0  0  0  0  0  0  0
   18.9305   -4.8045  -22.7374 C   0  0  0  0  0  0  0  0  0  0  0  0
   18.3968   -4.2159  -21.6140 C   0  0  0  0  0  0  0  0  0  0  0  0
   19.1715   -3.5483  -20.6787 C   0  0  0  0  0  0  0  0  0  0  0  0
   18.5367   -2.9206  -19.5053 C   0  0  0  0  0  0  0  0  0  0  0  0
   18.9585   -3.6258  -18.2629 C   0  0  2  0  0  0  0  0  0  0  0  0
   18.3815   -4.9499  -18.1524 N   0  0  0  0  0  0  0  0  0  0  0  0
   18.6827   -2.8998  -17.0061 C   0  0  0  0  0  0  0  0  0  0  0  0
   18.0389   -3.5164  -15.9355 O   0  0  0  0  0  0  0  0  0  0  0  0
   20.5240   -3.5075  -20.9424 C   0  0  0  0  0  0  0  0  0  0  0  0
   21.0780   -4.0912  -22.0623 C   0  0  0  0  0  0  0  0  0  0  0  0
   19.0117   -1.7039  -16.8435 O   0  0  0  0  0  0  0  0  0  0  0  0
  2  3  1  1
  2  1  1  0
  4  5  1  1
  4  2  1  0
  6  4  1  0
  7  6  2  0
  9 11  1  0
  9  8  1  0
 10  9  2  0
 12 11  1  1
 12 13  1  0
 13  6  1  0
 14 12  1  0
 14 15  2  0
 17 16  1  0
 17 18  2  0
 19 18  1  0
 20 19  2  0
 21 20  1  0
 22 21  1  6
 23 22  1  0
 23 14  1  0
 24 22  1  0
 25 24  1  0
 26 27  2  0
 26 20  1  0
 27 17  1  0
 28 24  2  0
M  END
$$$$
