GLD.pdb
     RDKit          3D

 21 20  0  0  1  0  0  0  0  0999 V2000
   18.9937  -12.1589  -17.9447 N   0  0  0  0  0  0  0  0  0  0  0  0
   19.9146  -11.1265  -18.3427 C   0  0  0  0  0  0  0  0  0  0  0  0
   20.8028  -10.7070  -17.2288 C   0  0  0  0  0  0  0  0  0  0  0  0
   20.3833  -10.6786  -16.0460 O   0  0  0  0  0  0  0  0  0  0  0  0
   26.8713  -10.0948  -16.1463 C   0  0  0  0  0  0  0  0  0  0  0  0
   25.4844   -9.7257  -15.8031 C   0  0  2  0  0  0  0  0  0  0  0  0
   25.2213  -10.0138  -14.3199 C   0  0  0  0  0  0  0  0  0  0  0  0
   24.3669  -10.2470  -16.6225 C   0  0  0  0  0  0  0  0  0  0  0  0
   23.0241   -9.6961  -16.5135 C   0  0  2  0  0  0  0  0  0  0  0  0
   22.1317  -10.3396  -17.5253 N   0  0  0  0  0  0  0  0  0  0  0  0
   22.7344   -8.2849  -16.5951 C   0  0  0  0  0  0  0  0  0  0  0  0
   22.9099   -7.6753  -17.6914 O   0  0  0  0  0  0  0  0  0  0  0  0
   22.2450   -7.5175  -15.4662 N   0  0  0  0  0  0  0  0  0  0  0  0
   21.9855   -6.1319  -15.6668 C   0  0  1  0  0  0  0  0  0  0  0  0
   20.5087   -5.8129  -15.7712 C   0  0  0  0  0  0  0  0  0  0  0  0
   20.2273   -4.3831  -15.9151 C   0  0  0  0  0  0  0  0  0  0  0  0
   20.7414   -3.7304  -16.8409 O   0  0  0  0  0  0  0  0  0  0  0  0
   22.5112   -5.3735  -14.5083 C   0  0  0  0  0  0  0  0  0  0  0  0
   22.7036   -4.0133  -14.6033 O   0  0  0  0  0  0  0  0  0  0  0  0
   19.3905   -3.7547  -15.0239 O   0  0  0  0  0  0  0  0  0  0  0  0
   22.7773   -5.9715  -13.4512 O   0  0  0  0  0  0  0  0  0  0  0  0
  1  2  1  0
  3  2  1  0
  3  4  2  0
  6  5  1  6
  6  8  1  0
  7  6  1  0
  9  8  1  6
  9 10  1  0
  9 11  1  0
 10  3  1  0
 11 12  2  0
 13 11  1  0
 13 14  1  0
 14 15  1  1
 15 16  1  0
 16 17  2  0
 18 19  1  0
 18 14  1  0
 20 16  1  0
 21 18  2  0
M  END
$$$$
