GLD.pdb
     RDKit          3D

 21 20  0  0  1  0  0  0  0  0999 V2000
   21.5130  -11.4749  -18.4784 N   0  0  0  0  0  0  0  0  0  0  0  0
   20.9619  -11.4507  -17.1488 C   0  0  0  0  0  0  0  0  0  0  0  0
   21.6838  -10.5056  -16.2593 C   0  0  0  0  0  0  0  0  0  0  0  0
   21.3554  -10.3761  -15.0547 O   0  0  0  0  0  0  0  0  0  0  0  0
   25.6426  -10.8502  -14.5956 C   0  0  0  0  0  0  0  0  0  0  0  0
   25.6674  -10.3056  -15.9669 C   0  0  2  0  0  0  0  0  0  0  0  0
   27.1119  -10.2533  -16.4797 C   0  0  0  0  0  0  0  0  0  0  0  0
   24.9848   -9.0239  -16.2551 C   0  0  0  0  0  0  0  0  0  0  0  0
   23.5736   -8.8311  -15.9553 C   0  0  2  0  0  0  0  0  0  0  0  0
   22.7495   -9.7531  -16.7950 N   0  0  0  0  0  0  0  0  0  0  0  0
   22.9113   -7.5516  -16.0348 C   0  0  0  0  0  0  0  0  0  0  0  0
   23.2424   -6.6279  -15.2339 O   0  0  0  0  0  0  0  0  0  0  0  0
   21.8682   -7.2664  -17.0010 N   0  0  0  0  0  0  0  0  0  0  0  0
   21.3016   -5.9601  -17.0013 C   0  0  1  0  0  0  0  0  0  0  0  0
   20.6540   -5.5934  -18.3203 C   0  0  0  0  0  0  0  0  0  0  0  0
   20.0490   -4.2600  -18.3248 C   0  0  0  0  0  0  0  0  0  0  0  0
   18.8924   -4.0949  -18.7518 O   0  0  0  0  0  0  0  0  0  0  0  0
   20.2432   -5.8968  -15.9672 C   0  0  0  0  0  0  0  0  0  0  0  0
   19.7411   -7.0569  -15.4212 O   0  0  0  0  0  0  0  0  0  0  0  0
   20.7603   -3.1815  -17.8553 O   0  0  0  0  0  0  0  0  0  0  0  0
   19.8115   -4.7916  -15.5958 O   0  0  0  0  0  0  0  0  0  0  0  0
  1  2  1  0
  3  2  1  0
  3  4  2  0
  6  5  1  1
  6  8  1  0
  7  6  1  0
  9  8  1  6
  9 10  1  0
  9 11  1  0
 10  3  1  0
 11 12  2  0
 13 11  1  0
 13 14  1  0
 14 15  1  6
 15 16  1  0
 16 17  2  0
 18 19  1  0
 18 14  1  0
 20 16  1  0
 21 18  2  0
M  END
$$$$
