GLD.pdb
     RDKit          3D

 21 20  0  0  1  0  0  0  0  0999 V2000
   24.8609  -38.3219   -8.9494 N   0  0  0  0  0  0  0  0  0  0  0  0
   24.3822  -37.3074   -8.0473 C   0  0  0  0  0  0  0  0  0  0  0  0
   25.4692  -36.4046   -7.5903 C   0  0  0  0  0  0  0  0  0  0  0  0
   26.6309  -36.5085   -8.0546 O   0  0  0  0  0  0  0  0  0  0  0  0
   26.4877  -32.8350   -9.1367 C   0  0  0  0  0  0  0  0  0  0  0  0
   25.3244  -32.7553   -8.2324 C   0  0  2  0  0  0  0  0  0  0  0  0
   24.6156  -31.4074   -8.4139 C   0  0  0  0  0  0  0  0  0  0  0  0
   25.5007  -33.0406   -6.7903 C   0  0  0  0  0  0  0  0  0  0  0  0
   26.0959  -34.2864   -6.3300 C   0  0  2  0  0  0  0  0  0  0  0  0
   25.1715  -35.4244   -6.6211 N   0  0  0  0  0  0  0  0  0  0  0  0
   26.5461  -34.5002   -4.9758 C   0  0  0  0  0  0  0  0  0  0  0  0
   27.3983  -33.7109   -4.4708 O   0  0  0  0  0  0  0  0  0  0  0  0
   26.0641  -35.5915   -4.1514 N   0  0  0  0  0  0  0  0  0  0  0  0
   26.5384  -35.6718   -2.8113 C   0  0  1  0  0  0  0  0  0  0  0  0
   25.6468  -34.9518   -1.8212 C   0  0  0  0  0  0  0  0  0  0  0  0
   26.1934  -34.9107   -0.4633 C   0  0  0  0  0  0  0  0  0  0  0  0
   27.3107  -35.4000   -0.2194 O   0  0  0  0  0  0  0  0  0  0  0  0
   26.5790  -37.0946   -2.4020 C   0  0  0  0  0  0  0  0  0  0  0  0
   27.1970  -37.4575   -1.2262 O   0  0  0  0  0  0  0  0  0  0  0  0
   25.4705  -34.3287    0.5506 O   0  0  0  0  0  0  0  0  0  0  0  0
   26.0526  -37.9580   -3.1253 O   0  0  0  0  0  0  0  0  0  0  0  0
  1  2  1  0
  3  2  1  0
  3  4  2  0
  6  5  1  6
  6  8  1  0
  7  6  1  0
  9  8  1  1
  9 10  1  0
  9 11  1  0
 10  3  1  0
 11 12  2  0
 13 11  1  0
 13 14  1  0
 14 15  1  1
 15 16  1  0
 16 17  2  0
 18 19  1  0
 18 14  1  0
 20 16  1  0
 21 18  2  0
M  END
$$$$
