GLD.pdb
     RDKit          3D

 21 20  0  0  1  0  0  0  0  0999 V2000
   20.3529  -12.9035  -18.3453 N   0  0  0  0  0  0  0  0  0  0  0  0
   20.5112  -11.5195  -18.7082 C   0  0  0  0  0  0  0  0  0  0  0  0
   20.3096  -10.6097  -17.5518 C   0  0  0  0  0  0  0  0  0  0  0  0
   19.1940  -10.5296  -16.9819 O   0  0  0  0  0  0  0  0  0  0  0  0
   21.4534   -9.9762  -12.9613 C   0  0  0  0  0  0  0  0  0  0  0  0
   22.4980   -9.9855  -14.0035 C   0  0  2  0  0  0  0  0  0  0  0  0
   23.8852   -9.9651  -13.3497 C   0  0  0  0  0  0  0  0  0  0  0  0
   22.4438   -8.9914  -15.0993 C   0  0  0  0  0  0  0  0  0  0  0  0
   21.2779   -8.8761  -15.9628 C   0  0  2  0  0  0  0  0  0  0  0  0
   21.3990   -9.8342  -17.1037 N   0  0  0  0  0  0  0  0  0  0  0  0
   20.8469   -7.6331  -16.5554 C   0  0  0  0  0  0  0  0  0  0  0  0
   21.5247   -7.1234  -17.4962 O   0  0  0  0  0  0  0  0  0  0  0  0
   19.6577   -6.9266  -16.1200 N   0  0  0  0  0  0  0  0  0  0  0  0
   19.3326   -5.7053  -16.7758 C   0  0  1  0  0  0  0  0  0  0  0  0
   18.0175   -5.7644  -17.5245 C   0  0  0  0  0  0  0  0  0  0  0  0
   17.6361   -4.4915  -18.1396 C   0  0  0  0  0  0  0  0  0  0  0  0
   18.3924   -3.5064  -18.0683 O   0  0  0  0  0  0  0  0  0  0  0  0
   19.2043   -4.6354  -15.7597 C   0  0  0  0  0  0  0  0  0  0  0  0
   19.3130   -4.9381  -14.4208 O   0  0  0  0  0  0  0  0  0  0  0  0
   16.4360   -4.3803  -18.8004 O   0  0  0  0  0  0  0  0  0  0  0  0
   18.9981   -3.4642  -16.1224 O   0  0  0  0  0  0  0  0  0  0  0  0
  1  2  1  0
  3  2  1  0
  3  4  2  0
  6  5  1  1
  6  8  1  0
  7  6  1  0
  9  8  1  6
  9 10  1  0
  9 11  1  0
 10  3  1  0
 11 12  2  0
 13 11  1  0
 13 14  1  0
 14 15  1  1
 15 16  1  0
 16 17  2  0
 18 19  1  0
 18 14  1  0
 20 16  1  0
 21 18  2  0
M  END
$$$$
