GLD.pdb
     RDKit          3D

 21 20  0  0  1  0  0  0  0  0999 V2000
   27.9817  -19.6123  -16.2854 N   0  0  0  0  0  0  0  0  0  0  0  0
   26.9635  -18.9429  -15.5189 C   0  0  0  0  0  0  0  0  0  0  0  0
   26.0239  -19.8984  -14.8789 C   0  0  0  0  0  0  0  0  0  0  0  0
   25.8364  -21.0407  -15.3645 O   0  0  0  0  0  0  0  0  0  0  0  0
   26.2996  -22.0948  -11.0729 C   0  0  0  0  0  0  0  0  0  0  0  0
   25.8320  -20.7064  -10.8962 C   0  0  2  0  0  0  0  0  0  0  0  0
   25.7823  -20.3604   -9.4029 C   0  0  0  0  0  0  0  0  0  0  0  0
   24.5808  -20.2687  -11.5557 C   0  0  0  0  0  0  0  0  0  0  0  0
   24.3935  -20.4015  -12.9929 C   0  0  2  0  0  0  0  0  0  0  0  0
   25.3433  -19.4975  -13.7106 N   0  0  0  0  0  0  0  0  0  0  0  0
   23.1225  -20.2150  -13.6500 C   0  0  0  0  0  0  0  0  0  0  0  0
   22.6832  -19.0415  -13.8352 O   0  0  0  0  0  0  0  0  0  0  0  0
   22.3097  -21.3220  -14.1156 N   0  0  0  0  0  0  0  0  0  0  0  0
   21.1030  -21.0160  -14.8067 C   0  0  1  0  0  0  0  0  0  0  0  0
   20.7881  -21.9977  -15.9161 C   0  0  0  0  0  0  0  0  0  0  0  0
   19.5465  -21.6949  -16.6308 C   0  0  0  0  0  0  0  0  0  0  0  0
   18.4854  -22.2640  -16.3182 O   0  0  0  0  0  0  0  0  0  0  0  0
   19.9752  -21.0700  -13.8482 C   0  0  0  0  0  0  0  0  0  0  0  0
   20.1164  -21.7385  -12.6527 O   0  0  0  0  0  0  0  0  0  0  0  0
   19.5492  -20.7770  -17.6539 O   0  0  0  0  0  0  0  0  0  0  0  0
   18.9019  -20.5088  -14.1291 O   0  0  0  0  0  0  0  0  0  0  0  0
  1  2  1  0
  3  2  1  0
  3  4  2  0
  6  5  1  1
  6  8  1  0
  7  6  1  0
  9  8  1  1
  9 10  1  0
  9 11  1  0
 10  3  1  0
 11 12  2  0
 13 11  1  0
 13 14  1  0
 14 15  1  6
 15 16  1  0
 16 17  2  0
 18 19  1  0
 18 14  1  0
 20 16  1  0
 21 18  2  0
M  END
$$$$
