GLD.pdb
     RDKit          3D

 21 20  0  0  1  0  0  0  0  0999 V2000
   27.3421  -18.0412  -15.5934 N   0  0  0  0  0  0  0  0  0  0  0  0
   26.5349  -17.9652  -14.4039 C   0  0  0  0  0  0  0  0  0  0  0  0
   25.9138  -19.2704  -14.0630 C   0  0  0  0  0  0  0  0  0  0  0  0
   25.8371  -20.1894  -14.9147 O   0  0  0  0  0  0  0  0  0  0  0  0
   27.8741  -21.4404  -11.1371 C   0  0  0  0  0  0  0  0  0  0  0  0
   26.7370  -20.7148  -10.5390 C   0  0  2  0  0  0  0  0  0  0  0  0
   26.8465  -20.7459   -9.0096 C   0  0  0  0  0  0  0  0  0  0  0  0
   25.3564  -21.0553  -10.9513 C   0  0  0  0  0  0  0  0  0  0  0  0
   24.8750  -20.7761  -12.2962 C   0  0  2  0  0  0  0  0  0  0  0  0
   25.4096  -19.4593  -12.7596 N   0  0  0  0  0  0  0  0  0  0  0  0
   23.4773  -20.7653  -12.6544 C   0  0  0  0  0  0  0  0  0  0  0  0
   22.6507  -20.1477  -11.9198 O   0  0  0  0  0  0  0  0  0  0  0  0
   22.9635  -21.4378  -13.8320 N   0  0  0  0  0  0  0  0  0  0  0  0
   21.5837  -21.2731  -14.1426 C   0  0  1  0  0  0  0  0  0  0  0  0
   21.2177  -19.8434  -14.4829 C   0  0  0  0  0  0  0  0  0  0  0  0
   19.7863  -19.6463  -14.7205 C   0  0  0  0  0  0  0  0  0  0  0  0
   18.9804  -20.5705  -14.5117 O   0  0  0  0  0  0  0  0  0  0  0  0
   21.2582  -22.0973  -15.3292 C   0  0  0  0  0  0  0  0  0  0  0  0
   19.9592  -22.4908  -15.5614 O   0  0  0  0  0  0  0  0  0  0  0  0
   19.3265  -18.4340  -15.1770 O   0  0  0  0  0  0  0  0  0  0  0  0
   22.1634  -22.4313  -16.1133 O   0  0  0  0  0  0  0  0  0  0  0  0
  1  2  1  0
  3  2  1  0
  3  4  2  0
  6  5  1  6
  6  8  1  0
  7  6  1  0
  9  8  1  1
  9 10  1  0
  9 11  1  0
 10  3  1  0
 11 12  2  0
 13 11  1  0
 13 14  1  0
 14 15  1  6
 15 16  1  0
 16 17  2  0
 18 19  1  0
 18 14  1  0
 20 16  1  0
 21 18  2  0
M  END
$$$$
