GLD.pdb
     RDKit          3D

 21 20  0  0  1  0  0  0  0  0999 V2000
   21.5656  -22.1361   -7.1484 N   0  0  0  0  0  0  0  0  0  0  0  0
   22.9666  -22.4082   -7.3364 C   0  0  0  0  0  0  0  0  0  0  0  0
   23.7203  -21.2015   -7.7624 C   0  0  0  0  0  0  0  0  0  0  0  0
   23.1257  -20.1230   -8.0055 O   0  0  0  0  0  0  0  0  0  0  0  0
   27.2460  -18.4821   -5.7656 C   0  0  0  0  0  0  0  0  0  0  0  0
   27.4788  -19.8699   -6.2098 C   0  0  2  0  0  0  0  0  0  0  0  0
   28.8668  -20.3361   -5.7536 C   0  0  0  0  0  0  0  0  0  0  0  0
   27.2714  -20.2250   -7.6321 C   0  0  0  0  0  0  0  0  0  0  0  0
   25.9633  -20.1111   -8.2601 C   0  0  2  0  0  0  0  0  0  0  0  0
   25.1220  -21.2898   -7.8895 N   0  0  0  0  0  0  0  0  0  0  0  0
   25.7750  -19.9422   -9.6807 C   0  0  0  0  0  0  0  0  0  0  0  0
   26.2503  -18.9181  -10.2547 O   0  0  0  0  0  0  0  0  0  0  0  0
   25.0566  -20.9017  -10.4968 N   0  0  0  0  0  0  0  0  0  0  0  0
   25.1580  -20.7787  -11.9117 C   0  0  1  0  0  0  0  0  0  0  0  0
   26.2145  -21.6823  -12.5127 C   0  0  0  0  0  0  0  0  0  0  0  0
   26.3287  -21.5624  -13.9676 C   0  0  0  0  0  0  0  0  0  0  0  0
   25.6209  -20.7506  -14.5898 O   0  0  0  0  0  0  0  0  0  0  0  0
   23.8634  -21.1627  -12.5199 C   0  0  0  0  0  0  0  0  0  0  0  0
   23.4352  -20.5505  -13.6767 O   0  0  0  0  0  0  0  0  0  0  0  0
   27.2223  -22.3501  -14.6535 O   0  0  0  0  0  0  0  0  0  0  0  0
   23.1665  -22.0398  -11.9806 O   0  0  0  0  0  0  0  0  0  0  0  0
  1  2  1  0
  3  2  1  0
  3  4  2  0
  6  5  1  6
  6  8  1  0
  7  6  1  0
  9  8  1  6
  9 10  1  0
  9 11  1  0
 10  3  1  0
 11 12  2  0
 13 11  1  0
 13 14  1  0
 14 15  1  6
 15 16  1  0
 16 17  2  0
 18 19  1  0
 18 14  1  0
 20 16  1  0
 21 18  2  0
M  END
$$$$
