GDG.pdb
     RDKit          3D

 17 16  0  0  1  0  0  0  0  0999 V2000
   13.0945  -10.7380   -9.7347 N   0  0  0  0  0  0  0  0  0  0  0  0
   12.9642  -11.0641  -11.1377 C   0  0  0  0  0  0  0  0  0  0  0  0
   14.2786  -10.8981  -11.8050 C   0  0  0  0  0  0  0  0  0  0  0  0
   15.3440  -10.7172  -11.1644 O   0  0  0  0  0  0  0  0  0  0  0  0
   14.3697  -10.9405  -13.2214 N   0  0  0  0  0  0  0  0  0  0  0  0
   15.6461  -10.8582  -13.8720 C   0  0  1  0  0  0  0  0  0  0  0  0
   15.7472  -11.8138  -15.0214 C   0  0  0  0  0  0  0  0  0  0  0  0
   15.9067  -13.2288  -14.6178 C   0  0  0  0  0  0  0  0  0  0  0  0
   16.6738  -13.5923  -13.6907 O   0  0  0  0  0  0  0  0  0  0  0  0
   15.9928   -9.4670  -14.2562 C   0  0  0  0  0  0  0  0  0  0  0  0
   15.1324   -8.7809  -14.8845 O   0  0  0  0  0  0  0  0  0  0  0  0
   15.1986  -14.2264  -15.2649 O   0  0  0  0  0  0  0  0  0  0  0  0
   17.2413   -8.8779  -13.9505 N   0  0  0  0  0  0  0  0  0  0  0  0
   17.5574   -7.5320  -14.3501 C   0  0  0  0  0  0  0  0  0  0  0  0
   18.9661   -7.1791  -14.0086 C   0  0  0  0  0  0  0  0  0  0  0  0
   19.7370   -8.1291  -13.3633 O   0  0  0  0  0  0  0  0  0  0  0  0
   19.4503   -6.0576  -14.2922 O   0  0  0  0  0  0  0  0  0  0  0  0
  2  1  1  0
  3  2  1  0
  4  3  2  0
  5  3  1  0
  6 10  1  0
  6  5  1  0
  7  8  1  0
  6  7  1  6
  8  9  2  0
 10 13  1  0
 11 10  2  0
 12  8  1  0
 13 14  1  0
 14 15  1  0
 15 17  2  0
 15 16  1  0
M  END
$$$$
