GDG.pdb
     RDKit          3D

 17 16  0  0  1  0  0  0  0  0999 V2000
   16.4944   -6.8307   -8.7417 N   0  0  0  0  0  0  0  0  0  0  0  0
   16.3056   -6.7509  -10.1733 C   0  0  0  0  0  0  0  0  0  0  0  0
   17.2810   -7.6419  -10.8481 C   0  0  0  0  0  0  0  0  0  0  0  0
   17.9816   -8.4752  -10.2214 O   0  0  0  0  0  0  0  0  0  0  0  0
   17.4530   -7.5746  -12.2560 N   0  0  0  0  0  0  0  0  0  0  0  0
   18.3257   -8.4944  -12.9280 C   0  0  1  0  0  0  0  0  0  0  0  0
   17.6985   -9.0500  -14.1700 C   0  0  0  0  0  0  0  0  0  0  0  0
   16.5623   -9.9636  -13.9157 C   0  0  0  0  0  0  0  0  0  0  0  0
   15.3660   -9.6418  -14.1293 O   0  0  0  0  0  0  0  0  0  0  0  0
   19.6687   -7.9140  -13.1791 C   0  0  0  0  0  0  0  0  0  0  0  0
   20.6029   -8.6878  -13.5457 O   0  0  0  0  0  0  0  0  0  0  0  0
   16.7837  -11.2366  -13.4203 O   0  0  0  0  0  0  0  0  0  0  0  0
   19.9470   -6.5362  -13.0262 N   0  0  0  0  0  0  0  0  0  0  0  0
   21.2721   -6.0092  -13.2196 C   0  0  0  0  0  0  0  0  0  0  0  0
   21.2918   -4.5233  -13.0888 C   0  0  0  0  0  0  0  0  0  0  0  0
   20.1022   -3.8796  -12.7994 O   0  0  0  0  0  0  0  0  0  0  0  0
   22.3487   -3.8642  -13.2344 O   0  0  0  0  0  0  0  0  0  0  0  0
  2  1  1  0
  3  2  1  0
  4  3  2  0
  5  3  1  0
  6 10  1  0
  6  5  1  0
  7  8  1  0
  6  7  1  6
  8  9  2  0
 10 13  1  0
 11 10  2  0
 12  8  1  0
 13 14  1  0
 14 15  1  0
 15 17  2  0
 15 16  1  0
M  END
$$$$
