GDG.pdb
     RDKit          3D

 17 16  0  0  1  0  0  0  0  0999 V2000
   15.7564   -6.5390   -7.9246 N   0  0  0  0  0  0  0  0  0  0  0  0
   15.3822   -7.4925   -8.9454 C   0  0  0  0  0  0  0  0  0  0  0  0
   16.5680   -7.8127   -9.7773 C   0  0  0  0  0  0  0  0  0  0  0  0
   17.5563   -8.4463   -9.3303 O   0  0  0  0  0  0  0  0  0  0  0  0
   16.6186   -7.4010  -11.1353 N   0  0  0  0  0  0  0  0  0  0  0  0
   17.6645   -7.8682  -11.9996 C   0  0  1  0  0  0  0  0  0  0  0  0
   17.1558   -8.1683  -13.3766 C   0  0  0  0  0  0  0  0  0  0  0  0
   16.1922   -9.2902  -13.4329 C   0  0  0  0  0  0  0  0  0  0  0  0
   15.0389   -9.1762  -13.9197 O   0  0  0  0  0  0  0  0  0  0  0  0
   18.8343   -6.9546  -12.0116 C   0  0  0  0  0  0  0  0  0  0  0  0
   18.6349   -5.7146  -11.8421 O   0  0  0  0  0  0  0  0  0  0  0  0
   16.5368  -10.5357  -12.9378 O   0  0  0  0  0  0  0  0  0  0  0  0
   20.1588   -7.4107  -12.2041 N   0  0  0  0  0  0  0  0  0  0  0  0
   21.2839   -6.5183  -12.1112 C   0  0  0  0  0  0  0  0  0  0  0  0
   21.3128   -5.5575  -13.2521 C   0  0  0  0  0  0  0  0  0  0  0  0
   22.3829   -4.6857  -13.3419 O   0  0  0  0  0  0  0  0  0  0  0  0
   20.4004   -5.5301  -14.1119 O   0  0  0  0  0  0  0  0  0  0  0  0
  2  1  1  0
  3  2  1  0
  4  3  2  0
  5  3  1  0
  6 10  1  0
  6  5  1  0
  7  8  1  0
  6  7  1  6
  8  9  2  0
 10 13  1  0
 11 10  2  0
 12  8  1  0
 13 14  1  0
 14 15  1  0
 15 17  2  0
 15 16  1  0
M  END
$$$$
