GDG.pdb
     RDKit          3D

 17 16  0  0  1  0  0  0  0  0999 V2000
   17.3795  -11.0571  -14.5918 N   0  0  0  0  0  0  0  0  0  0  0  0
   18.6656  -10.3964  -14.5594 C   0  0  0  0  0  0  0  0  0  0  0  0
   18.5078   -9.0423  -13.9745 C   0  0  0  0  0  0  0  0  0  0  0  0
   17.9439   -8.1023  -14.5881 O   0  0  0  0  0  0  0  0  0  0  0  0
   19.0023   -8.7658  -12.6725 N   0  0  0  0  0  0  0  0  0  0  0  0
   18.8421   -7.4623  -12.0940 C   0  0  1  0  0  0  0  0  0  0  0  0
   18.3197   -7.5365  -10.6918 C   0  0  0  0  0  0  0  0  0  0  0  0
   18.0168   -6.2187  -10.0901 C   0  0  0  0  0  0  0  0  0  0  0  0
   17.7312   -5.2043  -10.7754 O   0  0  0  0  0  0  0  0  0  0  0  0
   20.0766   -6.6448  -12.1990 C   0  0  0  0  0  0  0  0  0  0  0  0
   21.1181   -7.0422  -11.5964 O   0  0  0  0  0  0  0  0  0  0  0  0
   18.0389   -6.0536   -8.7162 O   0  0  0  0  0  0  0  0  0  0  0  0
   20.1372   -5.4435  -12.9423 N   0  0  0  0  0  0  0  0  0  0  0  0
   21.3746   -4.7318  -13.1243 C   0  0  0  0  0  0  0  0  0  0  0  0
   22.0748   -5.1659  -14.3680 C   0  0  0  0  0  0  0  0  0  0  0  0
   22.3877   -4.2018  -15.3091 O   0  0  0  0  0  0  0  0  0  0  0  0
   22.3770   -6.3666  -14.5675 O   0  0  0  0  0  0  0  0  0  0  0  0
  2  1  1  0
  3  2  1  0
  4  3  2  0
  5  3  1  0
  6 10  1  0
  6  5  1  0
  7  8  1  0
  6  7  1  1
  8  9  2  0
 10 13  1  0
 11 10  2  0
 12  8  1  0
 13 14  1  0
 14 15  1  0
 15 17  2  0
 15 16  1  0
M  END
$$$$
