GDG.pdb
     RDKit          3D

 17 16  0  0  1  0  0  0  0  0999 V2000
   25.9393  -21.8891  -11.6816 N   0  0  0  0  0  0  0  0  0  0  0  0
   24.6944  -21.2282  -11.3577 C   0  0  0  0  0  0  0  0  0  0  0  0
   23.8642  -21.1166  -12.5821 C   0  0  0  0  0  0  0  0  0  0  0  0
   24.2349  -21.5691  -13.6938 O   0  0  0  0  0  0  0  0  0  0  0  0
   22.5965  -20.4793  -12.5285 N   0  0  0  0  0  0  0  0  0  0  0  0
   21.7668  -20.4086  -13.6971 C   0  0  1  0  0  0  0  0  0  0  0  0
   20.3112  -20.4907  -13.3517 C   0  0  0  0  0  0  0  0  0  0  0  0
   19.9520  -21.6660  -12.5270 C   0  0  0  0  0  0  0  0  0  0  0  0
   20.3083  -22.8368  -12.8144 O   0  0  0  0  0  0  0  0  0  0  0  0
   22.0855  -19.2310  -14.5427 C   0  0  0  0  0  0  0  0  0  0  0  0
   21.8760  -18.0735  -14.0712 O   0  0  0  0  0  0  0  0  0  0  0  0
   19.1908  -21.5123  -11.3816 O   0  0  0  0  0  0  0  0  0  0  0  0
   22.6119  -19.3481  -15.8497 N   0  0  0  0  0  0  0  0  0  0  0  0
   22.9676  -18.1893  -16.6254 C   0  0  0  0  0  0  0  0  0  0  0  0
   23.4958  -18.5729  -17.9669 C   0  0  0  0  0  0  0  0  0  0  0  0
   23.5326  -19.9169  -18.2918 O   0  0  0  0  0  0  0  0  0  0  0  0
   23.8981  -17.7126  -18.7858 O   0  0  0  0  0  0  0  0  0  0  0  0
  2  1  1  0
  3  2  1  0
  4  3  2  0
  5  3  1  0
  6 10  1  0
  6  5  1  0
  7  8  1  0
  6  7  1  1
  8  9  2  0
 10 13  1  0
 11 10  2  0
 12  8  1  0
 13 14  1  0
 14 15  1  0
 15 17  2  0
 15 16  1  0
M  END
$$$$
