GDG.pdb
     RDKit          3D

 17 16  0  0  1  0  0  0  0  0999 V2000
   16.3967  -11.4373  -11.0625 N   0  0  0  0  0  0  0  0  0  0  0  0
   16.1427  -10.0149  -11.0001 C   0  0  0  0  0  0  0  0  0  0  0  0
   16.9181   -9.3301  -12.0633 C   0  0  0  0  0  0  0  0  0  0  0  0
   17.7030   -9.9430  -12.8290 O   0  0  0  0  0  0  0  0  0  0  0  0
   16.7903   -7.9281  -12.2484 N   0  0  0  0  0  0  0  0  0  0  0  0
   17.4409   -7.2764  -13.3490 C   0  0  1  0  0  0  0  0  0  0  0  0
   16.4714   -6.5026  -14.1892 C   0  0  0  0  0  0  0  0  0  0  0  0
   15.4148   -7.3323  -14.8104 C   0  0  0  0  0  0  0  0  0  0  0  0
   14.2008   -7.2388  -14.4977 O   0  0  0  0  0  0  0  0  0  0  0  0
   18.5974   -6.4549  -12.9121 C   0  0  0  0  0  0  0  0  0  0  0  0
   18.5040   -5.8081  -11.8263 O   0  0  0  0  0  0  0  0  0  0  0  0
   15.7358   -8.2643  -15.7817 O   0  0  0  0  0  0  0  0  0  0  0  0
   19.7961   -6.3648  -13.6567 N   0  0  0  0  0  0  0  0  0  0  0  0
   20.9277   -5.6173  -13.1753 C   0  0  0  0  0  0  0  0  0  0  0  0
   22.0286   -5.5872  -14.1817 C   0  0  0  0  0  0  0  0  0  0  0  0
   21.8830   -6.3467  -15.3285 O   0  0  0  0  0  0  0  0  0  0  0  0
   23.0615   -4.8981  -14.0060 O   0  0  0  0  0  0  0  0  0  0  0  0
  2  1  1  0
  3  2  1  0
  4  3  2  0
  5  3  1  0
  6 10  1  0
  6  5  1  0
  7  8  1  0
  6  7  1  1
  8  9  2  0
 10 13  1  0
 11 10  2  0
 12  8  1  0
 13 14  1  0
 14 15  1  0
 15 17  2  0
 15 16  1  0
M  END
$$$$
