KFD.pdb
     RDKit          3D

 29 29  0  0  1  0  0  0  0  0999 V2000
    9.3901  -16.3034   18.9272 N   0  0  0  0  0  0  0  0  0  0  0  0
    8.1819  -15.9584   19.6161 C   0  0  1  0  0  0  0  0  0  0  0  0
    7.1924  -17.1016   19.6885 C   0  0  0  0  0  0  0  0  0  0  0  0
    7.5973  -18.2494   18.7897 C   0  0  0  0  0  0  0  0  0  0  0  0
    6.5511  -19.3396   18.9536 C   0  0  0  0  0  0  0  0  0  0  0  0
    6.7674  -20.4663   17.9839 C   0  0  0  0  0  0  0  0  0  0  0  0
    5.7726  -21.4827   18.1686 N   0  0  0  0  0  0  0  0  0  0  0  0
    8.4879  -15.5749   21.0190 C   0  0  0  0  0  0  0  0  0  0  0  0
    9.4842  -16.0849   21.5857 O   0  0  0  0  0  0  0  0  0  0  0  0
    7.6624  -14.6429   21.7103 N   0  0  0  0  0  0  0  0  0  0  0  0
    7.9245  -14.2684   23.0822 C   0  0  1  0  0  0  0  0  0  0  0  0
    7.0863  -13.1439   23.5767 C   0  0  0  0  0  0  0  0  0  0  0  0
    7.2586  -12.7637   24.9745 C   0  0  0  0  0  0  0  0  0  0  0  0
    6.1962  -12.7920   25.8710 C   0  0  0  0  0  0  0  0  0  0  0  0
    6.3814  -12.4178   27.1933 C   0  0  0  0  0  0  0  0  0  0  0  0
    7.6130  -12.0053   27.6748 C   0  0  0  0  0  0  0  0  0  0  0  0
    8.6579  -11.9792   26.7859 C   0  0  0  0  0  0  0  0  0  0  0  0
    8.4730  -12.3510   25.4732 C   0  0  0  0  0  0  0  0  0  0  0  0
    7.9461  -15.4708   23.9652 C   0  0  0  0  0  0  0  0  0  0  0  0
    6.9547  -16.2274   24.0882 O   0  0  0  0  0  0  0  0  0  0  0  0
    9.1235  -15.7668   24.6895 N   0  0  0  0  0  0  0  0  0  0  0  0
    9.2767  -16.9630   25.5243 C   0  0  1  0  0  0  0  0  0  0  0  0
   10.0949  -17.9909   24.8008 C   0  0  0  0  0  0  0  0  0  0  0  0
   10.4507  -19.1407   25.6291 C   0  0  0  0  0  0  0  0  0  0  0  0
    9.5577  -19.9815   25.9685 O   0  0  0  0  0  0  0  0  0  0  0  0
    9.8576  -16.5546   26.8058 C   0  0  0  0  0  0  0  0  0  0  0  0
   10.4377  -15.3279   27.0914 O   0  0  0  0  0  0  0  0  0  0  0  0
   11.7302  -19.3901   26.0889 O   0  0  0  0  0  0  0  0  0  0  0  0
    9.8508  -17.3737   27.7783 O   0  0  0  0  0  0  0  0  0  0  0  0
  2  3  1  0
  2  1  1  1
  4  5  1  0
  4  3  1  0
  6  7  1  0
  6  5  1  0
  8  2  1  0
  9  8  2  0
 10  8  1  0
 11 10  1  0
 12 13  1  0
 11 12  1  1
 13 14  2  0
 14 15  1  0
 16 15  2  0
 17 16  1  0
 18 17  2  0
 18 13  1  0
 19 21  1  0
 19 11  1  0
 20 19  2  0
 22 23  1  6
 22 21  1  0
 23 24  1  0
 24 28  1  0
 24 25  2  0
 26 22  1  0
 26 27  1  0
 29 26  2  0
M  END
$$$$
