KFD.pdb
     RDKit          3D

 29 29  0  0  1  0  0  0  0  0999 V2000
    9.4113  -16.7290   18.9417 N   0  0  0  0  0  0  0  0  0  0  0  0
    8.8705  -17.3490   20.1150 C   0  0  1  0  0  0  0  0  0  0  0  0
    9.5349  -18.6672   20.4499 C   0  0  0  0  0  0  0  0  0  0  0  0
    9.8937  -19.4454   19.2030 C   0  0  0  0  0  0  0  0  0  0  0  0
    8.6503  -20.2074   18.7750 C   0  0  0  0  0  0  0  0  0  0  0  0
    8.9171  -21.0784   17.5806 C   0  0  0  0  0  0  0  0  0  0  0  0
    8.9853  -22.4564   17.9720 N   0  0  0  0  0  0  0  0  0  0  0  0
    9.0666  -16.4653   21.2937 C   0  0  0  0  0  0  0  0  0  0  0  0
   10.2191  -16.0426   21.5522 O   0  0  0  0  0  0  0  0  0  0  0  0
    7.9630  -16.1040   22.1180 N   0  0  0  0  0  0  0  0  0  0  0  0
    8.1315  -15.2776   23.2928 C   0  0  1  0  0  0  0  0  0  0  0  0
    6.9332  -14.4708   23.6460 C   0  0  0  0  0  0  0  0  0  0  0  0
    7.0206  -13.6642   24.8583 C   0  0  0  0  0  0  0  0  0  0  0  0
    7.8461  -12.5476   24.9296 C   0  0  0  0  0  0  0  0  0  0  0  0
    7.9199  -11.8006   26.0955 C   0  0  0  0  0  0  0  0  0  0  0  0
    7.1870  -12.1265   27.2249 C   0  0  0  0  0  0  0  0  0  0  0  0
    6.3742  -13.2294   27.1491 C   0  0  0  0  0  0  0  0  0  0  0  0
    6.3015  -13.9703   25.9910 C   0  0  0  0  0  0  0  0  0  0  0  0
    8.7103  -16.0678   24.4182 C   0  0  0  0  0  0  0  0  0  0  0  0
    8.1377  -17.0779   24.8894 O   0  0  0  0  0  0  0  0  0  0  0  0
    9.9457  -15.6632   24.9738 N   0  0  0  0  0  0  0  0  0  0  0  0
   10.6758  -16.4500   25.9734 C   0  0  1  0  0  0  0  0  0  0  0  0
   12.1495  -16.2030   25.8426 C   0  0  0  0  0  0  0  0  0  0  0  0
   12.6828  -16.5448   24.5259 C   0  0  0  0  0  0  0  0  0  0  0  0
   12.3214  -17.6221   23.9527 O   0  0  0  0  0  0  0  0  0  0  0  0
   10.1454  -16.1130   27.2968 C   0  0  0  0  0  0  0  0  0  0  0  0
    9.2141  -15.1258   27.5818 O   0  0  0  0  0  0  0  0  0  0  0  0
   13.5841  -15.7577   23.8338 O   0  0  0  0  0  0  0  0  0  0  0  0
   10.5512  -16.7636   28.3111 O   0  0  0  0  0  0  0  0  0  0  0  0
  2  3  1  0
  2  1  1  6
  4  5  1  0
  4  3  1  0
  6  7  1  0
  6  5  1  0
  8  2  1  0
  9  8  2  0
 10  8  1  0
 11 10  1  0
 12 13  1  0
 11 12  1  1
 13 14  2  0
 14 15  1  0
 16 15  2  0
 17 16  1  0
 18 17  2  0
 18 13  1  0
 19 21  1  0
 19 11  1  0
 20 19  2  0
 22 23  1  1
 22 21  1  0
 23 24  1  0
 24 28  1  0
 24 25  2  0
 26 22  1  0
 26 27  1  0
 29 26  2  0
M  END
$$$$
