KFD.pdb
     RDKit          3D

 29 29  0  0  1  0  0  0  0  0999 V2000
    7.2534  -15.6365   19.0132 N   0  0  0  0  0  0  0  0  0  0  0  0
    8.3619  -14.7328   19.1035 C   0  0  1  0  0  0  0  0  0  0  0  0
    8.1229  -13.4257   18.3785 C   0  0  0  0  0  0  0  0  0  0  0  0
    7.4546  -13.6433   17.0387 C   0  0  0  0  0  0  0  0  0  0  0  0
    8.5583  -13.8145   16.0080 C   0  0  0  0  0  0  0  0  0  0  0  0
    8.0044  -13.9363   14.6170 C   0  0  0  0  0  0  0  0  0  0  0  0
    9.0680  -13.9517   13.6550 N   0  0  0  0  0  0  0  0  0  0  0  0
    8.6214  -14.3863   20.5252 C   0  0  0  0  0  0  0  0  0  0  0  0
    9.6511  -13.7302   20.8134 O   0  0  0  0  0  0  0  0  0  0  0  0
    7.7152  -14.7933   21.5456 N   0  0  0  0  0  0  0  0  0  0  0  0
    7.9756  -14.5261   22.9428 C   0  0  1  0  0  0  0  0  0  0  0  0
    6.8337  -13.9068   23.6667 C   0  0  0  0  0  0  0  0  0  0  0  0
    7.0756  -13.5015   25.0471 C   0  0  0  0  0  0  0  0  0  0  0  0
    7.4731  -12.2076   25.3649 C   0  0  0  0  0  0  0  0  0  0  0  0
    7.7059  -11.8470   26.6835 C   0  0  0  0  0  0  0  0  0  0  0  0
    7.5556  -12.7441   27.7283 C   0  0  0  0  0  0  0  0  0  0  0  0
    7.1632  -14.0196   27.4089 C   0  0  0  0  0  0  0  0  0  0  0  0
    6.9323  -14.3766   26.0995 C   0  0  0  0  0  0  0  0  0  0  0  0
    8.5675  -15.7221   23.6099 C   0  0  0  0  0  0  0  0  0  0  0  0
    8.0281  -16.8520   23.5574 O   0  0  0  0  0  0  0  0  0  0  0  0
    9.7769  -15.5768   24.3273 N   0  0  0  0  0  0  0  0  0  0  0  0
   10.5949  -16.7124   24.7660 C   0  0  1  0  0  0  0  0  0  0  0  0
   12.0269  -16.4922   24.3778 C   0  0  0  0  0  0  0  0  0  0  0  0
   12.9085  -17.5952   24.7530 C   0  0  0  0  0  0  0  0  0  0  0  0
   13.7554  -17.4427   25.6906 O   0  0  0  0  0  0  0  0  0  0  0  0
   10.4037  -16.8833   26.2085 C   0  0  0  0  0  0  0  0  0  0  0  0
   10.3336  -18.0884   26.8911 O   0  0  0  0  0  0  0  0  0  0  0  0
   12.8911  -18.8350   24.1418 O   0  0  0  0  0  0  0  0  0  0  0  0
   10.2856  -15.8530   26.9442 O   0  0  0  0  0  0  0  0  0  0  0  0
  2  3  1  0
  2  1  1  1
  4  5  1  0
  4  3  1  0
  6  7  1  0
  6  5  1  0
  8  2  1  0
  9  8  2  0
 10  8  1  0
 11 10  1  0
 12 13  1  0
 11 12  1  1
 13 14  2  0
 14 15  1  0
 16 15  2  0
 17 16  1  0
 18 17  2  0
 18 13  1  0
 19 21  1  0
 19 11  1  0
 20 19  2  0
 22 23  1  1
 22 21  1  0
 23 24  1  0
 24 28  1  0
 24 25  2  0
 26 22  1  0
 26 27  1  0
 29 26  2  0
M  END
$$$$
