KFD.pdb
     RDKit          3D

 29 29  0  0  1  0  0  0  0  0999 V2000
    7.6764  -16.2139   20.6916 N   0  0  0  0  0  0  0  0  0  0  0  0
    8.6612  -15.1821   20.8292 C   0  0  1  0  0  0  0  0  0  0  0  0
    8.1825  -13.8344   20.3331 C   0  0  0  0  0  0  0  0  0  0  0  0
    7.4573  -13.9507   19.0103 C   0  0  0  0  0  0  0  0  0  0  0  0
    8.2854  -13.2057   17.9764 C   0  0  0  0  0  0  0  0  0  0  0  0
    7.6373  -13.2339   16.6215 C   0  0  0  0  0  0  0  0  0  0  0  0
    8.4947  -12.6279   15.6446 N   0  0  0  0  0  0  0  0  0  0  0  0
    9.0147  -15.0039   22.2617 C   0  0  0  0  0  0  0  0  0  0  0  0
    9.8948  -14.1652   22.5714 O   0  0  0  0  0  0  0  0  0  0  0  0
    8.3649  -15.7739   23.2680 N   0  0  0  0  0  0  0  0  0  0  0  0
    8.6940  -15.6256   24.6683 C   0  0  1  0  0  0  0  0  0  0  0  0
    7.5176  -15.3958   25.5486 C   0  0  0  0  0  0  0  0  0  0  0  0
    7.2250  -14.0112   25.9029 C   0  0  0  0  0  0  0  0  0  0  0  0
    5.9883  -13.6393   26.4180 C   0  0  0  0  0  0  0  0  0  0  0  0
    5.7295  -12.3155   26.7395 C   0  0  0  0  0  0  0  0  0  0  0  0
    6.6752  -11.3183   26.5654 C   0  0  0  0  0  0  0  0  0  0  0  0
    7.8938  -11.6910   26.0566 C   0  0  0  0  0  0  0  0  0  0  0  0
    8.1499  -13.0056   25.7378 C   0  0  0  0  0  0  0  0  0  0  0  0
    9.6099  -16.7149   25.1159 C   0  0  0  0  0  0  0  0  0  0  0  0
    9.6931  -17.0672   26.3156 O   0  0  0  0  0  0  0  0  0  0  0  0
   10.4129  -17.3715   24.1554 N   0  0  0  0  0  0  0  0  0  0  0  0
   11.3592  -18.4406   24.4914 C   0  0  1  0  0  0  0  0  0  0  0  0
   12.1342  -18.8404   23.2711 C   0  0  0  0  0  0  0  0  0  0  0  0
   11.2925  -19.3235   22.1788 C   0  0  0  0  0  0  0  0  0  0  0  0
   10.1965  -19.9178   22.4345 O   0  0  0  0  0  0  0  0  0  0  0  0
   12.2070  -17.9718   25.5904 C   0  0  0  0  0  0  0  0  0  0  0  0
   12.1656  -16.7188   26.1832 O   0  0  0  0  0  0  0  0  0  0  0  0
   11.6111  -19.1794   20.8414 O   0  0  0  0  0  0  0  0  0  0  0  0
   13.0793  -18.7575   26.0785 O   0  0  0  0  0  0  0  0  0  0  0  0
  2  3  1  0
  2  1  1  1
  4  5  1  0
  4  3  1  0
  6  7  1  0
  6  5  1  0
  8  2  1  0
  9  8  2  0
 10  8  1  0
 11 10  1  0
 12 13  1  0
 11 12  1  1
 13 14  2  0
 14 15  1  0
 16 15  2  0
 17 16  1  0
 18 17  2  0
 18 13  1  0
 19 21  1  0
 19 11  1  0
 20 19  2  0
 22 23  1  6
 22 21  1  0
 23 24  1  0
 24 28  1  0
 24 25  2  0
 26 22  1  0
 26 27  1  0
 29 26  2  0
M  END
$$$$
