KFD.pdb
     RDKit          3D

 29 29  0  0  1  0  0  0  0  0999 V2000
    8.7820  -18.0060   20.7861 N   0  0  0  0  0  0  0  0  0  0  0  0
    9.9563  -17.1875   20.7176 C   0  0  1  0  0  0  0  0  0  0  0  0
   10.1533  -16.5440   19.3618 C   0  0  0  0  0  0  0  0  0  0  0  0
    9.9903  -17.5447   18.2387 C   0  0  0  0  0  0  0  0  0  0  0  0
   10.1616  -16.7868   16.9326 C   0  0  0  0  0  0  0  0  0  0  0  0
    9.8669  -17.6565   15.7438 C   0  0  0  0  0  0  0  0  0  0  0  0
    8.4783  -18.0144   15.7182 N   0  0  0  0  0  0  0  0  0  0  0  0
    9.8614  -16.0783   21.7022 C   0  0  0  0  0  0  0  0  0  0  0  0
   10.7970  -15.2454   21.7725 O   0  0  0  0  0  0  0  0  0  0  0  0
    8.7258  -15.9624   22.5536 N   0  0  0  0  0  0  0  0  0  0  0  0
    8.6290  -14.9212   23.5524 C   0  0  1  0  0  0  0  0  0  0  0  0
    7.2644  -14.3500   23.7054 C   0  0  0  0  0  0  0  0  0  0  0  0
    7.0743  -13.3877   24.7853 C   0  0  0  0  0  0  0  0  0  0  0  0
    7.5865  -12.0975   24.7067 C   0  0  0  0  0  0  0  0  0  0  0  0
    7.4010  -11.2023   25.7493 C   0  0  0  0  0  0  0  0  0  0  0  0
    6.7084  -11.5459   26.8987 C   0  0  0  0  0  0  0  0  0  0  0  0
    6.2052  -12.8204   26.9710 C   0  0  0  0  0  0  0  0  0  0  0  0
    6.3898  -13.7085   25.9353 C   0  0  0  0  0  0  0  0  0  0  0  0
    9.2779  -15.3468   24.8266 C   0  0  0  0  0  0  0  0  0  0  0  0
    9.3036  -14.6120   25.8414 O   0  0  0  0  0  0  0  0  0  0  0  0
    9.8862  -16.6212   24.8922 N   0  0  0  0  0  0  0  0  0  0  0  0
   10.5554  -17.1337   26.0925 C   0  0  1  0  0  0  0  0  0  0  0  0
    9.5858  -17.9219   26.9222 C   0  0  0  0  0  0  0  0  0  0  0  0
   10.1662  -18.4449   28.1568 C   0  0  0  0  0  0  0  0  0  0  0  0
   11.3382  -18.0944   28.5078 O   0  0  0  0  0  0  0  0  0  0  0  0
   11.7229  -17.9107   25.6684 C   0  0  0  0  0  0  0  0  0  0  0  0
   12.9644  -17.9318   26.2858 O   0  0  0  0  0  0  0  0  0  0  0  0
    9.5139  -19.3249   29.0001 O   0  0  0  0  0  0  0  0  0  0  0  0
   11.6335  -18.6513   24.6387 O   0  0  0  0  0  0  0  0  0  0  0  0
  2  3  1  0
  2  1  1  6
  4  5  1  0
  4  3  1  0
  6  7  1  0
  6  5  1  0
  8  2  1  0
  9  8  2  0
 10  8  1  0
 11 10  1  0
 12 13  1  0
 11 12  1  1
 13 14  2  0
 14 15  1  0
 16 15  2  0
 17 16  1  0
 18 17  2  0
 18 13  1  0
 19 21  1  0
 19 11  1  0
 20 19  2  0
 22 23  1  6
 22 21  1  0
 23 24  1  0
 24 28  1  0
 24 25  2  0
 26 22  1  0
 26 27  1  0
 29 26  2  0
M  END
$$$$
