KFD.pdb
     RDKit          3D

 29 29  0  0  1  0  0  0  0  0999 V2000
    8.0133  -17.1097   20.1190 N   0  0  0  0  0  0  0  0  0  0  0  0
    9.2642  -16.4115   20.1544 C   0  0  1  0  0  0  0  0  0  0  0  0
    9.4675  -15.4966   18.9658 C   0  0  0  0  0  0  0  0  0  0  0  0
    8.7037  -15.9786   17.7519 C   0  0  0  0  0  0  0  0  0  0  0  0
    9.0457  -15.0426   16.6044 C   0  0  0  0  0  0  0  0  0  0  0  0
    8.3256  -15.4253   15.3428 C   0  0  0  0  0  0  0  0  0  0  0  0
    8.6522  -14.5139   14.2847 N   0  0  0  0  0  0  0  0  0  0  0  0
    9.3335  -15.5528   21.3654 C   0  0  0  0  0  0  0  0  0  0  0  0
   10.3734  -14.8842   21.5786 O   0  0  0  0  0  0  0  0  0  0  0  0
    8.2362  -15.4900   22.2709 N   0  0  0  0  0  0  0  0  0  0  0  0
    8.2890  -14.6882   23.4732 C   0  0  1  0  0  0  0  0  0  0  0  0
    6.9992  -14.0389   23.8286 C   0  0  0  0  0  0  0  0  0  0  0  0
    6.9966  -13.1949   25.0185 C   0  0  0  0  0  0  0  0  0  0  0  0
    7.7354  -12.0185   25.0759 C   0  0  0  0  0  0  0  0  0  0  0  0
    7.7248  -11.2363   26.2209 C   0  0  0  0  0  0  0  0  0  0  0  0
    6.9899  -11.5847   27.3422 C   0  0  0  0  0  0  0  0  0  0  0  0
    6.2627  -12.7466   27.2801 C   0  0  0  0  0  0  0  0  0  0  0  0
    6.2738  -13.5225   26.1429 C   0  0  0  0  0  0  0  0  0  0  0  0
    8.9400  -15.4412   24.5845 C   0  0  0  0  0  0  0  0  0  0  0  0
    9.2311  -14.9011   25.6772 O   0  0  0  0  0  0  0  0  0  0  0  0
    9.2409  -16.8100   24.3992 N   0  0  0  0  0  0  0  0  0  0  0  0
    9.9226  -17.6288   25.4072 C   0  0  1  0  0  0  0  0  0  0  0  0
    9.8722  -19.0747   25.0117 C   0  0  0  0  0  0  0  0  0  0  0  0
   10.6189  -19.9511   25.9114 C   0  0  0  0  0  0  0  0  0  0  0  0
   10.5512  -19.7779   27.1703 O   0  0  0  0  0  0  0  0  0  0  0  0
   11.2862  -17.1170   25.5658 C   0  0  0  0  0  0  0  0  0  0  0  0
   12.3197  -17.2342   24.6486 O   0  0  0  0  0  0  0  0  0  0  0  0
   11.4232  -20.9895   25.4804 O   0  0  0  0  0  0  0  0  0  0  0  0
   11.5958  -16.4989   26.6329 O   0  0  0  0  0  0  0  0  0  0  0  0
  2  3  1  0
  2  1  1  6
  4  5  1  0
  4  3  1  0
  6  7  1  0
  6  5  1  0
  8  2  1  0
  9  8  2  0
 10  8  1  0
 11 10  1  0
 12 13  1  0
 11 12  1  1
 13 14  2  0
 14 15  1  0
 16 15  2  0
 17 16  1  0
 18 17  2  0
 18 13  1  0
 19 21  1  0
 19 11  1  0
 20 19  2  0
 22 23  1  6
 22 21  1  0
 23 24  1  0
 24 28  1  0
 24 25  2  0
 26 22  1  0
 26 27  1  0
 29 26  2  0
M  END
$$$$
