KFD.pdb
     RDKit          3D

 29 29  0  0  1  0  0  0  0  0999 V2000
    7.9287  -15.9967   19.1935 N   0  0  0  0  0  0  0  0  0  0  0  0
    9.1107  -15.2140   19.4025 C   0  0  1  0  0  0  0  0  0  0  0  0
    9.1482  -13.9580   18.5585 C   0  0  0  0  0  0  0  0  0  0  0  0
    7.9391  -13.8554   17.6546 C   0  0  0  0  0  0  0  0  0  0  0  0
    8.3533  -14.3769   16.2885 C   0  0  0  0  0  0  0  0  0  0  0  0
    7.2581  -14.2071   15.2745 C   0  0  0  0  0  0  0  0  0  0  0  0
    7.7111  -14.6153   13.9764 N   0  0  0  0  0  0  0  0  0  0  0  0
    9.1849  -14.7730   20.8199 C   0  0  0  0  0  0  0  0  0  0  0  0
   10.1557  -14.0688   21.1880 O   0  0  0  0  0  0  0  0  0  0  0  0
    8.1697  -15.1446   21.7468 N   0  0  0  0  0  0  0  0  0  0  0  0
    8.2513  -14.7874   23.1457 C   0  0  1  0  0  0  0  0  0  0  0  0
    7.0521  -14.0760   23.6628 C   0  0  0  0  0  0  0  0  0  0  0  0
    7.1319  -13.5632   25.0262 C   0  0  0  0  0  0  0  0  0  0  0  0
    6.4371  -14.1642   26.0698 C   0  0  0  0  0  0  0  0  0  0  0  0
    6.5209  -13.6541   27.3566 C   0  0  0  0  0  0  0  0  0  0  0  0
    7.2880  -12.5406   27.6573 C   0  0  0  0  0  0  0  0  0  0  0  0
    7.9715  -11.9514   26.6236 C   0  0  0  0  0  0  0  0  0  0  0  0
    7.8877  -12.4586   25.3464 C   0  0  0  0  0  0  0  0  0  0  0  0
    8.6918  -15.9533   23.9657 C   0  0  0  0  0  0  0  0  0  0  0  0
    8.0450  -17.0259   24.0041 O   0  0  0  0  0  0  0  0  0  0  0  0
    9.8780  -15.8450   24.7272 N   0  0  0  0  0  0  0  0  0  0  0  0
   10.4147  -16.9397   25.5426 C   0  0  1  0  0  0  0  0  0  0  0  0
   11.8916  -17.0702   25.3160 C   0  0  0  0  0  0  0  0  0  0  0  0
   12.2469  -17.3229   23.9214 C   0  0  0  0  0  0  0  0  0  0  0  0
   11.6585  -18.2455   23.2716 O   0  0  0  0  0  0  0  0  0  0  0  0
   10.0619  -16.6832   26.9412 C   0  0  0  0  0  0  0  0  0  0  0  0
    9.9139  -17.6347   27.9391 O   0  0  0  0  0  0  0  0  0  0  0  0
   13.2102  -16.6099   23.2325 O   0  0  0  0  0  0  0  0  0  0  0  0
    9.8628  -15.4861   27.3206 O   0  0  0  0  0  0  0  0  0  0  0  0
  2  3  1  0
  2  1  1  1
  4  5  1  0
  4  3  1  0
  6  7  1  0
  6  5  1  0
  8  2  1  0
  9  8  2  0
 10  8  1  0
 11 10  1  0
 12 13  1  0
 11 12  1  1
 13 14  2  0
 14 15  1  0
 16 15  2  0
 17 16  1  0
 18 17  2  0
 18 13  1  0
 19 21  1  0
 19 11  1  0
 20 19  2  0
 22 23  1  1
 22 21  1  0
 23 24  1  0
 24 28  1  0
 24 25  2  0
 26 22  1  0
 26 27  1  0
 29 26  2  0
M  END
$$$$
