LWE.pdb
     RDKit          3D

 32 33  0  0  1  0  0  0  0  0999 V2000
    8.5608  -19.2637   17.2953 C   0  0  0  0  0  0  0  0  0  0  0  0
   10.0335  -19.0171   17.6137 C   0  0  2  0  0  0  0  0  0  0  0  0
   10.7496  -20.3252   17.5688 C   0  0  0  0  0  0  0  0  0  0  0  0
   10.1151  -18.3302   18.9360 C   0  0  0  0  0  0  0  0  0  0  0  0
    9.3540  -17.0563   19.0566 C   0  0  2  0  0  0  0  0  0  0  0  0
    9.8852  -16.1457   18.0239 N   0  0  0  0  0  0  0  0  0  0  0  0
    9.4439  -16.4045   20.3927 C   0  0  0  0  0  0  0  0  0  0  0  0
   10.5265  -15.9146   20.7938 O   0  0  0  0  0  0  0  0  0  0  0  0
    8.3323  -16.3045   21.2668 N   0  0  0  0  0  0  0  0  0  0  0  0
    8.3945  -15.7543   22.6144 C   0  0  1  0  0  0  0  0  0  0  0  0
    7.0521  -15.3345   23.1011 C   0  0  0  0  0  0  0  0  0  0  0  0
    6.9425  -14.9274   24.4861 C   0  0  0  0  0  0  0  0  0  0  0  0
    6.7875  -15.8117   25.5504 C   0  0  0  0  0  0  0  0  0  0  0  0
    6.7246  -15.1452   26.7084 N   0  0  0  0  0  0  0  0  0  0  0  0
    6.8359  -13.8338   26.4225 C   0  0  0  0  0  0  0  0  0  0  0  0
    6.8284  -12.7394   27.2606 C   0  0  0  0  0  0  0  0  0  0  0  0
    6.9558  -11.4510   26.7607 C   0  0  0  0  0  0  0  0  0  0  0  0
    7.0895  -11.3037   25.4001 C   0  0  0  0  0  0  0  0  0  0  0  0
    7.0957  -12.4029   24.5737 C   0  0  0  0  0  0  0  0  0  0  0  0
    6.9709  -13.6940   25.0468 C   0  0  0  0  0  0  0  0  0  0  0  0
    9.2276  -16.5467   23.5200 C   0  0  0  0  0  0  0  0  0  0  0  0
    8.9653  -17.7956   23.5969 O   0  0  0  0  0  0  0  0  0  0  0  0
   10.2820  -16.0718   24.2998 N   0  0  0  0  0  0  0  0  0  0  0  0
   11.1891  -16.9360   25.0884 C   0  0  1  0  0  0  0  0  0  0  0  0
   12.5731  -16.4360   24.9398 C   0  0  0  0  0  0  0  0  0  0  0  0
   13.1967  -16.5385   23.6117 C   0  0  0  0  0  0  0  0  0  0  0  0
   14.5499  -16.0155   23.4236 C   0  0  0  0  0  0  0  0  0  0  0  0
   15.0741  -16.0366   22.2832 O   0  0  0  0  0  0  0  0  0  0  0  0
   10.6797  -16.9312   26.4446 C   0  0  0  0  0  0  0  0  0  0  0  0
   11.2791  -17.5976   27.3566 O   0  0  0  0  0  0  0  0  0  0  0  0
   15.2860  -15.4851   24.4706 O   0  0  0  0  0  0  0  0  0  0  0  0
    9.5568  -16.2393   26.8896 O   0  0  0  0  0  0  0  0  0  0  0  0
  2  3  1  1
  2  1  1  0
  4  2  1  0
  5  6  1  6
  5  4  1  0
  7  8  2  0
  7  5  1  0
  9  7  1  0
 10  9  1  0
 10 21  1  0
 10 11  1  1
 12 11  1  0
 13 12  2  0
 14 13  1  0
 15 14  1  0
 15 20  2  0
 16 15  1  0
 17 16  2  0
 17 18  1  0
 18 19  2  0
 19 20  1  0
 20 12  1  0
 21 23  1  0
 22 21  2  0
 23 24  1  0
 24 25  1  1
 24 29  1  0
 26 25  1  0
 27 31  1  0
 27 26  1  0
 28 27  2  0
 29 30  2  0
 29 32  1  0
M  END
$$$$
