LWE.pdb
     RDKit          3D

 32 33  0  0  1  0  0  0  0  0999 V2000
    8.3177  -13.9366   18.5320 C   0  0  0  0  0  0  0  0  0  0  0  0
    7.3497  -13.6135   19.6676 C   0  0  2  0  0  0  0  0  0  0  0  0
    6.8415  -12.2246   19.4714 C   0  0  0  0  0  0  0  0  0  0  0  0
    8.0656  -13.8163   20.9612 C   0  0  0  0  0  0  0  0  0  0  0  0
    8.5860  -15.1890   21.2096 C   0  0  2  0  0  0  0  0  0  0  0  0
    7.4224  -16.0959   21.1772 N   0  0  0  0  0  0  0  0  0  0  0  0
    9.3123  -15.3526   22.4996 C   0  0  0  0  0  0  0  0  0  0  0  0
   10.3396  -14.6767   22.7454 O   0  0  0  0  0  0  0  0  0  0  0  0
    8.8898  -16.2637   23.5002 N   0  0  0  0  0  0  0  0  0  0  0  0
    9.5138  -16.3911   24.8107 C   0  0  1  0  0  0  0  0  0  0  0  0
    8.5046  -16.3868   25.9046 C   0  0  0  0  0  0  0  0  0  0  0  0
    7.4887  -15.3559   25.8703 C   0  0  0  0  0  0  0  0  0  0  0  0
    6.1429  -15.5939   25.6038 C   0  0  0  0  0  0  0  0  0  0  0  0
    5.4469  -14.4525   25.6499 N   0  0  0  0  0  0  0  0  0  0  0  0
    6.3151  -13.4653   25.9429 C   0  0  0  0  0  0  0  0  0  0  0  0
    6.1001  -12.1129   26.1008 C   0  0  0  0  0  0  0  0  0  0  0  0
    7.1442  -11.2503   26.4039 C   0  0  0  0  0  0  0  0  0  0  0  0
    8.4009  -11.7914   26.5412 C   0  0  0  0  0  0  0  0  0  0  0  0
    8.6033  -13.1422   26.3814 C   0  0  0  0  0  0  0  0  0  0  0  0
    7.5814  -14.0204   26.0802 C   0  0  0  0  0  0  0  0  0  0  0  0
   10.5560  -17.4177   24.8528 C   0  0  0  0  0  0  0  0  0  0  0  0
   10.1652  -18.6285   24.9782 O   0  0  0  0  0  0  0  0  0  0  0  0
   11.9311  -17.2023   24.7623 N   0  0  0  0  0  0  0  0  0  0  0  0
   12.9456  -18.2803   24.7812 C   0  0  1  0  0  0  0  0  0  0  0  0
   14.0012  -17.9592   23.7962 C   0  0  0  0  0  0  0  0  0  0  0  0
   14.6293  -16.6317   23.8776 C   0  0  0  0  0  0  0  0  0  0  0  0
   15.6645  -16.2785   22.9062 C   0  0  0  0  0  0  0  0  0  0  0  0
   15.4403  -15.3864   22.0520 O   0  0  0  0  0  0  0  0  0  0  0  0
   13.4009  -18.3874   26.1523 C   0  0  0  0  0  0  0  0  0  0  0  0
   14.2365  -19.2979   26.4807 O   0  0  0  0  0  0  0  0  0  0  0  0
   16.9043  -16.8965   22.8944 O   0  0  0  0  0  0  0  0  0  0  0  0
   13.0159  -17.5614   27.2044 O   0  0  0  0  0  0  0  0  0  0  0  0
  2  3  1  6
  2  1  1  0
  4  2  1  0
  5  6  1  1
  5  4  1  0
  7  8  2  0
  7  5  1  0
  9  7  1  0
 10  9  1  0
 10 21  1  0
 10 11  1  1
 12 11  1  0
 13 12  2  0
 14 13  1  0
 15 14  1  0
 15 20  2  0
 16 15  1  0
 17 16  2  0
 17 18  1  0
 18 19  2  0
 19 20  1  0
 20 12  1  0
 21 23  1  0
 22 21  2  0
 23 24  1  0
 24 25  1  6
 24 29  1  0
 26 25  1  0
 27 31  1  0
 27 26  1  0
 28 27  2  0
 29 30  2  0
 29 32  1  0
M  END
$$$$
