AIR.pdb
     RDKit          3D

 25 24  0  0  1  0  0  0  0  0999 V2000
    4.8384  -16.1260   21.3706 C   0  0  0  0  0  0  0  0  0  0  0  0
    5.4633  -16.9216   22.5097 C   0  0  2  0  0  0  0  0  0  0  0  0
    4.4781  -17.2262   23.5023 N   0  0  0  0  0  0  0  0  0  0  0  0
    6.5581  -16.0927   23.0782 C   0  0  0  0  0  0  0  0  0  0  0  0
    7.5521  -15.7724   22.3832 O   0  0  0  0  0  0  0  0  0  0  0  0
    5.3839  -12.2738   26.8219 C   0  0  0  0  0  0  0  0  0  0  0  0
    6.2290  -12.8035   25.6867 C   0  0  0  0  0  0  0  0  0  0  0  0
    7.1862  -13.8708   26.0587 C   0  0  2  0  0  0  0  0  0  0  0  0
    8.4266  -13.2488   26.6780 C   0  0  0  0  0  0  0  0  0  0  0  0
    7.6106  -14.8289   25.0087 C   0  0  2  0  0  0  0  0  0  0  0  0
    6.5424  -15.6171   24.4355 N   0  0  0  0  0  0  0  0  0  0  0  0
    8.6922  -15.7383   25.4058 C   0  0  0  0  0  0  0  0  0  0  0  0
    8.4905  -16.7222   26.1443 O   0  0  0  0  0  0  0  0  0  0  0  0
   15.3484  -13.8240   21.1765 N   0  0  0  0  0  0  0  0  0  0  0  0
   15.0241  -15.2212   21.1369 C   0  0  0  0  0  0  0  0  0  0  0  0
   15.3969  -15.9422   20.1330 N   0  0  0  0  0  0  0  0  0  0  0  0
   14.2951  -15.8045   22.2010 N   0  0  0  0  0  0  0  0  0  0  0  0
   13.5564  -17.0272   21.9944 C   0  0  0  0  0  0  0  0  0  0  0  0
   12.8162  -17.3776   23.2910 C   0  0  0  0  0  0  0  0  0  0  0  0
   11.7601  -16.3543   23.5945 C   0  0  0  0  0  0  0  0  0  0  0  0
   10.8737  -16.6886   24.7608 C   0  0  2  0  0  0  0  0  0  0  0  0
   10.0052  -15.5152   24.9521 N   0  0  0  0  0  0  0  0  0  0  0  0
   11.7042  -16.7864   25.9774 C   0  0  0  0  0  0  0  0  0  0  0  0
   11.7626  -15.8314   26.7783 O   0  0  0  0  0  0  0  0  0  0  0  0
   12.4373  -17.9205   26.2711 O   0  0  0  0  0  0  0  0  0  0  0  0
  2  1  1  6
  2  3  1  0
  4  2  1  0
  4 11  1  0
  5  4  2  0
  7  6  1  0
  8  9  1  6
  8  7  1  0
 10 11  1  1
 10  8  1  0
 12 10  1  0
 13 12  2  0
 15 14  1  0
 16 15  2  0
 17 15  1  0
 18 17  1  0
 19 20  1  0
 19 18  1  0
 21 20  1  6
 21 22  1  0
 21 23  1  0
 22 12  1  0
 23 25  1  0
 24 23  2  0
M  END
$$$$
