AIR.pdb
     RDKit          3D

 25 24  0  0  1  0  0  0  0  0999 V2000
   10.1790  -18.0061   15.9152 C   0  0  0  0  0  0  0  0  0  0  0  0
    9.9696  -16.5050   15.7602 C   0  0  2  0  0  0  0  0  0  0  0  0
   10.8546  -15.9797   14.7655 N   0  0  0  0  0  0  0  0  0  0  0  0
   10.2253  -15.8846   17.0862 C   0  0  0  0  0  0  0  0  0  0  0  0
   11.3753  -15.4995   17.4072 O   0  0  0  0  0  0  0  0  0  0  0  0
    6.4831  -12.4031   19.2410 C   0  0  0  0  0  0  0  0  0  0  0  0
    7.7704  -13.0771   18.8260 C   0  0  0  0  0  0  0  0  0  0  0  0
    8.2468  -14.1415   19.7391 C   0  0  2  0  0  0  0  0  0  0  0  0
    8.5742  -13.5398   21.0955 C   0  0  0  0  0  0  0  0  0  0  0  0
    9.3917  -14.9782   19.3033 C   0  0  2  0  0  0  0  0  0  0  0  0
    9.1869  -15.6923   18.0627 N   0  0  0  0  0  0  0  0  0  0  0  0
    9.8758  -15.9315   20.3091 C   0  0  0  0  0  0  0  0  0  0  0  0
    9.2253  -16.9475   20.6235 O   0  0  0  0  0  0  0  0  0  0  0  0
   16.8912  -16.2958   18.6521 N   0  0  0  0  0  0  0  0  0  0  0  0
   16.4778  -15.2784   19.5755 C   0  0  0  0  0  0  0  0  0  0  0  0
   16.8711  -14.0597   19.4121 N   0  0  0  0  0  0  0  0  0  0  0  0
   15.6385  -15.6159   20.6645 N   0  0  0  0  0  0  0  0  0  0  0  0
   15.2400  -16.9863   20.8802 C   0  0  0  0  0  0  0  0  0  0  0  0
   13.7158  -17.0814   20.7396 C   0  0  0  0  0  0  0  0  0  0  0  0
   13.0354  -16.6217   21.9968 C   0  0  0  0  0  0  0  0  0  0  0  0
   11.5350  -16.6945   21.9653 C   0  0  2  0  0  0  0  0  0  0  0  0
   11.1084  -15.7151   20.9520 N   0  0  0  0  0  0  0  0  0  0  0  0
   11.0073  -16.2063   23.2547 C   0  0  0  0  0  0  0  0  0  0  0  0
   10.5279  -15.0578   23.3445 O   0  0  0  0  0  0  0  0  0  0  0  0
   11.0241  -16.9893   24.3934 O   0  0  0  0  0  0  0  0  0  0  0  0
  2  1  1  1
  2  3  1  0
  4  2  1  0
  4 11  1  0
  5  4  2  0
  7  6  1  0
  8  9  1  1
  8  7  1  0
 10 11  1  6
 10  8  1  0
 12 10  1  0
 13 12  2  0
 15 14  1  0
 16 15  2  0
 17 15  1  0
 18 17  1  0
 19 20  1  0
 19 18  1  0
 21 20  1  1
 21 22  1  0
 21 23  1  0
 22 12  1  0
 23 25  1  0
 24 23  2  0
M  END
$$$$
