AIR.pdb
     RDKit          3D

 25 24  0  0  1  0  0  0  0  0999 V2000
    4.4734  -15.7837   21.4769 C   0  0  0  0  0  0  0  0  0  0  0  0
    5.1521  -16.5655   22.5947 C   0  0  2  0  0  0  0  0  0  0  0  0
    4.2065  -16.8918   23.6184 N   0  0  0  0  0  0  0  0  0  0  0  0
    6.2462  -15.7128   23.1281 C   0  0  0  0  0  0  0  0  0  0  0  0
    7.1677  -15.3039   22.3814 O   0  0  0  0  0  0  0  0  0  0  0  0
    5.5734  -11.4746   26.5971 C   0  0  0  0  0  0  0  0  0  0  0  0
    6.0991  -12.4035   25.5273 C   0  0  0  0  0  0  0  0  0  0  0  0
    6.9971  -13.4773   26.0112 C   0  0  2  0  0  0  0  0  0  0  0  0
    8.2496  -12.8613   26.6119 C   0  0  0  0  0  0  0  0  0  0  0  0
    7.4021  -14.5364   25.0547 C   0  0  2  0  0  0  0  0  0  0  0  0
    6.3117  -15.3130   24.5081 N   0  0  0  0  0  0  0  0  0  0  0  0
    8.4213  -15.4646   25.5590 C   0  0  0  0  0  0  0  0  0  0  0  0
    8.6596  -15.5864   26.7766 O   0  0  0  0  0  0  0  0  0  0  0  0
   11.1146  -21.9820   22.6842 N   0  0  0  0  0  0  0  0  0  0  0  0
   11.2021  -22.4486   24.0382 C   0  0  0  0  0  0  0  0  0  0  0  0
   11.7317  -23.5983   24.2919 N   0  0  0  0  0  0  0  0  0  0  0  0
   10.7061  -21.6447   25.0926 N   0  0  0  0  0  0  0  0  0  0  0  0
   10.0953  -20.3677   24.8104 C   0  0  0  0  0  0  0  0  0  0  0  0
   11.1976  -19.3693   24.4361 C   0  0  0  0  0  0  0  0  0  0  0  0
   10.6077  -18.0390   24.0658 C   0  0  0  0  0  0  0  0  0  0  0  0
   10.1216  -17.2188   25.2271 C   0  0  2  0  0  0  0  0  0  0  0  0
    9.1653  -16.2525   24.6616 N   0  0  0  0  0  0  0  0  0  0  0  0
   11.2478  -16.4216   25.7517 C   0  0  0  0  0  0  0  0  0  0  0  0
   11.6547  -16.5980   26.9181 O   0  0  0  0  0  0  0  0  0  0  0  0
   11.8842  -15.4645   24.9842 O   0  0  0  0  0  0  0  0  0  0  0  0
  2  1  1  6
  2  3  1  0
  4  2  1  0
  4 11  1  0
  5  4  2  0
  7  6  1  0
  8  9  1  6
  8  7  1  0
 10 11  1  1
 10  8  1  0
 12 10  1  0
 13 12  2  0
 15 14  1  0
 16 15  2  0
 17 15  1  0
 18 17  1  0
 19 20  1  0
 19 18  1  0
 21 20  1  6
 21 22  1  0
 21 23  1  0
 22 12  1  0
 23 25  1  0
 24 23  2  0
M  END
$$$$
