AIR.pdb
     RDKit          3D

 25 24  0  0  1  0  0  0  0  0999 V2000
    8.0032  -12.2761   19.7251 C   0  0  0  0  0  0  0  0  0  0  0  0
    7.9995  -13.4548   18.7598 C   0  0  2  0  0  0  0  0  0  0  0  0
    6.7478  -13.5282   18.0695 N   0  0  0  0  0  0  0  0  0  0  0  0
    8.2420  -14.6825   19.5614 C   0  0  0  0  0  0  0  0  0  0  0  0
    7.2882  -15.4023   19.9434 O   0  0  0  0  0  0  0  0  0  0  0  0
   10.0523  -18.8910   17.4264 C   0  0  0  0  0  0  0  0  0  0  0  0
    9.4424  -17.9267   18.4171 C   0  0  0  0  0  0  0  0  0  0  0  0
   10.3803  -17.3831   19.4263 C   0  0  2  0  0  0  0  0  0  0  0  0
   11.0713  -18.5281   20.1479 C   0  0  0  0  0  0  0  0  0  0  0  0
    9.8500  -16.4367   20.4382 C   0  0  2  0  0  0  0  0  0  0  0  0
    9.5621  -15.1103   19.9398 N   0  0  0  0  0  0  0  0  0  0  0  0
   10.6701  -16.3062   21.6486 C   0  0  0  0  0  0  0  0  0  0  0  0
   11.7858  -15.7500   21.6340 O   0  0  0  0  0  0  0  0  0  0  0  0
    9.8236  -13.8882   28.6984 N   0  0  0  0  0  0  0  0  0  0  0  0
   10.4204  -15.0054   29.3725 C   0  0  0  0  0  0  0  0  0  0  0  0
   11.2438  -14.8068   30.3468 N   0  0  0  0  0  0  0  0  0  0  0  0
   10.1033  -16.3236   28.9655 N   0  0  0  0  0  0  0  0  0  0  0  0
    9.4966  -16.5629   27.6778 C   0  0  0  0  0  0  0  0  0  0  0  0
   10.5528  -16.3376   26.5890 C   0  0  0  0  0  0  0  0  0  0  0  0
   10.0053  -16.6881   25.2354 C   0  0  0  0  0  0  0  0  0  0  0  0
   10.9542  -16.4615   24.0927 C   0  0  2  0  0  0  0  0  0  0  0  0
   10.2054  -16.8152   22.8752 N   0  0  0  0  0  0  0  0  0  0  0  0
   12.0595  -17.4351   24.1912 C   0  0  0  0  0  0  0  0  0  0  0  0
   11.8684  -18.6354   23.9084 O   0  0  0  0  0  0  0  0  0  0  0  0
   13.3274  -17.0613   24.5943 O   0  0  0  0  0  0  0  0  0  0  0  0
  2  1  1  1
  2  3  1  0
  4  2  1  0
  4 11  1  0
  5  4  2  0
  7  6  1  0
  8  9  1  1
  8  7  1  0
 10 11  1  6
 10  8  1  0
 12 10  1  0
 13 12  2  0
 15 14  1  0
 16 15  2  0
 17 15  1  0
 18 17  1  0
 19 20  1  0
 19 18  1  0
 21 20  1  1
 21 22  1  0
 21 23  1  0
 22 12  1  0
 23 25  1  0
 24 23  2  0
M  END
$$$$
