AIR.pdb
     RDKit          3D

 25 24  0  0  1  0  0  0  0  0999 V2000
    7.6671  -12.2385   20.2506 C   0  0  0  0  0  0  0  0  0  0  0  0
    7.6393  -13.7034   20.6685 C   0  0  2  0  0  0  0  0  0  0  0  0
    6.2977  -14.2016   20.6455 N   0  0  0  0  0  0  0  0  0  0  0  0
    8.2171  -13.7833   22.0355 C   0  0  0  0  0  0  0  0  0  0  0  0
    9.4129  -13.4705   22.2495 O   0  0  0  0  0  0  0  0  0  0  0  0
    5.2721  -11.9891   26.1689 C   0  0  0  0  0  0  0  0  0  0  0  0
    6.4785  -12.3219   25.3219 C   0  0  0  0  0  0  0  0  0  0  0  0
    7.0557  -13.6669   25.5487 C   0  0  2  0  0  0  0  0  0  0  0  0
    7.7583  -13.6988   26.8957 C   0  0  0  0  0  0  0  0  0  0  0  0
    7.9742  -14.2177   24.5222 C   0  0  2  0  0  0  0  0  0  0  0  0
    7.4520  -14.2162   23.1738 N   0  0  0  0  0  0  0  0  0  0  0  0
    8.4906  -15.5602   24.8148 C   0  0  0  0  0  0  0  0  0  0  0  0
    7.7358  -16.5424   24.9557 O   0  0  0  0  0  0  0  0  0  0  0  0
   14.1143  -14.3735   20.9692 N   0  0  0  0  0  0  0  0  0  0  0  0
   13.1557  -15.2320   20.3346 C   0  0  0  0  0  0  0  0  0  0  0  0
   12.9950  -15.1855   19.0545 N   0  0  0  0  0  0  0  0  0  0  0  0
   12.3883  -16.1285   21.1166 N   0  0  0  0  0  0  0  0  0  0  0  0
   12.5478  -16.1652   22.5506 C   0  0  0  0  0  0  0  0  0  0  0  0
   11.6609  -17.2824   23.1140 C   0  0  0  0  0  0  0  0  0  0  0  0
   11.6823  -17.2731   24.6154 C   0  0  0  0  0  0  0  0  0  0  0  0
   10.3346  -17.1335   25.2650 C   0  0  2  0  0  0  0  0  0  0  0  0
    9.8755  -15.7717   24.9445 N   0  0  0  0  0  0  0  0  0  0  0  0
   10.5060  -17.1738   26.7307 C   0  0  0  0  0  0  0  0  0  0  0  0
   10.4744  -16.1196   27.3975 O   0  0  0  0  0  0  0  0  0  0  0  0
   10.7052  -18.3609   27.4096 O   0  0  0  0  0  0  0  0  0  0  0  0
  2  1  1  1
  2  3  1  0
  4  2  1  0
  4 11  1  0
  5  4  2  0
  7  6  1  0
  8  9  1  1
  8  7  1  0
 10 11  1  6
 10  8  1  0
 12 10  1  0
 13 12  2  0
 15 14  1  0
 16 15  2  0
 17 15  1  0
 18 17  1  0
 19 20  1  0
 19 18  1  0
 21 20  1  6
 21 22  1  0
 21 23  1  0
 22 12  1  0
 23 25  1  0
 24 23  2  0
M  END
$$$$
