AIR.pdb
     RDKit          3D

 25 24  0  0  1  0  0  0  0  0999 V2000
    5.0865  -18.9157   24.5711 C   0  0  0  0  0  0  0  0  0  0  0  0
    4.6709  -17.5257   24.1060 C   0  0  2  0  0  0  0  0  0  0  0  0
    4.0896  -17.5916   22.7997 N   0  0  0  0  0  0  0  0  0  0  0  0
    5.8909  -16.6770   24.1072 C   0  0  0  0  0  0  0  0  0  0  0  0
    6.6964  -16.7039   23.1459 O   0  0  0  0  0  0  0  0  0  0  0  0
    6.0016  -11.7668   26.7207 C   0  0  0  0  0  0  0  0  0  0  0  0
    6.4418  -12.7162   25.6306 C   0  0  0  0  0  0  0  0  0  0  0  0
    7.3675  -13.7879   26.0646 C   0  0  2  0  0  0  0  0  0  0  0  0
    8.7696  -13.2209   26.2115 C   0  0  0  0  0  0  0  0  0  0  0  0
    7.4398  -15.0246   25.2486 C   0  0  2  0  0  0  0  0  0  0  0  0
    6.2141  -15.7898   25.1922 N   0  0  0  0  0  0  0  0  0  0  0  0
    8.5349  -15.9346   25.6053 C   0  0  0  0  0  0  0  0  0  0  0  0
    8.4817  -16.6707   26.6101 O   0  0  0  0  0  0  0  0  0  0  0  0
   16.0090  -18.0067   22.4852 N   0  0  0  0  0  0  0  0  0  0  0  0
   15.4356  -19.3172   22.3732 C   0  0  0  0  0  0  0  0  0  0  0  0
   16.1992  -20.3581   22.3725 N   0  0  0  0  0  0  0  0  0  0  0  0
   14.0318  -19.4636   22.2635 N   0  0  0  0  0  0  0  0  0  0  0  0
   13.1718  -18.3056   22.3166 C   0  0  0  0  0  0  0  0  0  0  0  0
   12.4097  -18.3217   23.6474 C   0  0  0  0  0  0  0  0  0  0  0  0
   11.3915  -17.2190   23.6912 C   0  0  0  0  0  0  0  0  0  0  0  0
   10.5535  -17.1828   24.9378 C   0  0  2  0  0  0  0  0  0  0  0  0
    9.6905  -15.9972   24.8051 N   0  0  0  0  0  0  0  0  0  0  0  0
   11.4323  -16.9223   26.0950 C   0  0  0  0  0  0  0  0  0  0  0  0
   11.5957  -15.7576   26.5119 O   0  0  0  0  0  0  0  0  0  0  0  0
   12.0974  -17.9413   26.7501 O   0  0  0  0  0  0  0  0  0  0  0  0
  2  1  1  6
  2  3  1  0
  4  2  1  0
  4 11  1  0
  5  4  2  0
  7  6  1  0
  8  9  1  6
  8  7  1  0
 10 11  1  1
 10  8  1  0
 12 10  1  0
 13 12  2  0
 15 14  1  0
 16 15  2  0
 17 15  1  0
 18 17  1  0
 19 20  1  0
 19 18  1  0
 21 20  1  6
 21 22  1  0
 21 23  1  0
 22 12  1  0
 23 25  1  0
 24 23  2  0
M  END
$$$$
