AIR.pdb
     RDKit          3D

 25 24  0  0  1  0  0  0  0  0999 V2000
    6.7153  -15.0055   20.3319 C   0  0  0  0  0  0  0  0  0  0  0  0
    7.1032  -13.6109   20.8073 C   0  0  2  0  0  0  0  0  0  0  0  0
    7.9760  -12.9875   19.8596 N   0  0  0  0  0  0  0  0  0  0  0  0
    7.7677  -13.7639   22.1278 C   0  0  0  0  0  0  0  0  0  0  0  0
    9.0067  -13.9425   22.2095 O   0  0  0  0  0  0  0  0  0  0  0  0
    5.5137  -11.2004   26.5850 C   0  0  0  0  0  0  0  0  0  0  0  0
    6.5367  -11.7039   25.5933 C   0  0  0  0  0  0  0  0  0  0  0  0
    6.9342  -13.1206   25.7627 C   0  0  2  0  0  0  0  0  0  0  0  0
    7.7264  -13.2767   27.0499 C   0  0  0  0  0  0  0  0  0  0  0  0
    7.6844  -13.7744   24.6625 C   0  0  2  0  0  0  0  0  0  0  0  0
    7.0417  -13.7168   23.3685 N   0  0  0  0  0  0  0  0  0  0  0  0
    8.0713  -15.1662   24.9232 C   0  0  0  0  0  0  0  0  0  0  0  0
    7.2307  -16.0845   24.9886 O   0  0  0  0  0  0  0  0  0  0  0  0
   12.9639  -20.3104   21.3828 N   0  0  0  0  0  0  0  0  0  0  0  0
   13.4288  -20.7794   22.6566 C   0  0  0  0  0  0  0  0  0  0  0  0
   13.8377  -21.9970   22.7862 N   0  0  0  0  0  0  0  0  0  0  0  0
   13.4371  -19.9031   23.7684 N   0  0  0  0  0  0  0  0  0  0  0  0
   12.8899  -18.5725   23.6519 C   0  0  0  0  0  0  0  0  0  0  0  0
   11.6224  -18.4869   24.5110 C   0  0  0  0  0  0  0  0  0  0  0  0
   10.9765  -17.1382   24.3741 C   0  0  0  0  0  0  0  0  0  0  0  0
    9.7684  -16.9259   25.2418 C   0  0  2  0  0  0  0  0  0  0  0  0
    9.4255  -15.5003   25.1079 N   0  0  0  0  0  0  0  0  0  0  0  0
   10.1548  -17.1236   26.6528 C   0  0  0  0  0  0  0  0  0  0  0  0
   10.4275  -16.1426   27.3743 O   0  0  0  0  0  0  0  0  0  0  0  0
   10.2288  -18.3818   27.2197 O   0  0  0  0  0  0  0  0  0  0  0  0
  2  1  1  6
  2  3  1  0
  4  2  1  0
  4 11  1  0
  5  4  2  0
  7  6  1  0
  8  9  1  1
  8  7  1  0
 10 11  1  6
 10  8  1  0
 12 10  1  0
 13 12  2  0
 15 14  1  0
 16 15  2  0
 17 15  1  0
 18 17  1  0
 19 20  1  0
 19 18  1  0
 21 20  1  6
 21 22  1  0
 21 23  1  0
 22 12  1  0
 23 25  1  0
 24 23  2  0
M  END
$$$$
