YIK.pdb
     RDKit          3D

 30 30  0  0  1  0  0  0  0  0999 V2000
    7.5988  -13.9648   15.3310 O   0  0  0  0  0  0  0  0  0  0  0  0
    7.9131  -13.9426   16.6747 C   0  0  0  0  0  0  0  0  0  0  0  0
    7.4620  -12.9364   17.4724 C   0  0  0  0  0  0  0  0  0  0  0  0
    7.7770  -12.9174   18.8104 C   0  0  0  0  0  0  0  0  0  0  0  0
    8.5489  -13.9038   19.3762 C   0  0  0  0  0  0  0  0  0  0  0  0
    8.8920  -13.8888   20.8197 C   0  0  0  0  0  0  0  0  0  0  0  0
    8.3915  -15.1410   21.5207 C   0  0  2  0  0  0  0  0  0  0  0  0
    6.9881  -15.2482   21.2694 N   0  0  0  0  0  0  0  0  0  0  0  0
    8.7209  -14.9980   22.9548 C   0  0  0  0  0  0  0  0  0  0  0  0
    9.9161  -15.0481   23.3252 O   0  0  0  0  0  0  0  0  0  0  0  0
    8.9917  -14.9102   18.5443 C   0  0  0  0  0  0  0  0  0  0  0  0
    8.6820  -14.9345   17.2142 C   0  0  0  0  0  0  0  0  0  0  0  0
    5.7177  -11.7946   26.3652 C   0  0  0  0  0  0  0  0  0  0  0  0
    6.8653  -12.4361   25.6119 C   0  0  0  0  0  0  0  0  0  0  0  0
    7.3125  -13.7340   26.1998 C   0  0  2  0  0  0  0  0  0  0  0  0
    7.9338  -13.5369   27.5898 C   0  0  0  0  0  0  0  0  0  0  0  0
    8.0471  -14.6708   25.3611 C   0  0  2  0  0  0  0  0  0  0  0  0
    7.7934  -14.8037   23.9861 N   0  0  0  0  0  0  0  0  0  0  0  0
    8.1872  -15.9917   26.0515 C   0  0  0  0  0  0  0  0  0  0  0  0
    7.1717  -16.6899   26.3393 O   0  0  0  0  0  0  0  0  0  0  0  0
    9.4411  -16.5299   26.4206 N   0  0  0  0  0  0  0  0  0  0  0  0
    9.5525  -17.7891   27.1243 C   0  0  1  0  0  0  0  0  0  0  0  0
   10.2953  -18.7839   26.2644 C   0  0  0  0  0  0  0  0  0  0  0  0
   10.4688  -20.1286   26.8866 C   0  0  0  0  0  0  0  0  0  0  0  0
   11.2117  -21.0826   25.9806 C   0  0  0  0  0  0  0  0  0  0  0  0
   11.2638  -22.4822   26.5108 C   0  0  0  0  0  0  0  0  0  0  0  0
   11.8377  -23.3774   25.5072 N   0  0  0  0  0  0  0  0  0  0  0  0
   10.3959  -17.5926   28.3748 C   0  0  0  0  0  0  0  0  0  0  0  0
   11.1128  -16.4302   28.5776 O   0  0  0  0  0  0  0  0  0  0  0  0
   10.4456  -18.4970   29.2402 O   0  0  0  0  0  0  0  0  0  0  0  0
  2  1  1  0
  3  2  2  0
  4  3  1  0
  5 11  1  0
  5  4  2  0
  6  5  1  0
  7  6  1  0
  7  8  1  1
  9 10  2  0
  9  7  1  0
 11 12  2  0
 12  2  1  0
 14 13  1  0
 15 17  1  0
 15 14  1  0
 15 16  1  1
 17 18  1  6
 18  9  1  0
 19 17  1  0
 20 19  2  0
 21 19  1  0
 22 21  1  0
 22 23  1  6
 23 24  1  0
 24 25  1  0
 25 26  1  0
 27 26  1  0
 28 29  1  0
 28 22  1  0
 30 28  2  0
M  END
$$$$
