YIK.pdb
     RDKit          3D

 30 30  0  0  1  0  0  0  0  0999 V2000
   10.1000  -14.0384   31.4031 O   0  0  0  0  0  0  0  0  0  0  0  0
   10.0265  -14.4203   30.0788 C   0  0  0  0  0  0  0  0  0  0  0  0
   10.3908  -15.6762   29.7016 C   0  0  0  0  0  0  0  0  0  0  0  0
   10.3164  -16.0532   28.3816 C   0  0  0  0  0  0  0  0  0  0  0  0
    9.8765  -15.1820   27.4140 C   0  0  0  0  0  0  0  0  0  0  0  0
    9.7939  -15.5832   25.9879 C   0  0  0  0  0  0  0  0  0  0  0  0
    8.3659  -15.9168   25.5885 C   0  0  2  0  0  0  0  0  0  0  0  0
    7.9331  -17.0130   26.3980 N   0  0  0  0  0  0  0  0  0  0  0  0
    8.3792  -16.2253   24.1428 C   0  0  0  0  0  0  0  0  0  0  0  0
    8.3558  -17.4182   23.7623 O   0  0  0  0  0  0  0  0  0  0  0  0
    9.5142  -13.9168   27.8251 C   0  0  0  0  0  0  0  0  0  0  0  0
    9.5860  -13.5364   29.1350 C   0  0  0  0  0  0  0  0  0  0  0  0
    8.0459  -12.4906   19.3641 C   0  0  0  0  0  0  0  0  0  0  0  0
    8.7289  -13.3584   20.4015 C   0  0  0  0  0  0  0  0  0  0  0  0
    7.9616  -14.5927   20.7446 C   0  0  2  0  0  0  0  0  0  0  0  0
    6.4718  -14.2878   20.9559 C   0  0  0  0  0  0  0  0  0  0  0  0
    8.5128  -15.5136   21.7289 C   0  0  2  0  0  0  0  0  0  0  0  0
    8.4167  -15.2796   23.1104 N   0  0  0  0  0  0  0  0  0  0  0  0
    9.8786  -15.9654   21.3147 C   0  0  0  0  0  0  0  0  0  0  0  0
   10.9090  -15.6034   21.9542 O   0  0  0  0  0  0  0  0  0  0  0  0
   10.0979  -16.8078   20.2010 N   0  0  0  0  0  0  0  0  0  0  0  0
   11.3779  -17.4389   19.9631 C   0  0  1  0  0  0  0  0  0  0  0  0
   11.2020  -18.5906   19.0021 C   0  0  0  0  0  0  0  0  0  0  0  0
   12.4516  -19.3552   18.7205 C   0  0  0  0  0  0  0  0  0  0  0  0
   12.2417  -20.4199   17.6691 C   0  0  0  0  0  0  0  0  0  0  0  0
   13.4583  -21.2586   17.4258 C   0  0  0  0  0  0  0  0  0  0  0  0
   13.1756  -22.2681   16.4065 N   0  0  0  0  0  0  0  0  0  0  0  0
   12.3064  -16.4486   19.2769 C   0  0  0  0  0  0  0  0  0  0  0  0
   11.8074  -15.4204   18.5022 O   0  0  0  0  0  0  0  0  0  0  0  0
   13.5466  -16.5618   19.4125 O   0  0  0  0  0  0  0  0  0  0  0  0
  2  1  1  0
  3  2  2  0
  4  3  1  0
  5 11  1  0
  5  4  2  0
  6  5  1  0
  7  6  1  0
  7  8  1  1
  9 10  2  0
  9  7  1  0
 11 12  2  0
 12  2  1  0
 14 13  1  0
 15 17  1  0
 15 14  1  0
 15 16  1  1
 17 18  1  1
 18  9  1  0
 19 17  1  0
 20 19  2  0
 21 19  1  0
 22 21  1  0
 22 23  1  6
 23 24  1  0
 24 25  1  0
 25 26  1  0
 27 26  1  0
 28 29  1  0
 28 22  1  0
 30 28  2  0
M  END
$$$$
