YIK.pdb
     RDKit          3D

 30 30  0  0  1  0  0  0  0  0999 V2000
    6.4684  -16.0256   15.3485 O   0  0  0  0  0  0  0  0  0  0  0  0
    6.7867  -15.9492   16.6893 C   0  0  0  0  0  0  0  0  0  0  0  0
    6.3033  -16.8705   17.5668 C   0  0  0  0  0  0  0  0  0  0  0  0
    6.6224  -16.7914   18.9017 C   0  0  0  0  0  0  0  0  0  0  0  0
    7.4306  -15.7901   19.3844 C   0  0  0  0  0  0  0  0  0  0  0  0
    7.7786  -15.6996   20.8240 C   0  0  0  0  0  0  0  0  0  0  0  0
    8.5819  -14.4442   21.1215 C   0  0  2  0  0  0  0  0  0  0  0  0
    9.7829  -14.5033   20.3480 N   0  0  0  0  0  0  0  0  0  0  0  0
    8.8246  -14.4182   22.5796 C   0  0  0  0  0  0  0  0  0  0  0  0
    9.8806  -14.9075   23.0420 O   0  0  0  0  0  0  0  0  0  0  0  0
    7.9056  -14.8712   18.4729 C   0  0  0  0  0  0  0  0  0  0  0  0
    7.5920  -14.9445   17.1455 C   0  0  0  0  0  0  0  0  0  0  0  0
    6.8178  -11.8703   27.9923 C   0  0  0  0  0  0  0  0  0  0  0  0
    7.6663  -12.8736   27.2378 C   0  0  0  0  0  0  0  0  0  0  0  0
    7.3345  -12.9611   25.7844 C   0  0  2  0  0  0  0  0  0  0  0  0
    5.8225  -13.1052   25.5607 C   0  0  0  0  0  0  0  0  0  0  0  0
    8.1347  -13.8278   24.9306 C   0  0  2  0  0  0  0  0  0  0  0  0
    7.9573  -13.8793   23.5383 N   0  0  0  0  0  0  0  0  0  0  0  0
    8.2700  -15.1864   25.5448 C   0  0  0  0  0  0  0  0  0  0  0  0
    7.2868  -15.9815   25.5960 O   0  0  0  0  0  0  0  0  0  0  0  0
    9.4830  -15.6555   26.0984 N   0  0  0  0  0  0  0  0  0  0  0  0
    9.6084  -16.9928   26.6360 C   0  0  1  0  0  0  0  0  0  0  0  0
   10.7539  -17.7047   25.9564 C   0  0  0  0  0  0  0  0  0  0  0  0
   10.4395  -19.0929   25.5100 C   0  0  0  0  0  0  0  0  0  0  0  0
   11.6292  -19.7662   24.8662 C   0  0  0  0  0  0  0  0  0  0  0  0
   11.3164  -21.1259   24.3221 C   0  0  0  0  0  0  0  0  0  0  0  0
   12.4979  -21.6890   23.6704 N   0  0  0  0  0  0  0  0  0  0  0  0
    9.9726  -16.9093   28.1105 C   0  0  0  0  0  0  0  0  0  0  0  0
   10.0225  -18.0413   28.8992 O   0  0  0  0  0  0  0  0  0  0  0  0
   10.2332  -15.7972   28.6249 O   0  0  0  0  0  0  0  0  0  0  0  0
  2  1  1  0
  3  2  2  0
  4  3  1  0
  5 11  1  0
  5  4  2  0
  6  5  1  0
  7  6  1  0
  7  8  1  6
  9 10  2  0
  9  7  1  0
 11 12  2  0
 12  2  1  0
 14 13  1  0
 15 17  1  0
 15 14  1  0
 15 16  1  1
 17 18  1  6
 18  9  1  0
 19 17  1  0
 20 19  2  0
 21 19  1  0
 22 21  1  0
 22 23  1  6
 23 24  1  0
 24 25  1  0
 25 26  1  0
 27 26  1  0
 28 29  1  0
 28 22  1  0
 30 28  2  0
M  END
$$$$
