YIK.pdb
     RDKit          3D

 30 30  0  0  1  0  0  0  0  0999 V2000
    6.5162  -10.3758   28.5957 O   0  0  0  0  0  0  0  0  0  0  0  0
    6.8941  -11.5137   27.9120 C   0  0  0  0  0  0  0  0  0  0  0  0
    6.4485  -11.7377   26.6456 C   0  0  0  0  0  0  0  0  0  0  0  0
    6.8268  -12.8722   25.9676 C   0  0  0  0  0  0  0  0  0  0  0  0
    7.6575  -13.8039   26.5425 C   0  0  0  0  0  0  0  0  0  0  0  0
    8.0694  -15.0301   25.8156 C   0  0  0  0  0  0  0  0  0  0  0  0
    6.8961  -15.6599   25.0831 C   0  0  2  0  0  0  0  0  0  0  0  0
    6.3985  -16.7263   25.8952 N   0  0  0  0  0  0  0  0  0  0  0  0
    7.3959  -16.1100   23.7666 C   0  0  0  0  0  0  0  0  0  0  0  0
    7.5243  -17.3344   23.5368 O   0  0  0  0  0  0  0  0  0  0  0  0
    8.0932  -13.5508   27.8258 C   0  0  0  0  0  0  0  0  0  0  0  0
    7.7208  -12.4255   28.5046 C   0  0  0  0  0  0  0  0  0  0  0  0
    8.6719  -12.7998   18.8608 C   0  0  0  0  0  0  0  0  0  0  0  0
    8.9557  -13.5786   20.1292 C   0  0  0  0  0  0  0  0  0  0  0  0
    8.1258  -14.8122   20.2693 C   0  0  2  0  0  0  0  0  0  0  0  0
    6.6590  -14.5475   19.9013 C   0  0  0  0  0  0  0  0  0  0  0  0
    8.2882  -15.6387   21.4572 C   0  0  2  0  0  0  0  0  0  0  0  0
    7.7561  -15.2716   22.7041 N   0  0  0  0  0  0  0  0  0  0  0  0
    9.6950  -16.1409   21.5564 C   0  0  0  0  0  0  0  0  0  0  0  0
   10.4710  -15.7356   22.4703 O   0  0  0  0  0  0  0  0  0  0  0  0
   10.2348  -17.0807   20.6490 N   0  0  0  0  0  0  0  0  0  0  0  0
   11.5768  -17.6001   20.7982 C   0  0  1  0  0  0  0  0  0  0  0  0
   11.6971  -18.9092   20.0547 C   0  0  0  0  0  0  0  0  0  0  0  0
   13.0556  -19.5235   20.1031 C   0  0  0  0  0  0  0  0  0  0  0  0
   13.1350  -20.7927   19.2872 C   0  0  0  0  0  0  0  0  0  0  0  0
   14.4868  -21.4361   19.3244 C   0  0  0  0  0  0  0  0  0  0  0  0
   14.4459  -22.7283   18.6413 N   0  0  0  0  0  0  0  0  0  0  0  0
   12.5612  -16.6445   20.1413 C   0  0  0  0  0  0  0  0  0  0  0  0
   13.8345  -16.4718   20.6464 O   0  0  0  0  0  0  0  0  0  0  0  0
   12.2174  -15.9995   19.1239 O   0  0  0  0  0  0  0  0  0  0  0  0
  2  1  1  0
  3  2  2  0
  4  3  1  0
  5 11  1  0
  5  4  2  0
  6  5  1  0
  7  6  1  0
  7  8  1  1
  9 10  2  0
  9  7  1  0
 11 12  2  0
 12  2  1  0
 14 13  1  0
 15 17  1  0
 15 14  1  0
 15 16  1  1
 17 18  1  1
 18  9  1  0
 19 17  1  0
 20 19  2  0
 21 19  1  0
 22 21  1  0
 22 23  1  6
 23 24  1  0
 24 25  1  0
 25 26  1  0
 27 26  1  0
 28 29  1  0
 28 22  1  0
 30 28  2  0
M  END
$$$$
