YIK.pdb
     RDKit          3D

 30 30  0  0  1  0  0  0  0  0999 V2000
    8.2053  -22.1974   13.2570 O   0  0  0  0  0  0  0  0  0  0  0  0
    8.4999  -21.4416   14.3736 C   0  0  0  0  0  0  0  0  0  0  0  0
    8.4477  -21.9961   15.6155 C   0  0  0  0  0  0  0  0  0  0  0  0
    8.7417  -21.2404   16.7257 C   0  0  0  0  0  0  0  0  0  0  0  0
    9.0933  -19.9164   16.6153 C   0  0  0  0  0  0  0  0  0  0  0  0
    9.4119  -19.0958   17.8098 C   0  0  0  0  0  0  0  0  0  0  0  0
    9.7870  -17.6751   17.4214 C   0  0  2  0  0  0  0  0  0  0  0  0
   10.9971  -17.7372   16.6624 N   0  0  0  0  0  0  0  0  0  0  0  0
    9.9202  -16.9022   18.6745 C   0  0  0  0  0  0  0  0  0  0  0  0
   11.0166  -16.8845   19.2794 O   0  0  0  0  0  0  0  0  0  0  0  0
    9.1379  -19.3816   15.3453 C   0  0  0  0  0  0  0  0  0  0  0  0
    8.8469  -20.1273   14.2386 C   0  0  0  0  0  0  0  0  0  0  0  0
    6.6719  -12.4286   19.8483 C   0  0  0  0  0  0  0  0  0  0  0  0
    7.9740  -13.1993   19.7681 C   0  0  0  0  0  0  0  0  0  0  0  0
    8.0698  -14.3122   20.7592 C   0  0  2  0  0  0  0  0  0  0  0  0
    8.1829  -13.7786   22.1943 C   0  0  0  0  0  0  0  0  0  0  0  0
    8.9631  -15.4279   20.4807 C   0  0  2  0  0  0  0  0  0  0  0  0
    8.9022  -16.1554   19.2808 N   0  0  0  0  0  0  0  0  0  0  0  0
    9.0884  -16.3102   21.6836 C   0  0  0  0  0  0  0  0  0  0  0  0
    8.1975  -17.1643   21.9637 O   0  0  0  0  0  0  0  0  0  0  0  0
   10.1897  -16.2429   22.5671 N   0  0  0  0  0  0  0  0  0  0  0  0
   10.3097  -17.1293   23.7042 C   0  0  1  0  0  0  0  0  0  0  0  0
   11.7287  -17.6374   23.8007 C   0  0  0  0  0  0  0  0  0  0  0  0
   11.9809  -18.5472   24.9557 C   0  0  0  0  0  0  0  0  0  0  0  0
   13.4180  -19.0105   25.0111 C   0  0  0  0  0  0  0  0  0  0  0  0
   13.6780  -20.0018   26.1031 C   0  0  0  0  0  0  0  0  0  0  0  0
   15.0879  -20.3892   26.1032 N   0  0  0  0  0  0  0  0  0  0  0  0
   10.0495  -16.3456   24.9817 C   0  0  0  0  0  0  0  0  0  0  0  0
    9.8903  -14.9744   24.9585 O   0  0  0  0  0  0  0  0  0  0  0  0
    9.9771  -16.9483   26.0775 O   0  0  0  0  0  0  0  0  0  0  0  0
  2  1  1  0
  3  2  2  0
  4  3  1  0
  5 11  1  0
  5  4  2  0
  6  5  1  0
  7  6  1  0
  7  8  1  1
  9 10  2  0
  9  7  1  0
 11 12  2  0
 12  2  1  0
 14 13  1  0
 15 17  1  0
 15 14  1  0
 15 16  1  1
 17 18  1  6
 18  9  1  0
 19 17  1  0
 20 19  2  0
 21 19  1  0
 22 21  1  0
 22 23  1  1
 23 24  1  0
 24 25  1  0
 25 26  1  0
 27 26  1  0
 28 29  1  0
 28 22  1  0
 30 28  2  0
M  END
$$$$
