YIK.pdb
     RDKit          3D

 30 30  0  0  1  0  0  0  0  0999 V2000
    7.3064  -20.5726   17.6899 O   0  0  0  0  0  0  0  0  0  0  0  0
    7.6787  -19.8466   18.8031 C   0  0  0  0  0  0  0  0  0  0  0  0
    8.9351  -19.9617   19.3135 C   0  0  0  0  0  0  0  0  0  0  0  0
    9.3025  -19.2370   20.4225 C   0  0  0  0  0  0  0  0  0  0  0  0
    8.4210  -18.3838   21.0420 C   0  0  0  0  0  0  0  0  0  0  0  0
    8.8118  -17.5989   22.2390 C   0  0  0  0  0  0  0  0  0  0  0  0
    8.8154  -16.1075   21.9462 C   0  0  2  0  0  0  0  0  0  0  0  0
    9.7126  -15.8808   20.8564 N   0  0  0  0  0  0  0  0  0  0  0  0
    9.2201  -15.4206   23.1912 C   0  0  0  0  0  0  0  0  0  0  0  0
   10.4183  -15.0985   23.3611 O   0  0  0  0  0  0  0  0  0  0  0  0
    7.1556  -18.2874   20.5032 C   0  0  0  0  0  0  0  0  0  0  0  0
    6.7847  -19.0048   19.4016 C   0  0  0  0  0  0  0  0  0  0  0  0
    5.8222  -11.9289   26.0927 C   0  0  0  0  0  0  0  0  0  0  0  0
    6.9728  -12.5525   25.3290 C   0  0  0  0  0  0  0  0  0  0  0  0
    7.7509  -13.5447   26.1291 C   0  0  2  0  0  0  0  0  0  0  0  0
    8.3216  -12.9128   27.4067 C   0  0  0  0  0  0  0  0  0  0  0  0
    8.6902  -14.4209   25.4431 C   0  0  2  0  0  0  0  0  0  0  0  0
    8.3641  -15.0783   24.2456 N   0  0  0  0  0  0  0  0  0  0  0  0
    9.3801  -15.3177   26.4234 C   0  0  0  0  0  0  0  0  0  0  0  0
    9.8456  -14.8640   27.5092 O   0  0  0  0  0  0  0  0  0  0  0  0
    9.5535  -16.7024   26.1989 N   0  0  0  0  0  0  0  0  0  0  0  0
   10.1613  -17.5647   27.1889 C   0  0  1  0  0  0  0  0  0  0  0  0
   11.4430  -18.1422   26.6369 C   0  0  0  0  0  0  0  0  0  0  0  0
   11.2484  -19.2435   25.6497 C   0  0  0  0  0  0  0  0  0  0  0  0
   11.0170  -20.5761   26.3230 C   0  0  0  0  0  0  0  0  0  0  0  0
   10.8429  -21.7055   25.3551 C   0  0  0  0  0  0  0  0  0  0  0  0
   12.0677  -21.8937   24.5789 N   0  0  0  0  0  0  0  0  0  0  0  0
   10.5546  -16.7366   28.4027 C   0  0  0  0  0  0  0  0  0  0  0  0
   10.0991  -17.0590   29.6655 O   0  0  0  0  0  0  0  0  0  0  0  0
   11.3047  -15.7432   28.2616 O   0  0  0  0  0  0  0  0  0  0  0  0
  2  1  1  0
  3  2  2  0
  4  3  1  0
  5 11  1  0
  5  4  2  0
  6  5  1  0
  7  6  1  0
  7  8  1  6
  9 10  2  0
  9  7  1  0
 11 12  2  0
 12  2  1  0
 14 13  1  0
 15 17  1  0
 15 14  1  0
 15 16  1  1
 17 18  1  6
 18  9  1  0
 19 17  1  0
 20 19  2  0
 21 19  1  0
 22 21  1  0
 22 23  1  6
 23 24  1  0
 24 25  1  0
 25 26  1  0
 27 26  1  0
 28 29  1  0
 28 22  1  0
 30 28  2  0
M  END
$$$$
