YIK.pdb
     RDKit          3D

 30 30  0  0  1  0  0  0  0  0999 V2000
    1.9784  -20.1055   19.6459 O   0  0  0  0  0  0  0  0  0  0  0  0
    2.8723  -19.5504   20.5390 C   0  0  0  0  0  0  0  0  0  0  0  0
    2.9035  -18.2042   20.7376 C   0  0  0  0  0  0  0  0  0  0  0  0
    3.7952  -17.6547   21.6279 C   0  0  0  0  0  0  0  0  0  0  0  0
    4.6724  -18.4403   22.3365 C   0  0  0  0  0  0  0  0  0  0  0  0
    5.6369  -17.8529   23.2990 C   0  0  0  0  0  0  0  0  0  0  0  0
    6.5302  -16.8223   22.6284 C   0  0  2  0  0  0  0  0  0  0  0  0
    7.2262  -17.4769   21.5646 N   0  0  0  0  0  0  0  0  0  0  0  0
    7.4282  -16.2808   23.6704 C   0  0  0  0  0  0  0  0  0  0  0  0
    8.6206  -16.6603   23.7208 O   0  0  0  0  0  0  0  0  0  0  0  0
    4.6183  -19.8000   22.1152 C   0  0  0  0  0  0  0  0  0  0  0  0
    3.7347  -20.3519   21.2319 C   0  0  0  0  0  0  0  0  0  0  0  0
    6.0116  -11.5857   26.4091 C   0  0  0  0  0  0  0  0  0  0  0  0
    7.0009  -12.4337   25.6357 C   0  0  0  0  0  0  0  0  0  0  0  0
    7.5036  -13.6120   26.4032 C   0  0  2  0  0  0  0  0  0  0  0  0
    8.5380  -13.1956   27.4585 C   0  0  0  0  0  0  0  0  0  0  0  0
    7.8658  -14.8219   25.6782 C   0  0  2  0  0  0  0  0  0  0  0  0
    7.0668  -15.3466   24.6493 N   0  0  0  0  0  0  0  0  0  0  0  0
    8.3488  -15.8747   26.6266 C   0  0  0  0  0  0  0  0  0  0  0  0
    7.5341  -16.5914   27.2779 O   0  0  0  0  0  0  0  0  0  0  0  0
    9.7214  -16.1270   26.8510 N   0  0  0  0  0  0  0  0  0  0  0  0
   10.1688  -17.2263   27.6784 C   0  0  1  0  0  0  0  0  0  0  0  0
   11.1904  -18.0432   26.9233 C   0  0  0  0  0  0  0  0  0  0  0  0
   11.7658  -19.1805   27.6984 C   0  0  0  0  0  0  0  0  0  0  0  0
   12.7843  -19.9571   26.8968 C   0  0  0  0  0  0  0  0  0  0  0  0
   13.2980  -21.1697   27.6098 C   0  0  0  0  0  0  0  0  0  0  0  0
   14.2784  -21.8637   26.7760 N   0  0  0  0  0  0  0  0  0  0  0  0
   10.8839  -16.6750   28.9025 C   0  0  0  0  0  0  0  0  0  0  0  0
   11.2591  -15.3482   28.9734 O   0  0  0  0  0  0  0  0  0  0  0  0
   11.1401  -17.4323   29.8670 O   0  0  0  0  0  0  0  0  0  0  0  0
  2  1  1  0
  3  2  2  0
  4  3  1  0
  5 11  1  0
  5  4  2  0
  6  5  1  0
  7  6  1  0
  7  8  1  6
  9 10  2  0
  9  7  1  0
 11 12  2  0
 12  2  1  0
 14 13  1  0
 15 17  1  0
 15 14  1  0
 15 16  1  6
 17 18  1  1
 18  9  1  0
 19 17  1  0
 20 19  2  0
 21 19  1  0
 22 21  1  0
 22 23  1  6
 23 24  1  0
 24 25  1  0
 25 26  1  0
 27 26  1  0
 28 29  1  0
 28 22  1  0
 30 28  2  0
M  END
$$$$
