YIK.pdb
     RDKit          3D

 30 30  0  0  1  0  0  0  0  0999 V2000
    3.4318  -23.0350   21.3550 O   0  0  0  0  0  0  0  0  0  0  0  0
    4.2572  -22.1072   21.9573 C   0  0  0  0  0  0  0  0  0  0  0  0
    5.5974  -22.3285   22.0428 C   0  0  0  0  0  0  0  0  0  0  0  0
    6.4166  -21.4021   22.6434 C   0  0  0  0  0  0  0  0  0  0  0  0
    5.9117  -20.2373   23.1697 C   0  0  0  0  0  0  0  0  0  0  0  0
    6.7909  -19.2337   23.8189 C   0  0  0  0  0  0  0  0  0  0  0  0
    6.9879  -18.0147   22.9329 C   0  0  2  0  0  0  0  0  0  0  0  0
    7.6460  -18.4468   21.7393 N   0  0  0  0  0  0  0  0  0  0  0  0
    7.7720  -17.0328   23.7118 C   0  0  0  0  0  0  0  0  0  0  0  0
    9.0232  -17.0638   23.6696 O   0  0  0  0  0  0  0  0  0  0  0  0
    4.5509  -20.0399   23.0687 C   0  0  0  0  0  0  0  0  0  0  0  0
    3.7319  -20.9565   22.4732 C   0  0  0  0  0  0  0  0  0  0  0  0
    7.4249  -11.5311   26.7513 C   0  0  0  0  0  0  0  0  0  0  0  0
    8.1686  -12.8054   26.4062 C   0  0  0  0  0  0  0  0  0  0  0  0
    7.3300  -13.8076   25.6833 C   0  0  2  0  0  0  0  0  0  0  0  0
    5.9471  -13.9568   26.3332 C   0  0  0  0  0  0  0  0  0  0  0  0
    7.9294  -15.0757   25.2918 C   0  0  2  0  0  0  0  0  0  0  0  0
    7.2359  -16.0280   24.5271 N   0  0  0  0  0  0  0  0  0  0  0  0
    8.6618  -15.6861   26.4459 C   0  0  0  0  0  0  0  0  0  0  0  0
    8.0403  -16.2834   27.3726 O   0  0  0  0  0  0  0  0  0  0  0  0
   10.0688  -15.6316   26.5709 N   0  0  0  0  0  0  0  0  0  0  0  0
   10.7672  -16.3258   27.6308 C   0  0  1  0  0  0  0  0  0  0  0  0
   12.1932  -16.5883   27.2083 C   0  0  0  0  0  0  0  0  0  0  0  0
   12.9965  -17.3644   28.1970 C   0  0  0  0  0  0  0  0  0  0  0  0
   13.0014  -18.8437   27.8895 C   0  0  0  0  0  0  0  0  0  0  0  0
   13.8670  -19.6380   28.8183 C   0  0  0  0  0  0  0  0  0  0  0  0
   13.7394  -21.0648   28.5253 N   0  0  0  0  0  0  0  0  0  0  0  0
   10.8437  -15.4263   28.8551 C   0  0  0  0  0  0  0  0  0  0  0  0
   10.7443  -14.0540   28.7406 O   0  0  0  0  0  0  0  0  0  0  0  0
   10.9995  -15.9326   29.9903 O   0  0  0  0  0  0  0  0  0  0  0  0
  2  1  1  0
  3  2  2  0
  4  3  1  0
  5 11  1  0
  5  4  2  0
  6  5  1  0
  7  6  1  0
  7  8  1  6
  9 10  2  0
  9  7  1  0
 11 12  2  0
 12  2  1  0
 14 13  1  0
 15 17  1  0
 15 14  1  0
 15 16  1  1
 17 18  1  1
 18  9  1  0
 19 17  1  0
 20 19  2  0
 21 19  1  0
 22 21  1  0
 22 23  1  6
 23 24  1  0
 24 25  1  0
 25 26  1  0
 27 26  1  0
 28 29  1  0
 28 22  1  0
 30 28  2  0
M  END
$$$$
