SFT.pdb
     RDKit          3D

 25 25  0  0  1  0  0  0  0  0999 V2000
    9.4768  -18.5352   20.9241 O   0  0  0  0  0  0  0  0  0  0  0  0
    8.2405  -17.9310   20.6337 C   0  0  0  0  0  0  0  0  0  0  0  0
    8.5025  -16.4505   20.5199 C   0  0  2  0  0  0  0  0  0  0  0  0
    9.4942  -16.2343   19.4833 N   0  0  0  0  0  0  0  0  0  0  0  0
    8.9644  -15.8836   21.8121 C   0  0  0  0  0  0  0  0  0  0  0  0
   10.1495  -15.5512   22.0633 O   0  0  0  0  0  0  0  0  0  0  0  0
    7.9949  -15.7055   22.8350 N   0  0  0  0  0  0  0  0  0  0  0  0
    8.3136  -15.1601   24.1306 C   0  0  1  0  0  0  0  0  0  0  0  0
    7.1302  -14.5419   24.8085 C   0  0  0  0  0  0  0  0  0  0  0  0
    7.4433  -13.8216   26.0630 C   0  0  0  0  0  0  0  0  0  0  0  0
    7.5035  -14.5139   27.2785 C   0  0  0  0  0  0  0  0  0  0  0  0
    7.8040  -13.9010   28.4749 C   0  0  0  0  0  0  0  0  0  0  0  0
    8.0603  -12.5489   28.5016 C   0  0  0  0  0  0  0  0  0  0  0  0
    8.0130  -11.8242   27.3293 C   0  0  0  0  0  0  0  0  0  0  0  0
    7.7058  -12.4702   26.1282 C   0  0  0  0  0  0  0  0  0  0  0  0
    8.8464  -16.2520   24.9691 C   0  0  0  0  0  0  0  0  0  0  0  0
    8.2405  -17.3346   25.1694 O   0  0  0  0  0  0  0  0  0  0  0  0
   11.9521  -17.7876   24.3196 C   0  0  0  0  0  0  0  0  0  0  0  0
   12.0941  -17.5278   25.8050 C   0  0  1  0  0  0  0  0  0  0  0  0
   12.8823  -16.3793   25.9408 O   0  0  0  0  0  0  0  0  0  0  0  0
   10.7225  -17.1813   26.3420 C   0  0  2  0  0  0  0  0  0  0  0  0
   10.1129  -16.0968   25.5969 N   0  0  0  0  0  0  0  0  0  0  0  0
   10.7776  -16.8779   27.7944 C   0  0  0  0  0  0  0  0  0  0  0  0
   11.2078  -17.8222   28.7036 O   0  0  0  0  0  0  0  0  0  0  0  0
   10.4297  -15.7484   28.2111 O   0  0  0  0  0  0  0  0  0  0  0  0
  2  1  1  0
  3  5  1  0
  3  2  1  0
  3  4  1  6
  5  6  2  0
  7  5  1  0
  8  7  1  0
  8  9  1  1
  9 10  1  0
 10 15  2  0
 11 10  1  0
 11 12  2  0
 12 13  1  0
 13 14  2  0
 15 14  1  0
 16  8  1  0
 17 16  2  0
 19 18  1  6
 19 21  1  0
 20 19  1  0
 21 23  1  0
 21 22  1  6
 22 16  1  0
 23 24  1  0
 25 23  2  0
M  END
$$$$
