SFT.pdb
     RDKit          3D

 25 25  0  0  1  0  0  0  0  0999 V2000
   10.5364  -16.8806   18.1492 O   0  0  0  0  0  0  0  0  0  0  0  0
   10.5979  -16.0656   19.2937 C   0  0  0  0  0  0  0  0  0  0  0  0
   10.0557  -16.8876   20.4355 C   0  0  2  0  0  0  0  0  0  0  0  0
    8.6968  -17.2834   20.1166 N   0  0  0  0  0  0  0  0  0  0  0  0
   10.0938  -16.1296   21.7117 C   0  0  0  0  0  0  0  0  0  0  0  0
   11.1390  -15.6819   22.2455 O   0  0  0  0  0  0  0  0  0  0  0  0
    8.8588  -15.8957   22.3735 N   0  0  0  0  0  0  0  0  0  0  0  0
    8.7661  -15.2248   23.6459 C   0  0  1  0  0  0  0  0  0  0  0  0
    7.5289  -14.3914   23.7753 C   0  0  0  0  0  0  0  0  0  0  0  0
    7.4238  -13.6341   25.0427 C   0  0  0  0  0  0  0  0  0  0  0  0
    6.1740  -13.2093   25.5096 C   0  0  0  0  0  0  0  0  0  0  0  0
    6.0119  -12.5144   26.6878 C   0  0  0  0  0  0  0  0  0  0  0  0
    7.1126  -12.2129   27.4573 C   0  0  0  0  0  0  0  0  0  0  0  0
    8.3650  -12.6106   27.0387 C   0  0  0  0  0  0  0  0  0  0  0  0
    8.5024  -13.3149   25.8390 C   0  0  0  0  0  0  0  0  0  0  0  0
    8.7817  -16.2509   24.7072 C   0  0  0  0  0  0  0  0  0  0  0  0
    7.7833  -16.9498   25.0141 O   0  0  0  0  0  0  0  0  0  0  0  0
   10.8378  -19.1166   24.7241 C   0  0  0  0  0  0  0  0  0  0  0  0
   11.1576  -18.5335   26.0848 C   0  0  1  0  0  0  0  0  0  0  0  0
   12.3407  -17.7996   25.9420 O   0  0  0  0  0  0  0  0  0  0  0  0
   10.0672  -17.5410   26.4251 C   0  0  2  0  0  0  0  0  0  0  0  0
    9.9792  -16.4817   25.4387 N   0  0  0  0  0  0  0  0  0  0  0  0
   10.2494  -16.9942   27.7935 C   0  0  0  0  0  0  0  0  0  0  0  0
   10.2873  -17.8259   28.8936 O   0  0  0  0  0  0  0  0  0  0  0  0
   10.3716  -15.7586   27.9622 O   0  0  0  0  0  0  0  0  0  0  0  0
  2  1  1  0
  3  5  1  0
  3  2  1  0
  3  4  1  6
  5  6  2  0
  7  5  1  0
  8  7  1  0
  8  9  1  6
  9 10  1  0
 10 15  2  0
 11 10  1  0
 11 12  2  0
 12 13  1  0
 13 14  2  0
 15 14  1  0
 16  8  1  0
 17 16  2  0
 19 18  1  6
 19 21  1  0
 20 19  1  0
 21 23  1  0
 21 22  1  6
 22 16  1  0
 23 24  1  0
 25 23  2  0
M  END
$$$$
