SFT.pdb
     RDKit          3D

 25 25  0  0  1  0  0  0  0  0999 V2000
   10.1055  -18.8082   20.9925 O   0  0  0  0  0  0  0  0  0  0  0  0
    8.8186  -18.4125   20.5859 C   0  0  0  0  0  0  0  0  0  0  0  0
    8.8891  -16.9299   20.3211 C   0  0  2  0  0  0  0  0  0  0  0  0
    9.9286  -16.6840   19.3393 N   0  0  0  0  0  0  0  0  0  0  0  0
    9.1581  -16.1712   21.5687 C   0  0  0  0  0  0  0  0  0  0  0  0
   10.2678  -15.6673   21.8731 O   0  0  0  0  0  0  0  0  0  0  0  0
    8.0820  -16.0051   22.4811 N   0  0  0  0  0  0  0  0  0  0  0  0
    8.2076  -15.2730   23.7164 C   0  0  1  0  0  0  0  0  0  0  0  0
    6.9164  -14.6602   24.1632 C   0  0  0  0  0  0  0  0  0  0  0  0
    7.0209  -13.8110   25.3709 C   0  0  0  0  0  0  0  0  0  0  0  0
    6.8418  -14.3678   26.6430 C   0  0  0  0  0  0  0  0  0  0  0  0
    6.9411  -13.6316   27.8030 C   0  0  0  0  0  0  0  0  0  0  0  0
    7.2282  -12.2872   27.7336 C   0  0  0  0  0  0  0  0  0  0  0  0
    7.4132  -11.6937   26.5026 C   0  0  0  0  0  0  0  0  0  0  0  0
    7.3072  -12.4632   25.3403 C   0  0  0  0  0  0  0  0  0  0  0  0
    8.6955  -16.2037   24.7532 C   0  0  0  0  0  0  0  0  0  0  0  0
    8.1224  -17.2836   25.0443 O   0  0  0  0  0  0  0  0  0  0  0  0
   11.7711  -17.7963   24.6180 C   0  0  0  0  0  0  0  0  0  0  0  0
   11.8492  -17.2376   26.0236 C   0  0  1  0  0  0  0  0  0  0  0  0
   12.6163  -16.0691   25.9519 O   0  0  0  0  0  0  0  0  0  0  0  0
   10.4526  -16.8182   26.4275 C   0  0  2  0  0  0  0  0  0  0  0  0
    9.8769  -15.8854   25.4780 N   0  0  0  0  0  0  0  0  0  0  0  0
   10.4370  -16.2675   27.8064 C   0  0  0  0  0  0  0  0  0  0  0  0
   10.8537  -17.0258   28.8810 O   0  0  0  0  0  0  0  0  0  0  0  0
   10.0408  -15.0958   28.0076 O   0  0  0  0  0  0  0  0  0  0  0  0
  2  1  1  0
  3  5  1  0
  3  2  1  0
  3  4  1  6
  5  6  2  0
  7  5  1  0
  8  7  1  0
  8  9  1  1
  9 10  1  0
 10 15  2  0
 11 10  1  0
 11 12  2  0
 12 13  1  0
 13 14  2  0
 15 14  1  0
 16  8  1  0
 17 16  2  0
 19 18  1  6
 19 21  1  0
 20 19  1  0
 21 23  1  0
 21 22  1  6
 22 16  1  0
 23 24  1  0
 25 23  2  0
M  END
$$$$
