SFT.pdb
     RDKit          3D

 25 25  0  0  1  0  0  0  0  0999 V2000
    9.6131  -18.6883   20.6748 O   0  0  0  0  0  0  0  0  0  0  0  0
    8.6882  -17.8891   19.9793 C   0  0  0  0  0  0  0  0  0  0  0  0
    9.2748  -16.5011   19.9263 C   0  0  2  0  0  0  0  0  0  0  0  0
   10.5584  -16.5666   19.2534 N   0  0  0  0  0  0  0  0  0  0  0  0
    9.4264  -15.9272   21.2873 C   0  0  0  0  0  0  0  0  0  0  0  0
   10.5040  -15.8927   21.9319 O   0  0  0  0  0  0  0  0  0  0  0  0
    8.2687  -15.3788   21.9013 N   0  0  0  0  0  0  0  0  0  0  0  0
    8.2776  -14.8147   23.2277 C   0  0  1  0  0  0  0  0  0  0  0  0
    7.0717  -13.9731   23.5099 C   0  0  0  0  0  0  0  0  0  0  0  0
    7.0656  -13.3295   24.8428 C   0  0  0  0  0  0  0  0  0  0  0  0
    8.0545  -12.3980   25.1815 C   0  0  0  0  0  0  0  0  0  0  0  0
    8.0926  -11.7563   26.3997 C   0  0  0  0  0  0  0  0  0  0  0  0
    7.1262  -12.0266   27.3419 C   0  0  0  0  0  0  0  0  0  0  0  0
    6.1312  -12.9370   27.0541 C   0  0  0  0  0  0  0  0  0  0  0  0
    6.1150  -13.5745   25.8102 C   0  0  0  0  0  0  0  0  0  0  0  0
    8.3405  -15.9256   24.1979 C   0  0  0  0  0  0  0  0  0  0  0  0
    7.4406  -16.7942   24.3204 O   0  0  0  0  0  0  0  0  0  0  0  0
   10.5634  -18.5064   24.1191 C   0  0  0  0  0  0  0  0  0  0  0  0
   10.7998  -18.0455   25.5424 C   0  0  1  0  0  0  0  0  0  0  0  0
   11.9259  -17.2149   25.5164 O   0  0  0  0  0  0  0  0  0  0  0  0
    9.6269  -17.1776   25.9431 C   0  0  2  0  0  0  0  0  0  0  0  0
    9.4703  -16.0432   25.0534 N   0  0  0  0  0  0  0  0  0  0  0  0
    9.7405  -16.7449   27.3589 C   0  0  0  0  0  0  0  0  0  0  0  0
    9.7785  -15.4071   27.6940 O   0  0  0  0  0  0  0  0  0  0  0  0
    9.8036  -17.6012   28.2716 O   0  0  0  0  0  0  0  0  0  0  0  0
  2  1  1  0
  3  5  1  0
  3  2  1  0
  3  4  1  1
  5  6  2  0
  7  5  1  0
  8  7  1  0
  8  9  1  1
  9 10  1  0
 10 15  2  0
 11 10  1  0
 11 12  2  0
 12 13  1  0
 13 14  2  0
 15 14  1  0
 16  8  1  0
 17 16  2  0
 19 18  1  6
 19 21  1  0
 20 19  1  0
 21 23  1  0
 21 22  1  6
 22 16  1  0
 23 24  1  0
 25 23  2  0
M  END
$$$$
