SFT.pdb
     RDKit          3D

 25 25  0  0  1  0  0  0  0  0999 V2000
30523.5352-56620.8711-34340.8242 O   0  0  0  0  0  0  0  0  0  0  0  0
30522.6641-56621.6797-34340.0859 C   0  0  0  0  0  0  0  0  0  0  0  0
30521.5391-56620.7695-34339.6133 C   0  0  2  0  0  0  0  0  0  0  0  0
30520.4082-56621.5859-34339.2812 N   0  0  0  0  0  0  0  0  0  0  0  0
30521.1855-56619.7734-34340.6641 C   0  0  0  0  0  0  0  0  0  0  0  0
30521.5312-56618.5664-34340.6641 O   0  0  0  0  0  0  0  0  0  0  0  0
30520.3828-56620.2266-34341.7539 N   0  0  0  0  0  0  0  0  0  0  0  0
30519.5566-56619.3750-34342.5430 C   0  0  1  0  0  0  0  0  0  0  0  0
30518.0996-56619.6094-34342.3281 C   0  0  0  0  0  0  0  0  0  0  0  0
30517.7324-56620.0508-34340.9688 C   0  0  0  0  0  0  0  0  0  0  0  0
30516.5645-56620.8047-34340.7578 C   0  0  0  0  0  0  0  0  0  0  0  0
30516.1777-56621.2617-34339.5000 C   0  0  0  0  0  0  0  0  0  0  0  0
30516.9473-56620.9609-34338.4180 C   0  0  0  0  0  0  0  0  0  0  0  0
30518.1016-56620.2148-34338.5781 C   0  0  0  0  0  0  0  0  0  0  0  0
30518.4805-56619.7695-34339.8438 C   0  0  0  0  0  0  0  0  0  0  0  0
30519.8789-56617.9844-34342.1758 C   0  0  0  0  0  0  0  0  0  0  0  0
30520.1504-56617.0781-34343.0352 O   0  0  0  0  0  0  0  0  0  0  0  0
30521.8477-56619.5508-34341.5117 C   0  0  0  0  0  0  0  0  0  0  0  0
30521.9922-56618.7109-34340.2422 C   0  0  1  0  0  0  0  0  0  0  0  0
30522.5938-56617.5234-34340.6367 O   0  0  0  0  0  0  0  0  0  0  0  0
30520.5742-56618.3516-34339.8047 C   0  0  2  0  0  0  0  0  0  0  0  0
30519.8809-56617.5898-34340.8164 N   0  0  0  0  0  0  0  0  0  0  0  0
30520.5957-56617.6523-34338.4961 C   0  0  0  0  0  0  0  0  0  0  0  0
30521.7617-56617.2109-34337.9336 O   0  0  0  0  0  0  0  0  0  0  0  0
30519.5332-56617.4414-34337.8906 O   0  0  0  0  0  0  0  0  0  0  0  0
  2  1  1  0
  3  5  1  0
  3  2  1  0
  3  4  1  6
  5  6  2  0
  7  5  1  0
  8  7  1  0
  8  9  1  1
  9 10  1  0
 10 15  2  0
 11 10  1  0
 11 12  2  0
 12 13  1  0
 13 14  2  0
 15 14  1  0
 16  8  1  0
 17 16  2  0
 19 18  1  6
 19 21  1  0
 20 19  1  0
 21 23  1  0
 21 22  1  6
 22 16  1  0
 23 24  1  0
 25 23  2  0
M  END
$$$$
