SFT.pdb
     RDKit          3D

 25 25  0  0  1  0  0  0  0  0999 V2000
   10.0144  -19.0160   21.5082 O   0  0  0  0  0  0  0  0  0  0  0  0
    8.7757  -18.5849   21.0005 C   0  0  0  0  0  0  0  0  0  0  0  0
    8.9246  -17.1158   20.6958 C   0  0  2  0  0  0  0  0  0  0  0  0
    9.9834  -16.9510   19.7176 N   0  0  0  0  0  0  0  0  0  0  0  0
    9.2220  -16.3374   21.9246 C   0  0  0  0  0  0  0  0  0  0  0  0
   10.3352  -15.8192   22.1900 O   0  0  0  0  0  0  0  0  0  0  0  0
    8.1709  -16.1682   22.8652 N   0  0  0  0  0  0  0  0  0  0  0  0
    8.3027  -15.3590   24.0507 C   0  0  1  0  0  0  0  0  0  0  0  0
    6.9929  -14.8173   24.5337 C   0  0  0  0  0  0  0  0  0  0  0  0
    7.0958  -13.8719   25.6678 C   0  0  0  0  0  0  0  0  0  0  0  0
    7.0860  -14.3461   26.9852 C   0  0  0  0  0  0  0  0  0  0  0  0
    7.1930  -13.5170   28.0800 C   0  0  0  0  0  0  0  0  0  0  0  0
    7.3159  -12.1585   27.8956 C   0  0  0  0  0  0  0  0  0  0  0  0
    7.3307  -11.6442   26.6161 C   0  0  0  0  0  0  0  0  0  0  0  0
    7.2207  -12.5072   25.5220 C   0  0  0  0  0  0  0  0  0  0  0  0
    8.9114  -16.1904   25.1078 C   0  0  0  0  0  0  0  0  0  0  0  0
    8.4250  -17.2798   25.5028 O   0  0  0  0  0  0  0  0  0  0  0  0
   12.1887  -17.4423   24.8313 C   0  0  0  0  0  0  0  0  0  0  0  0
   12.2432  -16.8692   26.2322 C   0  0  1  0  0  0  0  0  0  0  0  0
   12.8740  -15.6236   26.1350 O   0  0  0  0  0  0  0  0  0  0  0  0
   10.8204  -16.6042   26.6739 C   0  0  2  0  0  0  0  0  0  0  0  0
   10.1147  -15.7585   25.7306 N   0  0  0  0  0  0  0  0  0  0  0  0
   10.7829  -16.0361   28.0452 C   0  0  0  0  0  0  0  0  0  0  0  0
   10.2228  -14.7989   28.2886 O   0  0  0  0  0  0  0  0  0  0  0  0
   11.2652  -16.6832   29.0038 O   0  0  0  0  0  0  0  0  0  0  0  0
  2  1  1  0
  3  5  1  0
  3  2  1  0
  3  4  1  6
  5  6  2  0
  7  5  1  0
  8  7  1  0
  8  9  1  1
  9 10  1  0
 10 15  2  0
 11 10  1  0
 11 12  2  0
 12 13  1  0
 13 14  2  0
 15 14  1  0
 16  8  1  0
 17 16  2  0
 19 18  1  6
 19 21  1  0
 20 19  1  0
 21 23  1  0
 21 22  1  6
 22 16  1  0
 23 24  1  0
 25 23  2  0
M  END
$$$$
