GQS.pdb
     RDKit          3D

 20 19  0  0  1  0  0  0  0  0999 V2000
    7.9029  -12.1482   19.3125 N   0  0  0  0  0  0  0  0  0  0  0  0
    8.5469  -13.3326   19.7817 C   0  0  0  0  0  0  0  0  0  0  0  0
    8.0355  -13.7482   21.1373 C   0  0  0  0  0  0  0  0  0  0  0  0
    7.2568  -12.9712   21.6944 O   0  0  0  0  0  0  0  0  0  0  0  0
    6.2074  -19.2815   25.4507 N   0  0  0  0  0  0  0  0  0  0  0  0
    6.4016  -18.3339   24.4083 C   0  0  0  0  0  0  0  0  0  0  0  0
    5.5739  -18.2511   23.5028 O   0  0  0  0  0  0  0  0  0  0  0  0
    7.6177  -17.4722   24.4693 C   0  0  0  0  0  0  0  0  0  0  0  0
    8.0578  -17.0082   23.1135 C   0  0  0  0  0  0  0  0  0  0  0  0
    8.0124  -15.5065   22.9804 C   0  0  2  0  0  0  0  0  0  0  0  0
    8.4342  -14.9690   21.7317 N   0  0  0  0  0  0  0  0  0  0  0  0
    8.4319  -14.7730   24.1831 C   0  0  0  0  0  0  0  0  0  0  0  0
    9.6552  -14.5313   24.3376 O   0  0  0  0  0  0  0  0  0  0  0  0
    6.1660  -12.0970   26.1095 O   0  0  0  0  0  0  0  0  0  0  0  0
    6.8343  -12.8689   27.0552 C   0  0  0  0  0  0  0  0  0  0  0  0
    7.9637  -13.5967   26.3601 C   0  0  2  0  0  0  0  0  0  0  0  0
    7.5244  -14.3139   25.1968 N   0  0  0  0  0  0  0  0  0  0  0  0
    8.5608  -14.5462   27.3201 C   0  0  0  0  0  0  0  0  0  0  0  0
    8.6245  -15.7607   27.0187 O   0  0  0  0  0  0  0  0  0  0  0  0
    9.0550  -14.1471   28.5446 O   0  0  0  0  0  0  0  0  0  0  0  0
  2  1  1  0
  3  2  1  0
  4  3  2  0
  6  8  1  0
  6  5  1  0
  7  6  2  0
  9  8  1  0
 10  9  1  1
 10 11  1  0
 11  3  1  0
 12 17  1  0
 12 10  1  0
 13 12  2  0
 15 14  1  0
 16 15  1  1
 16 17  1  0
 18 16  1  0
 18 20  1  0
 19 18  2  0
M  END
$$$$
