GQS.pdb
     RDKit          3D

 20 19  0  0  1  0  0  0  0  0999 V2000
    7.4507  -17.8581   16.4440 N   0  0  0  0  0  0  0  0  0  0  0  0
    7.3159  -18.1393   17.8371 C   0  0  0  0  0  0  0  0  0  0  0  0
    8.4286  -17.5195   18.6432 C   0  0  0  0  0  0  0  0  0  0  0  0
    9.5795  -17.7977   18.2990 O   0  0  0  0  0  0  0  0  0  0  0  0
    7.5539  -11.3800   20.4820 N   0  0  0  0  0  0  0  0  0  0  0  0
    7.3340  -12.6707   21.0368 C   0  0  0  0  0  0  0  0  0  0  0  0
    6.6584  -12.7842   22.0578 O   0  0  0  0  0  0  0  0  0  0  0  0
    7.9414  -13.8405   20.3386 C   0  0  0  0  0  0  0  0  0  0  0  0
    8.6393  -14.7711   21.2842 C   0  0  0  0  0  0  0  0  0  0  0  0
    9.0944  -16.0395   20.6068 C   0  0  2  0  0  0  0  0  0  0  0  0
    8.1564  -16.6638   19.7370 N   0  0  0  0  0  0  0  0  0  0  0  0
    9.8940  -16.9336   21.4564 C   0  0  0  0  0  0  0  0  0  0  0  0
    9.3097  -17.8786   22.0431 O   0  0  0  0  0  0  0  0  0  0  0  0
   13.3252  -18.3697   20.5823 O   0  0  0  0  0  0  0  0  0  0  0  0
   13.4551  -17.9538   21.9040 C   0  0  0  0  0  0  0  0  0  0  0  0
   12.0706  -17.7055   22.4607 C   0  0  2  0  0  0  0  0  0  0  0  0
   11.3088  -16.7919   21.6573 N   0  0  0  0  0  0  0  0  0  0  0  0
   12.2130  -17.1534   23.8226 C   0  0  0  0  0  0  0  0  0  0  0  0
   11.7744  -16.0051   24.0652 O   0  0  0  0  0  0  0  0  0  0  0  0
   12.8140  -17.8562   24.8462 O   0  0  0  0  0  0  0  0  0  0  0  0
  2  1  1  0
  3  2  1  0
  4  3  2  0
  6  8  1  0
  6  5  1  0
  7  6  2  0
  9  8  1  0
 10  9  1  1
 10 11  1  0
 11  3  1  0
 12 17  1  0
 12 10  1  0
 13 12  2  0
 15 14  1  0
 16 15  1  6
 16 17  1  0
 18 16  1  0
 18 20  1  0
 19 18  2  0
M  END
$$$$
