GQS.pdb
     RDKit          3D

 20 19  0  0  1  0  0  0  0  0999 V2000
    6.8111  -13.1966   19.4368 N   0  0  0  0  0  0  0  0  0  0  0  0
    7.7505  -13.0624   18.3704 C   0  0  0  0  0  0  0  0  0  0  0  0
    8.2102  -14.4031   17.8574 C   0  0  0  0  0  0  0  0  0  0  0  0
    7.8643  -15.3908   18.5097 O   0  0  0  0  0  0  0  0  0  0  0  0
    8.9921  -12.8971   13.0002 N   0  0  0  0  0  0  0  0  0  0  0  0
    9.2320  -14.2833   12.7924 C   0  0  0  0  0  0  0  0  0  0  0  0
    9.7637  -14.6563   11.7483 O   0  0  0  0  0  0  0  0  0  0  0  0
    8.8229  -15.2293   13.8707 C   0  0  0  0  0  0  0  0  0  0  0  0
    9.9816  -15.6718   14.7125 C   0  0  0  0  0  0  0  0  0  0  0  0
    9.6518  -15.6727   16.1843 C   0  0  2  0  0  0  0  0  0  0  0  0
    8.9978  -14.5125   16.6867 N   0  0  0  0  0  0  0  0  0  0  0  0
   10.6889  -16.2622   17.0430 C   0  0  0  0  0  0  0  0  0  0  0  0
   11.6271  -15.5248   17.4364 O   0  0  0  0  0  0  0  0  0  0  0  0
   12.1346  -19.7302   20.0681 O   0  0  0  0  0  0  0  0  0  0  0  0
   11.1423  -19.3299   19.1783 C   0  0  0  0  0  0  0  0  0  0  0  0
   11.6692  -18.1610   18.3756 C   0  0  2  0  0  0  0  0  0  0  0  0
   10.6949  -17.6358   17.4615 N   0  0  0  0  0  0  0  0  0  0  0  0
   12.8510  -18.6172   17.6174 C   0  0  0  0  0  0  0  0  0  0  0  0
   12.7773  -18.7125   16.3702 O   0  0  0  0  0  0  0  0  0  0  0  0
   14.0419  -18.9452   18.2314 O   0  0  0  0  0  0  0  0  0  0  0  0
  2  1  1  0
  3  2  1  0
  4  3  2  0
  6  8  1  0
  6  5  1  0
  7  6  2  0
  9  8  1  0
 10  9  1  6
 10 11  1  0
 11  3  1  0
 12 17  1  0
 12 10  1  0
 13 12  2  0
 15 14  1  0
 16 15  1  6
 16 17  1  0
 18 16  1  0
 18 20  1  0
 19 18  2  0
M  END
$$$$
