GQS.pdb
     RDKit          3D

 20 19  0  0  1  0  0  0  0  0999 V2000
    4.4283  -18.3233   20.4299 N   0  0  0  0  0  0  0  0  0  0  0  0
    4.6228  -17.0246   20.9895 C   0  0  0  0  0  0  0  0  0  0  0  0
    6.0619  -16.5857   20.8985 C   0  0  0  0  0  0  0  0  0  0  0  0
    6.8871  -17.4575   20.6167 O   0  0  0  0  0  0  0  0  0  0  0  0
    7.5942  -14.0711   17.1072 N   0  0  0  0  0  0  0  0  0  0  0  0
    8.2181  -13.5672   18.2815 C   0  0  0  0  0  0  0  0  0  0  0  0
    9.4444  -13.5814   18.3698 O   0  0  0  0  0  0  0  0  0  0  0  0
    7.3388  -13.0352   19.3627 C   0  0  0  0  0  0  0  0  0  0  0  0
    7.9085  -13.2690   20.7294 C   0  0  0  0  0  0  0  0  0  0  0  0
    7.7532  -14.7011   21.1764 C   0  0  2  0  0  0  0  0  0  0  0  0
    6.4368  -15.2403   21.1264 N   0  0  0  0  0  0  0  0  0  0  0  0
    8.5664  -15.0689   22.3443 C   0  0  0  0  0  0  0  0  0  0  0  0
    8.1940  -14.6750   23.4779 O   0  0  0  0  0  0  0  0  0  0  0  0
    8.9528  -17.8918   24.0209 O   0  0  0  0  0  0  0  0  0  0  0  0
   10.3123  -17.6844   23.8077 C   0  0  0  0  0  0  0  0  0  0  0  0
   10.5168  -16.2336   23.4312 C   0  0  2  0  0  0  0  0  0  0  0  0
    9.7659  -15.8545   22.2680 N   0  0  0  0  0  0  0  0  0  0  0  0
   11.9549  -16.0224   23.1719 C   0  0  0  0  0  0  0  0  0  0  0  0
   12.3220  -15.6498   22.0334 O   0  0  0  0  0  0  0  0  0  0  0  0
   12.9176  -16.2204   24.1398 O   0  0  0  0  0  0  0  0  0  0  0  0
  2  1  1  0
  3  2  1  0
  4  3  2  0
  6  8  1  0
  6  5  1  0
  7  6  2  0
  9  8  1  0
 10  9  1  1
 10 11  1  0
 11  3  1  0
 12 17  1  0
 12 10  1  0
 13 12  2  0
 15 14  1  0
 16 15  1  6
 16 17  1  0
 18 16  1  0
 18 20  1  0
 19 18  2  0
M  END
$$$$
