GQS.pdb
     RDKit          3D

 20 19  0  0  1  0  0  0  0  0999 V2000
    9.2276  -14.9361   13.4946 N   0  0  0  0  0  0  0  0  0  0  0  0
    8.3737  -15.1022   14.6265 C   0  0  0  0  0  0  0  0  0  0  0  0
    9.0204  -14.6030   15.8933 C   0  0  0  0  0  0  0  0  0  0  0  0
   10.2412  -14.4331   15.8589 O   0  0  0  0  0  0  0  0  0  0  0  0
    8.8428  -13.8961   22.8367 N   0  0  0  0  0  0  0  0  0  0  0  0
    7.9496  -13.8214   21.7327 C   0  0  0  0  0  0  0  0  0  0  0  0
    6.9033  -14.4670   21.7550 O   0  0  0  0  0  0  0  0  0  0  0  0
    8.3321  -12.9467   20.5865 C   0  0  0  0  0  0  0  0  0  0  0  0
    7.7155  -13.3944   19.2955 C   0  0  0  0  0  0  0  0  0  0  0  0
    8.7348  -13.9694   18.3441 C   0  0  2  0  0  0  0  0  0  0  0  0
    8.2573  -14.3457   17.0570 N   0  0  0  0  0  0  0  0  0  0  0  0
    9.7133  -14.8716   18.9680 C   0  0  0  0  0  0  0  0  0  0  0  0
    9.4441  -16.0977   19.0213 O   0  0  0  0  0  0  0  0  0  0  0  0
   13.7229  -14.9161   18.5822 O   0  0  0  0  0  0  0  0  0  0  0  0
   13.3513  -14.8324   19.9208 C   0  0  0  0  0  0  0  0  0  0  0  0
   11.9355  -15.3486   20.0525 C   0  0  2  0  0  0  0  0  0  0  0  0
   10.9636  -14.4347   19.5227 N   0  0  0  0  0  0  0  0  0  0  0  0
   11.6588  -15.5765   21.4848 C   0  0  0  0  0  0  0  0  0  0  0  0
   10.7074  -14.9680   22.0275 O   0  0  0  0  0  0  0  0  0  0  0  0
   12.4111  -16.4386   22.2552 O   0  0  0  0  0  0  0  0  0  0  0  0
  2  1  1  0
  3  2  1  0
  4  3  2  0
  6  8  1  0
  6  5  1  0
  7  6  2  0
  9  8  1  0
 10  9  1  1
 10 11  1  0
 11  3  1  0
 12 17  1  0
 12 10  1  0
 13 12  2  0
 15 14  1  0
 16 15  1  1
 16 17  1  0
 18 16  1  0
 18 20  1  0
 19 18  2  0
M  END
$$$$
