GQS.pdb
     RDKit          3D

 20 19  0  0  1  0  0  0  0  0999 V2000
    8.0924  -18.4659   17.6949 N   0  0  0  0  0  0  0  0  0  0  0  0
    7.3415  -17.6918   18.6302 C   0  0  0  0  0  0  0  0  0  0  0  0
    8.2365  -16.9619   19.5987 C   0  0  0  0  0  0  0  0  0  0  0  0
    9.3771  -17.4089   19.7392 O   0  0  0  0  0  0  0  0  0  0  0  0
    8.8199  -12.0368   18.2394 N   0  0  0  0  0  0  0  0  0  0  0  0
    8.9652  -12.6309   19.5232 C   0  0  0  0  0  0  0  0  0  0  0  0
   10.0914  -12.8534   19.9639 O   0  0  0  0  0  0  0  0  0  0  0  0
    7.7239  -12.9561   20.2836 C   0  0  0  0  0  0  0  0  0  0  0  0
    8.0113  -13.6837   21.5624 C   0  0  0  0  0  0  0  0  0  0  0  0
    8.4671  -15.1015   21.3236 C   0  0  2  0  0  0  0  0  0  0  0  0
    7.7821  -15.8233   20.3057 N   0  0  0  0  0  0  0  0  0  0  0  0
    8.8016  -15.8500   22.5436 C   0  0  0  0  0  0  0  0  0  0  0  0
    7.8952  -16.0427   23.3921 O   0  0  0  0  0  0  0  0  0  0  0  0
   11.3974  -18.7699   22.6849 O   0  0  0  0  0  0  0  0  0  0  0  0
   10.5530  -18.5935   23.7769 C   0  0  0  0  0  0  0  0  0  0  0  0
   10.4029  -17.1087   24.0246 C   0  0  2  0  0  0  0  0  0  0  0  0
   10.1073  -16.3766   22.8257 N   0  0  0  0  0  0  0  0  0  0  0  0
   11.6659  -16.6071   24.6018 C   0  0  0  0  0  0  0  0  0  0  0  0
   12.0862  -17.1009   25.6739 O   0  0  0  0  0  0  0  0  0  0  0  0
   12.4073  -15.6093   24.0038 O   0  0  0  0  0  0  0  0  0  0  0  0
  2  1  1  0
  3  2  1  0
  4  3  2  0
  6  8  1  0
  6  5  1  0
  7  6  2  0
  9  8  1  0
 10  9  1  1
 10 11  1  0
 11  3  1  0
 12 17  1  0
 12 10  1  0
 13 12  2  0
 15 14  1  0
 16 15  1  6
 16 17  1  0
 18 16  1  0
 18 20  1  0
 19 18  2  0
M  END
$$$$
