GQS.pdb
     RDKit          3D

 20 19  0  0  1  0  0  0  0  0999 V2000
    3.6859  -20.9234   21.3108 N   0  0  0  0  0  0  0  0  0  0  0  0
    4.4962  -19.7507   21.2326 C   0  0  0  0  0  0  0  0  0  0  0  0
    4.6384  -19.0783   22.5741 C   0  0  0  0  0  0  0  0  0  0  0  0
    3.5926  -18.7609   23.1450 O   0  0  0  0  0  0  0  0  0  0  0  0
    7.5774  -19.6810   27.9967 N   0  0  0  0  0  0  0  0  0  0  0  0
    8.4879  -19.8080   26.9118 C   0  0  0  0  0  0  0  0  0  0  0  0
    9.6575  -20.1146   27.1352 O   0  0  0  0  0  0  0  0  0  0  0  0
    7.9683  -19.5622   25.5354 C   0  0  0  0  0  0  0  0  0  0  0  0
    6.5270  -19.1502   25.5338 C   0  0  0  0  0  0  0  0  0  0  0  0
    6.1998  -18.2183   24.3939 C   0  0  2  0  0  0  0  0  0  0  0  0
    5.9109  -18.8286   23.1408 N   0  0  0  0  0  0  0  0  0  0  0  0
    7.0116  -16.9936   24.3530 C   0  0  0  0  0  0  0  0  0  0  0  0
    7.9363  -16.9194   23.5055 O   0  0  0  0  0  0  0  0  0  0  0  0
    6.0594  -13.7021   26.6390 O   0  0  0  0  0  0  0  0  0  0  0  0
    6.7881  -13.4324   25.4844 C   0  0  0  0  0  0  0  0  0  0  0  0
    7.5858  -14.6674   25.1284 C   0  0  2  0  0  0  0  0  0  0  0  0
    6.8110  -15.8718   25.2267 N   0  0  0  0  0  0  0  0  0  0  0  0
    8.7377  -14.7537   26.0479 C   0  0  0  0  0  0  0  0  0  0  0  0
    8.8427  -15.7473   26.8039 O   0  0  0  0  0  0  0  0  0  0  0  0
    9.7101  -13.7772   26.1086 O   0  0  0  0  0  0  0  0  0  0  0  0
  2  1  1  0
  3  2  1  0
  4  3  2  0
  6  8  1  0
  6  5  1  0
  7  6  2  0
  9  8  1  0
 10  9  1  1
 10 11  1  0
 11  3  1  0
 12 17  1  0
 12 10  1  0
 13 12  2  0
 15 14  1  0
 16 15  1  1
 16 17  1  0
 18 16  1  0
 18 20  1  0
 19 18  2  0
M  END
$$$$
