RWR.pdb
     RDKit          3D

 37 38  0  0  1  0  0  0  0  0999 V2000
   19.0886  -25.7857   -5.5656 N   0  0  0  0  0  0  0  0  0  0  0  0
   17.8444  -25.0816   -5.5573 C   0  0  0  0  0  0  0  0  0  0  0  0
   16.9661  -25.2754   -4.6228 N   0  0  0  0  0  0  0  0  0  0  0  0
   17.5134  -24.1397   -6.5698 N   0  0  0  0  0  0  0  0  0  0  0  0
   18.0586  -24.2411   -7.9036 C   0  0  0  0  0  0  0  0  0  0  0  0
   18.9758  -25.4785   -8.0089 C   0  0  0  0  0  0  0  0  0  0  0  0
   19.4071  -25.5900   -9.4338 C   0  0  0  0  0  0  0  0  0  0  0  0
   18.5133  -26.3652  -10.3326 C   0  0  2  0  0  0  0  0  0  0  0  0
   18.7525  -27.8147  -10.2004 N   0  0  0  0  0  0  0  0  0  0  0  0
   18.7337  -25.9754  -11.7410 C   0  0  0  0  0  0  0  0  0  0  0  0
   19.5304  -26.5349  -12.5281 O   0  0  0  0  0  0  0  0  0  0  0  0
   16.0748  -24.7798   -4.5600 N   0  0  0  0  0  0  0  0  0  0  0  0
   17.9913  -24.8713  -12.2774 C   0  0  2  0  0  0  0  0  0  0  0  0
   18.1737  -24.4897  -13.6584 C   0  0  0  0  0  0  0  0  0  0  0  0
   16.9576  -23.7236  -14.0950 C   0  0  0  0  0  0  0  0  0  0  0  0
   17.0000  -23.2769  -15.5017 C   0  0  0  0  0  0  0  0  0  0  0  0
   17.4133  -23.9287  -16.6441 N   0  0  0  0  0  0  0  0  0  0  0  0
   17.2537  -23.0751  -17.6684 C   0  0  0  0  0  0  0  0  0  0  0  0
   16.7581  -21.9000  -17.2573 C   0  0  0  0  0  0  0  0  0  0  0  0
   16.4189  -20.7214  -17.8962 C   0  0  0  0  0  0  0  0  0  0  0  0
   15.9183  -19.6514  -17.2015 C   0  0  0  0  0  0  0  0  0  0  0  0
   15.7479  -19.7463  -15.8418 C   0  0  0  0  0  0  0  0  0  0  0  0
   16.0878  -20.9223  -15.2153 C   0  0  0  0  0  0  0  0  0  0  0  0
   16.5985  -22.0222  -15.9032 C   0  0  0  0  0  0  0  0  0  0  0  0
   19.3875  -23.5922  -13.7868 O   0  0  0  0  0  0  0  0  0  0  0  0
   19.6165  -22.6999  -12.9330 N   0  0  0  0  0  0  0  0  0  0  0  0
   26.9163  -26.0355  -15.7197 C   0  0  0  0  0  0  0  0  0  0  0  0
   25.8868  -26.1181  -16.7348 N   0  0  0  0  0  0  0  0  0  0  0  0
   25.7948  -27.0492  -17.5050 N   0  0  0  0  0  0  0  0  0  0  0  0
   24.9392  -25.0351  -16.8214 C   0  0  0  0  0  0  0  0  0  0  0  0
   24.7313  -24.2178  -15.6591 C   0  0  0  0  0  0  0  0  0  0  0  0
   23.3184  -24.4690  -15.1660 C   0  0  0  0  0  0  0  0  0  0  0  0
   22.3836  -23.6206  -15.9744 C   0  0  2  0  0  0  0  0  0  0  0  0
   21.3794  -22.8647  -15.1603 N   0  0  0  0  0  0  0  0  0  0  0  0
   20.2598  -23.7705  -14.8819 C   0  0  0  0  0  0  0  0  0  0  0  0
   20.9021  -21.6241  -15.7958 O   0  0  0  0  0  0  0  0  0  0  0  0
   20.2152  -21.5693  -16.8359 O   0  0  0  0  0  0  0  0  0  0  0  0
  2  1  1  0
  3  2  2  0
  4  2  1  0
  5  4  1  0
  6  5  1  0
  7  6  1  0
  8 10  1  0
  8  9  1  6
  8  7  1  0
 10 12  1  0
 11 10  2  0
 12 13  1  0
 13 14  1  6
 14 15  1  0
 15 16  2  0
 15 23  1  0
 16 17  1  0
 17 18  1  0
 18 19  2  0
 19 20  1  0
 21 20  2  0
 22 21  1  0
 23 22  2  0
 23 18  1  0
 24 13  1  0
 25 24  2  0
 27 29  1  0
 27 26  1  0
 28 27  2  0
 30 31  1  0
 30 29  1  0
 31 32  1  0
 33 32  1  1
 33 34  1  0
 34 24  1  0
 35 37  1  0
 35 33  1  0
 36 35  2  0
M  END
$$$$
