RWR.pdb
     RDKit          3D

 37 38  0  0  1  0  0  0  0  0999 V2000
   30.0013  -18.5883  -19.1718 N   0  0  0  0  0  0  0  0  0  0  0  0
   30.1776  -19.6535  -18.2347 C   0  0  0  0  0  0  0  0  0  0  0  0
   31.0455  -20.5953  -18.4398 N   0  0  0  0  0  0  0  0  0  0  0  0
   29.4120  -19.7297  -17.0389 N   0  0  0  0  0  0  0  0  0  0  0  0
   28.2911  -18.8500  -16.8020 C   0  0  0  0  0  0  0  0  0  0  0  0
   27.5570  -19.2630  -15.5081 C   0  0  0  0  0  0  0  0  0  0  0  0
   27.2094  -20.7090  -15.6384 C   0  0  0  0  0  0  0  0  0  0  0  0
   27.7376  -21.6100  -14.5815 C   0  0  2  0  0  0  0  0  0  0  0  0
   27.8204  -23.0023  -15.0613 N   0  0  0  0  0  0  0  0  0  0  0  0
   26.8668  -21.5714  -13.3881 C   0  0  0  0  0  0  0  0  0  0  0  0
   25.6433  -21.8365  -13.3789 O   0  0  0  0  0  0  0  0  0  0  0  0
   31.1562  -21.4154  -17.8404 N   0  0  0  0  0  0  0  0  0  0  0  0
   27.4396  -21.2031  -12.1254 C   0  0  2  0  0  0  0  0  0  0  0  0
   26.5964  -21.1121  -10.9564 C   0  0  0  0  0  0  0  0  0  0  0  0
   27.3754  -20.4238   -9.8720 C   0  0  0  0  0  0  0  0  0  0  0  0
   26.6590  -20.3264   -8.5846 C   0  0  0  0  0  0  0  0  0  0  0  0
   25.3128  -20.3870   -8.2936 N   0  0  0  0  0  0  0  0  0  0  0  0
   25.1864  -20.2374   -6.9650 C   0  0  0  0  0  0  0  0  0  0  0  0
   26.3776  -20.0822   -6.3715 C   0  0  0  0  0  0  0  0  0  0  0  0
   26.7850  -19.8984   -5.0629 C   0  0  0  0  0  0  0  0  0  0  0  0
   28.1102  -19.7667   -4.7396 C   0  0  0  0  0  0  0  0  0  0  0  0
   29.0580  -19.8177   -5.7325 C   0  0  0  0  0  0  0  0  0  0  0  0
   28.6435  -20.0010   -7.0308 C   0  0  0  0  0  0  0  0  0  0  0  0
   27.3008  -20.1370   -7.3810 C   0  0  0  0  0  0  0  0  0  0  0  0
   25.3670  -20.2854  -11.2734 O   0  0  0  0  0  0  0  0  0  0  0  0
   25.4667  -19.0562  -11.5119 N   0  0  0  0  0  0  0  0  0  0  0  0
   23.4751  -23.4384  -16.3030 C   0  0  0  0  0  0  0  0  0  0  0  0
   22.6291  -23.9094  -15.2261 N   0  0  0  0  0  0  0  0  0  0  0  0
   22.5521  -25.0774  -14.9119 N   0  0  0  0  0  0  0  0  0  0  0  0
   21.8483  -22.9331  -14.5080 C   0  0  0  0  0  0  0  0  0  0  0  0
   21.8385  -21.5807  -14.9906 C   0  0  0  0  0  0  0  0  0  0  0  0
   22.6660  -20.7437  -14.0327 C   0  0  0  0  0  0  0  0  0  0  0  0
   22.1302  -20.9512  -12.6482 C   0  0  2  0  0  0  0  0  0  0  0  0
   22.8616  -20.1911  -11.5854 N   0  0  0  0  0  0  0  0  0  0  0  0
   24.1040  -20.9150  -11.2959 C   0  0  0  0  0  0  0  0  0  0  0  0
   22.0815  -19.9790  -10.3536 O   0  0  0  0  0  0  0  0  0  0  0  0
   22.2982  -20.5421   -9.2615 O   0  0  0  0  0  0  0  0  0  0  0  0
  2  1  1  0
  3  2  2  0
  4  2  1  0
  5  4  1  0
  6  5  1  0
  7  6  1  0
  8 10  1  0
  8  9  1  6
  8  7  1  0
 10 12  1  0
 11 10  2  0
 12 13  1  0
 13 14  1  1
 14 15  1  0
 15 16  2  0
 15 23  1  0
 16 17  1  0
 17 18  1  0
 18 19  2  0
 19 20  1  0
 21 20  2  0
 22 21  1  0
 23 22  2  0
 23 18  1  0
 24 13  1  0
 25 24  2  0
 27 29  1  0
 27 26  1  0
 28 27  2  0
 30 31  1  0
 30 29  1  0
 31 32  1  0
 33 32  1  6
 33 34  1  0
 34 24  1  0
 35 37  1  0
 35 33  1  0
 36 35  2  0
M  END
$$$$
