RWR.pdb
     RDKit          3D

 37 38  0  0  1  0  0  0  0  0999 V2000
   28.0260  -19.3698  -17.4304 N   0  0  0  0  0  0  0  0  0  0  0  0
   29.0567  -18.4462  -17.0720 C   0  0  0  0  0  0  0  0  0  0  0  0
   29.8589  -17.9517  -17.9632 N   0  0  0  0  0  0  0  0  0  0  0  0
   29.2497  -18.0288  -15.7265 N   0  0  0  0  0  0  0  0  0  0  0  0
   28.4198  -18.5271  -14.6544 C   0  0  0  0  0  0  0  0  0  0  0  0
   28.4763  -20.0694  -14.6130 C   0  0  0  0  0  0  0  0  0  0  0  0
   27.6442  -20.5121  -13.4552 C   0  0  0  0  0  0  0  0  0  0  0  0
   28.3650  -20.7380  -12.1757 C   0  0  2  0  0  0  0  0  0  0  0  0
   29.6038  -21.5089  -12.3915 N   0  0  0  0  0  0  0  0  0  0  0  0
   27.5080  -21.4754  -11.2239 C   0  0  0  0  0  0  0  0  0  0  0  0
   27.2902  -22.7079  -11.2549 O   0  0  0  0  0  0  0  0  0  0  0  0
   30.6327  -17.3187  -17.7520 N   0  0  0  0  0  0  0  0  0  0  0  0
   26.8596  -20.7487  -10.1706 C   0  0  2  0  0  0  0  0  0  0  0  0
   25.4920  -21.0580   -9.8244 C   0  0  0  0  0  0  0  0  0  0  0  0
   25.2597  -20.6208   -8.4062 C   0  0  0  0  0  0  0  0  0  0  0  0
   26.3707  -19.8395   -7.8269 C   0  0  0  0  0  0  0  0  0  0  0  0
   26.8594  -18.5908   -8.1469 N   0  0  0  0  0  0  0  0  0  0  0  0
   27.8873  -18.3423   -7.3192 C   0  0  0  0  0  0  0  0  0  0  0  0
   28.0971  -19.3616   -6.4752 C   0  0  0  0  0  0  0  0  0  0  0  0
   29.0024  -19.5981   -5.4569 C   0  0  0  0  0  0  0  0  0  0  0  0
   28.9810  -20.7656   -4.7396 C   0  0  0  0  0  0  0  0  0  0  0  0
   28.0425  -21.7244   -5.0340 C   0  0  0  0  0  0  0  0  0  0  0  0
   27.1462  -21.4802   -6.0480 C   0  0  0  0  0  0  0  0  0  0  0  0
   27.1510  -20.2997   -6.7897 C   0  0  0  0  0  0  0  0  0  0  0  0
   24.5479  -20.2948  -10.7308 O   0  0  0  0  0  0  0  0  0  0  0  0
   24.9765  -19.7187  -11.7614 N   0  0  0  0  0  0  0  0  0  0  0  0
   19.3242  -22.7802  -15.4916 C   0  0  0  0  0  0  0  0  0  0  0  0
   19.9934  -24.0167  -15.1449 N   0  0  0  0  0  0  0  0  0  0  0  0
   19.9687  -24.9998  -15.8533 N   0  0  0  0  0  0  0  0  0  0  0  0
   20.7140  -24.0647  -13.8972 C   0  0  0  0  0  0  0  0  0  0  0  0
   20.4451  -23.0508  -12.9164 C   0  0  0  0  0  0  0  0  0  0  0  0
   21.3107  -21.8490  -13.2468 C   0  0  0  0  0  0  0  0  0  0  0  0
   22.2721  -21.6405  -12.1158 C   0  0  2  0  0  0  0  0  0  0  0  0
   22.1140  -20.3304  -11.4080 N   0  0  0  0  0  0  0  0  0  0  0  0
   23.1768  -20.2376  -10.4013 C   0  0  0  0  0  0  0  0  0  0  0  0
   20.7906  -20.1372  -10.7899 O   0  0  0  0  0  0  0  0  0  0  0  0
   19.8544  -19.4812  -11.2898 O   0  0  0  0  0  0  0  0  0  0  0  0
  2  1  1  0
  3  2  2  0
  4  2  1  0
  5  4  1  0
  6  5  1  0
  7  6  1  0
  8 10  1  0
  8  9  1  6
  8  7  1  0
 10 12  1  0
 11 10  2  0
 12 13  1  0
 13 14  1  1
 14 15  1  0
 15 16  2  0
 15 23  1  0
 16 17  1  0
 17 18  1  0
 18 19  2  0
 19 20  1  0
 21 20  2  0
 22 21  1  0
 23 22  2  0
 23 18  1  0
 24 13  1  0
 25 24  2  0
 27 29  1  0
 27 26  1  0
 28 27  2  0
 30 31  1  0
 30 29  1  0
 31 32  1  0
 33 32  1  6
 33 34  1  0
 34 24  1  0
 35 37  1  0
 35 33  1  0
 36 35  2  0
M  END
$$$$
