RWR.pdb
     RDKit          3D

 37 38  0  0  1  0  0  0  0  0999 V2000
   25.1524  -21.8711  -19.5153 N   0  0  0  0  0  0  0  0  0  0  0  0
   24.4974  -20.6297  -19.2433 C   0  0  0  0  0  0  0  0  0  0  0  0
   23.2049  -20.5270  -19.2800 N   0  0  0  0  0  0  0  0  0  0  0  0
   25.2301  -19.4544  -18.9215 N   0  0  0  0  0  0  0  0  0  0  0  0
   26.6743  -19.4462  -18.9008 C   0  0  0  0  0  0  0  0  0  0  0  0
   27.1961  -20.4882  -17.8881 C   0  0  0  0  0  0  0  0  0  0  0  0
   27.2713  -19.8141  -16.5581 C   0  0  0  0  0  0  0  0  0  0  0  0
   27.9279  -20.5815  -15.4683 C   0  0  2  0  0  0  0  0  0  0  0  0
   28.5764  -21.7990  -15.9905 N   0  0  0  0  0  0  0  0  0  0  0  0
   26.9370  -20.9746  -14.4447 C   0  0  0  0  0  0  0  0  0  0  0  0
   26.1656  -21.9572  -14.5273 O   0  0  0  0  0  0  0  0  0  0  0  0
   22.6948  -19.6488  -19.1683 N   0  0  0  0  0  0  0  0  0  0  0  0
   26.8257  -20.1866  -13.2511 C   0  0  2  0  0  0  0  0  0  0  0  0
   25.8987  -20.5818  -12.2165 C   0  0  0  0  0  0  0  0  0  0  0  0
   26.3533  -19.9673  -10.9234 C   0  0  0  0  0  0  0  0  0  0  0  0
   27.5648  -20.5899  -10.3535 C   0  0  0  0  0  0  0  0  0  0  0  0
   28.6049  -21.2620  -10.9595 N   0  0  0  0  0  0  0  0  0  0  0  0
   29.4557  -21.6348   -9.9897 C   0  0  0  0  0  0  0  0  0  0  0  0
   29.0278  -21.2428   -8.7820 C   0  0  0  0  0  0  0  0  0  0  0  0
   29.5220  -21.3708   -7.4968 C   0  0  0  0  0  0  0  0  0  0  0  0
   28.8514  -20.8537   -6.4193 C   0  0  0  0  0  0  0  0  0  0  0  0
   27.6628  -20.1933   -6.6144 C   0  0  0  0  0  0  0  0  0  0  0  0
   27.1794  -20.0707   -7.8959 C   0  0  0  0  0  0  0  0  0  0  0  0
   27.8457  -20.5893   -9.0054 C   0  0  0  0  0  0  0  0  0  0  0  0
   24.5134  -20.0623  -12.5428 O   0  0  0  0  0  0  0  0  0  0  0  0
   24.3625  -19.0881  -13.3211 N   0  0  0  0  0  0  0  0  0  0  0  0
   20.3802  -17.8402  -16.8627 C   0  0  0  0  0  0  0  0  0  0  0  0
   21.5035  -18.7041  -17.1614 N   0  0  0  0  0  0  0  0  0  0  0  0
   22.2940  -18.4726  -18.0504 N   0  0  0  0  0  0  0  0  0  0  0  0
   21.6727  -19.8893  -16.3583 C   0  0  0  0  0  0  0  0  0  0  0  0
   20.6973  -20.1680  -15.3419 C   0  0  0  0  0  0  0  0  0  0  0  0
   21.0171  -21.5316  -14.7580 C   0  0  0  0  0  0  0  0  0  0  0  0
   22.2714  -21.4099  -13.9461 C   0  0  2  0  0  0  0  0  0  0  0  0
   22.0820  -20.7451  -12.6178 N   0  0  0  0  0  0  0  0  0  0  0  0
   23.3910  -20.6874  -11.9585 C   0  0  0  0  0  0  0  0  0  0  0  0
   21.0895  -21.4049  -11.7516 O   0  0  0  0  0  0  0  0  0  0  0  0
   19.8996  -21.0514  -11.6258 O   0  0  0  0  0  0  0  0  0  0  0  0
  2  1  1  0
  3  2  2  0
  4  2  1  0
  5  4  1  0
  6  5  1  0
  7  6  1  0
  8 10  1  0
  8  9  1  6
  8  7  1  0
 10 12  1  0
 11 10  2  0
 12 13  1  0
 13 14  1  1
 14 15  1  0
 15 16  2  0
 15 23  1  0
 16 17  1  0
 17 18  1  0
 18 19  2  0
 19 20  1  0
 21 20  2  0
 22 21  1  0
 23 22  2  0
 23 18  1  0
 24 13  1  0
 25 24  2  0
 27 29  1  0
 27 26  1  0
 28 27  2  0
 30 31  1  0
 30 29  1  0
 31 32  1  0
 33 32  1  6
 33 34  1  0
 34 24  1  0
 35 37  1  0
 35 33  1  0
 36 35  2  0
M  END
$$$$
