RWR.pdb
     RDKit          3D

 37 38  0  0  1  0  0  0  0  0999 V2000
   30.3345  -17.5460  -16.3388 N   0  0  0  0  0  0  0  0  0  0  0  0
   29.7007  -17.3246  -17.6011 C   0  0  0  0  0  0  0  0  0  0  0  0
   30.0180  -16.3117  -18.3465 N   0  0  0  0  0  0  0  0  0  0  0  0
   28.6964  -18.2014  -18.0957 N   0  0  0  0  0  0  0  0  0  0  0  0
   28.4658  -19.4977  -17.5018 C   0  0  0  0  0  0  0  0  0  0  0  0
   26.9914  -19.6248  -17.0618 C   0  0  0  0  0  0  0  0  0  0  0  0
   26.8452  -20.9444  -16.3789 C   0  0  0  0  0  0  0  0  0  0  0  0
   27.5096  -21.0775  -15.0566 C   0  0  2  0  0  0  0  0  0  0  0  0
   28.5837  -22.0874  -15.0997 N   0  0  0  0  0  0  0  0  0  0  0  0
   26.5290  -21.4729  -14.0240 C   0  0  0  0  0  0  0  0  0  0  0  0
   25.7953  -22.4860  -14.0762 O   0  0  0  0  0  0  0  0  0  0  0  0
   29.5213  -16.0480  -19.1997 N   0  0  0  0  0  0  0  0  0  0  0  0
   26.3823  -20.6500  -12.8581 C   0  0  2  0  0  0  0  0  0  0  0  0
   25.4562  -21.0382  -11.8200 C   0  0  0  0  0  0  0  0  0  0  0  0
   25.8463  -20.3253  -10.5567 C   0  0  0  0  0  0  0  0  0  0  0  0
   27.1032  -20.8119   -9.9537 C   0  0  0  0  0  0  0  0  0  0  0  0
   28.1196  -21.5797  -10.4810 N   0  0  0  0  0  0  0  0  0  0  0  0
   29.0349  -21.7465   -9.5127 C   0  0  0  0  0  0  0  0  0  0  0  0
   28.6717  -21.1290   -8.3803 C   0  0  0  0  0  0  0  0  0  0  0  0
   29.2448  -20.9973   -7.1287 C   0  0  0  0  0  0  0  0  0  0  0  0
   28.6287  -20.2853   -6.1330 C   0  0  0  0  0  0  0  0  0  0  0  0
   27.4164  -19.6877   -6.3779 C   0  0  0  0  0  0  0  0  0  0  0  0
   26.8545  -19.8240   -7.6256 C   0  0  0  0  0  0  0  0  0  0  0  0
   27.4643  -20.5438   -8.6521 C   0  0  0  0  0  0  0  0  0  0  0  0
   24.0514  -20.6192  -12.2025 O   0  0  0  0  0  0  0  0  0  0  0  0
   23.8452  -19.5206  -12.7754 N   0  0  0  0  0  0  0  0  0  0  0  0
   17.4981  -26.0703  -11.5542 C   0  0  0  0  0  0  0  0  0  0  0  0
   18.1046  -25.2442  -10.5311 N   0  0  0  0  0  0  0  0  0  0  0  0
   18.1988  -25.5921   -9.3740 N   0  0  0  0  0  0  0  0  0  0  0  0
   18.6110  -23.9523  -10.9223 C   0  0  0  0  0  0  0  0  0  0  0  0
   18.6775  -23.6428  -12.3230 C   0  0  0  0  0  0  0  0  0  0  0  0
   19.3366  -22.2832  -12.4636 C   0  0  0  0  0  0  0  0  0  0  0  0
   20.7844  -22.4262  -12.1028 C   0  0  2  0  0  0  0  0  0  0  0  0
   21.5876  -21.1742  -12.2747 N   0  0  0  0  0  0  0  0  0  0  0  0
   22.9736  -21.4804  -11.9050 C   0  0  0  0  0  0  0  0  0  0  0  0
   21.0826  -20.0255  -11.5025 O   0  0  0  0  0  0  0  0  0  0  0  0
   20.1882  -19.2431  -11.8827 O   0  0  0  0  0  0  0  0  0  0  0  0
  2  1  1  0
  3  2  2  0
  4  2  1  0
  5  4  1  0
  6  5  1  0
  7  6  1  0
  8 10  1  0
  8  9  1  6
  8  7  1  0
 10 12  1  0
 11 10  2  0
 12 13  1  0
 13 14  1  6
 14 15  1  0
 15 16  2  0
 15 23  1  0
 16 17  1  0
 17 18  1  0
 18 19  2  0
 19 20  1  0
 21 20  2  0
 22 21  1  0
 23 22  2  0
 23 18  1  0
 24 13  1  0
 25 24  2  0
 27 29  1  0
 27 26  1  0
 28 27  2  0
 30 31  1  0
 30 29  1  0
 31 32  1  0
 33 32  1  6
 33 34  1  0
 34 24  1  0
 35 37  1  0
 35 33  1  0
 36 35  2  0
M  END
$$$$
