RWR.pdb
     RDKit          3D

 37 38  0  0  1  0  0  0  0  0999 V2000
   26.9573  -28.4946  -17.0130 N   0  0  0  0  0  0  0  0  0  0  0  0
   28.1475  -27.8063  -17.4051 C   0  0  0  0  0  0  0  0  0  0  0  0
   29.3123  -28.3702  -17.3182 N   0  0  0  0  0  0  0  0  0  0  0  0
   28.1095  -26.4761  -17.9063 N   0  0  0  0  0  0  0  0  0  0  0  0
   26.8932  -25.6972  -17.8902 C   0  0  0  0  0  0  0  0  0  0  0  0
   27.1742  -24.2647  -18.3930 C   0  0  0  0  0  0  0  0  0  0  0  0
   26.5555  -23.3225  -17.4141 C   0  0  0  0  0  0  0  0  0  0  0  0
   27.4510  -22.7966  -16.3516 C   0  0  2  0  0  0  0  0  0  0  0  0
   28.6064  -23.6887  -16.1393 N   0  0  0  0  0  0  0  0  0  0  0  0
   26.7157  -22.6625  -15.0766 C   0  0  0  0  0  0  0  0  0  0  0  0
   25.9730  -23.5377  -14.5768 O   0  0  0  0  0  0  0  0  0  0  0  0
   30.1894  -27.9228  -17.5916 N   0  0  0  0  0  0  0  0  0  0  0  0
   26.8419  -21.4440  -14.3301 C   0  0  1  0  0  0  0  0  0  0  0  0
   26.1899  -21.3198  -13.0474 C   0  0  0  0  0  0  0  0  0  0  0  0
   26.9799  -20.3509  -12.2146 C   0  0  0  0  0  0  0  0  0  0  0  0
   26.4223  -20.1206  -10.8669 C   0  0  0  0  0  0  0  0  0  0  0  0
   25.1245  -19.9142  -10.4499 N   0  0  0  0  0  0  0  0  0  0  0  0
   25.1567  -19.7502   -9.1174 C   0  0  0  0  0  0  0  0  0  0  0  0
   26.4059  -19.8382   -8.6406 C   0  0  0  0  0  0  0  0  0  0  0  0
   26.9637  -19.7466   -7.3786 C   0  0  0  0  0  0  0  0  0  0  0  0
   28.3132  -19.8827   -7.1831 C   0  0  0  0  0  0  0  0  0  0  0  0
   29.1337  -20.1152   -8.2599 C   0  0  0  0  0  0  0  0  0  0  0  0
   28.5699  -20.2050   -9.5109 C   0  0  0  0  0  0  0  0  0  0  0  0
   27.1999  -20.0694   -9.7315 C   0  0  0  0  0  0  0  0  0  0  0  0
   24.7893  -20.7731  -13.2343 O   0  0  0  0  0  0  0  0  0  0  0  0
   24.6066  -19.6515  -13.7693 N   0  0  0  0  0  0  0  0  0  0  0  0
   17.9498  -25.6351  -13.4116 C   0  0  0  0  0  0  0  0  0  0  0  0
   19.3773  -25.8064  -13.2380 N   0  0  0  0  0  0  0  0  0  0  0  0
   19.9645  -26.8140  -13.5679 N   0  0  0  0  0  0  0  0  0  0  0  0
   20.1174  -24.7221  -12.6422 C   0  0  0  0  0  0  0  0  0  0  0  0
   19.4211  -23.4993  -12.3555 C   0  0  0  0  0  0  0  0  0  0  0  0
   20.1725  -22.3706  -13.0370 C   0  0  0  0  0  0  0  0  0  0  0  0
   21.4272  -22.1084  -12.2598 C   0  0  2  0  0  0  0  0  0  0  0  0
   22.3075  -21.0514  -12.8515 N   0  0  0  0  0  0  0  0  0  0  0  0
   23.6890  -21.5414  -12.7973 C   0  0  0  0  0  0  0  0  0  0  0  0
   22.1931  -19.7373  -12.1950 O   0  0  0  0  0  0  0  0  0  0  0  0
   21.8180  -18.6867  -12.7537 O   0  0  0  0  0  0  0  0  0  0  0  0
  2  1  1  0
  3  2  2  0
  4  2  1  0
  5  4  1  0
  6  5  1  0
  7  6  1  0
  8 10  1  0
  8  9  1  1
  8  7  1  0
 10 12  1  0
 11 10  2  0
 12 13  1  0
 13 14  1  1
 14 15  1  0
 15 16  2  0
 15 23  1  0
 16 17  1  0
 17 18  1  0
 18 19  2  0
 19 20  1  0
 21 20  2  0
 22 21  1  0
 23 22  2  0
 23 18  1  0
 24 13  1  0
 25 24  2  0
 27 29  1  0
 27 26  1  0
 28 27  2  0
 30 31  1  0
 30 29  1  0
 31 32  1  0
 33 32  1  6
 33 34  1  0
 34 24  1  0
 35 37  1  0
 35 33  1  0
 36 35  2  0
M  END
$$$$
