SHG.pdb
     RDKit          3D

 21 21  0  0  1  0  0  0  0  0999 V2000
    8.0452  -15.6723   18.3966 O   0  0  0  0  0  0  0  0  0  0  0  0
    7.0108  -14.7532   18.4216 C   0  0  0  0  0  0  0  0  0  0  0  0
    7.4373  -13.4239   18.9957 C   0  0  2  0  0  0  0  0  0  0  0  0
    8.3682  -12.8209   18.0962 N   0  0  0  0  0  0  0  0  0  0  0  0
    7.9675  -13.5572   20.3772 C   0  0  0  0  0  0  0  0  0  0  0  0
    9.2145  -13.5789   20.5447 O   0  0  0  0  0  0  0  0  0  0  0  0
    7.1682  -13.6628   21.5310 N   0  0  0  0  0  0  0  0  0  0  0  0
    7.6032  -13.7688   22.8857 C   0  0  1  0  0  0  0  0  0  0  0  0
    6.4653  -13.4320   23.8047 C   0  0  0  0  0  0  0  0  0  0  0  0
    6.7825  -13.2876   25.2089 C   0  0  0  0  0  0  0  0  0  0  0  0
    7.9714  -13.4376   25.8622 C   0  0  0  0  0  0  0  0  0  0  0  0
    7.7651  -13.2164   27.1807 N   0  0  0  0  0  0  0  0  0  0  0  0
    6.4633  -12.9328   27.3440 C   0  0  0  0  0  0  0  0  0  0  0  0
    5.8568  -12.9727   26.1575 N   0  0  0  0  0  0  0  0  0  0  0  0
    8.0460  -15.1789   23.2061 C   0  0  0  0  0  0  0  0  0  0  0  0
    7.2434  -16.1334   23.0566 O   0  0  0  0  0  0  0  0  0  0  0  0
    9.3549  -15.4687   23.6767 N   0  0  0  0  0  0  0  0  0  0  0  0
    9.8380  -16.8035   23.9073 C   0  0  0  0  0  0  0  0  0  0  0  0
   10.3996  -17.0053   25.2501 C   0  0  0  0  0  0  0  0  0  0  0  0
   10.3701  -18.1608   25.7335 O   0  0  0  0  0  0  0  0  0  0  0  0
   10.9607  -16.0047   26.0207 O   0  0  0  0  0  0  0  0  0  0  0  0
  2  3  1  0
  2  1  1  0
  3  4  1  6
  3  5  1  0
  5  6  2  0
  7  5  1  0
  7  8  1  0
  8 15  1  0
  8  9  1  1
 10  9  1  0
 11 10  2  0
 12 13  1  0
 12 11  1  0
 13 14  2  0
 14 10  1  0
 15 16  2  0
 17 15  1  0
 17 18  1  0
 19 21  1  0
 19 18  1  0
 20 19  2  0
M  END
$$$$
