SHG.pdb
     RDKit          3D

 21 21  0  0  1  0  0  0  0  0999 V2000
    8.0714  -17.9587   21.2718 O   0  0  0  0  0  0  0  0  0  0  0  0
    7.5826  -17.1218   20.2838 C   0  0  0  0  0  0  0  0  0  0  0  0
    8.2962  -15.7921   20.2527 C   0  0  2  0  0  0  0  0  0  0  0  0
    9.4605  -15.9230   19.4362 N   0  0  0  0  0  0  0  0  0  0  0  0
    8.5976  -15.2885   21.6176 C   0  0  0  0  0  0  0  0  0  0  0  0
    9.7977  -15.2492   21.9942 O   0  0  0  0  0  0  0  0  0  0  0  0
    7.6273  -14.8451   22.5360 N   0  0  0  0  0  0  0  0  0  0  0  0
    7.8448  -14.1988   23.7892 C   0  0  1  0  0  0  0  0  0  0  0  0
    6.5424  -13.6629   24.3087 C   0  0  0  0  0  0  0  0  0  0  0  0
    6.5955  -12.8977   25.5353 C   0  0  0  0  0  0  0  0  0  0  0  0
    7.6705  -12.4542   26.2498 C   0  0  0  0  0  0  0  0  0  0  0  0
    7.2162  -11.7951   27.3402 N   0  0  0  0  0  0  0  0  0  0  0  0
    5.8749  -11.8294   27.3033 C   0  0  0  0  0  0  0  0  0  0  0  0
    5.4860  -12.4943   26.2152 N   0  0  0  0  0  0  0  0  0  0  0  0
    8.3803  -15.1704   24.8167 C   0  0  0  0  0  0  0  0  0  0  0  0
    8.6562  -14.7655   25.9733 O   0  0  0  0  0  0  0  0  0  0  0  0
    8.5863  -16.5443   24.5187 N   0  0  0  0  0  0  0  0  0  0  0  0
    8.9355  -17.5275   25.5084 C   0  0  0  0  0  0  0  0  0  0  0  0
   10.3512  -17.4948   25.9007 C   0  0  0  0  0  0  0  0  0  0  0  0
   11.1248  -16.7513   25.2538 O   0  0  0  0  0  0  0  0  0  0  0  0
   10.8915  -18.2304   26.9383 O   0  0  0  0  0  0  0  0  0  0  0  0
  2  3  1  0
  2  1  1  0
  3  4  1  6
  3  5  1  0
  5  6  2  0
  7  5  1  0
  7  8  1  0
  8 15  1  0
  8  9  1  1
 10  9  1  0
 11 10  2  0
 12 13  1  0
 12 11  1  0
 13 14  2  0
 14 10  1  0
 15 16  2  0
 17 15  1  0
 17 18  1  0
 19 21  1  0
 19 18  1  0
 20 19  2  0
M  END
$$$$
