SHG.pdb
     RDKit          3D

 21 21  0  0  1  0  0  0  0  0999 V2000
   14.7690  -26.8291   29.7509 O   0  0  0  0  0  0  0  0  0  0  0  0
   14.7818  -25.5718   29.1725 C   0  0  0  0  0  0  0  0  0  0  0  0
   13.6620  -24.6954   29.6789 C   0  0  2  0  0  0  0  0  0  0  0  0
   12.7085  -24.5286   28.6290 N   0  0  0  0  0  0  0  0  0  0  0  0
   14.1637  -23.4051   30.2182 C   0  0  0  0  0  0  0  0  0  0  0  0
   14.5155  -22.5091   29.4077 O   0  0  0  0  0  0  0  0  0  0  0  0
   14.2772  -23.1042   31.5886 N   0  0  0  0  0  0  0  0  0  0  0  0
   14.6901  -21.8727   32.1789 C   0  0  1  0  0  0  0  0  0  0  0  0
   13.4812  -21.0913   32.6043 C   0  0  0  0  0  0  0  0  0  0  0  0
   12.5982  -20.6335   31.5535 C   0  0  0  0  0  0  0  0  0  0  0  0
   12.7798  -19.6609   30.6134 C   0  0  0  0  0  0  0  0  0  0  0  0
   11.6608  -19.5837   29.8572 N   0  0  0  0  0  0  0  0  0  0  0  0
   10.7948  -20.4974   30.3226 C   0  0  0  0  0  0  0  0  0  0  0  0
   11.3501  -21.1401   31.3501 N   0  0  0  0  0  0  0  0  0  0  0  0
   15.5327  -22.1155   33.4110 C   0  0  0  0  0  0  0  0  0  0  0  0
   15.0618  -22.7799   34.3673 O   0  0  0  0  0  0  0  0  0  0  0  0
   16.8564  -21.6130   33.5293 N   0  0  0  0  0  0  0  0  0  0  0  0
   17.6870  -21.8283   34.6834 C   0  0  0  0  0  0  0  0  0  0  0  0
   18.9813  -21.1357   34.6180 C   0  0  0  0  0  0  0  0  0  0  0  0
   19.3383  -20.6569   33.5167 O   0  0  0  0  0  0  0  0  0  0  0  0
   19.8363  -20.9749   35.6917 O   0  0  0  0  0  0  0  0  0  0  0  0
  2  3  1  0
  2  1  1  0
  3  4  1  6
  3  5  1  0
  5  6  2  0
  7  5  1  0
  7  8  1  0
  8 15  1  0
  8  9  1  1
 10  9  1  0
 11 10  2  0
 12 13  1  0
 12 11  1  0
 13 14  2  0
 14 10  1  0
 15 16  2  0
 17 15  1  0
 17 18  1  0
 19 21  1  0
 19 18  1  0
 20 19  2  0
M  END
$$$$
