SHG.pdb
     RDKit          3D

 21 21  0  0  1  0  0  0  0  0999 V2000
    4.6537  -18.6697   23.0923 O   0  0  0  0  0  0  0  0  0  0  0  0
    3.8766  -18.3570   21.9905 C   0  0  0  0  0  0  0  0  0  0  0  0
    4.7002  -17.8461   20.8333 C   0  0  2  0  0  0  0  0  0  0  0  0
    4.8287  -18.8945   19.8723 N   0  0  0  0  0  0  0  0  0  0  0  0
    6.0092  -17.3016   21.2776 C   0  0  0  0  0  0  0  0  0  0  0  0
    7.0248  -18.0413   21.2070 O   0  0  0  0  0  0  0  0  0  0  0  0
    6.2026  -16.0007   21.7793 N   0  0  0  0  0  0  0  0  0  0  0  0
    7.3886  -15.4568   22.3565 C   0  0  1  0  0  0  0  0  0  0  0  0
    7.4909  -13.9998   22.0104 C   0  0  0  0  0  0  0  0  0  0  0  0
    7.8532  -13.6776   20.6473 C   0  0  0  0  0  0  0  0  0  0  0  0
    7.1822  -12.9505   19.7071 C   0  0  0  0  0  0  0  0  0  0  0  0
    7.9159  -12.9414   18.5706 N   0  0  0  0  0  0  0  0  0  0  0  0
    9.0290  -13.6548   18.8025 C   0  0  0  0  0  0  0  0  0  0  0  0
    9.0034  -14.1064   20.0565 N   0  0  0  0  0  0  0  0  0  0  0  0
    7.3593  -15.5663   23.8644 C   0  0  0  0  0  0  0  0  0  0  0  0
    6.3768  -15.1145   24.5034 O   0  0  0  0  0  0  0  0  0  0  0  0
    8.4170  -16.1699   24.5965 N   0  0  0  0  0  0  0  0  0  0  0  0
    8.3714  -16.3969   26.0158 C   0  0  0  0  0  0  0  0  0  0  0  0
    9.5375  -17.1239   26.5361 C   0  0  0  0  0  0  0  0  0  0  0  0
    9.5884  -17.3523   27.7670 O   0  0  0  0  0  0  0  0  0  0  0  0
   10.5871  -17.5754   25.7589 O   0  0  0  0  0  0  0  0  0  0  0  0
  2  3  1  0
  2  1  1  0
  3  4  1  6
  3  5  1  0
  5  6  2  0
  7  5  1  0
  7  8  1  0
  8 15  1  0
  8  9  1  1
 10  9  1  0
 11 10  2  0
 12 13  1  0
 12 11  1  0
 13 14  2  0
 14 10  1  0
 15 16  2  0
 17 15  1  0
 17 18  1  0
 19 21  1  0
 19 18  1  0
 20 19  2  0
M  END
$$$$
