SHG.pdb
     RDKit          3D

 21 21  0  0  1  0  0  0  0  0999 V2000
   12.1383  -19.5112   19.3335 O   0  0  0  0  0  0  0  0  0  0  0  0
   10.8651  -19.1974   18.8908 C   0  0  0  0  0  0  0  0  0  0  0  0
   10.6904  -17.7182   18.6460 C   0  0  2  0  0  0  0  0  0  0  0  0
   11.6019  -17.3189   17.6217 N   0  0  0  0  0  0  0  0  0  0  0  0
   10.8355  -16.9253   19.8941 C   0  0  0  0  0  0  0  0  0  0  0  0
   11.8271  -16.1592   20.0096 O   0  0  0  0  0  0  0  0  0  0  0  0
    9.9335  -16.9665   20.9740 N   0  0  0  0  0  0  0  0  0  0  0  0
   10.0090  -16.2414   22.2004 C   0  0  1  0  0  0  0  0  0  0  0  0
    8.6974  -15.5595   22.4603 C   0  0  0  0  0  0  0  0  0  0  0  0
    8.2576  -14.5954   21.4752 C   0  0  0  0  0  0  0  0  0  0  0  0
    8.6356  -13.2980   21.2841 C   0  0  0  0  0  0  0  0  0  0  0  0
    7.9303  -12.7963   20.2445 N   0  0  0  0  0  0  0  0  0  0  0  0
    7.1237  -13.7708   19.7958 C   0  0  0  0  0  0  0  0  0  0  0  0
    7.3120  -14.8658   20.5326 N   0  0  0  0  0  0  0  0  0  0  0  0
   10.2797  -17.1680   23.3645 C   0  0  0  0  0  0  0  0  0  0  0  0
    9.6992  -18.2802   23.4240 O   0  0  0  0  0  0  0  0  0  0  0  0
   11.1792  -16.8227   24.4087 N   0  0  0  0  0  0  0  0  0  0  0  0
   11.6341  -17.7547   25.4051 C   0  0  0  0  0  0  0  0  0  0  0  0
   10.8122  -17.7662   26.6230 C   0  0  0  0  0  0  0  0  0  0  0  0
    9.6265  -18.1600   26.5300 O   0  0  0  0  0  0  0  0  0  0  0  0
   11.2579  -17.3711   27.8700 O   0  0  0  0  0  0  0  0  0  0  0  0
  2  3  1  0
  2  1  1  0
  3  4  1  6
  3  5  1  0
  5  6  2  0
  7  5  1  0
  7  8  1  0
  8 15  1  0
  8  9  1  1
 10  9  1  0
 11 10  2  0
 12 13  1  0
 12 11  1  0
 13 14  2  0
 14 10  1  0
 15 16  2  0
 17 15  1  0
 17 18  1  0
 19 21  1  0
 19 18  1  0
 20 19  2  0
M  END
$$$$
