SHG.pdb
     RDKit          3D

 21 21  0  0  1  0  0  0  0  0999 V2000
   11.6554  -19.5122   18.6863 O   0  0  0  0  0  0  0  0  0  0  0  0
   10.2835  -19.3538   18.5951 C   0  0  0  0  0  0  0  0  0  0  0  0
    9.8963  -17.9934   18.0681 C   0  0  2  0  0  0  0  0  0  0  0  0
   10.4294  -17.8504   16.7510 N   0  0  0  0  0  0  0  0  0  0  0  0
   10.3123  -16.9008   18.9850 C   0  0  0  0  0  0  0  0  0  0  0  0
   11.1928  -16.0902   18.5962 O   0  0  0  0  0  0  0  0  0  0  0  0
    9.7878  -16.7005   20.2758 N   0  0  0  0  0  0  0  0  0  0  0  0
   10.1363  -15.6790   21.2090 C   0  0  1  0  0  0  0  0  0  0  0  0
    8.8963  -14.9522   21.6417 C   0  0  0  0  0  0  0  0  0  0  0  0
    8.1990  -14.1921   20.6272 C   0  0  0  0  0  0  0  0  0  0  0  0
    8.2897  -12.8700   20.3008 C   0  0  0  0  0  0  0  0  0  0  0  0
    7.4233  -12.6185   19.2928 N   0  0  0  0  0  0  0  0  0  0  0  0
    6.8018  -13.7710   18.9973 C   0  0  0  0  0  0  0  0  0  0  0  0
    7.2624  -14.7319   19.7983 N   0  0  0  0  0  0  0  0  0  0  0  0
   10.7750  -16.2679   22.4468 C   0  0  0  0  0  0  0  0  0  0  0  0
   10.0878  -16.9709   23.2286 O   0  0  0  0  0  0  0  0  0  0  0  0
   12.1433  -16.0527   22.7633 N   0  0  0  0  0  0  0  0  0  0  0  0
   12.7969  -16.6414   23.9010 C   0  0  0  0  0  0  0  0  0  0  0  0
   14.2355  -16.3507   23.9725 C   0  0  0  0  0  0  0  0  0  0  0  0
   14.7565  -15.7180   23.0250 O   0  0  0  0  0  0  0  0  0  0  0  0
   15.0578  -16.7281   25.0171 O   0  0  0  0  0  0  0  0  0  0  0  0
  2  3  1  0
  2  1  1  0
  3  4  1  6
  3  5  1  0
  5  6  2  0
  7  5  1  0
  7  8  1  0
  8 15  1  0
  8  9  1  1
 10  9  1  0
 11 10  2  0
 12 13  1  0
 12 11  1  0
 13 14  2  0
 14 10  1  0
 15 16  2  0
 17 15  1  0
 17 18  1  0
 19 21  1  0
 19 18  1  0
 20 19  2  0
M  END
$$$$
