SHG.pdb
     RDKit          3D

 21 21  0  0  1  0  0  0  0  0999 V2000
   11.0369  -20.6000   19.8236 O   0  0  0  0  0  0  0  0  0  0  0  0
    9.7217  -20.3032   19.5109 C   0  0  0  0  0  0  0  0  0  0  0  0
    9.6022  -19.0844   18.6285 C   0  0  2  0  0  0  0  0  0  0  0  0
   10.1379  -19.4025   17.3435 N   0  0  0  0  0  0  0  0  0  0  0  0
   10.2345  -17.8878   19.2413 C   0  0  0  0  0  0  0  0  0  0  0  0
   11.2724  -17.4153   18.7092 O   0  0  0  0  0  0  0  0  0  0  0  0
    9.7531  -17.2321   20.3902 N   0  0  0  0  0  0  0  0  0  0  0  0
   10.3070  -16.0870   21.0364 C   0  0  1  0  0  0  0  0  0  0  0  0
    9.1991  -15.1705   21.4671 C   0  0  0  0  0  0  0  0  0  0  0  0
    8.5257  -14.4272   20.4244 C   0  0  0  0  0  0  0  0  0  0  0  0
    8.8014  -14.3359   19.0908 C   0  0  0  0  0  0  0  0  0  0  0  0
    7.8990  -13.5025   18.5243 N   0  0  0  0  0  0  0  0  0  0  0  0
    7.0731  -13.0811   19.4948 C   0  0  0  0  0  0  0  0  0  0  0  0
    7.4417  -13.6337   20.6507 N   0  0  0  0  0  0  0  0  0  0  0  0
   11.0795  -16.4820   22.2750 C   0  0  0  0  0  0  0  0  0  0  0  0
   10.5134  -17.1480   23.1769 O   0  0  0  0  0  0  0  0  0  0  0  0
   12.4418  -16.1227   22.4595 N   0  0  0  0  0  0  0  0  0  0  0  0
   13.2023  -16.4683   23.6301 C   0  0  0  0  0  0  0  0  0  0  0  0
   14.6267  -16.1205   23.5339 C   0  0  0  0  0  0  0  0  0  0  0  0
   15.0559  -15.6923   22.4375 O   0  0  0  0  0  0  0  0  0  0  0  0
   15.5302  -16.2332   24.5734 O   0  0  0  0  0  0  0  0  0  0  0  0
  2  3  1  0
  2  1  1  0
  3  4  1  6
  3  5  1  0
  5  6  2  0
  7  5  1  0
  7  8  1  0
  8 15  1  0
  8  9  1  1
 10  9  1  0
 11 10  2  0
 12 13  1  0
 12 11  1  0
 13 14  2  0
 14 10  1  0
 15 16  2  0
 17 15  1  0
 17 18  1  0
 19 21  1  0
 19 18  1  0
 20 19  2  0
M  END
$$$$
