SHG.pdb
     RDKit          3D

 21 21  0  0  1  0  0  0  0  0999 V2000
   11.4993  -18.8066   15.1269 O   0  0  0  0  0  0  0  0  0  0  0  0
   10.1778  -18.5216   15.4233 C   0  0  0  0  0  0  0  0  0  0  0  0
    9.8937  -17.0392   15.4128 C   0  0  2  0  0  0  0  0  0  0  0  0
   10.1530  -16.5386   14.1008 N   0  0  0  0  0  0  0  0  0  0  0  0
   10.6501  -16.3187   16.4694 C   0  0  0  0  0  0  0  0  0  0  0  0
   11.5689  -15.5320   16.1226 O   0  0  0  0  0  0  0  0  0  0  0  0
   10.4130  -16.4515   17.8505 N   0  0  0  0  0  0  0  0  0  0  0  0
   11.0496  -15.7471   18.9155 C   0  0  1  0  0  0  0  0  0  0  0  0
   10.0089  -15.2249   19.8628 C   0  0  0  0  0  0  0  0  0  0  0  0
    9.0920  -14.2344   19.3421 C   0  0  0  0  0  0  0  0  0  0  0  0
    9.3283  -13.1441   18.5558 C   0  0  0  0  0  0  0  0  0  0  0  0
    8.1536  -12.5073   18.3443 N   0  0  0  0  0  0  0  0  0  0  0  0
    7.1995  -13.1941   18.9920 C   0  0  0  0  0  0  0  0  0  0  0  0
    7.7544  -14.2424   19.6005 N   0  0  0  0  0  0  0  0  0  0  0  0
   11.9644  -16.6597   19.7011 C   0  0  0  0  0  0  0  0  0  0  0  0
   11.7269  -17.8923   19.7459 O   0  0  0  0  0  0  0  0  0  0  0  0
   13.0991  -16.1681   20.4008 N   0  0  0  0  0  0  0  0  0  0  0  0
   14.0012  -17.0090   21.1406 C   0  0  0  0  0  0  0  0  0  0  0  0
   15.1747  -16.2984   21.6669 C   0  0  0  0  0  0  0  0  0  0  0  0
   15.3249  -15.0951   21.3522 O   0  0  0  0  0  0  0  0  0  0  0  0
   16.1287  -16.8675   22.4889 O   0  0  0  0  0  0  0  0  0  0  0  0
  2  3  1  0
  2  1  1  0
  3  4  1  6
  3  5  1  0
  5  6  2  0
  7  5  1  0
  7  8  1  0
  8 15  1  0
  8  9  1  1
 10  9  1  0
 11 10  2  0
 12 13  1  0
 12 11  1  0
 13 14  2  0
 14 10  1  0
 15 16  2  0
 17 15  1  0
 17 18  1  0
 19 21  1  0
 19 18  1  0
 20 19  2  0
M  END
$$$$
