SHG.pdb
     RDKit          3D

 21 21  0  0  1  0  0  0  0  0999 V2000
    8.2033  -16.2469   20.1160 O   0  0  0  0  0  0  0  0  0  0  0  0
    8.1416  -15.0241   19.4706 C   0  0  0  0  0  0  0  0  0  0  0  0
    7.6033  -13.9311   20.3616 C   0  0  2  0  0  0  0  0  0  0  0  0
    7.6380  -12.7003   19.6384 N   0  0  0  0  0  0  0  0  0  0  0  0
    8.3243  -13.8631   21.6589 C   0  0  0  0  0  0  0  0  0  0  0  0
    9.2541  -13.0251   21.7884 O   0  0  0  0  0  0  0  0  0  0  0  0
    8.0418  -14.6777   22.7716 N   0  0  0  0  0  0  0  0  0  0  0  0
    8.6612  -14.6433   24.0564 C   0  0  1  0  0  0  0  0  0  0  0  0
    7.6263  -14.8797   25.1175 C   0  0  0  0  0  0  0  0  0  0  0  0
    6.9741  -13.7096   25.6639 C   0  0  0  0  0  0  0  0  0  0  0  0
    7.3709  -12.4037   25.6705 C   0  0  0  0  0  0  0  0  0  0  0  0
    6.4326  -11.6754   26.3178 N   0  0  0  0  0  0  0  0  0  0  0  0
    5.4648  -12.5193   26.7088 C   0  0  0  0  0  0  0  0  0  0  0  0
    5.7805  -13.7545   26.3191 N   0  0  0  0  0  0  0  0  0  0  0  0
    9.7044  -15.7303   24.1867 C   0  0  0  0  0  0  0  0  0  0  0  0
   10.2268  -15.9622   25.3051 O   0  0  0  0  0  0  0  0  0  0  0  0
   10.1220  -16.5106   23.0751 N   0  0  0  0  0  0  0  0  0  0  0  0
   11.0799  -17.5790   23.1704 C   0  0  0  0  0  0  0  0  0  0  0  0
   11.2261  -18.3545   21.9309 C   0  0  0  0  0  0  0  0  0  0  0  0
   11.4096  -17.7275   20.8618 O   0  0  0  0  0  0  0  0  0  0  0  0
   11.1750  -19.7337   21.8618 O   0  0  0  0  0  0  0  0  0  0  0  0
  2  3  1  0
  2  1  1  0
  3  4  1  6
  3  5  1  0
  5  6  2  0
  7  5  1  0
  7  8  1  0
  8 15  1  0
  8  9  1  1
 10  9  1  0
 11 10  2  0
 12 13  1  0
 12 11  1  0
 13 14  2  0
 14 10  1  0
 15 16  2  0
 17 15  1  0
 17 18  1  0
 19 21  1  0
 19 18  1  0
 20 19  2  0
M  END
$$$$
