SHG.pdb
     RDKit          3D

 21 21  0  0  1  0  0  0  0  0999 V2000
    8.4013  -20.1841   19.7906 O   0  0  0  0  0  0  0  0  0  0  0  0
    7.1798  -19.5334   19.7960 C   0  0  0  0  0  0  0  0  0  0  0  0
    7.1182  -18.4190   18.7798 C   0  0  2  0  0  0  0  0  0  0  0  0
    7.2300  -18.9899   17.4756 N   0  0  0  0  0  0  0  0  0  0  0  0
    8.1345  -17.3675   19.0426 C   0  0  0  0  0  0  0  0  0  0  0  0
    9.0448  -17.1834   18.1935 O   0  0  0  0  0  0  0  0  0  0  0  0
    8.1566  -16.5487   20.1875 N   0  0  0  0  0  0  0  0  0  0  0  0
    9.0701  -15.4946   20.4872 C   0  0  1  0  0  0  0  0  0  0  0  0
    8.4059  -14.1714   20.2403 C   0  0  0  0  0  0  0  0  0  0  0  0
    8.1101  -13.8375   18.8640 C   0  0  0  0  0  0  0  0  0  0  0  0
    7.1086  -13.0724   18.3401 C   0  0  0  0  0  0  0  0  0  0  0  0
    7.2349  -13.0674   16.9932 N   0  0  0  0  0  0  0  0  0  0  0  0
    8.3020  -13.8209   16.6847 C   0  0  0  0  0  0  0  0  0  0  0  0
    8.8411  -14.2933   17.8087 N   0  0  0  0  0  0  0  0  0  0  0  0
    9.4858  -15.5318   21.9407 C   0  0  0  0  0  0  0  0  0  0  0  0
    8.6149  -15.4373   22.8408 O   0  0  0  0  0  0  0  0  0  0  0  0
   10.8445  -15.6718   22.3322 N   0  0  0  0  0  0  0  0  0  0  0  0
   11.2607  -15.8853   23.6921 C   0  0  0  0  0  0  0  0  0  0  0  0
   12.7030  -16.1253   23.8383 C   0  0  0  0  0  0  0  0  0  0  0  0
   13.4050  -16.1461   22.8008 O   0  0  0  0  0  0  0  0  0  0  0  0
   13.3422  -16.3307   25.0461 O   0  0  0  0  0  0  0  0  0  0  0  0
  2  3  1  0
  2  1  1  0
  3  4  1  6
  3  5  1  0
  5  6  2  0
  7  5  1  0
  7  8  1  0
  8 15  1  0
  8  9  1  1
 10  9  1  0
 11 10  2  0
 12 13  1  0
 12 11  1  0
 13 14  2  0
 14 10  1  0
 15 16  2  0
 17 15  1  0
 17 18  1  0
 19 21  1  0
 19 18  1  0
 20 19  2  0
M  END
$$$$
