PVL.pdb
     RDKit          3D

 23 23  0  0  1  0  0  0  0  0999 V2000
    6.3110  -19.6422   21.6041 N   0  0  0  0  0  0  0  0  0  0  0  0
    6.2453  -20.4808   22.7446 C   0  0  0  0  0  0  0  0  0  0  0  0
    6.3235  -19.5214   23.9137 C   0  0  0  0  0  0  0  0  0  0  0  0
    5.4709  -18.3631   23.4006 C   0  0  0  0  0  0  0  0  0  0  0  0
    5.9804  -18.2785   21.9593 C   0  0  1  0  0  0  0  0  0  0  0  0
    7.2303  -17.4949   22.0021 C   0  0  0  0  0  0  0  0  0  0  0  0
    8.3457  -18.0679   22.1296 O   0  0  0  0  0  0  0  0  0  0  0  0
    7.6675  -14.4145   19.7363 C   0  0  0  0  0  0  0  0  0  0  0  0
    8.2158  -13.9997   21.0815 C   0  0  1  0  0  0  0  0  0  0  0  0
    7.2444  -13.0857   21.7945 C   0  0  0  0  0  0  0  0  0  0  0  0
    8.4167  -15.2902   21.8853 C   0  0  2  0  0  0  0  0  0  0  0  0
    7.2024  -16.0766   21.8974 N   0  0  0  0  0  0  0  0  0  0  0  0
    8.9396  -14.9477   23.2153 C   0  0  0  0  0  0  0  0  0  0  0  0
   10.0931  -14.4076   23.3287 O   0  0  0  0  0  0  0  0  0  0  0  0
    7.9383  -11.7765   26.1826 C   0  0  0  0  0  0  0  0  0  0  0  0
    6.9975  -12.9145   25.9224 C   0  0  2  0  0  0  0  0  0  0  0  0
    5.6635  -12.6307   26.5682 C   0  0  0  0  0  0  0  0  0  0  0  0
    7.5104  -14.1967   26.4866 C   0  0  0  0  0  0  0  0  0  0  0  0
    8.7080  -14.7674   25.7435 C   0  0  2  0  0  0  0  0  0  0  0  0
    8.2429  -15.1777   24.4240 N   0  0  0  0  0  0  0  0  0  0  0  0
    9.1286  -15.9644   26.5093 C   0  0  0  0  0  0  0  0  0  0  0  0
    9.6482  -15.9122   27.6515 O   0  0  0  0  0  0  0  0  0  0  0  0
    8.9258  -17.2191   25.9102 O   0  0  0  0  0  0  0  0  0  0  0  0
  2  3  1  0
  2  1  1  0
  3  4  1  0
  4  5  1  0
  5  1  1  0
  5  6  1  1
  6 12  1  0
  6  7  2  0
  9  8  1  6
  9 11  1  0
  9 10  1  0
 11 13  1  0
 11 12  1  1
 13 14  2  0
 16 18  1  0
 16 15  1  1
 17 16  1  0
 19 18  1  1
 19 21  1  0
 20 19  1  0
 20 13  1  0
 21 23  1  0
 22 21  2  0
M  END
$$$$
