PVL.pdb
     RDKit          3D

 23 23  0  0  1  0  0  0  0  0999 V2000
    8.3613  -14.7523   18.0540 N   0  0  0  0  0  0  0  0  0  0  0  0
    7.6721  -13.6661   17.4596 C   0  0  0  0  0  0  0  0  0  0  0  0
    7.5060  -12.6712   18.5891 C   0  0  0  0  0  0  0  0  0  0  0  0
    8.8489  -12.8100   19.3026 C   0  0  0  0  0  0  0  0  0  0  0  0
    9.0026  -14.3332   19.2822 C   0  0  1  0  0  0  0  0  0  0  0  0
    8.2124  -14.8492   20.4168 C   0  0  0  0  0  0  0  0  0  0  0  0
    7.0271  -14.4638   20.6045 O   0  0  0  0  0  0  0  0  0  0  0  0
    7.2251  -18.1922   21.2009 C   0  0  0  0  0  0  0  0  0  0  0  0
    7.9617  -17.8066   22.4622 C   0  0  1  0  0  0  0  0  0  0  0  0
    9.3537  -18.3977   22.4686 C   0  0  0  0  0  0  0  0  0  0  0  0
    8.0362  -16.2749   22.4706 C   0  0  2  0  0  0  0  0  0  0  0  0
    8.7712  -15.7948   21.3208 N   0  0  0  0  0  0  0  0  0  0  0  0
    8.5657  -15.8299   23.7673 C   0  0  0  0  0  0  0  0  0  0  0  0
    9.8263  -15.6894   23.9285 O   0  0  0  0  0  0  0  0  0  0  0  0
    7.8918  -12.0338   25.9284 C   0  0  0  0  0  0  0  0  0  0  0  0
    6.7669  -13.0199   26.0289 C   0  0  2  0  0  0  0  0  0  0  0  0
    5.5912  -12.3824   26.7278 C   0  0  0  0  0  0  0  0  0  0  0  0
    7.1583  -14.2283   26.8111 C   0  0  0  0  0  0  0  0  0  0  0  0
    8.2662  -15.0504   26.1716 C   0  0  2  0  0  0  0  0  0  0  0  0
    7.7617  -15.5352   24.8925 N   0  0  0  0  0  0  0  0  0  0  0  0
    8.4928  -16.2011   27.0775 C   0  0  0  0  0  0  0  0  0  0  0  0
    9.1716  -16.1331   28.1319 O   0  0  0  0  0  0  0  0  0  0  0  0
    7.9071  -17.4281   26.7226 O   0  0  0  0  0  0  0  0  0  0  0  0
  2  3  1  0
  2  1  1  0
  3  4  1  0
  4  5  1  0
  5  1  1  0
  5  6  1  1
  6 12  1  0
  6  7  2  0
  9  8  1  6
  9 11  1  0
  9 10  1  0
 11 13  1  0
 11 12  1  6
 13 14  2  0
 16 18  1  0
 16 15  1  1
 17 16  1  0
 19 18  1  1
 19 21  1  0
 20 19  1  0
 20 13  1  0
 21 23  1  0
 22 21  2  0
M  END
$$$$
