PVL.pdb
     RDKit          3D

 23 23  0  0  1  0  0  0  0  0999 V2000
    8.2576  -15.3246   20.6437 N   0  0  0  0  0  0  0  0  0  0  0  0
    8.3779  -16.7028   20.3367 C   0  0  0  0  0  0  0  0  0  0  0  0
    7.8222  -17.4035   21.5588 C   0  0  0  0  0  0  0  0  0  0  0  0
    6.6453  -16.4954   21.9083 C   0  0  0  0  0  0  0  0  0  0  0  0
    7.3012  -15.1259   21.7120 C   0  0  1  0  0  0  0  0  0  0  0  0
    8.0460  -14.8365   22.9527 C   0  0  0  0  0  0  0  0  0  0  0  0
    9.2521  -15.1815   23.0755 O   0  0  0  0  0  0  0  0  0  0  0  0
    6.0952  -13.3450   26.4359 C   0  0  0  0  0  0  0  0  0  0  0  0
    7.3780  -12.6829   25.9908 C   0  0  1  0  0  0  0  0  0  0  0  0
    8.1810  -12.2188   27.1854 C   0  0  0  0  0  0  0  0  0  0  0  0
    8.1620  -13.7400   25.2036 C   0  0  2  0  0  0  0  0  0  0  0  0
    7.4190  -14.1592   24.0352 N   0  0  0  0  0  0  0  0  0  0  0  0
    8.5405  -14.8298   26.1140 C   0  0  0  0  0  0  0  0  0  0  0  0
    7.6531  -15.6493   26.5333 O   0  0  0  0  0  0  0  0  0  0  0  0
   11.4108  -17.9811   25.2883 C   0  0  0  0  0  0  0  0  0  0  0  0
   12.0952  -16.7295   25.7499 C   0  0  2  0  0  0  0  0  0  0  0  0
   13.5915  -16.9080   25.6709 C   0  0  0  0  0  0  0  0  0  0  0  0
   11.7521  -16.4004   27.1638 C   0  0  0  0  0  0  0  0  0  0  0  0
   10.2675  -16.1796   27.4077 C   0  0  2  0  0  0  0  0  0  0  0  0
    9.8566  -15.0510   26.5810 N   0  0  0  0  0  0  0  0  0  0  0  0
   10.1409  -15.8119   28.8376 C   0  0  0  0  0  0  0  0  0  0  0  0
    9.8961  -14.6467   29.2373 O   0  0  0  0  0  0  0  0  0  0  0  0
   10.3050  -16.8363   29.7853 O   0  0  0  0  0  0  0  0  0  0  0  0
  2  3  1  0
  2  1  1  0
  3  4  1  0
  4  5  1  0
  5  1  1  0
  5  6  1  1
  6 12  1  0
  6  7  2  0
  9  8  1  1
  9 11  1  0
  9 10  1  0
 11 13  1  0
 11 12  1  6
 13 14  2  0
 16 18  1  0
 16 15  1  1
 17 16  1  0
 19 18  1  6
 19 21  1  0
 20 19  1  0
 20 13  1  0
 21 23  1  0
 22 21  2  0
M  END
$$$$
