PVL.pdb
     RDKit          3D

 23 23  0  0  1  0  0  0  0  0999 V2000
   10.0677  -18.5133   19.1438 N   0  0  0  0  0  0  0  0  0  0  0  0
   10.7175  -19.5681   19.8318 C   0  0  0  0  0  0  0  0  0  0  0  0
   10.1189  -19.5266   21.2222 C   0  0  0  0  0  0  0  0  0  0  0  0
    8.6591  -19.2108   20.9042 C   0  0  0  0  0  0  0  0  0  0  0  0
    8.8493  -18.1374   19.8291 C   0  0  1  0  0  0  0  0  0  0  0  0
    9.0917  -16.8684   20.5425 C   0  0  0  0  0  0  0  0  0  0  0  0
   10.2527  -16.5519   20.9177 O   0  0  0  0  0  0  0  0  0  0  0  0
    7.7177  -12.3480   21.6626 C   0  0  0  0  0  0  0  0  0  0  0  0
    7.3661  -13.6147   20.9182 C   0  0  1  0  0  0  0  0  0  0  0  0
    7.6611  -13.4652   19.4425 C   0  0  0  0  0  0  0  0  0  0  0  0
    8.2316  -14.7276   21.5217 C   0  0  2  0  0  0  0  0  0  0  0  0
    8.0204  -15.9742   20.8187 N   0  0  0  0  0  0  0  0  0  0  0  0
    7.9873  -14.7902   22.9695 C   0  0  0  0  0  0  0  0  0  0  0  0
    6.9562  -15.3991   23.4178 O   0  0  0  0  0  0  0  0  0  0  0  0
    5.8353  -11.9691   26.4951 C   0  0  0  0  0  0  0  0  0  0  0  0
    7.0745  -12.7899   26.6914 C   0  0  2  0  0  0  0  0  0  0  0  0
    8.2933  -11.9070   26.5813 C   0  0  0  0  0  0  0  0  0  0  0  0
    7.1970  -13.8621   25.6615 C   0  0  0  0  0  0  0  0  0  0  0  0
    8.6278  -14.2950   25.3825 C   0  0  2  0  0  0  0  0  0  0  0  0
    8.8329  -14.2078   23.9416 N   0  0  0  0  0  0  0  0  0  0  0  0
    8.7131  -15.7127   25.8052 C   0  0  0  0  0  0  0  0  0  0  0  0
    7.8659  -16.5847   25.4901 O   0  0  0  0  0  0  0  0  0  0  0  0
    9.8099  -16.0851   26.6006 O   0  0  0  0  0  0  0  0  0  0  0  0
  2  3  1  0
  2  1  1  0
  3  4  1  0
  4  5  1  0
  5  1  1  0
  5  6  1  1
  6 12  1  0
  6  7  2  0
  9  8  1  1
  9 11  1  0
  9 10  1  0
 11 13  1  0
 11 12  1  6
 13 14  2  0
 16 18  1  0
 16 15  1  6
 17 16  1  0
 19 18  1  6
 19 21  1  0
 20 19  1  0
 20 13  1  0
 21 23  1  0
 22 21  2  0
M  END
$$$$
