PVL.pdb
     RDKit          3D

 23 23  0  0  1  0  0  0  0  0999 V2000
    6.3536  -19.2064   20.9204 N   0  0  0  0  0  0  0  0  0  0  0  0
    6.2406  -20.1086   22.0074 C   0  0  0  0  0  0  0  0  0  0  0  0
    6.2439  -19.2157   23.2306 C   0  0  0  0  0  0  0  0  0  0  0  0
    5.4026  -18.0402   22.7384 C   0  0  0  0  0  0  0  0  0  0  0  0
    5.9853  -17.8687   21.3330 C   0  0  1  0  0  0  0  0  0  0  0  0
    7.2198  -17.0745   21.4854 C   0  0  0  0  0  0  0  0  0  0  0  0
    8.3376  -17.6410   21.6213 O   0  0  0  0  0  0  0  0  0  0  0  0
    7.3756  -13.7802   19.6336 C   0  0  0  0  0  0  0  0  0  0  0  0
    8.1865  -13.5034   20.8778 C   0  0  1  0  0  0  0  0  0  0  0  0
    7.4581  -12.5371   21.7850 C   0  0  0  0  0  0  0  0  0  0  0  0
    8.3750  -14.8524   21.5824 C   0  0  2  0  0  0  0  0  0  0  0  0
    7.1744  -15.6528   21.4790 N   0  0  0  0  0  0  0  0  0  0  0  0
    8.8366  -14.6126   22.9568 C   0  0  0  0  0  0  0  0  0  0  0  0
    9.9697  -14.0568   23.1625 O   0  0  0  0  0  0  0  0  0  0  0  0
    8.1268  -11.7837   26.2598 C   0  0  0  0  0  0  0  0  0  0  0  0
    7.0328  -12.7302   25.8661 C   0  0  2  0  0  0  0  0  0  0  0  0
    5.7536  -12.3526   26.5721 C   0  0  0  0  0  0  0  0  0  0  0  0
    7.3577  -14.1376   26.2389 C   0  0  0  0  0  0  0  0  0  0  0  0
    8.5392  -14.7237   25.4821 C   0  0  2  0  0  0  0  0  0  0  0  0
    8.1003  -14.9618   24.1123 N   0  0  0  0  0  0  0  0  0  0  0  0
    8.8363  -16.0208   26.1344 C   0  0  0  0  0  0  0  0  0  0  0  0
    9.3028  -16.1247   27.2957 O   0  0  0  0  0  0  0  0  0  0  0  0
    8.5738  -17.1891   25.3991 O   0  0  0  0  0  0  0  0  0  0  0  0
  2  3  1  0
  2  1  1  0
  3  4  1  0
  4  5  1  0
  5  1  1  0
  5  6  1  1
  6 12  1  0
  6  7  2  0
  9  8  1  6
  9 11  1  0
  9 10  1  0
 11 13  1  0
 11 12  1  1
 13 14  2  0
 16 18  1  0
 16 15  1  1
 17 16  1  0
 19 18  1  1
 19 21  1  0
 20 19  1  0
 20 13  1  0
 21 23  1  0
 22 21  2  0
M  END
$$$$
