PVL.pdb
     RDKit          3D

 23 23  0  0  1  0  0  0  0  0999 V2000
    7.7669  -18.8921   18.0779 N   0  0  0  0  0  0  0  0  0  0  0  0
    7.7206  -20.1752   18.6776 C   0  0  0  0  0  0  0  0  0  0  0  0
    7.0421  -19.9360   20.0102 C   0  0  0  0  0  0  0  0  0  0  0  0
    5.9798  -18.9111   19.6190 C   0  0  0  0  0  0  0  0  0  0  0  0
    6.8103  -18.0054   18.7057 C   0  0  1  0  0  0  0  0  0  0  0  0
    7.5463  -17.0808   19.5896 C   0  0  0  0  0  0  0  0  0  0  0  0
    8.6421  -17.4228   20.1104 O   0  0  0  0  0  0  0  0  0  0  0  0
    8.0965  -12.5464   21.4039 C   0  0  0  0  0  0  0  0  0  0  0  0
    7.2632  -13.4261   20.5018 C   0  0  1  0  0  0  0  0  0  0  0  0
    7.4711  -13.0516   19.0514 C   0  0  0  0  0  0  0  0  0  0  0  0
    7.7283  -14.8664   20.7493 C   0  0  2  0  0  0  0  0  0  0  0  0
    7.0359  -15.7830   19.8698 N   0  0  0  0  0  0  0  0  0  0  0  0
    7.5963  -15.1713   22.1809 C   0  0  0  0  0  0  0  0  0  0  0  0
    6.4541  -15.0867   22.7495 O   0  0  0  0  0  0  0  0  0  0  0  0
    8.0416  -19.4278   25.9104 C   0  0  0  0  0  0  0  0  0  0  0  0
    8.1614  -17.9336   25.8856 C   0  0  2  0  0  0  0  0  0  0  0  0
    6.8935  -17.3117   26.4176 C   0  0  0  0  0  0  0  0  0  0  0  0
    8.3728  -17.4182   24.5018 C   0  0  0  0  0  0  0  0  0  0  0  0
    8.5521  -15.9103   24.4210 C   0  0  2  0  0  0  0  0  0  0  0  0
    8.6723  -15.5640   23.0098 N   0  0  0  0  0  0  0  0  0  0  0  0
    9.8312  -15.6158   25.1089 C   0  0  0  0  0  0  0  0  0  0  0  0
    9.9297  -15.4386   26.3483 O   0  0  0  0  0  0  0  0  0  0  0  0
   10.9882  -15.5359   24.3157 O   0  0  0  0  0  0  0  0  0  0  0  0
  2  3  1  0
  2  1  1  0
  3  4  1  0
  4  5  1  0
  5  1  1  0
  5  6  1  1
  6 12  1  0
  6  7  2  0
  9  8  1  1
  9 11  1  0
  9 10  1  0
 11 13  1  0
 11 12  1  6
 13 14  2  0
 16 18  1  0
 16 15  1  6
 17 16  1  0
 19 18  1  6
 19 21  1  0
 20 19  1  0
 20 13  1  0
 21 23  1  0
 22 21  2  0
M  END
$$$$
