PVL.pdb
     RDKit          3D

 23 23  0  0  1  0  0  0  0  0999 V2000
    6.5720  -19.8893   21.6420 N   0  0  0  0  0  0  0  0  0  0  0  0
    6.7517  -20.8931   22.6260 C   0  0  0  0  0  0  0  0  0  0  0  0
    6.9620  -20.1184   23.9102 C   0  0  0  0  0  0  0  0  0  0  0  0
    5.9630  -18.9774   23.7317 C   0  0  0  0  0  0  0  0  0  0  0  0
    6.2183  -18.6302   22.2625 C   0  0  1  0  0  0  0  0  0  0  0  0
    7.4047  -17.7529   22.2394 C   0  0  0  0  0  0  0  0  0  0  0  0
    8.5519  -18.2264   22.0193 O   0  0  0  0  0  0  0  0  0  0  0  0
    7.0406  -14.2071   20.6941 C   0  0  0  0  0  0  0  0  0  0  0  0
    7.9057  -14.0471   21.9222 C   0  0  1  0  0  0  0  0  0  0  0  0
    7.1087  -13.4532   23.0621 C   0  0  0  0  0  0  0  0  0  0  0  0
    8.3964  -15.4517   22.2938 C   0  0  2  0  0  0  0  0  0  0  0  0
    7.2779  -16.3536   22.4620 N   0  0  0  0  0  0  0  0  0  0  0  0
    9.2867  -15.3536   23.4589 C   0  0  0  0  0  0  0  0  0  0  0  0
   10.3414  -14.6331   23.3983 O   0  0  0  0  0  0  0  0  0  0  0  0
    9.1452  -13.5801   28.9032 C   0  0  0  0  0  0  0  0  0  0  0  0
    9.9423  -14.4729   28.0003 C   0  0  2  0  0  0  0  0  0  0  0  0
   11.2178  -13.7772   27.5923 C   0  0  0  0  0  0  0  0  0  0  0  0
    9.1933  -14.8125   26.7558 C   0  0  0  0  0  0  0  0  0  0  0  0
    9.8772  -15.8536   25.8836 C   0  0  2  0  0  0  0  0  0  0  0  0
    9.0615  -16.0182   24.6864 N   0  0  0  0  0  0  0  0  0  0  0  0
    9.8607  -17.1125   26.6652 C   0  0  0  0  0  0  0  0  0  0  0  0
    8.9467  -17.9700   26.5837 O   0  0  0  0  0  0  0  0  0  0  0  0
   10.9359  -17.3445   27.5396 O   0  0  0  0  0  0  0  0  0  0  0  0
  2  3  1  0
  2  1  1  0
  3  4  1  0
  4  5  1  0
  5  1  1  0
  5  6  1  1
  6 12  1  0
  6  7  2  0
  9  8  1  6
  9 11  1  0
  9 10  1  0
 11 13  1  0
 11 12  1  1
 13 14  2  0
 16 18  1  0
 16 15  1  1
 17 16  1  0
 19 18  1  1
 19 21  1  0
 20 19  1  0
 20 13  1  0
 21 23  1  0
 22 21  2  0
M  END
$$$$
