EHY.pdb
     RDKit          3D

 32 33  0  0  1  0  0  0  0  0999 V2000
   11.3436  -14.0786   17.8438 N   0  0  0  0  0  0  0  0  0  0  0  0
   11.9365  -15.0086   18.7362 C   0  0  1  0  0  0  0  0  0  0  0  0
   13.1620  -14.5311   19.4371 C   0  0  0  0  0  0  0  0  0  0  0  0
   14.3357  -14.1654   18.5981 C   0  0  0  0  0  0  0  0  0  0  0  0
   15.6654  -14.3154   19.1758 C   0  0  0  0  0  0  0  0  0  0  0  0
   15.8511  -14.2664   20.4056 O   0  0  0  0  0  0  0  0  0  0  0  0
   10.9946  -15.4780   19.8181 C   0  0  0  0  0  0  0  0  0  0  0  0
   10.2787  -14.5830   20.3391 O   0  0  0  0  0  0  0  0  0  0  0  0
   16.7759  -14.5214   18.3269 O   0  0  0  0  0  0  0  0  0  0  0  0
   10.8884  -16.8154   20.2498 N   0  0  0  0  0  0  0  0  0  0  0  0
    9.9765  -17.2427   21.3016 C   0  0  1  0  0  0  0  0  0  0  0  0
    9.7379  -18.7168   21.0777 C   0  0  0  0  0  0  0  0  0  0  0  0
    8.8100  -19.2935   22.0756 C   0  0  0  0  0  0  0  0  0  0  0  0
    9.2113  -20.1136   23.1089 C   0  0  0  0  0  0  0  0  0  0  0  0
    8.1187  -20.4548   23.8101 N   0  0  0  0  0  0  0  0  0  0  0  0
    7.0339  -19.8742   23.2508 C   0  0  0  0  0  0  0  0  0  0  0  0
    7.4806  -19.1776   22.2034 N   0  0  0  0  0  0  0  0  0  0  0  0
   10.4806  -16.9177   22.6427 C   0  0  0  0  0  0  0  0  0  0  0  0
   11.7205  -16.9358   22.8562 O   0  0  0  0  0  0  0  0  0  0  0  0
   10.3271  -14.8074   31.3332 O   0  0  0  0  0  0  0  0  0  0  0  0
   10.0264  -15.0257   30.0056 C   0  0  0  0  0  0  0  0  0  0  0  0
   10.2071  -13.9879   29.1021 C   0  0  0  0  0  0  0  0  0  0  0  0
    9.9148  -14.1750   27.7647 C   0  0  0  0  0  0  0  0  0  0  0  0
    9.4413  -15.3762   27.2838 C   0  0  0  0  0  0  0  0  0  0  0  0
    9.1175  -15.5647   25.8825 C   0  0  0  0  0  0  0  0  0  0  0  0
   10.1978  -16.2314   25.0683 C   0  0  2  0  0  0  0  0  0  0  0  0
    9.6631  -16.5746   23.7500 N   0  0  0  0  0  0  0  0  0  0  0  0
   10.7052  -17.3996   25.7711 C   0  0  0  0  0  0  0  0  0  0  0  0
   11.9158  -17.3925   26.4367 O   0  0  0  0  0  0  0  0  0  0  0  0
    9.2647  -16.4000   28.1855 C   0  0  0  0  0  0  0  0  0  0  0  0
    9.5530  -16.2331   29.5375 C   0  0  0  0  0  0  0  0  0  0  0  0
   10.0315  -18.4720   25.7852 O   0  0  0  0  0  0  0  0  0  0  0  0
  2  1  1  1
  2  3  1  0
  3  4  1  0
  5  4  1  0
  5  9  1  0
  6  5  2  0
  7  2  1  0
  8  7  2  0
 10  7  1  0
 11 10  1  0
 11 12  1  1
 13 12  1  0
 13 14  2  0
 15 14  1  0
 16 15  1  0
 17 16  2  0
 17 13  1  0
 18 11  1  0
 18 19  2  0
 21 22  2  0
 21 20  1  0
 23 22  1  0
 24 23  2  0
 25 24  1  0
 26 25  1  1
 26 27  1  0
 27 18  1  0
 28 26  1  0
 29 28  1  0
 30 24  1  0
 30 31  2  0
 31 21  1  0
 32 28  2  0
M  END
$$$$
