EHY.pdb
     RDKit          3D

 32 33  0  0  1  0  0  0  0  0999 V2000
    9.9600  -18.9311   20.5258 N   0  0  0  0  0  0  0  0  0  0  0  0
   11.0732  -18.0546   20.4512 C   0  0  1  0  0  0  0  0  0  0  0  0
   11.6347  -17.8480   19.0863 C   0  0  0  0  0  0  0  0  0  0  0  0
   10.6985  -17.9542   17.9342 C   0  0  0  0  0  0  0  0  0  0  0  0
   11.2317  -17.7398   16.5948 C   0  0  0  0  0  0  0  0  0  0  0  0
   12.4302  -17.4611   16.4073 O   0  0  0  0  0  0  0  0  0  0  0  0
   10.7825  -16.6768   20.9946 C   0  0  0  0  0  0  0  0  0  0  0  0
   11.7583  -15.8816   21.0053 O   0  0  0  0  0  0  0  0  0  0  0  0
   10.3747  -17.8487   15.4767 O   0  0  0  0  0  0  0  0  0  0  0  0
    9.5217  -16.2629   21.4693 N   0  0  0  0  0  0  0  0  0  0  0  0
    9.2726  -14.9360   22.0151 C   0  0  1  0  0  0  0  0  0  0  0  0
    7.9369  -14.4986   21.4632 C   0  0  0  0  0  0  0  0  0  0  0  0
    8.0152  -14.1244   20.0338 C   0  0  0  0  0  0  0  0  0  0  0  0
    9.1708  -14.2003   19.2854 C   0  0  0  0  0  0  0  0  0  0  0  0
    8.8834  -13.7815   18.0429 N   0  0  0  0  0  0  0  0  0  0  0  0
    7.5768  -13.4414   17.9809 C   0  0  0  0  0  0  0  0  0  0  0  0
    7.0755  -13.6586   19.1988 N   0  0  0  0  0  0  0  0  0  0  0  0
    9.3475  -14.9134   23.4820 C   0  0  0  0  0  0  0  0  0  0  0  0
    9.0493  -13.8577   24.0983 O   0  0  0  0  0  0  0  0  0  0  0  0
    5.7930  -10.9920   26.8759 O   0  0  0  0  0  0  0  0  0  0  0  0
    6.3170  -12.2457   26.6434 C   0  0  0  0  0  0  0  0  0  0  0  0
    7.4041  -12.6640   27.3979 C   0  0  0  0  0  0  0  0  0  0  0  0
    7.9522  -13.9150   27.1888 C   0  0  0  0  0  0  0  0  0  0  0  0
    7.4511  -14.7806   26.2411 C   0  0  0  0  0  0  0  0  0  0  0  0
    8.0397  -16.0861   26.0105 C   0  0  0  0  0  0  0  0  0  0  0  0
    9.5219  -16.0709   25.7325 C   0  0  2  0  0  0  0  0  0  0  0  0
    9.7390  -16.0143   24.2864 N   0  0  0  0  0  0  0  0  0  0  0  0
   10.1557  -17.2343   26.3332 C   0  0  0  0  0  0  0  0  0  0  0  0
   10.2770  -17.3849   27.7010 O   0  0  0  0  0  0  0  0  0  0  0  0
    6.3736  -14.3587   25.4971 C   0  0  0  0  0  0  0  0  0  0  0  0
    5.8059  -13.1023   25.6914 C   0  0  0  0  0  0  0  0  0  0  0  0
   10.6213  -18.1529   25.5959 O   0  0  0  0  0  0  0  0  0  0  0  0
  2  1  1  6
  2  3  1  0
  3  4  1  0
  5  4  1  0
  5  9  1  0
  6  5  2  0
  7  2  1  0
  8  7  2  0
 10  7  1  0
 11 10  1  0
 11 12  1  1
 13 12  1  0
 13 14  2  0
 15 14  1  0
 16 15  1  0
 17 16  2  0
 17 13  1  0
 18 11  1  0
 18 19  2  0
 21 22  2  0
 21 20  1  0
 23 22  1  0
 24 23  2  0
 25 24  1  0
 26 25  1  6
 26 27  1  0
 27 18  1  0
 28 26  1  0
 29 28  1  0
 30 24  1  0
 30 31  2  0
 31 21  1  0
 32 28  2  0
M  END
$$$$
