EHY.pdb
     RDKit          3D

 32 33  0  0  1  0  0  0  0  0999 V2000
   10.9004  -17.5933   18.2272 N   0  0  0  0  0  0  0  0  0  0  0  0
   10.6471  -17.9875   19.5663 C   0  0  1  0  0  0  0  0  0  0  0  0
   11.7269  -18.7850   20.2138 C   0  0  0  0  0  0  0  0  0  0  0  0
   12.0392  -20.1191   19.6326 C   0  0  0  0  0  0  0  0  0  0  0  0
   11.4920  -21.2991   20.2903 C   0  0  0  0  0  0  0  0  0  0  0  0
   11.7004  -21.5289   21.4957 O   0  0  0  0  0  0  0  0  0  0  0  0
   10.3799  -16.8230   20.4885 C   0  0  0  0  0  0  0  0  0  0  0  0
   11.3969  -16.1790   20.8569 O   0  0  0  0  0  0  0  0  0  0  0  0
   10.7053  -22.2093   19.5494 O   0  0  0  0  0  0  0  0  0  0  0  0
    9.0976  -16.4443   20.9343 N   0  0  0  0  0  0  0  0  0  0  0  0
    8.8587  -15.2809   21.7768 C   0  0  1  0  0  0  0  0  0  0  0  0
    7.6008  -14.6322   21.2506 C   0  0  0  0  0  0  0  0  0  0  0  0
    7.7340  -14.2127   19.8379 C   0  0  0  0  0  0  0  0  0  0  0  0
    8.2151  -12.9808   19.4479 C   0  0  0  0  0  0  0  0  0  0  0  0
    8.1932  -12.9376   18.1064 N   0  0  0  0  0  0  0  0  0  0  0  0
    7.7112  -14.1081   17.6330 C   0  0  0  0  0  0  0  0  0  0  0  0
    7.4413  -14.8611   18.7017 N   0  0  0  0  0  0  0  0  0  0  0  0
    8.7983  -15.6282   23.2029 C   0  0  0  0  0  0  0  0  0  0  0  0
    8.1521  -16.6461   23.5626 O   0  0  0  0  0  0  0  0  0  0  0  0
    5.6806  -10.2238   27.2442 O   0  0  0  0  0  0  0  0  0  0  0  0
    6.1866  -11.4737   26.9575 C   0  0  0  0  0  0  0  0  0  0  0  0
    7.5620  -11.6288   26.8566 C   0  0  0  0  0  0  0  0  0  0  0  0
    8.1002  -12.8687   26.5703 C   0  0  0  0  0  0  0  0  0  0  0  0
    7.3082  -13.9795   26.3772 C   0  0  0  0  0  0  0  0  0  0  0  0
    7.8743  -15.2763   26.0584 C   0  0  0  0  0  0  0  0  0  0  0  0
    9.3272  -15.2497   25.6549 C   0  0  2  0  0  0  0  0  0  0  0  0
    9.4262  -14.8910   24.2395 N   0  0  0  0  0  0  0  0  0  0  0  0
    9.9482  -16.5349   25.9356 C   0  0  0  0  0  0  0  0  0  0  0  0
    9.9939  -17.0702   27.2083 O   0  0  0  0  0  0  0  0  0  0  0  0
    5.9458  -13.8178   26.4787 C   0  0  0  0  0  0  0  0  0  0  0  0
    5.3824  -12.5774   26.7664 C   0  0  0  0  0  0  0  0  0  0  0  0
   10.4731  -17.2030   24.9964 O   0  0  0  0  0  0  0  0  0  0  0  0
  2  1  1  6
  2  3  1  0
  3  4  1  0
  5  4  1  0
  5  9  1  0
  6  5  2  0
  7  2  1  0
  8  7  2  0
 10  7  1  0
 11 10  1  0
 11 12  1  6
 13 12  1  0
 13 14  2  0
 15 14  1  0
 16 15  1  0
 17 16  2  0
 17 13  1  0
 18 11  1  0
 18 19  2  0
 21 22  2  0
 21 20  1  0
 23 22  1  0
 24 23  2  0
 25 24  1  0
 26 25  1  6
 26 27  1  0
 27 18  1  0
 28 26  1  0
 29 28  1  0
 30 24  1  0
 30 31  2  0
 31 21  1  0
 32 28  2  0
M  END
$$$$
