EHY.pdb
     RDKit          3D

 32 33  0  0  1  0  0  0  0  0999 V2000
   10.1855  -20.2133   21.4902 N   0  0  0  0  0  0  0  0  0  0  0  0
   10.9847  -19.4789   20.5766 C   0  0  1  0  0  0  0  0  0  0  0  0
   10.5096  -19.4829   19.1640 C   0  0  0  0  0  0  0  0  0  0  0  0
    9.1574  -18.9237   18.8916 C   0  0  0  0  0  0  0  0  0  0  0  0
    8.6817  -18.9191   17.5139 C   0  0  0  0  0  0  0  0  0  0  0  0
    8.8736  -17.9464   16.7614 O   0  0  0  0  0  0  0  0  0  0  0  0
   11.1425  -18.0272   20.9583 C   0  0  0  0  0  0  0  0  0  0  0  0
   11.8796  -17.3445   20.1998 O   0  0  0  0  0  0  0  0  0  0  0  0
    7.9849  -20.0412   17.0124 O   0  0  0  0  0  0  0  0  0  0  0  0
   10.5273  -17.4317   22.0779 N   0  0  0  0  0  0  0  0  0  0  0  0
   10.6983  -16.0286   22.4281 C   0  0  1  0  0  0  0  0  0  0  0  0
    9.3691  -15.5674   22.9762 C   0  0  0  0  0  0  0  0  0  0  0  0
    8.4235  -15.1818   21.9055 C   0  0  0  0  0  0  0  0  0  0  0  0
    8.7100  -15.2795   20.5602 C   0  0  0  0  0  0  0  0  0  0  0  0
    7.6389  -14.8419   19.8797 N   0  0  0  0  0  0  0  0  0  0  0  0
    6.6794  -14.4687   20.7553 C   0  0  0  0  0  0  0  0  0  0  0  0
    7.1803  -14.6847   21.9737 N   0  0  0  0  0  0  0  0  0  0  0  0
   11.8268  -15.8162   23.3444 C   0  0  0  0  0  0  0  0  0  0  0  0
   12.5739  -14.8172   23.1808 O   0  0  0  0  0  0  0  0  0  0  0  0
    9.3397  -15.6991   30.3756 O   0  0  0  0  0  0  0  0  0  0  0  0
   10.2493  -15.5412   29.3519 C   0  0  0  0  0  0  0  0  0  0  0  0
    9.8830  -15.9257   28.0697 C   0  0  0  0  0  0  0  0  0  0  0  0
   10.7722  -15.7803   27.0222 C   0  0  0  0  0  0  0  0  0  0  0  0
   12.0339  -15.2578   27.2051 C   0  0  0  0  0  0  0  0  0  0  0  0
   12.9724  -15.1232   26.1074 C   0  0  0  0  0  0  0  0  0  0  0  0
   13.2552  -16.4008   25.3575 C   0  0  2  0  0  0  0  0  0  0  0  0
   12.1546  -16.6676   24.4306 N   0  0  0  0  0  0  0  0  0  0  0  0
   13.4567  -17.4962   26.2932 C   0  0  0  0  0  0  0  0  0  0  0  0
   12.6698  -18.6316   26.2810 O   0  0  0  0  0  0  0  0  0  0  0  0
   12.3897  -14.8790   28.4789 C   0  0  0  0  0  0  0  0  0  0  0  0
   11.5093  -15.0168   29.5487 C   0  0  0  0  0  0  0  0  0  0  0  0
   14.3786  -17.4277   27.1590 O   0  0  0  0  0  0  0  0  0  0  0  0
  2  1  1  1
  2  3  1  0
  3  4  1  0
  5  4  1  0
  5  9  1  0
  6  5  2  0
  7  2  1  0
  8  7  2  0
 10  7  1  0
 11 10  1  0
 11 12  1  1
 13 12  1  0
 13 14  2  0
 15 14  1  0
 16 15  1  0
 17 16  2  0
 17 13  1  0
 18 11  1  0
 18 19  2  0
 21 22  2  0
 21 20  1  0
 23 22  1  0
 24 23  2  0
 25 24  1  0
 26 25  1  1
 26 27  1  0
 27 18  1  0
 28 26  1  0
 29 28  1  0
 30 24  1  0
 30 31  2  0
 31 21  1  0
 32 28  2  0
M  END
$$$$
