EHY.pdb
     RDKit          3D

 32 33  0  0  1  0  0  0  0  0999 V2000
   12.7726  -17.9071   18.4203 N   0  0  0  0  0  0  0  0  0  0  0  0
   12.6176  -18.5184   19.6912 C   0  0  1  0  0  0  0  0  0  0  0  0
   13.7468  -18.3135   20.6419 C   0  0  0  0  0  0  0  0  0  0  0  0
   13.8028  -17.0189   21.3743 C   0  0  0  0  0  0  0  0  0  0  0  0
   14.9065  -16.8023   22.3013 C   0  0  0  0  0  0  0  0  0  0  0  0
   15.7900  -17.6617   22.4750 O   0  0  0  0  0  0  0  0  0  0  0  0
   11.3740  -18.0694   20.4192 C   0  0  0  0  0  0  0  0  0  0  0  0
   10.9172  -16.9492   20.0713 O   0  0  0  0  0  0  0  0  0  0  0  0
   14.9831  -15.5908   23.0243 O   0  0  0  0  0  0  0  0  0  0  0  0
   10.7327  -18.8180   21.4265 N   0  0  0  0  0  0  0  0  0  0  0  0
    9.3841  -18.5314   21.8951 C   0  0  1  0  0  0  0  0  0  0  0  0
    8.7994  -19.8547   22.3273 C   0  0  0  0  0  0  0  0  0  0  0  0
    8.0600  -20.5255   21.2351 C   0  0  0  0  0  0  0  0  0  0  0  0
    7.9351  -20.0056   19.9641 C   0  0  0  0  0  0  0  0  0  0  0  0
    7.2022  -20.8653   19.2392 N   0  0  0  0  0  0  0  0  0  0  0  0
    6.8576  -21.9174   20.0145 C   0  0  0  0  0  0  0  0  0  0  0  0
    7.3895  -21.6862   21.2168 N   0  0  0  0  0  0  0  0  0  0  0  0
    9.3649  -17.5011   22.9421 C   0  0  0  0  0  0  0  0  0  0  0  0
   10.3010  -17.4579   23.7817 O   0  0  0  0  0  0  0  0  0  0  0  0
    6.6072  -10.5737   27.8704 O   0  0  0  0  0  0  0  0  0  0  0  0
    6.7385  -11.5616   26.9179 C   0  0  0  0  0  0  0  0  0  0  0  0
    7.7388  -11.4386   25.9639 C   0  0  0  0  0  0  0  0  0  0  0  0
    7.8962  -12.4119   24.9958 C   0  0  0  0  0  0  0  0  0  0  0  0
    7.0820  -13.5220   24.9399 C   0  0  0  0  0  0  0  0  0  0  0  0
    7.2372  -14.5331   23.9116 C   0  0  0  0  0  0  0  0  0  0  0  0
    8.3427  -15.5272   24.1644 C   0  0  2  0  0  0  0  0  0  0  0  0
    8.3499  -16.5213   23.0904 N   0  0  0  0  0  0  0  0  0  0  0  0
    8.1748  -16.1405   25.4728 C   0  0  0  0  0  0  0  0  0  0  0  0
    8.8804  -15.7171   26.5824 O   0  0  0  0  0  0  0  0  0  0  0  0
    6.0927  -13.6366   25.8889 C   0  0  0  0  0  0  0  0  0  0  0  0
    5.9165  -12.6678   26.8732 C   0  0  0  0  0  0  0  0  0  0  0  0
    7.3601  -17.0985   25.6231 O   0  0  0  0  0  0  0  0  0  0  0  0
  2  1  1  6
  2  3  1  0
  3  4  1  0
  5  4  1  0
  5  9  1  0
  6  5  2  0
  7  2  1  0
  8  7  2  0
 10  7  1  0
 11 10  1  0
 11 12  1  1
 13 12  1  0
 13 14  2  0
 15 14  1  0
 16 15  1  0
 17 16  2  0
 17 13  1  0
 18 11  1  0
 18 19  2  0
 21 22  2  0
 21 20  1  0
 23 22  1  0
 24 23  2  0
 25 24  1  0
 26 25  1  6
 26 27  1  0
 27 18  1  0
 28 26  1  0
 29 28  1  0
 30 24  1  0
 30 31  2  0
 31 21  1  0
 32 28  2  0
M  END
$$$$
