EHY.pdb
     RDKit          3D

 32 33  0  0  1  0  0  0  0  0999 V2000
   11.4791  -17.3629   19.3482 N   0  0  0  0  0  0  0  0  0  0  0  0
   10.6503  -16.2174   19.4653 C   0  0  1  0  0  0  0  0  0  0  0  0
    9.9134  -15.8314   18.2288 C   0  0  0  0  0  0  0  0  0  0  0  0
   10.5206  -16.2040   16.9219 C   0  0  0  0  0  0  0  0  0  0  0  0
    9.9053  -15.6852   15.7067 C   0  0  0  0  0  0  0  0  0  0  0  0
    8.9070  -14.9429   15.7474 O   0  0  0  0  0  0  0  0  0  0  0  0
    9.6068  -16.3469   20.5482 C   0  0  0  0  0  0  0  0  0  0  0  0
    8.8268  -15.3662   20.6690 O   0  0  0  0  0  0  0  0  0  0  0  0
   10.4482  -16.0282   14.4483 O   0  0  0  0  0  0  0  0  0  0  0  0
    9.4759  -17.4687   21.3913 N   0  0  0  0  0  0  0  0  0  0  0  0
    8.4860  -17.5535   22.4559 C   0  0  1  0  0  0  0  0  0  0  0  0
    7.9581  -18.9679   22.4271 C   0  0  0  0  0  0  0  0  0  0  0  0
    7.0872  -19.2186   21.2575 C   0  0  0  0  0  0  0  0  0  0  0  0
    6.7123  -18.2416   20.3596 C   0  0  0  0  0  0  0  0  0  0  0  0
    5.9230  -18.8135   19.4367 N   0  0  0  0  0  0  0  0  0  0  0  0
    5.7857  -20.1271   19.7233 C   0  0  0  0  0  0  0  0  0  0  0  0
    6.5001  -20.3453   20.8296 N   0  0  0  0  0  0  0  0  0  0  0  0
    9.0314  -17.1474   23.7581 C   0  0  0  0  0  0  0  0  0  0  0  0
   10.2788  -17.0925   23.9138 O   0  0  0  0  0  0  0  0  0  0  0  0
    6.6668  -10.6661   24.6119 O   0  0  0  0  0  0  0  0  0  0  0  0
    6.9910  -11.8743   25.1912 C   0  0  0  0  0  0  0  0  0  0  0  0
    6.0059  -12.8454   25.3028 C   0  0  0  0  0  0  0  0  0  0  0  0
    6.2992  -14.0667   25.8787 C   0  0  0  0  0  0  0  0  0  0  0  0
    7.5571  -14.3635   26.3561 C   0  0  0  0  0  0  0  0  0  0  0  0
    7.8579  -15.6393   26.9771 C   0  0  0  0  0  0  0  0  0  0  0  0
    8.8177  -16.5081   26.2036 C   0  0  2  0  0  0  0  0  0  0  0  0
    8.2471  -16.8013   24.8882 N   0  0  0  0  0  0  0  0  0  0  0  0
    9.1104  -17.7203   26.9525 C   0  0  0  0  0  0  0  0  0  0  0  0
    8.7686  -18.9756   26.4879 O   0  0  0  0  0  0  0  0  0  0  0  0
    8.5281  -13.3957   26.2421 C   0  0  0  0  0  0  0  0  0  0  0  0
    8.2542  -12.1585   25.6652 C   0  0  0  0  0  0  0  0  0  0  0  0
    9.6969  -17.6463   28.0726 O   0  0  0  0  0  0  0  0  0  0  0  0
  2  1  1  6
  2  3  1  0
  3  4  1  0
  5  4  1  0
  5  9  1  0
  6  5  2  0
  7  2  1  0
  8  7  2  0
 10  7  1  0
 11 10  1  0
 11 12  1  1
 13 12  1  0
 13 14  2  0
 15 14  1  0
 16 15  1  0
 17 16  2  0
 17 13  1  0
 18 11  1  0
 18 19  2  0
 21 22  2  0
 21 20  1  0
 23 22  1  0
 24 23  2  0
 25 24  1  0
 26 25  1  1
 26 27  1  0
 27 18  1  0
 28 26  1  0
 29 28  1  0
 30 24  1  0
 30 31  2  0
 31 21  1  0
 32 28  2  0
M  END
$$$$
