EHY.pdb
     RDKit          3D

 32 33  0  0  1  0  0  0  0  0999 V2000
   12.0058  -20.3654   19.7200 N   0  0  0  0  0  0  0  0  0  0  0  0
   12.7912  -19.2225   19.4206 C   0  0  1  0  0  0  0  0  0  0  0  0
   13.0899  -19.0118   17.9758 C   0  0  0  0  0  0  0  0  0  0  0  0
   13.9582  -17.8582   17.6142 C   0  0  0  0  0  0  0  0  0  0  0  0
   15.2180  -18.1341   16.9352 C   0  0  0  0  0  0  0  0  0  0  0  0
   15.2554  -18.4361   15.7283 O   0  0  0  0  0  0  0  0  0  0  0  0
   12.1767  -17.9339   19.9107 C   0  0  0  0  0  0  0  0  0  0  0  0
   12.9929  -17.0574   20.2983 O   0  0  0  0  0  0  0  0  0  0  0  0
   16.4306  -18.0594   17.6566 O   0  0  0  0  0  0  0  0  0  0  0  0
   10.7904  -17.6831   19.9508 N   0  0  0  0  0  0  0  0  0  0  0  0
   10.2153  -16.4808   20.5377 C   0  0  1  0  0  0  0  0  0  0  0  0
    8.9591  -16.1894   19.7523 C   0  0  0  0  0  0  0  0  0  0  0  0
    8.2703  -14.9689   20.2271 C   0  0  0  0  0  0  0  0  0  0  0  0
    8.4061  -13.7330   19.6309 C   0  0  0  0  0  0  0  0  0  0  0  0
    7.6527  -12.8605   20.3187 N   0  0  0  0  0  0  0  0  0  0  0  0
    7.0418  -13.5078   21.3358 C   0  0  0  0  0  0  0  0  0  0  0  0
    7.4329  -14.7817   21.2571 N   0  0  0  0  0  0  0  0  0  0  0  0
    9.9959  -16.6164   21.9839 C   0  0  0  0  0  0  0  0  0  0  0  0
    9.5813  -17.7115   22.4444 O   0  0  0  0  0  0  0  0  0  0  0  0
    9.6617  -14.7075   30.6732 O   0  0  0  0  0  0  0  0  0  0  0  0
    9.8615  -14.6759   29.3095 C   0  0  0  0  0  0  0  0  0  0  0  0
    9.1335  -13.7707   28.5502 C   0  0  0  0  0  0  0  0  0  0  0  0
    9.3109  -13.7145   27.1811 C   0  0  0  0  0  0  0  0  0  0  0  0
   10.2005  -14.5389   26.5274 C   0  0  0  0  0  0  0  0  0  0  0  0
   10.3716  -14.4910   25.0879 C   0  0  0  0  0  0  0  0  0  0  0  0
    9.8871  -15.7155   24.3527 C   0  0  2  0  0  0  0  0  0  0  0  0
   10.2191  -15.5864   22.9333 N   0  0  0  0  0  0  0  0  0  0  0  0
    8.4589  -15.8936   24.5639 C   0  0  0  0  0  0  0  0  0  0  0  0
    7.9559  -16.6927   25.5723 O   0  0  0  0  0  0  0  0  0  0  0  0
   10.9184  -15.4336   27.2870 C   0  0  0  0  0  0  0  0  0  0  0  0
   10.7553  -15.5069   28.6678 C   0  0  0  0  0  0  0  0  0  0  0  0
    7.6292  -15.3067   23.8081 O   0  0  0  0  0  0  0  0  0  0  0  0
  2  1  1  6
  2  3  1  0
  3  4  1  0
  5  4  1  0
  5  9  1  0
  6  5  2  0
  7  2  1  0
  8  7  2  0
 10  7  1  0
 11 10  1  0
 11 12  1  6
 13 12  1  0
 13 14  2  0
 15 14  1  0
 16 15  1  0
 17 16  2  0
 17 13  1  0
 18 11  1  0
 18 19  2  0
 21 22  2  0
 21 20  1  0
 23 22  1  0
 24 23  2  0
 25 24  1  0
 26 25  1  1
 26 27  1  0
 27 18  1  0
 28 26  1  0
 29 28  1  0
 30 24  1  0
 30 31  2  0
 31 21  1  0
 32 28  2  0
M  END
$$$$
