QTN.pdb
     RDKit          3D

 25 24  0  0  1  0  0  0  0  0999 V2000
   42.0026  -12.6326  -10.6495 N   0  0  0  0  0  0  0  0  0  0  0  0
   42.9531  -13.6916  -10.5349 C   0  0  0  0  0  0  0  0  0  0  0  0
   43.2140  -14.3759  -11.5498 O   0  0  0  0  0  0  0  0  0  0  0  0
   43.5680  -13.9061   -9.2142 C   0  0  0  0  0  0  0  0  0  0  0  0
   43.1620  -12.9147   -8.1634 C   0  0  0  0  0  0  0  0  0  0  0  0
   44.2064  -11.8770   -7.9219 C   0  0  2  0  0  0  0  0  0  0  0  0
   45.3717  -12.4528   -7.2390 N   0  0  0  0  0  0  0  0  0  0  0  0
   43.6834  -10.7084   -7.1590 C   0  0  0  0  0  0  0  0  0  0  0  0
   43.4075  -10.8701   -5.9429 O   0  0  0  0  0  0  0  0  0  0  0  0
   45.2605   -7.4712   -6.3430 C   0  0  0  0  0  0  0  0  0  0  0  0
   43.9727   -7.1476   -7.0338 C   0  0  1  0  0  0  0  0  0  0  0  0
   44.2591   -7.0361   -8.4254 O   0  0  0  0  0  0  0  0  0  0  0  0
   42.9633   -8.2981   -6.9196 C   0  0  2  0  0  0  0  0  0  0  0  0
   43.4750   -9.4253   -7.7101 N   0  0  0  0  0  0  0  0  0  0  0  0
   41.6782   -7.8372   -7.4846 C   0  0  0  0  0  0  0  0  0  0  0  0
   41.3723   -8.1043   -8.7080 O   0  0  0  0  0  0  0  0  0  0  0  0
   36.0961   -6.7467   -6.6561 N   0  0  0  0  0  0  0  0  0  0  0  0
   37.1988   -5.8181   -6.6624 C   0  0  0  0  0  0  0  0  0  0  0  0
   36.9317   -4.6488   -6.9849 O   0  0  0  0  0  0  0  0  0  0  0  0
   38.5299   -6.2763   -6.3035 C   0  0  0  0  0  0  0  0  0  0  0  0
   39.4014   -6.7276   -7.4531 C   0  0  2  0  0  0  0  0  0  0  0  0
   40.6869   -7.0995   -6.8014 N   0  0  0  0  0  0  0  0  0  0  0  0
   39.6383   -5.5731   -8.3435 C   0  0  0  0  0  0  0  0  0  0  0  0
   40.5299   -4.7503   -8.0431 O   0  0  0  0  0  0  0  0  0  0  0  0
   38.9087   -5.3864   -9.4831 O   0  0  0  0  0  0  0  0  0  0  0  0
  2  1  1  0
  2  3  2  0
  4  2  1  0
  5  4  1  0
  6  7  1  1
  6  5  1  0
  8  6  1  0
  9  8  2  0
 11 10  1  1
 11 13  1  0
 11 12  1  0
 13 14  1  6
 14  8  1  0
 15 22  1  0
 15 13  1  0
 16 15  2  0
 18 17  1  0
 19 18  2  0
 20 18  1  0
 21 20  1  1
 21 22  1  0
 23 21  1  0
 23 25  1  0
 24 23  2  0
M  END
$$$$
