QTN.pdb
     RDKit          3D

 25 24  0  0  1  0  0  0  0  0999 V2000
   17.6462  -15.3300  -14.6446 N   0  0  0  0  0  0  0  0  0  0  0  0
   16.3389  -14.7868  -14.4596 C   0  0  0  0  0  0  0  0  0  0  0  0
   15.4805  -15.4784  -13.8669 O   0  0  0  0  0  0  0  0  0  0  0  0
   16.0900  -13.4339  -14.9848 C   0  0  0  0  0  0  0  0  0  0  0  0
   17.2458  -12.8234  -15.7220 C   0  0  0  0  0  0  0  0  0  0  0  0
   16.8291  -12.1637  -16.9936 C   0  0  2  0  0  0  0  0  0  0  0  0
   16.7030  -13.1453  -18.0783 N   0  0  0  0  0  0  0  0  0  0  0  0
   17.7516  -11.0639  -17.3942 C   0  0  0  0  0  0  0  0  0  0  0  0
   18.7754  -11.3624  -18.0607 O   0  0  0  0  0  0  0  0  0  0  0  0
   17.6168   -8.4353  -19.7984 C   0  0  0  0  0  0  0  0  0  0  0  0
   17.8129   -7.7434  -18.4857 C   0  0  1  0  0  0  0  0  0  0  0  0
   16.5180   -7.4916  -17.9463 O   0  0  0  0  0  0  0  0  0  0  0  0
   18.5069   -8.6535  -17.4631 C   0  0  2  0  0  0  0  0  0  0  0  0
   17.5547   -9.7026  -17.0757 N   0  0  0  0  0  0  0  0  0  0  0  0
   18.8526   -7.8350  -16.2825 C   0  0  0  0  0  0  0  0  0  0  0  0
   18.0681   -7.8037  -15.2602 O   0  0  0  0  0  0  0  0  0  0  0  0
   21.2791   -4.4435  -12.9713 N   0  0  0  0  0  0  0  0  0  0  0  0
   22.2142   -5.1458  -13.8144 C   0  0  0  0  0  0  0  0  0  0  0  0
   23.4185   -4.9470  -13.5851 O   0  0  0  0  0  0  0  0  0  0  0  0
   21.7222   -6.0256  -14.8606 C   0  0  0  0  0  0  0  0  0  0  0  0
   20.2208   -6.1859  -14.9319 C   0  0  2  0  0  0  0  0  0  0  0  0
   20.0101   -7.0406  -16.1322 N   0  0  0  0  0  0  0  0  0  0  0  0
   19.6190   -4.8604  -15.1827 C   0  0  0  0  0  0  0  0  0  0  0  0
   19.5496   -4.4400  -16.3577 O   0  0  0  0  0  0  0  0  0  0  0  0
   19.1379   -4.0884  -14.1637 O   0  0  0  0  0  0  0  0  0  0  0  0
  2  1  1  0
  2  3  2  0
  4  2  1  0
  5  4  1  0
  6  7  1  6
  6  5  1  0
  8  6  1  0
  9  8  2  0
 11 10  1  6
 11 13  1  0
 11 12  1  0
 13 14  1  1
 14  8  1  0
 15 22  1  0
 15 13  1  0
 16 15  2  0
 18 17  1  0
 19 18  2  0
 20 18  1  0
 21 20  1  6
 21 22  1  0
 23 21  1  0
 23 25  1  0
 24 23  2  0
M  END
$$$$
