QTN.pdb
     RDKit          3D

 25 24  0  0  1  0  0  0  0  0999 V2000
   27.2379  -16.0751  -14.8600 N   0  0  0  0  0  0  0  0  0  0  0  0
   26.5976  -16.8525  -15.8719 C   0  0  0  0  0  0  0  0  0  0  0  0
   25.3594  -16.7435  -16.0183 O   0  0  0  0  0  0  0  0  0  0  0  0
   27.4501  -17.7379  -16.6828 C   0  0  0  0  0  0  0  0  0  0  0  0
   27.1056  -19.1958  -16.5942 C   0  0  0  0  0  0  0  0  0  0  0  0
   27.4418  -19.7833  -15.2647 C   0  0  2  0  0  0  0  0  0  0  0  0
   28.7165  -20.5101  -15.3181 N   0  0  0  0  0  0  0  0  0  0  0  0
   26.3620  -20.6680  -14.7428 C   0  0  0  0  0  0  0  0  0  0  0  0
   26.1701  -21.7704  -15.3165 O   0  0  0  0  0  0  0  0  0  0  0  0
   25.9197  -21.8066  -11.1870 C   0  0  0  0  0  0  0  0  0  0  0  0
   24.5762  -21.3205  -11.6337 C   0  0  1  0  0  0  0  0  0  0  0  0
   24.4482  -19.9726  -11.1888 O   0  0  0  0  0  0  0  0  0  0  0  0
   24.4777  -21.2526  -13.1637 C   0  0  2  0  0  0  0  0  0  0  0  0
   25.5349  -20.3525  -13.6428 N   0  0  0  0  0  0  0  0  0  0  0  0
   23.1545  -20.6955  -13.5128 C   0  0  0  0  0  0  0  0  0  0  0  0
   23.0662  -19.6357  -14.2411 O   0  0  0  0  0  0  0  0  0  0  0  0
   18.3758  -20.2876  -15.3682 N   0  0  0  0  0  0  0  0  0  0  0  0
   19.5047  -20.9689  -15.9510 C   0  0  0  0  0  0  0  0  0  0  0  0
   19.3824  -21.3229  -17.1351 O   0  0  0  0  0  0  0  0  0  0  0  0
   20.6960  -21.2038  -15.1533 C   0  0  0  0  0  0  0  0  0  0  0  0
   20.6302  -20.7303  -13.7193 C   0  0  2  0  0  0  0  0  0  0  0  0
   21.9029  -21.2204  -13.1232 N   0  0  0  0  0  0  0  0  0  0  0  0
   19.5016  -21.4106  -13.0521 C   0  0  0  0  0  0  0  0  0  0  0  0
   19.5822  -22.6375  -12.8275 O   0  0  0  0  0  0  0  0  0  0  0  0
   18.3778  -20.7315  -12.6756 O   0  0  0  0  0  0  0  0  0  0  0  0
  2  1  1  0
  2  3  2  0
  4  2  1  0
  5  4  1  0
  6  7  1  6
  6  5  1  0
  8  6  1  0
  9  8  2  0
 11 10  1  6
 11 13  1  0
 11 12  1  0
 13 14  1  1
 14  8  1  0
 15 22  1  0
 15 13  1  0
 16 15  2  0
 18 17  1  0
 19 18  2  0
 20 18  1  0
 21 20  1  6
 21 22  1  0
 23 21  1  0
 23 25  1  0
 24 23  2  0
M  END
$$$$
