QTN.pdb
     RDKit          3D

 25 24  0  0  1  0  0  0  0  0999 V2000
   27.0469  -23.5833  -20.3985 N   0  0  0  0  0  0  0  0  0  0  0  0
   27.5044  -22.2764  -20.7460 C   0  0  0  0  0  0  0  0  0  0  0  0
   27.2791  -21.8493  -21.9007 O   0  0  0  0  0  0  0  0  0  0  0  0
   28.2173  -21.5131  -19.7080 C   0  0  0  0  0  0  0  0  0  0  0  0
   28.4364  -22.2545  -18.4218 C   0  0  0  0  0  0  0  0  0  0  0  0
   27.2515  -22.1933  -17.5173 C   0  0  2  0  0  0  0  0  0  0  0  0
   26.2349  -21.2740  -18.0439 N   0  0  0  0  0  0  0  0  0  0  0  0
   27.6178  -21.8173  -16.1224 C   0  0  0  0  0  0  0  0  0  0  0  0
   28.5932  -22.4035  -15.5874 O   0  0  0  0  0  0  0  0  0  0  0  0
   29.4720  -19.4963  -14.6343 C   0  0  0  0  0  0  0  0  0  0  0  0
   28.1567  -19.2772  -13.9542 C   0  0  1  0  0  0  0  0  0  0  0  0
   27.4333  -18.3292  -14.7346 O   0  0  0  0  0  0  0  0  0  0  0  0
   27.2960  -20.5478  -13.9613 C   0  0  2  0  0  0  0  0  0  0  0  0
   26.9419  -20.8432  -15.3559 N   0  0  0  0  0  0  0  0  0  0  0  0
   26.0695  -20.2741  -13.1841 C   0  0  0  0  0  0  0  0  0  0  0  0
   25.1409  -19.5275  -13.6755 O   0  0  0  0  0  0  0  0  0  0  0  0
   21.8521  -20.0985  -10.3021 N   0  0  0  0  0  0  0  0  0  0  0  0
   22.0823  -20.8821  -11.4901 C   0  0  0  0  0  0  0  0  0  0  0  0
   21.0803  -21.3978  -12.0118 O   0  0  0  0  0  0  0  0  0  0  0  0
   23.4322  -21.0291  -12.0069 C   0  0  0  0  0  0  0  0  0  0  0  0
   24.5252  -20.3916  -11.1799 C   0  0  2  0  0  0  0  0  0  0  0  0
   25.7766  -20.7661  -11.8935 N   0  0  0  0  0  0  0  0  0  0  0  0
   24.5332  -21.0247   -9.8453 C   0  0  0  0  0  0  0  0  0  0  0  0
   23.5887  -20.7932   -9.0602 O   0  0  0  0  0  0  0  0  0  0  0  0
   25.5447  -21.8546   -9.4528 O   0  0  0  0  0  0  0  0  0  0  0  0
  2  1  1  0
  2  3  2  0
  4  2  1  0
  5  4  1  0
  6  7  1  6
  6  5  1  0
  8  6  1  0
  9  8  2  0
 11 10  1  6
 11 13  1  0
 11 12  1  0
 13 14  1  6
 14  8  1  0
 15 22  1  0
 15 13  1  0
 16 15  2  0
 18 17  1  0
 19 18  2  0
 20 18  1  0
 21 20  1  6
 21 22  1  0
 23 21  1  0
 23 25  1  0
 24 23  2  0
M  END
$$$$
