QTN.pdb
     RDKit          3D

 25 24  0  0  1  0  0  0  0  0999 V2000
   25.9140  -21.1764   -8.6772 N   0  0  0  0  0  0  0  0  0  0  0  0
   24.5922  -21.1483   -9.2160 C   0  0  0  0  0  0  0  0  0  0  0  0
   23.6248  -21.3205   -8.4408 O   0  0  0  0  0  0  0  0  0  0  0  0
   24.4586  -20.9148  -10.6637 C   0  0  0  0  0  0  0  0  0  0  0  0
   25.7584  -20.8215  -11.4078 C   0  0  0  0  0  0  0  0  0  0  0  0
   25.6525  -21.3228  -12.8091 C   0  0  2  0  0  0  0  0  0  0  0  0
   26.8842  -22.0109  -13.2157 N   0  0  0  0  0  0  0  0  0  0  0  0
   25.3192  -20.2406  -13.7780 C   0  0  0  0  0  0  0  0  0  0  0  0
   26.1706  -19.3357  -13.9717 O   0  0  0  0  0  0  0  0  0  0  0  0
   25.2012  -20.2529  -17.2091 C   0  0  0  0  0  0  0  0  0  0  0  0
   23.8515  -19.7030  -16.8679 C   0  0  1  0  0  0  0  0  0  0  0  0
   22.9510  -20.8061  -16.8102 O   0  0  0  0  0  0  0  0  0  0  0  0
   23.8285  -19.0882  -15.4619 C   0  0  2  0  0  0  0  0  0  0  0  0
   24.1070  -20.1606  -14.4976 N   0  0  0  0  0  0  0  0  0  0  0  0
   22.4761  -18.5433  -15.2227 C   0  0  0  0  0  0  0  0  0  0  0  0
   21.6458  -19.1729  -14.4639 O   0  0  0  0  0  0  0  0  0  0  0  0
   19.1436  -13.4111  -16.1461 N   0  0  0  0  0  0  0  0  0  0  0  0
   19.3507  -14.7000  -15.5344 C   0  0  0  0  0  0  0  0  0  0  0  0
   18.4205  -15.1328  -14.8345 O   0  0  0  0  0  0  0  0  0  0  0  0
   20.5977  -15.4117  -15.7563 C   0  0  0  0  0  0  0  0  0  0  0  0
   20.5684  -16.8946  -15.4646 C   0  0  2  0  0  0  0  0  0  0  0  0
   21.9578  -17.3427  -15.7551 N   0  0  0  0  0  0  0  0  0  0  0  0
   19.6512  -17.5433  -16.4237 C   0  0  0  0  0  0  0  0  0  0  0  0
   20.0531  -17.7727  -17.5847 O   0  0  0  0  0  0  0  0  0  0  0  0
   18.3800  -17.8975  -16.0709 O   0  0  0  0  0  0  0  0  0  0  0  0
  2  1  1  0
  2  3  2  0
  4  2  1  0
  5  4  1  0
  6  7  1  6
  6  5  1  0
  8  6  1  0
  9  8  2  0
 11 10  1  1
 11 13  1  0
 11 12  1  0
 13 14  1  1
 14  8  1  0
 15 22  1  0
 15 13  1  0
 16 15  2  0
 18 17  1  0
 19 18  2  0
 20 18  1  0
 21 20  1  6
 21 22  1  0
 23 21  1  0
 23 25  1  0
 24 23  2  0
M  END
$$$$
