QTN.pdb
     RDKit          3D

 25 24  0  0  1  0  0  0  0  0999 V2000
   26.7086  -25.6563  -16.0224 N   0  0  0  0  0  0  0  0  0  0  0  0
   27.5605  -25.7778  -17.1616 C   0  0  0  0  0  0  0  0  0  0  0  0
   28.1201  -26.8763  -17.3776 O   0  0  0  0  0  0  0  0  0  0  0  0
   27.7218  -24.5876  -18.0134 C   0  0  0  0  0  0  0  0  0  0  0  0
   26.9297  -23.3902  -17.5767 C   0  0  0  0  0  0  0  0  0  0  0  0
   27.7959  -22.2238  -17.2376 C   0  0  2  0  0  0  0  0  0  0  0  0
   28.8300  -22.6017  -16.2661 N   0  0  0  0  0  0  0  0  0  0  0  0
   27.0132  -21.0593  -16.7352 C   0  0  0  0  0  0  0  0  0  0  0  0
   27.6276  -20.1580  -16.1095 O   0  0  0  0  0  0  0  0  0  0  0  0
   26.9317  -18.4376  -17.4582 C   0  0  0  0  0  0  0  0  0  0  0  0
   25.4401  -18.5515  -17.5126 C   0  0  1  0  0  0  0  0  0  0  0  0
   25.0999  -18.9853  -18.8268 O   0  0  0  0  0  0  0  0  0  0  0  0
   24.9209  -19.6513  -16.5765 C   0  0  2  0  0  0  0  0  0  0  0  0
   25.6221  -20.8970  -16.9140 N   0  0  0  0  0  0  0  0  0  0  0  0
   23.4728  -19.8140  -16.8207 C   0  0  0  0  0  0  0  0  0  0  0  0
   23.0312  -20.8490  -17.4494 O   0  0  0  0  0  0  0  0  0  0  0  0
   20.9295  -21.2022  -12.4126 N   0  0  0  0  0  0  0  0  0  0  0  0
   20.5896  -20.5766  -13.6661 C   0  0  0  0  0  0  0  0  0  0  0  0
   19.3959  -20.6340  -14.0040 O   0  0  0  0  0  0  0  0  0  0  0  0
   21.6247  -19.9283  -14.4529 C   0  0  0  0  0  0  0  0  0  0  0  0
   21.1912  -19.4005  -15.8013 C   0  0  2  0  0  0  0  0  0  0  0  0
   22.4568  -18.9193  -16.4196 N   0  0  0  0  0  0  0  0  0  0  0  0
   20.2987  -18.2431  -15.5871 C   0  0  0  0  0  0  0  0  0  0  0  0
   19.0708  -18.3832  -15.7740 O   0  0  0  0  0  0  0  0  0  0  0  0
   20.7833  -17.0293  -15.1898 O   0  0  0  0  0  0  0  0  0  0  0  0
  2  1  1  0
  2  3  2  0
  4  2  1  0
  5  4  1  0
  6  7  1  1
  6  5  1  0
  8  6  1  0
  9  8  2  0
 11 10  1  6
 11 13  1  0
 11 12  1  0
 13 14  1  6
 14  8  1  0
 15 22  1  0
 15 13  1  0
 16 15  2  0
 18 17  1  0
 19 18  2  0
 20 18  1  0
 21 20  1  1
 21 22  1  0
 23 21  1  0
 23 25  1  0
 24 23  2  0
M  END
$$$$
