QTN.pdb
     RDKit          3D

 25 24  0  0  1  0  0  0  0  0999 V2000
   16.6240  -13.4707  -14.5196 N   0  0  0  0  0  0  0  0  0  0  0  0
   16.8616  -14.1623  -15.7456 C   0  0  0  0  0  0  0  0  0  0  0  0
   15.9977  -14.9698  -16.1559 O   0  0  0  0  0  0  0  0  0  0  0  0
   18.1215  -13.8725  -16.4504 C   0  0  0  0  0  0  0  0  0  0  0  0
   19.0067  -12.8705  -15.7691 C   0  0  0  0  0  0  0  0  0  0  0  0
   18.6353  -11.4631  -16.0964 C   0  0  2  0  0  0  0  0  0  0  0  0
   18.6940  -11.2270  -17.5444 N   0  0  0  0  0  0  0  0  0  0  0  0
   19.4780  -10.4684  -15.3743 C   0  0  0  0  0  0  0  0  0  0  0  0
   19.5580  -10.5570  -14.1225 O   0  0  0  0  0  0  0  0  0  0  0  0
   23.1257   -9.9044  -15.7249 C   0  0  0  0  0  0  0  0  0  0  0  0
   22.4682   -8.5745  -15.9240 C   0  0  1  0  0  0  0  0  0  0  0  0
   22.2218   -8.4329  -17.3206 O   0  0  0  0  0  0  0  0  0  0  0  0
   21.0846   -8.5212  -15.2618 C   0  0  2  0  0  0  0  0  0  0  0  0
   20.1968   -9.4276  -16.0017 N   0  0  0  0  0  0  0  0  0  0  0  0
   20.5804   -7.1363  -15.3663 C   0  0  0  0  0  0  0  0  0  0  0  0
   21.2169   -6.1678  -14.8020 O   0  0  0  0  0  0  0  0  0  0  0  0
   18.8913   -5.7813  -19.7679 N   0  0  0  0  0  0  0  0  0  0  0  0
   19.1623   -5.0202  -18.5740 C   0  0  0  0  0  0  0  0  0  0  0  0
   20.1528   -4.2719  -18.6114 O   0  0  0  0  0  0  0  0  0  0  0  0
   18.2933   -5.1580  -17.4179 C   0  0  0  0  0  0  0  0  0  0  0  0
   18.9914   -5.2992  -16.0846 C   0  0  2  0  0  0  0  0  0  0  0  0
   19.4185   -6.7247  -16.0549 N   0  0  0  0  0  0  0  0  0  0  0  0
   18.0011   -5.0789  -15.0110 C   0  0  0  0  0  0  0  0  0  0  0  0
   17.6126   -6.0567  -14.3363 O   0  0  0  0  0  0  0  0  0  0  0  0
   17.5039   -3.8358  -14.7398 O   0  0  0  0  0  0  0  0  0  0  0  0
  2  1  1  0
  2  3  2  0
  4  2  1  0
  5  4  1  0
  6  7  1  6
  6  5  1  0
  8  6  1  0
  9  8  2  0
 11 10  1  6
 11 13  1  0
 11 12  1  0
 13 14  1  6
 14  8  1  0
 15 22  1  0
 15 13  1  0
 16 15  2  0
 18 17  1  0
 19 18  2  0
 20 18  1  0
 21 20  1  6
 21 22  1  0
 23 21  1  0
 23 25  1  0
 24 23  2  0
M  END
$$$$
