QTN.pdb
     RDKit          3D

 25 24  0  0  1  0  0  0  0  0999 V2000
   21.0618  -20.4125  -12.1368 N   0  0  0  0  0  0  0  0  0  0  0  0
   21.3579  -21.4256  -11.1754 C   0  0  0  0  0  0  0  0  0  0  0  0
   20.4100  -22.0652  -10.6667 O   0  0  0  0  0  0  0  0  0  0  0  0
   22.7757  -21.6500  -10.8469 C   0  0  0  0  0  0  0  0  0  0  0  0
   23.7370  -20.7452  -11.5604 C   0  0  0  0  0  0  0  0  0  0  0  0
   25.1614  -21.1075  -11.3038 C   0  0  2  0  0  0  0  0  0  0  0  0
   25.4776  -21.0156   -9.8729 N   0  0  0  0  0  0  0  0  0  0  0  0
   26.1122  -20.2802  -12.0991 C   0  0  0  0  0  0  0  0  0  0  0  0
   27.3373  -20.3583  -11.8261 O   0  0  0  0  0  0  0  0  0  0  0  0
   28.2990  -20.6093  -13.7153 C   0  0  0  0  0  0  0  0  0  0  0  0
   27.5793  -19.7253  -14.6853 C   0  0  1  0  0  0  0  0  0  0  0  0
   26.6651  -20.5483  -15.4050 O   0  0  0  0  0  0  0  0  0  0  0  0
   26.7083  -18.6858  -13.9668 C   0  0  2  0  0  0  0  0  0  0  0  0
   25.7309  -19.4100  -13.1436 N   0  0  0  0  0  0  0  0  0  0  0  0
   26.0023  -17.8918  -14.9936 C   0  0  0  0  0  0  0  0  0  0  0  0
   24.9558  -18.3665  -15.5774 O   0  0  0  0  0  0  0  0  0  0  0  0
   23.2299  -14.1042  -16.1713 N   0  0  0  0  0  0  0  0  0  0  0  0
   24.5201  -13.5405  -15.8621 C   0  0  0  0  0  0  0  0  0  0  0  0
   24.5365  -12.3355  -15.5619 O   0  0  0  0  0  0  0  0  0  0  0  0
   25.7051  -14.3794  -15.9139 C   0  0  0  0  0  0  0  0  0  0  0  0
   25.4777  -15.8117  -16.3403 C   0  0  2  0  0  0  0  0  0  0  0  0
   26.3576  -16.5978  -15.4330 N   0  0  0  0  0  0  0  0  0  0  0  0
   25.9630  -15.9712  -17.7262 C   0  0  0  0  0  0  0  0  0  0  0  0
   25.1409  -15.9121  -18.6658 O   0  0  0  0  0  0  0  0  0  0  0  0
   27.2845  -16.1795  -18.0025 O   0  0  0  0  0  0  0  0  0  0  0  0
  2  1  1  0
  2  3  2  0
  4  2  1  0
  5  4  1  0
  6  7  1  1
  6  5  1  0
  8  6  1  0
  9  8  2  0
 11 10  1  1
 11 13  1  0
 11 12  1  0
 13 14  1  1
 14  8  1  0
 15 22  1  0
 15 13  1  0
 16 15  2  0
 18 17  1  0
 19 18  2  0
 20 18  1  0
 21 20  1  1
 21 22  1  0
 23 21  1  0
 23 25  1  0
 24 23  2  0
M  END
$$$$
