QTN.pdb
     RDKit          3D

 25 24  0  0  1  0  0  0  0  0999 V2000
   14.8808   -9.8053   -9.8510 N   0  0  0  0  0  0  0  0  0  0  0  0
   13.6844  -10.3341  -10.4229 C   0  0  0  0  0  0  0  0  0  0  0  0
   12.6477  -10.3656   -9.7224 O   0  0  0  0  0  0  0  0  0  0  0  0
   13.7552  -10.8102  -11.8145 C   0  0  0  0  0  0  0  0  0  0  0  0
   15.0976  -10.6507  -12.4659 C   0  0  0  0  0  0  0  0  0  0  0  0
   15.1064  -11.1226  -13.8812 C   0  0  2  0  0  0  0  0  0  0  0  0
   15.0205  -12.5869  -13.9477 N   0  0  0  0  0  0  0  0  0  0  0  0
   16.2965  -10.6383  -14.6363 C   0  0  0  0  0  0  0  0  0  0  0  0
   17.2639  -11.4273  -14.7873 O   0  0  0  0  0  0  0  0  0  0  0  0
   16.7383   -9.5014  -18.1460 C   0  0  0  0  0  0  0  0  0  0  0  0
   17.2235   -8.3860  -17.2736 C   0  0  1  0  0  0  0  0  0  0  0  0
   16.1170   -7.5163  -17.0497 O   0  0  0  0  0  0  0  0  0  0  0  0
   17.6297   -8.8901  -15.8820 C   0  0  2  0  0  0  0  0  0  0  0  0
   16.4137   -9.3478  -15.1970 N   0  0  0  0  0  0  0  0  0  0  0  0
   18.2222   -7.7579  -15.1401 C   0  0  0  0  0  0  0  0  0  0  0  0
   17.4953   -7.0484  -14.3466 O   0  0  0  0  0  0  0  0  0  0  0  0
   21.6493   -4.2025  -13.1475 N   0  0  0  0  0  0  0  0  0  0  0  0
   22.2912   -5.4368  -13.5256 C   0  0  0  0  0  0  0  0  0  0  0  0
   23.4843   -5.5580  -13.2029 O   0  0  0  0  0  0  0  0  0  0  0  0
   21.5384   -6.4506  -14.2442 C   0  0  0  0  0  0  0  0  0  0  0  0
   20.0616   -6.1758  -14.4129 C   0  0  2  0  0  0  0  0  0  0  0  0
   19.5697   -7.3403  -15.1985 N   0  0  0  0  0  0  0  0  0  0  0  0
   19.9020   -4.9537  -15.2271 C   0  0  0  0  0  0  0  0  0  0  0  0
   20.1002   -3.8409  -14.6934 O   0  0  0  0  0  0  0  0  0  0  0  0
   19.5455   -5.0126  -16.5444 O   0  0  0  0  0  0  0  0  0  0  0  0
  2  1  1  0
  2  3  2  0
  4  2  1  0
  5  4  1  0
  6  7  1  1
  6  5  1  0
  8  6  1  0
  9  8  2  0
 11 10  1  6
 11 13  1  0
 11 12  1  0
 13 14  1  1
 14  8  1  0
 15 22  1  0
 15 13  1  0
 16 15  2  0
 18 17  1  0
 19 18  2  0
 20 18  1  0
 21 20  1  6
 21 22  1  0
 23 21  1  0
 23 25  1  0
 24 23  2  0
M  END
$$$$
