QTN.pdb
     RDKit          3D

 25 24  0  0  1  0  0  0  0  0999 V2000
   27.7770  -20.0157  -19.7306 N   0  0  0  0  0  0  0  0  0  0  0  0
   28.8982  -19.5611  -18.9727 C   0  0  0  0  0  0  0  0  0  0  0  0
   29.8722  -19.0644  -19.5818 O   0  0  0  0  0  0  0  0  0  0  0  0
   28.8282  -19.7096  -17.5094 C   0  0  0  0  0  0  0  0  0  0  0  0
   27.5309  -20.2611  -16.9950 C   0  0  0  0  0  0  0  0  0  0  0  0
   27.7123  -21.1174  -15.7868 C   0  0  2  0  0  0  0  0  0  0  0  0
   28.5915  -22.2569  -16.0772 N   0  0  0  0  0  0  0  0  0  0  0  0
   26.4163  -21.5925  -15.2249 C   0  0  0  0  0  0  0  0  0  0  0  0
   25.9234  -22.6532  -15.6869 O   0  0  0  0  0  0  0  0  0  0  0  0
   25.7351  -22.1357  -11.5632 C   0  0  0  0  0  0  0  0  0  0  0  0
   24.5728  -21.3580  -12.0969 C   0  0  1  0  0  0  0  0  0  0  0  0
   24.8374  -19.9807  -11.8436 O   0  0  0  0  0  0  0  0  0  0  0  0
   24.4651  -21.4751  -13.6234 C   0  0  2  0  0  0  0  0  0  0  0  0
   25.6995  -20.9307  -14.2043 N   0  0  0  0  0  0  0  0  0  0  0  0
   23.3095  -20.6666  -14.0640 C   0  0  0  0  0  0  0  0  0  0  0  0
   23.4692  -19.4325  -14.4001 O   0  0  0  0  0  0  0  0  0  0  0  0
   18.7906  -18.7867  -15.8511 N   0  0  0  0  0  0  0  0  0  0  0  0
   19.5269  -19.7598  -16.6188 C   0  0  0  0  0  0  0  0  0  0  0  0
   19.1565  -19.9298  -17.7920 O   0  0  0  0  0  0  0  0  0  0  0  0
   20.6330  -20.4750  -16.0059 C   0  0  0  0  0  0  0  0  0  0  0  0
   20.8678  -20.1900  -14.5401 C   0  0  2  0  0  0  0  0  0  0  0  0
   21.9745  -21.1139  -14.1700 N   0  0  0  0  0  0  0  0  0  0  0  0
   19.6569  -20.5757  -13.7874 C   0  0  0  0  0  0  0  0  0  0  0  0
   19.7023  -21.5764  -13.0398 O   0  0  0  0  0  0  0  0  0  0  0  0
   18.4944  -19.8656  -13.8888 O   0  0  0  0  0  0  0  0  0  0  0  0
  2  1  1  0
  2  3  2  0
  4  2  1  0
  5  4  1  0
  6  7  1  6
  6  5  1  0
  8  6  1  0
  9  8  2  0
 11 10  1  6
 11 13  1  0
 11 12  1  0
 13 14  1  6
 14  8  1  0
 15 22  1  0
 15 13  1  0
 16 15  2  0
 18 17  1  0
 19 18  2  0
 20 18  1  0
 21 20  1  6
 21 22  1  0
 23 21  1  0
 23 25  1  0
 24 23  2  0
M  END
$$$$
