QTN.pdb
     RDKit          3D

 25 24  0  0  1  0  0  0  0  0999 V2000
   25.5561  -25.5371  -16.1929 N   0  0  0  0  0  0  0  0  0  0  0  0
   26.5106  -26.0166  -17.1401 C   0  0  0  0  0  0  0  0  0  0  0  0
   26.1870  -26.9650  -17.8900 O   0  0  0  0  0  0  0  0  0  0  0  0
   27.8245  -25.3525  -17.1690 C   0  0  0  0  0  0  0  0  0  0  0  0
   27.9744  -24.2135  -16.2035 C   0  0  0  0  0  0  0  0  0  0  0  0
   28.0483  -22.8897  -16.8876 C   0  0  2  0  0  0  0  0  0  0  0  0
   29.3949  -22.6476  -17.4205 N   0  0  0  0  0  0  0  0  0  0  0  0
   27.6316  -21.7661  -16.0016 C   0  0  0  0  0  0  0  0  0  0  0  0
   28.4787  -21.3001  -15.1975 O   0  0  0  0  0  0  0  0  0  0  0  0
   28.2442  -19.1073  -15.9659 C   0  0  0  0  0  0  0  0  0  0  0  0
   26.7850  -18.8048  -15.8250 C   0  0  1  0  0  0  0  0  0  0  0  0
   26.2594  -18.6501  -17.1407 O   0  0  0  0  0  0  0  0  0  0  0  0
   26.0167  -19.9871  -15.2189 C   0  0  2  0  0  0  0  0  0  0  0  0
   26.3446  -21.1854  -16.0024 N   0  0  0  0  0  0  0  0  0  0  0  0
   24.5717  -19.6997  -15.3312 C   0  0  0  0  0  0  0  0  0  0  0  0
   23.8992  -20.1309  -16.3427 O   0  0  0  0  0  0  0  0  0  0  0  0
   20.4037  -18.7096  -17.8467 N   0  0  0  0  0  0  0  0  0  0  0  0
   20.7982  -18.3340  -16.5120 C   0  0  0  0  0  0  0  0  0  0  0  0
   19.9245  -17.7991  -15.8100 O   0  0  0  0  0  0  0  0  0  0  0  0
   22.1559  -18.5892  -16.0623 C   0  0  0  0  0  0  0  0  0  0  0  0
   22.3260  -18.8043  -14.5758 C   0  0  2  0  0  0  0  0  0  0  0  0
   23.7953  -18.9694  -14.4052 N   0  0  0  0  0  0  0  0  0  0  0  0
   21.6609  -20.0704  -14.2060 C   0  0  0  0  0  0  0  0  0  0  0  0
   22.1462  -21.1491  -14.6098 O   0  0  0  0  0  0  0  0  0  0  0  0
   20.5335  -20.0881  -13.4349 O   0  0  0  0  0  0  0  0  0  0  0  0
  2  1  1  0
  2  3  2  0
  4  2  1  0
  5  4  1  0
  6  7  1  1
  6  5  1  0
  8  6  1  0
  9  8  2  0
 11 10  1  6
 11 13  1  0
 11 12  1  0
 13 14  1  6
 14  8  1  0
 15 22  1  0
 15 13  1  0
 16 15  2  0
 18 17  1  0
 19 18  2  0
 20 18  1  0
 21 20  1  6
 21 22  1  0
 23 21  1  0
 23 25  1  0
 24 23  2  0
M  END
$$$$
