QTN.pdb
     RDKit          3D

 25 24  0  0  1  0  0  0  0  0999 V2000
   28.3280  -29.3358  -16.6272 N   0  0  0  0  0  0  0  0  0  0  0  0
   27.6837  -29.3153  -17.9010 C   0  0  0  0  0  0  0  0  0  0  0  0
   27.8261  -30.2994  -18.6610 O   0  0  0  0  0  0  0  0  0  0  0  0
   26.8864  -28.1231  -18.2346 C   0  0  0  0  0  0  0  0  0  0  0  0
   26.7322  -27.1366  -17.1144 C   0  0  0  0  0  0  0  0  0  0  0  0
   27.8504  -26.1502  -17.0628 C   0  0  2  0  0  0  0  0  0  0  0  0
   29.0448  -26.7412  -16.4464 N   0  0  0  0  0  0  0  0  0  0  0  0
   27.4703  -24.8939  -16.3570 C   0  0  0  0  0  0  0  0  0  0  0  0
   27.7593  -24.7886  -15.1377 O   0  0  0  0  0  0  0  0  0  0  0  0
   26.7676  -20.0720  -16.4550 C   0  0  0  0  0  0  0  0  0  0  0  0
   27.0538  -21.3962  -17.0915 C   0  0  1  0  0  0  0  0  0  0  0  0
   28.4690  -21.5641  -17.0933 O   0  0  0  0  0  0  0  0  0  0  0  0
   26.5096  -22.5591  -16.2506 C   0  0  2  0  0  0  0  0  0  0  0  0
   26.8047  -23.8076  -16.9657 N   0  0  0  0  0  0  0  0  0  0  0  0
   25.0469  -22.3899  -16.1281 C   0  0  0  0  0  0  0  0  0  0  0  0
   24.2808  -22.5954  -17.1441 O   0  0  0  0  0  0  0  0  0  0  0  0
   20.1714  -21.3760  -14.2510 N   0  0  0  0  0  0  0  0  0  0  0  0
   21.0835  -21.7550  -13.2009 C   0  0  0  0  0  0  0  0  0  0  0  0
   20.5944  -21.8820  -12.0664 O   0  0  0  0  0  0  0  0  0  0  0  0
   22.4884  -21.9643  -13.5063 C   0  0  0  0  0  0  0  0  0  0  0  0
   22.8735  -21.8164  -14.9605 C   0  0  2  0  0  0  0  0  0  0  0  0
   24.3490  -22.0118  -14.9603 N   0  0  0  0  0  0  0  0  0  0  0  0
   22.5790  -20.4327  -15.3853 C   0  0  0  0  0  0  0  0  0  0  0  0
   23.4081  -19.5324  -15.1317 O   0  0  0  0  0  0  0  0  0  0  0  0
   21.4266  -20.1170  -16.0473 O   0  0  0  0  0  0  0  0  0  0  0  0
  2  1  1  0
  2  3  2  0
  4  2  1  0
  5  4  1  0
  6  7  1  1
  6  5  1  0
  8  6  1  0
  9  8  2  0
 11 10  1  1
 11 13  1  0
 11 12  1  0
 13 14  1  6
 14  8  1  0
 15 22  1  0
 15 13  1  0
 16 15  2  0
 18 17  1  0
 19 18  2  0
 20 18  1  0
 21 20  1  1
 21 22  1  0
 23 21  1  0
 23 25  1  0
 24 23  2  0
M  END
$$$$
