WLM.pdb
     RDKit          3D

 31 32  0  0  1  0  0  0  0  0999 V2000
   23.1183  -19.6143  -16.7135 N   0  0  0  0  0  0  0  0  0  0  0  0
   23.4463  -19.3769  -15.3243 C   0  0  1  0  0  0  0  0  0  0  0  0
   22.2957  -19.8229  -14.4492 C   0  0  0  0  0  0  0  0  0  0  0  0
   20.9942  -19.2886  -14.8567 C   0  0  0  0  0  0  0  0  0  0  0  0
   20.7499  -17.9602  -15.1636 C   0  0  0  0  0  0  0  0  0  0  0  0
   19.4572  -17.8392  -15.4931 N   0  0  0  0  0  0  0  0  0  0  0  0
   18.8479  -19.0587  -15.4091 C   0  0  0  0  0  0  0  0  0  0  0  0
   17.5453  -19.4605  -15.6424 C   0  0  0  0  0  0  0  0  0  0  0  0
   17.2391  -20.7926  -15.4646 C   0  0  0  0  0  0  0  0  0  0  0  0
   18.2200  -21.6920  -15.0632 C   0  0  0  0  0  0  0  0  0  0  0  0
   19.5210  -21.3035  -14.8279 C   0  0  0  0  0  0  0  0  0  0  0  0
   19.8208  -19.9599  -15.0091 C   0  0  0  0  0  0  0  0  0  0  0  0
   24.6036  -20.2152  -14.9684 C   0  0  0  0  0  0  0  0  0  0  0  0
   24.5429  -21.4420  -15.0619 O   0  0  0  0  0  0  0  0  0  0  0  0
   29.5648  -17.9901  -15.7302 C   0  0  0  0  0  0  0  0  0  0  0  0
   28.1726  -18.6728  -15.7133 C   0  0  1  0  0  0  0  0  0  0  0  0
   28.0544  -19.2963  -17.0703 C   0  0  0  0  0  0  0  0  0  0  0  0
   28.2066  -19.5929  -14.5603 C   0  0  0  0  0  0  0  0  0  0  0  0
   26.9878  -20.3238  -14.1694 C   0  0  2  0  0  0  0  0  0  0  0  0
   25.8013  -19.6153  -14.5136 N   0  0  0  0  0  0  0  0  0  0  0  0
   26.9955  -20.8455  -12.7859 C   0  0  0  0  0  0  0  0  0  0  0  0
   27.4553  -21.9760  -12.4656 O   0  0  0  0  0  0  0  0  0  0  0  0
   28.8952  -20.2044   -6.8609 C   0  0  0  0  0  0  0  0  0  0  0  0
   27.3872  -19.2186   -6.8829 S   0  0  0  0  0  0  0  0  0  0  0  0
   26.1229  -19.8989   -7.9658 C   0  0  0  0  0  0  0  0  0  0  0  0
   26.3502  -19.4021   -9.3748 C   0  0  0  0  0  0  0  0  0  0  0  0
   26.2648  -20.5194  -10.3868 C   0  0  2  0  0  0  0  0  0  0  0  0
   26.4651  -20.0643  -11.7206 N   0  0  0  0  0  0  0  0  0  0  0  0
   24.9477  -21.2187  -10.2204 C   0  0  0  0  0  0  0  0  0  0  0  0
   24.1207  -21.1773  -11.1631 O   0  0  0  0  0  0  0  0  0  0  0  0
   24.6115  -21.8990   -9.0842 O   0  0  0  0  0  0  0  0  0  0  0  0
  2 13  1  0
  2  1  1  6
  3  2  1  0
  4  3  1  0
  4  5  2  0
  6  5  1  0
  7 12  2  0
  7  6  1  0
  8  7  1  0
  9 10  1  0
  9  8  2  0
 10 11  2  0
 11 12  1  0
 12  4  1  0
 13 14  2  0
 16 15  1  6
 17 16  1  0
 18 16  1  0
 19 18  1  1
 20 19  1  0
 20 13  1  0
 21 19  1  0
 21 22  2  0
 23 24  1  0
 25 26  1  0
 25 24  1  0
 27 26  1  1
 27 28  1  0
 27 29  1  0
 28 21  1  0
 29 30  2  0
 29 31  1  0
M  END
$$$$
