WLM.pdb
     RDKit          3D

 31 32  0  0  1  0  0  0  0  0999 V2000
   23.1332  -19.2254  -14.3795 N   0  0  0  0  0  0  0  0  0  0  0  0
   23.1388  -20.6721  -14.3457 C   0  0  1  0  0  0  0  0  0  0  0  0
   22.6108  -21.2110  -15.6570 C   0  0  0  0  0  0  0  0  0  0  0  0
   21.2554  -20.7622  -15.9841 C   0  0  0  0  0  0  0  0  0  0  0  0
   20.9581  -19.6226  -16.7129 C   0  0  0  0  0  0  0  0  0  0  0  0
   19.6259  -19.5296  -16.8166 N   0  0  0  0  0  0  0  0  0  0  0  0
   19.0424  -20.5829  -16.1719 C   0  0  0  0  0  0  0  0  0  0  0  0
   17.7184  -20.9391  -15.9914 C   0  0  0  0  0  0  0  0  0  0  0  0
   17.4504  -22.0865  -15.2759 C   0  0  0  0  0  0  0  0  0  0  0  0
   18.4895  -22.8512  -14.7585 C   0  0  0  0  0  0  0  0  0  0  0  0
   19.8124  -22.5063  -14.9320 C   0  0  0  0  0  0  0  0  0  0  0  0
   20.0734  -21.3492  -15.6536 C   0  0  0  0  0  0  0  0  0  0  0  0
   24.5331  -21.1305  -14.2258 C   0  0  0  0  0  0  0  0  0  0  0  0
   24.9062  -22.1606  -14.7891 O   0  0  0  0  0  0  0  0  0  0  0  0
   28.6295  -17.9505  -14.8753 C   0  0  0  0  0  0  0  0  0  0  0  0
   27.3777  -18.8470  -14.6912 C   0  0  1  0  0  0  0  0  0  0  0  0
   27.0183  -19.2641  -16.0843 C   0  0  0  0  0  0  0  0  0  0  0  0
   27.7999  -19.9159  -13.7658 C   0  0  0  0  0  0  0  0  0  0  0  0
   26.7902  -20.8035  -13.1614 C   0  0  2  0  0  0  0  0  0  0  0  0
   25.4608  -20.3877  -13.4585 N   0  0  0  0  0  0  0  0  0  0  0  0
   27.0163  -21.1170  -11.7342 C   0  0  0  0  0  0  0  0  0  0  0  0
   28.1215  -21.5100  -11.2694 O   0  0  0  0  0  0  0  0  0  0  0  0
   28.3263  -19.1189   -4.8189 C   0  0  0  0  0  0  0  0  0  0  0  0
   27.8083  -18.8091   -6.5164 S   0  0  0  0  0  0  0  0  0  0  0  0
   26.8802  -20.1767   -7.2249 C   0  0  0  0  0  0  0  0  0  0  0  0
   26.8547  -20.0384   -8.7296 C   0  0  0  0  0  0  0  0  0  0  0  0
   26.0801  -21.1564   -9.3852 C   0  0  2  0  0  0  0  0  0  0  0  0
   25.9570  -20.9831  -10.7926 N   0  0  0  0  0  0  0  0  0  0  0  0
   24.7444  -21.2747   -8.7117 C   0  0  0  0  0  0  0  0  0  0  0  0
   23.7298  -20.8364   -9.3056 O   0  0  0  0  0  0  0  0  0  0  0  0
   24.5873  -21.8401   -7.4778 O   0  0  0  0  0  0  0  0  0  0  0  0
  2 13  1  0
  2  1  1  6
  3  2  1  0
  4  3  1  0
  4  5  2  0
  6  5  1  0
  7 12  2  0
  7  6  1  0
  8  7  1  0
  9 10  1  0
  9  8  2  0
 10 11  2  0
 11 12  1  0
 12  4  1  0
 13 14  2  0
 16 15  1  6
 17 16  1  0
 18 16  1  0
 19 18  1  1
 20 19  1  0
 20 13  1  0
 21 19  1  0
 21 22  2  0
 23 24  1  0
 25 26  1  0
 25 24  1  0
 27 26  1  1
 27 28  1  0
 27 29  1  0
 28 21  1  0
 29 30  2  0
 29 31  1  0
M  END
$$$$
