WLM.pdb
     RDKit          3D

 31 32  0  0  1  0  0  0  0  0999 V2000
   15.7079  -17.4150    5.7370 N   0  0  0  0  0  0  0  0  0  0  0  0
   17.1393  -17.5739    5.5972 C   0  0  1  0  0  0  0  0  0  0  0  0
   17.8447  -16.4109    6.2596 C   0  0  0  0  0  0  0  0  0  0  0  0
   17.8955  -15.1984    5.4395 C   0  0  0  0  0  0  0  0  0  0  0  0
   17.4261  -13.9580    5.8387 C   0  0  0  0  0  0  0  0  0  0  0  0
   17.6376  -13.0908    4.8401 N   0  0  0  0  0  0  0  0  0  0  0  0
   18.2355  -13.7347    3.7943 C   0  0  0  0  0  0  0  0  0  0  0  0
   18.6526  -13.2929    2.5520 C   0  0  0  0  0  0  0  0  0  0  0  0
   19.2331  -14.2100    1.7023 C   0  0  0  0  0  0  0  0  0  0  0  0
   19.3877  -15.5340    2.0964 C   0  0  0  0  0  0  0  0  0  0  0  0
   18.9761  -15.9857    3.3315 C   0  0  0  0  0  0  0  0  0  0  0  0
   18.3922  -15.0555    4.1811 C   0  0  0  0  0  0  0  0  0  0  0  0
   17.5467  -18.7895    6.3218 C   0  0  0  0  0  0  0  0  0  0  0  0
   16.9261  -19.1647    7.3176 O   0  0  0  0  0  0  0  0  0  0  0  0
   19.4679  -23.4005    3.9614 C   0  0  0  0  0  0  0  0  0  0  0  0
   18.6543  -22.4197    4.8451 C   0  0  1  0  0  0  0  0  0  0  0  0
   17.6806  -23.2997    5.5672 C   0  0  0  0  0  0  0  0  0  0  0  0
   19.6570  -21.7204    5.6714 C   0  0  0  0  0  0  0  0  0  0  0  0
   19.2336  -20.6394    6.5796 C   0  0  2  0  0  0  0  0  0  0  0  0
   18.6603  -19.5405    5.8781 N   0  0  0  0  0  0  0  0  0  0  0  0
   20.2413  -20.2479    7.5883 C   0  0  0  0  0  0  0  0  0  0  0  0
   21.1354  -19.3809    7.3860 O   0  0  0  0  0  0  0  0  0  0  0  0
   22.0863  -17.5364   14.4160 C   0  0  0  0  0  0  0  0  0  0  0  0
   20.9854  -17.9430   13.0490 S   0  0  0  0  0  0  0  0  0  0  0  0
   21.6392  -19.2376   11.9860 C   0  0  0  0  0  0  0  0  0  0  0  0
   20.6633  -19.5042   10.8632 C   0  0  0  0  0  0  0  0  0  0  0  0
   21.1674  -20.5696    9.9195 C   0  0  2  0  0  0  0  0  0  0  0  0
   20.2432  -20.8558    8.8755 N   0  0  0  0  0  0  0  0  0  0  0  0
   21.5152  -21.7922   10.7169 C   0  0  0  0  0  0  0  0  0  0  0  0
   22.3914  -21.6992   11.6101 O   0  0  0  0  0  0  0  0  0  0  0  0
   20.9170  -23.0030   10.5104 O   0  0  0  0  0  0  0  0  0  0  0  0
  2 13  1  0
  2  1  1  1
  3  2  1  0
  4  3  1  0
  4  5  2  0
  6  5  1  0
  7 12  2  0
  7  6  1  0
  8  7  1  0
  9 10  1  0
  9  8  2  0
 10 11  2  0
 11 12  1  0
 12  4  1  0
 13 14  2  0
 16 15  1  6
 17 16  1  0
 18 16  1  0
 19 18  1  6
 20 19  1  0
 20 13  1  0
 21 19  1  0
 21 22  2  0
 23 24  1  0
 25 26  1  0
 25 24  1  0
 27 26  1  1
 27 28  1  0
 27 29  1  0
 28 21  1  0
 29 30  2  0
 29 31  1  0
M  END
$$$$
