WLM.pdb
     RDKit          3D

 31 32  0  0  1  0  0  0  0  0999 V2000
   23.8348  -20.3923  -14.0489 N   0  0  0  0  0  0  0  0  0  0  0  0
   23.1295  -19.9632  -12.8605 C   0  0  1  0  0  0  0  0  0  0  0  0
   21.6407  -20.1371  -13.0649 C   0  0  0  0  0  0  0  0  0  0  0  0
   21.0375  -19.1318  -13.9430 C   0  0  0  0  0  0  0  0  0  0  0  0
   21.0712  -19.1738  -15.3270 C   0  0  0  0  0  0  0  0  0  0  0  0
   20.4216  -18.0990  -15.7928 N   0  0  0  0  0  0  0  0  0  0  0  0
   19.9625  -17.3526  -14.7451 C   0  0  0  0  0  0  0  0  0  0  0  0
   19.2457  -16.1710  -14.6944 C   0  0  0  0  0  0  0  0  0  0  0  0
   18.9295  -15.6606  -13.4537 C   0  0  0  0  0  0  0  0  0  0  0  0
   19.3256  -16.3246  -12.2985 C   0  0  0  0  0  0  0  0  0  0  0  0
   20.0400  -17.5025  -12.3365 C   0  0  0  0  0  0  0  0  0  0  0  0
   20.3545  -18.0095  -13.5903 C   0  0  0  0  0  0  0  0  0  0  0  0
   23.5137  -20.8456  -11.7458 C   0  0  0  0  0  0  0  0  0  0  0  0
   23.7914  -22.0286  -11.9484 O   0  0  0  0  0  0  0  0  0  0  0  0
   27.1259  -19.3962   -8.0527 C   0  0  0  0  0  0  0  0  0  0  0  0
   26.2765  -20.0767   -9.1572 C   0  0  1  0  0  0  0  0  0  0  0  0
   27.1354  -21.2073   -9.6347 C   0  0  0  0  0  0  0  0  0  0  0  0
   25.0060  -20.4392   -8.5003 C   0  0  0  0  0  0  0  0  0  0  0  0
   23.9397  -21.0956   -9.2780 C   0  0  2  0  0  0  0  0  0  0  0  0
   23.5673  -20.3395  -10.4260 N   0  0  0  0  0  0  0  0  0  0  0  0
   22.7931  -21.5735   -8.4760 C   0  0  0  0  0  0  0  0  0  0  0  0
   22.9110  -22.2639   -7.4265 O   0  0  0  0  0  0  0  0  0  0  0  0
   16.5800  -25.8499   -9.3566 C   0  0  0  0  0  0  0  0  0  0  0  0
   18.0946  -25.0197   -9.8695 S   0  0  0  0  0  0  0  0  0  0  0  0
   18.5765  -23.6931   -8.7553 C   0  0  0  0  0  0  0  0  0  0  0  0
   19.8116  -23.0097   -9.2950 C   0  0  0  0  0  0  0  0  0  0  0  0
   20.2875  -21.9040   -8.3835 C   0  0  2  0  0  0  0  0  0  0  0  0
   21.4611  -21.2624   -8.8703 N   0  0  0  0  0  0  0  0  0  0  0  0
   20.4816  -22.4669   -7.0061 C   0  0  0  0  0  0  0  0  0  0  0  0
   19.7218  -22.0807   -6.0854 O   0  0  0  0  0  0  0  0  0  0  0  0
   21.4519  -23.3830   -6.7131 O   0  0  0  0  0  0  0  0  0  0  0  0
  2 13  1  0
  2  1  1  6
  3  2  1  0
  4  3  1  0
  4  5  2  0
  6  5  1  0
  7 12  2  0
  7  6  1  0
  8  7  1  0
  9 10  1  0
  9  8  2  0
 10 11  2  0
 11 12  1  0
 12  4  1  0
 13 14  2  0
 16 15  1  1
 17 16  1  0
 18 16  1  0
 19 18  1  1
 20 19  1  0
 20 13  1  0
 21 19  1  0
 21 22  2  0
 23 24  1  0
 25 26  1  0
 25 24  1  0
 27 26  1  6
 27 28  1  0
 27 29  1  0
 28 21  1  0
 29 30  2  0
 29 31  1  0
M  END
$$$$
