WLM.pdb
     RDKit          3D

 31 32  0  0  1  0  0  0  0  0999 V2000
   25.2451  -19.5340  -18.3757 N   0  0  0  0  0  0  0  0  0  0  0  0
   24.9548  -19.4008  -16.9644 C   0  0  1  0  0  0  0  0  0  0  0  0
   23.4573  -19.3384  -16.7593 C   0  0  0  0  0  0  0  0  0  0  0  0
   22.8797  -18.0105  -16.9799 C   0  0  0  0  0  0  0  0  0  0  0  0
   23.1755  -17.1927  -18.0579 C   0  0  0  0  0  0  0  0  0  0  0  0
   22.4657  -16.0638  -17.9321 N   0  0  0  0  0  0  0  0  0  0  0  0
   21.7106  -16.1227  -16.7955 C   0  0  0  0  0  0  0  0  0  0  0  0
   20.8232  -15.2276  -16.2265 C   0  0  0  0  0  0  0  0  0  0  0  0
   20.2074  -15.5901  -15.0478 C   0  0  0  0  0  0  0  0  0  0  0  0
   20.4800  -16.8207  -14.4617 C   0  0  0  0  0  0  0  0  0  0  0  0
   21.3621  -17.7207  -15.0193 C   0  0  0  0  0  0  0  0  0  0  0  0
   21.9781  -17.3475  -16.2064 C   0  0  0  0  0  0  0  0  0  0  0  0
   25.4305  -20.6116  -16.2740 C   0  0  0  0  0  0  0  0  0  0  0  0
   25.5161  -21.6840  -16.8741 O   0  0  0  0  0  0  0  0  0  0  0  0
   28.6322  -20.5468  -11.6179 C   0  0  0  0  0  0  0  0  0  0  0  0
   27.4490  -20.2592  -12.5780 C   0  0  1  0  0  0  0  0  0  0  0  0
   27.9872  -19.2299  -13.5239 C   0  0  0  0  0  0  0  0  0  0  0  0
   27.0916  -21.5693  -13.1552 C   0  0  0  0  0  0  0  0  0  0  0  0
   25.9267  -21.6825  -14.0511 C   0  0  2  0  0  0  0  0  0  0  0  0
   25.7950  -20.5529  -14.9084 N   0  0  0  0  0  0  0  0  0  0  0  0
   24.6685  -22.0796  -13.3837 C   0  0  0  0  0  0  0  0  0  0  0  0
   24.5517  -23.1089  -12.6634 O   0  0  0  0  0  0  0  0  0  0  0  0
   21.0254  -19.2930   -9.0077 C   0  0  0  0  0  0  0  0  0  0  0  0
   19.8622  -19.4835  -10.3703 S   0  0  0  0  0  0  0  0  0  0  0  0
   20.3429  -20.7759  -11.5245 C   0  0  0  0  0  0  0  0  0  0  0  0
   21.7416  -20.5032  -12.0276 C   0  0  0  0  0  0  0  0  0  0  0  0
   22.2241  -21.5842  -12.9649 C   0  0  2  0  0  0  0  0  0  0  0  0
   23.4952  -21.2872  -13.5324 N   0  0  0  0  0  0  0  0  0  0  0  0
   21.1763  -21.8128  -14.0145 C   0  0  0  0  0  0  0  0  0  0  0  0
   21.3300  -21.2866  -15.1431 O   0  0  0  0  0  0  0  0  0  0  0  0
   20.0614  -22.5704  -13.7918 O   0  0  0  0  0  0  0  0  0  0  0  0
  2 13  1  0
  2  1  1  6
  3  2  1  0
  4  3  1  0
  4  5  2  0
  6  5  1  0
  7 12  2  0
  7  6  1  0
  8  7  1  0
  9 10  1  0
  9  8  2  0
 10 11  2  0
 11 12  1  0
 12  4  1  0
 13 14  2  0
 16 15  1  1
 17 16  1  0
 18 16  1  0
 19 18  1  1
 20 19  1  0
 20 13  1  0
 21 19  1  0
 21 22  2  0
 23 24  1  0
 25 26  1  0
 25 24  1  0
 27 26  1  1
 27 28  1  0
 27 29  1  0
 28 21  1  0
 29 30  2  0
 29 31  1  0
M  END
$$$$
