WLM.pdb
     RDKit          3D

 31 32  0  0  1  0  0  0  0  0999 V2000
   24.0212  -18.5608  -18.7279 N   0  0  0  0  0  0  0  0  0  0  0  0
   23.5731  -18.4824  -17.3542 C   0  0  1  0  0  0  0  0  0  0  0  0
   22.0628  -18.5582  -17.3094 C   0  0  0  0  0  0  0  0  0  0  0  0
   21.3910  -17.3226  -17.7186 C   0  0  0  0  0  0  0  0  0  0  0  0
   20.7854  -17.1263  -18.9487 C   0  0  0  0  0  0  0  0  0  0  0  0
   20.2765  -15.8875  -18.9701 N   0  0  0  0  0  0  0  0  0  0  0  0
   20.5347  -15.2665  -17.7812 C   0  0  0  0  0  0  0  0  0  0  0  0
   20.2268  -14.0030  -17.3110 C   0  0  0  0  0  0  0  0  0  0  0  0
   20.6380  -13.6700  -16.0382 C   0  0  0  0  0  0  0  0  0  0  0  0
   21.3393  -14.5867  -15.2636 C   0  0  0  0  0  0  0  0  0  0  0  0
   21.6518  -15.8484  -15.7213 C   0  0  0  0  0  0  0  0  0  0  0  0
   21.2340  -16.1755  -17.0044 C   0  0  0  0  0  0  0  0  0  0  0  0
   24.0817  -19.6594  -16.6298 C   0  0  0  0  0  0  0  0  0  0  0  0
   24.1347  -20.7606  -17.1794 O   0  0  0  0  0  0  0  0  0  0  0  0
   28.4918  -19.2626  -13.6125 C   0  0  0  0  0  0  0  0  0  0  0  0
   27.3841  -19.6134  -14.6394 C   0  0  1  0  0  0  0  0  0  0  0  0
   28.0781  -20.4814  -15.6439 C   0  0  0  0  0  0  0  0  0  0  0  0
   26.3084  -20.2419  -13.8489 C   0  0  0  0  0  0  0  0  0  0  0  0
   25.0344  -20.5994  -14.4983 C   0  0  2  0  0  0  0  0  0  0  0  0
   24.5158  -19.5345  -15.2892 N   0  0  0  0  0  0  0  0  0  0  0  0
   24.0366  -21.2231  -13.6030 C   0  0  0  0  0  0  0  0  0  0  0  0
   24.2813  -22.2170  -12.8652 O   0  0  0  0  0  0  0  0  0  0  0  0
   20.6769  -20.2478   -8.0330 C   0  0  0  0  0  0  0  0  0  0  0  0
   19.6626  -19.8809   -9.4762 S   0  0  0  0  0  0  0  0  0  0  0  0
   20.0391  -20.9369  -10.8822 C   0  0  0  0  0  0  0  0  0  0  0  0
   21.2450  -20.3898  -11.6106 C   0  0  0  0  0  0  0  0  0  0  0  0
   21.6491  -21.2682  -12.7703 C   0  0  2  0  0  0  0  0  0  0  0  0
   22.7112  -20.7083  -13.5349 N   0  0  0  0  0  0  0  0  0  0  0  0
   20.4356  -21.5462  -13.6080 C   0  0  0  0  0  0  0  0  0  0  0  0
   20.3332  -20.9836  -14.7248 O   0  0  0  0  0  0  0  0  0  0  0  0
   19.4371  -22.3871  -13.2048 O   0  0  0  0  0  0  0  0  0  0  0  0
  2 13  1  0
  2  1  1  6
  3  2  1  0
  4  3  1  0
  4  5  2  0
  6  5  1  0
  7 12  2  0
  7  6  1  0
  8  7  1  0
  9 10  1  0
  9  8  2  0
 10 11  2  0
 11 12  1  0
 12  4  1  0
 13 14  2  0
 16 15  1  1
 17 16  1  0
 18 16  1  0
 19 18  1  1
 20 19  1  0
 20 13  1  0
 21 19  1  0
 21 22  2  0
 23 24  1  0
 25 26  1  0
 25 24  1  0
 27 26  1  1
 27 28  1  0
 27 29  1  0
 28 21  1  0
 29 30  2  0
 29 31  1  0
M  END
$$$$
