WLM.pdb
     RDKit          3D

 31 32  0  0  1  0  0  0  0  0999 V2000
   24.0175  -20.6146  -16.3780 N   0  0  0  0  0  0  0  0  0  0  0  0
   24.6367  -19.9495  -15.2520 C   0  0  1  0  0  0  0  0  0  0  0  0
   23.5782  -19.5858  -14.2342 C   0  0  0  0  0  0  0  0  0  0  0  0
   22.5939  -18.6149  -14.7180 C   0  0  0  0  0  0  0  0  0  0  0  0
   21.2313  -18.8496  -14.7995 C   0  0  0  0  0  0  0  0  0  0  0  0
   20.6460  -17.7455  -15.2818 N   0  0  0  0  0  0  0  0  0  0  0  0
   21.5944  -16.7915  -15.5186 C   0  0  0  0  0  0  0  0  0  0  0  0
   21.5071  -15.5014  -16.0088 C   0  0  0  0  0  0  0  0  0  0  0  0
   22.6738  -14.7780  -16.1337 C   0  0  0  0  0  0  0  0  0  0  0  0
   23.8924  -15.3416  -15.7737 C   0  0  0  0  0  0  0  0  0  0  0  0
   23.9918  -16.6259  -15.2840 C   0  0  0  0  0  0  0  0  0  0  0  0
   22.8119  -17.3475  -15.1617 C   0  0  0  0  0  0  0  0  0  0  0  0
   25.5523  -20.8981  -14.5958 C   0  0  0  0  0  0  0  0  0  0  0  0
   25.2711  -22.0953  -14.5247 O   0  0  0  0  0  0  0  0  0  0  0  0
   30.3452  -22.3488  -12.5550 C   0  0  0  0  0  0  0  0  0  0  0  0
   29.7847  -21.0856  -11.8516 C   0  0  1  0  0  0  0  0  0  0  0  0
   31.0038  -20.2821  -11.5167 C   0  0  0  0  0  0  0  0  0  0  0  0
   28.8418  -20.4906  -12.8180 C   0  0  0  0  0  0  0  0  0  0  0  0
   27.5686  -21.1715  -13.1144 C   0  0  2  0  0  0  0  0  0  0  0  0
   26.7691  -20.4398  -14.0383 N   0  0  0  0  0  0  0  0  0  0  0  0
   26.8291  -21.6469  -11.9255 C   0  0  0  0  0  0  0  0  0  0  0  0
   26.9445  -22.8083  -11.4463 O   0  0  0  0  0  0  0  0  0  0  0  0
   28.4301  -19.3943   -5.8364 C   0  0  0  0  0  0  0  0  0  0  0  0
   27.0403  -18.6485   -6.7072 S   0  0  0  0  0  0  0  0  0  0  0  0
   26.0432  -19.8534   -7.5945 C   0  0  0  0  0  0  0  0  0  0  0  0
   26.4589  -19.8751   -9.0473 C   0  0  0  0  0  0  0  0  0  0  0  0
   25.6196  -20.8321   -9.8593 C   0  0  2  0  0  0  0  0  0  0  0  0
   25.9240  -20.7812  -11.2489 N   0  0  0  0  0  0  0  0  0  0  0  0
   24.1710  -20.5502   -9.5877 C   0  0  0  0  0  0  0  0  0  0  0  0
   23.4650  -20.0818  -10.5131 O   0  0  0  0  0  0  0  0  0  0  0  0
   23.5888  -20.7825   -8.3737 O   0  0  0  0  0  0  0  0  0  0  0  0
  2 13  1  0
  2  1  1  6
  3  2  1  0
  4  3  1  0
  4  5  2  0
  6  5  1  0
  7 12  2  0
  7  6  1  0
  8  7  1  0
  9 10  1  0
  9  8  2  0
 10 11  2  0
 11 12  1  0
 12  4  1  0
 13 14  2  0
 16 15  1  6
 17 16  1  0
 18 16  1  0
 19 18  1  1
 20 19  1  0
 20 13  1  0
 21 19  1  0
 21 22  2  0
 23 24  1  0
 25 26  1  0
 25 24  1  0
 27 26  1  1
 27 28  1  0
 27 29  1  0
 28 21  1  0
 29 30  2  0
 29 31  1  0
M  END
$$$$
