WLM.pdb
     RDKit          3D

 31 32  0  0  1  0  0  0  0  0999 V2000
   25.9244  -24.4981  -17.0903 N   0  0  0  0  0  0  0  0  0  0  0  0
   25.0947  -23.3454  -17.3671 C   0  0  1  0  0  0  0  0  0  0  0  0
   23.6450  -23.7716  -17.4420 C   0  0  0  0  0  0  0  0  0  0  0  0
   23.3125  -24.5481  -18.6386 C   0  0  0  0  0  0  0  0  0  0  0  0
   23.1923  -25.9275  -18.6735 C   0  0  0  0  0  0  0  0  0  0  0  0
   22.8797  -26.2874  -19.9252 N   0  0  0  0  0  0  0  0  0  0  0  0
   22.7920  -25.1748  -20.7125 C   0  0  0  0  0  0  0  0  0  0  0  0
   22.5020  -25.0113  -22.0547 C   0  0  0  0  0  0  0  0  0  0  0  0
   22.4923  -23.7295  -22.5616 C   0  0  0  0  0  0  0  0  0  0  0  0
   22.7673  -22.6452  -21.7365 C   0  0  0  0  0  0  0  0  0  0  0  0
   23.0575  -22.7957  -20.3978 C   0  0  0  0  0  0  0  0  0  0  0  0
   23.0654  -24.0901  -19.8955 C   0  0  0  0  0  0  0  0  0  0  0  0
   25.2065  -22.4079  -16.2369 C   0  0  0  0  0  0  0  0  0  0  0  0
   25.4839  -22.8155  -15.1080 O   0  0  0  0  0  0  0  0  0  0  0  0
   27.9671  -17.8087  -16.7281 C   0  0  0  0  0  0  0  0  0  0  0  0
   27.3417  -19.1977  -16.4383 C   0  0  1  0  0  0  0  0  0  0  0  0
   28.3253  -19.8577  -15.5214 C   0  0  0  0  0  0  0  0  0  0  0  0
   26.0046  -18.9121  -15.8835 C   0  0  0  0  0  0  0  0  0  0  0  0
   25.1433  -20.0221  -15.4379 C   0  0  2  0  0  0  0  0  0  0  0  0
   24.9950  -21.0239  -16.4393 N   0  0  0  0  0  0  0  0  0  0  0  0
   23.8700  -19.6052  -14.8126 C   0  0  0  0  0  0  0  0  0  0  0  0
   23.7935  -18.7808  -13.8605 O   0  0  0  0  0  0  0  0  0  0  0  0
   15.9223  -20.3982  -15.2864 C   0  0  0  0  0  0  0  0  0  0  0  0
   17.5663  -20.6799  -15.9676 S   0  0  0  0  0  0  0  0  0  0  0  0
   18.8803  -20.1021  -14.8846 C   0  0  0  0  0  0  0  0  0  0  0  0
   20.2172  -20.3414  -15.5474 C   0  0  0  0  0  0  0  0  0  0  0  0
   21.3679  -19.9389  -14.6565 C   0  0  2  0  0  0  0  0  0  0  0  0
   22.6336  -20.1368  -15.2768 N   0  0  0  0  0  0  0  0  0  0  0  0
   21.2529  -20.6820  -13.3580 C   0  0  0  0  0  0  0  0  0  0  0  0
   21.6087  -21.8845  -13.3190 O   0  0  0  0  0  0  0  0  0  0  0  0
   20.7765  -20.1030  -12.2158 O   0  0  0  0  0  0  0  0  0  0  0  0
  2 13  1  0
  2  1  1  1
  3  2  1  0
  4  3  1  0
  4  5  2  0
  6  5  1  0
  7 12  2  0
  7  6  1  0
  8  7  1  0
  9 10  1  0
  9  8  2  0
 10 11  2  0
 11 12  1  0
 12  4  1  0
 13 14  2  0
 16 15  1  1
 17 16  1  0
 18 16  1  0
 19 18  1  6
 20 19  1  0
 20 13  1  0
 21 19  1  0
 21 22  2  0
 23 24  1  0
 25 26  1  0
 25 24  1  0
 27 26  1  6
 27 28  1  0
 27 29  1  0
 28 21  1  0
 29 30  2  0
 29 31  1  0
M  END
$$$$
