SPI.pdb
     RDKit          3D

 22 22  0  0  1  0  0  0  0  0999 V2000
   11.3361  -18.5337   22.0157 O   0  0  0  0  0  0  0  0  0  0  0  0
   12.0379  -17.7210   21.1806 C   0  0  0  0  0  0  0  0  0  0  0  0
   11.0667  -17.0415   20.2057 C   0  0  2  0  0  0  0  0  0  0  0  0
   11.9042  -16.1388   19.3735 N   0  0  0  0  0  0  0  0  0  0  0  0
   10.1202  -16.2017   20.9650 C   0  0  0  0  0  0  0  0  0  0  0  0
   10.5929  -15.1375   21.4648 O   0  0  0  0  0  0  0  0  0  0  0  0
    8.7468  -16.4743   21.1783 N   0  0  0  0  0  0  0  0  0  0  0  0
    8.0646  -17.6495   20.6929 C   0  0  0  0  0  0  0  0  0  0  0  0
    6.6158  -17.1614   20.5127 C   0  0  0  0  0  0  0  0  0  0  0  0
    6.4961  -16.3459   21.7856 C   0  0  0  0  0  0  0  0  0  0  0  0
    7.8182  -15.6607   21.8641 C   0  0  1  0  0  0  0  0  0  0  0  0
    8.2176  -15.3183   23.2512 C   0  0  0  0  0  0  0  0  0  0  0  0
    9.2723  -15.8421   23.6763 O   0  0  0  0  0  0  0  0  0  0  0  0
    6.9471  -10.9431   27.5519 C   0  0  0  0  0  0  0  0  0  0  0  0
    7.5262  -12.2695   27.2164 C   0  0  0  0  0  0  0  0  0  0  0  0
    7.1818  -12.8370   25.8786 C   0  0  2  0  0  0  0  0  0  0  0  0
    5.7034  -12.7666   25.5552 C   0  0  0  0  0  0  0  0  0  0  0  0
    7.8874  -14.0467   25.4368 C   0  0  2  0  0  0  0  0  0  0  0  0
    7.4840  -14.4568   24.0828 N   0  0  0  0  0  0  0  0  0  0  0  0
    7.9823  -15.1937   26.3305 C   0  0  0  0  0  0  0  0  0  0  0  0
    8.7046  -15.2586   27.3615 O   0  0  0  0  0  0  0  0  0  0  0  0
    7.2485  -16.3887   26.1160 O   0  0  0  0  0  0  0  0  0  0  0  0
  1  2  1  0
  2  3  1  0
  3  4  1  6
  3  5  1  0
  5  7  1  0
  5  6  2  0
  7  8  1  0
  9  8  1  0
 10 11  1  0
 10  9  1  0
 11  7  1  0
 11 12  1  1
 12 19  1  0
 13 12  2  0
 15 14  1  0
 16 17  1  1
 16 15  1  0
 18 20  1  0
 18 16  1  0
 18 19  1  6
 20 22  1  0
 21 20  2  0
M  END
$$$$
