SPI.pdb
     RDKit          3D

 22 22  0  0  1  0  0  0  0  0999 V2000
   10.5453  -13.3577   20.2563 O   0  0  0  0  0  0  0  0  0  0  0  0
   10.1083  -13.7843   19.0409 C   0  0  0  0  0  0  0  0  0  0  0  0
    8.5736  -13.7813   19.0284 C   0  0  2  0  0  0  0  0  0  0  0  0
    8.1799  -12.3674   18.7942 N   0  0  0  0  0  0  0  0  0  0  0  0
    8.0734  -14.1712   20.3608 C   0  0  0  0  0  0  0  0  0  0  0  0
    7.9497  -13.2367   21.2076 O   0  0  0  0  0  0  0  0  0  0  0  0
    7.7201  -15.4802   20.7704 N   0  0  0  0  0  0  0  0  0  0  0  0
    7.8682  -16.6582   19.9504 C   0  0  0  0  0  0  0  0  0  0  0  0
    6.7525  -17.5844   20.4670 C   0  0  0  0  0  0  0  0  0  0  0  0
    6.9210  -17.3284   21.9522 C   0  0  0  0  0  0  0  0  0  0  0  0
    7.1552  -15.8568   22.0088 C   0  0  1  0  0  0  0  0  0  0  0  0
    7.9462  -15.4359   23.1913 C   0  0  0  0  0  0  0  0  0  0  0  0
    9.1771  -15.2866   23.0179 O   0  0  0  0  0  0  0  0  0  0  0  0
    5.7248  -11.7878   26.2920 C   0  0  0  0  0  0  0  0  0  0  0  0
    6.7008  -12.6386   25.5633 C   0  0  0  0  0  0  0  0  0  0  0  0
    7.4149  -13.6801   26.3605 C   0  0  2  0  0  0  0  0  0  0  0  0
    8.0939  -13.1325   27.5991 C   0  0  0  0  0  0  0  0  0  0  0  0
    8.1363  -14.7338   25.6354 C   0  0  2  0  0  0  0  0  0  0  0  0
    7.3887  -15.2049   24.4592 N   0  0  0  0  0  0  0  0  0  0  0  0
    8.7191  -15.8477   26.3724 C   0  0  0  0  0  0  0  0  0  0  0  0
    8.1631  -16.9609   26.5738 O   0  0  0  0  0  0  0  0  0  0  0  0
   10.0103  -15.7818   26.9563 O   0  0  0  0  0  0  0  0  0  0  0  0
  1  2  1  0
  2  3  1  0
  3  4  1  1
  3  5  1  0
  5  7  1  0
  5  6  2  0
  7  8  1  0
  9  8  1  0
 10 11  1  0
 10  9  1  0
 11  7  1  0
 11 12  1  1
 12 19  1  0
 13 12  2  0
 15 14  1  0
 16 17  1  6
 16 15  1  0
 18 20  1  0
 18 16  1  0
 18 19  1  6
 20 22  1  0
 21 20  2  0
M  END
$$$$
