SPI.pdb
     RDKit          3D

 22 22  0  0  1  0  0  0  0  0999 V2000
    7.5378  -17.2935   17.3526 O   0  0  0  0  0  0  0  0  0  0  0  0
    8.6050  -17.1166   16.5278 C   0  0  0  0  0  0  0  0  0  0  0  0
    9.0210  -15.6395   16.5528 C   0  0  2  0  0  0  0  0  0  0  0  0
   10.2206  -15.5487   15.6801 N   0  0  0  0  0  0  0  0  0  0  0  0
    9.4329  -15.2711   17.9211 C   0  0  0  0  0  0  0  0  0  0  0  0
   10.5275  -15.7634   18.3277 O   0  0  0  0  0  0  0  0  0  0  0  0
    8.7242  -14.4236   18.8073 N   0  0  0  0  0  0  0  0  0  0  0  0
    7.5347  -13.6872   18.4538 C   0  0  0  0  0  0  0  0  0  0  0  0
    7.5963  -12.4603   19.3813 C   0  0  0  0  0  0  0  0  0  0  0  0
    8.0411  -13.1625   20.6496 C   0  0  0  0  0  0  0  0  0  0  0  0
    9.0544  -14.1358   20.1500 C   0  0  1  0  0  0  0  0  0  0  0  0
    9.1890  -15.3345   21.0136 C   0  0  0  0  0  0  0  0  0  0  0  0
    8.4851  -16.3248   20.7116 O   0  0  0  0  0  0  0  0  0  0  0  0
   13.9464  -17.1630   21.8242 C   0  0  0  0  0  0  0  0  0  0  0  0
   12.4792  -16.9555   21.7159 C   0  0  0  0  0  0  0  0  0  0  0  0
   11.6999  -16.9707   22.9898 C   0  0  2  0  0  0  0  0  0  0  0  0
   12.0642  -18.1202   23.9069 C   0  0  0  0  0  0  0  0  0  0  0  0
   10.2784  -16.6064   22.9368 C   0  0  2  0  0  0  0  0  0  0  0  0
   10.0476  -15.4029   22.1228 N   0  0  0  0  0  0  0  0  0  0  0  0
    9.4960  -16.5716   24.1656 C   0  0  0  0  0  0  0  0  0  0  0  0
    9.1956  -15.5315   24.8111 O   0  0  0  0  0  0  0  0  0  0  0  0
    8.9833  -17.7455   24.7752 O   0  0  0  0  0  0  0  0  0  0  0  0
  1  2  1  0
  2  3  1  0
  3  4  1  6
  3  5  1  0
  5  7  1  0
  5  6  2  0
  7  8  1  0
  9  8  1  0
 10 11  1  0
 10  9  1  0
 11  7  1  0
 11 12  1  1
 12 19  1  0
 13 12  2  0
 15 14  1  0
 16 17  1  6
 16 15  1  0
 18 20  1  0
 18 16  1  0
 18 19  1  1
 20 22  1  0
 21 20  2  0
M  END
$$$$
