SPI.pdb
     RDKit          3D

 22 22  0  0  1  0  0  0  0  0999 V2000
    7.1892  -18.3201   22.4624 O   0  0  0  0  0  0  0  0  0  0  0  0
    8.0340  -18.8815   21.5561 C   0  0  0  0  0  0  0  0  0  0  0  0
    8.2913  -17.8813   20.4208 C   0  0  2  0  0  0  0  0  0  0  0  0
    9.3755  -18.4807   19.5998 N   0  0  0  0  0  0  0  0  0  0  0  0
    8.8041  -16.6194   20.9884 C   0  0  0  0  0  0  0  0  0  0  0  0
    9.9837  -16.6520   21.4503 O   0  0  0  0  0  0  0  0  0  0  0  0
    8.1050  -15.3896   21.0581 N   0  0  0  0  0  0  0  0  0  0  0  0
    6.8335  -15.1382   20.4238 C   0  0  0  0  0  0  0  0  0  0  0  0
    6.8718  -13.6229   20.1558 C   0  0  0  0  0  0  0  0  0  0  0  0
    7.4776  -13.1794   21.4733 C   0  0  0  0  0  0  0  0  0  0  0  0
    8.5220  -14.2145   21.7214 C   0  0  1  0  0  0  0  0  0  0  0  0
    8.8268  -14.4041   23.1608 C   0  0  0  0  0  0  0  0  0  0  0  0
    9.7536  -13.7079   23.6339 O   0  0  0  0  0  0  0  0  0  0  0  0
    7.5190  -11.7074   27.1767 C   0  0  0  0  0  0  0  0  0  0  0  0
    8.1712  -12.9673   26.7356 C   0  0  0  0  0  0  0  0  0  0  0  0
    7.4058  -13.8253   25.7826 C   0  0  2  0  0  0  0  0  0  0  0  0
    5.9052  -13.7555   25.9787 C   0  0  0  0  0  0  0  0  0  0  0  0
    7.9565  -15.1430   25.4411 C   0  0  2  0  0  0  0  0  0  0  0  0
    8.1397  -15.3050   23.9904 N   0  0  0  0  0  0  0  0  0  0  0  0
    7.3829  -16.3418   26.0387 C   0  0  0  0  0  0  0  0  0  0  0  0
    6.5007  -17.0710   25.5104 O   0  0  0  0  0  0  0  0  0  0  0  0
    7.7734  -16.8168   27.3171 O   0  0  0  0  0  0  0  0  0  0  0  0
  1  2  1  0
  2  3  1  0
  3  4  1  6
  3  5  1  0
  5  7  1  0
  5  6  2  0
  7  8  1  0
  9  8  1  0
 10 11  1  0
 10  9  1  0
 11  7  1  0
 11 12  1  1
 12 19  1  0
 13 12  2  0
 15 14  1  0
 16 17  1  1
 16 15  1  0
 18 20  1  0
 18 16  1  0
 18 19  1  6
 20 22  1  0
 21 20  2  0
M  END
$$$$
