SPI.pdb
     RDKit          3D

 22 22  0  0  1  0  0  0  0  0999 V2000
   11.4654  -19.4054   20.6870 O   0  0  0  0  0  0  0  0  0  0  0  0
   10.9888  -18.3601   21.4153 C   0  0  0  0  0  0  0  0  0  0  0  0
   11.0012  -17.0946   20.5471 C   0  0  2  0  0  0  0  0  0  0  0  0
   12.4237  -16.6687   20.4841 N   0  0  0  0  0  0  0  0  0  0  0  0
   10.2433  -16.0273   21.2283 C   0  0  0  0  0  0  0  0  0  0  0  0
   10.8979  -15.3062   22.0390 O   0  0  0  0  0  0  0  0  0  0  0  0
    8.8675  -15.7388   21.0554 N   0  0  0  0  0  0  0  0  0  0  0  0
    8.0431  -16.2964   20.0106 C   0  0  0  0  0  0  0  0  0  0  0  0
    6.9778  -15.2076   19.7892 C   0  0  0  0  0  0  0  0  0  0  0  0
    6.7138  -14.8566   21.2407 C   0  0  0  0  0  0  0  0  0  0  0  0
    8.0811  -14.8628   21.8357 C   0  0  1  0  0  0  0  0  0  0  0  0
    8.0856  -15.1708   23.2869 C   0  0  0  0  0  0  0  0  0  0  0  0
    8.5837  -16.2685   23.6254 O   0  0  0  0  0  0  0  0  0  0  0  0
    6.6300  -10.9500   26.4897 C   0  0  0  0  0  0  0  0  0  0  0  0
    7.4960  -12.0881   26.0872 C   0  0  0  0  0  0  0  0  0  0  0  0
    7.0452  -13.4539   26.4893 C   0  0  2  0  0  0  0  0  0  0  0  0
    6.9697  -13.6475   27.9899 C   0  0  0  0  0  0  0  0  0  0  0  0
    7.5280  -14.6004   25.7091 C   0  0  2  0  0  0  0  0  0  0  0  0
    7.5699  -14.3083   24.2678 N   0  0  0  0  0  0  0  0  0  0  0  0
    6.9830  -15.9276   25.9639 C   0  0  0  0  0  0  0  0  0  0  0  0
    7.4509  -16.7647   26.7819 O   0  0  0  0  0  0  0  0  0  0  0  0
    5.8367  -16.4222   25.2901 O   0  0  0  0  0  0  0  0  0  0  0  0
  1  2  1  0
  2  3  1  0
  3  4  1  1
  3  5  1  0
  5  7  1  0
  5  6  2  0
  7  8  1  0
  9  8  1  0
 10 11  1  0
 10  9  1  0
 11  7  1  0
 11 12  1  1
 12 19  1  0
 13 12  2  0
 15 14  1  0
 16 17  1  1
 16 15  1  0
 18 20  1  0
 18 16  1  0
 18 19  1  6
 20 22  1  0
 21 20  2  0
M  END
$$$$
