SPI.pdb
     RDKit          3D

 22 22  0  0  1  0  0  0  0  0999 V2000
    9.8735  -19.1776   21.4813 O   0  0  0  0  0  0  0  0  0  0  0  0
   11.0030  -18.6024   20.9877 C   0  0  0  0  0  0  0  0  0  0  0  0
   10.6218  -17.3478   20.1902 C   0  0  2  0  0  0  0  0  0  0  0  0
   11.9093  -16.7435   19.7588 N   0  0  0  0  0  0  0  0  0  0  0  0
    9.9522  -16.3846   21.0855 C   0  0  0  0  0  0  0  0  0  0  0  0
   10.6918  -15.7999   21.9322 O   0  0  0  0  0  0  0  0  0  0  0  0
    8.5743  -16.0571   21.0796 N   0  0  0  0  0  0  0  0  0  0  0  0
    7.5984  -16.6555   20.2011 C   0  0  0  0  0  0  0  0  0  0  0  0
    6.5434  -15.5454   20.0451 C   0  0  0  0  0  0  0  0  0  0  0  0
    6.4921  -15.0832   21.4885 C   0  0  0  0  0  0  0  0  0  0  0  0
    7.9277  -15.0991   21.8914 C   0  0  1  0  0  0  0  0  0  0  0  0
    8.1239  -15.3040   23.3476 C   0  0  0  0  0  0  0  0  0  0  0  0
    8.7784  -16.3155   23.6881 O   0  0  0  0  0  0  0  0  0  0  0  0
    5.9507  -11.7636   27.6228 C   0  0  0  0  0  0  0  0  0  0  0  0
    6.1883  -12.8158   26.6011 C   0  0  0  0  0  0  0  0  0  0  0  0
    7.5655  -13.3889   26.5307 C   0  0  2  0  0  0  0  0  0  0  0  0
    8.6488  -12.3407   26.3794 C   0  0  0  0  0  0  0  0  0  0  0  0
    7.7591  -14.6371   25.7817 C   0  0  2  0  0  0  0  0  0  0  0  0
    7.6212  -14.4365   24.3308 N   0  0  0  0  0  0  0  0  0  0  0  0
    7.0796  -15.8512   26.2146 C   0  0  0  0  0  0  0  0  0  0  0  0
    6.0059  -16.2998   25.7299 O   0  0  0  0  0  0  0  0  0  0  0  0
    7.5768  -16.6703   27.2608 O   0  0  0  0  0  0  0  0  0  0  0  0
  1  2  1  0
  2  3  1  0
  3  4  1  1
  3  5  1  0
  5  7  1  0
  5  6  2  0
  7  8  1  0
  9  8  1  0
 10 11  1  0
 10  9  1  0
 11  7  1  0
 11 12  1  1
 12 19  1  0
 13 12  2  0
 15 14  1  0
 16 17  1  6
 16 15  1  0
 18 20  1  0
 18 16  1  0
 18 19  1  6
 20 22  1  0
 21 20  2  0
M  END
$$$$
