EVW.pdb
     RDKit          3D

 31 32  0  0  1  0  0  0  0  0999 V2000
   25.7701  -20.1273  -20.0582 N   0  0  0  0  0  0  0  0  0  0  0  0
   26.3215  -20.0803  -18.7138 C   0  0  1  0  0  0  0  0  0  0  0  0
   27.6382  -19.3366  -18.8135 C   0  0  0  0  0  0  0  0  0  0  0  0
   27.4223  -17.8956  -19.2167 C   0  0  0  0  0  0  0  0  0  0  0  0
   28.6738  -17.1524  -19.0486 C   0  0  0  0  0  0  0  0  0  0  0  0
   29.7662  -17.6927  -19.3413 O   0  0  0  0  0  0  0  0  0  0  0  0
   25.3904  -19.4451  -17.7678 C   0  0  0  0  0  0  0  0  0  0  0  0
   24.8885  -18.3333  -18.0571 O   0  0  0  0  0  0  0  0  0  0  0  0
   28.7178  -15.8459  -18.5694 O   0  0  0  0  0  0  0  0  0  0  0  0
   22.2454  -20.8891  -16.7149 C   0  0  0  0  0  0  0  0  0  0  0  0
   22.6746  -19.5267  -16.2166 C   0  0  2  0  0  0  0  0  0  0  0  0
   22.5625  -18.4788  -17.3074 C   0  0  0  0  0  0  0  0  0  0  0  0
   24.0663  -19.5704  -15.6279 C   0  0  2  0  0  0  0  0  0  0  0  0
   25.0528  -20.0689  -16.5376 N   0  0  0  0  0  0  0  0  0  0  0  0
   24.0384  -20.3572  -14.3672 C   0  0  0  0  0  0  0  0  0  0  0  0
   24.5667  -21.5004  -14.3246 O   0  0  0  0  0  0  0  0  0  0  0  0
   23.4298  -19.8593  -13.1956 N   0  0  0  0  0  0  0  0  0  0  0  0
   23.5290  -20.5078  -11.9023 C   0  0  1  0  0  0  0  0  0  0  0  0
   24.6774  -19.8855  -11.1391 C   0  0  0  0  0  0  0  0  0  0  0  0
   25.9111  -20.6684  -11.2242 C   0  0  0  0  0  0  0  0  0  0  0  0
   26.0032  -22.0419  -11.2372 C   0  0  0  0  0  0  0  0  0  0  0  0
   27.2998  -22.4165  -11.3243 N   0  0  0  0  0  0  0  0  0  0  0  0
   28.0698  -21.3077  -11.3692 C   0  0  0  0  0  0  0  0  0  0  0  0
   29.4328  -21.1518  -11.4582 C   0  0  0  0  0  0  0  0  0  0  0  0
   29.9958  -19.8918  -11.4891 C   0  0  0  0  0  0  0  0  0  0  0  0
   29.1560  -18.8070  -11.4284 C   0  0  0  0  0  0  0  0  0  0  0  0
   27.7912  -18.9588  -11.3392 C   0  0  0  0  0  0  0  0  0  0  0  0
   27.2075  -20.2071  -11.3069 C   0  0  0  0  0  0  0  0  0  0  0  0
   22.2527  -20.4351  -11.1516 C   0  0  0  0  0  0  0  0  0  0  0  0
   21.9505  -21.3433  -10.1596 O   0  0  0  0  0  0  0  0  0  0  0  0
   21.4162  -19.5344  -11.4101 O   0  0  0  0  0  0  0  0  0  0  0  0
  2  3  1  0
  2  1  1  6
  3  4  1  0
  4  5  1  0
  5  9  1  0
  5  6  2  0
  7 14  1  0
  7  2  1  0
  8  7  2  0
 11 10  1  6
 12 11  1  0
 13 11  1  0
 13 14  1  6
 13 15  1  0
 15 17  1  0
 16 15  2  0
 17 18  1  0
 18 19  1  1
 19 20  1  0
 20 21  2  0
 20 28  1  0
 21 22  1  0
 22 23  1  0
 23 24  2  0
 24 25  1  0
 26 25  2  0
 27 26  1  0
 28 27  2  0
 28 23  1  0
 29 30  1  0
 29 18  1  0
 31 29  2  0
M  END
$$$$
