EVW.pdb
     RDKit          3D

 31 32  0  0  1  0  0  0  0  0999 V2000
   28.1694  -20.4427  -17.3452 N   0  0  0  0  0  0  0  0  0  0  0  0
   27.7066  -21.3104  -16.2744 C   0  0  1  0  0  0  0  0  0  0  0  0
   28.9353  -22.0004  -15.7169 C   0  0  0  0  0  0  0  0  0  0  0  0
   29.6032  -22.8589  -16.7670 C   0  0  0  0  0  0  0  0  0  0  0  0
   28.7280  -23.9859  -17.1003 C   0  0  0  0  0  0  0  0  0  0  0  0
   27.7674  -24.2752  -16.3489 O   0  0  0  0  0  0  0  0  0  0  0  0
   26.9727  -20.5571  -15.2451 C   0  0  0  0  0  0  0  0  0  0  0  0
   27.2193  -19.3381  -15.0871 O   0  0  0  0  0  0  0  0  0  0  0  0
   28.9090  -24.7731  -18.2342 O   0  0  0  0  0  0  0  0  0  0  0  0
   23.5313  -19.6927  -15.1602 C   0  0  0  0  0  0  0  0  0  0  0  0
   23.7238  -20.4329  -13.8550 C   0  0  2  0  0  0  0  0  0  0  0  0
   22.8824  -19.8280  -12.7474 C   0  0  0  0  0  0  0  0  0  0  0  0
   25.1844  -20.4993  -13.4712 C   0  0  2  0  0  0  0  0  0  0  0  0
   25.9936  -21.1864  -14.4315 N   0  0  0  0  0  0  0  0  0  0  0  0
   25.3068  -21.1058  -12.1197 C   0  0  0  0  0  0  0  0  0  0  0  0
   25.0339  -22.3238  -11.9472 O   0  0  0  0  0  0  0  0  0  0  0  0
   25.7255  -20.3512  -11.0034 N   0  0  0  0  0  0  0  0  0  0  0  0
   25.7927  -20.8822   -9.6556 C   0  0  1  0  0  0  0  0  0  0  0  0
   26.8304  -20.0993   -8.8816 C   0  0  0  0  0  0  0  0  0  0  0  0
   26.9196  -20.5015   -7.4772 C   0  0  0  0  0  0  0  0  0  0  0  0
   26.2336  -21.5364   -6.8827 C   0  0  0  0  0  0  0  0  0  0  0  0
   26.5634  -21.6167   -5.5735 N   0  0  0  0  0  0  0  0  0  0  0  0
   27.4605  -20.6471   -5.2918 C   0  0  0  0  0  0  0  0  0  0  0  0
   28.0970  -20.3116   -4.1203 C   0  0  0  0  0  0  0  0  0  0  0  0
   28.9899  -19.2596   -4.0817 C   0  0  0  0  0  0  0  0  0  0  0  0
   29.2199  -18.5640   -5.2432 C   0  0  0  0  0  0  0  0  0  0  0  0
   28.5848  -18.8966   -6.4178 C   0  0  0  0  0  0  0  0  0  0  0  0
   27.6897  -19.9431   -6.4795 C   0  0  0  0  0  0  0  0  0  0  0  0
   24.4676  -20.8652   -8.9914 C   0  0  0  0  0  0  0  0  0  0  0  0
   24.0595  -21.8997   -8.1768 O   0  0  0  0  0  0  0  0  0  0  0  0
   23.6859  -19.8968   -9.1618 O   0  0  0  0  0  0  0  0  0  0  0  0
  2  3  1  0
  2  1  1  6
  3  4  1  0
  4  5  1  0
  5  9  1  0
  5  6  2  0
  7 14  1  0
  7  2  1  0
  8  7  2  0
 11 10  1  6
 12 11  1  0
 13 11  1  0
 13 14  1  6
 13 15  1  0
 15 17  1  0
 16 15  2  0
 17 18  1  0
 18 19  1  1
 19 20  1  0
 20 21  2  0
 20 28  1  0
 21 22  1  0
 22 23  1  0
 23 24  2  0
 24 25  1  0
 26 25  2  0
 27 26  1  0
 28 27  2  0
 28 23  1  0
 29 30  1  0
 29 18  1  0
 31 29  2  0
M  END
$$$$
