EVW.pdb
     RDKit          3D

 31 32  0  0  1  0  0  0  0  0999 V2000
   27.7616  -20.3783  -17.5757 N   0  0  0  0  0  0  0  0  0  0  0  0
   27.6164  -21.1742  -16.3678 C   0  0  1  0  0  0  0  0  0  0  0  0
   29.0055  -21.6542  -15.9981 C   0  0  0  0  0  0  0  0  0  0  0  0
   29.5869  -22.5316  -17.0834 C   0  0  0  0  0  0  0  0  0  0  0  0
   28.7402  -23.7150  -17.2557 C   0  0  0  0  0  0  0  0  0  0  0  0
   28.3528  -24.3583  -16.2521 O   0  0  0  0  0  0  0  0  0  0  0  0
   26.9836  -20.4050  -15.2846 C   0  0  0  0  0  0  0  0  0  0  0  0
   27.3229  -19.2119  -15.1027 O   0  0  0  0  0  0  0  0  0  0  0  0
   28.3319  -24.1762  -18.5043 O   0  0  0  0  0  0  0  0  0  0  0  0
   23.1541  -21.5260  -13.6687 C   0  0  0  0  0  0  0  0  0  0  0  0
   23.8202  -20.1678  -13.6517 C   0  0  2  0  0  0  0  0  0  0  0  0
   23.5240  -19.3912  -14.9204 C   0  0  0  0  0  0  0  0  0  0  0  0
   25.3072  -20.2882  -13.4073 C   0  0  2  0  0  0  0  0  0  0  0  0
   25.9987  -20.9903  -14.4455 N   0  0  0  0  0  0  0  0  0  0  0  0
   25.5342  -20.9150  -12.0788 C   0  0  0  0  0  0  0  0  0  0  0  0
   25.6095  -22.1686  -11.9767 O   0  0  0  0  0  0  0  0  0  0  0  0
   25.6707  -20.1407  -10.9071 N   0  0  0  0  0  0  0  0  0  0  0  0
   25.8261  -20.7104   -9.5826 C   0  0  1  0  0  0  0  0  0  0  0  0
   26.8676  -19.9086   -8.8335 C   0  0  0  0  0  0  0  0  0  0  0  0
   27.0160  -20.3262   -7.4386 C   0  0  0  0  0  0  0  0  0  0  0  0
   26.3144  -21.3311   -6.8117 C   0  0  0  0  0  0  0  0  0  0  0  0
   26.7133  -21.4382   -5.5238 N   0  0  0  0  0  0  0  0  0  0  0  0
   27.6716  -20.5160   -5.2883 C   0  0  0  0  0  0  0  0  0  0  0  0
   28.3892  -20.2216   -4.1531 C   0  0  0  0  0  0  0  0  0  0  0  0
   29.3336  -19.2149   -4.1595 C   0  0  0  0  0  0  0  0  0  0  0  0
   29.5317  -18.5220   -5.3285 C   0  0  0  0  0  0  0  0  0  0  0  0
   28.8156  -18.8135   -6.4669 C   0  0  0  0  0  0  0  0  0  0  0  0
   27.8678  -19.8143   -6.4832 C   0  0  0  0  0  0  0  0  0  0  0  0
   24.5358  -20.7709   -8.8554 C   0  0  0  0  0  0  0  0  0  0  0  0
   24.2970  -21.7307   -7.8952 O   0  0  0  0  0  0  0  0  0  0  0  0
   23.6283  -19.9389   -9.1050 O   0  0  0  0  0  0  0  0  0  0  0  0
  2  3  1  0
  2  1  1  6
  3  4  1  0
  4  5  1  0
  5  9  1  0
  5  6  2  0
  7 14  1  0
  7  2  1  0
  8  7  2  0
 11 10  1  6
 12 11  1  0
 13 11  1  0
 13 14  1  6
 13 15  1  0
 15 17  1  0
 16 15  2  0
 17 18  1  0
 18 19  1  1
 19 20  1  0
 20 21  2  0
 20 28  1  0
 21 22  1  0
 22 23  1  0
 23 24  2  0
 24 25  1  0
 26 25  2  0
 27 26  1  0
 28 27  2  0
 28 23  1  0
 29 30  1  0
 29 18  1  0
 31 29  2  0
M  END
$$$$
