EVW.pdb
     RDKit          3D

 31 32  0  0  1  0  0  0  0  0999 V2000
   27.7369  -22.0802  -18.3356 N   0  0  0  0  0  0  0  0  0  0  0  0
   26.9018  -22.1048  -17.1458 C   0  0  1  0  0  0  0  0  0  0  0  0
   26.7147  -23.5635  -16.7803 C   0  0  0  0  0  0  0  0  0  0  0  0
   25.7583  -24.2465  -17.7314 C   0  0  0  0  0  0  0  0  0  0  0  0
   24.3807  -23.9510  -17.3291 C   0  0  0  0  0  0  0  0  0  0  0  0
   23.9195  -24.4403  -16.2713 O   0  0  0  0  0  0  0  0  0  0  0  0
   27.4978  -21.3252  -16.0491 C   0  0  0  0  0  0  0  0  0  0  0  0
   28.5439  -20.6686  -16.2637 O   0  0  0  0  0  0  0  0  0  0  0  0
   23.5342  -23.1360  -18.0758 O   0  0  0  0  0  0  0  0  0  0  0  0
   25.6508  -18.5992  -14.1751 C   0  0  0  0  0  0  0  0  0  0  0  0
   27.1167  -18.9549  -14.0599 C   0  0  2  0  0  0  0  0  0  0  0  0
   27.8761  -18.5830  -15.3191 C   0  0  0  0  0  0  0  0  0  0  0  0
   27.3023  -20.4134  -13.7085 C   0  0  2  0  0  0  0  0  0  0  0  0
   26.9090  -21.3050  -14.7570 N   0  0  0  0  0  0  0  0  0  0  0  0
   26.5801  -20.7061  -12.4428 C   0  0  0  0  0  0  0  0  0  0  0  0
   25.3270  -20.8385  -12.4469 O   0  0  0  0  0  0  0  0  0  0  0  0
   27.2616  -20.8433  -11.2149 N   0  0  0  0  0  0  0  0  0  0  0  0
   26.5917  -21.0216   -9.9411 C   0  0  1  0  0  0  0  0  0  0  0  0
   27.6363  -21.0409   -8.8470 C   0  0  0  0  0  0  0  0  0  0  0  0
   27.0649  -20.8864   -7.5084 C   0  0  0  0  0  0  0  0  0  0  0  0
   25.8136  -21.2959   -7.1063 C   0  0  0  0  0  0  0  0  0  0  0  0
   25.6250  -20.9900   -5.8024 N   0  0  0  0  0  0  0  0  0  0  0  0
   26.7366  -20.3821   -5.3342 C   0  0  0  0  0  0  0  0  0  0  0  0
   27.0437  -19.8849   -4.0897 C   0  0  0  0  0  0  0  0  0  0  0  0
   28.2694  -19.2969   -3.8505 C   0  0  0  0  0  0  0  0  0  0  0  0
   29.1657  -19.2253   -4.8885 C   0  0  0  0  0  0  0  0  0  0  0  0
   28.8621  -19.7219   -6.1355 C   0  0  0  0  0  0  0  0  0  0  0  0
   27.6446  -20.3130   -6.3969 C   0  0  0  0  0  0  0  0  0  0  0  0
   25.5601  -19.9819   -9.7124 C   0  0  0  0  0  0  0  0  0  0  0  0
   24.3011  -20.3079   -9.2552 O   0  0  0  0  0  0  0  0  0  0  0  0
   25.8191  -18.7729   -9.9340 O   0  0  0  0  0  0  0  0  0  0  0  0
  2  3  1  0
  2  1  1  6
  3  4  1  0
  4  5  1  0
  5  9  1  0
  5  6  2  0
  7 14  1  0
  7  2  1  0
  8  7  2  0
 11 10  1  6
 12 11  1  0
 13 11  1  0
 13 14  1  6
 13 15  1  0
 15 17  1  0
 16 15  2  0
 17 18  1  0
 18 19  1  1
 19 20  1  0
 20 21  2  0
 20 28  1  0
 21 22  1  0
 22 23  1  0
 23 24  2  0
 24 25  1  0
 26 25  2  0
 27 26  1  0
 28 27  2  0
 28 23  1  0
 29 30  1  0
 29 18  1  0
 31 29  2  0
M  END
$$$$
