EVW.pdb
     RDKit          3D

 31 32  0  0  1  0  0  0  0  0999 V2000
   15.7851  -10.0363  -18.1787 N   0  0  0  0  0  0  0  0  0  0  0  0
   16.6050   -9.5308  -17.0898 C   0  0  1  0  0  0  0  0  0  0  0  0
   17.5725  -10.6396  -16.7277 C   0  0  0  0  0  0  0  0  0  0  0  0
   17.3185  -11.1503  -15.3275 C   0  0  0  0  0  0  0  0  0  0  0  0
   18.2438  -12.2486  -15.0368 C   0  0  0  0  0  0  0  0  0  0  0  0
   19.4809  -12.0562  -15.0954 O   0  0  0  0  0  0  0  0  0  0  0  0
   17.2952   -8.2860  -17.4636 C   0  0  0  0  0  0  0  0  0  0  0  0
   17.7103   -8.1460  -18.6382 O   0  0  0  0  0  0  0  0  0  0  0  0
   17.8138  -13.5267  -14.6901 O   0  0  0  0  0  0  0  0  0  0  0  0
   16.1933   -4.6074  -16.1568 C   0  0  0  0  0  0  0  0  0  0  0  0
   17.2033   -4.9120  -17.2410 C   0  0  2  0  0  0  0  0  0  0  0  0
   16.5210   -5.2444  -18.5542 C   0  0  0  0  0  0  0  0  0  0  0  0
   18.1535   -6.0078  -16.8146 C   0  0  2  0  0  0  0  0  0  0  0  0
   17.4976   -7.2454  -16.5189 N   0  0  0  0  0  0  0  0  0  0  0  0
   18.9640   -5.5303  -15.6639 C   0  0  0  0  0  0  0  0  0  0  0  0
   18.5378   -5.6771  -14.4872 O   0  0  0  0  0  0  0  0  0  0  0  0
   20.2167   -4.9073  -15.8470 N   0  0  0  0  0  0  0  0  0  0  0  0
   21.0434   -4.4314  -14.7546 C   0  0  1  0  0  0  0  0  0  0  0  0
   22.4584   -4.9194  -14.9744 C   0  0  0  0  0  0  0  0  0  0  0  0
   22.5860   -6.3730  -14.8603 C   0  0  0  0  0  0  0  0  0  0  0  0
   23.2085   -7.2077  -15.7607 C   0  0  0  0  0  0  0  0  0  0  0  0
   23.1336   -8.4879  -15.3309 N   0  0  0  0  0  0  0  0  0  0  0  0
   22.4686   -8.5129  -14.1556 C   0  0  0  0  0  0  0  0  0  0  0  0
   22.1339   -9.5550  -13.3236 C   0  0  0  0  0  0  0  0  0  0  0  0
   21.4385   -9.3251  -12.1536 C   0  0  0  0  0  0  0  0  0  0  0  0
   21.0943   -8.0309  -11.8498 C   0  0  0  0  0  0  0  0  0  0  0  0
   21.4275   -6.9850  -12.6799 C   0  0  0  0  0  0  0  0  0  0  0  0
   22.1215   -7.1913  -13.8529 C   0  0  0  0  0  0  0  0  0  0  0  0
   20.9745   -2.9572  -14.6150 C   0  0  0  0  0  0  0  0  0  0  0  0
   21.5220   -2.3128  -13.5263 O   0  0  0  0  0  0  0  0  0  0  0  0
   20.4095   -2.2631  -15.4964 O   0  0  0  0  0  0  0  0  0  0  0  0
  2  3  1  0
  2  1  1  6
  3  4  1  0
  4  5  1  0
  5  9  1  0
  5  6  2  0
  7 14  1  0
  7  2  1  0
  8  7  2  0
 11 10  1  1
 12 11  1  0
 13 11  1  0
 13 14  1  1
 13 15  1  0
 15 17  1  0
 16 15  2  0
 17 18  1  0
 18 19  1  6
 19 20  1  0
 20 21  2  0
 20 28  1  0
 21 22  1  0
 22 23  1  0
 23 24  2  0
 24 25  1  0
 26 25  2  0
 27 26  1  0
 28 27  2  0
 28 23  1  0
 29 30  1  0
 29 18  1  0
 31 29  2  0
M  END
$$$$
