EVW.pdb
     RDKit          3D

 31 32  0  0  1  0  0  0  0  0999 V2000
   24.8756  -18.6176  -16.0421 N   0  0  0  0  0  0  0  0  0  0  0  0
   25.2059  -18.2440  -14.6765 C   0  0  1  0  0  0  0  0  0  0  0  0
   23.9894  -17.5340  -14.1173 C   0  0  0  0  0  0  0  0  0  0  0  0
   23.7502  -16.2201  -14.8259 C   0  0  0  0  0  0  0  0  0  0  0  0
   22.4145  -16.2303  -15.4283 C   0  0  0  0  0  0  0  0  0  0  0  0
   21.4001  -16.3280  -14.6987 O   0  0  0  0  0  0  0  0  0  0  0  0
   25.5894  -19.4149  -13.8718 C   0  0  0  0  0  0  0  0  0  0  0  0
   24.8124  -20.3969  -13.8120 O   0  0  0  0  0  0  0  0  0  0  0  0
   22.2046  -16.1350  -16.8014 O   0  0  0  0  0  0  0  0  0  0  0  0
   29.0699  -22.0400  -11.5645 C   0  0  0  0  0  0  0  0  0  0  0  0
   28.6979  -20.8676  -12.4452 C   0  0  2  0  0  0  0  0  0  0  0  0
   29.5759  -19.6636  -12.1626 C   0  0  0  0  0  0  0  0  0  0  0  0
   27.2303  -20.5283  -12.3175 C   0  0  2  0  0  0  0  0  0  0  0  0
   26.8205  -19.4499  -13.1649 N   0  0  0  0  0  0  0  0  0  0  0  0
   26.9155  -20.2526  -10.8913 C   0  0  0  0  0  0  0  0  0  0  0  0
   27.7202  -19.5893  -10.1840 O   0  0  0  0  0  0  0  0  0  0  0  0
   25.7255  -20.7161  -10.2915 N   0  0  0  0  0  0  0  0  0  0  0  0
   25.5648  -20.8951   -8.8614 C   0  0  1  0  0  0  0  0  0  0  0  0
   25.5110  -19.5312   -8.2090 C   0  0  0  0  0  0  0  0  0  0  0  0
   26.7240  -19.2097   -7.4557 C   0  0  0  0  0  0  0  0  0  0  0  0
   27.5930  -18.1745   -7.7170 C   0  0  0  0  0  0  0  0  0  0  0  0
   28.6025  -18.1813   -6.8170 N   0  0  0  0  0  0  0  0  0  0  0  0
   28.4139  -19.2090   -5.9611 C   0  0  0  0  0  0  0  0  0  0  0  0
   29.1495  -19.6387   -4.8820 C   0  0  0  0  0  0  0  0  0  0  0  0
   28.7455  -20.7353   -4.1474 C   0  0  0  0  0  0  0  0  0  0  0  0
   27.5930  -21.3785   -4.5270 C   0  0  0  0  0  0  0  0  0  0  0  0
   26.8539  -20.9516   -5.6064 C   0  0  0  0  0  0  0  0  0  0  0  0
   27.2385  -19.8592   -6.3540 C   0  0  0  0  0  0  0  0  0  0  0  0
   24.3734  -21.7168   -8.5407 C   0  0  0  0  0  0  0  0  0  0  0  0
   24.1857  -22.2492   -7.2831 O   0  0  0  0  0  0  0  0  0  0  0  0
   23.5054  -21.9442   -9.4197 O   0  0  0  0  0  0  0  0  0  0  0  0
  2  3  1  0
  2  1  1  6
  3  4  1  0
  4  5  1  0
  5  9  1  0
  5  6  2  0
  7 14  1  0
  7  2  1  0
  8  7  2  0
 11 10  1  1
 12 11  1  0
 13 11  1  0
 13 14  1  6
 13 15  1  0
 15 17  1  0
 16 15  2  0
 17 18  1  0
 18 19  1  1
 19 20  1  0
 20 21  2  0
 20 28  1  0
 21 22  1  0
 22 23  1  0
 23 24  2  0
 24 25  1  0
 26 25  2  0
 27 26  1  0
 28 27  2  0
 28 23  1  0
 29 30  1  0
 29 18  1  0
 31 29  2  0
M  END
$$$$
