EVW.pdb
     RDKit          3D

 31 32  0  0  1  0  0  0  0  0999 V2000
   21.8046  -19.3895  -15.3663 N   0  0  0  0  0  0  0  0  0  0  0  0
   22.7586  -18.6911  -14.5202 C   0  0  1  0  0  0  0  0  0  0  0  0
   21.9473  -17.9448  -13.4803 C   0  0  0  0  0  0  0  0  0  0  0  0
   21.9951  -16.4525  -13.7180 C   0  0  0  0  0  0  0  0  0  0  0  0
   21.5527  -16.1649  -15.0850 C   0  0  0  0  0  0  0  0  0  0  0  0
   20.4446  -16.5915  -15.4865 O   0  0  0  0  0  0  0  0  0  0  0  0
   23.7267  -19.6190  -13.9143 C   0  0  0  0  0  0  0  0  0  0  0  0
   23.3050  -20.5996  -13.2569 O   0  0  0  0  0  0  0  0  0  0  0  0
   22.3145  -15.4252  -15.9854 O   0  0  0  0  0  0  0  0  0  0  0  0
   28.3753  -21.3376  -13.7814 C   0  0  0  0  0  0  0  0  0  0  0  0
   27.4137  -20.2925  -14.3028 C   0  0  2  0  0  0  0  0  0  0  0  0
   28.0515  -18.9165  -14.3242 C   0  0  0  0  0  0  0  0  0  0  0  0
   26.1215  -20.2947  -13.5184 C   0  0  2  0  0  0  0  0  0  0  0  0
   25.1253  -19.4222  -14.0619 N   0  0  0  0  0  0  0  0  0  0  0  0
   26.4130  -19.9729  -12.0969 C   0  0  0  0  0  0  0  0  0  0  0  0
   26.6469  -18.7831  -11.7540 O   0  0  0  0  0  0  0  0  0  0  0  0
   26.4372  -20.9715  -11.1004 N   0  0  0  0  0  0  0  0  0  0  0  0
   27.1301  -20.8253   -9.8348 C   0  0  1  0  0  0  0  0  0  0  0  0
   26.1448  -20.3231   -8.8024 C   0  0  0  0  0  0  0  0  0  0  0  0
   26.7620  -19.4563   -7.7975 C   0  0  0  0  0  0  0  0  0  0  0  0
   26.7913  -18.0801   -7.8183 C   0  0  0  0  0  0  0  0  0  0  0  0
   27.4457  -17.6161   -6.7296 N   0  0  0  0  0  0  0  0  0  0  0  0
   27.8515  -18.6681   -5.9860 C   0  0  0  0  0  0  0  0  0  0  0  0
   28.5462  -18.7285   -4.8012 C   0  0  0  0  0  0  0  0  0  0  0  0
   28.8484  -19.9457   -4.2246 C   0  0  0  0  0  0  0  0  0  0  0  0
   28.4353  -21.0862   -4.8684 C   0  0  0  0  0  0  0  0  0  0  0  0
   27.7397  -21.0301   -6.0544 C   0  0  0  0  0  0  0  0  0  0  0  0
   27.4271  -19.8259   -6.6480 C   0  0  0  0  0  0  0  0  0  0  0  0
   27.7841  -22.0884   -9.4172 C   0  0  0  0  0  0  0  0  0  0  0  0
   28.9727  -22.0848   -8.7191 O   0  0  0  0  0  0  0  0  0  0  0  0
   27.2599  -23.1954   -9.6958 O   0  0  0  0  0  0  0  0  0  0  0  0
  2  3  1  0
  2  1  1  6
  3  4  1  0
  4  5  1  0
  5  9  1  0
  5  6  2  0
  7 14  1  0
  7  2  1  0
  8  7  2  0
 11 10  1  1
 12 11  1  0
 13 11  1  0
 13 14  1  6
 13 15  1  0
 15 17  1  0
 16 15  2  0
 17 18  1  0
 18 19  1  1
 19 20  1  0
 20 21  2  0
 20 28  1  0
 21 22  1  0
 22 23  1  0
 23 24  2  0
 24 25  1  0
 26 25  2  0
 27 26  1  0
 28 27  2  0
 28 23  1  0
 29 30  1  0
 29 18  1  0
 31 29  2  0
M  END
$$$$
