EVW.pdb
     RDKit          3D

 31 32  0  0  1  0  0  0  0  0999 V2000
   28.0697  -20.2818  -18.2724 N   0  0  0  0  0  0  0  0  0  0  0  0
   27.6491  -21.1114  -17.1550 C   0  0  1  0  0  0  0  0  0  0  0  0
   28.8788  -21.8659  -16.6911 C   0  0  0  0  0  0  0  0  0  0  0  0
   29.2091  -23.0026  -17.6316 C   0  0  0  0  0  0  0  0  0  0  0  0
   30.3989  -23.7051  -17.1440 C   0  0  0  0  0  0  0  0  0  0  0  0
   31.4210  -23.7794  -17.8657 O   0  0  0  0  0  0  0  0  0  0  0  0
   27.0471  -20.3074  -16.0795 C   0  0  0  0  0  0  0  0  0  0  0  0
   27.3509  -19.0953  -15.9787 O   0  0  0  0  0  0  0  0  0  0  0  0
   30.4585  -24.3100  -15.8915 O   0  0  0  0  0  0  0  0  0  0  0  0
   23.9722  -18.9042  -15.7061 C   0  0  0  0  0  0  0  0  0  0  0  0
   24.0327  -19.7898  -14.4811 C   0  0  2  0  0  0  0  0  0  0  0  0
   23.3091  -19.1589  -13.3069 C   0  0  0  0  0  0  0  0  0  0  0  0
   25.4594  -20.1450  -14.1298 C   0  0  2  0  0  0  0  0  0  0  0  0
   26.1314  -20.8805  -15.1577 N   0  0  0  0  0  0  0  0  0  0  0  0
   25.4759  -20.8754  -12.8355 C   0  0  0  0  0  0  0  0  0  0  0  0
   24.9268  -22.0056  -12.7411 O   0  0  0  0  0  0  0  0  0  0  0  0
   26.0964  -20.3372  -11.6882 N   0  0  0  0  0  0  0  0  0  0  0  0
   25.9967  -20.9311  -10.3689 C   0  0  1  0  0  0  0  0  0  0  0  0
   26.8914  -20.1585   -9.4249 C   0  0  0  0  0  0  0  0  0  0  0  0
   26.6937  -20.5248   -8.0217 C   0  0  0  0  0  0  0  0  0  0  0  0
   25.6976  -21.3352   -7.5255 C   0  0  0  0  0  0  0  0  0  0  0  0
   25.8242  -21.4533   -6.1842 N   0  0  0  0  0  0  0  0  0  0  0  0
   26.8929  -20.7307   -5.7840 C   0  0  0  0  0  0  0  0  0  0  0  0
   27.4365  -20.5278   -4.5375 C   0  0  0  0  0  0  0  0  0  0  0  0
   28.5533  -19.7323   -4.3786 C   0  0  0  0  0  0  0  0  0  0  0  0
   29.0998  -19.1544   -5.4981 C   0  0  0  0  0  0  0  0  0  0  0  0
   28.5587  -19.3549   -6.7473 C   0  0  0  0  0  0  0  0  0  0  0  0
   27.4441  -20.1452   -6.9294 C   0  0  0  0  0  0  0  0  0  0  0  0
   24.5934  -20.9831   -9.8942 C   0  0  0  0  0  0  0  0  0  0  0  0
   23.7715  -19.8783   -9.9606 O   0  0  0  0  0  0  0  0  0  0  0  0
   24.1247  -22.0468   -9.4180 O   0  0  0  0  0  0  0  0  0  0  0  0
  2  3  1  0
  2  1  1  6
  3  4  1  0
  4  5  1  0
  5  9  1  0
  5  6  2  0
  7 14  1  0
  7  2  1  0
  8  7  2  0
 11 10  1  6
 12 11  1  0
 13 11  1  0
 13 14  1  6
 13 15  1  0
 15 17  1  0
 16 15  2  0
 17 18  1  0
 18 19  1  1
 19 20  1  0
 20 21  2  0
 20 28  1  0
 21 22  1  0
 22 23  1  0
 23 24  2  0
 24 25  1  0
 26 25  2  0
 27 26  1  0
 28 27  2  0
 28 23  1  0
 29 30  1  0
 29 18  1  0
 31 29  2  0
M  END
$$$$
