WCN.pdb
     RDKit          3D

 29 30  0  0  1  0  0  0  0  0999 V2000
   24.9871  -20.3122  -11.1081 N   0  0  0  0  0  0  0  0  0  0  0  0
   23.5649  -20.4800  -11.1152 C   0  0  1  0  0  0  0  0  0  0  0  0
   22.9919  -21.1262  -12.3301 C   0  0  0  0  0  0  0  0  0  0  0  0
   23.2786  -20.3538  -13.5579 C   0  0  0  0  0  0  0  0  0  0  0  0
   24.3644  -20.5071  -14.3955 C   0  0  0  0  0  0  0  0  0  0  0  0
   24.1979  -19.6214  -15.3845 N   0  0  0  0  0  0  0  0  0  0  0  0
   23.0693  -18.9130  -15.2246 C   0  0  0  0  0  0  0  0  0  0  0  0
   22.4828  -17.9052  -15.9609 C   0  0  0  0  0  0  0  0  0  0  0  0
   21.2982  -17.3484  -15.5393 C   0  0  0  0  0  0  0  0  0  0  0  0
   20.6717  -17.7787  -14.3803 C   0  0  0  0  0  0  0  0  0  0  0  0
   21.2814  -18.7879  -13.6649 C   0  0  0  0  0  0  0  0  0  0  0  0
   22.4742  -19.3648  -14.0702 C   0  0  0  0  0  0  0  0  0  0  0  0
   23.1217  -21.1306   -9.8549 C   0  0  0  0  0  0  0  0  0  0  0  0
   23.7022  -22.1897   -9.4684 O   0  0  0  0  0  0  0  0  0  0  0  0
   22.0811  -20.6473   -9.0395 N   0  0  0  0  0  0  0  0  0  0  0  0
   21.5185  -21.3688   -7.9237 C   0  0  1  0  0  0  0  0  0  0  0  0
   21.2417  -20.3577   -6.8300 C   0  0  0  0  0  0  0  0  0  0  0  0
   21.0994  -21.2831   -5.2757 S   0  0  0  0  0  0  0  0  0  0  0  0
   20.2984  -22.1246   -8.2984 C   0  0  0  0  0  0  0  0  0  0  0  0
   19.4422  -21.5634   -9.0313 O   0  0  0  0  0  0  0  0  0  0  0  0
   17.2058  -27.2234   -7.4707 N   0  0  0  0  0  0  0  0  0  0  0  0
   17.7344  -26.3829   -8.4857 C   0  0  0  0  0  0  0  0  0  0  0  0
   17.1011  -26.3302   -9.5708 O   0  0  0  0  0  0  0  0  0  0  0  0
   18.9657  -25.6455   -8.1998 C   0  0  0  0  0  0  0  0  0  0  0  0
   18.8012  -24.1579   -8.1684 C   0  0  2  0  0  0  0  0  0  0  0  0
   20.0234  -23.4473   -7.8868 N   0  0  0  0  0  0  0  0  0  0  0  0
   17.6873  -23.7176   -7.2891 C   0  0  0  0  0  0  0  0  0  0  0  0
   16.3665  -23.9508   -7.7159 O   0  0  0  0  0  0  0  0  0  0  0  0
   17.8294  -23.1565   -6.2006 O   0  0  0  0  0  0  0  0  0  0  0  0
  2  1  1  6
  2 13  1  0
  3  2  1  0
  3  4  1  0
  4  5  2  0
  4 12  1  0
  5  6  1  0
  6  7  1  0
  7  8  2  0
  8  9  1  0
 10  9  2  0
 11 10  1  0
 12 11  2  0
 12  7  1  0
 13 14  2  0
 15 16  1  0
 15 13  1  0
 16 17  1  1
 17 18  1  0
 19 16  1  0
 19 26  1  0
 20 19  2  0
 22 21  1  0
 23 22  2  0
 24 22  1  0
 25 26  1  0
 25 24  1  1
 27 25  1  0
 28 27  1  0
 29 27  2  0
M  END
$$$$
