WCN.pdb
     RDKit          3D

 29 30  0  0  1  0  0  0  0  0999 V2000
   25.8683  -18.6674   -9.0271 N   0  0  0  0  0  0  0  0  0  0  0  0
   26.5288  -19.7710   -9.6568 C   0  0  1  0  0  0  0  0  0  0  0  0
   27.0227  -20.8407   -8.7437 C   0  0  0  0  0  0  0  0  0  0  0  0
   27.9815  -20.3204   -7.7456 C   0  0  0  0  0  0  0  0  0  0  0  0
   29.1890  -19.7043   -8.0032 C   0  0  0  0  0  0  0  0  0  0  0  0
   29.7013  -19.3790   -6.8106 N   0  0  0  0  0  0  0  0  0  0  0  0
   28.8899  -19.7528   -5.8090 C   0  0  0  0  0  0  0  0  0  0  0  0
   28.9821  -19.6434   -4.4375 C   0  0  0  0  0  0  0  0  0  0  0  0
   27.9750  -20.1362   -3.6411 C   0  0  0  0  0  0  0  0  0  0  0  0
   26.8574  -20.7469   -4.1878 C   0  0  0  0  0  0  0  0  0  0  0  0
   26.7927  -20.8418   -5.5622 C   0  0  0  0  0  0  0  0  0  0  0  0
   27.7944  -20.3520   -6.3849 C   0  0  0  0  0  0  0  0  0  0  0  0
   25.6923  -20.3018  -10.7643 C   0  0  0  0  0  0  0  0  0  0  0  0
   24.4312  -20.3191  -10.6333 O   0  0  0  0  0  0  0  0  0  0  0  0
   26.2081  -20.7982  -11.9763 N   0  0  0  0  0  0  0  0  0  0  0  0
   25.4594  -20.8811  -13.2071 C   0  0  1  0  0  0  0  0  0  0  0  0
   26.4527  -21.1517  -14.3185 C   0  0  0  0  0  0  0  0  0  0  0  0
   25.5129  -21.1997  -15.8699 S   0  0  0  0  0  0  0  0  0  0  0  0
   24.3971  -21.9149  -13.1522 C   0  0  0  0  0  0  0  0  0  0  0  0
   24.4839  -22.8240  -12.2856 O   0  0  0  0  0  0  0  0  0  0  0  0
   19.4671  -22.9001  -12.5560 N   0  0  0  0  0  0  0  0  0  0  0  0
   20.2024  -21.9201  -11.8382 C   0  0  0  0  0  0  0  0  0  0  0  0
   19.6603  -21.4385  -10.8108 O   0  0  0  0  0  0  0  0  0  0  0  0
   21.5248  -21.5443  -12.3399 C   0  0  0  0  0  0  0  0  0  0  0  0
   21.9305  -22.2474  -13.5976 C   0  0  2  0  0  0  0  0  0  0  0  0
   23.2790  -21.9541  -14.0142 N   0  0  0  0  0  0  0  0  0  0  0  0
   20.9551  -22.0638  -14.7034 C   0  0  0  0  0  0  0  0  0  0  0  0
   20.9965  -20.8646  -15.4391 O   0  0  0  0  0  0  0  0  0  0  0  0
   20.1005  -22.8891  -15.0324 O   0  0  0  0  0  0  0  0  0  0  0  0
  2  1  1  1
  2 13  1  0
  3  2  1  0
  3  4  1  0
  4  5  2  0
  4 12  1  0
  5  6  1  0
  6  7  1  0
  7  8  2  0
  8  9  1  0
 10  9  2  0
 11 10  1  0
 12 11  2  0
 12  7  1  0
 13 14  2  0
 15 16  1  0
 15 13  1  0
 16 17  1  6
 17 18  1  0
 19 16  1  0
 19 26  1  0
 20 19  2  0
 22 21  1  0
 23 22  2  0
 24 22  1  0
 25 26  1  0
 25 24  1  1
 27 25  1  0
 28 27  1  0
 29 27  2  0
M  END
$$$$
