WCN.pdb
     RDKit          3D

 29 30  0  0  1  0  0  0  0  0999 V2000
   20.9899  -13.0849  -18.1552 N   0  0  0  0  0  0  0  0  0  0  0  0
   21.4964  -11.7501  -18.2672 C   0  0  1  0  0  0  0  0  0  0  0  0
   20.9949  -10.9590  -19.4268 C   0  0  0  0  0  0  0  0  0  0  0  0
   21.4202  -11.5371  -20.7195 C   0  0  0  0  0  0  0  0  0  0  0  0
   21.1810  -12.8194  -21.1695 C   0  0  0  0  0  0  0  0  0  0  0  0
   21.7217  -12.8906  -22.3913 N   0  0  0  0  0  0  0  0  0  0  0  0
   22.2916  -11.7281  -22.7448 C   0  0  0  0  0  0  0  0  0  0  0  0
   22.9644  -11.3201  -23.8773 C   0  0  0  0  0  0  0  0  0  0  0  0
   23.4567  -10.0386  -23.9580 C   0  0  0  0  0  0  0  0  0  0  0  0
   23.2924   -9.1366  -22.9186 C   0  0  0  0  0  0  0  0  0  0  0  0
   22.6153   -9.5727  -21.7990 C   0  0  0  0  0  0  0  0  0  0  0  0
   22.1097  -10.8586  -21.6952 C   0  0  0  0  0  0  0  0  0  0  0  0
   21.3415  -11.0353  -16.9738 C   0  0  0  0  0  0  0  0  0  0  0  0
   20.2450  -11.1278  -16.3436 O   0  0  0  0  0  0  0  0  0  0  0  0
   22.3449  -10.2450  -16.3824 N   0  0  0  0  0  0  0  0  0  0  0  0
   22.1855   -9.5156  -15.1476 C   0  0  1  0  0  0  0  0  0  0  0  0
   23.1491  -10.1163  -14.1447 C   0  0  0  0  0  0  0  0  0  0  0  0
   22.8952   -9.2416  -12.5754 S   0  0  0  0  0  0  0  0  0  0  0  0
   22.4055   -8.0590  -15.3206 C   0  0  0  0  0  0  0  0  0  0  0  0
   23.4271   -7.6732  -15.9471 O   0  0  0  0  0  0  0  0  0  0  0  0
   20.4759   -2.8180  -17.1066 N   0  0  0  0  0  0  0  0  0  0  0  0
   21.2302   -3.5411  -16.1451 C   0  0  0  0  0  0  0  0  0  0  0  0
   22.1005   -2.9000  -15.5024 O   0  0  0  0  0  0  0  0  0  0  0  0
   20.9442   -4.9658  -15.9724 C   0  0  0  0  0  0  0  0  0  0  0  0
   21.7789   -5.6409  -14.9291 C   0  0  2  0  0  0  0  0  0  0  0  0
   21.5397   -7.0587  -14.8261 N   0  0  0  0  0  0  0  0  0  0  0  0
   21.7073   -4.9679  -13.6063 C   0  0  0  0  0  0  0  0  0  0  0  0
   22.5888   -3.9009  -13.3505 O   0  0  0  0  0  0  0  0  0  0  0  0
   20.9268   -5.2737  -12.7024 O   0  0  0  0  0  0  0  0  0  0  0  0
  2  1  1  1
  2 13  1  0
  3  2  1  0
  3  4  1  0
  4  5  2  0
  4 12  1  0
  5  6  1  0
  6  7  1  0
  7  8  2  0
  8  9  1  0
 10  9  2  0
 11 10  1  0
 12 11  2  0
 12  7  1  0
 13 14  2  0
 15 16  1  0
 15 13  1  0
 16 17  1  1
 17 18  1  0
 19 16  1  0
 19 26  1  0
 20 19  2  0
 22 21  1  0
 23 22  2  0
 24 22  1  0
 25 26  1  0
 25 24  1  6
 27 25  1  0
 28 27  1  0
 29 27  2  0
M  END
$$$$
