WCN.pdb
     RDKit          3D

 29 30  0  0  1  0  0  0  0  0999 V2000
   26.5549  -19.1277  -10.9416 N   0  0  0  0  0  0  0  0  0  0  0  0
   26.4103  -20.5516  -10.9896 C   0  0  1  0  0  0  0  0  0  0  0  0
   26.0525  -21.2131   -9.7026 C   0  0  0  0  0  0  0  0  0  0  0  0
   26.8523  -20.6969   -8.5713 C   0  0  0  0  0  0  0  0  0  0  0  0
   26.4040  -19.8980   -7.5394 C   0  0  0  0  0  0  0  0  0  0  0  0
   27.4574  -19.7011   -6.7382 N   0  0  0  0  0  0  0  0  0  0  0  0
   28.5503  -20.3279   -7.2007 C   0  0  0  0  0  0  0  0  0  0  0  0
   29.8466  -20.4158   -6.7386 C   0  0  0  0  0  0  0  0  0  0  0  0
   30.7779  -21.1420   -7.4432 C   0  0  0  0  0  0  0  0  0  0  0  0
   30.4434  -21.7949   -8.6191 C   0  0  0  0  0  0  0  0  0  0  0  0
   29.1397  -21.6893   -9.0566 C   0  0  0  0  0  0  0  0  0  0  0  0
   28.1839  -20.9642   -8.3633 C   0  0  0  0  0  0  0  0  0  0  0  0
   25.5054  -20.9353  -12.1041 C   0  0  0  0  0  0  0  0  0  0  0  0
   24.5154  -20.1927  -12.3804 O   0  0  0  0  0  0  0  0  0  0  0  0
   25.6696  -22.0887  -12.8941 N   0  0  0  0  0  0  0  0  0  0  0  0
   24.8456  -22.4215  -14.0309 C   0  0  1  0  0  0  0  0  0  0  0  0
   25.2497  -23.8087  -14.4865 C   0  0  0  0  0  0  0  0  0  0  0  0
   24.2066  -24.2238  -15.9119 S   0  0  0  0  0  0  0  0  0  0  0  0
   23.3974  -22.3426  -13.7200 C   0  0  0  0  0  0  0  0  0  0  0  0
   22.9727  -22.9047  -12.6766 O   0  0  0  0  0  0  0  0  0  0  0  0
   18.4756  -19.5426  -13.2986 N   0  0  0  0  0  0  0  0  0  0  0  0
   18.9478  -20.2717  -14.4218 C   0  0  0  0  0  0  0  0  0  0  0  0
   18.0831  -20.8248  -15.1482 O   0  0  0  0  0  0  0  0  0  0  0  0
   20.3920  -20.3272  -14.6517 C   0  0  0  0  0  0  0  0  0  0  0  0
   21.0327  -21.6175  -14.2448 C   0  0  2  0  0  0  0  0  0  0  0  0
   22.4464  -21.6729  -14.5211 N   0  0  0  0  0  0  0  0  0  0  0  0
   20.3170  -22.8093  -14.7692 C   0  0  0  0  0  0  0  0  0  0  0  0
   19.2673  -23.3496  -14.0029 O   0  0  0  0  0  0  0  0  0  0  0  0
   20.5726  -23.3706  -15.8366 O   0  0  0  0  0  0  0  0  0  0  0  0
  2  1  1  1
  2 13  1  0
  3  2  1  0
  3  4  1  0
  4  5  2  0
  4 12  1  0
  5  6  1  0
  6  7  1  0
  7  8  2  0
  8  9  1  0
 10  9  2  0
 11 10  1  0
 12 11  2  0
 12  7  1  0
 13 14  2  0
 15 16  1  0
 15 13  1  0
 16 17  1  1
 17 18  1  0
 19 16  1  0
 19 26  1  0
 20 19  2  0
 22 21  1  0
 23 22  2  0
 24 22  1  0
 25 26  1  0
 25 24  1  6
 27 25  1  0
 28 27  1  0
 29 27  2  0
M  END
$$$$
