WCN.pdb
     RDKit          3D

 29 30  0  0  1  0  0  0  0  0999 V2000
   24.1850  -20.4044  -10.7328 N   0  0  0  0  0  0  0  0  0  0  0  0
   25.5640  -20.0538  -10.8947 C   0  0  1  0  0  0  0  0  0  0  0  0
   26.5398  -20.8803  -10.1288 C   0  0  0  0  0  0  0  0  0  0  0  0
   26.4190  -20.6732   -8.6698 C   0  0  0  0  0  0  0  0  0  0  0  0
   25.2501  -20.5942   -7.9408 C   0  0  0  0  0  0  0  0  0  0  0  0
   25.6189  -20.4298   -6.6651 N   0  0  0  0  0  0  0  0  0  0  0  0
   26.9548  -20.3990   -6.5401 C   0  0  0  0  0  0  0  0  0  0  0  0
   27.7915  -20.2480   -5.4544 C   0  0  0  0  0  0  0  0  0  0  0  0
   29.1549  -20.2490   -5.6341 C   0  0  0  0  0  0  0  0  0  0  0  0
   29.7159  -20.3995   -6.8925 C   0  0  0  0  0  0  0  0  0  0  0  0
   28.8545  -20.5487   -7.9592 C   0  0  0  0  0  0  0  0  0  0  0  0
   27.4778  -20.5516   -7.8027 C   0  0  0  0  0  0  0  0  0  0  0  0
   25.9001  -19.9588  -12.3390 C   0  0  0  0  0  0  0  0  0  0  0  0
   25.4401  -20.8281  -13.1395 O   0  0  0  0  0  0  0  0  0  0  0  0
   26.7101  -18.9521  -12.8974 N   0  0  0  0  0  0  0  0  0  0  0  0
   26.9315  -18.7760  -14.3124 C   0  0  1  0  0  0  0  0  0  0  0  0
   27.3767  -17.3431  -14.5214 C   0  0  0  0  0  0  0  0  0  0  0  0
   25.9165  -16.2933  -14.2797 S   0  0  0  0  0  0  0  0  0  0  0  0
   27.9158  -19.7446  -14.8539 C   0  0  0  0  0  0  0  0  0  0  0  0
   28.9363  -20.0151  -14.1680 O   0  0  0  0  0  0  0  0  0  0  0  0
   28.9070  -24.9881  -16.2014 N   0  0  0  0  0  0  0  0  0  0  0  0
   29.5515  -23.7257  -16.1165 C   0  0  0  0  0  0  0  0  0  0  0  0
   30.7513  -23.6709  -16.4889 O   0  0  0  0  0  0  0  0  0  0  0  0
   28.7816  -22.5903  -15.6069 C   0  0  0  0  0  0  0  0  0  0  0  0
   28.6531  -21.4502  -16.5686 C   0  0  2  0  0  0  0  0  0  0  0  0
   27.7896  -20.3947  -16.1013 N   0  0  0  0  0  0  0  0  0  0  0  0
   28.2991  -21.8901  -17.9430 C   0  0  0  0  0  0  0  0  0  0  0  0
   29.3397  -22.0914  -18.8692 O   0  0  0  0  0  0  0  0  0  0  0  0
   27.1511  -22.0955  -18.3426 O   0  0  0  0  0  0  0  0  0  0  0  0
  2  1  1  6
  2 13  1  0
  3  2  1  0
  3  4  1  0
  4  5  2  0
  4 12  1  0
  5  6  1  0
  6  7  1  0
  7  8  2  0
  8  9  1  0
 10  9  2  0
 11 10  1  0
 12 11  2  0
 12  7  1  0
 13 14  2  0
 15 16  1  0
 15 13  1  0
 16 17  1  1
 17 18  1  0
 19 16  1  0
 19 26  1  0
 20 19  2  0
 22 21  1  0
 23 22  2  0
 24 22  1  0
 25 26  1  0
 25 24  1  1
 27 25  1  0
 28 27  1  0
 29 27  2  0
M  END
$$$$
