WCN.pdb
     RDKit          3D

 29 30  0  0  1  0  0  0  0  0999 V2000
   27.3330  -20.4705  -15.5326 N   0  0  0  0  0  0  0  0  0  0  0  0
   26.7347  -19.7366  -14.4583 C   0  0  1  0  0  0  0  0  0  0  0  0
   25.9620  -18.5235  -14.8498 C   0  0  0  0  0  0  0  0  0  0  0  0
   26.7992  -17.5397  -15.5692 C   0  0  0  0  0  0  0  0  0  0  0  0
   27.8836  -16.8519  -15.0644 C   0  0  0  0  0  0  0  0  0  0  0  0
   28.3451  -16.0979  -16.0689 N   0  0  0  0  0  0  0  0  0  0  0  0
   27.6169  -16.2657  -17.1836 C   0  0  0  0  0  0  0  0  0  0  0  0
   27.6958  -15.7170  -18.4463 C   0  0  0  0  0  0  0  0  0  0  0  0
   26.7852  -16.0814  -19.4103 C   0  0  0  0  0  0  0  0  0  0  0  0
   25.7789  -16.9959  -19.1423 C   0  0  0  0  0  0  0  0  0  0  0  0
   25.7250  -17.5280  -17.8711 C   0  0  0  0  0  0  0  0  0  0  0  0
   26.6317  -17.1770  -16.8838 C   0  0  0  0  0  0  0  0  0  0  0  0
   25.9597  -20.6539  -13.5831 C   0  0  0  0  0  0  0  0  0  0  0  0
   25.3191  -21.6146  -14.1073 O   0  0  0  0  0  0  0  0  0  0  0  0
   25.8822  -20.5328  -12.1829 N   0  0  0  0  0  0  0  0  0  0  0  0
   24.8847  -21.1775  -11.3635 C   0  0  1  0  0  0  0  0  0  0  0  0
   25.2377  -20.8899   -9.9185 C   0  0  0  0  0  0  0  0  0  0  0  0
   26.9973  -21.2826   -9.7140 S   0  0  0  0  0  0  0  0  0  0  0  0
   23.5091  -20.7323  -11.6949 C   0  0  0  0  0  0  0  0  0  0  0  0
   23.2774  -19.4974  -11.7753 O   0  0  0  0  0  0  0  0  0  0  0  0
   22.2946  -21.9420  -15.5077 N   0  0  0  0  0  0  0  0  0  0  0  0
   21.4389  -21.0856  -14.7658 C   0  0  0  0  0  0  0  0  0  0  0  0
   21.3960  -19.8785  -15.1157 O   0  0  0  0  0  0  0  0  0  0  0  0
   20.6757  -21.6625  -13.6584 C   0  0  0  0  0  0  0  0  0  0  0  0
   21.0972  -21.1854  -12.3035 C   0  0  2  0  0  0  0  0  0  0  0  0
   22.4246  -21.6058  -11.9301 N   0  0  0  0  0  0  0  0  0  0  0  0
   20.0993  -21.4917  -11.2461 C   0  0  0  0  0  0  0  0  0  0  0  0
   18.7742  -21.0545  -11.4306 O   0  0  0  0  0  0  0  0  0  0  0  0
   20.3425  -22.1066  -10.2056 O   0  0  0  0  0  0  0  0  0  0  0  0
  2  1  1  6
  2 13  1  0
  3  2  1  0
  3  4  1  0
  4  5  2  0
  4 12  1  0
  5  6  1  0
  6  7  1  0
  7  8  2  0
  8  9  1  0
 10  9  2  0
 11 10  1  0
 12 11  2  0
 12  7  1  0
 13 14  2  0
 15 16  1  0
 15 13  1  0
 16 17  1  1
 17 18  1  0
 19 16  1  0
 19 26  1  0
 20 19  2  0
 22 21  1  0
 23 22  2  0
 24 22  1  0
 25 26  1  0
 25 24  1  6
 27 25  1  0
 28 27  1  0
 29 27  2  0
M  END
$$$$
