WCN.pdb
     RDKit          3D

 29 30  0  0  1  0  0  0  0  0999 V2000
   25.4949  -19.3606  -11.7131 N   0  0  0  0  0  0  0  0  0  0  0  0
   25.8076  -20.7566  -11.7760 C   0  0  1  0  0  0  0  0  0  0  0  0
   25.6183  -21.5235  -10.5119 C   0  0  0  0  0  0  0  0  0  0  0  0
   26.3149  -20.8934   -9.3700 C   0  0  0  0  0  0  0  0  0  0  0  0
   25.7305  -20.2391   -8.3050 C   0  0  0  0  0  0  0  0  0  0  0  0
   26.7350  -19.8581   -7.5073 N   0  0  0  0  0  0  0  0  0  0  0  0
   27.9248  -20.2316   -8.0032 C   0  0  0  0  0  0  0  0  0  0  0  0
   29.2194  -20.0678   -7.5573 C   0  0  0  0  0  0  0  0  0  0  0  0
   30.2673  -20.5633   -8.2973 C   0  0  0  0  0  0  0  0  0  0  0  0
   30.0532  -21.2303   -9.4932 C   0  0  0  0  0  0  0  0  0  0  0  0
   28.7482  -21.3791   -9.9138 C   0  0  0  0  0  0  0  0  0  0  0  0
   27.6763  -20.8893   -9.1850 C   0  0  0  0  0  0  0  0  0  0  0  0
   25.1205  -21.3817  -12.9358 C   0  0  0  0  0  0  0  0  0  0  0  0
   23.9407  -21.0181  -13.2251 O   0  0  0  0  0  0  0  0  0  0  0  0
   25.6956  -22.3704  -13.7562 N   0  0  0  0  0  0  0  0  0  0  0  0
   25.0196  -23.0067  -14.8609 C   0  0  1  0  0  0  0  0  0  0  0  0
   26.0659  -23.7706  -15.6464 C   0  0  0  0  0  0  0  0  0  0  0  0
   25.2979  -24.2609  -17.2156 S   0  0  0  0  0  0  0  0  0  0  0  0
   23.9133  -23.8875  -14.4131 C   0  0  0  0  0  0  0  0  0  0  0  0
   23.6978  -24.0052  -13.1783 O   0  0  0  0  0  0  0  0  0  0  0  0
   19.1456  -25.2447  -14.0814 N   0  0  0  0  0  0  0  0  0  0  0  0
   19.7012  -23.9728  -13.7821 C   0  0  0  0  0  0  0  0  0  0  0  0
   19.0116  -23.2024  -13.0664 O   0  0  0  0  0  0  0  0  0  0  0  0
   21.0230  -23.6522  -14.3223 C   0  0  0  0  0  0  0  0  0  0  0  0
   21.6462  -24.7529  -15.1230 C   0  0  2  0  0  0  0  0  0  0  0  0
   23.0720  -24.6143  -15.2840 N   0  0  0  0  0  0  0  0  0  0  0  0
   20.9604  -24.9838  -16.4207 C   0  0  0  0  0  0  0  0  0  0  0  0
   20.3118  -26.2163  -16.6241 O   0  0  0  0  0  0  0  0  0  0  0  0
   20.9135  -24.1711  -17.3465 O   0  0  0  0  0  0  0  0  0  0  0  0
  2  1  1  1
  2 13  1  0
  3  2  1  0
  3  4  1  0
  4  5  2  0
  4 12  1  0
  5  6  1  0
  6  7  1  0
  7  8  2  0
  8  9  1  0
 10  9  2  0
 11 10  1  0
 12 11  2  0
 12  7  1  0
 13 14  2  0
 15 16  1  0
 15 13  1  0
 16 17  1  1
 17 18  1  0
 19 16  1  0
 19 26  1  0
 20 19  2  0
 22 21  1  0
 23 22  2  0
 24 22  1  0
 25 26  1  0
 25 24  1  6
 27 25  1  0
 28 27  1  0
 29 27  2  0
M  END
$$$$
