DWI.pdb
     RDKit          3D

 31 32  0  0  1  0  0  0  0  0999 V2000
   28.5063  -21.4714  -15.2378 N   0  0  0  0  0  0  0  0  0  0  0  0
   27.8573  -20.4133  -14.4897 C   0  0  1  0  0  0  0  0  0  0  0  0
   27.0528  -19.5400  -15.4312 C   0  0  0  0  0  0  0  0  0  0  0  0
   27.9774  -18.7949  -16.3119 C   0  0  0  0  0  0  0  0  0  0  0  0
   28.8151  -18.0141  -15.8049 O   0  0  0  0  0  0  0  0  0  0  0  0
   26.8462  -21.0640  -13.5883 C   0  0  0  0  0  0  0  0  0  0  0  0
   26.2193  -22.0779  -13.9334 O   0  0  0  0  0  0  0  0  0  0  0  0
   27.9622  -18.9205  -17.6920 O   0  0  0  0  0  0  0  0  0  0  0  0
   26.5946  -20.5139  -12.3104 N   0  0  0  0  0  0  0  0  0  0  0  0
   25.5880  -20.9129  -11.3843 C   0  0  1  0  0  0  0  0  0  0  0  0
   25.8733  -20.4676   -9.9352 C   0  0  0  0  0  0  0  0  0  0  0  0
   27.2027  -20.8763   -9.4610 C   0  0  0  0  0  0  0  0  0  0  0  0
   28.1289  -21.6773  -10.0570 C   0  0  0  0  0  0  0  0  0  0  0  0
   29.2348  -21.7907   -9.2728 N   0  0  0  0  0  0  0  0  0  0  0  0
   29.0565  -21.0781   -8.1687 C   0  0  0  0  0  0  0  0  0  0  0  0
   29.8216  -20.8226   -7.0404 C   0  0  0  0  0  0  0  0  0  0  0  0
   29.3346  -20.0130   -6.0461 C   0  0  0  0  0  0  0  0  0  0  0  0
   28.0850  -19.4261   -6.1203 C   0  0  0  0  0  0  0  0  0  0  0  0
   27.3331  -19.6884   -7.2481 C   0  0  0  0  0  0  0  0  0  0  0  0
   27.8147  -20.4997   -8.2494 C   0  0  0  0  0  0  0  0  0  0  0  0
   24.2140  -20.5792  -11.7283 C   0  0  0  0  0  0  0  0  0  0  0  0
   23.8853  -19.3514  -11.8784 O   0  0  0  0  0  0  0  0  0  0  0  0
   22.2759  -22.4303  -16.1343 C   0  0  0  0  0  0  0  0  0  0  0  0
   22.6301  -21.6464  -14.9094 C   0  0  0  0  0  0  0  0  0  0  0  0
   21.6413  -21.7812  -13.8266 C   0  0  2  0  0  0  0  0  0  0  0  0
   20.2211  -21.4991  -14.3405 C   0  0  0  0  0  0  0  0  0  0  0  0
   21.8751  -21.1326  -12.5283 C   0  0  2  0  0  0  0  0  0  0  0  0
   23.1627  -21.5160  -11.9218 N   0  0  0  0  0  0  0  0  0  0  0  0
   20.8336  -21.4073  -11.5302 C   0  0  0  0  0  0  0  0  0  0  0  0
   19.8205  -20.4718  -11.2238 O   0  0  0  0  0  0  0  0  0  0  0  0
   20.7614  -22.4816  -10.8818 O   0  0  0  0  0  0  0  0  0  0  0  0
  2  1  1  6
  2  6  1  0
  3  4  1  0
  3  2  1  0
  4  5  2  0
  6  7  2  0
  8  4  1  0
  9  6  1  0
  9 10  1  0
 10 11  1  1
 11 12  1  0
 12 13  2  0
 13 14  1  0
 15 14  1  0
 16 15  2  0
 17 16  1  0
 18 19  1  0
 18 17  2  0
 19 20  2  0
 20 12  1  0
 20 15  1  0
 21 10  1  0
 21 22  2  0
 23 24  1  0
 24 25  1  0
 25 27  1  0
 25 26  1  6
 27 29  1  0
 27 28  1  1
 28 21  1  0
 29 30  1  0
 31 29  2  0
M  END
$$$$
