DWI.pdb
     RDKit          3D

 31 32  0  0  1  0  0  0  0  0999 V2000
   20.9198  -12.0162  -16.5094 N   0  0  0  0  0  0  0  0  0  0  0  0
   20.1480  -10.8120  -16.7432 C   0  0  1  0  0  0  0  0  0  0  0  0
   19.1340  -10.6301  -15.6321 C   0  0  0  0  0  0  0  0  0  0  0  0
   18.0337  -11.6006  -15.8148 C   0  0  0  0  0  0  0  0  0  0  0  0
   18.0829  -12.4148  -16.7651 O   0  0  0  0  0  0  0  0  0  0  0  0
   21.0915   -9.6493  -16.6157 C   0  0  0  0  0  0  0  0  0  0  0  0
   21.8333   -9.5145  -15.6301 O   0  0  0  0  0  0  0  0  0  0  0  0
   16.9342  -11.6542  -14.9729 O   0  0  0  0  0  0  0  0  0  0  0  0
   21.1429   -8.6769  -17.6408 N   0  0  0  0  0  0  0  0  0  0  0  0
   21.9976   -7.5388  -17.7058 C   0  0  1  0  0  0  0  0  0  0  0  0
   22.5220   -7.2430  -19.1261 C   0  0  0  0  0  0  0  0  0  0  0  0
   23.0699   -8.4315  -19.7941 C   0  0  0  0  0  0  0  0  0  0  0  0
   23.8744   -9.4125  -19.2989 C   0  0  0  0  0  0  0  0  0  0  0  0
   24.1431  -10.3375  -20.2597 N   0  0  0  0  0  0  0  0  0  0  0  0
   23.5298   -9.9856  -21.3818 C   0  0  0  0  0  0  0  0  0  0  0  0
   23.4411  -10.5292  -22.6546 C   0  0  0  0  0  0  0  0  0  0  0  0
   22.6986   -9.9014  -23.6221 C   0  0  0  0  0  0  0  0  0  0  0  0
   22.0183   -8.7226  -23.3789 C   0  0  0  0  0  0  0  0  0  0  0  0
   22.1148   -8.1915  -22.1082 C   0  0  0  0  0  0  0  0  0  0  0  0
   22.8579   -8.8153  -21.1328 C   0  0  0  0  0  0  0  0  0  0  0  0
   21.4947   -6.3087  -17.1129 C   0  0  0  0  0  0  0  0  0  0  0  0
   20.8331   -5.4875  -17.8382 O   0  0  0  0  0  0  0  0  0  0  0  0
   17.6225   -4.2554  -13.5086 C   0  0  0  0  0  0  0  0  0  0  0  0
   18.9889   -3.8519  -13.9672 C   0  0  0  0  0  0  0  0  0  0  0  0
   19.7440   -4.9546  -14.5853 C   0  0  2  0  0  0  0  0  0  0  0  0
   19.8085   -6.1703  -13.6479 C   0  0  0  0  0  0  0  0  0  0  0  0
   21.0490   -4.6963  -15.2109 C   0  0  2  0  0  0  0  0  0  0  0  0
   21.6712   -5.9151  -15.7586 N   0  0  0  0  0  0  0  0  0  0  0  0
   22.0310   -4.0840  -14.3069 C   0  0  0  0  0  0  0  0  0  0  0  0
   23.1809   -4.7759  -13.8660 O   0  0  0  0  0  0  0  0  0  0  0  0
   21.9283   -2.9124  -13.8634 O   0  0  0  0  0  0  0  0  0  0  0  0
  2  1  1  1
  2  6  1  0
  3  4  1  0
  3  2  1  0
  4  5  2  0
  6  7  2  0
  8  4  1  0
  9  6  1  0
  9 10  1  0
 10 11  1  6
 11 12  1  0
 12 13  2  0
 13 14  1  0
 15 14  1  0
 16 15  2  0
 17 16  1  0
 18 19  1  0
 18 17  2  0
 19 20  2  0
 20 12  1  0
 20 15  1  0
 21 10  1  0
 21 22  2  0
 23 24  1  0
 24 25  1  0
 25 27  1  0
 25 26  1  1
 27 29  1  0
 27 28  1  1
 28 21  1  0
 29 30  1  0
 31 29  2  0
M  END
$$$$
