DWI.pdb
     RDKit          3D

 31 32  0  0  1  0  0  0  0  0999 V2000
   29.0562  -20.7822  -14.3120 N   0  0  0  0  0  0  0  0  0  0  0  0
   27.7107  -21.0497  -14.7794 C   0  0  1  0  0  0  0  0  0  0  0  0
   27.6847  -22.3586  -15.5425 C   0  0  0  0  0  0  0  0  0  0  0  0
   28.5141  -22.2279  -16.7595 C   0  0  0  0  0  0  0  0  0  0  0  0
   29.2114  -21.2004  -16.9215 O   0  0  0  0  0  0  0  0  0  0  0  0
   26.8571  -21.2801  -13.5643 C   0  0  0  0  0  0  0  0  0  0  0  0
   25.7127  -21.7524  -13.6493 O   0  0  0  0  0  0  0  0  0  0  0  0
   28.5582  -23.2020  -17.7444 O   0  0  0  0  0  0  0  0  0  0  0  0
   27.3620  -20.9530  -12.2848 N   0  0  0  0  0  0  0  0  0  0  0  0
   26.6490  -20.9563  -11.0512 C   0  0  1  0  0  0  0  0  0  0  0  0
   27.4732  -20.4207   -9.8623 C   0  0  0  0  0  0  0  0  0  0  0  0
   26.7829  -20.5679   -8.5735 C   0  0  0  0  0  0  0  0  0  0  0  0
   25.5439  -21.0648   -8.3039 C   0  0  0  0  0  0  0  0  0  0  0  0
   25.2966  -21.0261   -6.9666 N   0  0  0  0  0  0  0  0  0  0  0  0
   26.3508  -20.5126   -6.3470 C   0  0  0  0  0  0  0  0  0  0  0  0
   26.6654  -20.2401   -5.0240 C   0  0  0  0  0  0  0  0  0  0  0  0
   27.8818  -19.6934   -4.7032 C   0  0  0  0  0  0  0  0  0  0  0  0
   28.8309  -19.3946   -5.6632 C   0  0  0  0  0  0  0  0  0  0  0  0
   28.5056  -19.6702   -6.9763 C   0  0  0  0  0  0  0  0  0  0  0  0
   27.2874  -20.2183   -7.3057 C   0  0  0  0  0  0  0  0  0  0  0  0
   25.3385  -20.3237  -11.0519 C   0  0  0  0  0  0  0  0  0  0  0  0
   25.2586  -19.0464  -11.0333 O   0  0  0  0  0  0  0  0  0  0  0  0
   22.9285  -19.9230  -15.1664 C   0  0  0  0  0  0  0  0  0  0  0  0
   23.2694  -19.5911  -13.7473 C   0  0  0  0  0  0  0  0  0  0  0  0
   22.4556  -20.3281  -12.7662 C   0  0  2  0  0  0  0  0  0  0  0  0
   20.9604  -20.0309  -12.9577 C   0  0  0  0  0  0  0  0  0  0  0  0
   22.8223  -20.3129  -11.3426 C   0  0  2  0  0  0  0  0  0  0  0  0
   24.0934  -21.0086  -11.0726 N   0  0  0  0  0  0  0  0  0  0  0  0
   21.8114  -20.9118  -10.4618 C   0  0  0  0  0  0  0  0  0  0  0  0
   21.7402  -22.3046  -10.2371 O   0  0  0  0  0  0  0  0  0  0  0  0
   20.9447  -20.2417   -9.8456 O   0  0  0  0  0  0  0  0  0  0  0  0
  2  1  1  1
  2  6  1  0
  3  4  1  0
  3  2  1  0
  4  5  2  0
  6  7  2  0
  8  4  1  0
  9  6  1  0
  9 10  1  0
 10 11  1  1
 11 12  1  0
 12 13  2  0
 13 14  1  0
 15 14  1  0
 16 15  2  0
 17 16  1  0
 18 19  1  0
 18 17  2  0
 19 20  2  0
 20 12  1  0
 20 15  1  0
 21 10  1  0
 21 22  2  0
 23 24  1  0
 24 25  1  0
 25 27  1  0
 25 26  1  1
 27 29  1  0
 27 28  1  6
 28 21  1  0
 29 30  1  0
 31 29  2  0
M  END
$$$$
