DWI.pdb
     RDKit          3D

 31 32  0  0  1  0  0  0  0  0999 V2000
   28.1490  -23.3297  -17.5966 N   0  0  0  0  0  0  0  0  0  0  0  0
   28.2257  -22.0318  -16.9563 C   0  0  1  0  0  0  0  0  0  0  0  0
   27.5590  -20.9894  -17.8309 C   0  0  0  0  0  0  0  0  0  0  0  0
   28.4903  -20.5911  -18.9078 C   0  0  0  0  0  0  0  0  0  0  0  0
   29.7001  -20.4100  -18.6394 O   0  0  0  0  0  0  0  0  0  0  0  0
   27.3875  -22.1020  -15.7109 C   0  0  0  0  0  0  0  0  0  0  0  0
   26.4634  -22.9213  -15.5903 O   0  0  0  0  0  0  0  0  0  0  0  0
   28.0837  -20.4057  -20.2197 O   0  0  0  0  0  0  0  0  0  0  0  0
   27.6506  -21.2147  -14.6421 N   0  0  0  0  0  0  0  0  0  0  0  0
   26.9248  -21.0980  -13.4216 C   0  0  1  0  0  0  0  0  0  0  0  0
   27.6853  -20.3248  -12.3246 C   0  0  0  0  0  0  0  0  0  0  0  0
   26.9625  -20.2842  -11.0458 C   0  0  0  0  0  0  0  0  0  0  0  0
   25.6608  -19.9734  -10.7937 C   0  0  0  0  0  0  0  0  0  0  0  0
   25.3988  -20.0672   -9.4620 N   0  0  0  0  0  0  0  0  0  0  0  0
   26.5045  -20.4350   -8.8289 C   0  0  0  0  0  0  0  0  0  0  0  0
   26.8308  -20.6852   -7.5044 C   0  0  0  0  0  0  0  0  0  0  0  0
   28.1054  -21.0645   -7.1681 C   0  0  0  0  0  0  0  0  0  0  0  0
   29.1032  -21.2119   -8.1136 C   0  0  0  0  0  0  0  0  0  0  0  0
   28.7660  -20.9596   -9.4285 C   0  0  0  0  0  0  0  0  0  0  0  0
   27.4898  -20.5786   -9.7732 C   0  0  0  0  0  0  0  0  0  0  0  0
   25.5655  -20.5871  -13.5156 C   0  0  0  0  0  0  0  0  0  0  0  0
   25.3744  -19.3765  -13.8844 O   0  0  0  0  0  0  0  0  0  0  0  0
   20.4482  -21.7119  -16.1550 C   0  0  0  0  0  0  0  0  0  0  0  0
   20.9881  -20.9896  -14.9604 C   0  0  0  0  0  0  0  0  0  0  0  0
   22.3607  -21.3908  -14.6097 C   0  0  2  0  0  0  0  0  0  0  0  0
   22.4952  -22.9211  -14.5772 C   0  0  0  0  0  0  0  0  0  0  0  0
   23.0399  -20.7733  -13.4614 C   0  0  2  0  0  0  0  0  0  0  0  0
   24.3861  -21.3266  -13.2287 N   0  0  0  0  0  0  0  0  0  0  0  0
   22.3024  -20.8967  -12.1976 C   0  0  0  0  0  0  0  0  0  0  0  0
   22.6858  -21.8087  -11.1893 O   0  0  0  0  0  0  0  0  0  0  0  0
   21.2888  -20.2086  -11.9168 O   0  0  0  0  0  0  0  0  0  0  0  0
  2  1  1  6
  2  6  1  0
  3  4  1  0
  3  2  1  0
  4  5  2  0
  6  7  2  0
  8  4  1  0
  9  6  1  0
  9 10  1  0
 10 11  1  1
 11 12  1  0
 12 13  2  0
 13 14  1  0
 15 14  1  0
 16 15  2  0
 17 16  1  0
 18 19  1  0
 18 17  2  0
 19 20  2  0
 20 12  1  0
 20 15  1  0
 21 10  1  0
 21 22  2  0
 23 24  1  0
 24 25  1  0
 25 27  1  0
 25 26  1  1
 27 29  1  0
 27 28  1  1
 28 21  1  0
 29 30  1  0
 31 29  2  0
M  END
$$$$
