DWI.pdb
     RDKit          3D

 31 32  0  0  1  0  0  0  0  0999 V2000
   28.7698  -20.8012  -17.5485 N   0  0  0  0  0  0  0  0  0  0  0  0
   28.4657  -22.2101  -17.3971 C   0  0  1  0  0  0  0  0  0  0  0  0
   29.7484  -22.9923  -17.2004 C   0  0  0  0  0  0  0  0  0  0  0  0
   30.5459  -22.9386  -18.4442 C   0  0  0  0  0  0  0  0  0  0  0  0
   30.7961  -21.8285  -18.9672 O   0  0  0  0  0  0  0  0  0  0  0  0
   27.7043  -22.3633  -16.1106 C   0  0  0  0  0  0  0  0  0  0  0  0
   27.2210  -23.4520  -15.7627 O   0  0  0  0  0  0  0  0  0  0  0  0
   31.0376  -24.0739  -19.0687 O   0  0  0  0  0  0  0  0  0  0  0  0
   27.5280  -21.2428  -15.2666 N   0  0  0  0  0  0  0  0  0  0  0  0
   26.8121  -21.1964  -14.0356 C   0  0  1  0  0  0  0  0  0  0  0  0
   27.3020  -20.0890  -13.0799 C   0  0  0  0  0  0  0  0  0  0  0  0
   26.6542  -20.1411  -11.7620 C   0  0  0  0  0  0  0  0  0  0  0  0
   25.3639  -19.8745  -11.4174 C   0  0  0  0  0  0  0  0  0  0  0  0
   25.1817  -20.0539  -10.0812 N   0  0  0  0  0  0  0  0  0  0  0  0
   26.3290  -20.4350   -9.5360 C   0  0  0  0  0  0  0  0  0  0  0  0
   26.7364  -20.7573   -8.2500 C   0  0  0  0  0  0  0  0  0  0  0  0
   28.0351  -21.1283   -8.0109 C   0  0  0  0  0  0  0  0  0  0  0  0
   28.9787  -21.1968   -9.0191 C   0  0  0  0  0  0  0  0  0  0  0  0
   28.5609  -20.8733  -10.2946 C   0  0  0  0  0  0  0  0  0  0  0  0
   27.2600  -20.5000  -10.5420 C   0  0  0  0  0  0  0  0  0  0  0  0
   25.3605  -21.1472  -14.1249 C   0  0  0  0  0  0  0  0  0  0  0  0
   24.8065  -20.2438  -14.8425 O   0  0  0  0  0  0  0  0  0  0  0  0
   22.8364  -25.6034  -15.5091 C   0  0  0  0  0  0  0  0  0  0  0  0
   23.2958  -24.1896  -15.3354 C   0  0  0  0  0  0  0  0  0  0  0  0
   22.6416  -23.4996  -14.2111 C   0  0  2  0  0  0  0  0  0  0  0  0
   21.1129  -23.6228  -14.3046 C   0  0  0  0  0  0  0  0  0  0  0  0
   23.0432  -22.1324  -13.8494 C   0  0  2  0  0  0  0  0  0  0  0  0
   24.4645  -22.0358  -13.4710 N   0  0  0  0  0  0  0  0  0  0  0  0
   22.2663  -21.5571  -12.7441 C   0  0  0  0  0  0  0  0  0  0  0  0
   21.1820  -20.6790  -12.9646 O   0  0  0  0  0  0  0  0  0  0  0  0
   22.5000  -21.7995  -11.5332 O   0  0  0  0  0  0  0  0  0  0  0  0
  2  1  1  1
  2  6  1  0
  3  4  1  0
  3  2  1  0
  4  5  2  0
  6  7  2  0
  8  4  1  0
  9  6  1  0
  9 10  1  0
 10 11  1  6
 11 12  1  0
 12 13  2  0
 13 14  1  0
 15 14  1  0
 16 15  2  0
 17 16  1  0
 18 19  1  0
 18 17  2  0
 19 20  2  0
 20 12  1  0
 20 15  1  0
 21 10  1  0
 21 22  2  0
 23 24  1  0
 24 25  1  0
 25 27  1  0
 25 26  1  6
 27 29  1  0
 27 28  1  1
 28 21  1  0
 29 30  1  0
 31 29  2  0
M  END
$$$$
