DWI.pdb
     RDKit          3D

 31 32  0  0  1  0  0  0  0  0999 V2000
   28.7375  -23.4253  -16.5645 N   0  0  0  0  0  0  0  0  0  0  0  0
   28.6840  -22.0798  -16.0285 C   0  0  1  0  0  0  0  0  0  0  0  0
   28.0674  -21.1460  -17.0502 C   0  0  0  0  0  0  0  0  0  0  0  0
   29.0245  -20.9372  -18.1575 C   0  0  0  0  0  0  0  0  0  0  0  0
   30.2045  -21.3382  -18.0348 O   0  0  0  0  0  0  0  0  0  0  0  0
   27.7208  -22.1004  -14.8752 C   0  0  0  0  0  0  0  0  0  0  0  0
   26.5759  -22.5656  -14.9879 O   0  0  0  0  0  0  0  0  0  0  0  0
   28.6740  -20.3100  -19.3427 O   0  0  0  0  0  0  0  0  0  0  0  0
   28.1199  -21.5776  -13.6236 N   0  0  0  0  0  0  0  0  0  0  0  0
   27.3264  -21.4635  -12.4458 C   0  0  1  0  0  0  0  0  0  0  0  0
   28.1119  -20.9497  -11.2216 C   0  0  0  0  0  0  0  0  0  0  0  0
   27.2656  -20.7606  -10.0353 C   0  0  0  0  0  0  0  0  0  0  0  0
   25.9084  -20.7834   -9.9243 C   0  0  0  0  0  0  0  0  0  0  0  0
   25.5330  -20.5682   -8.6345 N   0  0  0  0  0  0  0  0  0  0  0  0
   26.6184  -20.4041   -7.8903 C   0  0  0  0  0  0  0  0  0  0  0  0
   26.8487  -20.1632   -6.5440 C   0  0  0  0  0  0  0  0  0  0  0  0
   28.1320  -20.0445   -6.0745 C   0  0  0  0  0  0  0  0  0  0  0  0
   29.2326  -20.1570   -6.9036 C   0  0  0  0  0  0  0  0  0  0  0  0
   28.9902  -20.3965   -8.2415 C   0  0  0  0  0  0  0  0  0  0  0  0
   27.7058  -20.5164   -8.7197 C   0  0  0  0  0  0  0  0  0  0  0  0
   26.0818  -20.7189  -12.5656 C   0  0  0  0  0  0  0  0  0  0  0  0
   26.1233  -19.4527  -12.7474 O   0  0  0  0  0  0  0  0  0  0  0  0
   23.6415  -20.4686  -16.6993 C   0  0  0  0  0  0  0  0  0  0  0  0
   24.1355  -20.1879  -15.3145 C   0  0  0  0  0  0  0  0  0  0  0  0
   23.2034  -20.6300  -14.2639 C   0  0  2  0  0  0  0  0  0  0  0  0
   21.7891  -20.0865  -14.5192 C   0  0  0  0  0  0  0  0  0  0  0  0
   23.5737  -20.5027  -12.8469 C   0  0  2  0  0  0  0  0  0  0  0  0
   24.7773  -21.2792  -12.4991 N   0  0  0  0  0  0  0  0  0  0  0  0
   22.5151  -20.9146  -11.9163 C   0  0  0  0  0  0  0  0  0  0  0  0
   21.7130  -19.9777  -11.2276 O   0  0  0  0  0  0  0  0  0  0  0  0
   22.2419  -22.1155  -11.6653 O   0  0  0  0  0  0  0  0  0  0  0  0
  2  1  1  6
  2  6  1  0
  3  4  1  0
  3  2  1  0
  4  5  2  0
  6  7  2  0
  8  4  1  0
  9  6  1  0
  9 10  1  0
 10 11  1  1
 11 12  1  0
 12 13  2  0
 13 14  1  0
 15 14  1  0
 16 15  2  0
 17 16  1  0
 18 19  1  0
 18 17  2  0
 19 20  2  0
 20 12  1  0
 20 15  1  0
 21 10  1  0
 21 22  2  0
 23 24  1  0
 24 25  1  0
 25 27  1  0
 25 26  1  1
 27 29  1  0
 27 28  1  6
 28 21  1  0
 29 30  1  0
 31 29  2  0
M  END
$$$$
