DWI.pdb
     RDKit          3D

 31 32  0  0  1  0  0  0  0  0999 V2000
   28.4729  -19.8264  -18.3760 N   0  0  0  0  0  0  0  0  0  0  0  0
   27.9908  -18.8451  -17.4248 C   0  0  1  0  0  0  0  0  0  0  0  0
   27.1181  -17.8298  -18.1345 C   0  0  0  0  0  0  0  0  0  0  0  0
   27.9726  -16.9396  -18.9489 C   0  0  0  0  0  0  0  0  0  0  0  0
   29.2038  -17.1592  -19.0142 O   0  0  0  0  0  0  0  0  0  0  0  0
   27.0744  -19.5626  -16.4740 C   0  0  0  0  0  0  0  0  0  0  0  0
   25.9997  -20.0565  -16.8495 O   0  0  0  0  0  0  0  0  0  0  0  0
   27.4698  -15.8578  -19.6544 O   0  0  0  0  0  0  0  0  0  0  0  0
   27.4370  -19.6833  -15.1129 N   0  0  0  0  0  0  0  0  0  0  0  0
   26.6702  -20.2726  -14.0666 C   0  0  1  0  0  0  0  0  0  0  0  0
   27.4042  -20.3085  -12.7103 C   0  0  0  0  0  0  0  0  0  0  0  0
   26.6294  -20.9780  -11.6565 C   0  0  0  0  0  0  0  0  0  0  0  0
   26.0431  -22.2073  -11.6578 C   0  0  0  0  0  0  0  0  0  0  0  0
   25.4264  -22.4413  -10.4679 N   0  0  0  0  0  0  0  0  0  0  0  0
   25.5952  -21.3885   -9.6794 C   0  0  0  0  0  0  0  0  0  0  0  0
   25.2045  -21.0664   -8.3881 C   0  0  0  0  0  0  0  0  0  0  0  0
   25.5549  -19.8574   -7.8432 C   0  0  0  0  0  0  0  0  0  0  0  0
   26.2980  -18.9231   -8.5406 C   0  0  0  0  0  0  0  0  0  0  0  0
   26.6805  -19.2554   -9.8249 C   0  0  0  0  0  0  0  0  0  0  0  0
   26.3325  -20.4660  -10.3783 C   0  0  0  0  0  0  0  0  0  0  0  0
   25.3242  -19.7550  -13.8714 C   0  0  0  0  0  0  0  0  0  0  0  0
   25.1525  -18.4962  -13.7163 O   0  0  0  0  0  0  0  0  0  0  0  0
   20.1154  -18.8729  -16.1302 C   0  0  0  0  0  0  0  0  0  0  0  0
   20.7195  -19.0944  -14.7788 C   0  0  0  0  0  0  0  0  0  0  0  0
   22.0756  -19.6653  -14.8346 C   0  0  2  0  0  0  0  0  0  0  0  0
   22.1266  -20.8696  -15.7875 C   0  0  0  0  0  0  0  0  0  0  0  0
   22.8132  -19.9389  -13.5927 C   0  0  2  0  0  0  0  0  0  0  0  0
   24.1382  -20.5375  -13.8353 N   0  0  0  0  0  0  0  0  0  0  0  0
   22.1051  -20.8294  -12.6644 C   0  0  0  0  0  0  0  0  0  0  0  0
   21.1195  -20.3541  -11.7709 O   0  0  0  0  0  0  0  0  0  0  0  0
   22.3153  -22.0667  -12.5948 O   0  0  0  0  0  0  0  0  0  0  0  0
  2  1  1  6
  2  6  1  0
  3  4  1  0
  3  2  1  0
  4  5  2  0
  6  7  2  0
  8  4  1  0
  9  6  1  0
  9 10  1  0
 10 11  1  1
 11 12  1  0
 12 13  2  0
 13 14  1  0
 15 14  1  0
 16 15  2  0
 17 16  1  0
 18 19  1  0
 18 17  2  0
 19 20  2  0
 20 12  1  0
 20 15  1  0
 21 10  1  0
 21 22  2  0
 23 24  1  0
 24 25  1  0
 25 27  1  0
 25 26  1  1
 27 29  1  0
 27 28  1  6
 28 21  1  0
 29 30  1  0
 31 29  2  0
M  END
$$$$
