DWI.pdb
     RDKit          3D

 31 32  0  0  1  0  0  0  0  0999 V2000
   28.2811  -22.5991  -15.5297 N   0  0  0  0  0  0  0  0  0  0  0  0
   28.3246  -21.3782  -14.7502 C   0  0  1  0  0  0  0  0  0  0  0  0
   27.7396  -20.2356  -15.5554 C   0  0  0  0  0  0  0  0  0  0  0  0
   28.6610  -19.8992  -16.6616 C   0  0  0  0  0  0  0  0  0  0  0  0
   28.6034  -18.7637  -17.1866 O   0  0  0  0  0  0  0  0  0  0  0  0
   27.3930  -21.5627  -13.5855 C   0  0  0  0  0  0  0  0  0  0  0  0
   26.2677  -22.0677  -13.7221 O   0  0  0  0  0  0  0  0  0  0  0  0
   29.5996  -20.7926  -17.1531 O   0  0  0  0  0  0  0  0  0  0  0  0
   27.7998  -21.1529  -12.2950 N   0  0  0  0  0  0  0  0  0  0  0  0
   27.0077  -21.1247  -11.1110 C   0  0  1  0  0  0  0  0  0  0  0  0
   27.7838  -20.6588   -9.8619 C   0  0  0  0  0  0  0  0  0  0  0  0
   26.9330  -20.5389   -8.6699 C   0  0  0  0  0  0  0  0  0  0  0  0
   25.5974  -20.7655   -8.5300 C   0  0  0  0  0  0  0  0  0  0  0  0
   25.2090  -20.5412   -7.2455 N   0  0  0  0  0  0  0  0  0  0  0  0
   26.2646  -20.1707   -6.5333 C   0  0  0  0  0  0  0  0  0  0  0  0
   26.4710  -19.8241   -5.2064 C   0  0  0  0  0  0  0  0  0  0  0  0
   27.7258  -19.4827   -4.7702 C   0  0  0  0  0  0  0  0  0  0  0  0
   28.8203  -19.4683   -5.6148 C   0  0  0  0  0  0  0  0  0  0  0  0
   28.6018  -19.8149   -6.9333 C   0  0  0  0  0  0  0  0  0  0  0  0
   27.3459  -20.1582   -7.3781 C   0  0  0  0  0  0  0  0  0  0  0  0
   25.7437  -20.4076  -11.1870 C   0  0  0  0  0  0  0  0  0  0  0  0
   25.7517  -19.1342  -11.3161 O   0  0  0  0  0  0  0  0  0  0  0  0
   23.9660  -19.3839  -15.2498 C   0  0  0  0  0  0  0  0  0  0  0  0
   24.1288  -19.3238  -13.7631 C   0  0  0  0  0  0  0  0  0  0  0  0
   23.1611  -20.1637  -13.0378 C   0  0  2  0  0  0  0  0  0  0  0  0
   21.7238  -19.8615  -13.4890 C   0  0  0  0  0  0  0  0  0  0  0  0
   23.2434  -20.2899  -11.5754 C   0  0  2  0  0  0  0  0  0  0  0  0
   24.4544  -21.0030  -11.1309 N   0  0  0  0  0  0  0  0  0  0  0  0
   22.0955  -20.9794  -10.9725 C   0  0  0  0  0  0  0  0  0  0  0  0
   21.9486  -22.3833  -11.0265 O   0  0  0  0  0  0  0  0  0  0  0  0
   21.1688  -20.3834  -10.3678 O   0  0  0  0  0  0  0  0  0  0  0  0
  2  1  1  6
  2  6  1  0
  3  4  1  0
  3  2  1  0
  4  5  2  0
  6  7  2  0
  8  4  1  0
  9  6  1  0
  9 10  1  0
 10 11  1  1
 11 12  1  0
 12 13  2  0
 13 14  1  0
 15 14  1  0
 16 15  2  0
 17 16  1  0
 18 19  1  0
 18 17  2  0
 19 20  2  0
 20 12  1  0
 20 15  1  0
 21 10  1  0
 21 22  2  0
 23 24  1  0
 24 25  1  0
 25 27  1  0
 25 26  1  1
 27 29  1  0
 27 28  1  6
 28 21  1  0
 29 30  1  0
 31 29  2  0
M  END
$$$$
