CCK.pdb
     RDKit          3D

 22 21  0  0  1  0  0  0  0  0999 V2000
    8.0870  -12.7754   19.2909 N   0  0  0  0  0  0  0  0  0  0  0  0
    7.6230  -13.8556   20.1441 C   0  0  1  0  0  0  0  0  0  0  0  0
    8.1863  -15.1363   19.5885 C   0  0  0  0  0  0  0  0  0  0  0  0
    7.0867  -15.9316   18.4018 S   0  0  0  0  0  0  0  0  0  0  0  0
    8.0196  -13.6045   21.5423 C   0  0  0  0  0  0  0  0  0  0  0  0
    9.1807  -13.1722   21.7818 O   0  0  0  0  0  0  0  0  0  0  0  0
    7.1767  -13.8172   22.6550 N   0  0  0  0  0  0  0  0  0  0  0  0
    7.5114  -13.5724   24.0185 C   0  0  1  0  0  0  0  0  0  0  0  0
    6.2185  -13.2317   24.7710 C   0  0  0  0  0  0  0  0  0  0  0  0
    6.5128  -12.9276   26.5128 S   0  0  0  0  0  0  0  0  0  0  0  0
    8.2314  -14.6614   24.6751 C   0  0  0  0  0  0  0  0  0  0  0  0
    7.9546  -15.8469   24.3692 O   0  0  0  0  0  0  0  0  0  0  0  0
    9.2410  -14.4746   25.6528 N   0  0  0  0  0  0  0  0  0  0  0  0
    9.9039  -15.5746   26.3444 C   0  0  1  0  0  0  0  0  0  0  0  0
   10.6019  -15.1606   27.5843 C   0  0  0  0  0  0  0  0  0  0  0  0
   11.2054  -16.2130   28.4289 C   0  0  0  0  0  0  0  0  0  0  0  0
   11.1484  -16.0170   29.9062 C   0  0  0  0  0  0  0  0  0  0  0  0
   11.8607  -17.2132   30.5699 C   0  0  0  0  0  0  0  0  0  0  0  0
   11.8696  -17.0302   32.0095 N   0  0  0  0  0  0  0  0  0  0  0  0
    8.9094  -16.6537   26.5195 C   0  0  0  0  0  0  0  0  0  0  0  0
    9.2640  -17.8572   26.5132 O   0  0  0  0  0  0  0  0  0  0  0  0
    7.5635  -16.3724   26.6932 O   0  0  0  0  0  0  0  0  0  0  0  0
  2  1  1  6
  2  5  1  0
  3  2  1  0
  4  3  1  0
  5  6  2  0
  7  5  1  0
  7  8  1  0
  8 11  1  0
  8  9  1  1
 10  9  1  0
 11 13  1  0
 12 11  2  0
 13 14  1  0
 14 15  1  1
 15 16  1  0
 16 17  1  0
 17 18  1  0
 19 18  1  0
 20 22  1  0
 20 14  1  0
 21 20  2  0
M  END
$$$$
