CCK.pdb
     RDKit          3D

 22 21  0  0  1  0  0  0  0  0999 V2000
    7.9240  -17.9912   17.3663 N   0  0  0  0  0  0  0  0  0  0  0  0
    7.2583  -17.4938   18.5578 C   0  0  1  0  0  0  0  0  0  0  0  0
    6.5589  -18.6626   19.1989 C   0  0  0  0  0  0  0  0  0  0  0  0
    5.7099  -19.7145   18.0060 S   0  0  0  0  0  0  0  0  0  0  0  0
    8.2346  -16.8403   19.4494 C   0  0  0  0  0  0  0  0  0  0  0  0
    9.4646  -17.0687   19.2839 O   0  0  0  0  0  0  0  0  0  0  0  0
    7.8853  -15.9595   20.4964 N   0  0  0  0  0  0  0  0  0  0  0  0
    8.7928  -15.3110   21.3835 C   0  0  1  0  0  0  0  0  0  0  0  0
    8.0779  -14.0960   21.9893 C   0  0  0  0  0  0  0  0  0  0  0  0
    6.6581  -14.5718   22.9746 S   0  0  0  0  0  0  0  0  0  0  0  0
    9.3455  -16.1713   22.4274 C   0  0  0  0  0  0  0  0  0  0  0  0
    8.6984  -17.1843   22.7886 O   0  0  0  0  0  0  0  0  0  0  0  0
   10.5849  -15.9419   23.0765 N   0  0  0  0  0  0  0  0  0  0  0  0
   11.4083  -17.0076   23.6370 C   0  0  1  0  0  0  0  0  0  0  0  0
   11.7080  -18.0937   22.6744 C   0  0  0  0  0  0  0  0  0  0  0  0
   12.5303  -19.2304   23.1400 C   0  0  0  0  0  0  0  0  0  0  0  0
   12.7731  -20.3377   22.1710 C   0  0  0  0  0  0  0  0  0  0  0  0
   13.5838  -21.4314   22.8959 C   0  0  0  0  0  0  0  0  0  0  0  0
   13.5992  -22.6357   22.0864 N   0  0  0  0  0  0  0  0  0  0  0  0
   12.5939  -16.3763   24.2534 C   0  0  0  0  0  0  0  0  0  0  0  0
   13.0754  -15.3197   23.7782 O   0  0  0  0  0  0  0  0  0  0  0  0
   13.2077  -16.9284   25.3666 O   0  0  0  0  0  0  0  0  0  0  0  0
  2  1  1  6
  2  5  1  0
  3  2  1  0
  4  3  1  0
  5  6  2  0
  7  5  1  0
  7  8  1  0
  8 11  1  0
  8  9  1  1
 10  9  1  0
 11 13  1  0
 12 11  2  0
 13 14  1  0
 14 15  1  6
 15 16  1  0
 16 17  1  0
 17 18  1  0
 19 18  1  0
 20 22  1  0
 20 14  1  0
 21 20  2  0
M  END
$$$$
