CCK.pdb
     RDKit          3D

 22 21  0  0  1  0  0  0  0  0999 V2000
    8.6202  -15.5147   20.3551 N   0  0  0  0  0  0  0  0  0  0  0  0
    7.6213  -15.5546   21.4090 C   0  0  1  0  0  0  0  0  0  0  0  0
    7.2675  -17.0004   21.6340 C   0  0  0  0  0  0  0  0  0  0  0  0
    6.4675  -17.7587   20.2074 S   0  0  0  0  0  0  0  0  0  0  0  0
    8.1338  -14.8863   22.6199 C   0  0  0  0  0  0  0  0  0  0  0  0
    9.3798  -14.8416   22.8144 O   0  0  0  0  0  0  0  0  0  0  0  0
    7.3141  -14.2805   23.5971 N   0  0  0  0  0  0  0  0  0  0  0  0
    7.7608  -13.6790   24.8094 C   0  0  1  0  0  0  0  0  0  0  0  0
    6.5869  -12.8955   25.4113 C   0  0  0  0  0  0  0  0  0  0  0  0
    6.9429  -12.3174   27.0703 S   0  0  0  0  0  0  0  0  0  0  0  0
    8.3249  -14.6124   25.7821 C   0  0  0  0  0  0  0  0  0  0  0  0
    7.6212  -15.5692   26.1878 O   0  0  0  0  0  0  0  0  0  0  0  0
    9.6360  -14.5154   26.3129 N   0  0  0  0  0  0  0  0  0  0  0  0
   10.1605  -15.4198   27.3301 C   0  0  1  0  0  0  0  0  0  0  0  0
   11.4587  -16.0340   26.9647 C   0  0  0  0  0  0  0  0  0  0  0  0
   12.0829  -16.9679   27.9256 C   0  0  0  0  0  0  0  0  0  0  0  0
   11.5159  -18.3449   28.0036 C   0  0  0  0  0  0  0  0  0  0  0  0
   12.3599  -19.1475   29.0148 C   0  0  0  0  0  0  0  0  0  0  0  0
   11.7180  -20.4232   29.2728 N   0  0  0  0  0  0  0  0  0  0  0  0
   10.1548  -14.6933   28.6170 C   0  0  0  0  0  0  0  0  0  0  0  0
   10.3046  -15.3094   29.6997 O   0  0  0  0  0  0  0  0  0  0  0  0
    9.9832  -13.3190   28.6682 O   0  0  0  0  0  0  0  0  0  0  0  0
  2  1  1  6
  2  5  1  0
  3  2  1  0
  4  3  1  0
  5  6  2  0
  7  5  1  0
  7  8  1  0
  8 11  1  0
  8  9  1  1
 10  9  1  0
 11 13  1  0
 12 11  2  0
 13 14  1  0
 14 15  1  6
 15 16  1  0
 16 17  1  0
 17 18  1  0
 19 18  1  0
 20 22  1  0
 20 14  1  0
 21 20  2  0
M  END
$$$$
