CCK.pdb
     RDKit          3D

 22 21  0  0  1  0  0  0  0  0999 V2000
    8.7788  -15.7151   20.5626 N   0  0  0  0  0  0  0  0  0  0  0  0
    7.6815  -15.4915   21.4879 C   0  0  1  0  0  0  0  0  0  0  0  0
    7.0075  -16.8192   21.7098 C   0  0  0  0  0  0  0  0  0  0  0  0
    8.0266  -17.9781   22.6416 S   0  0  0  0  0  0  0  0  0  0  0  0
    8.1834  -14.8792   22.7323 C   0  0  0  0  0  0  0  0  0  0  0  0
    9.3896  -15.0550   23.0587 O   0  0  0  0  0  0  0  0  0  0  0  0
    7.3956  -14.0944   23.6026 N   0  0  0  0  0  0  0  0  0  0  0  0
    7.8132  -13.5556   24.8540 C   0  0  1  0  0  0  0  0  0  0  0  0
    6.7165  -12.6049   25.3514 C   0  0  0  0  0  0  0  0  0  0  0  0
    7.0507  -11.9965   27.0040 S   0  0  0  0  0  0  0  0  0  0  0  0
    8.1444  -14.5540   25.8684 C   0  0  0  0  0  0  0  0  0  0  0  0
    7.3435  -15.4971   26.0798 O   0  0  0  0  0  0  0  0  0  0  0  0
    9.3284  -14.5363   26.6482 N   0  0  0  0  0  0  0  0  0  0  0  0
    9.6857  -15.5901   27.5913 C   0  0  1  0  0  0  0  0  0  0  0  0
   10.8923  -16.3547   27.1969 C   0  0  0  0  0  0  0  0  0  0  0  0
   10.8800  -17.0526   25.8938 C   0  0  0  0  0  0  0  0  0  0  0  0
   12.1993  -17.4367   25.3143 C   0  0  0  0  0  0  0  0  0  0  0  0
   11.9367  -18.1524   23.9735 C   0  0  0  0  0  0  0  0  0  0  0  0
   13.1999  -18.3957   23.3019 N   0  0  0  0  0  0  0  0  0  0  0  0
    9.7455  -14.9815   28.9367 C   0  0  0  0  0  0  0  0  0  0  0  0
    9.6112  -13.7428   29.0846 O   0  0  0  0  0  0  0  0  0  0  0  0
    9.9521  -15.7538   30.0688 O   0  0  0  0  0  0  0  0  0  0  0  0
  2  1  1  6
  2  5  1  0
  3  2  1  0
  4  3  1  0
  5  6  2  0
  7  5  1  0
  7  8  1  0
  8 11  1  0
  8  9  1  1
 10  9  1  0
 11 13  1  0
 12 11  2  0
 13 14  1  0
 14 15  1  6
 15 16  1  0
 16 17  1  0
 17 18  1  0
 19 18  1  0
 20 22  1  0
 20 14  1  0
 21 20  2  0
M  END
$$$$
