CCK.pdb
     RDKit          3D

 22 21  0  0  1  0  0  0  0  0999 V2000
    8.7715  -16.6200   15.8399 N   0  0  0  0  0  0  0  0  0  0  0  0
    9.0378  -17.4122   17.0280 C   0  0  1  0  0  0  0  0  0  0  0  0
    9.8327  -18.6146   16.5936 C   0  0  0  0  0  0  0  0  0  0  0  0
    8.9293  -20.1625   16.7880 S   0  0  0  0  0  0  0  0  0  0  0  0
    9.7297  -16.5926   18.0403 C   0  0  0  0  0  0  0  0  0  0  0  0
   10.3507  -15.5579   17.6711 O   0  0  0  0  0  0  0  0  0  0  0  0
    9.7480  -16.8882   19.4209 N   0  0  0  0  0  0  0  0  0  0  0  0
   10.4548  -16.1629   20.4236 C   0  0  1  0  0  0  0  0  0  0  0  0
    9.8308  -16.5020   21.7836 C   0  0  0  0  0  0  0  0  0  0  0  0
   10.7705  -15.8143   23.1464 S   0  0  0  0  0  0  0  0  0  0  0  0
   11.8987  -16.3881   20.4360 C   0  0  0  0  0  0  0  0  0  0  0  0
   12.3349  -17.5556   20.2879 O   0  0  0  0  0  0  0  0  0  0  0  0
   12.8641  -15.3638   20.6064 N   0  0  0  0  0  0  0  0  0  0  0  0
   14.2997  -15.5806   20.4654 C   0  0  1  0  0  0  0  0  0  0  0  0
   14.9927  -14.4991   19.7263 C   0  0  0  0  0  0  0  0  0  0  0  0
   16.4426  -14.6435   19.4772 C   0  0  0  0  0  0  0  0  0  0  0  0
   17.1283  -13.5208   18.7747 C   0  0  0  0  0  0  0  0  0  0  0  0
   18.6180  -13.8929   18.6300 C   0  0  0  0  0  0  0  0  0  0  0  0
   19.2465  -13.0010   17.6732 N   0  0  0  0  0  0  0  0  0  0  0  0
   14.8414  -15.8623   21.8112 C   0  0  0  0  0  0  0  0  0  0  0  0
   14.2853  -15.3960   22.8347 O   0  0  0  0  0  0  0  0  0  0  0  0
   15.9734  -16.6430   21.9837 O   0  0  0  0  0  0  0  0  0  0  0  0
  2  1  1  6
  2  5  1  0
  3  2  1  0
  4  3  1  0
  5  6  2  0
  7  5  1  0
  7  8  1  0
  8 11  1  0
  8  9  1  1
 10  9  1  0
 11 13  1  0
 12 11  2  0
 13 14  1  0
 14 15  1  1
 15 16  1  0
 16 17  1  0
 17 18  1  0
 19 18  1  0
 20 22  1  0
 20 14  1  0
 21 20  2  0
M  END
$$$$
