CCK.pdb
     RDKit          3D

 22 21  0  0  1  0  0  0  0  0999 V2000
    8.7579  -15.6475   20.2395 N   0  0  0  0  0  0  0  0  0  0  0  0
    7.7231  -15.6973   21.2578 C   0  0  1  0  0  0  0  0  0  0  0  0
    7.3391  -17.1422   21.4334 C   0  0  0  0  0  0  0  0  0  0  0  0
    6.5201  -17.8333   19.9837 S   0  0  0  0  0  0  0  0  0  0  0  0
    8.2044  -15.0683   22.5020 C   0  0  0  0  0  0  0  0  0  0  0  0
    9.4340  -15.1225   22.7802 O   0  0  0  0  0  0  0  0  0  0  0  0
    7.3716  -14.3962   23.4232 N   0  0  0  0  0  0  0  0  0  0  0  0
    7.7856  -13.8118   24.6553 C   0  0  1  0  0  0  0  0  0  0  0  0
    6.6249  -12.9645   25.1926 C   0  0  0  0  0  0  0  0  0  0  0  0
    6.9288  -12.3869   26.8621 S   0  0  0  0  0  0  0  0  0  0  0  0
    8.2486  -14.7677   25.6590 C   0  0  0  0  0  0  0  0  0  0  0  0
    7.5469  -15.7782   25.9077 O   0  0  0  0  0  0  0  0  0  0  0  0
    9.4572  -14.6356   26.3884 N   0  0  0  0  0  0  0  0  0  0  0  0
    9.9121  -15.6102   27.3738 C   0  0  1  0  0  0  0  0  0  0  0  0
   11.2264  -16.2126   27.0487 C   0  0  0  0  0  0  0  0  0  0  0  0
   11.7845  -17.2134   27.9827 C   0  0  0  0  0  0  0  0  0  0  0  0
   11.7298  -18.6430   27.5618 C   0  0  0  0  0  0  0  0  0  0  0  0
   12.4177  -19.4849   28.6558 C   0  0  0  0  0  0  0  0  0  0  0  0
   12.4045  -20.8830   28.2674 N   0  0  0  0  0  0  0  0  0  0  0  0
    9.8317  -14.9695   28.7031 C   0  0  0  0  0  0  0  0  0  0  0  0
    9.7718  -13.7207   28.8084 O   0  0  0  0  0  0  0  0  0  0  0  0
    9.8217  -15.7222   29.8667 O   0  0  0  0  0  0  0  0  0  0  0  0
  2  1  1  6
  2  5  1  0
  3  2  1  0
  4  3  1  0
  5  6  2  0
  7  5  1  0
  7  8  1  0
  8 11  1  0
  8  9  1  1
 10  9  1  0
 11 13  1  0
 12 11  2  0
 13 14  1  0
 14 15  1  6
 15 16  1  0
 16 17  1  0
 17 18  1  0
 19 18  1  0
 20 22  1  0
 20 14  1  0
 21 20  2  0
M  END
$$$$
