YFF.pdb
     RDKit          3D

 35 37  0  0  1  0  0  0  0  0999 V2000
    9.1793  -23.8749   17.3231 O   0  0  0  0  0  0  0  0  0  0  0  0
    9.4943  -22.7716   18.1262 C   0  0  0  0  0  0  0  0  0  0  0  0
    8.5096  -22.3139   18.9698 C   0  0  0  0  0  0  0  0  0  0  0  0
    8.8023  -21.2249   19.7708 C   0  0  0  0  0  0  0  0  0  0  0  0
   10.0216  -20.6018   19.7478 C   0  0  0  0  0  0  0  0  0  0  0  0
   10.2554  -19.4296   20.6471 C   0  0  0  0  0  0  0  0  0  0  0  0
    9.5695  -18.2293   19.9967 C   0  0  2  0  0  0  0  0  0  0  0  0
   10.2159  -17.9807   18.7264 N   0  0  0  0  0  0  0  0  0  0  0  0
    9.5980  -17.0459   20.8758 C   0  0  0  0  0  0  0  0  0  0  0  0
   10.6222  -16.3198   20.9732 O   0  0  0  0  0  0  0  0  0  0  0  0
   10.9919  -21.0715   18.9006 C   0  0  0  0  0  0  0  0  0  0  0  0
   10.7390  -22.1644   18.0780 C   0  0  0  0  0  0  0  0  0  0  0  0
    8.4661  -16.7021   21.6318 N   0  0  0  0  0  0  0  0  0  0  0  0
    8.4378  -15.6549   22.6382 C   0  0  1  0  0  0  0  0  0  0  0  0
    7.0838  -14.9802   22.5854 C   0  0  0  0  0  0  0  0  0  0  0  0
    6.9320  -13.9281   23.5888 C   0  0  0  0  0  0  0  0  0  0  0  0
    6.2260  -14.1173   24.7534 C   0  0  0  0  0  0  0  0  0  0  0  0
    6.0720  -13.1412   25.7051 C   0  0  0  0  0  0  0  0  0  0  0  0
    6.6380  -11.9014   25.5178 C   0  0  0  0  0  0  0  0  0  0  0  0
    7.3527  -11.6809   24.3591 C   0  0  0  0  0  0  0  0  0  0  0  0
    7.4989  -12.6870   23.4011 C   0  0  0  0  0  0  0  0  0  0  0  0
    8.7583  -16.2569   23.9420 C   0  0  0  0  0  0  0  0  0  0  0  0
    7.8380  -16.6046   24.7137 O   0  0  0  0  0  0  0  0  0  0  0  0
   10.1013  -16.4633   24.3615 N   0  0  0  0  0  0  0  0  0  0  0  0
   10.6128  -15.8035   25.5656 C   0  0  1  0  0  0  0  0  0  0  0  0
    9.6976  -16.1356   26.7321 C   0  0  0  0  0  0  0  0  0  0  0  0
   10.1505  -15.5073   27.9901 C   0  0  0  0  0  0  0  0  0  0  0  0
   10.7001  -16.2259   29.0264 C   0  0  0  0  0  0  0  0  0  0  0  0
   11.1084  -15.5934   30.1828 C   0  0  0  0  0  0  0  0  0  0  0  0
   10.9875  -14.2352   30.3523 C   0  0  0  0  0  0  0  0  0  0  0  0
   10.4374  -13.5069   29.3181 C   0  0  0  0  0  0  0  0  0  0  0  0
   10.0273  -14.1457   28.1555 C   0  0  0  0  0  0  0  0  0  0  0  0
   12.0093  -16.1708   25.8421 C   0  0  0  0  0  0  0  0  0  0  0  0
   12.6380  -17.0952   25.0313 O   0  0  0  0  0  0  0  0  0  0  0  0
   12.6589  -15.6759   26.7923 O   0  0  0  0  0  0  0  0  0  0  0  0
  2  3  2  0
  2  1  1  0
  4  3  1  0
  5  4  2  0
  6  5  1  0
  7  6  1  0
  7  8  1  6
  9  7  1  0
  9 10  2  0
 11  5  1  0
 11 12  2  0
 12  2  1  0
 13  9  1  0
 14 13  1  0
 14 15  1  1
 16 17  2  0
 16 15  1  0
 18 17  1  0
 19 18  2  0
 20 21  2  0
 20 19  1  0
 21 16  1  0
 22 14  1  0
 23 22  2  0
 24 22  1  0
 25 26  1  1
 25 24  1  0
 26 27  1  0
 27 28  2  0
 27 32  1  0
 28 29  1  0
 29 30  2  0
 31 30  1  0
 32 31  2  0
 33 25  1  0
 34 33  1  0
 35 33  2  0
M  END
$$$$
