YFF.pdb
     RDKit          3D

 35 37  0  0  1  0  0  0  0  0999 V2000
    6.9272  -21.5138   16.2857 O   0  0  0  0  0  0  0  0  0  0  0  0
    7.4238  -20.8551   17.4175 C   0  0  0  0  0  0  0  0  0  0  0  0
    6.5018  -20.4254   18.3427 C   0  0  0  0  0  0  0  0  0  0  0  0
    6.9735  -19.7728   19.4672 C   0  0  0  0  0  0  0  0  0  0  0  0
    8.3072  -19.5468   19.6811 C   0  0  0  0  0  0  0  0  0  0  0  0
    8.7328  -18.8328   20.9246 C   0  0  0  0  0  0  0  0  0  0  0  0
    8.8169  -17.3478   20.5754 C   0  0  2  0  0  0  0  0  0  0  0  0
    9.8038  -17.1911   19.5291 N   0  0  0  0  0  0  0  0  0  0  0  0
    9.1289  -16.5283   21.7608 C   0  0  0  0  0  0  0  0  0  0  0  0
   10.3140  -16.3487   22.1465 O   0  0  0  0  0  0  0  0  0  0  0  0
    9.2127  -19.9820   18.7481 C   0  0  0  0  0  0  0  0  0  0  0  0
    8.7806  -20.6428   17.6028 C   0  0  0  0  0  0  0  0  0  0  0  0
    8.0939  -15.9241   22.4921 N   0  0  0  0  0  0  0  0  0  0  0  0
    8.2891  -15.1523   23.7072 C   0  0  1  0  0  0  0  0  0  0  0  0
    7.1802  -14.1265   23.8030 C   0  0  0  0  0  0  0  0  0  0  0  0
    7.2024  -13.3791   25.0591 C   0  0  0  0  0  0  0  0  0  0  0  0
    6.3188  -13.6313   26.0819 C   0  0  0  0  0  0  0  0  0  0  0  0
    6.3241  -12.9391   27.2664 C   0  0  0  0  0  0  0  0  0  0  0  0
    7.2443  -11.9378   27.4748 C   0  0  0  0  0  0  0  0  0  0  0  0
    8.1442  -11.6613   26.4670 C   0  0  0  0  0  0  0  0  0  0  0  0
    8.1237  -12.3767   25.2674 C   0  0  0  0  0  0  0  0  0  0  0  0
    8.3444  -16.0848   24.8442 C   0  0  0  0  0  0  0  0  0  0  0  0
    7.3044  -16.6598   25.2328 O   0  0  0  0  0  0  0  0  0  0  0  0
    9.5608  -16.3619   25.5267 N   0  0  0  0  0  0  0  0  0  0  0  0
    9.5587  -17.1689   26.7497 C   0  0  1  0  0  0  0  0  0  0  0  0
    9.8989  -18.6051   26.3891 C   0  0  0  0  0  0  0  0  0  0  0  0
    8.8304  -19.2470   25.5962 C   0  0  0  0  0  0  0  0  0  0  0  0
    8.9865  -19.5869   24.2724 C   0  0  0  0  0  0  0  0  0  0  0  0
    7.9583  -20.1853   23.5734 C   0  0  0  0  0  0  0  0  0  0  0  0
    6.7466  -20.4663   24.1575 C   0  0  0  0  0  0  0  0  0  0  0  0
    6.5815  -20.1288   25.4847 C   0  0  0  0  0  0  0  0  0  0  0  0
    7.6177  -19.5268   26.1858 C   0  0  0  0  0  0  0  0  0  0  0  0
   10.4722  -16.6274   27.7665 C   0  0  0  0  0  0  0  0  0  0  0  0
   10.5643  -17.2534   28.9940 O   0  0  0  0  0  0  0  0  0  0  0  0
   11.1768  -15.6114   27.5642 O   0  0  0  0  0  0  0  0  0  0  0  0
  2  3  2  0
  2  1  1  0
  4  3  1  0
  5  4  2  0
  6  5  1  0
  7  6  1  0
  7  8  1  6
  9  7  1  0
  9 10  2  0
 11  5  1  0
 11 12  2  0
 12  2  1  0
 13  9  1  0
 14 13  1  0
 14 15  1  1
 16 17  2  0
 16 15  1  0
 18 17  1  0
 19 18  2  0
 20 21  2  0
 20 19  1  0
 21 16  1  0
 22 14  1  0
 23 22  2  0
 24 22  1  0
 25 26  1  6
 25 24  1  0
 26 27  1  0
 27 28  2  0
 27 32  1  0
 28 29  1  0
 29 30  2  0
 31 30  1  0
 32 31  2  0
 33 25  1  0
 34 33  1  0
 35 33  2  0
M  END
$$$$
