YFF.pdb
     RDKit          3D

 35 37  0  0  1  0  0  0  0  0999 V2000
   13.2603  -21.6398   16.7087 O   0  0  0  0  0  0  0  0  0  0  0  0
   12.9419  -20.9490   17.8847 C   0  0  0  0  0  0  0  0  0  0  0  0
   12.7281  -19.5953   17.7733 C   0  0  0  0  0  0  0  0  0  0  0  0
   12.4125  -18.8960   18.9242 C   0  0  0  0  0  0  0  0  0  0  0  0
   12.3090  -19.5022   20.1479 C   0  0  0  0  0  0  0  0  0  0  0  0
   11.9634  -18.6718   21.3430 C   0  0  0  0  0  0  0  0  0  0  0  0
   11.6102  -17.2780   20.8262 C   0  0  2  0  0  0  0  0  0  0  0  0
   12.8023  -16.7045   20.2402 N   0  0  0  0  0  0  0  0  0  0  0  0
   11.0521  -16.4285   21.8943 C   0  0  0  0  0  0  0  0  0  0  0  0
   11.7922  -15.7433   22.6480 O   0  0  0  0  0  0  0  0  0  0  0  0
   12.5255  -20.8528   20.2406 C   0  0  0  0  0  0  0  0  0  0  0  0
   12.8452  -21.5938   19.1075 C   0  0  0  0  0  0  0  0  0  0  0  0
    9.6636  -16.3675   22.0930 N   0  0  0  0  0  0  0  0  0  0  0  0
    9.0232  -15.7055   23.2163 C   0  0  1  0  0  0  0  0  0  0  0  0
    7.7567  -15.0422   22.7191 C   0  0  0  0  0  0  0  0  0  0  0  0
    7.0876  -14.2482   23.7480 C   0  0  0  0  0  0  0  0  0  0  0  0
    7.3490  -12.9110   23.9326 C   0  0  0  0  0  0  0  0  0  0  0  0
    6.7319  -12.1510   24.8937 C   0  0  0  0  0  0  0  0  0  0  0  0
    5.8013  -12.7220   25.7308 C   0  0  0  0  0  0  0  0  0  0  0  0
    5.5175  -14.0620   25.5702 C   0  0  0  0  0  0  0  0  0  0  0  0
    6.1560  -14.8201   24.5859 C   0  0  0  0  0  0  0  0  0  0  0  0
    8.8028  -16.7017   24.2766 C   0  0  0  0  0  0  0  0  0  0  0  0
    8.5809  -17.8952   23.9773 O   0  0  0  0  0  0  0  0  0  0  0  0
    8.8365  -16.3492   25.6539 N   0  0  0  0  0  0  0  0  0  0  0  0
    8.6868  -17.3771   26.6872 C   0  0  1  0  0  0  0  0  0  0  0  0
    8.7714  -16.7151   28.0521 C   0  0  0  0  0  0  0  0  0  0  0  0
    9.8743  -15.7350   28.1270 C   0  0  0  0  0  0  0  0  0  0  0  0
   11.1397  -16.0681   28.5514 C   0  0  0  0  0  0  0  0  0  0  0  0
   12.1376  -15.1166   28.6042 C   0  0  0  0  0  0  0  0  0  0  0  0
   11.9185  -13.8097   28.2406 C   0  0  0  0  0  0  0  0  0  0  0  0
   10.6524  -13.4671   27.8137 C   0  0  0  0  0  0  0  0  0  0  0  0
    9.6500  -14.4264   27.7616 C   0  0  0  0  0  0  0  0  0  0  0  0
    7.4417  -18.1421   26.5247 C   0  0  0  0  0  0  0  0  0  0  0  0
    7.2440  -19.2798   27.2820 O   0  0  0  0  0  0  0  0  0  0  0  0
    6.5442  -17.8017   25.7194 O   0  0  0  0  0  0  0  0  0  0  0  0
  2  3  2  0
  2  1  1  0
  4  3  1  0
  5  4  2  0
  6  5  1  0
  7  6  1  0
  7  8  1  1
  9  7  1  0
  9 10  2  0
 11  5  1  0
 11 12  2  0
 12  2  1  0
 13  9  1  0
 14 13  1  0
 14 15  1  6
 16 17  2  0
 16 15  1  0
 18 17  1  0
 19 18  2  0
 20 21  2  0
 20 19  1  0
 21 16  1  0
 22 14  1  0
 23 22  2  0
 24 22  1  0
 25 26  1  1
 25 24  1  0
 26 27  1  0
 27 28  2  0
 27 32  1  0
 28 29  1  0
 29 30  2  0
 31 30  1  0
 32 31  2  0
 33 25  1  0
 34 33  1  0
 35 33  2  0
M  END
$$$$
