YFF.pdb
     RDKit          3D

 35 37  0  0  1  0  0  0  0  0999 V2000
    7.4682  -11.8778   19.4733 O   0  0  0  0  0  0  0  0  0  0  0  0
    7.7481  -13.1866   19.8857 C   0  0  0  0  0  0  0  0  0  0  0  0
    8.0689  -14.0939   18.9036 C   0  0  0  0  0  0  0  0  0  0  0  0
    8.3486  -15.3917   19.2917 C   0  0  0  0  0  0  0  0  0  0  0  0
    8.3156  -15.7907   20.6014 C   0  0  0  0  0  0  0  0  0  0  0  0
    8.6314  -17.2142   20.9353 C   0  0  0  0  0  0  0  0  0  0  0  0
   10.1427  -17.2945   21.1450 C   0  0  2  0  0  0  0  0  0  0  0  0
   10.6471  -18.3857   20.3400 N   0  0  0  0  0  0  0  0  0  0  0  0
   10.4851  -17.4511   22.5706 C   0  0  0  0  0  0  0  0  0  0  0  0
   10.6404  -18.5868   23.0918 O   0  0  0  0  0  0  0  0  0  0  0  0
    7.9938  -14.8729   21.5677 C   0  0  0  0  0  0  0  0  0  0  0  0
    7.7056  -13.5570   21.2204 C   0  0  0  0  0  0  0  0  0  0  0  0
   10.6467  -16.3191   23.3851 N   0  0  0  0  0  0  0  0  0  0  0  0
   10.7656  -16.3589   24.8323 C   0  0  1  0  0  0  0  0  0  0  0  0
   11.0997  -14.9658   25.3211 C   0  0  0  0  0  0  0  0  0  0  0  0
   11.0487  -14.8454   26.7771 C   0  0  0  0  0  0  0  0  0  0  0  0
   11.7472  -15.6867   27.6106 C   0  0  0  0  0  0  0  0  0  0  0  0
   11.7099  -15.5893   28.9786 C   0  0  0  0  0  0  0  0  0  0  0  0
   10.9473  -14.6144   29.5790 C   0  0  0  0  0  0  0  0  0  0  0  0
   10.2351  -13.7548   28.7692 C   0  0  0  0  0  0  0  0  0  0  0  0
   10.2852  -13.8692   27.3780 C   0  0  0  0  0  0  0  0  0  0  0  0
    9.5161  -16.9055   25.3848 C   0  0  0  0  0  0  0  0  0  0  0  0
    9.5165  -17.4561   26.5073 O   0  0  0  0  0  0  0  0  0  0  0  0
    8.2861  -16.8258   24.6757 N   0  0  0  0  0  0  0  0  0  0  0  0
    7.0170  -17.0912   25.3583 C   0  0  1  0  0  0  0  0  0  0  0  0
    5.9356  -16.2246   24.7355 C   0  0  0  0  0  0  0  0  0  0  0  0
    6.2302  -14.7835   24.8734 C   0  0  0  0  0  0  0  0  0  0  0  0
    5.7563  -14.0225   25.9168 C   0  0  0  0  0  0  0  0  0  0  0  0
    6.0588  -12.6790   26.0023 C   0  0  0  0  0  0  0  0  0  0  0  0
    6.8368  -12.0459   25.0630 C   0  0  0  0  0  0  0  0  0  0  0  0
    7.3162  -12.8015   24.0134 C   0  0  0  0  0  0  0  0  0  0  0  0
    7.0103  -14.1533   23.9297 C   0  0  0  0  0  0  0  0  0  0  0  0
    6.6635  -18.5180   25.3253 C   0  0  0  0  0  0  0  0  0  0  0  0
    5.5544  -18.9555   26.0221 O   0  0  0  0  0  0  0  0  0  0  0  0
    7.3334  -19.3617   24.6856 O   0  0  0  0  0  0  0  0  0  0  0  0
  2  3  2  0
  2  1  1  0
  4  3  1  0
  5  4  2  0
  6  5  1  0
  7  6  1  0
  7  8  1  6
  9  7  1  0
  9 10  2  0
 11  5  1  0
 11 12  2  0
 12  2  1  0
 13  9  1  0
 14 13  1  0
 14 15  1  1
 16 17  2  0
 16 15  1  0
 18 17  1  0
 19 18  2  0
 20 21  2  0
 20 19  1  0
 21 16  1  0
 22 14  1  0
 23 22  2  0
 24 22  1  0
 25 26  1  6
 25 24  1  0
 26 27  1  0
 27 28  2  0
 27 32  1  0
 28 29  1  0
 29 30  2  0
 31 30  1  0
 32 31  2  0
 33 25  1  0
 34 33  1  0
 35 33  2  0
M  END
$$$$
