YFF.pdb
     RDKit          3D

 35 37  0  0  1  0  0  0  0  0999 V2000
    5.3483  -23.3454   18.1707 O   0  0  0  0  0  0  0  0  0  0  0  0
    6.0875  -22.4062   18.9007 C   0  0  0  0  0  0  0  0  0  0  0  0
    7.4004  -22.7170   19.1659 C   0  0  0  0  0  0  0  0  0  0  0  0
    8.1465  -21.8015   19.8857 C   0  0  0  0  0  0  0  0  0  0  0  0
    7.6246  -20.6170   20.3331 C   0  0  0  0  0  0  0  0  0  0  0  0
    8.5010  -19.6825   21.1052 C   0  0  0  0  0  0  0  0  0  0  0  0
    8.6989  -18.4417   20.2359 C   0  0  2  0  0  0  0  0  0  0  0  0
    9.4520  -18.8338   19.0643 N   0  0  0  0  0  0  0  0  0  0  0  0
    9.3590  -17.3554   20.9830 C   0  0  0  0  0  0  0  0  0  0  0  0
   10.6090  -17.2051   20.9638 O   0  0  0  0  0  0  0  0  0  0  0  0
    6.3137  -20.3232   20.0595 C   0  0  0  0  0  0  0  0  0  0  0  0
    5.5279  -21.2164   19.3385 C   0  0  0  0  0  0  0  0  0  0  0  0
    8.5936  -16.4550   21.7409 N   0  0  0  0  0  0  0  0  0  0  0  0
    9.1295  -15.2824   22.4102 C   0  0  1  0  0  0  0  0  0  0  0  0
    8.1221  -14.1598   22.2835 C   0  0  0  0  0  0  0  0  0  0  0  0
    8.0129  -13.6436   20.9202 C   0  0  0  0  0  0  0  0  0  0  0  0
    7.0649  -12.7161   20.5575 C   0  0  0  0  0  0  0  0  0  0  0  0
    6.9468  -12.2220   19.2831 C   0  0  0  0  0  0  0  0  0  0  0  0
    7.8017  -12.6534   18.2954 C   0  0  0  0  0  0  0  0  0  0  0  0
    8.7637  -13.5838   18.6283 C   0  0  0  0  0  0  0  0  0  0  0  0
    8.8688  -14.0757   19.9314 C   0  0  0  0  0  0  0  0  0  0  0  0
    9.4497  -15.6479   23.7992 C   0  0  0  0  0  0  0  0  0  0  0  0
   10.5391  -15.2976   24.3031 O   0  0  0  0  0  0  0  0  0  0  0  0
    8.5468  -16.3963   24.6035 N   0  0  0  0  0  0  0  0  0  0  0  0
    8.8591  -16.6745   26.0078 C   0  0  1  0  0  0  0  0  0  0  0  0
    7.6738  -16.2614   26.8639 C   0  0  0  0  0  0  0  0  0  0  0  0
    7.4292  -14.8055   26.8091 C   0  0  0  0  0  0  0  0  0  0  0  0
    6.2683  -14.2631   26.3088 C   0  0  0  0  0  0  0  0  0  0  0  0
    6.0861  -12.8957   26.2786 C   0  0  0  0  0  0  0  0  0  0  0  0
    7.0417  -12.0228   26.7402 C   0  0  0  0  0  0  0  0  0  0  0  0
    8.2090  -12.5581   27.2437 C   0  0  0  0  0  0  0  0  0  0  0  0
    8.3898  -13.9345   27.2729 C   0  0  0  0  0  0  0  0  0  0  0  0
    9.2254  -18.0824   26.2206 C   0  0  0  0  0  0  0  0  0  0  0  0
    9.6254  -18.4940   27.4766 O   0  0  0  0  0  0  0  0  0  0  0  0
    9.1901  -18.9323   25.3007 O   0  0  0  0  0  0  0  0  0  0  0  0
  2  3  2  0
  2  1  1  0
  4  3  1  0
  5  4  2  0
  6  5  1  0
  7  6  1  0
  7  8  1  6
  9  7  1  0
  9 10  2  0
 11  5  1  0
 11 12  2  0
 12  2  1  0
 13  9  1  0
 14 13  1  0
 14 15  1  1
 16 17  2  0
 16 15  1  0
 18 17  1  0
 19 18  2  0
 20 21  2  0
 20 19  1  0
 21 16  1  0
 22 14  1  0
 23 22  2  0
 24 22  1  0
 25 26  1  1
 25 24  1  0
 26 27  1  0
 27 28  2  0
 27 32  1  0
 28 29  1  0
 29 30  2  0
 31 30  1  0
 32 31  2  0
 33 25  1  0
 34 33  1  0
 35 33  2  0
M  END
$$$$
