TFG.pdb
     RDKit          3D

 23 23  0  0  1  0  0  0  0  0999 V2000
    6.9038  -14.2717   18.5415 C   0  0  0  0  0  0  0  0  0  0  0  0
    7.5475  -14.6196   19.8662 C   0  0  1  0  0  0  0  0  0  0  0  0
    8.8044  -15.1616   19.6035 O   0  0  0  0  0  0  0  0  0  0  0  0
    7.7534  -13.3762   20.6983 C   0  0  2  0  0  0  0  0  0  0  0  0
    8.4353  -12.3765   19.9059 N   0  0  0  0  0  0  0  0  0  0  0  0
    8.4547  -13.6637   21.9746 C   0  0  0  0  0  0  0  0  0  0  0  0
    9.6184  -13.2459   22.1094 O   0  0  0  0  0  0  0  0  0  0  0  0
    7.8859  -14.3825   23.0492 N   0  0  0  0  0  0  0  0  0  0  0  0
    8.5352  -14.6672   24.2858 C   0  0  1  0  0  0  0  0  0  0  0  0
    7.4565  -14.8358   25.3511 C   0  0  0  0  0  0  0  0  0  0  0  0
    7.1454  -13.5598   26.0247 C   0  0  0  0  0  0  0  0  0  0  0  0
    8.1066  -12.6056   26.2792 C   0  0  0  0  0  0  0  0  0  0  0  0
    7.8235  -11.4122   26.9077 C   0  0  0  0  0  0  0  0  0  0  0  0
    6.5208  -11.1622   27.2991 C   0  0  0  0  0  0  0  0  0  0  0  0
    5.5198  -12.0991   27.0611 C   0  0  0  0  0  0  0  0  0  0  0  0
    5.8517  -13.2972   26.4201 C   0  0  0  0  0  0  0  0  0  0  0  0
    9.3700  -15.8529   24.2983 C   0  0  0  0  0  0  0  0  0  0  0  0
    9.8410  -16.2998   25.3651 O   0  0  0  0  0  0  0  0  0  0  0  0
    9.6661  -16.5273   23.0914 N   0  0  0  0  0  0  0  0  0  0  0  0
   10.3929  -17.7882   23.1530 C   0  0  0  0  0  0  0  0  0  0  0  0
   10.5598  -18.3439   21.7992 C   0  0  0  0  0  0  0  0  0  0  0  0
   11.5885  -18.0882   21.1256 O   0  0  0  0  0  0  0  0  0  0  0  0
    9.5879  -19.1482   21.2634 O   0  0  0  0  0  0  0  0  0  0  0  0
  2  1  1  6
  2  4  1  0
  3  2  1  0
  4  5  1  6
  6  4  1  0
  7  6  2  0
  8  6  1  0
  9  8  1  0
  9 10  1  1
 10 11  1  0
 11 12  2  0
 11 16  1  0
 12 13  1  0
 13 14  2  0
 15 14  1  0
 16 15  2  0
 17 19  1  0
 17  9  1  0
 18 17  2  0
 20 19  1  0
 21 20  1  0
 21 23  1  0
 22 21  2  0
M  END
$$$$
