TFG.pdb
     RDKit          3D

 23 23  0  0  1  0  0  0  0  0999 V2000
    6.8951  -14.9950   18.8543 C   0  0  0  0  0  0  0  0  0  0  0  0
    7.5208  -15.1848   20.2191 C   0  0  1  0  0  0  0  0  0  0  0  0
    8.8157  -15.6663   20.0345 O   0  0  0  0  0  0  0  0  0  0  0  0
    7.6261  -13.8631   20.9425 C   0  0  2  0  0  0  0  0  0  0  0  0
    8.2161  -12.8798   20.0609 N   0  0  0  0  0  0  0  0  0  0  0  0
    8.3570  -13.9831   22.2288 C   0  0  0  0  0  0  0  0  0  0  0  0
    9.4682  -13.4323   22.3235 O   0  0  0  0  0  0  0  0  0  0  0  0
    7.8726  -14.6834   23.3556 N   0  0  0  0  0  0  0  0  0  0  0  0
    8.5729  -14.8511   24.5858 C   0  0  1  0  0  0  0  0  0  0  0  0
    7.5432  -14.8610   25.7111 C   0  0  0  0  0  0  0  0  0  0  0  0
    7.2074  -13.4957   26.1606 C   0  0  0  0  0  0  0  0  0  0  0  0
    5.9095  -13.0363   26.2202 C   0  0  0  0  0  0  0  0  0  0  0  0
    5.5885  -11.7630   26.6386 C   0  0  0  0  0  0  0  0  0  0  0  0
    6.6115  -10.9114   27.0140 C   0  0  0  0  0  0  0  0  0  0  0  0
    7.9361  -11.3356   26.9687 C   0  0  0  0  0  0  0  0  0  0  0  0
    8.2165  -12.6364   26.5377 C   0  0  0  0  0  0  0  0  0  0  0  0
    9.3710  -16.0569   24.6945 C   0  0  0  0  0  0  0  0  0  0  0  0
    9.8302  -16.4303   25.7943 O   0  0  0  0  0  0  0  0  0  0  0  0
    9.6441  -16.8355   23.5463 N   0  0  0  0  0  0  0  0  0  0  0  0
   10.4478  -18.0416   23.6920 C   0  0  0  0  0  0  0  0  0  0  0  0
   11.8642  -17.7430   23.4199 C   0  0  0  0  0  0  0  0  0  0  0  0
   12.2512  -16.5569   23.2758 O   0  0  0  0  0  0  0  0  0  0  0  0
   12.7736  -18.7638   23.3216 O   0  0  0  0  0  0  0  0  0  0  0  0
  2  1  1  6
  2  4  1  0
  3  2  1  0
  4  5  1  6
  6  4  1  0
  7  6  2  0
  8  6  1  0
  9  8  1  0
  9 10  1  1
 10 11  1  0
 11 12  2  0
 11 16  1  0
 12 13  1  0
 13 14  2  0
 15 14  1  0
 16 15  2  0
 17 19  1  0
 17  9  1  0
 18 17  2  0
 20 19  1  0
 21 20  1  0
 21 23  1  0
 22 21  2  0
M  END
$$$$
