TFG.pdb
     RDKit          3D

 23 23  0  0  1  0  0  0  0  0999 V2000
    8.4995  -18.9633   21.1539 C   0  0  0  0  0  0  0  0  0  0  0  0
    8.9816  -18.1878   19.9471 C   0  0  1  0  0  0  0  0  0  0  0  0
    8.7199  -18.9535   18.8122 O   0  0  0  0  0  0  0  0  0  0  0  0
    8.2163  -16.8932   19.8085 C   0  0  2  0  0  0  0  0  0  0  0  0
    8.5098  -16.2980   18.5232 N   0  0  0  0  0  0  0  0  0  0  0  0
    8.4751  -15.9637   20.9365 C   0  0  0  0  0  0  0  0  0  0  0  0
    9.5416  -15.3238   20.9340 O   0  0  0  0  0  0  0  0  0  0  0  0
    7.5876  -15.7576   22.0157 N   0  0  0  0  0  0  0  0  0  0  0  0
    7.8677  -14.9784   23.1761 C   0  0  1  0  0  0  0  0  0  0  0  0
    6.5354  -14.5607   23.7902 C   0  0  0  0  0  0  0  0  0  0  0  0
    6.7221  -13.6921   24.9689 C   0  0  0  0  0  0  0  0  0  0  0  0
    6.6484  -14.1719   26.2588 C   0  0  0  0  0  0  0  0  0  0  0  0
    6.8214  -13.3669   27.3640 C   0  0  0  0  0  0  0  0  0  0  0  0
    7.0796  -12.0221   27.1702 C   0  0  0  0  0  0  0  0  0  0  0  0
    7.1622  -11.4969   25.8842 C   0  0  0  0  0  0  0  0  0  0  0  0
    6.9799  -12.3502   24.7909 C   0  0  0  0  0  0  0  0  0  0  0  0
    8.6495  -15.6399   24.2027 C   0  0  0  0  0  0  0  0  0  0  0  0
    8.2605  -16.7059   24.7243 O   0  0  0  0  0  0  0  0  0  0  0  0
    9.8756  -15.0826   24.6330 N   0  0  0  0  0  0  0  0  0  0  0  0
   10.5957  -15.7289   25.7219 C   0  0  0  0  0  0  0  0  0  0  0  0
   11.7525  -16.4723   25.1941 C   0  0  0  0  0  0  0  0  0  0  0  0
   11.9763  -16.5136   23.9589 O   0  0  0  0  0  0  0  0  0  0  0  0
   12.5966  -17.1272   26.0527 O   0  0  0  0  0  0  0  0  0  0  0  0
  2  1  1  1
  2  4  1  0
  3  2  1  0
  4  5  1  6
  6  4  1  0
  7  6  2  0
  8  6  1  0
  9  8  1  0
  9 10  1  1
 10 11  1  0
 11 12  2  0
 11 16  1  0
 12 13  1  0
 13 14  2  0
 15 14  1  0
 16 15  2  0
 17 19  1  0
 17  9  1  0
 18 17  2  0
 20 19  1  0
 21 20  1  0
 21 23  1  0
 22 21  2  0
M  END
$$$$
