TFG.pdb
     RDKit          3D

 23 23  0  0  1  0  0  0  0  0999 V2000
    7.6201  -16.4816   20.2008 C   0  0  0  0  0  0  0  0  0  0  0  0
    8.1694  -15.1522   19.7303 C   0  0  1  0  0  0  0  0  0  0  0  0
    7.5972  -14.8653   18.4922 O   0  0  0  0  0  0  0  0  0  0  0  0
    7.7725  -14.0482   20.6814 C   0  0  2  0  0  0  0  0  0  0  0  0
    7.8863  -12.7724   20.0092 N   0  0  0  0  0  0  0  0  0  0  0  0
    8.5450  -14.0929   21.9482 C   0  0  0  0  0  0  0  0  0  0  0  0
    9.5929  -13.4265   22.0179 O   0  0  0  0  0  0  0  0  0  0  0  0
    8.1674  -14.8444   23.0828 N   0  0  0  0  0  0  0  0  0  0  0  0
    8.8884  -14.9014   24.3111 C   0  0  1  0  0  0  0  0  0  0  0  0
    7.8728  -15.0185   25.4432 C   0  0  0  0  0  0  0  0  0  0  0  0
    7.4155  -13.6950   25.9101 C   0  0  0  0  0  0  0  0  0  0  0  0
    6.3153  -13.0623   25.3731 C   0  0  0  0  0  0  0  0  0  0  0  0
    5.8826  -11.8266   25.8038 C   0  0  0  0  0  0  0  0  0  0  0  0
    6.5817  -11.1960   26.8169 C   0  0  0  0  0  0  0  0  0  0  0  0
    7.6983  -11.8002   27.3866 C   0  0  0  0  0  0  0  0  0  0  0  0
    8.1024  -13.0550   26.9188 C   0  0  0  0  0  0  0  0  0  0  0  0
    9.8306  -15.9966   24.4359 C   0  0  0  0  0  0  0  0  0  0  0  0
   10.2940  -16.3262   25.5478 O   0  0  0  0  0  0  0  0  0  0  0  0
   10.2429  -16.7146   23.2898 N   0  0  0  0  0  0  0  0  0  0  0  0
   11.1533  -17.8394   23.4571 C   0  0  0  0  0  0  0  0  0  0  0  0
   11.4027  -18.4873   22.1581 C   0  0  0  0  0  0  0  0  0  0  0  0
   10.9360  -19.6272   21.9122 O   0  0  0  0  0  0  0  0  0  0  0  0
   12.1500  -17.8466   21.2043 O   0  0  0  0  0  0  0  0  0  0  0  0
  2  1  1  1
  2  4  1  0
  3  2  1  0
  4  5  1  6
  6  4  1  0
  7  6  2  0
  8  6  1  0
  9  8  1  0
  9 10  1  1
 10 11  1  0
 11 12  2  0
 11 16  1  0
 12 13  1  0
 13 14  2  0
 15 14  1  0
 16 15  2  0
 17 19  1  0
 17  9  1  0
 18 17  2  0
 20 19  1  0
 21 20  1  0
 21 23  1  0
 22 21  2  0
M  END
$$$$
