TFG.pdb
     RDKit          3D

 23 23  0  0  1  0  0  0  0  0999 V2000
    6.8242  -14.2424   18.5906 C   0  0  0  0  0  0  0  0  0  0  0  0
    7.4371  -14.6385   19.9164 C   0  0  1  0  0  0  0  0  0  0  0  0
    8.6376  -15.2967   19.6548 O   0  0  0  0  0  0  0  0  0  0  0  0
    7.7601  -13.4133   20.7383 C   0  0  2  0  0  0  0  0  0  0  0  0
    8.5207  -12.4828   19.9333 N   0  0  0  0  0  0  0  0  0  0  0  0
    8.4446  -13.7543   22.0105 C   0  0  0  0  0  0  0  0  0  0  0  0
    9.6321  -13.4101   22.1460 O   0  0  0  0  0  0  0  0  0  0  0  0
    7.8346  -14.4458   23.0803 N   0  0  0  0  0  0  0  0  0  0  0  0
    8.4608  -14.7620   24.3212 C   0  0  1  0  0  0  0  0  0  0  0  0
    7.3668  -14.8910   25.3763 C   0  0  0  0  0  0  0  0  0  0  0  0
    6.9982  -13.5813   25.9486 C   0  0  0  0  0  0  0  0  0  0  0  0
    5.6974  -13.1270   25.9757 C   0  0  0  0  0  0  0  0  0  0  0  0
    5.3460  -11.9053   26.5081 C   0  0  0  0  0  0  0  0  0  0  0  0
    6.3401  -11.1025   27.0371 C   0  0  0  0  0  0  0  0  0  0  0  0
    7.6665  -11.5234   27.0297 C   0  0  0  0  0  0  0  0  0  0  0  0
    7.9783  -12.7709   26.4791 C   0  0  0  0  0  0  0  0  0  0  0  0
    9.2465  -15.9807   24.3354 C   0  0  0  0  0  0  0  0  0  0  0  0
    9.7265  -16.4272   25.3984 O   0  0  0  0  0  0  0  0  0  0  0  0
    9.4834  -16.6885   23.1346 N   0  0  0  0  0  0  0  0  0  0  0  0
   10.2109  -17.9491   23.1958 C   0  0  0  0  0  0  0  0  0  0  0  0
   11.5684  -17.7781   22.6506 C   0  0  0  0  0  0  0  0  0  0  0  0
   11.9435  -16.6646   22.2067 O   0  0  0  0  0  0  0  0  0  0  0  0
   12.4356  -18.8392   22.6241 O   0  0  0  0  0  0  0  0  0  0  0  0
  2  1  1  6
  2  4  1  0
  3  2  1  0
  4  5  1  6
  6  4  1  0
  7  6  2  0
  8  6  1  0
  9  8  1  0
  9 10  1  1
 10 11  1  0
 11 12  2  0
 11 16  1  0
 12 13  1  0
 13 14  2  0
 15 14  1  0
 16 15  2  0
 17 19  1  0
 17  9  1  0
 18 17  2  0
 20 19  1  0
 21 20  1  0
 21 23  1  0
 22 21  2  0
M  END
$$$$
