TFG.pdb
     RDKit          3D

 23 23  0  0  1  0  0  0  0  0999 V2000
    6.7607  -14.3544   18.6551 C   0  0  0  0  0  0  0  0  0  0  0  0
    7.4200  -14.7116   19.9697 C   0  0  1  0  0  0  0  0  0  0  0  0
    8.6437  -15.3156   19.6860 O   0  0  0  0  0  0  0  0  0  0  0  0
    7.7036  -13.4666   20.7761 C   0  0  2  0  0  0  0  0  0  0  0  0
    8.3884  -12.5019   19.9438 N   0  0  0  0  0  0  0  0  0  0  0  0
    8.4448  -13.7640   22.0273 C   0  0  0  0  0  0  0  0  0  0  0  0
    9.6067  -13.3334   22.1350 O   0  0  0  0  0  0  0  0  0  0  0  0
    7.9162  -14.5059   23.1066 N   0  0  0  0  0  0  0  0  0  0  0  0
    8.6073  -14.8079   24.3162 C   0  0  1  0  0  0  0  0  0  0  0  0
    7.5669  -14.9723   25.4194 C   0  0  0  0  0  0  0  0  0  0  0  0
    7.1165  -13.6700   25.9484 C   0  0  0  0  0  0  0  0  0  0  0  0
    5.8578  -13.1672   25.6995 C   0  0  0  0  0  0  0  0  0  0  0  0
    5.4306  -11.9521   26.1899 C   0  0  0  0  0  0  0  0  0  0  0  0
    6.3014  -11.2068   26.9637 C   0  0  0  0  0  0  0  0  0  0  0  0
    7.5816  -11.6779   27.2390 C   0  0  0  0  0  0  0  0  0  0  0  0
    7.9736  -12.9166   26.7209 C   0  0  0  0  0  0  0  0  0  0  0  0
    9.4278  -16.0032   24.2888 C   0  0  0  0  0  0  0  0  0  0  0  0
    9.9040  -16.4838   25.3386 O   0  0  0  0  0  0  0  0  0  0  0  0
    9.7039  -16.6488   23.0616 N   0  0  0  0  0  0  0  0  0  0  0  0
   10.5597  -17.8276   23.0666 C   0  0  0  0  0  0  0  0  0  0  0  0
   10.7290  -18.3371   21.6950 C   0  0  0  0  0  0  0  0  0  0  0  0
   10.5832  -17.5749   20.7074 O   0  0  0  0  0  0  0  0  0  0  0  0
   11.0485  -19.6536   21.4869 O   0  0  0  0  0  0  0  0  0  0  0  0
  2  1  1  6
  2  4  1  0
  3  2  1  0
  4  5  1  6
  6  4  1  0
  7  6  2  0
  8  6  1  0
  9  8  1  0
  9 10  1  1
 10 11  1  0
 11 12  2  0
 11 16  1  0
 12 13  1  0
 13 14  2  0
 15 14  1  0
 16 15  2  0
 17 19  1  0
 17  9  1  0
 18 17  2  0
 20 19  1  0
 21 20  1  0
 21 23  1  0
 22 21  2  0
M  END
$$$$
