TFG.pdb
     RDKit          3D

 23 23  0  0  1  0  0  0  0  0999 V2000
    9.2037  -18.7204   19.5903 C   0  0  0  0  0  0  0  0  0  0  0  0
    9.1040  -18.0093   20.9225 C   0  0  1  0  0  0  0  0  0  0  0  0
    9.8451  -18.7355   21.8532 O   0  0  0  0  0  0  0  0  0  0  0  0
    9.7120  -16.6297   20.8338 C   0  0  2  0  0  0  0  0  0  0  0  0
   11.0687  -16.7343   20.3429 N   0  0  0  0  0  0  0  0  0  0  0  0
    9.6296  -15.8953   22.1212 C   0  0  0  0  0  0  0  0  0  0  0  0
   10.6702  -15.7707   22.7910 O   0  0  0  0  0  0  0  0  0  0  0  0
    8.4440  -15.3271   22.6371 N   0  0  0  0  0  0  0  0  0  0  0  0
    8.3305  -14.6487   23.8856 C   0  0  1  0  0  0  0  0  0  0  0  0
    7.0337  -13.8458   23.8641 C   0  0  0  0  0  0  0  0  0  0  0  0
    6.8599  -13.0497   25.0949 C   0  0  0  0  0  0  0  0  0  0  0  0
    7.7544  -12.0727   25.4748 C   0  0  0  0  0  0  0  0  0  0  0  0
    7.5987  -11.3258   26.6226 C   0  0  0  0  0  0  0  0  0  0  0  0
    6.4991  -11.5670   27.4259 C   0  0  0  0  0  0  0  0  0  0  0  0
    5.5717  -12.5446   27.0787 C   0  0  0  0  0  0  0  0  0  0  0  0
    5.7690  -13.2793   25.9048 C   0  0  0  0  0  0  0  0  0  0  0  0
    8.3160  -15.4966   25.0619 C   0  0  0  0  0  0  0  0  0  0  0  0
    8.3519  -15.0080   26.2107 O   0  0  0  0  0  0  0  0  0  0  0  0
    8.2606  -16.9028   24.9248 N   0  0  0  0  0  0  0  0  0  0  0  0
    8.2060  -17.7228   26.1275 C   0  0  0  0  0  0  0  0  0  0  0  0
    9.5571  -17.8879   26.6904 C   0  0  0  0  0  0  0  0  0  0  0  0
    9.8064  -17.5323   27.8689 O   0  0  0  0  0  0  0  0  0  0  0  0
   10.5562  -18.4336   25.9270 O   0  0  0  0  0  0  0  0  0  0  0  0
  2  1  1  6
  2  4  1  0
  3  2  1  0
  4  5  1  1
  6  4  1  0
  7  6  2  0
  8  6  1  0
  9  8  1  0
  9 10  1  6
 10 11  1  0
 11 12  2  0
 11 16  1  0
 12 13  1  0
 13 14  2  0
 15 14  1  0
 16 15  2  0
 17 19  1  0
 17  9  1  0
 18 17  2  0
 20 19  1  0
 21 20  1  0
 21 23  1  0
 22 21  2  0
M  END
$$$$
