TFG.pdb
     RDKit          3D

 23 23  0  0  1  0  0  0  0  0999 V2000
    6.7188  -16.9570   19.5942 C   0  0  0  0  0  0  0  0  0  0  0  0
    7.5009  -16.6877   20.8616 C   0  0  1  0  0  0  0  0  0  0  0  0
    8.8186  -17.0877   20.6460 O   0  0  0  0  0  0  0  0  0  0  0  0
    7.5191  -15.2092   21.1692 C   0  0  2  0  0  0  0  0  0  0  0  0
    7.9636  -14.4818   20.0007 N   0  0  0  0  0  0  0  0  0  0  0  0
    8.3273  -14.8958   22.3742 C   0  0  0  0  0  0  0  0  0  0  0  0
    9.3929  -14.2735   22.2179 O   0  0  0  0  0  0  0  0  0  0  0  0
    7.9651  -15.2586   23.6902 N   0  0  0  0  0  0  0  0  0  0  0  0
    8.7570  -15.0356   24.8543 C   0  0  1  0  0  0  0  0  0  0  0  0
    7.8184  -14.9933   26.0559 C   0  0  0  0  0  0  0  0  0  0  0  0
    7.3650  -13.6199   26.3508 C   0  0  0  0  0  0  0  0  0  0  0  0
    6.0384  -13.3086   26.5570 C   0  0  0  0  0  0  0  0  0  0  0  0
    5.6077  -12.0287   26.8325 C   0  0  0  0  0  0  0  0  0  0  0  0
    6.5459  -11.0152   26.9050 C   0  0  0  0  0  0  0  0  0  0  0  0
    7.8957  -11.2866   26.7033 C   0  0  0  0  0  0  0  0  0  0  0  0
    8.2886  -12.6002   26.4261 C   0  0  0  0  0  0  0  0  0  0  0  0
    9.7808  -16.0283   25.1169 C   0  0  0  0  0  0  0  0  0  0  0  0
   10.5771  -15.8983   26.0702 O   0  0  0  0  0  0  0  0  0  0  0  0
    9.8943  -17.1694   24.2897 N   0  0  0  0  0  0  0  0  0  0  0  0
   11.0013  -18.0896   24.5126 C   0  0  0  0  0  0  0  0  0  0  0  0
   10.6157  -19.1185   25.4935 C   0  0  0  0  0  0  0  0  0  0  0  0
    9.4060  -19.3266   25.7597 O   0  0  0  0  0  0  0  0  0  0  0  0
   11.5804  -19.8594   26.1254 O   0  0  0  0  0  0  0  0  0  0  0  0
  2  1  1  6
  2  4  1  0
  3  2  1  0
  4  5  1  6
  6  4  1  0
  7  6  2  0
  8  6  1  0
  9  8  1  0
  9 10  1  1
 10 11  1  0
 11 12  2  0
 11 16  1  0
 12 13  1  0
 13 14  2  0
 15 14  1  0
 16 15  2  0
 17 19  1  0
 17  9  1  0
 18 17  2  0
 20 19  1  0
 21 20  1  0
 21 23  1  0
 22 21  2  0
M  END
$$$$
