TFG.pdb
     RDKit          3D

 23 23  0  0  1  0  0  0  0  0999 V2000
    8.7980  -18.8088   21.6842 C   0  0  0  0  0  0  0  0  0  0  0  0
    8.8385  -17.9954   20.4087 C   0  0  1  0  0  0  0  0  0  0  0  0
    8.5875  -18.8568   19.3421 O   0  0  0  0  0  0  0  0  0  0  0  0
    7.7503  -16.9481   20.4131 C   0  0  2  0  0  0  0  0  0  0  0  0
    7.5481  -16.4611   19.0661 N   0  0  0  0  0  0  0  0  0  0  0  0
    8.0277  -15.8533   21.3765 C   0  0  0  0  0  0  0  0  0  0  0  0
    8.8350  -14.9689   21.0400 O   0  0  0  0  0  0  0  0  0  0  0  0
    7.4337  -15.7495   22.6536 N   0  0  0  0  0  0  0  0  0  0  0  0
    7.7451  -14.7582   23.6295 C   0  0  1  0  0  0  0  0  0  0  0  0
    6.6105  -14.7342   24.6486 C   0  0  0  0  0  0  0  0  0  0  0  0
    6.7680  -13.6344   25.6204 C   0  0  0  0  0  0  0  0  0  0  0  0
    6.4832  -12.3235   25.3045 C   0  0  0  0  0  0  0  0  0  0  0  0
    6.6281  -11.2916   26.2065 C   0  0  0  0  0  0  0  0  0  0  0  0
    7.0779  -11.5841   27.4812 C   0  0  0  0  0  0  0  0  0  0  0  0
    7.3768  -12.8946   27.8413 C   0  0  0  0  0  0  0  0  0  0  0  0
    7.2153  -13.9111   26.8940 C   0  0  0  0  0  0  0  0  0  0  0  0
    8.9907  -14.9522   24.3462 C   0  0  0  0  0  0  0  0  0  0  0  0
    9.4500  -14.0644   25.0949 O   0  0  0  0  0  0  0  0  0  0  0  0
    9.7109  -16.1609   24.2069 N   0  0  0  0  0  0  0  0  0  0  0  0
   10.9241  -16.3485   24.9912 C   0  0  0  0  0  0  0  0  0  0  0  0
   11.5014  -17.6766   24.7224 C   0  0  0  0  0  0  0  0  0  0  0  0
   12.2571  -17.8574   23.7356 O   0  0  0  0  0  0  0  0  0  0  0  0
   11.2157  -18.7293   25.5524 O   0  0  0  0  0  0  0  0  0  0  0  0
  2  1  1  1
  2  4  1  0
  3  2  1  0
  4  5  1  6
  6  4  1  0
  7  6  2  0
  8  6  1  0
  9  8  1  0
  9 10  1  1
 10 11  1  0
 11 12  2  0
 11 16  1  0
 12 13  1  0
 13 14  2  0
 15 14  1  0
 16 15  2  0
 17 19  1  0
 17  9  1  0
 18 17  2  0
 20 19  1  0
 21 20  1  0
 21 23  1  0
 22 21  2  0
M  END
$$$$
