NPR.pdb
     RDKit          3D

 27 27  0  0  1  0  0  0  0  0999 V2000
   21.6072  -14.1637  -19.5923 N   0  0  0  0  0  0  0  0  0  0  0  0
   21.4561  -12.7782  -19.8192 C   0  0  0  0  0  0  0  0  0  0  0  0
   21.4932  -12.2506  -20.9588 O   0  0  0  0  0  0  0  0  0  0  0  0
   21.2386  -11.8694  -18.6565 C   0  0  0  0  0  0  0  0  0  0  0  0
   21.1870  -12.6668  -17.3567 C   0  0  2  0  0  0  0  0  0  0  0  0
   19.9736  -13.4393  -17.3621 N   0  0  0  0  0  0  0  0  0  0  0  0
   21.2856  -11.7419  -16.1986 C   0  0  0  0  0  0  0  0  0  0  0  0
   20.1541  -11.4499  -15.6758 O   0  0  0  0  0  0  0  0  0  0  0  0
   22.4972  -11.2086  -15.6881 N   0  0  0  0  0  0  0  0  0  0  0  0
   23.8145  -11.4754  -16.1685 C   0  0  0  0  0  0  0  0  0  0  0  0
   24.7480  -10.8592  -15.1763 C   0  0  0  0  0  0  0  0  0  0  0  0
   23.8837  -10.6076  -13.9319 C   0  0  0  0  0  0  0  0  0  0  0  0
   22.5616  -10.2902  -14.5904 C   0  0  1  0  0  0  0  0  0  0  0  0
   22.5789   -8.8757  -15.0220 C   0  0  0  0  0  0  0  0  0  0  0  0
   23.1793   -8.5771  -16.0748 O   0  0  0  0  0  0  0  0  0  0  0  0
   17.2069   -2.4633  -14.7134 N   0  0  0  0  0  0  0  0  0  0  0  0
   17.5249   -2.5789  -16.1087 C   0  0  0  0  0  0  0  0  0  0  0  0
   17.3512   -1.5390  -16.8276 N   0  0  0  0  0  0  0  0  0  0  0  0
   18.0043   -3.7648  -16.6727 N   0  0  0  0  0  0  0  0  0  0  0  0
   18.2916   -4.9632  -15.9114 C   0  0  0  0  0  0  0  0  0  0  0  0
   19.7835   -5.0521  -15.6865 C   0  0  0  0  0  0  0  0  0  0  0  0
   20.1527   -6.3727  -15.0629 C   0  0  0  0  0  0  0  0  0  0  0  0
   21.6241   -6.5961  -14.9098 C   0  0  2  0  0  0  0  0  0  0  0  0
   21.9395   -7.8576  -14.2840 N   0  0  0  0  0  0  0  0  0  0  0  0
   22.1970   -5.4873  -14.0607 C   0  0  0  0  0  0  0  0  0  0  0  0
   22.4176   -4.3617  -14.5616 O   0  0  0  0  0  0  0  0  0  0  0  0
   22.4871   -5.6941  -12.7213 O   0  0  0  0  0  0  0  0  0  0  0  0
  2  1  1  0
  2  3  2  0
  4  2  1  0
  5  4  1  0
  5  6  1  1
  7  5  1  0
  7  9  1  0
  8  7  2  0
  9 13  1  0
 10  9  1  0
 10 11  1  0
 11 12  1  0
 13 12  1  0
 14 24  1  0
 13 14  1  6
 15 14  2  0
 17 16  1  0
 17 19  1  0
 18 17  2  0
 20 19  1  0
 21 22  1  0
 21 20  1  0
 23 22  1  1
 23 24  1  0
 25 23  1  0
 25 27  1  0
 26 25  2  0
M  END
$$$$
