NPR.pdb
     RDKit          3D

 27 27  0  0  1  0  0  0  0  0999 V2000
   28.3907  -22.2970  -16.6383 N   0  0  0  0  0  0  0  0  0  0  0  0
   28.3376  -20.9225  -16.9572 C   0  0  0  0  0  0  0  0  0  0  0  0
   29.2787  -20.2980  -17.5075 O   0  0  0  0  0  0  0  0  0  0  0  0
   27.1054  -20.1468  -16.6329 C   0  0  0  0  0  0  0  0  0  0  0  0
   27.2065  -19.5420  -15.2357 C   0  0  2  0  0  0  0  0  0  0  0  0
   27.3552  -20.6225  -14.2980 N   0  0  0  0  0  0  0  0  0  0  0  0
   26.0142  -18.6972  -14.9693 C   0  0  0  0  0  0  0  0  0  0  0  0
   25.0430  -19.3335  -14.4303 O   0  0  0  0  0  0  0  0  0  0  0  0
   25.9180  -17.3136  -15.2685 N   0  0  0  0  0  0  0  0  0  0  0  0
   26.9075  -16.5101  -15.9109 C   0  0  0  0  0  0  0  0  0  0  0  0
   26.4286  -15.0981  -15.7990 C   0  0  0  0  0  0  0  0  0  0  0  0
   25.3455  -15.1390  -14.7108 C   0  0  0  0  0  0  0  0  0  0  0  0
   24.7698  -16.5124  -14.9649 C   0  0  1  0  0  0  0  0  0  0  0  0
   23.8157  -16.4212  -16.0914 C   0  0  0  0  0  0  0  0  0  0  0  0
   24.1612  -16.8614  -17.2071 O   0  0  0  0  0  0  0  0  0  0  0  0
   20.3930  -20.7583  -11.4870 N   0  0  0  0  0  0  0  0  0  0  0  0
   19.1355  -20.4078  -12.0847 C   0  0  0  0  0  0  0  0  0  0  0  0
   18.1053  -20.4609  -11.3335 N   0  0  0  0  0  0  0  0  0  0  0  0
   19.0234  -20.0226  -13.4239 N   0  0  0  0  0  0  0  0  0  0  0  0
   20.1543  -19.8512  -14.3128 C   0  0  0  0  0  0  0  0  0  0  0  0
   19.9954  -18.5459  -15.0578 C   0  0  0  0  0  0  0  0  0  0  0  0
   21.2853  -17.7678  -15.0545 C   0  0  0  0  0  0  0  0  0  0  0  0
   21.3553  -16.6795  -16.0788 C   0  0  2  0  0  0  0  0  0  0  0  0
   22.5321  -15.8551  -15.9442 N   0  0  0  0  0  0  0  0  0  0  0  0
   20.1381  -15.7985  -15.9340 C   0  0  0  0  0  0  0  0  0  0  0  0
   20.1066  -14.9091  -15.0539 O   0  0  0  0  0  0  0  0  0  0  0  0
   19.0414  -15.9576  -16.7665 O   0  0  0  0  0  0  0  0  0  0  0  0
  2  1  1  0
  2  3  2  0
  4  2  1  0
  5  4  1  0
  5  6  1  1
  7  5  1  0
  7  9  1  0
  8  7  2  0
  9 13  1  0
 10  9  1  0
 10 11  1  0
 11 12  1  0
 13 12  1  0
 14 24  1  0
 13 14  1  6
 15 14  2  0
 17 16  1  0
 17 19  1  0
 18 17  2  0
 20 19  1  0
 21 22  1  0
 21 20  1  0
 23 22  1  1
 23 24  1  0
 25 23  1  0
 25 27  1  0
 26 25  2  0
M  END
$$$$
