NPR.pdb
     RDKit          3D

 27 27  0  0  1  0  0  0  0  0999 V2000
   27.6701  -22.1936  -14.7150 N   0  0  0  0  0  0  0  0  0  0  0  0
   26.5493  -22.7541  -15.3658 C   0  0  0  0  0  0  0  0  0  0  0  0
   26.6076  -23.7697  -16.1032 O   0  0  0  0  0  0  0  0  0  0  0  0
   25.2100  -22.1233  -15.1827 C   0  0  0  0  0  0  0  0  0  0  0  0
   25.3059  -20.9295  -14.2374 C   0  0  2  0  0  0  0  0  0  0  0  0
   25.7959  -21.4079  -12.9725 N   0  0  0  0  0  0  0  0  0  0  0  0
   23.9818  -20.2639  -14.1370 C   0  0  0  0  0  0  0  0  0  0  0  0
   23.4206  -20.4046  -12.9951 O   0  0  0  0  0  0  0  0  0  0  0  0
   23.3611  -19.5325  -15.1824 N   0  0  0  0  0  0  0  0  0  0  0  0
   23.8934  -19.2885  -16.4841 C   0  0  0  0  0  0  0  0  0  0  0  0
   22.9729  -18.3018  -17.1280 C   0  0  0  0  0  0  0  0  0  0  0  0
   22.1555  -17.7163  -15.9670 C   0  0  0  0  0  0  0  0  0  0  0  0
   22.0665  -18.9291  -15.0707 C   0  0  1  0  0  0  0  0  0  0  0  0
   20.9790  -19.8008  -15.5657 C   0  0  0  0  0  0  0  0  0  0  0  0
   21.1962  -20.5257  -16.5583 O   0  0  0  0  0  0  0  0  0  0  0  0
   17.3573  -24.5269  -10.0982 N   0  0  0  0  0  0  0  0  0  0  0  0
   18.5202  -25.2589  -10.5143 C   0  0  0  0  0  0  0  0  0  0  0  0
   18.5583  -26.4990  -10.2155 N   0  0  0  0  0  0  0  0  0  0  0  0
   19.5714  -24.6609  -11.2155 N   0  0  0  0  0  0  0  0  0  0  0  0
   19.6135  -23.2558  -11.5650 C   0  0  0  0  0  0  0  0  0  0  0  0
   19.3645  -23.1148  -13.0490 C   0  0  0  0  0  0  0  0  0  0  0  0
   19.9855  -21.8482  -13.5776 C   0  0  0  0  0  0  0  0  0  0  0  0
   19.1331  -21.1004  -14.5536 C   0  0  2  0  0  0  0  0  0  0  0  0
   19.7092  -19.8388  -14.9525 N   0  0  0  0  0  0  0  0  0  0  0  0
   17.7908  -20.8308  -13.9179 C   0  0  0  0  0  0  0  0  0  0  0  0
   17.5333  -19.6995  -13.4482 O   0  0  0  0  0  0  0  0  0  0  0  0
   16.8265  -21.8235  -13.8431 O   0  0  0  0  0  0  0  0  0  0  0  0
  2  1  1  0
  2  3  2  0
  4  2  1  0
  5  4  1  0
  5  6  1  1
  7  5  1  0
  7  9  1  0
  8  7  2  0
  9 13  1  0
 10  9  1  0
 10 11  1  0
 11 12  1  0
 13 12  1  0
 14 24  1  0
 13 14  1  6
 15 14  2  0
 17 16  1  0
 17 19  1  0
 18 17  2  0
 20 19  1  0
 21 22  1  0
 21 20  1  0
 23 22  1  1
 23 24  1  0
 25 23  1  0
 25 27  1  0
 26 25  2  0
M  END
$$$$
