NPR.pdb
     RDKit          3D

 27 27  0  0  1  0  0  0  0  0999 V2000
   19.2612  -24.6490  -10.3416 N   0  0  0  0  0  0  0  0  0  0  0  0
   18.9900  -23.5133   -9.5475 C   0  0  0  0  0  0  0  0  0  0  0  0
   19.5833  -22.4136   -9.6786 O   0  0  0  0  0  0  0  0  0  0  0  0
   17.9443  -23.5990   -8.4872 C   0  0  0  0  0  0  0  0  0  0  0  0
   17.3347  -24.9972   -8.4490 C   0  0  2  0  0  0  0  0  0  0  0  0
   16.6693  -25.2217   -9.7043 N   0  0  0  0  0  0  0  0  0  0  0  0
   16.4284  -25.1155   -7.2781 C   0  0  0  0  0  0  0  0  0  0  0  0
   15.2339  -24.7177   -7.5100 O   0  0  0  0  0  0  0  0  0  0  0  0
   16.8090  -25.6151   -6.0059 N   0  0  0  0  0  0  0  0  0  0  0  0
   18.0932  -26.1173   -5.6372 C   0  0  0  0  0  0  0  0  0  0  0  0
   17.9272  -26.7158   -4.2772 C   0  0  0  0  0  0  0  0  0  0  0  0
   16.4097  -26.8794   -4.1059 C   0  0  0  0  0  0  0  0  0  0  0  0
   15.9269  -25.6743   -4.8785 C   0  0  1  0  0  0  0  0  0  0  0  0
   16.0265  -24.4850   -4.0050 C   0  0  0  0  0  0  0  0  0  0  0  0
   16.8967  -23.6265   -4.2575 O   0  0  0  0  0  0  0  0  0  0  0  0
    9.0448  -20.5728   -5.1804 N   0  0  0  0  0  0  0  0  0  0  0  0
   10.1968  -19.7542   -5.4335 C   0  0  0  0  0  0  0  0  0  0  0  0
   10.0371  -18.7607   -6.2182 N   0  0  0  0  0  0  0  0  0  0  0  0
   11.4433  -20.0151   -4.8566 N   0  0  0  0  0  0  0  0  0  0  0  0
   11.7077  -21.1344   -3.9760 C   0  0  0  0  0  0  0  0  0  0  0  0
   13.1735  -21.1298   -3.6081 C   0  0  0  0  0  0  0  0  0  0  0  0
   13.7812  -22.4926   -3.8151 C   0  0  0  0  0  0  0  0  0  0  0  0
   14.5822  -22.9965   -2.6563 C   0  0  2  0  0  0  0  0  0  0  0  0
   15.1712  -24.2912   -2.9001 N   0  0  0  0  0  0  0  0  0  0  0  0
   13.6781  -23.1041   -1.4523 C   0  0  0  0  0  0  0  0  0  0  0  0
   12.8627  -24.0492   -1.3607 O   0  0  0  0  0  0  0  0  0  0  0  0
   13.7340  -22.1653   -0.4342 O   0  0  0  0  0  0  0  0  0  0  0  0
  2  1  1  0
  2  3  2  0
  4  2  1  0
  5  4  1  0
  5  6  1  6
  7  5  1  0
  7  9  1  0
  8  7  2  0
  9 13  1  0
 10  9  1  0
 10 11  1  0
 11 12  1  0
 13 12  1  0
 14 24  1  0
 13 14  1  1
 15 14  2  0
 17 16  1  0
 17 19  1  0
 18 17  2  0
 20 19  1  0
 21 22  1  0
 21 20  1  0
 23 22  1  6
 23 24  1  0
 25 23  1  0
 25 27  1  0
 26 25  2  0
M  END
$$$$
