NPR.pdb
     RDKit          3D

 27 27  0  0  1  0  0  0  0  0999 V2000
   27.0937  -17.1675  -18.3226 N   0  0  0  0  0  0  0  0  0  0  0  0
   25.9809  -16.8650  -17.5077 C   0  0  0  0  0  0  0  0  0  0  0  0
   25.4410  -15.7315  -17.4583 O   0  0  0  0  0  0  0  0  0  0  0  0
   25.3951  -17.9346  -16.6486 C   0  0  0  0  0  0  0  0  0  0  0  0
   26.1617  -19.2419  -16.8250 C   0  0  2  0  0  0  0  0  0  0  0  0
   25.6216  -19.9173  -17.9744 N   0  0  0  0  0  0  0  0  0  0  0  0
   26.0719  -20.0459  -15.5793 C   0  0  0  0  0  0  0  0  0  0  0  0
   25.0109  -20.7581  -15.5022 O   0  0  0  0  0  0  0  0  0  0  0  0
   27.0455  -20.0532  -14.5474 N   0  0  0  0  0  0  0  0  0  0  0  0
   28.2309  -19.2602  -14.4890 C   0  0  0  0  0  0  0  0  0  0  0  0
   29.0215  -19.7845  -13.3333 C   0  0  0  0  0  0  0  0  0  0  0  0
   28.4032  -21.1571  -13.0289 C   0  0  0  0  0  0  0  0  0  0  0  0
   26.9604  -20.8787  -13.3796 C   0  0  1  0  0  0  0  0  0  0  0  0
   26.3219  -20.1942  -12.2345 C   0  0  0  0  0  0  0  0  0  0  0  0
   26.5990  -18.9960  -12.0216 O   0  0  0  0  0  0  0  0  0  0  0  0
   20.8163  -20.5654  -14.5368 N   0  0  0  0  0  0  0  0  0  0  0  0
   20.6007  -21.5695  -13.5334 C   0  0  0  0  0  0  0  0  0  0  0  0
   20.2724  -22.7326  -13.9429 N   0  0  0  0  0  0  0  0  0  0  0  0
   20.7398  -21.3064  -12.1674 N   0  0  0  0  0  0  0  0  0  0  0  0
   21.1885  -20.0381  -11.6305 C   0  0  0  0  0  0  0  0  0  0  0  0
   22.6977  -19.9883  -11.6939 C   0  0  0  0  0  0  0  0  0  0  0  0
   23.2976  -20.1969  -10.3280 C   0  0  0  0  0  0  0  0  0  0  0  0
   24.7920  -20.1342  -10.2912 C   0  0  2  0  0  0  0  0  0  0  0  0
   25.4122  -20.8509  -11.3794 N   0  0  0  0  0  0  0  0  0  0  0  0
   25.2705  -20.7350   -8.9917 C   0  0  0  0  0  0  0  0  0  0  0  0
   25.9326  -21.7972   -8.9962 O   0  0  0  0  0  0  0  0  0  0  0  0
   24.9873  -20.1262   -7.7792 O   0  0  0  0  0  0  0  0  0  0  0  0
  2  1  1  0
  2  3  2  0
  4  2  1  0
  5  4  1  0
  5  6  1  6
  7  5  1  0
  7  9  1  0
  8  7  2  0
  9 13  1  0
 10  9  1  0
 10 11  1  0
 11 12  1  0
 13 12  1  0
 14 24  1  0
 13 14  1  1
 15 14  2  0
 17 16  1  0
 17 19  1  0
 18 17  2  0
 20 19  1  0
 21 22  1  0
 21 20  1  0
 23 22  1  6
 23 24  1  0
 25 23  1  0
 25 27  1  0
 26 25  2  0
M  END
$$$$
