NPR.pdb
     RDKit          3D

 27 27  0  0  1  0  0  0  0  0999 V2000
   29.4423  -22.7138  -19.7987 N   0  0  0  0  0  0  0  0  0  0  0  0
   28.0382  -22.7189  -19.6496 C   0  0  0  0  0  0  0  0  0  0  0  0
   27.2413  -23.0386  -20.5668 O   0  0  0  0  0  0  0  0  0  0  0  0
   27.4436  -22.3269  -18.3389 C   0  0  0  0  0  0  0  0  0  0  0  0
   28.5384  -21.9382  -17.3499 C   0  0  2  0  0  0  0  0  0  0  0  0
   29.2450  -23.1360  -16.9822 N   0  0  0  0  0  0  0  0  0  0  0  0
   27.9360  -21.2354  -16.1881 C   0  0  0  0  0  0  0  0  0  0  0  0
   27.9009  -21.9420  -15.1212 O   0  0  0  0  0  0  0  0  0  0  0  0
   27.4342  -19.9086  -16.2148 N   0  0  0  0  0  0  0  0  0  0  0  0
   27.3363  -19.0575  -17.3565 C   0  0  0  0  0  0  0  0  0  0  0  0
   26.9560  -17.7091  -16.8345 C   0  0  0  0  0  0  0  0  0  0  0  0
   27.2559  -17.7749  -15.3296 C   0  0  0  0  0  0  0  0  0  0  0  0
   26.9309  -19.2255  -15.0604 C   0  0  1  0  0  0  0  0  0  0  0  0
   25.4661  -19.3581  -14.9046 C   0  0  0  0  0  0  0  0  0  0  0  0
   24.7653  -19.5077  -15.9266 O   0  0  0  0  0  0  0  0  0  0  0  0
   19.9863  -21.8341   -8.5475 N   0  0  0  0  0  0  0  0  0  0  0  0
   21.3852  -21.5362   -8.6714 C   0  0  0  0  0  0  0  0  0  0  0  0
   22.1627  -22.0448   -7.7965 N   0  0  0  0  0  0  0  0  0  0  0  0
   21.8925  -20.7304   -9.6950 N   0  0  0  0  0  0  0  0  0  0  0  0
   21.0859  -19.8191  -10.4808 C   0  0  0  0  0  0  0  0  0  0  0  0
   21.4944  -19.9333  -11.9314 C   0  0  0  0  0  0  0  0  0  0  0  0
   22.9626  -19.6409  -12.0982 C   0  0  0  0  0  0  0  0  0  0  0  0
   23.4390  -19.6485  -13.5165 C   0  0  2  0  0  0  0  0  0  0  0  0
   24.8390  -19.3216  -13.6416 N   0  0  0  0  0  0  0  0  0  0  0  0
   22.6416  -18.6350  -14.3011 C   0  0  0  0  0  0  0  0  0  0  0  0
   23.0662  -17.4647  -14.4306 O   0  0  0  0  0  0  0  0  0  0  0  0
   21.4340  -18.9792  -14.8876 O   0  0  0  0  0  0  0  0  0  0  0  0
  2  1  1  0
  2  3  2  0
  4  2  1  0
  5  4  1  0
  5  6  1  1
  7  5  1  0
  7  9  1  0
  8  7  2  0
  9 13  1  0
 10  9  1  0
 10 11  1  0
 11 12  1  0
 13 12  1  0
 14 24  1  0
 13 14  1  6
 15 14  2  0
 17 16  1  0
 17 19  1  0
 18 17  2  0
 20 19  1  0
 21 22  1  0
 21 20  1  0
 23 22  1  1
 23 24  1  0
 25 23  1  0
 25 27  1  0
 26 25  2  0
M  END
$$$$
