NPR.pdb
     RDKit          3D

 27 27  0  0  1  0  0  0  0  0999 V2000
   28.4328  -20.6633  -15.5816 N   0  0  0  0  0  0  0  0  0  0  0  0
   27.2274  -20.6199  -16.3157 C   0  0  0  0  0  0  0  0  0  0  0  0
   27.0727  -19.9416  -17.3619 O   0  0  0  0  0  0  0  0  0  0  0  0
   26.0577  -21.4160  -15.8429 C   0  0  0  0  0  0  0  0  0  0  0  0
   26.4227  -22.2125  -14.5938 C   0  0  2  0  0  0  0  0  0  0  0  0
   26.9580  -23.4779  -15.0193 N   0  0  0  0  0  0  0  0  0  0  0  0
   25.2288  -22.3472  -13.7204 C   0  0  0  0  0  0  0  0  0  0  0  0
   24.4437  -23.2976  -14.0655 O   0  0  0  0  0  0  0  0  0  0  0  0
   24.9462  -21.5223  -12.6011 N   0  0  0  0  0  0  0  0  0  0  0  0
   25.7658  -20.4725  -12.0879 C   0  0  0  0  0  0  0  0  0  0  0  0
   25.1449  -20.0605  -10.7917 C   0  0  0  0  0  0  0  0  0  0  0  0
   24.1936  -21.2114  -10.4321 C   0  0  0  0  0  0  0  0  0  0  0  0
   23.7531  -21.6297  -11.8153 C   0  0  1  0  0  0  0  0  0  0  0  0
   22.6820  -20.7142  -12.2646 C   0  0  0  0  0  0  0  0  0  0  0  0
   22.7539  -20.2231  -13.4099 O   0  0  0  0  0  0  0  0  0  0  0  0
   15.9147  -24.9812  -11.9643 N   0  0  0  0  0  0  0  0  0  0  0  0
   17.0796  -25.7715  -11.6824 C   0  0  0  0  0  0  0  0  0  0  0  0
   17.0501  -26.9934  -12.0494 N   0  0  0  0  0  0  0  0  0  0  0  0
   18.2040  -25.2465  -11.0385 N   0  0  0  0  0  0  0  0  0  0  0  0
   18.3721  -23.8429  -10.7223 C   0  0  0  0  0  0  0  0  0  0  0  0
   19.0251  -23.1531  -11.8979 C   0  0  0  0  0  0  0  0  0  0  0  0
   20.2964  -22.4644  -11.4752 C   0  0  0  0  0  0  0  0  0  0  0  0
   20.2941  -20.9817  -11.6752 C   0  0  2  0  0  0  0  0  0  0  0  0
   21.5853  -20.3806  -11.4424 N   0  0  0  0  0  0  0  0  0  0  0  0
   19.3028  -20.3651  -10.7184 C   0  0  0  0  0  0  0  0  0  0  0  0
   19.4910  -20.4395   -9.4832 O   0  0  0  0  0  0  0  0  0  0  0  0
   18.1744  -19.7105  -11.1866 O   0  0  0  0  0  0  0  0  0  0  0  0
  2  1  1  0
  2  3  2  0
  4  2  1  0
  5  4  1  0
  5  6  1  6
  7  5  1  0
  7  9  1  0
  8  7  2  0
  9 13  1  0
 10  9  1  0
 10 11  1  0
 11 12  1  0
 13 12  1  0
 14 24  1  0
 13 14  1  6
 15 14  2  0
 17 16  1  0
 17 19  1  0
 18 17  2  0
 20 19  1  0
 21 22  1  0
 21 20  1  0
 23 22  1  1
 23 24  1  0
 25 23  1  0
 25 27  1  0
 26 25  2  0
M  END
$$$$
