NPR.pdb
     RDKit          3D

 27 27  0  0  1  0  0  0  0  0999 V2000
   18.3676  -10.2377  -17.9460 N   0  0  0  0  0  0  0  0  0  0  0  0
   19.2299   -9.2492  -17.4235 C   0  0  0  0  0  0  0  0  0  0  0  0
   20.0827   -8.6342  -18.1113 O   0  0  0  0  0  0  0  0  0  0  0  0
   19.1422   -8.8973  -15.9765 C   0  0  0  0  0  0  0  0  0  0  0  0
   20.5123   -9.0106  -15.3147 C   0  0  2  0  0  0  0  0  0  0  0  0
   20.9252  -10.3863  -15.3902 N   0  0  0  0  0  0  0  0  0  0  0  0
   20.4386   -8.4983  -13.9224 C   0  0  0  0  0  0  0  0  0  0  0  0
   20.2536   -9.4136  -13.0467 O   0  0  0  0  0  0  0  0  0  0  0  0
   20.5561   -7.1333  -13.5538 N   0  0  0  0  0  0  0  0  0  0  0  0
   20.8161   -6.0344  -14.4268 C   0  0  0  0  0  0  0  0  0  0  0  0
   21.0611   -4.8540  -13.5425 C   0  0  0  0  0  0  0  0  0  0  0  0
   21.3269   -5.4553  -12.1545 C   0  0  0  0  0  0  0  0  0  0  0  0
   20.4137   -6.6574  -12.2099 C   0  0  1  0  0  0  0  0  0  0  0  0
   19.0370   -6.2169  -11.8968 C   0  0  0  0  0  0  0  0  0  0  0  0
   18.3548   -5.6922  -12.8009 O   0  0  0  0  0  0  0  0  0  0  0  0
   12.4114   -8.8553   -6.8354 N   0  0  0  0  0  0  0  0  0  0  0  0
   12.1579   -9.1017   -8.2269 C   0  0  0  0  0  0  0  0  0  0  0  0
   11.0271   -9.6123   -8.5253 N   0  0  0  0  0  0  0  0  0  0  0  0
   13.0915   -8.8027   -9.2236 N   0  0  0  0  0  0  0  0  0  0  0  0
   14.5232   -8.7696   -9.0057 C   0  0  0  0  0  0  0  0  0  0  0  0
   15.0344   -7.3857   -9.3340 C   0  0  0  0  0  0  0  0  0  0  0  0
   16.5270   -7.4010   -9.5368 C   0  0  0  0  0  0  0  0  0  0  0  0
   17.0410   -6.3238  -10.4389 C   0  0  2  0  0  0  0  0  0  0  0  0
   18.4728   -6.3715  -10.6132 N   0  0  0  0  0  0  0  0  0  0  0  0
   16.6780   -4.9828   -9.8484 C   0  0  0  0  0  0  0  0  0  0  0  0
   15.4993   -4.5665   -9.9111 O   0  0  0  0  0  0  0  0  0  0  0  0
   17.6361   -4.1942   -9.2311 O   0  0  0  0  0  0  0  0  0  0  0  0
  2  1  1  0
  2  3  2  0
  4  2  1  0
  5  4  1  0
  5  6  1  1
  7  5  1  0
  7  9  1  0
  8  7  2  0
  9 13  1  0
 10  9  1  0
 10 11  1  0
 11 12  1  0
 13 12  1  0
 14 24  1  0
 13 14  1  6
 15 14  2  0
 17 16  1  0
 17 19  1  0
 18 17  2  0
 20 19  1  0
 21 22  1  0
 21 20  1  0
 23 22  1  1
 23 24  1  0
 25 23  1  0
 25 27  1  0
 26 25  2  0
M  END
$$$$
