NPR.pdb
     RDKit          3D

 27 27  0  0  1  0  0  0  0  0999 V2000
   21.8042  -19.5318  -15.5161 N   0  0  0  0  0  0  0  0  0  0  0  0
   21.8835  -18.9629  -14.2262 C   0  0  0  0  0  0  0  0  0  0  0  0
   22.2416  -17.7786  -14.0077 O   0  0  0  0  0  0  0  0  0  0  0  0
   21.5267  -19.7946  -13.0403 C   0  0  0  0  0  0  0  0  0  0  0  0
   22.6539  -20.7689  -12.7118 C   0  0  2  0  0  0  0  0  0  0  0  0
   22.8337  -21.6332  -13.8474 N   0  0  0  0  0  0  0  0  0  0  0  0
   22.3302  -21.5050  -11.4629 C   0  0  0  0  0  0  0  0  0  0  0  0
   21.6598  -22.5781  -11.6574 O   0  0  0  0  0  0  0  0  0  0  0  0
   22.7075  -21.0933  -10.1586 N   0  0  0  0  0  0  0  0  0  0  0  0
   23.3844  -19.8864   -9.8086 C   0  0  0  0  0  0  0  0  0  0  0  0
   23.7429  -20.0188   -8.3631 C   0  0  0  0  0  0  0  0  0  0  0  0
   23.5932  -21.5170   -8.0601 C   0  0  0  0  0  0  0  0  0  0  0  0
   22.4404  -21.8561   -8.9756 C   0  0  1  0  0  0  0  0  0  0  0  0
   21.1796  -21.4643   -8.3091 C   0  0  0  0  0  0  0  0  0  0  0  0
   20.6566  -20.3716   -8.6098 O   0  0  0  0  0  0  0  0  0  0  0  0
   16.3815  -26.4626  -11.3955 N   0  0  0  0  0  0  0  0  0  0  0  0
   15.4933  -25.5704  -10.7054 C   0  0  0  0  0  0  0  0  0  0  0  0
   14.2444  -25.8175  -10.7938 N   0  0  0  0  0  0  0  0  0  0  0  0
   15.9541  -24.4777   -9.9651 N   0  0  0  0  0  0  0  0  0  0  0  0
   17.2913  -23.9321  -10.0771 C   0  0  0  0  0  0  0  0  0  0  0  0
   18.2056  -24.6857   -9.1388 C   0  0  0  0  0  0  0  0  0  0  0  0
   19.4445  -23.8827   -8.8396 C   0  0  0  0  0  0  0  0  0  0  0  0
   19.3182  -22.9622   -7.6669 C   0  0  2  0  0  0  0  0  0  0  0  0
   20.5518  -22.2845   -7.3483 N   0  0  0  0  0  0  0  0  0  0  0  0
   18.8925  -23.7667   -6.4628 C   0  0  0  0  0  0  0  0  0  0  0  0
   19.7104  -24.5208   -5.8891 O   0  0  0  0  0  0  0  0  0  0  0  0
   17.5979  -23.6859   -5.9743 O   0  0  0  0  0  0  0  0  0  0  0  0
  2  1  1  0
  2  3  2  0
  4  2  1  0
  5  4  1  0
  5  6  1  6
  7  5  1  0
  7  9  1  0
  8  7  2  0
  9 13  1  0
 10  9  1  0
 10 11  1  0
 11 12  1  0
 13 12  1  0
 14 24  1  0
 13 14  1  1
 15 14  2  0
 17 16  1  0
 17 19  1  0
 18 17  2  0
 20 19  1  0
 21 22  1  0
 21 20  1  0
 23 22  1  6
 23 24  1  0
 25 23  1  0
 25 27  1  0
 26 25  2  0
M  END
$$$$
