NPR.pdb
     RDKit          3D

 27 27  0  0  1  0  0  0  0  0999 V2000
   29.8180  -21.9264  -18.6500 N   0  0  0  0  0  0  0  0  0  0  0  0
   28.4919  -21.6688  -19.0612 C   0  0  0  0  0  0  0  0  0  0  0  0
   28.1050  -21.7453  -20.2541 O   0  0  0  0  0  0  0  0  0  0  0  0
   27.4749  -21.2831  -18.0404 C   0  0  0  0  0  0  0  0  0  0  0  0
   28.1095  -21.2082  -16.6549 C   0  0  2  0  0  0  0  0  0  0  0  0
   28.5966  -22.5201  -16.3224 N   0  0  0  0  0  0  0  0  0  0  0  0
   27.1181  -20.6883  -15.6786 C   0  0  0  0  0  0  0  0  0  0  0  0
   26.7182  -21.5647  -14.8355 O   0  0  0  0  0  0  0  0  0  0  0  0
   26.6330  -19.3554  -15.6479 N   0  0  0  0  0  0  0  0  0  0  0  0
   26.8874  -18.3339  -16.6118 C   0  0  0  0  0  0  0  0  0  0  0  0
   26.3451  -17.0697  -16.0260 C   0  0  0  0  0  0  0  0  0  0  0  0
   26.1584  -17.3804  -14.5335 C   0  0  0  0  0  0  0  0  0  0  0  0
   25.7840  -18.8418  -14.6145 C   0  0  1  0  0  0  0  0  0  0  0  0
   24.3462  -18.9411  -14.9465 C   0  0  0  0  0  0  0  0  0  0  0  0
   24.0109  -19.0063  -16.1470 O   0  0  0  0  0  0  0  0  0  0  0  0
   19.3215  -23.5288   -9.1065 N   0  0  0  0  0  0  0  0  0  0  0  0
   18.8371  -23.7050  -10.4465 C   0  0  0  0  0  0  0  0  0  0  0  0
   17.8543  -24.5036  -10.6040 N   0  0  0  0  0  0  0  0  0  0  0  0
   19.4003  -23.0416  -11.5407 N   0  0  0  0  0  0  0  0  0  0  0  0
   20.4981  -22.1020  -11.4383 C   0  0  0  0  0  0  0  0  0  0  0  0
   20.8262  -21.5832  -12.8193 C   0  0  0  0  0  0  0  0  0  0  0  0
   21.9926  -20.6312  -12.7698 C   0  0  0  0  0  0  0  0  0  0  0  0
   22.2489  -19.8979  -14.0485 C   0  0  2  0  0  0  0  0  0  0  0  0
   23.3459  -18.9653  -13.9521 N   0  0  0  0  0  0  0  0  0  0  0  0
   21.0044  -19.1313  -14.4254 C   0  0  0  0  0  0  0  0  0  0  0  0
   20.7535  -18.0325  -13.8809 O   0  0  0  0  0  0  0  0  0  0  0  0
   20.1233  -19.6265  -15.3738 O   0  0  0  0  0  0  0  0  0  0  0  0
  2  1  1  0
  2  3  2  0
  4  2  1  0
  5  4  1  0
  5  6  1  1
  7  5  1  0
  7  9  1  0
  8  7  2  0
  9 13  1  0
 10  9  1  0
 10 11  1  0
 11 12  1  0
 13 12  1  0
 14 24  1  0
 13 14  1  6
 15 14  2  0
 17 16  1  0
 17 19  1  0
 18 17  2  0
 20 19  1  0
 21 22  1  0
 21 20  1  0
 23 22  1  1
 23 24  1  0
 25 23  1  0
 25 27  1  0
 26 25  2  0
M  END
$$$$
