NPR.pdb
     RDKit          3D

 27 27  0  0  1  0  0  0  0  0999 V2000
   24.0973  -23.5817  -13.4958 N   0  0  0  0  0  0  0  0  0  0  0  0
   25.2309  -23.4628  -14.3292 C   0  0  0  0  0  0  0  0  0  0  0  0
   25.4470  -24.2027  -15.3214 O   0  0  0  0  0  0  0  0  0  0  0  0
   26.2429  -22.4068  -14.0359 C   0  0  0  0  0  0  0  0  0  0  0  0
   25.8460  -21.6163  -12.7927 C   0  0  2  0  0  0  0  0  0  0  0  0
   24.9367  -22.4267  -12.0275 N   0  0  0  0  0  0  0  0  0  0  0  0
   25.2664  -20.3093  -13.1954 C   0  0  0  0  0  0  0  0  0  0  0  0
   24.0435  -20.1599  -12.8476 O   0  0  0  0  0  0  0  0  0  0  0  0
   25.9655  -19.2953  -13.8997 N   0  0  0  0  0  0  0  0  0  0  0  0
   27.3113  -19.3584  -14.3709 C   0  0  0  0  0  0  0  0  0  0  0  0
   27.6468  -17.9813  -14.8468 C   0  0  0  0  0  0  0  0  0  0  0  0
   26.5643  -17.0819  -14.2319 C   0  0  0  0  0  0  0  0  0  0  0  0
   25.3899  -18.0321  -14.2541 C   0  0  1  0  0  0  0  0  0  0  0  0
   24.8052  -18.0253  -15.6125 C   0  0  0  0  0  0  0  0  0  0  0  0
   25.3685  -18.6831  -16.5113 O   0  0  0  0  0  0  0  0  0  0  0  0
   18.2323  -19.8180  -13.5126 N   0  0  0  0  0  0  0  0  0  0  0  0
   19.6523  -19.8655  -13.3061 C   0  0  0  0  0  0  0  0  0  0  0  0
   20.0545  -20.1282  -12.1239 N   0  0  0  0  0  0  0  0  0  0  0  0
   20.5680  -19.6391  -14.3379 N   0  0  0  0  0  0  0  0  0  0  0  0
   20.1898  -19.3981  -15.7153 C   0  0  0  0  0  0  0  0  0  0  0  0
   21.4424  -19.3081  -16.5562 C   0  0  0  0  0  0  0  0  0  0  0  0
   21.5993  -17.9266  -17.1358 C   0  0  0  0  0  0  0  0  0  0  0  0
   23.0137  -17.4456  -17.2173 C   0  0  2  0  0  0  0  0  0  0  0  0
   23.6345  -17.3018  -15.9225 N   0  0  0  0  0  0  0  0  0  0  0  0
   23.0299  -16.1018  -17.9046 C   0  0  0  0  0  0  0  0  0  0  0  0
   23.4107  -15.0831  -17.2850 O   0  0  0  0  0  0  0  0  0  0  0  0
   22.6261  -15.9724  -19.2242 O   0  0  0  0  0  0  0  0  0  0  0  0
  2  1  1  0
  2  3  2  0
  4  2  1  0
  5  4  1  0
  5  6  1  6
  7  5  1  0
  7  9  1  0
  8  7  2  0
  9 13  1  0
 10  9  1  0
 10 11  1  0
 11 12  1  0
 13 12  1  0
 14 24  1  0
 13 14  1  6
 15 14  2  0
 17 16  1  0
 17 19  1  0
 18 17  2  0
 20 19  1  0
 21 22  1  0
 21 20  1  0
 23 22  1  1
 23 24  1  0
 25 23  1  0
 25 27  1  0
 26 25  2  0
M  END
$$$$
