DPM.pdb
     RDKit          3D

 24 24  0  0  1  0  0  0  0  0999 V2000
   20.1429   -4.0785  -15.2890 N   0  0  0  0  0  0  0  0  0  0  0  0
   20.5392   -5.3857  -14.8039 C   0  0  1  0  0  0  0  0  0  0  0  0
   20.9677   -5.1732  -13.3586 C   0  0  0  0  0  0  0  0  0  0  0  0
   22.1104   -4.2325  -13.3515 C   0  0  0  0  0  0  0  0  0  0  0  0
   23.2533   -4.6203  -13.6697 O   0  0  0  0  0  0  0  0  0  0  0  0
   19.3904   -6.3647  -14.8504 C   0  0  0  0  0  0  0  0  0  0  0  0
   18.3427   -5.9323  -14.3058 O   0  0  0  0  0  0  0  0  0  0  0  0
   21.9409   -2.9036  -12.9931 O   0  0  0  0  0  0  0  0  0  0  0  0
   19.5262   -7.6165  -15.4506 N   0  0  0  0  0  0  0  0  0  0  0  0
   20.2365   -7.7892  -16.7480 C   0  0  0  0  0  0  0  0  0  0  0  0
   21.1524   -8.9163  -16.4021 C   0  0  0  0  0  0  0  0  0  0  0  0
   20.5083   -9.6527  -15.2356 C   0  0  0  0  0  0  0  0  0  0  0  0
   19.1492   -8.9462  -15.1526 C   0  0  1  0  0  0  0  0  0  0  0  0
   18.4504   -9.2571  -13.9271 C   0  0  0  0  0  0  0  0  0  0  0  0
   18.8647   -8.9216  -12.8051 O   0  0  0  0  0  0  0  0  0  0  0  0
   15.9712   -6.4766   -9.3927 C   0  0  0  0  0  0  0  0  0  0  0  0
   14.6435   -7.3170  -10.2998 S   0  0  0  0  0  0  0  0  0  0  0  0
   15.1785   -8.9173  -10.9415 C   0  0  0  0  0  0  0  0  0  0  0  0
   16.0137   -8.7847  -12.1818 C   0  0  0  0  0  0  0  0  0  0  0  0
   16.3669  -10.1050  -12.7511 C   0  0  2  0  0  0  0  0  0  0  0  0
   17.2122   -9.9859  -13.9288 N   0  0  0  0  0  0  0  0  0  0  0  0
   15.1903  -10.9342  -12.9968 C   0  0  0  0  0  0  0  0  0  0  0  0
   14.5991  -10.7594  -14.1284 O   0  0  0  0  0  0  0  0  0  0  0  0
   14.6316  -11.8781  -12.1829 O   0  0  0  0  0  0  0  0  0  0  0  0
  2  1  1  1
  2  3  1  0
  3  4  1  0
  4  8  1  0
  5  4  2  0
  6  7  2  0
  6  2  1  0
  9  6  1  0
 10  9  1  0
 11 10  1  0
 12 11  1  0
 12 13  1  0
 13 14  1  1
 13  9  1  0
 14 21  1  0
 15 14  2  0
 17 16  1  0
 17 18  1  0
 19 18  1  0
 20 19  1  6
 21 20  1  0
 22 24  1  0
 22 20  1  0
 23 22  2  0
M  END
$$$$
