DPM.pdb
     RDKit          3D

 24 24  0  0  1  0  0  0  0  0999 V2000
   25.0883  -20.8604  -16.4128 N   0  0  0  0  0  0  0  0  0  0  0  0
   24.3925  -21.5652  -15.3543 C   0  0  1  0  0  0  0  0  0  0  0  0
   23.8994  -22.8619  -15.9815 C   0  0  0  0  0  0  0  0  0  0  0  0
   22.5458  -22.6216  -16.5297 C   0  0  0  0  0  0  0  0  0  0  0  0
   22.3926  -22.3143  -17.7297 O   0  0  0  0  0  0  0  0  0  0  0  0
   25.3148  -21.8817  -14.2012 C   0  0  0  0  0  0  0  0  0  0  0  0
   24.9921  -22.9227  -13.5741 O   0  0  0  0  0  0  0  0  0  0  0  0
   21.4194  -22.7314  -15.7281 O   0  0  0  0  0  0  0  0  0  0  0  0
   26.4067  -21.0679  -13.8995 N   0  0  0  0  0  0  0  0  0  0  0  0
   27.1999  -20.3959  -14.9657 C   0  0  0  0  0  0  0  0  0  0  0  0
   27.2293  -19.0004  -14.4361 C   0  0  0  0  0  0  0  0  0  0  0  0
   27.0150  -19.1053  -12.9325 C   0  0  0  0  0  0  0  0  0  0  0  0
   27.0673  -20.6251  -12.7306 C   0  0  1  0  0  0  0  0  0  0  0  0
   26.5926  -21.0149  -11.4231 C   0  0  0  0  0  0  0  0  0  0  0  0
   25.4008  -21.2678  -11.1808 O   0  0  0  0  0  0  0  0  0  0  0  0
   27.9762  -19.9632   -3.6950 C   0  0  0  0  0  0  0  0  0  0  0  0
   28.5403  -19.7839   -5.4102 S   0  0  0  0  0  0  0  0  0  0  0  0
   27.4411  -20.6254   -6.5689 C   0  0  0  0  0  0  0  0  0  0  0  0
   27.9536  -20.5776   -7.9791 C   0  0  0  0  0  0  0  0  0  0  0  0
   27.0136  -21.2163   -8.9281 C   0  0  2  0  0  0  0  0  0  0  0  0
   27.4834  -21.1366  -10.3024 N   0  0  0  0  0  0  0  0  0  0  0  0
   25.6507  -20.7135   -8.7798 C   0  0  0  0  0  0  0  0  0  0  0  0
   25.4380  -19.5160   -9.2058 O   0  0  0  0  0  0  0  0  0  0  0  0
   24.5643  -21.3486   -8.2490 O   0  0  0  0  0  0  0  0  0  0  0  0
  2  1  1  6
  2  3  1  0
  3  4  1  0
  4  8  1  0
  5  4  2  0
  6  7  2  0
  6  2  1  0
  9  6  1  0
 10  9  1  0
 11 10  1  0
 12 11  1  0
 12 13  1  0
 13 14  1  1
 13  9  1  0
 14 21  1  0
 15 14  2  0
 17 16  1  0
 17 18  1  0
 19 18  1  0
 20 19  1  1
 21 20  1  0
 22 24  1  0
 22 20  1  0
 23 22  2  0
M  END
$$$$
