DPM.pdb
     RDKit          3D

 24 24  0  0  1  0  0  0  0  0999 V2000
   22.4047  -21.7005  -12.8706 N   0  0  0  0  0  0  0  0  0  0  0  0
   23.5653  -20.8343  -12.8067 C   0  0  1  0  0  0  0  0  0  0  0  0
   23.0156  -19.4149  -12.7803 C   0  0  0  0  0  0  0  0  0  0  0  0
   22.4722  -19.1074  -14.1222 C   0  0  0  0  0  0  0  0  0  0  0  0
   23.0901  -19.4509  -15.1509 O   0  0  0  0  0  0  0  0  0  0  0  0
   24.3744  -21.0850  -11.5565 C   0  0  0  0  0  0  0  0  0  0  0  0
   23.6967  -21.0138  -10.4997 O   0  0  0  0  0  0  0  0  0  0  0  0
   21.2691  -18.4336  -14.2698 O   0  0  0  0  0  0  0  0  0  0  0  0
   25.7396  -21.3645  -11.6183 N   0  0  0  0  0  0  0  0  0  0  0  0
   26.3300  -22.1355  -12.7473 C   0  0  0  0  0  0  0  0  0  0  0  0
   27.4689  -21.2421  -13.1128 C   0  0  0  0  0  0  0  0  0  0  0  0
   27.7910  -20.4239  -11.8700 C   0  0  0  0  0  0  0  0  0  0  0  0
   26.8818  -21.0920  -10.8309 C   0  0  1  0  0  0  0  0  0  0  0  0
   26.7737  -20.3090   -9.6217 C   0  0  0  0  0  0  0  0  0  0  0  0
   26.2742  -19.1721   -9.5910 O   0  0  0  0  0  0  0  0  0  0  0  0
   25.9678  -19.4999   -1.8980 C   0  0  0  0  0  0  0  0  0  0  0  0
   26.1610  -20.6491   -3.2888 S   0  0  0  0  0  0  0  0  0  0  0  0
   26.8791  -19.8388   -4.7333 C   0  0  0  0  0  0  0  0  0  0  0  0
   26.7735  -20.6809   -5.9716 C   0  0  0  0  0  0  0  0  0  0  0  0
   27.3048  -19.9785   -7.1617 C   0  0  2  0  0  0  0  0  0  0  0  0
   27.2448  -20.8039   -8.3578 N   0  0  0  0  0  0  0  0  0  0  0  0
   28.6403  -19.4340   -6.9324 C   0  0  0  0  0  0  0  0  0  0  0  0
   29.6256  -20.1547   -7.3449 O   0  0  0  0  0  0  0  0  0  0  0  0
   28.9856  -18.2539   -6.3376 O   0  0  0  0  0  0  0  0  0  0  0  0
  2  1  1  1
  2  3  1  0
  3  4  1  0
  4  8  1  0
  5  4  2  0
  6  7  2  0
  6  2  1  0
  9  6  1  0
 10  9  1  0
 11 10  1  0
 12 11  1  0
 12 13  1  0
 13 14  1  1
 13  9  1  0
 14 21  1  0
 15 14  2  0
 17 16  1  0
 17 18  1  0
 19 18  1  0
 20 19  1  1
 21 20  1  0
 22 24  1  0
 22 20  1  0
 23 22  2  0
M  END
$$$$
