DPM.pdb
     RDKit          3D

 24 24  0  0  1  0  0  0  0  0999 V2000
   27.8047  -21.4487  -16.4688 N   0  0  0  0  0  0  0  0  0  0  0  0
   27.2412  -20.6685  -15.3849 C   0  0  1  0  0  0  0  0  0  0  0  0
   26.8498  -19.3331  -16.0024 C   0  0  0  0  0  0  0  0  0  0  0  0
   28.0690  -18.7135  -16.5684 C   0  0  0  0  0  0  0  0  0  0  0  0
   29.1492  -18.7533  -15.9443 O   0  0  0  0  0  0  0  0  0  0  0  0
   26.0164  -21.3333  -14.8032 C   0  0  0  0  0  0  0  0  0  0  0  0
   25.1567  -21.6412  -15.6676 O   0  0  0  0  0  0  0  0  0  0  0  0
   28.0421  -18.0765  -17.8000 O   0  0  0  0  0  0  0  0  0  0  0  0
   25.8958  -21.5625  -13.4327 N   0  0  0  0  0  0  0  0  0  0  0  0
   27.0716  -21.9237  -12.5933 C   0  0  0  0  0  0  0  0  0  0  0  0
   26.9107  -20.9472  -11.4755 C   0  0  0  0  0  0  0  0  0  0  0  0
   25.4367  -20.5674  -11.4438 C   0  0  0  0  0  0  0  0  0  0  0  0
   24.8563  -21.5440  -12.4745 C   0  0  1  0  0  0  0  0  0  0  0  0
   23.5083  -21.1916  -12.8561 C   0  0  0  0  0  0  0  0  0  0  0  0
   23.1512  -20.0248  -13.0884 O   0  0  0  0  0  0  0  0  0  0  0  0
   17.1093  -22.9886  -16.9601 C   0  0  0  0  0  0  0  0  0  0  0  0
   18.6645  -23.5639  -16.2236 S   0  0  0  0  0  0  0  0  0  0  0  0
   19.2859  -22.4098  -14.9824 C   0  0  0  0  0  0  0  0  0  0  0  0
   20.6689  -22.7622  -14.5167 C   0  0  0  0  0  0  0  0  0  0  0  0
   21.1299  -21.8650  -13.4330 C   0  0  2  0  0  0  0  0  0  0  0  0
   22.4791  -22.1847  -12.9933 N   0  0  0  0  0  0  0  0  0  0  0  0
   20.1849  -21.8094  -12.3211 C   0  0  0  0  0  0  0  0  0  0  0  0
   20.2630  -22.7662  -11.4614 O   0  0  0  0  0  0  0  0  0  0  0  0
   19.2254  -20.8708  -12.0683 O   0  0  0  0  0  0  0  0  0  0  0  0
  2  1  1  6
  2  3  1  0
  3  4  1  0
  4  8  1  0
  5  4  2  0
  6  7  2  0
  6  2  1  0
  9  6  1  0
 10  9  1  0
 11 10  1  0
 12 11  1  0
 12 13  1  0
 13 14  1  6
 13  9  1  0
 14 21  1  0
 15 14  2  0
 17 16  1  0
 17 18  1  0
 19 18  1  0
 20 19  1  6
 21 20  1  0
 22 24  1  0
 22 20  1  0
 23 22  2  0
M  END
$$$$
