SIL.pdb
     RDKit          3D

 23 22  0  0  1  0  0  0  0  0999 V2000
   29.4303  -21.6303  -15.4006 O   0  0  0  0  0  0  0  0  0  0  0  0
   28.1972  -22.2648  -15.3396 C   0  0  0  0  0  0  0  0  0  0  0  0
   27.0666  -21.2605  -15.5651 C   0  0  2  0  0  0  0  0  0  0  0  0
   27.3706  -20.4619  -16.7159 N   0  0  0  0  0  0  0  0  0  0  0  0
   26.9207  -20.4037  -14.3875 C   0  0  0  0  0  0  0  0  0  0  0  0
   27.0575  -19.1567  -14.4978 O   0  0  0  0  0  0  0  0  0  0  0  0
   21.8850  -19.8120  -12.6448 C   0  0  0  0  0  0  0  0  0  0  0  0
   23.2442  -19.7136  -12.0241 C   0  0  0  0  0  0  0  0  0  0  0  0
   24.2360  -20.4836  -12.8455 C   0  0  2  0  0  0  0  0  0  0  0  0
   23.8779  -21.9440  -12.9507 C   0  0  0  0  0  0  0  0  0  0  0  0
   25.6383  -20.3662  -12.2929 C   0  0  2  0  0  0  0  0  0  0  0  0
   26.6256  -20.9689  -13.1201 N   0  0  0  0  0  0  0  0  0  0  0  0
   25.6910  -21.0468  -10.9506 C   0  0  0  0  0  0  0  0  0  0  0  0
   25.6134  -22.3006  -10.8404 O   0  0  0  0  0  0  0  0  0  0  0  0
   29.0033  -20.5767   -7.6695 C   0  0  0  0  0  0  0  0  0  0  0  0
   28.0034  -19.4997   -7.8340 C   0  0  2  0  0  0  0  0  0  0  0  0
   28.3408  -18.3142   -6.8962 C   0  0  0  0  0  0  0  0  0  0  0  0
   26.5847  -19.7971   -7.6284 C   0  0  0  0  0  0  0  0  0  0  0  0
   25.8853  -20.8331   -8.4252 C   0  0  2  0  0  0  0  0  0  0  0  0
   25.8311  -20.2448   -9.7968 N   0  0  0  0  0  0  0  0  0  0  0  0
   24.4906  -21.0865   -8.0682 C   0  0  0  0  0  0  0  0  0  0  0  0
   23.5458  -20.4785   -8.6910 O   0  0  0  0  0  0  0  0  0  0  0  0
   24.0400  -21.9597   -7.0844 O   0  0  0  0  0  0  0  0  0  0  0  0
  1  2  1  0
  2  3  1  0
  3  4  1  6
  3  5  1  0
  5  6  2  0
  7  8  1  0
  8  9  1  0
  9 11  1  0
  9 10  1  1
 11 13  1  0
 12  5  1  0
 11 12  1  6
 13 14  2  0
 16 17  1  1
 16 15  1  0
 18 16  1  0
 19 18  1  1
 19 21  1  0
 20 13  1  0
 20 19  1  0
 21 22  2  0
 21 23  1  0
M  END
$$$$
