SIL.pdb
     RDKit          3D

 23 22  0  0  1  0  0  0  0  0999 V2000
   17.7923  -10.7993  -19.3265 O   0  0  0  0  0  0  0  0  0  0  0  0
   18.5939  -10.2837  -18.3173 C   0  0  0  0  0  0  0  0  0  0  0  0
   19.2344  -11.4144  -17.5119 C   0  0  2  0  0  0  0  0  0  0  0  0
   18.2044  -12.1678  -16.8591 N   0  0  0  0  0  0  0  0  0  0  0  0
   20.1522  -10.8578  -16.5169 C   0  0  0  0  0  0  0  0  0  0  0  0
   19.6981  -10.3616  -15.4523 O   0  0  0  0  0  0  0  0  0  0  0  0
   23.4441  -12.6635  -14.1780 C   0  0  0  0  0  0  0  0  0  0  0  0
   23.8034  -12.3521  -15.5980 C   0  0  0  0  0  0  0  0  0  0  0  0
   23.8199  -10.8661  -15.8048 C   0  0  2  0  0  0  0  0  0  0  0  0
   24.6540  -10.1554  -14.7699 C   0  0  0  0  0  0  0  0  0  0  0  0
   22.4267  -10.2793  -15.7919 C   0  0  2  0  0  0  0  0  0  0  0  0
   21.5527  -10.8734  -16.7435 N   0  0  0  0  0  0  0  0  0  0  0  0
   22.5146   -8.8098  -16.1090 C   0  0  0  0  0  0  0  0  0  0  0  0
   23.0185   -8.3942  -17.1877 O   0  0  0  0  0  0  0  0  0  0  0  0
   20.9961   -3.6234  -16.5163 C   0  0  0  0  0  0  0  0  0  0  0  0
   20.6619   -4.9815  -16.9965 C   0  0  2  0  0  0  0  0  0  0  0  0
   19.2072   -5.0141  -17.5272 C   0  0  0  0  0  0  0  0  0  0  0  0
   20.7939   -6.1199  -16.0854 C   0  0  0  0  0  0  0  0  0  0  0  0
   22.0693   -6.4131  -15.3891 C   0  0  2  0  0  0  0  0  0  0  0  0
   22.0153   -7.8882  -15.1627 N   0  0  0  0  0  0  0  0  0  0  0  0
   22.2228   -5.8323  -14.0564 C   0  0  0  0  0  0  0  0  0  0  0  0
   21.8235   -6.4805  -13.0217 O   0  0  0  0  0  0  0  0  0  0  0  0
   22.7859   -4.5963  -13.7587 O   0  0  0  0  0  0  0  0  0  0  0  0
  1  2  1  0
  2  3  1  0
  3  4  1  1
  3  5  1  0
  5  6  2  0
  7  8  1  0
  8  9  1  0
  9 11  1  0
  9 10  1  1
 11 13  1  0
 12  5  1  0
 11 12  1  6
 13 14  2  0
 16 17  1  1
 16 15  1  0
 18 16  1  0
 19 18  1  1
 19 21  1  0
 20 13  1  0
 20 19  1  0
 21 22  2  0
 21 23  1  0
M  END
$$$$
