SIL.pdb
     RDKit          3D

 23 22  0  0  1  0  0  0  0  0999 V2000
   24.0129  -15.3879  -14.6879 O   0  0  0  0  0  0  0  0  0  0  0  0
   25.3186  -15.5532  -14.2468 C   0  0  0  0  0  0  0  0  0  0  0  0
   26.1341  -16.3418  -15.2718 C   0  0  2  0  0  0  0  0  0  0  0  0
   25.7197  -15.9657  -16.5914 N   0  0  0  0  0  0  0  0  0  0  0  0
   25.9268  -17.7771  -15.0738 C   0  0  0  0  0  0  0  0  0  0  0  0
   24.8596  -18.3173  -15.4678 O   0  0  0  0  0  0  0  0  0  0  0  0
   28.7159  -20.2125  -17.3892 C   0  0  0  0  0  0  0  0  0  0  0  0
   27.4364  -20.5345  -16.6811 C   0  0  0  0  0  0  0  0  0  0  0  0
   27.7042  -20.7563  -15.2215 C   0  0  2  0  0  0  0  0  0  0  0  0
   27.6254  -22.2129  -14.8420 C   0  0  0  0  0  0  0  0  0  0  0  0
   26.7499  -19.9746  -14.3476 C   0  0  2  0  0  0  0  0  0  0  0  0
   26.9213  -18.5659  -14.4401 N   0  0  0  0  0  0  0  0  0  0  0  0
   26.9725  -20.3675  -12.9110 C   0  0  0  0  0  0  0  0  0  0  0  0
   28.1312  -20.5353  -12.4424 O   0  0  0  0  0  0  0  0  0  0  0  0
   27.1225  -18.8443   -7.8247 C   0  0  0  0  0  0  0  0  0  0  0  0
   27.0293  -20.1231   -8.5615 C   0  0  2  0  0  0  0  0  0  0  0  0
   28.2909  -20.9815   -8.2969 C   0  0  0  0  0  0  0  0  0  0  0  0
   26.8398  -20.1052  -10.0131 C   0  0  0  0  0  0  0  0  0  0  0  0
   25.9587  -21.0843  -10.6931 C   0  0  2  0  0  0  0  0  0  0  0  0
   25.8436  -20.5483  -12.0823 N   0  0  0  0  0  0  0  0  0  0  0  0
   24.5836  -21.1607  -10.2032 C   0  0  0  0  0  0  0  0  0  0  0  0
   24.3014  -21.8966   -9.1887 O   0  0  0  0  0  0  0  0  0  0  0  0
   23.4852  -20.4901  -10.7299 O   0  0  0  0  0  0  0  0  0  0  0  0
  1  2  1  0
  2  3  1  0
  3  4  1  6
  3  5  1  0
  5  6  2  0
  7  8  1  0
  8  9  1  0
  9 11  1  0
  9 10  1  6
 11 13  1  0
 12  5  1  0
 11 12  1  1
 13 14  2  0
 16 17  1  6
 16 15  1  0
 18 16  1  0
 19 18  1  1
 19 21  1  0
 20 13  1  0
 20 19  1  0
 21 22  2  0
 21 23  1  0
M  END
$$$$
