SIL.pdb
     RDKit          3D

 23 22  0  0  1  0  0  0  0  0999 V2000
   22.0167  -10.6747    6.4851 O   0  0  0  0  0  0  0  0  0  0  0  0
   21.2812  -11.8083    6.8027 C   0  0  0  0  0  0  0  0  0  0  0  0
   19.7841  -11.5321    6.6616 C   0  0  2  0  0  0  0  0  0  0  0  0
   19.3235  -10.8349    7.8261 N   0  0  0  0  0  0  0  0  0  0  0  0
   19.0575  -12.7942    6.5157 C   0  0  0  0  0  0  0  0  0  0  0  0
   18.5855  -13.3679    7.5325 O   0  0  0  0  0  0  0  0  0  0  0  0
   16.3699  -13.6968    1.7832 C   0  0  0  0  0  0  0  0  0  0  0  0
   16.7899  -13.5023    3.2074 C   0  0  0  0  0  0  0  0  0  0  0  0
   17.5220  -14.7186    3.6929 C   0  0  2  0  0  0  0  0  0  0  0  0
   16.6567  -15.9526    3.6690 C   0  0  0  0  0  0  0  0  0  0  0  0
   18.0616  -14.5311    5.0926 C   0  0  2  0  0  0  0  0  0  0  0  0
   18.8807  -13.3773    5.2343 N   0  0  0  0  0  0  0  0  0  0  0  0
   18.8965  -15.7302    5.4570 C   0  0  0  0  0  0  0  0  0  0  0  0
   19.9237  -16.0470    4.7976 O   0  0  0  0  0  0  0  0  0  0  0  0
   22.3086  -17.2492    8.0533 C   0  0  0  0  0  0  0  0  0  0  0  0
   21.0639  -16.6050    8.5250 C   0  0  2  0  0  0  0  0  0  0  0  0
   21.1806  -16.2635   10.0311 C   0  0  0  0  0  0  0  0  0  0  0  0
   19.7859  -17.2995    8.3575 C   0  0  0  0  0  0  0  0  0  0  0  0
   19.2878  -17.6968    7.0191 C   0  0  2  0  0  0  0  0  0  0  0  0
   18.5042  -16.5081    6.5684 N   0  0  0  0  0  0  0  0  0  0  0  0
   18.3381  -18.8077    6.9900 C   0  0  0  0  0  0  0  0  0  0  0  0
   17.0797  -18.5825    7.1158 O   0  0  0  0  0  0  0  0  0  0  0  0
   18.6516  -20.1526    6.8275 O   0  0  0  0  0  0  0  0  0  0  0  0
  1  2  1  0
  2  3  1  0
  3  4  1  1
  3  5  1  0
  5  6  2  0
  7  8  1  0
  8  9  1  0
  9 11  1  0
  9 10  1  1
 11 13  1  0
 12  5  1  0
 11 12  1  6
 13 14  2  0
 16 17  1  1
 16 15  1  0
 18 16  1  0
 19 18  1  1
 19 21  1  0
 20 13  1  0
 20 19  1  0
 21 22  2  0
 21 23  1  0
M  END
$$$$
