SIL.pdb
     RDKit          3D

 23 22  0  0  1  0  0  0  0  0999 V2000
   16.4028  -15.7352  -15.0163 O   0  0  0  0  0  0  0  0  0  0  0  0
   17.2191  -14.6472  -15.2933 C   0  0  0  0  0  0  0  0  0  0  0  0
   17.3063  -14.4136  -16.8017 C   0  0  2  0  0  0  0  0  0  0  0  0
   18.1524  -15.4136  -17.3836 N   0  0  0  0  0  0  0  0  0  0  0  0
   17.8521  -13.0819  -17.0677 C   0  0  0  0  0  0  0  0  0  0  0  0
   19.0890  -12.9361  -17.2540 O   0  0  0  0  0  0  0  0  0  0  0  0
   14.5593   -9.2995  -19.2093 C   0  0  0  0  0  0  0  0  0  0  0  0
   15.8791   -9.9954  -19.0821 C   0  0  0  0  0  0  0  0  0  0  0  0
   16.5203   -9.6356  -17.7742 C   0  0  2  0  0  0  0  0  0  0  0  0
   17.1784   -8.2802  -17.8153 C   0  0  0  0  0  0  0  0  0  0  0  0
   17.5465  -10.6608  -17.3480 C   0  0  2  0  0  0  0  0  0  0  0  0
   16.9960  -11.9515  -17.1172 N   0  0  0  0  0  0  0  0  0  0  0  0
   18.1882  -10.2028  -16.0650 C   0  0  0  0  0  0  0  0  0  0  0  0
   17.5680  -10.2317  -14.9673 O   0  0  0  0  0  0  0  0  0  0  0  0
   23.1669   -8.7423  -13.6493 C   0  0  0  0  0  0  0  0  0  0  0  0
   22.5161  -10.0493  -13.8839 C   0  0  2  0  0  0  0  0  0  0  0  0
   23.5828  -11.1210  -14.2190 C   0  0  0  0  0  0  0  0  0  0  0  0
   21.4801  -10.1632  -14.9121 C   0  0  0  0  0  0  0  0  0  0  0  0
   20.2579   -9.3251  -14.8789 C   0  0  2  0  0  0  0  0  0  0  0  0
   19.5187   -9.7321  -16.1111 N   0  0  0  0  0  0  0  0  0  0  0  0
   20.4618   -7.8845  -15.0199 C   0  0  0  0  0  0  0  0  0  0  0  0
   20.4556   -7.1285  -13.9813 O   0  0  0  0  0  0  0  0  0  0  0  0
   20.6797   -7.1981  -16.2094 O   0  0  0  0  0  0  0  0  0  0  0  0
  1  2  1  0
  2  3  1  0
  3  4  1  6
  3  5  1  0
  5  6  2  0
  7  8  1  0
  8  9  1  0
  9 11  1  0
  9 10  1  6
 11 13  1  0
 12  5  1  0
 11 12  1  1
 13 14  2  0
 16 17  1  6
 16 15  1  0
 18 16  1  0
 19 18  1  6
 19 21  1  0
 20 13  1  0
 20 19  1  0
 21 22  2  0
 21 23  1  0
M  END
$$$$
