SIL.pdb
     RDKit          3D

 23 22  0  0  1  0  0  0  0  0999 V2000
   21.7419  -14.0384  -21.0171 O   0  0  0  0  0  0  0  0  0  0  0  0
   21.8264  -13.3959  -19.7895 C   0  0  0  0  0  0  0  0  0  0  0  0
   22.7024  -14.1963  -18.8254 C   0  0  2  0  0  0  0  0  0  0  0  0
   22.0362  -15.4209  -18.4922 N   0  0  0  0  0  0  0  0  0  0  0  0
   22.9477  -13.4156  -17.6119 C   0  0  0  0  0  0  0  0  0  0  0  0
   22.0463  -13.3133  -16.7385 O   0  0  0  0  0  0  0  0  0  0  0  0
   27.9905  -12.8838  -15.5287 C   0  0  0  0  0  0  0  0  0  0  0  0
   26.5129  -13.0874  -15.6617 C   0  0  0  0  0  0  0  0  0  0  0  0
   25.8355  -11.7677  -15.8871 C   0  0  2  0  0  0  0  0  0  0  0  0
   25.9105  -10.8738  -14.6757 C   0  0  0  0  0  0  0  0  0  0  0  0
   24.3845  -11.9376  -16.2760 C   0  0  2  0  0  0  0  0  0  0  0  0
   24.1962  -12.7719  -17.4121 N   0  0  0  0  0  0  0  0  0  0  0  0
   23.8067  -10.5858  -16.6025 C   0  0  0  0  0  0  0  0  0  0  0  0
   24.2271   -9.9037  -17.5763 O   0  0  0  0  0  0  0  0  0  0  0  0
   18.4129   -8.6267  -17.3445 C   0  0  0  0  0  0  0  0  0  0  0  0
   19.7761   -8.1777  -16.9884 C   0  0  2  0  0  0  0  0  0  0  0  0
   20.3672   -7.3165  -18.1319 C   0  0  0  0  0  0  0  0  0  0  0  0
   20.7964   -9.1723  -16.6517 C   0  0  0  0  0  0  0  0  0  0  0  0
   22.1007   -8.7791  -16.0673 C   0  0  2  0  0  0  0  0  0  0  0  0
   22.7684  -10.0852  -15.7867 N   0  0  0  0  0  0  0  0  0  0  0  0
   22.0473   -8.0976  -14.7752 C   0  0  0  0  0  0  0  0  0  0  0  0
   22.0773   -6.8144  -14.7223 O   0  0  0  0  0  0  0  0  0  0  0  0
   21.9569   -8.7064  -13.5283 O   0  0  0  0  0  0  0  0  0  0  0  0
  1  2  1  0
  2  3  1  0
  3  4  1  1
  3  5  1  0
  5  6  2  0
  7  8  1  0
  8  9  1  0
  9 11  1  0
  9 10  1  1
 11 13  1  0
 12  5  1  0
 11 12  1  6
 13 14  2  0
 16 17  1  6
 16 15  1  0
 18 16  1  0
 19 18  1  1
 19 21  1  0
 20 13  1  0
 20 19  1  0
 21 22  2  0
 21 23  1  0
M  END
$$$$
