THN.pdb
     RDKit          3D

 26 26  0  0  1  0  0  0  0  0999 V2000
   10.9174  -19.8203   17.3665 C   0  0  0  0  0  0  0  0  0  0  0  0
   11.0497  -18.8640   18.5294 C   0  0  1  0  0  0  0  0  0  0  0  0
   12.3635  -18.9189   18.9666 O   0  0  0  0  0  0  0  0  0  0  0  0
   10.6708  -17.4982   18.0315 C   0  0  2  0  0  0  0  0  0  0  0  0
   11.4668  -17.1954   16.8533 N   0  0  0  0  0  0  0  0  0  0  0  0
   10.8243  -16.4387   19.0640 C   0  0  0  0  0  0  0  0  0  0  0  0
   11.8707  -15.7533   19.0488 O   0  0  0  0  0  0  0  0  0  0  0  0
    9.8608  -16.1725   20.0462 N   0  0  0  0  0  0  0  0  0  0  0  0
    9.9766  -15.2186   21.0967 C   0  0  1  0  0  0  0  0  0  0  0  0
    8.7225  -14.4294   21.3642 C   0  0  0  0  0  0  0  0  0  0  0  0
    8.2020  -13.8393   20.1024 C   0  0  0  0  0  0  0  0  0  0  0  0
    6.8955  -13.7788   19.6629 C   0  0  0  0  0  0  0  0  0  0  0  0
    6.8566  -13.1530   18.4516 N   0  0  0  0  0  0  0  0  0  0  0  0
    8.1233  -12.8304   18.1453 C   0  0  0  0  0  0  0  0  0  0  0  0
    8.9240  -13.2435   19.1368 N   0  0  0  0  0  0  0  0  0  0  0  0
   10.3824  -15.9150   22.3390 C   0  0  0  0  0  0  0  0  0  0  0  0
   10.3781  -15.2838   23.4177 O   0  0  0  0  0  0  0  0  0  0  0  0
    8.5457  -18.5115   23.8108 N   0  0  0  0  0  0  0  0  0  0  0  0
    9.4151  -19.6127   23.6162 C   0  0  0  0  0  0  0  0  0  0  0  0
    8.9124  -20.7657   23.6191 O   0  0  0  0  0  0  0  0  0  0  0  0
   10.8609  -19.4257   23.4164 C   0  0  0  0  0  0  0  0  0  0  0  0
   11.2035  -17.9394   23.4717 C   0  0  2  0  0  0  0  0  0  0  0  0
   10.7634  -17.2781   22.2646 N   0  0  0  0  0  0  0  0  0  0  0  0
   12.6554  -17.7321   23.6145 C   0  0  0  0  0  0  0  0  0  0  0  0
   13.5312  -17.7194   22.5334 O   0  0  0  0  0  0  0  0  0  0  0  0
   13.1535  -17.5558   24.7544 O   0  0  0  0  0  0  0  0  0  0  0  0
  2  1  1  6
  2  4  1  0
  3  2  1  0
  4  6  1  0
  4  5  1  6
  6  7  2  0
  8  6  1  0
  8  9  1  0
  9 10  1  1
 10 11  1  0
 11 15  1  0
 12 13  1  0
 12 11  2  0
 13 14  1  0
 14 15  2  0
 16 17  2  0
 16  9  1  0
 19 18  1  0
 19 20  2  0
 22 21  1  6
 21 19  1  0
 22 23  1  0
 23 16  1  0
 24 25  1  0
 24 22  1  0
 26 24  2  0
M  END
$$$$
