THN.pdb
     RDKit          3D

 26 26  0  0  1  0  0  0  0  0999 V2000
    7.4978  -12.1969   19.1103 C   0  0  0  0  0  0  0  0  0  0  0  0
    8.6892  -13.0276   19.5288 C   0  0  1  0  0  0  0  0  0  0  0  0
    8.2616  -13.9019   20.5152 O   0  0  0  0  0  0  0  0  0  0  0  0
    9.1862  -13.7456   18.3063 C   0  0  2  0  0  0  0  0  0  0  0  0
    8.0887  -14.5118   17.7387 N   0  0  0  0  0  0  0  0  0  0  0  0
   10.3588  -14.6184   18.5802 C   0  0  0  0  0  0  0  0  0  0  0  0
   10.1611  -15.8493   18.6845 O   0  0  0  0  0  0  0  0  0  0  0  0
   11.6654  -14.1330   18.7259 N   0  0  0  0  0  0  0  0  0  0  0  0
   12.8008  -14.8912   19.1293 C   0  0  1  0  0  0  0  0  0  0  0  0
   14.1167  -14.3605   18.6256 C   0  0  0  0  0  0  0  0  0  0  0  0
   14.4393  -14.9487   17.2985 C   0  0  0  0  0  0  0  0  0  0  0  0
   13.7572  -15.9315   16.6110 C   0  0  0  0  0  0  0  0  0  0  0  0
   14.3924  -16.1777   15.4293 N   0  0  0  0  0  0  0  0  0  0  0  0
   15.4544  -15.3574   15.3861 C   0  0  0  0  0  0  0  0  0  0  0  0
   15.4774  -14.6243   16.5072 N   0  0  0  0  0  0  0  0  0  0  0  0
   12.8399  -14.9526   20.6084 C   0  0  0  0  0  0  0  0  0  0  0  0
   12.1577  -14.1391   21.2679 O   0  0  0  0  0  0  0  0  0  0  0  0
   10.7090  -16.9023   24.7715 N   0  0  0  0  0  0  0  0  0  0  0  0
   11.5406  -17.5601   23.8324 C   0  0  0  0  0  0  0  0  0  0  0  0
   12.0053  -18.6859   24.1465 O   0  0  0  0  0  0  0  0  0  0  0  0
   11.8573  -16.9555   22.5287 C   0  0  0  0  0  0  0  0  0  0  0  0
   13.2809  -16.4055   22.5450 C   0  0  2  0  0  0  0  0  0  0  0  0
   13.6514  -15.9343   21.2301 N   0  0  0  0  0  0  0  0  0  0  0  0
   14.2467  -17.4382   22.9599 C   0  0  0  0  0  0  0  0  0  0  0  0
   14.7940  -17.4973   24.2379 O   0  0  0  0  0  0  0  0  0  0  0  0
   14.6110  -18.3195   22.1419 O   0  0  0  0  0  0  0  0  0  0  0  0
  2  1  1  6
  2  4  1  0
  3  2  1  0
  4  6  1  0
  4  5  1  1
  6  7  2  0
  8  6  1  0
  8  9  1  0
  9 10  1  1
 10 11  1  0
 11 15  1  0
 12 13  1  0
 12 11  2  0
 13 14  1  0
 14 15  2  0
 16 17  2  0
 16  9  1  0
 19 18  1  0
 19 20  2  0
 22 21  1  6
 21 19  1  0
 22 23  1  0
 23 16  1  0
 24 25  1  0
 24 22  1  0
 26 24  2  0
M  END
$$$$
