THN.pdb
     RDKit          3D

 26 26  0  0  1  0  0  0  0  0999 V2000
    7.2619  -12.0813   19.4884 C   0  0  0  0  0  0  0  0  0  0  0  0
    8.3839  -13.0683   19.7154 C   0  0  1  0  0  0  0  0  0  0  0  0
    7.8452  -14.1703   20.3600 O   0  0  0  0  0  0  0  0  0  0  0  0
    8.9532  -13.4164   18.3695 C   0  0  2  0  0  0  0  0  0  0  0  0
    7.8938  -13.9781   17.5476 N   0  0  0  0  0  0  0  0  0  0  0  0
   10.1128  -14.3443   18.4501 C   0  0  0  0  0  0  0  0  0  0  0  0
    9.9250  -15.5439   18.1491 O   0  0  0  0  0  0  0  0  0  0  0  0
   11.3965  -13.9434   18.8440 N   0  0  0  0  0  0  0  0  0  0  0  0
   12.5456  -14.7793   18.9311 C   0  0  1  0  0  0  0  0  0  0  0  0
   13.8578  -14.0516   18.8068 C   0  0  0  0  0  0  0  0  0  0  0  0
   14.9764  -15.0205   18.6607 C   0  0  0  0  0  0  0  0  0  0  0  0
   14.9911  -16.2091   17.9601 C   0  0  0  0  0  0  0  0  0  0  0  0
   16.2185  -16.7907   18.0861 N   0  0  0  0  0  0  0  0  0  0  0  0
   16.9540  -15.9722   18.8551 C   0  0  0  0  0  0  0  0  0  0  0  0
   16.2056  -14.9145   19.1960 N   0  0  0  0  0  0  0  0  0  0  0  0
   12.5175  -15.5061   20.2210 C   0  0  0  0  0  0  0  0  0  0  0  0
   12.1793  -14.8926   21.2561 O   0  0  0  0  0  0  0  0  0  0  0  0
   12.7336  -19.0713   23.7974 N   0  0  0  0  0  0  0  0  0  0  0  0
   12.6661  -19.7775   22.5714 C   0  0  0  0  0  0  0  0  0  0  0  0
   12.5506  -21.0290   22.6199 O   0  0  0  0  0  0  0  0  0  0  0  0
   12.7283  -19.0799   21.2772 C   0  0  0  0  0  0  0  0  0  0  0  0
   12.8635  -17.5768   21.5049 C   0  0  2  0  0  0  0  0  0  0  0  0
   12.8756  -16.8773   20.2404 N   0  0  0  0  0  0  0  0  0  0  0  0
   14.1073  -17.2569   22.2271 C   0  0  0  0  0  0  0  0  0  0  0  0
   15.2786  -16.8644   21.5865 O   0  0  0  0  0  0  0  0  0  0  0  0
   14.1408  -17.3333   23.4807 O   0  0  0  0  0  0  0  0  0  0  0  0
  2  1  1  6
  2  4  1  0
  3  2  1  0
  4  6  1  0
  4  5  1  6
  6  7  2  0
  8  6  1  0
  8  9  1  0
  9 10  1  1
 10 11  1  0
 11 15  1  0
 12 13  1  0
 12 11  2  0
 13 14  1  0
 14 15  2  0
 16 17  2  0
 16  9  1  0
 19 18  1  0
 19 20  2  0
 22 21  1  6
 21 19  1  0
 22 23  1  0
 23 16  1  0
 24 25  1  0
 24 22  1  0
 26 24  2  0
M  END
$$$$
