THN.pdb
     RDKit          3D

 26 26  0  0  1  0  0  0  0  0999 V2000
   10.7842  -20.6721   17.6232 C   0  0  0  0  0  0  0  0  0  0  0  0
   11.3840  -19.6631   16.6710 C   0  0  1  0  0  0  0  0  0  0  0  0
   11.3621  -20.2223   15.4034 O   0  0  0  0  0  0  0  0  0  0  0  0
   10.5523  -18.4151   16.7586 C   0  0  2  0  0  0  0  0  0  0  0  0
   10.8427  -17.5808   15.6040 N   0  0  0  0  0  0  0  0  0  0  0  0
   10.7618  -17.6633   18.0246 C   0  0  0  0  0  0  0  0  0  0  0  0
   11.9224  -17.2818   18.2940 O   0  0  0  0  0  0  0  0  0  0  0  0
    9.7301  -17.3634   18.9243 N   0  0  0  0  0  0  0  0  0  0  0  0
    9.8703  -16.6673   20.1583 C   0  0  1  0  0  0  0  0  0  0  0  0
    8.5847  -16.1125   20.7116 C   0  0  0  0  0  0  0  0  0  0  0  0
    8.1335  -14.9469   19.9058 C   0  0  0  0  0  0  0  0  0  0  0  0
    8.7681  -14.3516   18.8350 C   0  0  0  0  0  0  0  0  0  0  0  0
    8.0108  -13.3101   18.3852 N   0  0  0  0  0  0  0  0  0  0  0  0
    6.9211  -13.2616   19.1680 C   0  0  0  0  0  0  0  0  0  0  0  0
    7.0000  -14.2434   20.0761 N   0  0  0  0  0  0  0  0  0  0  0  0
   10.4739  -17.5762   21.1596 C   0  0  0  0  0  0  0  0  0  0  0  0
   10.7213  -18.7577   20.8356 O   0  0  0  0  0  0  0  0  0  0  0  0
   14.2230  -19.4252   23.7406 N   0  0  0  0  0  0  0  0  0  0  0  0
   14.2367  -18.0713   23.3247 C   0  0  0  0  0  0  0  0  0  0  0  0
   15.2104  -17.3580   23.6782 O   0  0  0  0  0  0  0  0  0  0  0  0
   13.1523  -17.5070   22.5055 C   0  0  0  0  0  0  0  0  0  0  0  0
   11.8156  -17.6883   23.2194 C   0  0  2  0  0  0  0  0  0  0  0  0
   10.7524  -17.0759   22.4561 N   0  0  0  0  0  0  0  0  0  0  0  0
   11.8399  -17.0767   24.5597 C   0  0  0  0  0  0  0  0  0  0  0  0
   10.9362  -16.0996   24.9657 O   0  0  0  0  0  0  0  0  0  0  0  0
   12.7064  -17.4352   25.3959 O   0  0  0  0  0  0  0  0  0  0  0  0
  2  1  1  1
  2  4  1  0
  3  2  1  0
  4  6  1  0
  4  5  1  6
  6  7  2  0
  8  6  1  0
  8  9  1  0
  9 10  1  1
 10 11  1  0
 11 15  1  0
 12 13  1  0
 12 11  2  0
 13 14  1  0
 14 15  2  0
 16 17  2  0
 16  9  1  0
 19 18  1  0
 19 20  2  0
 22 21  1  6
 21 19  1  0
 22 23  1  0
 23 16  1  0
 24 25  1  0
 24 22  1  0
 26 24  2  0
M  END
$$$$
