THN.pdb
     RDKit          3D

 26 26  0  0  1  0  0  0  0  0999 V2000
    8.0245  -20.8184   17.5959 C   0  0  0  0  0  0  0  0  0  0  0  0
    8.6548  -20.0040   18.7022 C   0  0  1  0  0  0  0  0  0  0  0  0
    9.8433  -20.6251   19.0515 O   0  0  0  0  0  0  0  0  0  0  0  0
    8.8715  -18.6163   18.1690 C   0  0  2  0  0  0  0  0  0  0  0  0
    9.7719  -18.6912   17.0301 N   0  0  0  0  0  0  0  0  0  0  0  0
    9.3890  -17.6725   19.1953 C   0  0  0  0  0  0  0  0  0  0  0  0
   10.6171  -17.4343   19.2059 O   0  0  0  0  0  0  0  0  0  0  0  0
    8.5740  -17.0410   20.1445 N   0  0  0  0  0  0  0  0  0  0  0  0
    9.0012  -16.0964   21.1201 C   0  0  1  0  0  0  0  0  0  0  0  0
    8.0498  -14.9499   21.3375 C   0  0  0  0  0  0  0  0  0  0  0  0
    7.9417  -14.1248   20.1051 C   0  0  0  0  0  0  0  0  0  0  0  0
    8.5801  -12.9368   19.8137 C   0  0  0  0  0  0  0  0  0  0  0  0
    8.1993  -12.5134   18.5742 N   0  0  0  0  0  0  0  0  0  0  0  0
    7.3360  -13.4280   18.1046 C   0  0  0  0  0  0  0  0  0  0  0  0
    7.1856  -14.3899   19.0249 N   0  0  0  0  0  0  0  0  0  0  0  0
    9.2162  -16.7955   22.4077 C   0  0  0  0  0  0  0  0  0  0  0  0
    8.3601  -17.6156   22.8034 O   0  0  0  0  0  0  0  0  0  0  0  0
   12.8230  -20.0659   24.8852 N   0  0  0  0  0  0  0  0  0  0  0  0
   12.8049  -18.6547   25.0050 C   0  0  0  0  0  0  0  0  0  0  0  0
   13.2216  -18.1510   26.0796 O   0  0  0  0  0  0  0  0  0  0  0  0
   12.3167  -17.7960   23.9143 C   0  0  0  0  0  0  0  0  0  0  0  0
   10.8391  -17.4782   24.1270 C   0  0  2  0  0  0  0  0  0  0  0  0
   10.3888  -16.5117   23.1516 N   0  0  0  0  0  0  0  0  0  0  0  0
   10.6005  -16.9286   25.4732 C   0  0  0  0  0  0  0  0  0  0  0  0
   10.4761  -17.7243   26.6078 O   0  0  0  0  0  0  0  0  0  0  0  0
   10.5005  -15.6865   25.6336 O   0  0  0  0  0  0  0  0  0  0  0  0
  2  1  1  6
  2  4  1  0
  3  2  1  0
  4  6  1  0
  4  5  1  6
  6  7  2  0
  8  6  1  0
  8  9  1  0
  9 10  1  1
 10 11  1  0
 11 15  1  0
 12 13  1  0
 12 11  2  0
 13 14  1  0
 14 15  2  0
 16 17  2  0
 16  9  1  0
 19 18  1  0
 19 20  2  0
 22 21  1  6
 21 19  1  0
 22 23  1  0
 23 16  1  0
 24 25  1  0
 24 22  1  0
 26 24  2  0
M  END
$$$$
