THN.pdb
     RDKit          3D

 26 26  0  0  1  0  0  0  0  0999 V2000
    7.7476  -11.9837   19.6273 C   0  0  0  0  0  0  0  0  0  0  0  0
    8.8713  -12.9739   19.8299 C   0  0  1  0  0  0  0  0  0  0  0  0
    8.4039  -13.9673   20.6753 O   0  0  0  0  0  0  0  0  0  0  0  0
    9.2479  -13.5070   18.4767 C   0  0  2  0  0  0  0  0  0  0  0  0
    8.0600  -14.0615   17.8483 N   0  0  0  0  0  0  0  0  0  0  0  0
   10.3406  -14.5144   18.5313 C   0  0  0  0  0  0  0  0  0  0  0  0
   10.0221  -15.7179   18.6550 O   0  0  0  0  0  0  0  0  0  0  0  0
   11.7002  -14.1840   18.4513 N   0  0  0  0  0  0  0  0  0  0  0  0
   12.7923  -15.0702   18.6721 C   0  0  1  0  0  0  0  0  0  0  0  0
   14.0557  -14.6978   17.9428 C   0  0  0  0  0  0  0  0  0  0  0  0
   14.0004  -15.1716   16.5344 C   0  0  0  0  0  0  0  0  0  0  0  0
   13.3206  -16.2588   16.0248 C   0  0  0  0  0  0  0  0  0  0  0  0
   13.5382  -16.3361   14.6805 N   0  0  0  0  0  0  0  0  0  0  0  0
   14.3426  -15.3095   14.3621 C   0  0  0  0  0  0  0  0  0  0  0  0
   14.6159  -14.6161   15.4754 N   0  0  0  0  0  0  0  0  0  0  0  0
   13.0751  -15.1358   20.1243 C   0  0  0  0  0  0  0  0  0  0  0  0
   12.7368  -14.1779   20.8524 O   0  0  0  0  0  0  0  0  0  0  0  0
   11.4865  -17.8009   24.5924 N   0  0  0  0  0  0  0  0  0  0  0  0
   12.3105  -16.7819   24.0548 C   0  0  0  0  0  0  0  0  0  0  0  0
   13.0566  -16.1509   24.8467 O   0  0  0  0  0  0  0  0  0  0  0  0
   12.3021  -16.4635   22.6182 C   0  0  0  0  0  0  0  0  0  0  0  0
   13.7278  -16.4882   22.0738 C   0  0  2  0  0  0  0  0  0  0  0  0
   13.7217  -16.2854   20.6430 N   0  0  0  0  0  0  0  0  0  0  0  0
   14.3854  -17.7755   22.3598 C   0  0  0  0  0  0  0  0  0  0  0  0
   14.8130  -18.6482   21.3640 O   0  0  0  0  0  0  0  0  0  0  0  0
   14.5821  -18.1272   23.5498 O   0  0  0  0  0  0  0  0  0  0  0  0
  2  1  1  6
  2  4  1  0
  3  2  1  0
  4  6  1  0
  4  5  1  1
  6  7  2  0
  8  6  1  0
  8  9  1  0
  9 10  1  6
 10 11  1  0
 11 15  1  0
 12 13  1  0
 12 11  2  0
 13 14  1  0
 14 15  2  0
 16 17  2  0
 16  9  1  0
 19 18  1  0
 19 20  2  0
 22 21  1  6
 21 19  1  0
 22 23  1  0
 23 16  1  0
 24 25  1  0
 24 22  1  0
 26 24  2  0
M  END
$$$$
