THN.pdb
     RDKit          3D

 26 26  0  0  1  0  0  0  0  0999 V2000
   10.1127  -20.6875   17.3425 C   0  0  0  0  0  0  0  0  0  0  0  0
   10.2967  -19.6742   18.4488 C   0  0  1  0  0  0  0  0  0  0  0  0
   11.4219  -20.0430   19.1687 O   0  0  0  0  0  0  0  0  0  0  0  0
   10.4498  -18.3272   17.8015 C   0  0  2  0  0  0  0  0  0  0  0  0
   11.5451  -18.3915   16.8476 N   0  0  0  0  0  0  0  0  0  0  0  0
   10.6627  -17.2303   18.7830 C   0  0  0  0  0  0  0  0  0  0  0  0
   11.8282  -16.8043   18.9418 O   0  0  0  0  0  0  0  0  0  0  0  0
    9.6288  -16.6543   19.5335 N   0  0  0  0  0  0  0  0  0  0  0  0
    9.7703  -15.6134   20.4943 C   0  0  1  0  0  0  0  0  0  0  0  0
    8.5084  -14.8381   20.7651 C   0  0  0  0  0  0  0  0  0  0  0  0
    8.1172  -14.0489   19.5669 C   0  0  0  0  0  0  0  0  0  0  0  0
    8.7510  -13.9831   18.3431 C   0  0  0  0  0  0  0  0  0  0  0  0
    8.0602  -13.1398   17.5232 N   0  0  0  0  0  0  0  0  0  0  0  0
    7.0121  -12.6893   18.2310 C   0  0  0  0  0  0  0  0  0  0  0  0
    7.0513  -13.2367   19.4532 N   0  0  0  0  0  0  0  0  0  0  0  0
   10.2625  -16.1927   21.7651 C   0  0  0  0  0  0  0  0  0  0  0  0
   10.4074  -15.4458   22.7567 O   0  0  0  0  0  0  0  0  0  0  0  0
   11.6651  -21.3013   24.6028 N   0  0  0  0  0  0  0  0  0  0  0  0
   11.0844  -20.0095   24.5912 C   0  0  0  0  0  0  0  0  0  0  0  0
   11.1080  -19.3453   25.6590 O   0  0  0  0  0  0  0  0  0  0  0  0
   10.4708  -19.4525   23.3752 C   0  0  0  0  0  0  0  0  0  0  0  0
   11.1282  -18.1199   23.0270 C   0  0  2  0  0  0  0  0  0  0  0  0
   10.5540  -17.5788   21.8163 N   0  0  0  0  0  0  0  0  0  0  0  0
   12.5793  -18.2780   22.8251 C   0  0  0  0  0  0  0  0  0  0  0  0
   13.5046  -18.1901   23.8606 O   0  0  0  0  0  0  0  0  0  0  0  0
   13.0304  -18.5035   21.6744 O   0  0  0  0  0  0  0  0  0  0  0  0
  2  1  1  6
  2  4  1  0
  3  2  1  0
  4  6  1  0
  4  5  1  6
  6  7  2  0
  8  6  1  0
  8  9  1  0
  9 10  1  1
 10 11  1  0
 11 15  1  0
 12 13  1  0
 12 11  2  0
 13 14  1  0
 14 15  2  0
 16 17  2  0
 16  9  1  0
 19 18  1  0
 19 20  2  0
 22 21  1  6
 21 19  1  0
 22 23  1  0
 23 16  1  0
 24 25  1  0
 24 22  1  0
 26 24  2  0
M  END
$$$$
