THN.pdb
     RDKit          3D

 26 26  0  0  1  0  0  0  0  0999 V2000
   12.8010  -19.3536   17.0289 C   0  0  0  0  0  0  0  0  0  0  0  0
   11.3111  -19.4732   16.8046 C   0  0  1  0  0  0  0  0  0  0  0  0
   10.7700  -20.0910   17.9207 O   0  0  0  0  0  0  0  0  0  0  0  0
   10.7752  -18.0839   16.6055 C   0  0  2  0  0  0  0  0  0  0  0  0
   11.3520  -17.5327   15.3902 N   0  0  0  0  0  0  0  0  0  0  0  0
   11.0281  -17.1903   17.7672 C   0  0  0  0  0  0  0  0  0  0  0  0
   12.1798  -16.7222   17.9063 O   0  0  0  0  0  0  0  0  0  0  0  0
   10.0461  -16.8493   18.7071 N   0  0  0  0  0  0  0  0  0  0  0  0
   10.2497  -16.0885   19.8931 C   0  0  1  0  0  0  0  0  0  0  0  0
    8.9831  -15.6298   20.5655 C   0  0  0  0  0  0  0  0  0  0  0  0
    8.3314  -14.5573   19.7678 C   0  0  0  0  0  0  0  0  0  0  0  0
    8.7623  -13.9899   18.5862 C   0  0  0  0  0  0  0  0  0  0  0  0
    7.8674  -13.0395   18.1906 N   0  0  0  0  0  0  0  0  0  0  0  0
    6.8949  -13.0191   19.1159 C   0  0  0  0  0  0  0  0  0  0  0  0
    7.1778  -13.9294   20.0573 N   0  0  0  0  0  0  0  0  0  0  0  0
   11.0413  -16.8921   20.8525 C   0  0  0  0  0  0  0  0  0  0  0  0
   11.4344  -18.0288   20.5129 O   0  0  0  0  0  0  0  0  0  0  0  0
   15.6276  -17.6506   22.8830 N   0  0  0  0  0  0  0  0  0  0  0  0
   14.8723  -16.5160   23.2679 C   0  0  0  0  0  0  0  0  0  0  0  0
   15.2125  -15.9122   24.3175 O   0  0  0  0  0  0  0  0  0  0  0  0
   13.7249  -16.0496   22.4733 C   0  0  0  0  0  0  0  0  0  0  0  0
   12.4768  -16.8427   22.8507 C   0  0  2  0  0  0  0  0  0  0  0  0
   11.3287  -16.3449   22.1280 N   0  0  0  0  0  0  0  0  0  0  0  0
   12.1984  -16.7434   24.2943 C   0  0  0  0  0  0  0  0  0  0  0  0
   12.8266  -17.5408   25.2460 O   0  0  0  0  0  0  0  0  0  0  0  0
   11.3590  -15.9081   24.7140 O   0  0  0  0  0  0  0  0  0  0  0  0
  2  1  1  1
  2  4  1  0
  3  2  1  0
  4  6  1  0
  4  5  1  6
  6  7  2  0
  8  6  1  0
  8  9  1  0
  9 10  1  1
 10 11  1  0
 11 15  1  0
 12 13  1  0
 12 11  2  0
 13 14  1  0
 14 15  2  0
 16 17  2  0
 16  9  1  0
 19 18  1  0
 19 20  2  0
 22 21  1  1
 21 19  1  0
 22 23  1  0
 23 16  1  0
 24 25  1  0
 24 22  1  0
 26 24  2  0
M  END
$$$$
