THN.pdb
     RDKit          3D

 26 26  0  0  1  0  0  0  0  0999 V2000
   10.0751  -20.6640   16.7065 C   0  0  0  0  0  0  0  0  0  0  0  0
   10.5458  -19.7128   17.7827 C   0  0  1  0  0  0  0  0  0  0  0  0
   11.8829  -19.9852   18.0237 O   0  0  0  0  0  0  0  0  0  0  0  0
   10.3311  -18.3166   17.2715 C   0  0  2  0  0  0  0  0  0  0  0  0
   11.0705  -18.1571   16.0300 N   0  0  0  0  0  0  0  0  0  0  0  0
   10.7138  -17.2705   18.2570 C   0  0  0  0  0  0  0  0  0  0  0  0
   11.8263  -16.7150   18.1193 O   0  0  0  0  0  0  0  0  0  0  0  0
    9.8951  -16.8792   19.3249 N   0  0  0  0  0  0  0  0  0  0  0  0
   10.2135  -15.9030   20.3110 C   0  0  1  0  0  0  0  0  0  0  0  0
    9.0181  -15.2394   20.9414 C   0  0  0  0  0  0  0  0  0  0  0  0
    8.3465  -14.3432   19.9631 C   0  0  0  0  0  0  0  0  0  0  0  0
    8.7711  -13.9868   18.6995 C   0  0  0  0  0  0  0  0  0  0  0  0
    7.8568  -13.1444   18.1383 N   0  0  0  0  0  0  0  0  0  0  0  0
    6.8786  -12.9815   19.0434 C   0  0  0  0  0  0  0  0  0  0  0  0
    7.1770  -13.7012   20.1333 N   0  0  0  0  0  0  0  0  0  0  0  0
   11.0288  -16.5369   21.3724 C   0  0  0  0  0  0  0  0  0  0  0  0
   11.1744  -17.7782   21.3661 O   0  0  0  0  0  0  0  0  0  0  0  0
   12.1482  -19.5739   25.2109 N   0  0  0  0  0  0  0  0  0  0  0  0
   11.9906  -18.1679   25.1436 C   0  0  0  0  0  0  0  0  0  0  0  0
   12.4080  -17.4830   26.1125 O   0  0  0  0  0  0  0  0  0  0  0  0
   11.3606  -17.5188   23.9829 C   0  0  0  0  0  0  0  0  0  0  0  0
   12.2164  -16.3433   23.5190 C   0  0  2  0  0  0  0  0  0  0  0  0
   11.6192  -15.7136   22.3636 N   0  0  0  0  0  0  0  0  0  0  0  0
   13.5763  -16.7829   23.1602 C   0  0  0  0  0  0  0  0  0  0  0  0
   13.9819  -17.0043   21.8477 O   0  0  0  0  0  0  0  0  0  0  0  0
   14.4305  -16.9745   24.0613 O   0  0  0  0  0  0  0  0  0  0  0  0
  2  1  1  6
  2  4  1  0
  3  2  1  0
  4  6  1  0
  4  5  1  6
  6  7  2  0
  8  6  1  0
  8  9  1  0
  9 10  1  1
 10 11  1  0
 11 15  1  0
 12 13  1  0
 12 11  2  0
 13 14  1  0
 14 15  2  0
 16 17  2  0
 16  9  1  0
 19 18  1  0
 19 20  2  0
 22 21  1  6
 21 19  1  0
 22 23  1  0
 23 16  1  0
 24 25  1  0
 24 22  1  0
 26 24  2  0
M  END
$$$$
