MCN.pdb
     RDKit          3D

 23 22  0  0  1  0  0  0  0  0999 V2000
    6.3902  -11.9454   26.6298 C   0  0  0  0  0  0  0  0  0  0  0  0
    7.7983  -12.4852   27.6361 S   0  0  0  0  0  0  0  0  0  0  0  0
    7.8643  -14.2780   27.6456 C   0  0  0  0  0  0  0  0  0  0  0  0
    8.3459  -14.8426   26.3025 C   0  0  0  0  0  0  0  0  0  0  0  0
    7.3593  -15.8873   25.8972 C   0  0  2  0  0  0  0  0  0  0  0  0
    7.2037  -16.8176   26.9987 N   0  0  0  0  0  0  0  0  0  0  0  0
    7.6797  -16.5822   24.6473 C   0  0  0  0  0  0  0  0  0  0  0  0
    7.0945  -17.6763   24.4028 O   0  0  0  0  0  0  0  0  0  0  0  0
    8.6016  -16.0958   23.7093 N   0  0  0  0  0  0  0  0  0  0  0  0
    8.3746  -16.0481   22.2640 C   0  0  1  0  0  0  0  0  0  0  0  0
    7.1605  -15.1785   21.9800 C   0  0  0  0  0  0  0  0  0  0  0  0
    6.2554  -15.6807   20.5132 S   0  0  0  0  0  0  0  0  0  0  0  0
    9.5373  -15.4435   21.5769 C   0  0  0  0  0  0  0  0  0  0  0  0
    9.4415  -14.2016   21.2831 O   0  0  0  0  0  0  0  0  0  0  0  0
   13.4727  -15.4405   24.9923 N   0  0  0  0  0  0  0  0  0  0  0  0
   13.0786  -16.5023   24.1334 C   0  0  0  0  0  0  0  0  0  0  0  0
   13.8421  -17.5151   24.0235 O   0  0  0  0  0  0  0  0  0  0  0  0
   11.8013  -16.4082   23.3963 C   0  0  0  0  0  0  0  0  0  0  0  0
   11.9647  -15.9688   21.9873 C   0  0  2  0  0  0  0  0  0  0  0  0
   10.7309  -16.0869   21.2170 N   0  0  0  0  0  0  0  0  0  0  0  0
   13.0297  -16.7232   21.3083 C   0  0  0  0  0  0  0  0  0  0  0  0
   12.7804  -17.8591   20.8369 O   0  0  0  0  0  0  0  0  0  0  0  0
   14.2980  -16.2241   21.1711 O   0  0  0  0  0  0  0  0  0  0  0  0
  1  2  1  0
  2  3  1  0
  4  5  1  0
  4  3  1  0
  5  7  1  0
  5  6  1  1
  7  9  1  0
  7  8  2  0
  9 10  1  0
 10 13  1  0
 10 11  1  1
 12 11  1  0
 13 20  1  0
 14 13  2  0
 16 17  2  0
 16 15  1  0
 18 16  1  0
 19 21  1  0
 19 18  1  1
 20 19  1  0
 21 22  2  0
 21 23  1  0
M  END
$$$$
