MCN.pdb
     RDKit          3D

 23 22  0  0  1  0  0  0  0  0999 V2000
    8.0383  -11.7962   26.7223 C   0  0  0  0  0  0  0  0  0  0  0  0
    6.5299  -12.6916   27.1805 S   0  0  0  0  0  0  0  0  0  0  0  0
    6.1243  -13.8659   25.8863 C   0  0  0  0  0  0  0  0  0  0  0  0
    6.0347  -15.3017   26.4203 C   0  0  0  0  0  0  0  0  0  0  0  0
    7.2902  -15.9940   26.0038 C   0  0  2  0  0  0  0  0  0  0  0  0
    8.4100  -15.3253   26.6378 N   0  0  0  0  0  0  0  0  0  0  0  0
    7.4792  -16.1034   24.5546 C   0  0  0  0  0  0  0  0  0  0  0  0
    6.7507  -16.9153   23.9148 O   0  0  0  0  0  0  0  0  0  0  0  0
    8.4261  -15.3539   23.8420 N   0  0  0  0  0  0  0  0  0  0  0  0
    8.6970  -15.4968   22.4105 C   0  0  1  0  0  0  0  0  0  0  0  0
    7.9230  -14.4325   21.6496 C   0  0  0  0  0  0  0  0  0  0  0  0
    6.1910  -14.8441   21.4180 S   0  0  0  0  0  0  0  0  0  0  0  0
   10.1367  -15.2968   22.1335 C   0  0  0  0  0  0  0  0  0  0  0  0
   10.6340  -14.1733   22.4919 O   0  0  0  0  0  0  0  0  0  0  0  0
   14.8359  -15.8491   23.9468 N   0  0  0  0  0  0  0  0  0  0  0  0
   13.9616  -16.9530   23.7525 C   0  0  0  0  0  0  0  0  0  0  0  0
   14.4135  -18.1296   23.9322 O   0  0  0  0  0  0  0  0  0  0  0  0
   12.5597  -16.7114   23.3527 C   0  0  0  0  0  0  0  0  0  0  0  0
   12.4080  -16.3606   21.9178 C   0  0  2  0  0  0  0  0  0  0  0  0
   11.0114  -16.2081   21.5230 N   0  0  0  0  0  0  0  0  0  0  0  0
   13.0471  -17.3608   21.0486 C   0  0  0  0  0  0  0  0  0  0  0  0
   12.5210  -18.4923   20.9153 O   0  0  0  0  0  0  0  0  0  0  0  0
   14.2090  -17.0979   20.3723 O   0  0  0  0  0  0  0  0  0  0  0  0
  1  2  1  0
  2  3  1  0
  4  5  1  0
  4  3  1  0
  5  7  1  0
  5  6  1  6
  7  9  1  0
  7  8  2  0
  9 10  1  0
 10 13  1  0
 10 11  1  6
 12 11  1  0
 13 20  1  0
 14 13  2  0
 16 17  2  0
 16 15  1  0
 18 16  1  0
 19 21  1  0
 19 18  1  1
 20 19  1  0
 21 22  2  0
 21 23  1  0
M  END
$$$$
