MCN.pdb
     RDKit          3D

 23 22  0  0  1  0  0  0  0  0999 V2000
    7.5976  -11.7837   20.3163 C   0  0  0  0  0  0  0  0  0  0  0  0
    7.2422  -13.3557   19.4859 S   0  0  0  0  0  0  0  0  0  0  0  0
    6.3232  -14.4181   20.6019 C   0  0  0  0  0  0  0  0  0  0  0  0
    7.2195  -15.4796   21.2534 C   0  0  0  0  0  0  0  0  0  0  0  0
    8.4651  -14.7813   21.6893 C   0  0  2  0  0  0  0  0  0  0  0  0
    9.5499  -15.2047   20.8250 N   0  0  0  0  0  0  0  0  0  0  0  0
    8.8044  -14.9572   23.1041 C   0  0  0  0  0  0  0  0  0  0  0  0
    9.7730  -15.7151   23.3984 O   0  0  0  0  0  0  0  0  0  0  0  0
    8.1101  -14.3281   24.1474 N   0  0  0  0  0  0  0  0  0  0  0  0
    8.4398  -14.4600   25.5675 C   0  0  1  0  0  0  0  0  0  0  0  0
    7.2538  -13.9972   26.3982 C   0  0  0  0  0  0  0  0  0  0  0  0
    6.8554  -12.2628   26.1617 S   0  0  0  0  0  0  0  0  0  0  0  0
    8.7083  -15.8748   25.9075 C   0  0  0  0  0  0  0  0  0  0  0  0
    7.9182  -16.7422   25.3964 O   0  0  0  0  0  0  0  0  0  0  0  0
   11.1404  -20.7234   25.3852 N   0  0  0  0  0  0  0  0  0  0  0  0
   11.5654  -19.5953   26.1386 C   0  0  0  0  0  0  0  0  0  0  0  0
   12.4296  -19.7647   27.0581 O   0  0  0  0  0  0  0  0  0  0  0  0
   11.0014  -18.2630   25.8379 C   0  0  0  0  0  0  0  0  0  0  0  0
   10.0409  -17.7841   26.8643 C   0  0  2  0  0  0  0  0  0  0  0  0
    9.7366  -16.3635   26.7272 N   0  0  0  0  0  0  0  0  0  0  0  0
   10.5357  -18.0409   28.2257 C   0  0  0  0  0  0  0  0  0  0  0  0
   10.8999  -17.0788   28.9443 O   0  0  0  0  0  0  0  0  0  0  0  0
   10.6137  -19.3071   28.7425 O   0  0  0  0  0  0  0  0  0  0  0  0
  1  2  1  0
  2  3  1  0
  4  5  1  0
  4  3  1  0
  5  7  1  0
  5  6  1  6
  7  9  1  0
  7  8  2  0
  9 10  1  0
 10 13  1  0
 10 11  1  1
 12 11  1  0
 13 20  1  0
 14 13  2  0
 16 17  2  0
 16 15  1  0
 18 16  1  0
 19 21  1  0
 19 18  1  6
 20 19  1  0
 21 22  2  0
 21 23  1  0
M  END
$$$$
