MCN.pdb
     RDKit          3D

 23 22  0  0  1  0  0  0  0  0999 V2000
    6.4134  -11.8867   25.5735 C   0  0  0  0  0  0  0  0  0  0  0  0
    6.1106  -13.3847   26.5487 S   0  0  0  0  0  0  0  0  0  0  0  0
    7.5563  -14.4440   26.4677 C   0  0  0  0  0  0  0  0  0  0  0  0
    7.2002  -15.9204   26.6871 C   0  0  0  0  0  0  0  0  0  0  0  0
    6.6646  -16.4305   25.3901 C   0  0  2  0  0  0  0  0  0  0  0  0
    6.0805  -17.7374   25.6219 N   0  0  0  0  0  0  0  0  0  0  0  0
    7.6373  -16.4625   24.2944 C   0  0  0  0  0  0  0  0  0  0  0  0
    8.6294  -17.2400   24.3962 O   0  0  0  0  0  0  0  0  0  0  0  0
    7.5237  -15.6752   23.1396 N   0  0  0  0  0  0  0  0  0  0  0  0
    8.4712  -15.6895   22.0238 C   0  0  1  0  0  0  0  0  0  0  0  0
    8.0201  -14.6851   20.9757 C   0  0  0  0  0  0  0  0  0  0  0  0
    6.6315  -13.6795   21.5079 S   0  0  0  0  0  0  0  0  0  0  0  0
    9.8197  -15.2910   22.4844 C   0  0  0  0  0  0  0  0  0  0  0  0
    9.8801  -14.2635   23.2450 O   0  0  0  0  0  0  0  0  0  0  0  0
   12.3011  -19.0353   25.5944 N   0  0  0  0  0  0  0  0  0  0  0  0
   12.3511  -17.6557   25.2552 C   0  0  0  0  0  0  0  0  0  0  0  0
   13.2467  -16.9266   25.7910 O   0  0  0  0  0  0  0  0  0  0  0  0
   11.3726  -17.1050   24.2946 C   0  0  0  0  0  0  0  0  0  0  0  0
   11.9995  -16.3323   23.1923 C   0  0  2  0  0  0  0  0  0  0  0  0
   11.0349  -15.9212   22.1773 N   0  0  0  0  0  0  0  0  0  0  0  0
   13.0805  -17.0942   22.5479 C   0  0  0  0  0  0  0  0  0  0  0  0
   14.1222  -17.3599   23.1952 O   0  0  0  0  0  0  0  0  0  0  0  0
   12.9892  -17.5287   21.2520 O   0  0  0  0  0  0  0  0  0  0  0  0
  1  2  1  0
  2  3  1  0
  4  5  1  0
  4  3  1  0
  5  7  1  0
  5  6  1  1
  7  9  1  0
  7  8  2  0
  9 10  1  0
 10 13  1  0
 10 11  1  6
 12 11  1  0
 13 20  1  0
 14 13  2  0
 16 17  2  0
 16 15  1  0
 18 16  1  0
 19 21  1  0
 19 18  1  1
 20 19  1  0
 21 22  2  0
 21 23  1  0
M  END
$$$$
