MCN.pdb
     RDKit          3D

 23 22  0  0  1  0  0  0  0  0999 V2000
    7.0965  -12.0442   19.7236 C   0  0  0  0  0  0  0  0  0  0  0  0
    8.2197  -13.4618   19.8483 S   0  0  0  0  0  0  0  0  0  0  0  0
    7.4023  -14.9214   19.2001 C   0  0  0  0  0  0  0  0  0  0  0  0
    8.3596  -16.1157   19.0914 C   0  0  0  0  0  0  0  0  0  0  0  0
    8.4176  -16.7444   20.4444 C   0  0  2  0  0  0  0  0  0  0  0  0
    7.0616  -16.8837   20.9394 N   0  0  0  0  0  0  0  0  0  0  0  0
    9.2735  -16.0480   21.4087 C   0  0  0  0  0  0  0  0  0  0  0  0
   10.3789  -15.5854   21.0044 O   0  0  0  0  0  0  0  0  0  0  0  0
    8.9293  -15.8686   22.7562 N   0  0  0  0  0  0  0  0  0  0  0  0
    9.8004  -15.2658   23.7665 C   0  0  1  0  0  0  0  0  0  0  0  0
    8.9776  -14.9424   25.0031 C   0  0  0  0  0  0  0  0  0  0  0  0
    7.9048  -16.2882   25.5136 S   0  0  0  0  0  0  0  0  0  0  0  0
   10.8651  -16.2133   24.1642 C   0  0  0  0  0  0  0  0  0  0  0  0
   10.4805  -17.3709   24.5515 O   0  0  0  0  0  0  0  0  0  0  0  0
   13.8432  -20.1945   22.8740 N   0  0  0  0  0  0  0  0  0  0  0  0
   14.0515  -18.8405   22.4945 C   0  0  0  0  0  0  0  0  0  0  0  0
   15.1497  -18.5251   21.9329 O   0  0  0  0  0  0  0  0  0  0  0  0
   12.9964  -17.8394   22.7555 C   0  0  0  0  0  0  0  0  0  0  0  0
   13.2376  -17.0343   23.9797 C   0  0  2  0  0  0  0  0  0  0  0  0
   12.2479  -15.9769   24.1588 N   0  0  0  0  0  0  0  0  0  0  0  0
   14.5827  -16.4385   23.9758 C   0  0  0  0  0  0  0  0  0  0  0  0
   15.5879  -17.1773   24.1115 O   0  0  0  0  0  0  0  0  0  0  0  0
   14.7789  -15.0909   23.8276 O   0  0  0  0  0  0  0  0  0  0  0  0
  1  2  1  0
  2  3  1  0
  4  5  1  0
  4  3  1  0
  5  7  1  0
  5  6  1  1
  7  9  1  0
  7  8  2  0
  9 10  1  0
 10 13  1  0
 10 11  1  1
 12 11  1  0
 13 20  1  0
 14 13  2  0
 16 17  2  0
 16 15  1  0
 18 16  1  0
 19 21  1  0
 19 18  1  6
 20 19  1  0
 21 22  2  0
 21 23  1  0
M  END
$$$$
