MCN.pdb
     RDKit          3D

 23 22  0  0  1  0  0  0  0  0999 V2000
    6.0184  -12.0019   27.0429 C   0  0  0  0  0  0  0  0  0  0  0  0
    7.1316  -12.1931   25.6248 S   0  0  0  0  0  0  0  0  0  0  0  0
    6.3566  -13.2564   24.4052 C   0  0  0  0  0  0  0  0  0  0  0  0
    7.1938  -13.3667   23.1239 C   0  0  0  0  0  0  0  0  0  0  0  0
    7.8438  -14.7106   23.1500 C   0  0  2  0  0  0  0  0  0  0  0  0
    6.8586  -15.6839   23.5801 N   0  0  0  0  0  0  0  0  0  0  0  0
    9.0639  -14.7868   23.9582 C   0  0  0  0  0  0  0  0  0  0  0  0
    9.9381  -13.8850   23.8104 O   0  0  0  0  0  0  0  0  0  0  0  0
    9.3111  -15.8083   24.8865 N   0  0  0  0  0  0  0  0  0  0  0  0
   10.5468  -15.9534   25.6577 C   0  0  1  0  0  0  0  0  0  0  0  0
   10.7615  -14.7014   26.4927 C   0  0  0  0  0  0  0  0  0  0  0  0
    9.5070  -14.4666   27.7552 S   0  0  0  0  0  0  0  0  0  0  0  0
   10.4481  -17.1046   26.5821 C   0  0  0  0  0  0  0  0  0  0  0  0
    9.2692  -17.5396   26.8247 O   0  0  0  0  0  0  0  0  0  0  0  0
   10.2295  -20.9056   25.5454 N   0  0  0  0  0  0  0  0  0  0  0  0
   11.2970  -20.3143   24.8164 C   0  0  0  0  0  0  0  0  0  0  0  0
   11.4423  -20.6203   23.5892 O   0  0  0  0  0  0  0  0  0  0  0  0
   12.2038  -19.3639   25.4931 C   0  0  0  0  0  0  0  0  0  0  0  0
   11.8731  -19.1513   26.9251 C   0  0  2  0  0  0  0  0  0  0  0  0
   11.5087  -17.7686   27.2165 N   0  0  0  0  0  0  0  0  0  0  0  0
   12.9869  -19.5498   27.7997 C   0  0  0  0  0  0  0  0  0  0  0  0
   12.8301  -20.4940   28.6112 O   0  0  0  0  0  0  0  0  0  0  0  0
   14.2025  -18.9196   27.7591 O   0  0  0  0  0  0  0  0  0  0  0  0
  1  2  1  0
  2  3  1  0
  4  5  1  0
  4  3  1  0
  5  7  1  0
  5  6  1  1
  7  9  1  0
  7  8  2  0
  9 10  1  0
 10 13  1  0
 10 11  1  1
 12 11  1  0
 13 20  1  0
 14 13  2  0
 16 17  2  0
 16 15  1  0
 18 16  1  0
 19 21  1  0
 19 18  1  6
 20 19  1  0
 21 22  2  0
 21 23  1  0
M  END
$$$$
