MCN.pdb
     RDKit          3D

 23 22  0  0  1  0  0  0  0  0999 V2000
    7.1720  -11.5655   19.8602 C   0  0  0  0  0  0  0  0  0  0  0  0
    8.6265  -12.6194   19.6139 S   0  0  0  0  0  0  0  0  0  0  0  0
    8.0904  -14.2607   19.1266 C   0  0  0  0  0  0  0  0  0  0  0  0
    7.2856  -14.9548   20.2335 C   0  0  0  0  0  0  0  0  0  0  0  0
    8.1611  -16.0268   20.7934 C   0  0  2  0  0  0  0  0  0  0  0  0
    7.4033  -17.2629   20.8240 N   0  0  0  0  0  0  0  0  0  0  0  0
    8.7452  -15.7212   22.1022 C   0  0  0  0  0  0  0  0  0  0  0  0
    9.8266  -15.0665   22.1379 O   0  0  0  0  0  0  0  0  0  0  0  0
    8.1663  -16.1178   23.3163 N   0  0  0  0  0  0  0  0  0  0  0  0
    8.7729  -15.9195   24.6337 C   0  0  1  0  0  0  0  0  0  0  0  0
    7.6730  -15.6927   25.6582 C   0  0  0  0  0  0  0  0  0  0  0  0
    6.4162  -16.9744   25.6457 S   0  0  0  0  0  0  0  0  0  0  0  0
    9.5319  -17.1227   25.0407 C   0  0  0  0  0  0  0  0  0  0  0  0
    9.0434  -18.2507   24.6843 O   0  0  0  0  0  0  0  0  0  0  0  0
   12.7185  -19.1584   23.3309 N   0  0  0  0  0  0  0  0  0  0  0  0
   13.0149  -18.1463   24.2842 C   0  0  0  0  0  0  0  0  0  0  0  0
   13.4372  -17.0196   23.8682 O   0  0  0  0  0  0  0  0  0  0  0  0
   12.8247  -18.4219   25.7234 C   0  0  0  0  0  0  0  0  0  0  0  0
   11.4013  -18.3961   26.1456 C   0  0  2  0  0  0  0  0  0  0  0  0
   10.7286  -17.1561   25.7721 N   0  0  0  0  0  0  0  0  0  0  0  0
   11.2664  -18.5983   27.5965 C   0  0  0  0  0  0  0  0  0  0  0  0
   11.7247  -19.6418   28.1218 O   0  0  0  0  0  0  0  0  0  0  0  0
   10.6514  -17.6778   28.4033 O   0  0  0  0  0  0  0  0  0  0  0  0
  1  2  1  0
  2  3  1  0
  4  5  1  0
  4  3  1  0
  5  7  1  0
  5  6  1  1
  7  9  1  0
  7  8  2  0
  9 10  1  0
 10 13  1  0
 10 11  1  1
 12 11  1  0
 13 20  1  0
 14 13  2  0
 16 17  2  0
 16 15  1  0
 18 16  1  0
 19 21  1  0
 19 18  1  1
 20 19  1  0
 21 22  2  0
 21 23  1  0
M  END
$$$$
