MCN.pdb
     RDKit          3D

 23 22  0  0  1  0  0  0  0  0999 V2000
    8.9448  -11.5306   19.3450 C   0  0  0  0  0  0  0  0  0  0  0  0
    7.4117  -12.4481   19.0374 S   0  0  0  0  0  0  0  0  0  0  0  0
    7.2003  -13.6896   20.3151 C   0  0  0  0  0  0  0  0  0  0  0  0
    8.3278  -14.7304   20.2973 C   0  0  0  0  0  0  0  0  0  0  0  0
    8.0075  -15.7288   21.3602 C   0  0  2  0  0  0  0  0  0  0  0  0
    6.5808  -15.9869   21.3265 N   0  0  0  0  0  0  0  0  0  0  0  0
    8.4556  -15.3585   22.7055 C   0  0  0  0  0  0  0  0  0  0  0  0
    9.1056  -14.2828   22.8458 O   0  0  0  0  0  0  0  0  0  0  0  0
    8.2005  -16.1359   23.8443 N   0  0  0  0  0  0  0  0  0  0  0  0
    8.8324  -15.9359   25.1494 C   0  0  1  0  0  0  0  0  0  0  0  0
    7.7794  -15.4814   26.1471 C   0  0  0  0  0  0  0  0  0  0  0  0
    6.7149  -14.1825   25.5129 S   0  0  0  0  0  0  0  0  0  0  0  0
    9.4101  -17.2048   25.6449 C   0  0  0  0  0  0  0  0  0  0  0  0
    8.6380  -18.2254   25.6297 O   0  0  0  0  0  0  0  0  0  0  0  0
   14.1429  -17.6153   24.7722 N   0  0  0  0  0  0  0  0  0  0  0  0
   13.1932  -18.6358   25.0500 C   0  0  0  0  0  0  0  0  0  0  0  0
   12.7965  -19.3782   24.0948 O   0  0  0  0  0  0  0  0  0  0  0  0
   12.6948  -18.8121   26.4299 C   0  0  0  0  0  0  0  0  0  0  0  0
   11.2174  -18.7111   26.5404 C   0  0  2  0  0  0  0  0  0  0  0  0
   10.7125  -17.4061   26.1260 N   0  0  0  0  0  0  0  0  0  0  0  0
   10.7597  -18.9911   27.9103 C   0  0  0  0  0  0  0  0  0  0  0  0
   10.2240  -18.0775   28.5834 O   0  0  0  0  0  0  0  0  0  0  0  0
   10.8993  -20.2274   28.4834 O   0  0  0  0  0  0  0  0  0  0  0  0
  1  2  1  0
  2  3  1  0
  4  5  1  0
  4  3  1  0
  5  7  1  0
  5  6  1  1
  7  9  1  0
  7  8  2  0
  9 10  1  0
 10 13  1  0
 10 11  1  1
 12 11  1  0
 13 20  1  0
 14 13  2  0
 16 17  2  0
 16 15  1  0
 18 16  1  0
 19 21  1  0
 19 18  1  1
 20 19  1  0
 21 22  2  0
 21 23  1  0
M  END
$$$$
