MCN.pdb
     RDKit          3D

 23 22  0  0  1  0  0  0  0  0999 V2000
    6.3775  -10.8916   27.6141 C   0  0  0  0  0  0  0  0  0  0  0  0
    6.5183  -11.9819   26.1726 S   0  0  0  0  0  0  0  0  0  0  0  0
    6.4751  -13.6904   26.7182 C   0  0  0  0  0  0  0  0  0  0  0  0
    6.4167  -14.6695   25.5381 C   0  0  0  0  0  0  0  0  0  0  0  0
    7.7757  -14.6785   24.9198 C   0  0  2  0  0  0  0  0  0  0  0  0
    8.1742  -13.3053   24.6779 N   0  0  0  0  0  0  0  0  0  0  0  0
    7.8934  -15.4943   23.7081 C   0  0  0  0  0  0  0  0  0  0  0  0
    7.5191  -16.7012   23.7594 O   0  0  0  0  0  0  0  0  0  0  0  0
    8.3997  -15.0049   22.4954 N   0  0  0  0  0  0  0  0  0  0  0  0
    8.6269  -15.8162   21.2983 C   0  0  1  0  0  0  0  0  0  0  0  0
    8.5912  -14.9162   20.0738 C   0  0  0  0  0  0  0  0  0  0  0  0
    7.8187  -13.3257   20.3844 S   0  0  0  0  0  0  0  0  0  0  0  0
    9.9594  -16.4572   21.3524 C   0  0  0  0  0  0  0  0  0  0  0  0
   10.9683  -15.6702   21.3804 O   0  0  0  0  0  0  0  0  0  0  0  0
   13.3691  -19.2966   20.0671 N   0  0  0  0  0  0  0  0  0  0  0  0
   13.6062  -18.0281   20.6633 C   0  0  0  0  0  0  0  0  0  0  0  0
   14.6502  -17.3809   20.3285 O   0  0  0  0  0  0  0  0  0  0  0  0
   12.6422  -17.4930   21.6471 C   0  0  0  0  0  0  0  0  0  0  0  0
   11.4824  -18.3898   21.8838 C   0  0  2  0  0  0  0  0  0  0  0  0
   10.2316  -17.8332   21.3785 N   0  0  0  0  0  0  0  0  0  0  0  0
   11.3270  -18.7029   23.3129 C   0  0  0  0  0  0  0  0  0  0  0  0
   10.8295  -17.8470   24.0841 O   0  0  0  0  0  0  0  0  0  0  0  0
   11.7106  -19.9089   23.8373 O   0  0  0  0  0  0  0  0  0  0  0  0
  1  2  1  0
  2  3  1  0
  4  5  1  0
  4  3  1  0
  5  7  1  0
  5  6  1  6
  7  9  1  0
  7  8  2  0
  9 10  1  0
 10 13  1  0
 10 11  1  6
 12 11  1  0
 13 20  1  0
 14 13  2  0
 16 17  2  0
 16 15  1  0
 18 16  1  0
 19 21  1  0
 19 18  1  1
 20 19  1  0
 21 22  2  0
 21 23  1  0
M  END
$$$$
