VVF.pdb
     RDKit          3D

 26 26  0  0  1  0  0  0  0  0999 V2000
   21.1605  -17.7187  -11.7267 C   0  0  0  0  0  0  0  0  0  0  0  0
   20.3461  -18.5853  -12.6577 C   0  0  1  0  0  0  0  0  0  0  0  0
   19.3312  -17.7465  -13.3539 C   0  0  0  0  0  0  0  0  0  0  0  0
   21.2285  -19.2854  -13.6379 C   0  0  2  0  0  0  0  0  0  0  0  0
   20.3496  -20.1733  -14.4307 N   0  0  0  0  0  0  0  0  0  0  0  0
   22.1867  -20.1548  -12.9386 C   0  0  0  0  0  0  0  0  0  0  0  0
   21.7349  -21.0583  -12.1627 O   0  0  0  0  0  0  0  0  0  0  0  0
   26.3062  -22.7414  -12.7831 C   0  0  0  0  0  0  0  0  0  0  0  0
   25.2433  -21.8491  -13.3449 C   0  0  1  0  0  0  0  0  0  0  0  0
   24.3310  -22.7160  -14.1924 C   0  0  0  0  0  0  0  0  0  0  0  0
   24.4467  -21.0804  -12.3159 C   0  0  2  0  0  0  0  0  0  0  0  0
   23.5970  -20.1013  -13.0352 N   0  0  0  0  0  0  0  0  0  0  0  0
   25.2807  -20.3614  -11.3275 C   0  0  0  0  0  0  0  0  0  0  0  0
   25.8730  -19.2691  -11.6371 O   0  0  0  0  0  0  0  0  0  0  0  0
   25.5008  -20.7816   -9.9948 N   0  0  0  0  0  0  0  0  0  0  0  0
   26.6425  -20.3316   -9.2004 C   0  0  1  0  0  0  0  0  0  0  0  0
   26.1286  -20.2801   -7.7666 C   0  0  0  0  0  0  0  0  0  0  0  0
   27.1505  -19.8945   -6.7900 C   0  0  0  0  0  0  0  0  0  0  0  0
   27.8553  -20.7956   -6.0160 C   0  0  0  0  0  0  0  0  0  0  0  0
   28.8171  -20.3996   -5.1008 C   0  0  0  0  0  0  0  0  0  0  0  0
   29.1051  -19.0656   -4.9321 C   0  0  0  0  0  0  0  0  0  0  0  0
   28.4208  -18.1428   -5.6876 C   0  0  0  0  0  0  0  0  0  0  0  0
   27.4653  -18.5454   -6.5961 C   0  0  0  0  0  0  0  0  0  0  0  0
   27.8105  -21.1934   -9.3718 C   0  0  0  0  0  0  0  0  0  0  0  0
   27.7241  -22.4410   -9.4285 O   0  0  0  0  0  0  0  0  0  0  0  0
   29.0663  -20.6244   -9.4774 O   0  0  0  0  0  0  0  0  0  0  0  0
  2  1  1  1
  2  3  1  0
  4  6  1  0
  4  2  1  0
  4  5  1  6
  6  7  2  0
  9  8  1  1
 10  9  1  0
 11  9  1  0
 11 12  1  6
 12  6  1  0
 13 14  2  0
 13 11  1  0
 15 13  1  0
 16 15  1  0
 16 17  1  1
 18 19  2  0
 18 17  1  0
 20 19  1  0
 21 20  2  0
 22 21  1  0
 22 23  2  0
 23 18  1  0
 24 16  1  0
 24 26  1  0
 25 24  2  0
M  END
$$$$
