VVF.pdb
     RDKit          3D

 26 26  0  0  1  0  0  0  0  0999 V2000
   29.0688  -18.3595  -13.8916 C   0  0  0  0  0  0  0  0  0  0  0  0
   28.1540  -17.7423  -14.9228 C   0  0  1  0  0  0  0  0  0  0  0  0
   28.9362  -17.4186  -16.1482 C   0  0  0  0  0  0  0  0  0  0  0  0
   27.0164  -18.6568  -15.2373 C   0  0  2  0  0  0  0  0  0  0  0  0
   26.1345  -17.9204  -16.1699 N   0  0  0  0  0  0  0  0  0  0  0  0
   26.2224  -18.9253  -14.0288 C   0  0  0  0  0  0  0  0  0  0  0  0
   25.4596  -18.0068  -13.5851 O   0  0  0  0  0  0  0  0  0  0  0  0
   24.9333  -22.6684  -12.6729 C   0  0  0  0  0  0  0  0  0  0  0  0
   24.3624  -21.3388  -12.2885 C   0  0  1  0  0  0  0  0  0  0  0  0
   23.5154  -21.5554  -11.0484 C   0  0  0  0  0  0  0  0  0  0  0  0
   25.3838  -20.2496  -12.0552 C   0  0  2  0  0  0  0  0  0  0  0  0
   26.2075  -20.1264  -13.2817 N   0  0  0  0  0  0  0  0  0  0  0  0
   26.2732  -20.5000  -10.8995 C   0  0  0  0  0  0  0  0  0  0  0  0
   27.1860  -21.3964  -10.9540 O   0  0  0  0  0  0  0  0  0  0  0  0
   26.2161  -19.8062   -9.6680 N   0  0  0  0  0  0  0  0  0  0  0  0
   26.8808  -20.2849   -8.4572 C   0  0  1  0  0  0  0  0  0  0  0  0
   27.5623  -19.0549   -7.8697 C   0  0  0  0  0  0  0  0  0  0  0  0
   28.2080  -19.3021   -6.5780 C   0  0  0  0  0  0  0  0  0  0  0  0
   29.3521  -20.0598   -6.4211 C   0  0  0  0  0  0  0  0  0  0  0  0
   29.9400  -20.2749   -5.1850 C   0  0  0  0  0  0  0  0  0  0  0  0
   29.3882  -19.7270   -4.0510 C   0  0  0  0  0  0  0  0  0  0  0  0
   28.2487  -18.9673   -4.1730 C   0  0  0  0  0  0  0  0  0  0  0  0
   27.6702  -18.7582   -5.4068 C   0  0  0  0  0  0  0  0  0  0  0  0
   25.9512  -20.9343   -7.5350 C   0  0  0  0  0  0  0  0  0  0  0  0
   24.7260  -20.6773   -7.5221 O   0  0  0  0  0  0  0  0  0  0  0  0
   26.4274  -21.8709   -6.6361 O   0  0  0  0  0  0  0  0  0  0  0  0
  2  1  1  1
  2  3  1  0
  4  6  1  0
  4  2  1  0
  4  5  1  6
  6  7  2  0
  9  8  1  1
 10  9  1  0
 11  9  1  0
 11 12  1  6
 12  6  1  0
 13 14  2  0
 13 11  1  0
 15 13  1  0
 16 15  1  0
 16 17  1  1
 18 19  2  0
 18 17  1  0
 20 19  1  0
 21 20  2  0
 22 21  1  0
 22 23  2  0
 23 18  1  0
 24 16  1  0
 24 26  1  0
 25 24  2  0
M  END
$$$$
