VVF.pdb
     RDKit          3D

 26 26  0  0  1  0  0  0  0  0999 V2000
   20.5686  -19.7023  -13.4763 C   0  0  0  0  0  0  0  0  0  0  0  0
   21.7317  -20.2099  -12.6573 C   0  0  1  0  0  0  0  0  0  0  0  0
   21.2367  -21.1835  -11.6447 C   0  0  0  0  0  0  0  0  0  0  0  0
   22.7686  -20.8284  -13.5358 C   0  0  2  0  0  0  0  0  0  0  0  0
   22.1808  -22.0830  -14.0555 N   0  0  0  0  0  0  0  0  0  0  0  0
   23.9499  -21.2106  -12.7475 C   0  0  0  0  0  0  0  0  0  0  0  0
   23.9614  -22.3521  -12.1825 O   0  0  0  0  0  0  0  0  0  0  0  0
   28.7359  -20.8812  -11.5044 C   0  0  0  0  0  0  0  0  0  0  0  0
   27.5191  -20.5379  -12.3063 C   0  0  1  0  0  0  0  0  0  0  0  0
   27.6656  -21.2143  -13.6566 C   0  0  0  0  0  0  0  0  0  0  0  0
   26.2041  -20.9105  -11.6611 C   0  0  2  0  0  0  0  0  0  0  0  0
   25.1120  -20.4308  -12.5414 N   0  0  0  0  0  0  0  0  0  0  0  0
   26.0185  -20.3417  -10.3078 C   0  0  0  0  0  0  0  0  0  0  0  0
   25.5465  -19.1619  -10.1492 O   0  0  0  0  0  0  0  0  0  0  0  0
   26.3248  -21.0099   -9.0992 N   0  0  0  0  0  0  0  0  0  0  0  0
   26.5566  -20.3039   -7.8402 C   0  0  1  0  0  0  0  0  0  0  0  0
   27.2751  -21.3112   -6.9505 C   0  0  0  0  0  0  0  0  0  0  0  0
   27.7681  -20.7391   -5.6950 C   0  0  0  0  0  0  0  0  0  0  0  0
   26.9992  -20.6043   -4.5555 C   0  0  0  0  0  0  0  0  0  0  0  0
   27.4949  -20.0594   -3.3820 C   0  0  0  0  0  0  0  0  0  0  0  0
   28.7983  -19.6264   -3.3160 C   0  0  0  0  0  0  0  0  0  0  0  0
   29.5904  -19.7465   -4.4335 C   0  0  0  0  0  0  0  0  0  0  0  0
   29.0892  -20.2899   -5.5971 C   0  0  0  0  0  0  0  0  0  0  0  0
   27.2989  -19.0595   -8.0316 C   0  0  0  0  0  0  0  0  0  0  0  0
   28.3263  -18.9913   -8.7437 O   0  0  0  0  0  0  0  0  0  0  0  0
   26.8626  -17.9043   -7.4094 O   0  0  0  0  0  0  0  0  0  0  0  0
  2  1  1  6
  2  3  1  0
  4  6  1  0
  4  2  1  0
  4  5  1  1
  6  7  2  0
  9  8  1  1
 10  9  1  0
 11  9  1  0
 11 12  1  6
 12  6  1  0
 13 14  2  0
 13 11  1  0
 15 13  1  0
 16 15  1  0
 16 17  1  1
 18 19  2  0
 18 17  1  0
 20 19  1  0
 21 20  2  0
 22 21  1  0
 22 23  2  0
 23 18  1  0
 24 16  1  0
 24 26  1  0
 25 24  2  0
M  END
$$$$
