VVF.pdb
     RDKit          3D

 26 26  0  0  1  0  0  0  0  0999 V2000
   22.3753  -24.9103  -14.6065 C   0  0  0  0  0  0  0  0  0  0  0  0
   23.5913  -24.2673  -13.9827 C   0  0  1  0  0  0  0  0  0  0  0  0
   24.6390  -25.3021  -13.7596 C   0  0  0  0  0  0  0  0  0  0  0  0
   24.1045  -23.1593  -14.8420 C   0  0  2  0  0  0  0  0  0  0  0  0
   24.6341  -23.7939  -16.0693 N   0  0  0  0  0  0  0  0  0  0  0  0
   25.2390  -22.4865  -14.1915 C   0  0  0  0  0  0  0  0  0  0  0  0
   26.3720  -23.0685  -14.1893 O   0  0  0  0  0  0  0  0  0  0  0  0
   27.8110  -18.6000  -12.6737 C   0  0  0  0  0  0  0  0  0  0  0  0
   26.6897  -19.3157  -13.3606 C   0  0  1  0  0  0  0  0  0  0  0  0
   27.0186  -19.3491  -14.8415 C   0  0  0  0  0  0  0  0  0  0  0  0
   26.4101  -20.7080  -12.8433 C   0  0  2  0  0  0  0  0  0  0  0  0
   25.2143  -21.2258  -13.5503 N   0  0  0  0  0  0  0  0  0  0  0  0
   26.1719  -20.7682  -11.3841 C   0  0  0  0  0  0  0  0  0  0  0  0
   24.9933  -20.6270  -10.9036 O   0  0  0  0  0  0  0  0  0  0  0  0
   27.1732  -20.9817  -10.4080 N   0  0  0  0  0  0  0  0  0  0  0  0
   26.9157  -20.8775   -8.9727 C   0  0  1  0  0  0  0  0  0  0  0  0
   28.2923  -20.7320   -8.3353 C   0  0  0  0  0  0  0  0  0  0  0  0
   28.2471  -20.3744   -6.9152 C   0  0  0  0  0  0  0  0  0  0  0  0
   28.1760  -21.2976   -5.8902 C   0  0  0  0  0  0  0  0  0  0  0  0
   28.1354  -20.9279   -4.5556 C   0  0  0  0  0  0  0  0  0  0  0  0
   28.1653  -19.5989   -4.2039 C   0  0  0  0  0  0  0  0  0  0  0  0
   28.2359  -18.6546   -5.2008 C   0  0  0  0  0  0  0  0  0  0  0  0
   28.2759  -19.0310   -6.5264 C   0  0  0  0  0  0  0  0  0  0  0  0
   26.0044  -19.7807   -8.6518 C   0  0  0  0  0  0  0  0  0  0  0  0
   26.1775  -18.6156   -9.0760 O   0  0  0  0  0  0  0  0  0  0  0  0
   24.9039  -20.0228   -7.8504 O   0  0  0  0  0  0  0  0  0  0  0  0
  2  1  1  6
  2  3  1  0
  4  6  1  0
  4  2  1  0
  4  5  1  6
  6  7  2  0
  9  8  1  1
 10  9  1  0
 11  9  1  0
 11 12  1  6
 12  6  1  0
 13 14  2  0
 13 11  1  0
 15 13  1  0
 16 15  1  0
 16 17  1  1
 18 19  2  0
 18 17  1  0
 20 19  1  0
 21 20  2  0
 22 21  1  0
 22 23  2  0
 23 18  1  0
 24 16  1  0
 24 26  1  0
 25 24  2  0
M  END
$$$$
