VVF.pdb
     RDKit          3D

 26 26  0  0  1  0  0  0  0  0999 V2000
   20.3570  -20.0896  -14.0365 C   0  0  0  0  0  0  0  0  0  0  0  0
   21.5350  -20.5898  -13.2344 C   0  0  1  0  0  0  0  0  0  0  0  0
   21.0991  -21.7182  -12.3656 C   0  0  0  0  0  0  0  0  0  0  0  0
   22.6514  -21.0049  -14.1348 C   0  0  2  0  0  0  0  0  0  0  0  0
   22.2229  -22.2677  -14.7761 N   0  0  0  0  0  0  0  0  0  0  0  0
   23.8561  -21.3170  -13.3511 C   0  0  0  0  0  0  0  0  0  0  0  0
   23.9866  -22.4923  -12.8777 O   0  0  0  0  0  0  0  0  0  0  0  0
   28.5970  -20.6221  -12.1431 C   0  0  0  0  0  0  0  0  0  0  0  0
   27.3377  -20.4077  -12.9240 C   0  0  1  0  0  0  0  0  0  0  0  0
   27.5146  -21.1029  -14.2610 C   0  0  0  0  0  0  0  0  0  0  0  0
   26.0749  -20.8778  -12.2395 C   0  0  2  0  0  0  0  0  0  0  0  0
   24.9205  -20.4332  -13.0566 N   0  0  0  0  0  0  0  0  0  0  0  0
   25.9154  -20.3666  -10.8601 C   0  0  0  0  0  0  0  0  0  0  0  0
   25.3580  -19.2352  -10.6382 O   0  0  0  0  0  0  0  0  0  0  0  0
   26.3386  -21.0424   -9.6917 N   0  0  0  0  0  0  0  0  0  0  0  0
   26.5251  -20.3665   -8.4089 C   0  0  1  0  0  0  0  0  0  0  0  0
   27.3224  -21.3485   -7.5588 C   0  0  0  0  0  0  0  0  0  0  0  0
   27.8202  -20.7721   -6.3072 C   0  0  0  0  0  0  0  0  0  0  0  0
   27.0852  -20.7153   -5.1391 C   0  0  0  0  0  0  0  0  0  0  0  0
   27.5846  -20.1641   -3.9702 C   0  0  0  0  0  0  0  0  0  0  0  0
   28.8574  -19.6448   -3.9381 C   0  0  0  0  0  0  0  0  0  0  0  0
   29.6154  -19.6858   -5.0845 C   0  0  0  0  0  0  0  0  0  0  0  0
   29.1108  -20.2361   -6.2434 C   0  0  0  0  0  0  0  0  0  0  0  0
   27.1714  -19.0641   -8.5580 C   0  0  0  0  0  0  0  0  0  0  0  0
   28.1803  -18.8918   -9.2791 O   0  0  0  0  0  0  0  0  0  0  0  0
   26.6611  -17.9701   -7.8837 O   0  0  0  0  0  0  0  0  0  0  0  0
  2  1  1  6
  2  3  1  0
  4  6  1  0
  4  2  1  0
  4  5  1  1
  6  7  2  0
  9  8  1  1
 10  9  1  0
 11  9  1  0
 11 12  1  6
 12  6  1  0
 13 14  2  0
 13 11  1  0
 15 13  1  0
 16 15  1  0
 16 17  1  1
 18 19  2  0
 18 17  1  0
 20 19  1  0
 21 20  2  0
 22 21  1  0
 22 23  2  0
 23 18  1  0
 24 16  1  0
 24 26  1  0
 25 24  2  0
M  END
$$$$
