VVF.pdb
     RDKit          3D

 26 26  0  0  1  0  0  0  0  0999 V2000
   24.9434  -13.0122  -15.2282 C   0  0  0  0  0  0  0  0  0  0  0  0
   24.5640  -14.2329  -16.0327 C   0  0  1  0  0  0  0  0  0  0  0  0
   25.3853  -15.3934  -15.5888 C   0  0  0  0  0  0  0  0  0  0  0  0
   23.1056  -14.5239  -15.8985 C   0  0  2  0  0  0  0  0  0  0  0  0
   22.8519  -15.7544  -16.6801 N   0  0  0  0  0  0  0  0  0  0  0  0
   22.3082  -13.4564  -16.5211 C   0  0  0  0  0  0  0  0  0  0  0  0
   22.5354  -13.1580  -17.7384 O   0  0  0  0  0  0  0  0  0  0  0  0
   18.4367  -12.6522  -15.8116 C   0  0  0  0  0  0  0  0  0  0  0  0
   19.1997  -12.0755  -16.9635 C   0  0  1  0  0  0  0  0  0  0  0  0
   18.3714  -10.9350  -17.5249 C   0  0  0  0  0  0  0  0  0  0  0  0
   20.5983  -11.6082  -16.6319 C   0  0  2  0  0  0  0  0  0  0  0  0
   21.2838  -12.7019  -15.9027 N   0  0  0  0  0  0  0  0  0  0  0  0
   20.6398  -10.3792  -15.8090 C   0  0  0  0  0  0  0  0  0  0  0  0
   20.4381  -10.4265  -14.5452 O   0  0  0  0  0  0  0  0  0  0  0  0
   20.8983   -9.0800  -16.3056 N   0  0  0  0  0  0  0  0  0  0  0  0
   20.8961   -7.8914  -15.4545 C   0  0  1  0  0  0  0  0  0  0  0  0
   21.8036   -6.8956  -16.1668 C   0  0  0  0  0  0  0  0  0  0  0  0
   21.7879   -5.5569  -15.5717 C   0  0  0  0  0  0  0  0  0  0  0  0
   21.1192   -4.4788  -16.1180 C   0  0  0  0  0  0  0  0  0  0  0  0
   21.1226   -3.2241  -15.5304 C   0  0  0  0  0  0  0  0  0  0  0  0
   21.8083   -3.0103  -14.3579 C   0  0  0  0  0  0  0  0  0  0  0  0
   22.4845   -4.0632  -13.7882 C   0  0  0  0  0  0  0  0  0  0  0  0
   22.4761   -5.3085  -14.3794 C   0  0  0  0  0  0  0  0  0  0  0  0
   19.5464   -7.3843  -15.2151 C   0  0  0  0  0  0  0  0  0  0  0  0
   18.6702   -7.3538  -16.1088 O   0  0  0  0  0  0  0  0  0  0  0  0
   19.2081   -6.9168  -13.9585 O   0  0  0  0  0  0  0  0  0  0  0  0
  2  1  1  1
  2  3  1  0
  4  6  1  0
  4  2  1  0
  4  5  1  6
  6  7  2  0
  9  8  1  1
 10  9  1  0
 11  9  1  0
 11 12  1  1
 12  6  1  0
 13 14  2  0
 13 11  1  0
 15 13  1  0
 16 15  1  0
 16 17  1  6
 18 19  2  0
 18 17  1  0
 20 19  1  0
 21 20  2  0
 22 21  1  0
 22 23  2  0
 23 18  1  0
 24 16  1  0
 24 26  1  0
 25 24  2  0
M  END
$$$$
