PDW.pdb
     RDKit          3D

 30 32  0  0  1  0  0  0  0  0999 V2000
   27.9731  -21.5659  -16.5591 N   0  0  0  0  0  0  0  0  0  0  0  0
   28.8667  -21.6603  -17.7233 C   0  0  0  0  0  0  0  0  0  0  0  0
   29.1886  -20.2531  -18.1225 C   0  0  0  0  0  0  0  0  0  0  0  0
   28.3356  -19.3967  -17.1779 C   0  0  0  0  0  0  0  0  0  0  0  0
   28.2435  -20.2776  -15.9726 C   0  0  1  0  0  0  0  0  0  0  0  0
   27.2019  -19.9175  -15.0101 C   0  0  0  0  0  0  0  0  0  0  0  0
   27.2909  -18.8004  -14.4060 O   0  0  0  0  0  0  0  0  0  0  0  0
   26.0818  -20.7274  -14.6918 N   0  0  0  0  0  0  0  0  0  0  0  0
   25.0225  -20.1957  -13.8010 C   0  0  1  0  0  0  0  0  0  0  0  0
   23.6914  -20.5228  -14.4330 C   0  0  0  0  0  0  0  0  0  0  0  0
   22.5983  -20.0947  -13.5439 C   0  0  0  0  0  0  0  0  0  0  0  0
   22.5186  -18.8661  -13.1692 O   0  0  0  0  0  0  0  0  0  0  0  0
   25.1940  -20.8025  -12.4502 C   0  0  0  0  0  0  0  0  0  0  0  0
   25.0793  -22.0311  -12.2777 O   0  0  0  0  0  0  0  0  0  0  0  0
   21.5978  -20.9009  -13.0360 O   0  0  0  0  0  0  0  0  0  0  0  0
   25.4951  -20.0093  -11.3041 N   0  0  0  0  0  0  0  0  0  0  0  0
   25.5841  -20.5196   -9.9550 C   0  0  1  0  0  0  0  0  0  0  0  0
   26.7325  -19.9106   -9.1902 C   0  0  0  0  0  0  0  0  0  0  0  0
   26.6939  -20.2731   -7.7565 C   0  0  0  0  0  0  0  0  0  0  0  0
   25.7967  -21.1453   -7.1800 C   0  0  0  0  0  0  0  0  0  0  0  0
   26.0820  -21.2153   -5.8704 N   0  0  0  0  0  0  0  0  0  0  0  0
   27.1344  -20.4106   -5.6075 C   0  0  0  0  0  0  0  0  0  0  0  0
   27.8194  -20.1186   -4.4356 C   0  0  0  0  0  0  0  0  0  0  0  0
   28.8787  -19.2430   -4.4497 C   0  0  0  0  0  0  0  0  0  0  0  0
   29.2629  -18.6535   -5.6266 C   0  0  0  0  0  0  0  0  0  0  0  0
   28.6188  -18.9088   -6.8103 C   0  0  0  0  0  0  0  0  0  0  0  0
   27.5446  -19.8001   -6.7807 C   0  0  0  0  0  0  0  0  0  0  0  0
   24.3002  -20.3839   -9.2386 C   0  0  0  0  0  0  0  0  0  0  0  0
   23.6143  -19.3552   -9.4018 O   0  0  0  0  0  0  0  0  0  0  0  0
   23.8577  -21.3729   -8.3989 O   0  0  0  0  0  0  0  0  0  0  0  0
  1  5  1  0
  2  1  1  0
  2  3  1  0
  3  4  1  0
  4  5  1  0
  5  6  1  1
  6  7  2  0
  8  9  1  0
  8  6  1  0
  9 13  1  0
  9 10  1  6
 11 15  1  0
 11 10  1  0
 12 11  2  0
 13 16  1  0
 13 14  2  0
 16 17  1  0
 17 28  1  0
 17 18  1  1
 19 18  1  0
 19 27  1  0
 20 19  2  0
 21 20  1  0
 21 22  1  0
 22 23  1  0
 22 27  2  0
 23 24  2  0
 24 25  1  0
 26 25  2  0
 27 26  1  0
 28 29  2  0
 28 30  1  0
M  END
$$$$
