PDW.pdb
     RDKit          3D

 30 32  0  0  1  0  0  0  0  0999 V2000
   28.3715  -22.7963  -16.7865 N   0  0  0  0  0  0  0  0  0  0  0  0
   29.0771  -23.2459  -17.9960 C   0  0  0  0  0  0  0  0  0  0  0  0
   29.5995  -22.0106  -18.6627 C   0  0  0  0  0  0  0  0  0  0  0  0
   29.0460  -20.8656  -17.8050 C   0  0  0  0  0  0  0  0  0  0  0  0
   28.9470  -21.5157  -16.4615 C   0  0  1  0  0  0  0  0  0  0  0  0
   28.1205  -20.8097  -15.4819 C   0  0  0  0  0  0  0  0  0  0  0  0
   28.5157  -19.6774  -15.0550 O   0  0  0  0  0  0  0  0  0  0  0  0
   26.8931  -21.2946  -14.9621 N   0  0  0  0  0  0  0  0  0  0  0  0
   26.1447  -20.4829  -13.9724 C   0  0  1  0  0  0  0  0  0  0  0  0
   24.8287  -20.0977  -14.6033 C   0  0  0  0  0  0  0  0  0  0  0  0
   24.0260  -19.3177  -13.6464 C   0  0  0  0  0  0  0  0  0  0  0  0
   24.6029  -18.7073  -12.6713 O   0  0  0  0  0  0  0  0  0  0  0  0
   25.9840  -21.2875  -12.7279 C   0  0  0  0  0  0  0  0  0  0  0  0
   25.7402  -22.5084  -12.7782 O   0  0  0  0  0  0  0  0  0  0  0  0
   22.6538  -19.1589  -13.6727 O   0  0  0  0  0  0  0  0  0  0  0  0
   26.1013  -20.6997  -11.4339 N   0  0  0  0  0  0  0  0  0  0  0  0
   25.9766  -21.4250  -10.1902 C   0  0  1  0  0  0  0  0  0  0  0  0
   27.2640  -21.4346   -9.4048 C   0  0  0  0  0  0  0  0  0  0  0  0
   27.2965  -20.3622   -8.3863 C   0  0  0  0  0  0  0  0  0  0  0  0
   26.4496  -19.2764   -8.3466 C   0  0  0  0  0  0  0  0  0  0  0  0
   26.7891  -18.5347   -7.2809 N   0  0  0  0  0  0  0  0  0  0  0  0
   27.8270  -19.1246   -6.6491 C   0  0  0  0  0  0  0  0  0  0  0  0
   28.5505  -18.7799   -5.5153 C   0  0  0  0  0  0  0  0  0  0  0  0
   29.5828  -19.5766   -5.0810 C   0  0  0  0  0  0  0  0  0  0  0  0
   29.9014  -20.7188   -5.7696 C   0  0  0  0  0  0  0  0  0  0  0  0
   29.2174  -21.1024   -6.8949 C   0  0  0  0  0  0  0  0  0  0  0  0
   28.1715  -20.2834   -7.3243 C   0  0  0  0  0  0  0  0  0  0  0  0
   24.8365  -20.9357   -9.3898 C   0  0  0  0  0  0  0  0  0  0  0  0
   24.3058  -19.8460   -9.6832 O   0  0  0  0  0  0  0  0  0  0  0  0
   24.3588  -21.6641   -8.3313 O   0  0  0  0  0  0  0  0  0  0  0  0
  1  5  1  0
  2  1  1  0
  2  3  1  0
  3  4  1  0
  4  5  1  0
  5  6  1  1
  6  7  2  0
  8  9  1  0
  8  6  1  0
  9 13  1  0
  9 10  1  6
 11 15  1  0
 11 10  1  0
 12 11  2  0
 13 16  1  0
 13 14  2  0
 16 17  1  0
 17 28  1  0
 17 18  1  1
 19 18  1  0
 19 27  1  0
 20 19  2  0
 21 20  1  0
 21 22  1  0
 22 23  1  0
 22 27  2  0
 23 24  2  0
 24 25  1  0
 26 25  2  0
 27 26  1  0
 28 29  2  0
 28 30  1  0
M  END
$$$$
