PDW.pdb
     RDKit          3D

 30 32  0  0  1  0  0  0  0  0999 V2000
   25.2418  -20.1345  -16.2721 N   0  0  0  0  0  0  0  0  0  0  0  0
   25.3902  -19.9725  -17.7263 C   0  0  0  0  0  0  0  0  0  0  0  0
   24.3801  -18.9473  -18.1411 C   0  0  0  0  0  0  0  0  0  0  0  0
   23.6086  -18.6452  -16.8502 C   0  0  0  0  0  0  0  0  0  0  0  0
   24.6500  -18.9050  -15.8085 C   0  0  1  0  0  0  0  0  0  0  0  0
   24.1477  -19.0545  -14.4423 C   0  0  0  0  0  0  0  0  0  0  0  0
   23.7907  -18.0106  -13.8071 O   0  0  0  0  0  0  0  0  0  0  0  0
   24.0242  -20.2909  -13.7583 N   0  0  0  0  0  0  0  0  0  0  0  0
   23.4487  -20.3183  -12.3921 C   0  0  1  0  0  0  0  0  0  0  0  0
   22.1815  -21.1363  -12.4495 C   0  0  0  0  0  0  0  0  0  0  0  0
   21.4156  -20.9579  -11.2045 C   0  0  0  0  0  0  0  0  0  0  0  0
   21.6986  -19.9860  -10.4097 O   0  0  0  0  0  0  0  0  0  0  0  0
   24.4682  -20.8827  -11.4624 C   0  0  0  0  0  0  0  0  0  0  0  0
   25.1170  -21.9034  -11.7621 O   0  0  0  0  0  0  0  0  0  0  0  0
   20.3764  -21.7555  -10.7655 O   0  0  0  0  0  0  0  0  0  0  0  0
   24.7442  -20.2836  -10.1982 N   0  0  0  0  0  0  0  0  0  0  0  0
   25.7797  -20.7240   -9.2914 C   0  0  1  0  0  0  0  0  0  0  0  0
   26.7963  -19.6436   -9.0197 C   0  0  0  0  0  0  0  0  0  0  0  0
   27.9324  -20.1451   -8.2160 C   0  0  0  0  0  0  0  0  0  0  0  0
   28.8847  -21.0387   -8.6549 C   0  0  0  0  0  0  0  0  0  0  0  0
   29.7447  -21.2449   -7.6455 N   0  0  0  0  0  0  0  0  0  0  0  0
   29.3592  -20.5051   -6.5832 C   0  0  0  0  0  0  0  0  0  0  0  0
   29.8870  -20.3524   -5.3081 C   0  0  0  0  0  0  0  0  0  0  0  0
   29.2812  -19.5164   -4.4009 C   0  0  0  0  0  0  0  0  0  0  0  0
   28.1492  -18.8282   -4.7551 C   0  0  0  0  0  0  0  0  0  0  0  0
   27.5891  -18.9450   -6.0016 C   0  0  0  0  0  0  0  0  0  0  0  0
   28.2152  -19.7977   -6.9126 C   0  0  0  0  0  0  0  0  0  0  0  0
   25.2103  -21.2819   -8.0486 C   0  0  0  0  0  0  0  0  0  0  0  0
   25.9392  -21.9478   -7.2867 O   0  0  0  0  0  0  0  0  0  0  0  0
   23.8938  -21.0765   -7.7265 O   0  0  0  0  0  0  0  0  0  0  0  0
  1  5  1  0
  2  1  1  0
  2  3  1  0
  3  4  1  0
  4  5  1  0
  5  6  1  1
  6  7  2  0
  8  9  1  0
  8  6  1  0
  9 13  1  0
  9 10  1  6
 11 15  1  0
 11 10  1  0
 12 11  2  0
 13 16  1  0
 13 14  2  0
 16 17  1  0
 17 28  1  0
 17 18  1  1
 19 18  1  0
 19 27  1  0
 20 19  2  0
 21 20  1  0
 21 22  1  0
 22 23  1  0
 22 27  2  0
 23 24  2  0
 24 25  1  0
 26 25  2  0
 27 26  1  0
 28 29  2  0
 28 30  1  0
M  END
$$$$
