PDW.pdb
     RDKit          3D

 30 32  0  0  1  0  0  0  0  0999 V2000
   28.1284  -21.1512  -16.1008 N   0  0  0  0  0  0  0  0  0  0  0  0
   29.0602  -21.0905  -17.2370 C   0  0  0  0  0  0  0  0  0  0  0  0
   29.3197  -19.6375  -17.4919 C   0  0  0  0  0  0  0  0  0  0  0  0
   28.3950  -18.9178  -16.5018 C   0  0  0  0  0  0  0  0  0  0  0  0
   28.3131  -19.9125  -15.3878 C   0  0  1  0  0  0  0  0  0  0  0  0
   27.2257  -19.6972  -14.4327 C   0  0  0  0  0  0  0  0  0  0  0  0
   27.2056  -18.6121  -13.7673 O   0  0  0  0  0  0  0  0  0  0  0  0
   26.1742  -20.6166  -14.1857 N   0  0  0  0  0  0  0  0  0  0  0  0
   25.0613  -20.2323  -13.2845 C   0  0  1  0  0  0  0  0  0  0  0  0
   23.7725  -20.6456  -13.9527 C   0  0  0  0  0  0  0  0  0  0  0  0
   22.6366  -20.3777  -13.0547 C   0  0  0  0  0  0  0  0  0  0  0  0
   22.5561  -19.2503  -12.4392 O   0  0  0  0  0  0  0  0  0  0  0  0
   25.2742  -20.8921  -11.9648 C   0  0  0  0  0  0  0  0  0  0  0  0
   25.5619  -22.1021  -11.8896 O   0  0  0  0  0  0  0  0  0  0  0  0
   21.5944  -21.2417  -12.7787 O   0  0  0  0  0  0  0  0  0  0  0  0
   25.1590  -20.1727  -10.7390 N   0  0  0  0  0  0  0  0  0  0  0  0
   25.4069  -20.7367   -9.4317 C   0  0  1  0  0  0  0  0  0  0  0  0
   26.6713  -20.1992   -8.8098 C   0  0  0  0  0  0  0  0  0  0  0  0
   26.8717  -20.7123   -7.4369 C   0  0  0  0  0  0  0  0  0  0  0  0
   26.4936  -21.9595   -6.9903 C   0  0  0  0  0  0  0  0  0  0  0  0
   26.8447  -22.0524   -5.6983 N   0  0  0  0  0  0  0  0  0  0  0  0
   27.4336  -20.8973   -5.3200 C   0  0  0  0  0  0  0  0  0  0  0  0
   27.9713  -20.4726   -4.1123 C   0  0  0  0  0  0  0  0  0  0  0  0
   28.5205  -19.2179   -3.9992 C   0  0  0  0  0  0  0  0  0  0  0  0
   28.5388  -18.3792   -5.0839 C   0  0  0  0  0  0  0  0  0  0  0  0
   28.0205  -18.7514   -6.2979 C   0  0  0  0  0  0  0  0  0  0  0  0
   27.4659  -20.0287   -6.3980 C   0  0  0  0  0  0  0  0  0  0  0  0
   24.2371  -20.5816   -8.5442 C   0  0  0  0  0  0  0  0  0  0  0  0
   23.3786  -19.7167   -8.8089 O   0  0  0  0  0  0  0  0  0  0  0  0
   24.0871  -21.3751   -7.4365 O   0  0  0  0  0  0  0  0  0  0  0  0
  1  5  1  0
  2  1  1  0
  2  3  1  0
  3  4  1  0
  4  5  1  0
  5  6  1  1
  6  7  2  0
  8  9  1  0
  8  6  1  0
  9 13  1  0
  9 10  1  6
 11 15  1  0
 11 10  1  0
 12 11  2  0
 13 16  1  0
 13 14  2  0
 16 17  1  0
 17 28  1  0
 17 18  1  1
 19 18  1  0
 19 27  1  0
 20 19  2  0
 21 20  1  0
 21 22  1  0
 22 23  1  0
 22 27  2  0
 23 24  2  0
 24 25  1  0
 26 25  2  0
 27 26  1  0
 28 29  2  0
 28 30  1  0
M  END
$$$$
