PDW.pdb
     RDKit          3D

 30 32  0  0  1  0  0  0  0  0999 V2000
   26.2487  -17.7648  -15.5969 N   0  0  0  0  0  0  0  0  0  0  0  0
   27.0932  -16.5855  -15.3545 C   0  0  0  0  0  0  0  0  0  0  0  0
   28.3481  -16.7963  -16.1446 C   0  0  0  0  0  0  0  0  0  0  0  0
   28.1788  -18.2001  -16.7394 C   0  0  0  0  0  0  0  0  0  0  0  0
   26.6912  -18.2993  -16.8600 C   0  0  1  0  0  0  0  0  0  0  0  0
   26.1666  -19.6500  -17.0636 C   0  0  0  0  0  0  0  0  0  0  0  0
   26.4498  -20.2565  -18.1464 O   0  0  0  0  0  0  0  0  0  0  0  0
   25.3545  -20.3492  -16.1344 N   0  0  0  0  0  0  0  0  0  0  0  0
   25.5080  -21.8164  -15.9857 C   0  0  1  0  0  0  0  0  0  0  0  0
   26.9589  -22.0919  -15.6738 C   0  0  0  0  0  0  0  0  0  0  0  0
   27.4757  -23.1306  -16.5807 C   0  0  0  0  0  0  0  0  0  0  0  0
   26.7018  -23.6534  -17.4662 O   0  0  0  0  0  0  0  0  0  0  0  0
   24.5806  -22.2813  -14.9151 C   0  0  0  0  0  0  0  0  0  0  0  0
   24.9796  -23.0204  -13.9948 O   0  0  0  0  0  0  0  0  0  0  0  0
   28.7606  -23.6383  -16.5904 O   0  0  0  0  0  0  0  0  0  0  0  0
   23.2058  -21.9031  -14.8971 N   0  0  0  0  0  0  0  0  0  0  0  0
   22.5884  -21.1078  -13.8604 C   0  0  1  0  0  0  0  0  0  0  0  0
   23.3624  -19.8455  -13.5737 C   0  0  0  0  0  0  0  0  0  0  0  0
   24.4060  -20.0598  -12.5475 C   0  0  0  0  0  0  0  0  0  0  0  0
   25.7600  -19.8977  -12.7433 C   0  0  0  0  0  0  0  0  0  0  0  0
   26.3751  -20.1813  -11.5847 N   0  0  0  0  0  0  0  0  0  0  0  0
   25.4447  -20.5175  -10.6652 C   0  0  0  0  0  0  0  0  0  0  0  0
   25.5395  -20.8926   -9.3318 C   0  0  0  0  0  0  0  0  0  0  0  0
   24.4073  -21.1884   -8.6110 C   0  0  0  0  0  0  0  0  0  0  0  0
   23.1762  -21.1130   -9.2101 C   0  0  0  0  0  0  0  0  0  0  0  0
   23.0296  -20.7477  -10.5240 C   0  0  0  0  0  0  0  0  0  0  0  0
   24.1884  -20.4502  -11.2437 C   0  0  0  0  0  0  0  0  0  0  0  0
   21.1678  -20.8374  -14.1587 C   0  0  0  0  0  0  0  0  0  0  0  0
   20.8136  -20.6621  -15.3415 O   0  0  0  0  0  0  0  0  0  0  0  0
   20.2392  -20.7766  -13.1522 O   0  0  0  0  0  0  0  0  0  0  0  0
  1  5  1  0
  2  1  1  0
  2  3  1  0
  3  4  1  0
  4  5  1  0
  5  6  1  1
  6  7  2  0
  8  9  1  0
  8  6  1  0
  9 13  1  0
  9 10  1  1
 11 15  1  0
 11 10  1  0
 12 11  2  0
 13 16  1  0
 13 14  2  0
 16 17  1  0
 17 28  1  0
 17 18  1  6
 19 18  1  0
 19 27  1  0
 20 19  2  0
 21 20  1  0
 21 22  1  0
 22 23  1  0
 22 27  2  0
 23 24  2  0
 24 25  1  0
 26 25  2  0
 27 26  1  0
 28 29  2  0
 28 30  1  0
M  END
$$$$
