PDW.pdb
     RDKit          3D

 30 32  0  0  1  0  0  0  0  0999 V2000
   18.7314   -6.0101  -18.7603 N   0  0  0  0  0  0  0  0  0  0  0  0
   18.6428   -6.0940  -20.2259 C   0  0  0  0  0  0  0  0  0  0  0  0
   19.5900   -7.1763  -20.6440 C   0  0  0  0  0  0  0  0  0  0  0  0
   20.2714   -7.5968  -19.3355 C   0  0  0  0  0  0  0  0  0  0  0  0
   19.2031   -7.3024  -18.3309 C   0  0  1  0  0  0  0  0  0  0  0  0
   19.6475   -7.2552  -16.9376 C   0  0  0  0  0  0  0  0  0  0  0  0
   20.0930   -8.3216  -16.4040 O   0  0  0  0  0  0  0  0  0  0  0  0
   19.6215   -6.0958  -16.1208 N   0  0  0  0  0  0  0  0  0  0  0  0
   20.1067   -6.1740  -14.7219 C   0  0  1  0  0  0  0  0  0  0  0  0
   21.2772   -5.2296  -14.5938 C   0  0  0  0  0  0  0  0  0  0  0  0
   21.7740   -5.2359  -13.2076 C   0  0  0  0  0  0  0  0  0  0  0  0
   21.7006   -4.1676  -12.4939 O   0  0  0  0  0  0  0  0  0  0  0  0
   18.9768   -5.8326  -13.8114 C   0  0  0  0  0  0  0  0  0  0  0  0
   18.2619   -4.8336  -14.0198 O   0  0  0  0  0  0  0  0  0  0  0  0
   22.3424   -6.3102  -12.5504 O   0  0  0  0  0  0  0  0  0  0  0  0
   18.6662   -6.6288  -12.6698 N   0  0  0  0  0  0  0  0  0  0  0  0
   17.6012   -6.3420  -11.7361 C   0  0  1  0  0  0  0  0  0  0  0  0
   16.6846   -7.5230  -11.5370 C   0  0  0  0  0  0  0  0  0  0  0  0
   15.8694   -7.3876  -10.3102 C   0  0  0  0  0  0  0  0  0  0  0  0
   16.1700   -6.5728   -9.2407 C   0  0  0  0  0  0  0  0  0  0  0  0
   15.1964   -6.7226   -8.3292 N   0  0  0  0  0  0  0  0  0  0  0  0
   14.2914   -7.6097   -8.7963 C   0  0  0  0  0  0  0  0  0  0  0  0
   13.1139   -8.1149   -8.2614 C   0  0  0  0  0  0  0  0  0  0  0  0
   12.3671   -9.0290   -8.9652 C   0  0  0  0  0  0  0  0  0  0  0  0
   12.7852   -9.4457  -10.2029 C   0  0  0  0  0  0  0  0  0  0  0  0
   13.9405   -8.9769  -10.7744 C   0  0  0  0  0  0  0  0  0  0  0  0
   14.6889   -8.0489  -10.0479 C   0  0  0  0  0  0  0  0  0  0  0  0
   18.1265   -5.8199  -10.4588 C   0  0  0  0  0  0  0  0  0  0  0  0
   17.3744   -5.1649   -9.7100 O   0  0  0  0  0  0  0  0  0  0  0  0
   19.4274   -6.0463  -10.0906 O   0  0  0  0  0  0  0  0  0  0  0  0
  1  5  1  0
  2  1  1  0
  2  3  1  0
  3  4  1  0
  4  5  1  0
  5  6  1  1
  6  7  2  0
  8  9  1  0
  8  6  1  0
  9 13  1  0
  9 10  1  6
 11 15  1  0
 11 10  1  0
 12 11  2  0
 13 16  1  0
 13 14  2  0
 16 17  1  0
 17 28  1  0
 17 18  1  1
 19 18  1  0
 19 27  1  0
 20 19  2  0
 21 20  1  0
 21 22  1  0
 22 23  1  0
 22 27  2  0
 23 24  2  0
 24 25  1  0
 26 25  2  0
 27 26  1  0
 28 29  2  0
 28 30  1  0
M  END
$$$$
