HNR.pdb
     RDKit          3D

 30 30  0  0  1  0  0  0  0  0999 V2000
   28.3827  -22.0845  -13.2683 N   0  0  0  0  0  0  0  0  0  0  0  0
   27.8207  -21.1892  -12.2950 C   0  0  1  0  0  0  0  0  0  0  0  0
   28.9051  -20.2756  -11.7741 C   0  0  0  0  0  0  0  0  0  0  0  0
   29.9822  -21.0313  -11.0865 C   0  0  0  0  0  0  0  0  0  0  0  0
   30.7544  -22.0002  -11.6583 C   0  0  0  0  0  0  0  0  0  0  0  0
   31.6055  -22.4405  -10.7264 N   0  0  0  0  0  0  0  0  0  0  0  0
   31.3542  -21.7476   -9.6009 C   0  0  0  0  0  0  0  0  0  0  0  0
   30.3559  -20.8682   -9.7902 N   0  0  0  0  0  0  0  0  0  0  0  0
   26.7634  -20.3248  -12.9010 C   0  0  0  0  0  0  0  0  0  0  0  0
   26.2167  -19.4602  -12.1995 O   0  0  0  0  0  0  0  0  0  0  0  0
   23.3736  -18.5185  -16.1534 N   0  0  0  0  0  0  0  0  0  0  0  0
   24.4417  -18.9558  -16.9792 C   0  0  0  0  0  0  0  0  0  0  0  0
   24.4481  -18.7165  -18.1960 O   0  0  0  0  0  0  0  0  0  0  0  0
   25.5654  -19.7128  -16.3579 C   0  0  0  0  0  0  0  0  0  0  0  0
   25.2974  -19.7400  -14.8687 C   0  0  2  0  0  0  0  0  0  0  0  0
   26.3791  -20.4776  -14.2555 N   0  0  0  0  0  0  0  0  0  0  0  0
   23.9752  -20.3473  -14.5591 C   0  0  0  0  0  0  0  0  0  0  0  0
   23.8305  -21.5752  -14.7663 O   0  0  0  0  0  0  0  0  0  0  0  0
   18.9761  -21.8821   -9.9142 N   0  0  0  0  0  0  0  0  0  0  0  0
   19.7845  -22.1418   -8.7606 C   0  0  0  0  0  0  0  0  0  0  0  0
   19.4718  -23.0532   -7.8868 N   0  0  0  0  0  0  0  0  0  0  0  0
   20.9789  -21.4067   -8.5137 N   0  0  0  0  0  0  0  0  0  0  0  0
   21.3411  -20.3201   -9.3701 C   0  0  0  0  0  0  0  0  0  0  0  0
   21.1222  -20.5160  -10.8091 C   0  0  0  0  0  0  0  0  0  0  0  0
   22.0216  -20.0188  -11.8333 C   0  0  0  0  0  0  0  0  0  0  0  0
   21.7784  -20.1870  -13.2834 C   0  0  2  0  0  0  0  0  0  0  0  0
   22.9023  -19.6005  -14.0502 N   0  0  0  0  0  0  0  0  0  0  0  0
   20.5308  -19.7814  -13.8765 C   0  0  0  0  0  0  0  0  0  0  0  0
   20.2807  -18.7691  -14.5438 O   0  0  0  0  0  0  0  0  0  0  0  0
   19.4170  -20.6351  -13.6900 O   0  0  0  0  0  0  0  0  0  0  0  0
  2  1  1  6
  2  3  1  0
  2  9  1  0
  4  5  2  0
  4  3  1  0
  6  5  1  0
  7  8  2  0
  7  6  1  0
  8  4  1  0
  9 10  2  0
 11 12  1  0
 12 13  2  0
 14 12  1  0
 15 14  1  6
 16  9  1  0
 16 15  1  0
 17 15  1  0
 17 18  2  0
 20 19  1  0
 20 22  1  0
 21 20  2  0
 22 23  1  0
 23 24  1  0
 24 25  1  0
 26 25  1  1
 26 28  1  0
 26 27  1  0
 27 17  1  0
 28 30  1  0
 29 28  2  0
M  END
$$$$
