HNR.pdb
     RDKit          3D

 30 30  0  0  1  0  0  0  0  0999 V2000
   18.7258  -15.6640  -16.8637 N   0  0  0  0  0  0  0  0  0  0  0  0
   18.8100  -14.7977  -15.7203 C   0  0  1  0  0  0  0  0  0  0  0  0
   19.9674  -15.2309  -14.8516 C   0  0  0  0  0  0  0  0  0  0  0  0
   19.7408  -16.5717  -14.2561 C   0  0  0  0  0  0  0  0  0  0  0  0
   20.4016  -17.7127  -14.6075 C   0  0  0  0  0  0  0  0  0  0  0  0
   19.9222  -18.7059  -13.8522 N   0  0  0  0  0  0  0  0  0  0  0  0
   18.9809  -18.1755  -13.0507 C   0  0  0  0  0  0  0  0  0  0  0  0
   18.8444  -16.8576  -13.2755 N   0  0  0  0  0  0  0  0  0  0  0  0
   19.0654  -13.3838  -16.1297 C   0  0  0  0  0  0  0  0  0  0  0  0
   19.8541  -13.1590  -17.0603 O   0  0  0  0  0  0  0  0  0  0  0  0
   16.8190  -11.2323  -17.7054 N   0  0  0  0  0  0  0  0  0  0  0  0
   16.3766  -10.4788  -16.5871 C   0  0  0  0  0  0  0  0  0  0  0  0
   15.2078  -10.0711  -16.5129 O   0  0  0  0  0  0  0  0  0  0  0  0
   17.3451  -10.1822  -15.4934 C   0  0  0  0  0  0  0  0  0  0  0  0
   18.6225  -10.9179  -15.8356 C   0  0  2  0  0  0  0  0  0  0  0  0
   18.4244  -12.3039  -15.4750 N   0  0  0  0  0  0  0  0  0  0  0  0
   19.7981  -10.3323  -15.1370 C   0  0  0  0  0  0  0  0  0  0  0  0
   19.8406  -10.4183  -13.8870 O   0  0  0  0  0  0  0  0  0  0  0  0
   28.2137  -10.8825  -16.9983 N   0  0  0  0  0  0  0  0  0  0  0  0
   27.7905  -11.5095  -15.7820 C   0  0  0  0  0  0  0  0  0  0  0  0
   28.5575  -12.3256  -15.1204 N   0  0  0  0  0  0  0  0  0  0  0  0
   26.4979  -11.2673  -15.2357 N   0  0  0  0  0  0  0  0  0  0  0  0
   25.5367  -10.5121  -15.9781 C   0  0  0  0  0  0  0  0  0  0  0  0
   24.2678  -10.2160  -15.3004 C   0  0  0  0  0  0  0  0  0  0  0  0
   23.2415   -9.3550  -15.8575 C   0  0  0  0  0  0  0  0  0  0  0  0
   21.9825   -9.0258  -15.1529 C   0  0  2  0  0  0  0  0  0  0  0  0
   20.8442   -9.6973  -15.8226 N   0  0  0  0  0  0  0  0  0  0  0  0
   21.6308   -7.6596  -14.8654 C   0  0  0  0  0  0  0  0  0  0  0  0
   20.8261   -6.9246  -15.4528 O   0  0  0  0  0  0  0  0  0  0  0  0
   22.2752   -7.0421  -13.7667 O   0  0  0  0  0  0  0  0  0  0  0  0
  2  1  1  6
  2  3  1  0
  2  9  1  0
  4  5  2  0
  4  3  1  0
  6  5  1  0
  7  8  2  0
  7  6  1  0
  8  4  1  0
  9 10  2  0
 11 12  1  0
 12 13  2  0
 14 12  1  0
 15 14  1  1
 16  9  1  0
 16 15  1  0
 17 15  1  0
 17 18  2  0
 20 19  1  0
 20 22  1  0
 21 20  2  0
 22 23  1  0
 23 24  1  0
 24 25  1  0
 26 25  1  6
 26 28  1  0
 26 27  1  0
 27 17  1  0
 28 30  1  0
 29 28  2  0
M  END
$$$$
