HNR.pdb
     RDKit          3D

 30 30  0  0  1  0  0  0  0  0999 V2000
   26.5160  -20.2848  -13.3671 N   0  0  0  0  0  0  0  0  0  0  0  0
   25.2359  -20.3012  -14.0198 C   0  0  1  0  0  0  0  0  0  0  0  0
   24.1835  -20.7652  -13.0404 C   0  0  0  0  0  0  0  0  0  0  0  0
   24.7837  -21.2533  -11.7733 C   0  0  0  0  0  0  0  0  0  0  0  0
   25.3937  -22.4620  -11.6038 C   0  0  0  0  0  0  0  0  0  0  0  0
   25.8026  -22.5334  -10.3332 N   0  0  0  0  0  0  0  0  0  0  0  0
   25.4457  -21.3815   -9.7367 C   0  0  0  0  0  0  0  0  0  0  0  0
   24.8137  -20.5684  -10.5999 N   0  0  0  0  0  0  0  0  0  0  0  0
   24.8447  -18.9344  -14.4793 C   0  0  0  0  0  0  0  0  0  0  0  0
   24.3444  -18.1449  -13.6639 O   0  0  0  0  0  0  0  0  0  0  0  0
   26.9008  -15.7664  -14.5954 N   0  0  0  0  0  0  0  0  0  0  0  0
   27.1211  -16.6912  -15.6490 C   0  0  0  0  0  0  0  0  0  0  0  0
   28.0723  -17.4861  -15.6134 O   0  0  0  0  0  0  0  0  0  0  0  0
   26.1849  -16.6936  -16.8090 C   0  0  0  0  0  0  0  0  0  0  0  0
   24.8486  -17.1732  -16.2852 C   0  0  2  0  0  0  0  0  0  0  0  0
   25.0354  -18.5304  -15.8232 N   0  0  0  0  0  0  0  0  0  0  0  0
   23.7882  -17.0893  -17.3252 C   0  0  0  0  0  0  0  0  0  0  0  0
   23.7340  -18.0021  -18.1828 O   0  0  0  0  0  0  0  0  0  0  0  0
   18.7557  -11.1826  -16.0929 N   0  0  0  0  0  0  0  0  0  0  0  0
   18.2479  -12.1946  -15.2157 C   0  0  0  0  0  0  0  0  0  0  0  0
   17.1637  -12.0252  -14.5173 N   0  0  0  0  0  0  0  0  0  0  0  0
   18.9129  -13.4448  -15.0651 N   0  0  0  0  0  0  0  0  0  0  0  0
   20.1333  -13.6960  -15.7673 C   0  0  0  0  0  0  0  0  0  0  0  0
   20.1653  -14.8887  -16.6238 C   0  0  0  0  0  0  0  0  0  0  0  0
   20.7871  -14.9198  -17.9343 C   0  0  0  0  0  0  0  0  0  0  0  0
   21.7525  -15.9599  -18.3543 C   0  0  2  0  0  0  0  0  0  0  0  0
   22.8616  -16.0373  -17.3751 N   0  0  0  0  0  0  0  0  0  0  0  0
   22.2906  -15.9743  -19.6896 C   0  0  0  0  0  0  0  0  0  0  0  0
   23.2522  -15.3426  -20.1463 O   0  0  0  0  0  0  0  0  0  0  0  0
   21.6561  -16.8159  -20.6347 O   0  0  0  0  0  0  0  0  0  0  0  0
  2  1  1  1
  2  3  1  0
  2  9  1  0
  4  5  2  0
  4  3  1  0
  6  5  1  0
  7  8  2  0
  7  6  1  0
  8  4  1  0
  9 10  2  0
 11 12  1  0
 12 13  2  0
 14 12  1  0
 15 14  1  6
 16  9  1  0
 16 15  1  0
 17 15  1  0
 17 18  2  0
 20 19  1  0
 20 22  1  0
 21 20  2  0
 22 23  1  0
 23 24  1  0
 24 25  1  0
 26 25  1  1
 26 28  1  0
 26 27  1  0
 27 17  1  0
 28 30  1  0
 29 28  2  0
M  END
$$$$
