HNR.pdb
     RDKit          3D

 30 30  0  0  1  0  0  0  0  0999 V2000
   28.5130  -21.0619  -15.6196 N   0  0  0  0  0  0  0  0  0  0  0  0
   27.6131  -20.1547  -14.9624 C   0  0  1  0  0  0  0  0  0  0  0  0
   26.9342  -19.2894  -15.9979 C   0  0  0  0  0  0  0  0  0  0  0  0
   27.8819  -18.3386  -16.6319 C   0  0  0  0  0  0  0  0  0  0  0  0
   28.2962  -17.1576  -16.0884 C   0  0  0  0  0  0  0  0  0  0  0  0
   29.1421  -16.5895  -16.9535 N   0  0  0  0  0  0  0  0  0  0  0  0
   29.2413  -17.4152  -18.0109 C   0  0  0  0  0  0  0  0  0  0  0  0
   28.4744  -18.5059  -17.8434 N   0  0  0  0  0  0  0  0  0  0  0  0
   26.5419  -20.8922  -14.2270 C   0  0  0  0  0  0  0  0  0  0  0  0
   26.1719  -21.9977  -14.6505 O   0  0  0  0  0  0  0  0  0  0  0  0
   26.8695  -21.8143  -10.6932 N   0  0  0  0  0  0  0  0  0  0  0  0
   26.0022  -20.8442  -10.1270 C   0  0  0  0  0  0  0  0  0  0  0  0
   26.1827  -20.4196   -8.9759 O   0  0  0  0  0  0  0  0  0  0  0  0
   24.8618  -20.3382  -10.9427 C   0  0  0  0  0  0  0  0  0  0  0  0
   24.9430  -21.0392  -12.2814 C   0  0  2  0  0  0  0  0  0  0  0  0
   25.9469  -20.3507  -13.0615 N   0  0  0  0  0  0  0  0  0  0  0  0
   23.6266  -21.0557  -12.9741 C   0  0  0  0  0  0  0  0  0  0  0  0
   23.1627  -19.9635  -13.3786 O   0  0  0  0  0  0  0  0  0  0  0  0
   20.3412  -27.4371  -16.9874 N   0  0  0  0  0  0  0  0  0  0  0  0
   20.8450  -27.5011  -15.6481 C   0  0  0  0  0  0  0  0  0  0  0  0
   21.5731  -28.4941  -15.2289 N   0  0  0  0  0  0  0  0  0  0  0  0
   20.5688  -26.4715  -14.7039 N   0  0  0  0  0  0  0  0  0  0  0  0
   19.5790  -25.4807  -14.9937 C   0  0  0  0  0  0  0  0  0  0  0  0
   19.9383  -24.0871  -14.7006 C   0  0  0  0  0  0  0  0  0  0  0  0
   21.2297  -23.6840  -14.1763 C   0  0  0  0  0  0  0  0  0  0  0  0
   21.5742  -22.2832  -13.8455 C   0  0  2  0  0  0  0  0  0  0  0  0
   22.8998  -22.2366  -13.1857 N   0  0  0  0  0  0  0  0  0  0  0  0
   20.6514  -21.4443  -13.1261 C   0  0  0  0  0  0  0  0  0  0  0  0
   20.4525  -21.3764  -11.9061 O   0  0  0  0  0  0  0  0  0  0  0  0
   19.8459  -20.5646  -13.8885 O   0  0  0  0  0  0  0  0  0  0  0  0
  2  1  1  6
  2  3  1  0
  2  9  1  0
  4  5  2  0
  4  3  1  0
  6  5  1  0
  7  8  2  0
  7  6  1  0
  8  4  1  0
  9 10  2  0
 11 12  1  0
 12 13  2  0
 14 12  1  0
 15 14  1  1
 16  9  1  0
 16 15  1  0
 17 15  1  0
 17 18  2  0
 20 19  1  0
 20 22  1  0
 21 20  2  0
 22 23  1  0
 23 24  1  0
 24 25  1  0
 26 25  1  1
 26 28  1  0
 26 27  1  0
 27 17  1  0
 28 30  1  0
 29 28  2  0
M  END
$$$$
