HNR.pdb
     RDKit          3D

 30 30  0  0  1  0  0  0  0  0999 V2000
   15.7856  -25.8463  -12.8214 N   0  0  0  0  0  0  0  0  0  0  0  0
   16.9409  -25.0510  -12.5091 C   0  0  1  0  0  0  0  0  0  0  0  0
   18.1585  -25.9432  -12.4505 C   0  0  0  0  0  0  0  0  0  0  0  0
   18.1330  -26.8370  -11.2655 C   0  0  0  0  0  0  0  0  0  0  0  0
   17.6240  -28.1029  -11.2431 C   0  0  0  0  0  0  0  0  0  0  0  0
   17.7838  -28.5805  -10.0049 N   0  0  0  0  0  0  0  0  0  0  0  0
   18.3830  -27.6168   -9.2825 C   0  0  0  0  0  0  0  0  0  0  0  0
   18.6125  -26.5256  -10.0326 N   0  0  0  0  0  0  0  0  0  0  0  0
   17.1924  -24.0234  -13.5641 C   0  0  0  0  0  0  0  0  0  0  0  0
   17.1039  -24.3507  -14.7572 O   0  0  0  0  0  0  0  0  0  0  0  0
   15.1966  -21.6671  -14.8436 N   0  0  0  0  0  0  0  0  0  0  0  0
   15.5866  -20.5604  -14.0456 C   0  0  0  0  0  0  0  0  0  0  0  0
   14.7533  -19.7297  -13.6537 O   0  0  0  0  0  0  0  0  0  0  0  0
   17.0242  -20.4093  -13.6819 C   0  0  0  0  0  0  0  0  0  0  0  0
   17.7329  -21.6425  -14.1986 C   0  0  2  0  0  0  0  0  0  0  0  0
   17.5281  -22.6903  -13.2237 N   0  0  0  0  0  0  0  0  0  0  0  0
   19.1796  -21.3874  -14.4333 C   0  0  0  0  0  0  0  0  0  0  0  0
   19.9232  -21.2613  -13.4319 O   0  0  0  0  0  0  0  0  0  0  0  0
   26.5720  -23.8383  -17.6145 N   0  0  0  0  0  0  0  0  0  0  0  0
   25.6304  -24.6621  -16.9171 C   0  0  0  0  0  0  0  0  0  0  0  0
   26.0051  -25.6125  -16.1119 N   0  0  0  0  0  0  0  0  0  0  0  0
   24.2272  -24.4781  -17.0749 N   0  0  0  0  0  0  0  0  0  0  0  0
   23.7308  -23.3741  -17.8366 C   0  0  0  0  0  0  0  0  0  0  0  0
   23.1532  -22.2579  -17.0767 C   0  0  0  0  0  0  0  0  0  0  0  0
   21.7561  -22.1858  -16.6923 C   0  0  0  0  0  0  0  0  0  0  0  0
   21.1631  -21.0276  -15.9872 C   0  0  2  0  0  0  0  0  0  0  0  0
   19.7289  -21.2854  -15.7200 N   0  0  0  0  0  0  0  0  0  0  0  0
   21.3225  -19.6904  -16.4966 C   0  0  0  0  0  0  0  0  0  0  0  0
   20.5011  -18.9847  -17.0964 O   0  0  0  0  0  0  0  0  0  0  0  0
   22.5789  -19.0682  -16.3013 O   0  0  0  0  0  0  0  0  0  0  0  0
  2  1  1  6
  2  3  1  0
  2  9  1  0
  4  5  2  0
  4  3  1  0
  6  5  1  0
  7  8  2  0
  7  6  1  0
  8  4  1  0
  9 10  2  0
 11 12  1  0
 12 13  2  0
 14 12  1  0
 15 14  1  1
 16  9  1  0
 16 15  1  0
 17 15  1  0
 17 18  2  0
 20 19  1  0
 20 22  1  0
 21 20  2  0
 22 23  1  0
 23 24  1  0
 24 25  1  0
 26 25  1  6
 26 28  1  0
 26 27  1  0
 27 17  1  0
 28 30  1  0
 29 28  2  0
M  END
$$$$
