HNR.pdb
     RDKit          3D

 30 30  0  0  1  0  0  0  0  0999 V2000
   21.3278  -15.3483  -17.3899 N   0  0  0  0  0  0  0  0  0  0  0  0
   21.3517  -13.9453  -17.6999 C   0  0  1  0  0  0  0  0  0  0  0  0
   20.0616  -13.3109  -17.2360 C   0  0  0  0  0  0  0  0  0  0  0  0
   18.9005  -13.7653  -18.0419 C   0  0  0  0  0  0  0  0  0  0  0  0
   18.0608  -14.7879  -17.7086 C   0  0  0  0  0  0  0  0  0  0  0  0
   17.1461  -14.8917  -18.6777 N   0  0  0  0  0  0  0  0  0  0  0  0
   17.4259  -13.9433  -19.5899 C   0  0  0  0  0  0  0  0  0  0  0  0
   18.5050  -13.2296  -19.2266 N   0  0  0  0  0  0  0  0  0  0  0  0
   22.4688  -13.2527  -16.9896 C   0  0  0  0  0  0  0  0  0  0  0  0
   23.3342  -13.9339  -16.4191 O   0  0  0  0  0  0  0  0  0  0  0  0
   25.8436   -9.8712  -15.6276 N   0  0  0  0  0  0  0  0  0  0  0  0
   26.0918  -10.9888  -16.4661 C   0  0  0  0  0  0  0  0  0  0  0  0
   27.2499  -11.3389  -16.7383 O   0  0  0  0  0  0  0  0  0  0  0  0
   24.9309  -11.7424  -17.0195 C   0  0  0  0  0  0  0  0  0  0  0  0
   23.6869  -11.1165  -16.4272 C   0  0  2  0  0  0  0  0  0  0  0  0
   22.5531  -11.8394  -16.9586 N   0  0  0  0  0  0  0  0  0  0  0  0
   23.6032   -9.6633  -16.7340 C   0  0  0  0  0  0  0  0  0  0  0  0
   23.6326   -9.3152  -17.9380 O   0  0  0  0  0  0  0  0  0  0  0  0
   17.9014   -8.6991  -12.3801 N   0  0  0  0  0  0  0  0  0  0  0  0
   17.5568   -8.5948  -13.7665 C   0  0  0  0  0  0  0  0  0  0  0  0
   16.3848   -8.9357  -14.2162 N   0  0  0  0  0  0  0  0  0  0  0  0
   18.4900   -8.1094  -14.7263 N   0  0  0  0  0  0  0  0  0  0  0  0
   19.7840   -7.6674  -14.3072 C   0  0  0  0  0  0  0  0  0  0  0  0
   20.6837   -7.1768  -15.3592 C   0  0  0  0  0  0  0  0  0  0  0  0
   22.0714   -6.8217  -15.1281 C   0  0  0  0  0  0  0  0  0  0  0  0
   23.1821   -7.2624  -16.0012 C   0  0  2  0  0  0  0  0  0  0  0  0
   23.4939   -8.6859  -15.7339 N   0  0  0  0  0  0  0  0  0  0  0  0
   24.4071   -6.5098  -16.0770 C   0  0  0  0  0  0  0  0  0  0  0  0
   25.5644   -6.8846  -15.8471 O   0  0  0  0  0  0  0  0  0  0  0  0
   24.3103   -5.1518  -16.4647 O   0  0  0  0  0  0  0  0  0  0  0  0
  2  1  1  1
  2  3  1  0
  2  9  1  0
  4  5  2  0
  4  3  1  0
  6  5  1  0
  7  8  2  0
  7  6  1  0
  8  4  1  0
  9 10  2  0
 11 12  1  0
 12 13  2  0
 14 12  1  0
 15 14  1  6
 16  9  1  0
 16 15  1  0
 17 15  1  0
 17 18  2  0
 20 19  1  0
 20 22  1  0
 21 20  2  0
 22 23  1  0
 23 24  1  0
 24 25  1  0
 26 25  1  1
 26 28  1  0
 26 27  1  0
 27 17  1  0
 28 30  1  0
 29 28  2  0
M  END
$$$$
