HNR.pdb
     RDKit          3D

 30 30  0  0  1  0  0  0  0  0999 V2000
   34.4444   -8.3680  -16.9230 N   0  0  0  0  0  0  0  0  0  0  0  0
   33.4135   -7.7754  -16.1163 C   0  0  1  0  0  0  0  0  0  0  0  0
   33.6711   -6.2923  -15.9896 C   0  0  0  0  0  0  0  0  0  0  0  0
   35.0040   -6.0107  -15.3996 C   0  0  0  0  0  0  0  0  0  0  0  0
   35.7991   -4.9485  -15.7182 C   0  0  0  0  0  0  0  0  0  0  0  0
   36.9102   -5.0402  -14.9808 N   0  0  0  0  0  0  0  0  0  0  0  0
   36.7924   -6.1450  -14.2224 C   0  0  0  0  0  0  0  0  0  0  0  0
   35.6251   -6.7679  -14.4575 N   0  0  0  0  0  0  0  0  0  0  0  0
   32.0694   -7.9414  -16.7472 C   0  0  0  0  0  0  0  0  0  0  0  0
   31.0804   -7.4282  -16.2023 O   0  0  0  0  0  0  0  0  0  0  0  0
   28.5345   -7.1458  -20.4266 N   0  0  0  0  0  0  0  0  0  0  0  0
   29.4248   -8.2346  -20.6159 C   0  0  0  0  0  0  0  0  0  0  0  0
   29.0954   -9.2190  -21.2944 O   0  0  0  0  0  0  0  0  0  0  0  0
   30.7730   -8.1774  -19.9827 C   0  0  0  0  0  0  0  0  0  0  0  0
   30.6415   -8.8338  -18.6255 C   0  0  2  0  0  0  0  0  0  0  0  0
   31.9095   -8.6715  -17.9502 N   0  0  0  0  0  0  0  0  0  0  0  0
   30.2626  -10.2676  -18.7427 C   0  0  0  0  0  0  0  0  0  0  0  0
   31.1777  -11.1025  -18.9354 O   0  0  0  0  0  0  0  0  0  0  0  0
   23.0566  -12.8295  -16.4613 N   0  0  0  0  0  0  0  0  0  0  0  0
   23.7751  -14.0593  -16.6127 C   0  0  0  0  0  0  0  0  0  0  0  0
   23.1987  -15.1526  -17.0184 N   0  0  0  0  0  0  0  0  0  0  0  0
   25.1666  -14.1437  -16.3224 N   0  0  0  0  0  0  0  0  0  0  0  0
   25.8905  -12.9715  -15.9383 C   0  0  0  0  0  0  0  0  0  0  0  0
   27.1586  -12.7237  -16.6363 C   0  0  0  0  0  0  0  0  0  0  0  0
   27.2446  -12.3298  -18.0301 C   0  0  0  0  0  0  0  0  0  0  0  0
   28.5257  -12.1283  -18.7429 C   0  0  2  0  0  0  0  0  0  0  0  0
   28.9341  -10.7075  -18.6456 N   0  0  0  0  0  0  0  0  0  0  0  0
   28.6987  -12.5846  -20.0974 C   0  0  0  0  0  0  0  0  0  0  0  0
   28.9222  -13.7308  -20.5083 O   0  0  0  0  0  0  0  0  0  0  0  0
   28.6063  -11.6148  -21.1245 O   0  0  0  0  0  0  0  0  0  0  0  0
  2  1  1  6
  2  3  1  0
  2  9  1  0
  4  5  2  0
  4  3  1  0
  6  5  1  0
  7  8  2  0
  7  6  1  0
  8  4  1  0
  9 10  2  0
 11 12  1  0
 12 13  2  0
 14 12  1  0
 15 14  1  6
 16  9  1  0
 16 15  1  0
 17 15  1  0
 17 18  2  0
 20 19  1  0
 20 22  1  0
 21 20  2  0
 22 23  1  0
 23 24  1  0
 24 25  1  0
 26 25  1  6
 26 28  1  0
 26 27  1  0
 27 17  1  0
 28 30  1  0
 29 28  2  0
M  END
$$$$
