HNR.pdb
     RDKit          3D

 30 30  0  0  1  0  0  0  0  0999 V2000
   28.1190  -25.6375  -17.1712 N   0  0  0  0  0  0  0  0  0  0  0  0
   26.6967  -25.5774  -17.3668 C   0  0  1  0  0  0  0  0  0  0  0  0
   26.0664  -26.8410  -16.8303 C   0  0  0  0  0  0  0  0  0  0  0  0
   26.3236  -28.0059  -17.7139 C   0  0  0  0  0  0  0  0  0  0  0  0
   25.8829  -28.1335  -18.9990 C   0  0  0  0  0  0  0  0  0  0  0  0
   26.3149  -29.3118  -19.4590 N   0  0  0  0  0  0  0  0  0  0  0  0
   27.0104  -29.8942  -18.4655 C   0  0  0  0  0  0  0  0  0  0  0  0
   27.0346  -29.1126  -17.3727 N   0  0  0  0  0  0  0  0  0  0  0  0
   26.0957  -24.4296  -16.6227 C   0  0  0  0  0  0  0  0  0  0  0  0
   26.6310  -24.0466  -15.5714 O   0  0  0  0  0  0  0  0  0  0  0  0
   26.8743  -21.0455  -17.8170 N   0  0  0  0  0  0  0  0  0  0  0  0
   25.8131  -20.8984  -16.8864 C   0  0  0  0  0  0  0  0  0  0  0  0
   25.9900  -20.3263  -15.8004 O   0  0  0  0  0  0  0  0  0  0  0  0
   24.4714  -21.4457  -17.2358 C   0  0  0  0  0  0  0  0  0  0  0  0
   24.2811  -22.6917  -16.3983 C   0  0  2  0  0  0  0  0  0  0  0  0
   24.9317  -23.7772  -17.0974 N   0  0  0  0  0  0  0  0  0  0  0  0
   22.8411  -22.9788  -16.1592 C   0  0  0  0  0  0  0  0  0  0  0  0
   22.1399  -23.3195  -17.1409 O   0  0  0  0  0  0  0  0  0  0  0  0
   18.0613  -24.2350   -9.8208 N   0  0  0  0  0  0  0  0  0  0  0  0
   17.0070  -24.6341  -10.7045 C   0  0  0  0  0  0  0  0  0  0  0  0
   15.7785  -24.7711  -10.2993 N   0  0  0  0  0  0  0  0  0  0  0  0
   17.2570  -24.9029  -12.0803 N   0  0  0  0  0  0  0  0  0  0  0  0
   18.5983  -24.9093  -12.5766 C   0  0  0  0  0  0  0  0  0  0  0  0
   19.2946  -23.6165  -12.6058 C   0  0  0  0  0  0  0  0  0  0  0  0
   20.6039  -23.4227  -13.2002 C   0  0  0  0  0  0  0  0  0  0  0  0
   20.8105  -23.0973  -14.6290 C   0  0  2  0  0  0  0  0  0  0  0  0
   22.2530  -22.8819  -14.8894 N   0  0  0  0  0  0  0  0  0  0  0  0
   20.0478  -22.0573  -15.2690 C   0  0  0  0  0  0  0  0  0  0  0  0
   20.2518  -20.8363  -15.2753 O   0  0  0  0  0  0  0  0  0  0  0  0
   18.9010  -22.4511  -15.9996 O   0  0  0  0  0  0  0  0  0  0  0  0
  2  1  1  1
  2  3  1  0
  2  9  1  0
  4  5  2  0
  4  3  1  0
  6  5  1  0
  7  8  2  0
  7  6  1  0
  8  4  1  0
  9 10  2  0
 11 12  1  0
 12 13  2  0
 14 12  1  0
 15 14  1  6
 16  9  1  0
 16 15  1  0
 17 15  1  0
 17 18  2  0
 20 19  1  0
 20 22  1  0
 21 20  2  0
 22 23  1  0
 23 24  1  0
 24 25  1  0
 26 25  1  1
 26 28  1  0
 26 27  1  0
 27 17  1  0
 28 30  1  0
 29 28  2  0
M  END
$$$$
