HNR.pdb
     RDKit          3D

 30 30  0  0  1  0  0  0  0  0999 V2000
   18.8889  -11.5804  -15.1938 N   0  0  0  0  0  0  0  0  0  0  0  0
   17.9261  -10.5260  -15.0319 C   0  0  1  0  0  0  0  0  0  0  0  0
   16.6261  -11.1111  -14.5325 C   0  0  0  0  0  0  0  0  0  0  0  0
   15.9518  -11.9288  -15.5721 C   0  0  0  0  0  0  0  0  0  0  0  0
   15.8957  -13.2920  -15.5897 C   0  0  0  0  0  0  0  0  0  0  0  0
   15.2065  -13.6539  -16.6763 N   0  0  0  0  0  0  0  0  0  0  0  0
   14.8475  -12.5241  -17.3123 C   0  0  0  0  0  0  0  0  0  0  0  0
   15.2929  -11.4397  -16.6553 N   0  0  0  0  0  0  0  0  0  0  0  0
   18.3826   -9.5267  -14.0194 C   0  0  0  0  0  0  0  0  0  0  0  0
   18.6197   -9.9062  -12.8626 O   0  0  0  0  0  0  0  0  0  0  0  0
   21.3092   -7.8367  -14.3453 N   0  0  0  0  0  0  0  0  0  0  0  0
   20.9020   -6.5261  -14.7064 C   0  0  0  0  0  0  0  0  0  0  0  0
   21.6217   -5.8051  -15.4135 O   0  0  0  0  0  0  0  0  0  0  0  0
   19.5855   -6.0241  -14.2196 C   0  0  0  0  0  0  0  0  0  0  0  0
   18.9643   -7.1470  -13.4176 C   0  0  2  0  0  0  0  0  0  0  0  0
   18.5471   -8.1617  -14.3592 N   0  0  0  0  0  0  0  0  0  0  0  0
   17.8257   -6.6664  -12.5894 C   0  0  0  0  0  0  0  0  0  0  0  0
   16.7311   -6.4554  -13.1628 O   0  0  0  0  0  0  0  0  0  0  0  0
   11.9834  -10.4061   -8.6665 N   0  0  0  0  0  0  0  0  0  0  0  0
   11.7633   -9.1077   -8.1031 C   0  0  0  0  0  0  0  0  0  0  0  0
   10.7957   -8.8708   -7.2666 N   0  0  0  0  0  0  0  0  0  0  0  0
   12.6007   -8.0051   -8.4363 N   0  0  0  0  0  0  0  0  0  0  0  0
   13.7551   -8.2047   -9.2566 C   0  0  0  0  0  0  0  0  0  0  0  0
   14.5390   -7.0085   -9.5906 C   0  0  0  0  0  0  0  0  0  0  0  0
   15.7173   -7.0309  -10.4369 C   0  0  0  0  0  0  0  0  0  0  0  0
   16.8065   -6.0333  -10.3446 C   0  0  2  0  0  0  0  0  0  0  0  0
   17.9371   -6.4459  -11.2086 N   0  0  0  0  0  0  0  0  0  0  0  0
   17.3120   -5.6056   -9.0661 C   0  0  0  0  0  0  0  0  0  0  0  0
   18.4417   -5.7639   -8.5852 O   0  0  0  0  0  0  0  0  0  0  0  0
   16.4205   -4.9053   -8.2184 O   0  0  0  0  0  0  0  0  0  0  0  0
  2  1  1  1
  2  3  1  0
  2  9  1  0
  4  5  2  0
  4  3  1  0
  6  5  1  0
  7  8  2  0
  7  6  1  0
  8  4  1  0
  9 10  2  0
 11 12  1  0
 12 13  2  0
 14 12  1  0
 15 14  1  6
 16  9  1  0
 16 15  1  0
 17 15  1  0
 17 18  2  0
 20 19  1  0
 20 22  1  0
 21 20  2  0
 22 23  1  0
 23 24  1  0
 24 25  1  0
 26 25  1  1
 26 28  1  0
 26 27  1  0
 27 17  1  0
 28 30  1  0
 29 28  2  0
M  END
$$$$
