HNR.pdb
     RDKit          3D

 30 30  0  0  1  0  0  0  0  0999 V2000
   18.3917  -25.3123  -11.3388 N   0  0  0  0  0  0  0  0  0  0  0  0
   18.3966  -24.4540  -10.1863 C   0  0  1  0  0  0  0  0  0  0  0  0
   17.5388  -23.2421  -10.4644 C   0  0  0  0  0  0  0  0  0  0  0  0
   18.0900  -22.4155  -11.5676 C   0  0  0  0  0  0  0  0  0  0  0  0
   17.5760  -22.3401  -12.8293 C   0  0  0  0  0  0  0  0  0  0  0  0
   18.3433  -21.4978  -13.5283 N   0  0  0  0  0  0  0  0  0  0  0  0
   19.3126  -21.0658  -12.7015 C   0  0  0  0  0  0  0  0  0  0  0  0
   19.1844  -21.6145  -11.4816 N   0  0  0  0  0  0  0  0  0  0  0  0
   17.8183  -25.1446   -8.9943 C   0  0  0  0  0  0  0  0  0  0  0  0
   16.9915  -26.0531   -9.1665 O   0  0  0  0  0  0  0  0  0  0  0  0
   17.8140  -27.5603   -4.4347 N   0  0  0  0  0  0  0  0  0  0  0  0
   18.3372  -26.2465   -4.3158 C   0  0  0  0  0  0  0  0  0  0  0  0
   18.3599  -25.6641   -3.2212 O   0  0  0  0  0  0  0  0  0  0  0  0
   18.8637  -25.5708   -5.5357 C   0  0  0  0  0  0  0  0  0  0  0  0
   17.6983  -25.4336   -6.4912 C   0  0  2  0  0  0  0  0  0  0  0  0
   18.1978  -24.7792   -7.6797 N   0  0  0  0  0  0  0  0  0  0  0  0
   16.5729  -24.6763   -5.8804 C   0  0  0  0  0  0  0  0  0  0  0  0
   16.7700  -23.4762   -5.5762 O   0  0  0  0  0  0  0  0  0  0  0  0
   13.2573  -30.5488   -0.8701 N   0  0  0  0  0  0  0  0  0  0  0  0
   12.7792  -30.4239   -2.2145 C   0  0  0  0  0  0  0  0  0  0  0  0
   12.2155  -31.4131   -2.8437 N   0  0  0  0  0  0  0  0  0  0  0  0
   12.9006  -29.2000   -2.9322 N   0  0  0  0  0  0  0  0  0  0  0  0
   13.1596  -27.9810   -2.2305 C   0  0  0  0  0  0  0  0  0  0  0  0
   13.2237  -26.7573   -3.0400 C   0  0  0  0  0  0  0  0  0  0  0  0
   14.4541  -26.2248   -3.5947 C   0  0  0  0  0  0  0  0  0  0  0  0
   14.5122  -24.9988   -4.4216 C   0  0  2  0  0  0  0  0  0  0  0  0
   15.3178  -25.2541   -5.6385 N   0  0  0  0  0  0  0  0  0  0  0  0
   14.8989  -23.7365   -3.8473 C   0  0  0  0  0  0  0  0  0  0  0  0
   16.0233  -23.2220   -3.7881 O   0  0  0  0  0  0  0  0  0  0  0  0
   13.8772  -22.9509   -3.2618 O   0  0  0  0  0  0  0  0  0  0  0  0
  2  1  1  6
  2  3  1  0
  2  9  1  0
  4  5  2  0
  4  3  1  0
  6  5  1  0
  7  8  2  0
  7  6  1  0
  8  4  1  0
  9 10  2  0
 11 12  1  0
 12 13  2  0
 14 12  1  0
 15 14  1  1
 16  9  1  0
 16 15  1  0
 17 15  1  0
 17 18  2  0
 20 19  1  0
 20 22  1  0
 21 20  2  0
 22 23  1  0
 23 24  1  0
 24 25  1  0
 26 25  1  1
 26 28  1  0
 26 27  1  0
 27 17  1  0
 28 30  1  0
 29 28  2  0
M  END
$$$$
