HNR.pdb
     RDKit          3D

 30 30  0  0  1  0  0  0  0  0999 V2000
   24.7119  -19.8511  -21.4011 N   0  0  0  0  0  0  0  0  0  0  0  0
   24.3145  -18.7022  -20.6349 C   0  0  1  0  0  0  0  0  0  0  0  0
   23.5206  -17.7665  -21.5160 C   0  0  0  0  0  0  0  0  0  0  0  0
   24.3563  -17.1781  -22.5927 C   0  0  0  0  0  0  0  0  0  0  0  0
   24.2497  -17.4684  -23.9217 C   0  0  0  0  0  0  0  0  0  0  0  0
   25.1673  -16.7429  -24.5685 N   0  0  0  0  0  0  0  0  0  0  0  0
   25.8244  -16.0195  -23.6440 C   0  0  0  0  0  0  0  0  0  0  0  0
   25.3471  -16.2656  -22.4121 N   0  0  0  0  0  0  0  0  0  0  0  0
   23.4344  -19.0913  -19.4920 C   0  0  0  0  0  0  0  0  0  0  0  0
   22.7825  -20.1440  -19.5648 O   0  0  0  0  0  0  0  0  0  0  0  0
   22.3032  -20.1588  -14.5596 N   0  0  0  0  0  0  0  0  0  0  0  0
   22.5057  -18.7736  -14.7919 C   0  0  0  0  0  0  0  0  0  0  0  0
   22.0032  -17.9202  -14.0455 O   0  0  0  0  0  0  0  0  0  0  0  0
   23.3383  -18.3554  -15.9555 C   0  0  0  0  0  0  0  0  0  0  0  0
   22.5088  -18.6115  -17.1950 C   0  0  2  0  0  0  0  0  0  0  0  0
   23.3345  -18.2810  -18.3349 N   0  0  0  0  0  0  0  0  0  0  0  0
   21.2473  -17.8229  -17.1850 C   0  0  0  0  0  0  0  0  0  0  0  0
   21.3272  -16.5859  -17.3720 O   0  0  0  0  0  0  0  0  0  0  0  0
   14.3267  -22.6865  -16.9176 N   0  0  0  0  0  0  0  0  0  0  0  0
   14.7591  -21.8308  -15.8534 C   0  0  0  0  0  0  0  0  0  0  0  0
   14.3532  -21.9906  -14.6280 N   0  0  0  0  0  0  0  0  0  0  0  0
   15.6612  -20.7545  -16.0897 N   0  0  0  0  0  0  0  0  0  0  0  0
   16.0553  -20.4305  -17.4258 C   0  0  0  0  0  0  0  0  0  0  0  0
   16.7983  -19.1765  -17.6062 C   0  0  0  0  0  0  0  0  0  0  0  0
   17.6089  -18.5670  -16.5687 C   0  0  0  0  0  0  0  0  0  0  0  0
   18.7308  -17.6431  -16.8479 C   0  0  2  0  0  0  0  0  0  0  0  0
   19.9912  -18.4113  -16.9763 N   0  0  0  0  0  0  0  0  0  0  0  0
   18.9579  -16.4844  -16.0241 C   0  0  0  0  0  0  0  0  0  0  0  0
   19.7578  -16.3401  -15.0903 O   0  0  0  0  0  0  0  0  0  0  0  0
   18.1759  -15.3354  -16.2923 O   0  0  0  0  0  0  0  0  0  0  0  0
  2  1  1  6
  2  3  1  0
  2  9  1  0
  4  5  2  0
  4  3  1  0
  6  5  1  0
  7  8  2  0
  7  6  1  0
  8  4  1  0
  9 10  2  0
 11 12  1  0
 12 13  2  0
 14 12  1  0
 15 14  1  1
 16  9  1  0
 16 15  1  0
 17 15  1  0
 17 18  2  0
 20 19  1  0
 20 22  1  0
 21 20  2  0
 22 23  1  0
 23 24  1  0
 24 25  1  0
 26 25  1  1
 26 28  1  0
 26 27  1  0
 27 17  1  0
 28 30  1  0
 29 28  2  0
M  END
$$$$
