FEY.pdb
     RDKit          3D

 33 34  0  0  1  0  0  0  0  0999 V2000
   24.8434   -8.5075  -19.1340 N   0  0  0  0  0  0  0  0  0  0  0  0
   23.4955   -8.0715  -19.3280 C   0  0  1  0  0  0  0  0  0  0  0  0
   22.7459   -8.9788  -20.3067 C   0  0  0  0  0  0  0  0  0  0  0  0
   23.3645   -8.8122  -21.6306 C   0  0  0  0  0  0  0  0  0  0  0  0
   23.1378   -7.6617  -22.3494 C   0  0  0  0  0  0  0  0  0  0  0  0
   23.7050   -7.4624  -23.6077 C   0  0  0  0  0  0  0  0  0  0  0  0
   24.5155   -8.4492  -24.1426 C   0  0  0  0  0  0  0  0  0  0  0  0
   24.7394   -9.5946  -23.4238 C   0  0  0  0  0  0  0  0  0  0  0  0
   24.1721   -9.7849  -22.1743 C   0  0  0  0  0  0  0  0  0  0  0  0
   22.7173   -8.0595  -18.0710 C   0  0  0  0  0  0  0  0  0  0  0  0
   22.8217   -9.0144  -17.2389 O   0  0  0  0  0  0  0  0  0  0  0  0
   21.8222   -7.0201  -17.7018 N   0  0  0  0  0  0  0  0  0  0  0  0
   21.0745   -7.0274  -16.4457 C   0  0  1  0  0  0  0  0  0  0  0  0
   20.5804   -5.6228  -16.2337 C   0  0  0  0  0  0  0  0  0  0  0  0
   21.5754   -4.7075  -15.5754 C   0  0  0  0  0  0  0  0  0  0  0  0
   21.7288   -5.0844  -14.1502 C   0  0  0  0  0  0  0  0  0  0  0  0
   22.7831   -5.6169  -13.7638 O   0  0  0  0  0  0  0  0  0  0  0  0
   19.9111   -7.9421  -16.5442 C   0  0  0  0  0  0  0  0  0  0  0  0
   19.1500   -7.9673  -17.5433 O   0  0  0  0  0  0  0  0  0  0  0  0
   20.7109   -4.8472  -13.2572 O   0  0  0  0  0  0  0  0  0  0  0  0
   14.1788  -14.5051  -15.8171 O   0  0  0  0  0  0  0  0  0  0  0  0
   15.3006  -13.6858  -15.7128 C   0  0  0  0  0  0  0  0  0  0  0  0
   16.1882  -13.8535  -14.6709 C   0  0  0  0  0  0  0  0  0  0  0  0
   17.3056  -13.0538  -14.5477 C   0  0  0  0  0  0  0  0  0  0  0  0
   17.6069  -12.0473  -15.4435 C   0  0  0  0  0  0  0  0  0  0  0  0
   18.7903  -11.1697  -15.3280 C   0  0  0  0  0  0  0  0  0  0  0  0
   18.4237   -9.7719  -15.6759 C   0  0  2  0  0  0  0  0  0  0  0  0
   19.5653   -8.8623  -15.5166 N   0  0  0  0  0  0  0  0  0  0  0  0
   17.3535   -9.2849  -14.7912 C   0  0  0  0  0  0  0  0  0  0  0  0
   17.5205   -8.8568  -13.6169 O   0  0  0  0  0  0  0  0  0  0  0  0
   16.6906  -11.8968  -16.4931 C   0  0  0  0  0  0  0  0  0  0  0  0
   15.5724  -12.6894  -16.6257 C   0  0  0  0  0  0  0  0  0  0  0  0
   16.0361   -9.2925  -15.2825 O   0  0  0  0  0  0  0  0  0  0  0  0
  2  1  1  1
  2  3  1  0
  3  4  1  0
  4  5  2  0
  5  6  1  0
  7  6  2  0
  8  7  1  0
  9  4  1  0
  9  8  2  0
 10 11  2  0
 10  2  1  0
 12 10  1  0
 13 18  1  0
 13 12  1  0
 13 14  1  6
 15 14  1  0
 16 15  1  0
 17 16  2  0
 18 28  1  0
 19 18  2  0
 20 16  1  0
 22 21  1  0
 23 22  2  0
 24 23  1  0
 25 24  2  0
 25 31  1  0
 26 25  1  0
 27 26  1  1
 28 27  1  0
 29 27  1  0
 30 29  2  0
 31 32  2  0
 32 22  1  0
 33 29  1  0
M  END
$$$$
