FEY.pdb
     RDKit          3D

 33 34  0  0  1  0  0  0  0  0999 V2000
   28.1571  -18.7330  -17.1556 N   0  0  0  0  0  0  0  0  0  0  0  0
   27.5898  -18.3729  -15.8934 C   0  0  1  0  0  0  0  0  0  0  0  0
   26.4205  -17.3993  -16.0591 C   0  0  0  0  0  0  0  0  0  0  0  0
   26.9713  -16.0356  -16.0414 C   0  0  0  0  0  0  0  0  0  0  0  0
   27.2152  -15.3832  -17.2275 C   0  0  0  0  0  0  0  0  0  0  0  0
   27.7360  -14.0898  -17.2564 C   0  0  0  0  0  0  0  0  0  0  0  0
   28.0128  -13.4507  -16.0599 C   0  0  0  0  0  0  0  0  0  0  0  0
   27.7687  -14.1036  -14.8797 C   0  0  0  0  0  0  0  0  0  0  0  0
   27.2511  -15.3885  -14.8595 C   0  0  0  0  0  0  0  0  0  0  0  0
   27.0735  -19.5419  -15.1499 C   0  0  0  0  0  0  0  0  0  0  0  0
   26.5112  -20.5008  -15.7660 O   0  0  0  0  0  0  0  0  0  0  0  0
   27.1591  -19.6862  -13.7394 N   0  0  0  0  0  0  0  0  0  0  0  0
   26.4432  -20.7277  -13.0047 C   0  0  1  0  0  0  0  0  0  0  0  0
   26.8400  -20.5826  -11.5612 C   0  0  0  0  0  0  0  0  0  0  0  0
   26.2437  -21.6167  -10.6466 C   0  0  0  0  0  0  0  0  0  0  0  0
   24.9749  -21.1034  -10.0781 C   0  0  0  0  0  0  0  0  0  0  0  0
   23.8972  -21.6322  -10.3996 O   0  0  0  0  0  0  0  0  0  0  0  0
   24.9784  -20.5308  -13.1281 C   0  0  0  0  0  0  0  0  0  0  0  0
   24.4094  -19.4552  -12.8163 O   0  0  0  0  0  0  0  0  0  0  0  0
   24.9868  -20.0468   -9.1986 O   0  0  0  0  0  0  0  0  0  0  0  0
   16.5380  -20.4115  -15.2169 O   0  0  0  0  0  0  0  0  0  0  0  0
   17.9244  -20.5430  -15.1821 C   0  0  0  0  0  0  0  0  0  0  0  0
   18.5050  -21.7923  -15.2427 C   0  0  0  0  0  0  0  0  0  0  0  0
   19.8756  -21.9462  -15.2097 C   0  0  0  0  0  0  0  0  0  0  0  0
   20.7456  -20.8784  -15.1149 C   0  0  0  0  0  0  0  0  0  0  0  0
   22.2161  -21.0166  -15.0662 C   0  0  0  0  0  0  0  0  0  0  0  0
   22.6542  -21.3127  -13.6771 C   0  0  2  0  0  0  0  0  0  0  0  0
   24.1027  -21.5430  -13.6088 N   0  0  0  0  0  0  0  0  0  0  0  0
   21.9966  -22.5310  -13.1785 C   0  0  0  0  0  0  0  0  0  0  0  0
   20.9709  -22.5545  -12.4453 O   0  0  0  0  0  0  0  0  0  0  0  0
   20.1319  -19.6199  -15.0550 C   0  0  0  0  0  0  0  0  0  0  0  0
   18.7653  -19.4548  -15.0873 C   0  0  0  0  0  0  0  0  0  0  0  0
   22.5457  -23.7734  -13.5416 O   0  0  0  0  0  0  0  0  0  0  0  0
  2  1  1  6
  2  3  1  0
  3  4  1  0
  4  5  2  0
  5  6  1  0
  7  6  2  0
  8  7  1  0
  9  4  1  0
  9  8  2  0
 10 11  2  0
 10  2  1  0
 12 10  1  0
 13 18  1  0
 13 12  1  0
 13 14  1  1
 15 14  1  0
 16 15  1  0
 17 16  2  0
 18 28  1  0
 19 18  2  0
 20 16  1  0
 22 21  1  0
 23 22  2  0
 24 23  1  0
 25 24  2  0
 25 31  1  0
 26 25  1  0
 27 26  1  6
 28 27  1  0
 29 27  1  0
 30 29  2  0
 31 32  2  0
 32 22  1  0
 33 29  1  0
M  END
$$$$
