FEY.pdb
     RDKit          3D

 33 34  0  0  1  0  0  0  0  0999 V2000
   28.6974  -20.4747   -8.4753 N   0  0  0  0  0  0  0  0  0  0  0  0
   27.2914  -20.7314   -8.4331 C   0  0  1  0  0  0  0  0  0  0  0  0
   26.6233  -20.0141   -7.2576 C   0  0  0  0  0  0  0  0  0  0  0  0
   27.6378  -19.8422   -6.2067 C   0  0  0  0  0  0  0  0  0  0  0  0
   28.0715  -20.9346   -5.4922 C   0  0  0  0  0  0  0  0  0  0  0  0
   29.0322  -20.8166   -4.4881 C   0  0  0  0  0  0  0  0  0  0  0  0
   29.5595  -19.5678   -4.2070 C   0  0  0  0  0  0  0  0  0  0  0  0
   29.1253  -18.4812   -4.9209 C   0  0  0  0  0  0  0  0  0  0  0  0
   28.1705  -18.6068   -5.9168 C   0  0  0  0  0  0  0  0  0  0  0  0
   26.5968  -20.2852   -9.6596 C   0  0  0  0  0  0  0  0  0  0  0  0
   26.4363  -19.0468   -9.8953 O   0  0  0  0  0  0  0  0  0  0  0  0
   26.0710  -21.1688  -10.6397 N   0  0  0  0  0  0  0  0  0  0  0  0
   25.4268  -20.6995  -11.8652 C   0  0  1  0  0  0  0  0  0  0  0  0
   26.1323  -21.3790  -13.0066 C   0  0  0  0  0  0  0  0  0  0  0  0
   25.5529  -21.0789  -14.3614 C   0  0  0  0  0  0  0  0  0  0  0  0
   26.2907  -21.8412  -15.3964 C   0  0  0  0  0  0  0  0  0  0  0  0
   25.9557  -21.7439  -16.5891 O   0  0  0  0  0  0  0  0  0  0  0  0
   23.9959  -21.0900  -11.8770 C   0  0  0  0  0  0  0  0  0  0  0  0
   23.5916  -22.1998  -11.4496 O   0  0  0  0  0  0  0  0  0  0  0  0
   27.3416  -22.6534  -15.0415 O   0  0  0  0  0  0  0  0  0  0  0  0
   15.3066  -21.6706  -11.8225 O   0  0  0  0  0  0  0  0  0  0  0  0
   16.6205  -21.2112  -11.7670 C   0  0  0  0  0  0  0  0  0  0  0  0
   17.0703  -20.2821  -12.6813 C   0  0  0  0  0  0  0  0  0  0  0  0
   18.3673  -19.8133  -12.6453 C   0  0  0  0  0  0  0  0  0  0  0  0
   19.2887  -20.2350  -11.7077 C   0  0  0  0  0  0  0  0  0  0  0  0
   20.6862  -19.7575  -11.6544 C   0  0  0  0  0  0  0  0  0  0  0  0
   21.5716  -20.6884  -12.4020 C   0  0  2  0  0  0  0  0  0  0  0  0
   22.9693  -20.2397  -12.3724 N   0  0  0  0  0  0  0  0  0  0  0  0
   21.1678  -20.7594  -13.8153 C   0  0  0  0  0  0  0  0  0  0  0  0
   21.5331  -19.9561  -14.7161 O   0  0  0  0  0  0  0  0  0  0  0  0
   18.8081  -21.1786  -10.7898 C   0  0  0  0  0  0  0  0  0  0  0  0
   17.5158  -21.6531  -10.8166 C   0  0  0  0  0  0  0  0  0  0  0  0
   20.3071  -21.8008  -14.2046 O   0  0  0  0  0  0  0  0  0  0  0  0
  2  1  1  6
  2  3  1  0
  3  4  1  0
  4  5  2  0
  5  6  1  0
  7  6  2  0
  8  7  1  0
  9  4  1  0
  9  8  2  0
 10 11  2  0
 10  2  1  0
 12 10  1  0
 13 18  1  0
 13 12  1  0
 13 14  1  6
 15 14  1  0
 16 15  1  0
 17 16  2  0
 18 28  1  0
 19 18  2  0
 20 16  1  0
 22 21  1  0
 23 22  2  0
 24 23  1  0
 25 24  2  0
 25 31  1  0
 26 25  1  0
 27 26  1  1
 28 27  1  0
 29 27  1  0
 30 29  2  0
 31 32  2  0
 32 22  1  0
 33 29  1  0
M  END
$$$$
