FEY.pdb
     RDKit          3D

 33 34  0  0  1  0  0  0  0  0999 V2000
   23.4665  -31.6831   11.9600 N   0  0  0  0  0  0  0  0  0  0  0  0
   24.3789  -31.2331   10.9552 C   0  0  1  0  0  0  0  0  0  0  0  0
   25.5617  -30.4780   11.5664 C   0  0  0  0  0  0  0  0  0  0  0  0
   25.0296  -29.2740   12.2223 C   0  0  0  0  0  0  0  0  0  0  0  0
   25.1114  -29.1497   13.5897 C   0  0  0  0  0  0  0  0  0  0  0  0
   24.6204  -28.0249   14.2520 C   0  0  0  0  0  0  0  0  0  0  0  0
   24.0373  -27.0110   13.5112 C   0  0  0  0  0  0  0  0  0  0  0  0
   23.9573  -27.1379   12.1487 C   0  0  0  0  0  0  0  0  0  0  0  0
   24.4475  -28.2586   11.4983 C   0  0  0  0  0  0  0  0  0  0  0  0
   24.9431  -32.3464   10.1625 C   0  0  0  0  0  0  0  0  0  0  0  0
   25.3353  -33.4112   10.7347 O   0  0  0  0  0  0  0  0  0  0  0  0
   25.0887  -32.3205    8.7498 N   0  0  0  0  0  0  0  0  0  0  0  0
   25.6761  -33.4251    7.9936 C   0  0  1  0  0  0  0  0  0  0  0  0
   24.7771  -33.6596    6.8108 C   0  0  0  0  0  0  0  0  0  0  0  0
   23.4432  -34.2627    7.1550 C   0  0  0  0  0  0  0  0  0  0  0  0
   22.6267  -34.3953    5.9252 C   0  0  0  0  0  0  0  0  0  0  0  0
   21.5151  -33.8433    5.8612 O   0  0  0  0  0  0  0  0  0  0  0  0
   27.0289  -33.0564    7.5101 C   0  0  0  0  0  0  0  0  0  0  0  0
   27.8240  -33.8930    7.0142 O   0  0  0  0  0  0  0  0  0  0  0  0
   23.0943  -35.1252    4.8582 O   0  0  0  0  0  0  0  0  0  0  0  0
   26.0369  -31.9311    1.4319 O   0  0  0  0  0  0  0  0  0  0  0  0
   26.7211  -31.5259    2.5757 C   0  0  0  0  0  0  0  0  0  0  0  0
   27.9902  -32.0013    2.8306 C   0  0  0  0  0  0  0  0  0  0  0  0
   28.6862  -31.6136    3.9568 C   0  0  0  0  0  0  0  0  0  0  0  0
   28.1690  -30.7382    4.8907 C   0  0  0  0  0  0  0  0  0  0  0  0
   28.8887  -30.3161    6.1105 C   0  0  0  0  0  0  0  0  0  0  0  0
   28.8917  -31.4186    7.1074 C   0  0  2  0  0  0  0  0  0  0  0  0
   27.5327  -31.7278    7.5695 N   0  0  0  0  0  0  0  0  0  0  0  0
   29.6776  -31.0391    8.2922 C   0  0  0  0  0  0  0  0  0  0  0  0
   29.2518  -31.0467    9.4791 O   0  0  0  0  0  0  0  0  0  0  0  0
   26.8787  -30.2690    4.6096 C   0  0  0  0  0  0  0  0  0  0  0  0
   26.1752  -30.6491    3.4887 C   0  0  0  0  0  0  0  0  0  0  0  0
   31.0101  -30.6343    8.0986 O   0  0  0  0  0  0  0  0  0  0  0  0
  2  1  1  1
  2  3  1  0
  3  4  1  0
  4  5  2  0
  5  6  1  0
  7  6  2  0
  8  7  1  0
  9  4  1  0
  9  8  2  0
 10 11  2  0
 10  2  1  0
 12 10  1  0
 13 18  1  0
 13 12  1  0
 13 14  1  6
 15 14  1  0
 16 15  1  0
 17 16  2  0
 18 28  1  0
 19 18  2  0
 20 16  1  0
 22 21  1  0
 23 22  2  0
 24 23  1  0
 25 24  2  0
 25 31  1  0
 26 25  1  0
 27 26  1  6
 28 27  1  0
 29 27  1  0
 30 29  2  0
 31 32  2  0
 32 22  1  0
 33 29  1  0
M  END
$$$$
