FEY.pdb
     RDKit          3D

 33 34  0  0  1  0  0  0  0  0999 V2000
   29.4225  -19.1218  -13.2238 N   0  0  0  0  0  0  0  0  0  0  0  0
   28.7704  -20.3073  -13.6864 C   0  0  1  0  0  0  0  0  0  0  0  0
   28.4861  -21.2781  -12.5377 C   0  0  0  0  0  0  0  0  0  0  0  0
   29.7702  -21.5929  -11.8933 C   0  0  0  0  0  0  0  0  0  0  0  0
   29.9953  -21.2015  -10.5941 C   0  0  0  0  0  0  0  0  0  0  0  0
   31.1977  -21.4799   -9.9448 C   0  0  0  0  0  0  0  0  0  0  0  0
   32.1862  -22.1672  -10.6284 C   0  0  0  0  0  0  0  0  0  0  0  0
   31.9588  -22.5558  -11.9230 C   0  0  0  0  0  0  0  0  0  0  0  0
   30.7615  -22.2753  -12.5609 C   0  0  0  0  0  0  0  0  0  0  0  0
   27.4748  -20.0233  -14.3396 C   0  0  0  0  0  0  0  0  0  0  0  0
   26.7736  -19.0280  -13.9752 O   0  0  0  0  0  0  0  0  0  0  0  0
   26.9260  -20.8084  -15.3885 N   0  0  0  0  0  0  0  0  0  0  0  0
   25.6820  -20.4589  -16.0720 C   0  0  1  0  0  0  0  0  0  0  0  0
   25.9381  -20.6359  -17.5435 C   0  0  0  0  0  0  0  0  0  0  0  0
   26.8948  -19.6359  -18.1317 C   0  0  0  0  0  0  0  0  0  0  0  0
   28.2619  -20.2080  -18.1489 C   0  0  0  0  0  0  0  0  0  0  0  0
   28.4170  -21.4284  -18.3256 O   0  0  0  0  0  0  0  0  0  0  0  0
   24.5910  -21.3731  -15.6553 C   0  0  0  0  0  0  0  0  0  0  0  0
   24.7300  -22.6208  -15.6123 O   0  0  0  0  0  0  0  0  0  0  0  0
   29.3559  -19.3948  -17.9702 O   0  0  0  0  0  0  0  0  0  0  0  0
   21.6540  -21.4057   -7.6337 O   0  0  0  0  0  0  0  0  0  0  0  0
   22.1701  -21.1931   -8.9100 C   0  0  0  0  0  0  0  0  0  0  0  0
   21.3210  -20.9838   -9.9762 C   0  0  0  0  0  0  0  0  0  0  0  0
   21.8097  -20.7712  -11.2486 C   0  0  0  0  0  0  0  0  0  0  0  0
   23.1597  -20.7542  -11.5376 C   0  0  0  0  0  0  0  0  0  0  0  0
   23.7087  -20.5403  -12.8929 C   0  0  0  0  0  0  0  0  0  0  0  0
   22.7996  -21.1309  -13.9098 C   0  0  2  0  0  0  0  0  0  0  0  0
   23.3022  -20.9101  -15.2716 N   0  0  0  0  0  0  0  0  0  0  0  0
   21.4677  -20.5100  -13.8322 C   0  0  0  0  0  0  0  0  0  0  0  0
   20.4287  -21.0725  -13.3916 O   0  0  0  0  0  0  0  0  0  0  0  0
   24.0019  -20.9690  -10.4383 C   0  0  0  0  0  0  0  0  0  0  0  0
   23.5248  -21.1819   -9.1643 C   0  0  0  0  0  0  0  0  0  0  0  0
   21.3299  -19.1848  -14.2818 O   0  0  0  0  0  0  0  0  0  0  0  0
  2  1  1  1
  2  3  1  0
  3  4  1  0
  4  5  2  0
  5  6  1  0
  7  6  2  0
  8  7  1  0
  9  4  1  0
  9  8  2  0
 10 11  2  0
 10  2  1  0
 12 10  1  0
 13 18  1  0
 13 12  1  0
 13 14  1  6
 15 14  1  0
 16 15  1  0
 17 16  2  0
 18 28  1  0
 19 18  2  0
 20 16  1  0
 22 21  1  0
 23 22  2  0
 24 23  1  0
 25 24  2  0
 25 31  1  0
 26 25  1  0
 27 26  1  1
 28 27  1  0
 29 27  1  0
 30 29  2  0
 31 32  2  0
 32 22  1  0
 33 29  1  0
M  END
$$$$
