FEY.pdb
     RDKit          3D

 33 34  0  0  1  0  0  0  0  0999 V2000
   15.6187  -16.7638    4.9736 N   0  0  0  0  0  0  0  0  0  0  0  0
   16.8219  -17.5364    4.9817 C   0  0  1  0  0  0  0  0  0  0  0  0
   18.0613  -16.6469    5.1061 C   0  0  0  0  0  0  0  0  0  0  0  0
   18.1928  -15.8896    3.8522 C   0  0  0  0  0  0  0  0  0  0  0  0
   17.9415  -14.5373    3.8426 C   0  0  0  0  0  0  0  0  0  0  0  0
   18.0549  -13.7811    2.6763 C   0  0  0  0  0  0  0  0  0  0  0  0
   18.4299  -14.4109    1.5018 C   0  0  0  0  0  0  0  0  0  0  0  0
   18.6796  -15.7585    1.5146 C   0  0  0  0  0  0  0  0  0  0  0  0
   18.5647  -16.5027    2.6775 C   0  0  0  0  0  0  0  0  0  0  0  0
   16.8696  -18.4991    6.1028 C   0  0  0  0  0  0  0  0  0  0  0  0
   16.1738  -18.3059    7.1486 O   0  0  0  0  0  0  0  0  0  0  0  0
   17.6661  -19.6753    6.1054 N   0  0  0  0  0  0  0  0  0  0  0  0
   17.9984  -20.4043    7.3281 C   0  0  1  0  0  0  0  0  0  0  0  0
   17.8004  -21.8638    7.0232 C   0  0  0  0  0  0  0  0  0  0  0  0
   18.6113  -22.3710    5.8629 C   0  0  0  0  0  0  0  0  0  0  0  0
   18.2859  -23.7956    5.6153 C   0  0  0  0  0  0  0  0  0  0  0  0
   19.0695  -24.5014    4.9579 O   0  0  0  0  0  0  0  0  0  0  0  0
   19.4164  -20.1729    7.6965 C   0  0  0  0  0  0  0  0  0  0  0  0
   20.3032  -19.9055    6.8480 O   0  0  0  0  0  0  0  0  0  0  0  0
   17.1227  -24.3368    6.1096 O   0  0  0  0  0  0  0  0  0  0  0  0
   25.1427  -14.9116   11.2725 O   0  0  0  0  0  0  0  0  0  0  0  0
   24.0761  -15.6594   10.7787 C   0  0  0  0  0  0  0  0  0  0  0  0
   22.8341  -15.5727   11.3715 C   0  0  0  0  0  0  0  0  0  0  0  0
   21.7638  -16.3040   10.8995 C   0  0  0  0  0  0  0  0  0  0  0  0
   21.8607  -17.1588    9.8197 C   0  0  0  0  0  0  0  0  0  0  0  0
   20.7333  -17.9616    9.3017 C   0  0  0  0  0  0  0  0  0  0  0  0
   21.0161  -19.4102    9.4780 C   0  0  2  0  0  0  0  0  0  0  0  0
   19.8839  -20.2353    9.0381 N   0  0  0  0  0  0  0  0  0  0  0  0
   21.2535  -19.7194   10.8969 C   0  0  0  0  0  0  0  0  0  0  0  0
   20.3582  -19.8083   11.7805 O   0  0  0  0  0  0  0  0  0  0  0  0
   23.1321  -17.2296    9.2344 C   0  0  0  0  0  0  0  0  0  0  0  0
   24.2070  -16.5041    9.6973 C   0  0  0  0  0  0  0  0  0  0  0  0
   22.5793  -19.9350   11.3128 O   0  0  0  0  0  0  0  0  0  0  0  0
  2  1  1  1
  2  3  1  0
  3  4  1  0
  4  5  2  0
  5  6  1  0
  7  6  2  0
  8  7  1  0
  9  4  1  0
  9  8  2  0
 10 11  2  0
 10  2  1  0
 12 10  1  0
 13 18  1  0
 13 12  1  0
 13 14  1  6
 15 14  1  0
 16 15  1  0
 17 16  2  0
 18 28  1  0
 19 18  2  0
 20 16  1  0
 22 21  1  0
 23 22  2  0
 24 23  1  0
 25 24  2  0
 25 31  1  0
 26 25  1  0
 27 26  1  1
 28 27  1  0
 29 27  1  0
 30 29  2  0
 31 32  2  0
 32 22  1  0
 33 29  1  0
M  END
$$$$
