FEY.pdb
     RDKit          3D

 33 34  0  0  1  0  0  0  0  0999 V2000
   25.1393  -15.1935  -18.2308 N   0  0  0  0  0  0  0  0  0  0  0  0
   25.0776  -16.2715  -17.2935 C   0  0  1  0  0  0  0  0  0  0  0  0
   25.9652  -16.0090  -16.0744 C   0  0  0  0  0  0  0  0  0  0  0  0
   27.2957  -16.5644  -16.3651 C   0  0  0  0  0  0  0  0  0  0  0  0
   27.5619  -17.8830  -16.0783 C   0  0  0  0  0  0  0  0  0  0  0  0
   28.8091  -18.4501  -16.3384 C   0  0  0  0  0  0  0  0  0  0  0  0
   29.8006  -17.6631  -16.8990 C   0  0  0  0  0  0  0  0  0  0  0  0
   29.5322  -16.3494  -17.1836 C   0  0  0  0  0  0  0  0  0  0  0  0
   28.2905  -15.7935  -16.9222 C   0  0  0  0  0  0  0  0  0  0  0  0
   23.7085  -16.5038  -16.7862 C   0  0  0  0  0  0  0  0  0  0  0  0
   22.9690  -15.5247  -16.4550 O   0  0  0  0  0  0  0  0  0  0  0  0
   23.1269  -17.7906  -16.6323 N   0  0  0  0  0  0  0  0  0  0  0  0
   21.7447  -17.9886  -16.1994 C   0  0  1  0  0  0  0  0  0  0  0  0
   20.9859  -18.4789  -17.4019 C   0  0  0  0  0  0  0  0  0  0  0  0
   19.5154  -18.6864  -17.1657 C   0  0  0  0  0  0  0  0  0  0  0  0
   18.8874  -19.2282  -18.3940 C   0  0  0  0  0  0  0  0  0  0  0  0
   19.5960  -19.5117  -19.3748 O   0  0  0  0  0  0  0  0  0  0  0  0
   21.6816  -19.0170  -15.1325 C   0  0  0  0  0  0  0  0  0  0  0  0
   22.5080  -19.9592  -15.0480 O   0  0  0  0  0  0  0  0  0  0  0  0
   17.5269  -19.4175  -18.4511 O   0  0  0  0  0  0  0  0  0  0  0  0
   15.4840  -16.5601  -11.7940 O   0  0  0  0  0  0  0  0  0  0  0  0
   16.6949  -17.2489  -11.7869 C   0  0  0  0  0  0  0  0  0  0  0  0
   16.7467  -18.5575  -11.3552 C   0  0  0  0  0  0  0  0  0  0  0  0
   17.9345  -19.2589  -11.3396 C   0  0  0  0  0  0  0  0  0  0  0  0
   19.1330  -18.7083  -11.7477 C   0  0  0  0  0  0  0  0  0  0  0  0
   20.4204  -19.4337  -11.7300 C   0  0  0  0  0  0  0  0  0  0  0  0
   20.6842  -20.0357  -13.0632 C   0  0  2  0  0  0  0  0  0  0  0  0
   20.6813  -19.0180  -14.1216 N   0  0  0  0  0  0  0  0  0  0  0  0
   19.6405  -21.0165  -13.4008 C   0  0  0  0  0  0  0  0  0  0  0  0
   18.8080  -20.8968  -14.3404 O   0  0  0  0  0  0  0  0  0  0  0  0
   19.0547  -17.3782  -12.1819 C   0  0  0  0  0  0  0  0  0  0  0  0
   17.8746  -16.6690  -12.2018 C   0  0  0  0  0  0  0  0  0  0  0  0
   19.5545  -22.1837  -12.6215 O   0  0  0  0  0  0  0  0  0  0  0  0
  2  1  1  6
  2  3  1  0
  3  4  1  0
  4  5  2  0
  5  6  1  0
  7  6  2  0
  8  7  1  0
  9  4  1  0
  9  8  2  0
 10 11  2  0
 10  2  1  0
 12 10  1  0
 13 18  1  0
 13 12  1  0
 13 14  1  6
 15 14  1  0
 16 15  1  0
 17 16  2  0
 18 28  1  0
 19 18  2  0
 20 16  1  0
 22 21  1  0
 23 22  2  0
 24 23  1  0
 25 24  2  0
 25 31  1  0
 26 25  1  0
 27 26  1  1
 28 27  1  0
 29 27  1  0
 30 29  2  0
 31 32  2  0
 32 22  1  0
 33 29  1  0
M  END
$$$$
