SDQ.pdb
     RDKit          3D

 24 23  0  0  1  0  0  0  0  0999 V2000
    6.1650  -14.9690   22.0314 O   0  0  0  0  0  0  0  0  0  0  0  0
    6.8662  -14.6582   20.8932 C   0  0  0  0  0  0  0  0  0  0  0  0
    7.6666  -15.7835   20.3242 C   0  0  2  0  0  0  0  0  0  0  0  0
    6.7231  -16.8097   19.8859 N   0  0  0  0  0  0  0  0  0  0  0  0
    8.6501  -16.3741   21.2328 C   0  0  0  0  0  0  0  0  0  0  0  0
    8.3641  -17.4592   21.8154 O   0  0  0  0  0  0  0  0  0  0  0  0
    9.9107  -15.8332   21.5210 N   0  0  0  0  0  0  0  0  0  0  0  0
   10.8565  -16.5177   22.4084 C   0  0  1  0  0  0  0  0  0  0  0  0
   12.2464  -16.0585   22.1289 C   0  0  0  0  0  0  0  0  0  0  0  0
   12.8291  -16.6235   20.9225 C   0  0  0  0  0  0  0  0  0  0  0  0
   12.7004  -17.8186   20.6206 O   0  0  0  0  0  0  0  0  0  0  0  0
   10.3539  -16.2644   23.7644 C   0  0  0  0  0  0  0  0  0  0  0  0
    9.9930  -15.1215   24.0978 O   0  0  0  0  0  0  0  0  0  0  0  0
   13.5576  -15.8018   20.0724 O   0  0  0  0  0  0  0  0  0  0  0  0
    6.4537  -15.3328   24.6581 N   0  0  0  0  0  0  0  0  0  0  0  0
    6.4259  -16.7351   24.8348 C   0  0  0  0  0  0  0  0  0  0  0  0
    5.5141  -17.4033   24.3098 O   0  0  0  0  0  0  0  0  0  0  0  0
    7.4747  -17.3800   25.6376 C   0  0  0  0  0  0  0  0  0  0  0  0
    8.4651  -16.4396   26.2626 C   0  0  0  0  0  0  0  0  0  0  0  0
    9.8949  -16.8797   26.1794 C   0  0  2  0  0  0  0  0  0  0  0  0
   10.2334  -17.2572   24.7919 N   0  0  0  0  0  0  0  0  0  0  0  0
   10.2256  -17.9896   27.1001 C   0  0  0  0  0  0  0  0  0  0  0  0
   10.0585  -17.7862   28.4669 O   0  0  0  0  0  0  0  0  0  0  0  0
   10.6501  -19.1153   26.7480 O   0  0  0  0  0  0  0  0  0  0  0  0
  2  3  1  0
  2  1  1  0
  3  4  1  1
  5  3  1  0
  6  5  2  0
  7  5  1  0
  8 12  1  0
  8  7  1  0
  8  9  1  1
 10  9  1  0
 10 11  2  0
 12 21  1  0
 13 12  2  0
 14 10  1  0
 16 18  1  0
 16 15  1  0
 17 16  2  0
 20 19  1  6
 19 18  1  0
 20 22  1  0
 21 20  1  0
 22 24  2  0
 22 23  1  0
M  END
$$$$
