SDQ.pdb
     RDKit          3D

 24 23  0  0  1  0  0  0  0  0999 V2000
    7.6826  -12.3914   17.6916 O   0  0  0  0  0  0  0  0  0  0  0  0
    8.5756  -13.2267   18.3148 C   0  0  0  0  0  0  0  0  0  0  0  0
    9.4303  -14.0308   17.3908 C   0  0  2  0  0  0  0  0  0  0  0  0
    8.5565  -14.9831   16.7088 N   0  0  0  0  0  0  0  0  0  0  0  0
   10.5379  -14.7460   18.0261 C   0  0  0  0  0  0  0  0  0  0  0  0
   10.4408  -15.9963   18.1870 O   0  0  0  0  0  0  0  0  0  0  0  0
   11.7250  -14.1560   18.4814 N   0  0  0  0  0  0  0  0  0  0  0  0
   12.8074  -14.9562   19.0635 C   0  0  1  0  0  0  0  0  0  0  0  0
   14.1226  -14.5106   18.5228 C   0  0  0  0  0  0  0  0  0  0  0  0
   15.2700  -15.1550   19.1414 C   0  0  0  0  0  0  0  0  0  0  0  0
   15.2677  -16.3537   19.4562 O   0  0  0  0  0  0  0  0  0  0  0  0
   12.6312  -14.8313   20.5157 C   0  0  0  0  0  0  0  0  0  0  0  0
   12.6352  -13.7103   21.0553 O   0  0  0  0  0  0  0  0  0  0  0  0
   16.4136  -14.4081   19.3919 O   0  0  0  0  0  0  0  0  0  0  0  0
    7.6202  -14.4740   21.3070 N   0  0  0  0  0  0  0  0  0  0  0  0
    7.8189  -14.7253   22.6838 C   0  0  0  0  0  0  0  0  0  0  0  0
    6.8953  -14.5000   23.4898 O   0  0  0  0  0  0  0  0  0  0  0  0
    9.1149  -15.2475   23.1401 C   0  0  0  0  0  0  0  0  0  0  0  0
   10.1618  -15.3727   22.0704 C   0  0  0  0  0  0  0  0  0  0  0  0
   11.5031  -15.8380   22.5493 C   0  0  2  0  0  0  0  0  0  0  0  0
   12.4460  -15.9318   21.4159 N   0  0  0  0  0  0  0  0  0  0  0  0
   11.4565  -17.1260   23.2757 C   0  0  0  0  0  0  0  0  0  0  0  0
   11.4115  -17.0987   24.6667 O   0  0  0  0  0  0  0  0  0  0  0  0
   11.4539  -18.2575   22.7363 O   0  0  0  0  0  0  0  0  0  0  0  0
  2  3  1  0
  2  1  1  0
  3  4  1  1
  5  3  1  0
  6  5  2  0
  7  5  1  0
  8 12  1  0
  8  7  1  0
  8  9  1  1
 10  9  1  0
 10 11  2  0
 12 21  1  0
 13 12  2  0
 14 10  1  0
 16 18  1  0
 16 15  1  0
 17 16  2  0
 20 19  1  6
 19 18  1  0
 20 22  1  0
 21 20  1  0
 22 24  2  0
 22 23  1  0
M  END
$$$$
