SDQ.pdb
     RDKit          3D

 24 23  0  0  1  0  0  0  0  0999 V2000
    7.7382  -13.3602   20.1251 O   0  0  0  0  0  0  0  0  0  0  0  0
    8.1230  -12.5490   19.0871 C   0  0  0  0  0  0  0  0  0  0  0  0
    8.7144  -13.2663   17.9181 C   0  0  2  0  0  0  0  0  0  0  0  0
    7.6468  -14.0551   17.3068 N   0  0  0  0  0  0  0  0  0  0  0  0
    9.8529  -14.1328   18.2260 C   0  0  0  0  0  0  0  0  0  0  0  0
    9.6728  -15.3839   18.2576 O   0  0  0  0  0  0  0  0  0  0  0  0
   11.1556  -13.6903   18.4939 N   0  0  0  0  0  0  0  0  0  0  0  0
   12.2404  -14.6303   18.7942 C   0  0  1  0  0  0  0  0  0  0  0  0
   13.4946  -14.2006   18.1136 C   0  0  0  0  0  0  0  0  0  0  0  0
   14.5361  -15.2150   18.0884 C   0  0  0  0  0  0  0  0  0  0  0  0
   14.4845  -16.2361   18.7887 O   0  0  0  0  0  0  0  0  0  0  0  0
   12.2912  -14.6934   20.2601 C   0  0  0  0  0  0  0  0  0  0  0  0
   12.8233  -13.7762   20.9108 O   0  0  0  0  0  0  0  0  0  0  0  0
   15.6314  -15.0414   17.2524 O   0  0  0  0  0  0  0  0  0  0  0  0
    8.3317  -16.9639   24.5498 N   0  0  0  0  0  0  0  0  0  0  0  0
    9.4560  -16.6381   25.3423 C   0  0  0  0  0  0  0  0  0  0  0  0
    9.3604  -16.6615   26.5848 O   0  0  0  0  0  0  0  0  0  0  0  0
   10.7193  -16.2756   24.6843 C   0  0  0  0  0  0  0  0  0  0  0  0
   10.6483  -16.1675   23.1880 C   0  0  0  0  0  0  0  0  0  0  0  0
   11.9331  -15.7832   22.5197 C   0  0  2  0  0  0  0  0  0  0  0  0
   11.7601  -15.7637   21.0527 N   0  0  0  0  0  0  0  0  0  0  0  0
   13.0714  -16.6557   22.8828 C   0  0  0  0  0  0  0  0  0  0  0  0
   13.9756  -16.1990   23.8374 O   0  0  0  0  0  0  0  0  0  0  0  0
   13.2940  -17.7892   22.3959 O   0  0  0  0  0  0  0  0  0  0  0  0
  2  3  1  0
  2  1  1  0
  3  4  1  1
  5  3  1  0
  6  5  2  0
  7  5  1  0
  8 12  1  0
  8  7  1  0
  8  9  1  1
 10  9  1  0
 10 11  2  0
 12 21  1  0
 13 12  2  0
 14 10  1  0
 16 18  1  0
 16 15  1  0
 17 16  2  0
 20 19  1  1
 19 18  1  0
 20 22  1  0
 21 20  1  0
 22 24  2  0
 22 23  1  0
M  END
$$$$
