SDQ.pdb
     RDKit          3D

 24 23  0  0  1  0  0  0  0  0999 V2000
   12.7021  -15.5075   20.8687 O   0  0  0  0  0  0  0  0  0  0  0  0
   13.0547  -16.7500   20.4045 C   0  0  0  0  0  0  0  0  0  0  0  0
   11.9362  -17.7383   20.3490 C   0  0  2  0  0  0  0  0  0  0  0  0
   11.0372  -17.3172   19.2766 N   0  0  0  0  0  0  0  0  0  0  0  0
   11.1800  -17.8980   21.5917 C   0  0  0  0  0  0  0  0  0  0  0  0
    9.9351  -17.6771   21.5778 O   0  0  0  0  0  0  0  0  0  0  0  0
   11.7240  -18.2844   22.8243 N   0  0  0  0  0  0  0  0  0  0  0  0
   10.8762  -18.5331   23.9949 C   0  0  1  0  0  0  0  0  0  0  0  0
   11.4323  -19.6557   24.8018 C   0  0  0  0  0  0  0  0  0  0  0  0
   10.7609  -19.8641   26.0746 C   0  0  0  0  0  0  0  0  0  0  0  0
    9.5382  -20.0487   26.1571 O   0  0  0  0  0  0  0  0  0  0  0  0
   10.7805  -17.2355   24.6750 C   0  0  0  0  0  0  0  0  0  0  0  0
   11.8009  -16.5510   24.8698 O   0  0  0  0  0  0  0  0  0  0  0  0
   11.5088  -19.8575   27.2447 O   0  0  0  0  0  0  0  0  0  0  0  0
    6.0017  -13.0954   25.2152 N   0  0  0  0  0  0  0  0  0  0  0  0
    6.9982  -12.5200   26.0363 C   0  0  0  0  0  0  0  0  0  0  0  0
    6.8357  -11.3689   26.4860 O   0  0  0  0  0  0  0  0  0  0  0  0
    8.2108  -13.2916   26.3438 C   0  0  0  0  0  0  0  0  0  0  0  0
    8.2824  -14.6464   25.6995 C   0  0  0  0  0  0  0  0  0  0  0  0
    9.5741  -15.3773   25.9051 C   0  0  2  0  0  0  0  0  0  0  0  0
    9.5635  -16.6530   25.1603 N   0  0  0  0  0  0  0  0  0  0  0  0
    9.8917  -15.6258   27.3286 C   0  0  0  0  0  0  0  0  0  0  0  0
   10.6826  -14.6983   28.0007 O   0  0  0  0  0  0  0  0  0  0  0  0
    9.5027  -16.6164   27.9910 O   0  0  0  0  0  0  0  0  0  0  0  0
  2  3  1  0
  2  1  1  0
  3  4  1  6
  5  3  1  0
  6  5  2  0
  7  5  1  0
  8 12  1  0
  8  7  1  0
  8  9  1  1
 10  9  1  0
 10 11  2  0
 12 21  1  0
 13 12  2  0
 14 10  1  0
 16 18  1  0
 16 15  1  0
 17 16  2  0
 20 19  1  1
 19 18  1  0
 20 22  1  0
 21 20  1  0
 22 24  2  0
 22 23  1  0
M  END
$$$$
