SDQ.pdb
     RDKit          3D

 24 23  0  0  1  0  0  0  0  0999 V2000
    8.8816  -15.8318   17.8240 O   0  0  0  0  0  0  0  0  0  0  0  0
    8.6473  -14.4890   17.6638 C   0  0  0  0  0  0  0  0  0  0  0  0
    8.0949  -13.8017   18.8694 C   0  0  2  0  0  0  0  0  0  0  0  0
    8.0645  -12.3701   18.5777 N   0  0  0  0  0  0  0  0  0  0  0  0
    8.8281  -14.0356   20.1141 C   0  0  0  0  0  0  0  0  0  0  0  0
    9.7967  -13.2750   20.4005 O   0  0  0  0  0  0  0  0  0  0  0  0
    8.5457  -15.0497   21.0396 N   0  0  0  0  0  0  0  0  0  0  0  0
    9.3249  -15.2043   22.2724 C   0  0  1  0  0  0  0  0  0  0  0  0
    8.5051  -15.8827   23.3157 C   0  0  0  0  0  0  0  0  0  0  0  0
    9.2746  -16.3946   24.4382 C   0  0  0  0  0  0  0  0  0  0  0  0
    9.8879  -15.6502   25.2164 O   0  0  0  0  0  0  0  0  0  0  0  0
   10.5499  -15.9011   21.8606 C   0  0  0  0  0  0  0  0  0  0  0  0
   10.5018  -16.8075   21.0098 O   0  0  0  0  0  0  0  0  0  0  0  0
    9.3298  -17.7655   24.6534 O   0  0  0  0  0  0  0  0  0  0  0  0
   14.7504  -15.5976   18.1021 N   0  0  0  0  0  0  0  0  0  0  0  0
   14.4754  -14.4751   18.9161 C   0  0  0  0  0  0  0  0  0  0  0  0
   14.8256  -13.3403   18.5380 O   0  0  0  0  0  0  0  0  0  0  0  0
   13.7811  -14.6683   20.1972 C   0  0  0  0  0  0  0  0  0  0  0  0
   13.3164  -16.0716   20.4629 C   0  0  0  0  0  0  0  0  0  0  0  0
   13.0371  -16.3840   21.9014 C   0  0  2  0  0  0  0  0  0  0  0  0
   11.8609  -15.6233   22.3704 N   0  0  0  0  0  0  0  0  0  0  0  0
   14.1898  -16.1335   22.7945 C   0  0  0  0  0  0  0  0  0  0  0  0
   15.3756  -16.8207   22.5511 O   0  0  0  0  0  0  0  0  0  0  0  0
   14.1891  -15.3426   23.7669 O   0  0  0  0  0  0  0  0  0  0  0  0
  2  3  1  0
  2  1  1  0
  3  4  1  6
  5  3  1  0
  6  5  2  0
  7  5  1  0
  8 12  1  0
  8  7  1  0
  8  9  1  1
 10  9  1  0
 10 11  2  0
 12 21  1  0
 13 12  2  0
 14 10  1  0
 16 18  1  0
 16 15  1  0
 17 16  2  0
 20 19  1  6
 19 18  1  0
 20 22  1  0
 21 20  1  0
 22 24  2  0
 22 23  1  0
M  END
$$$$
