SDQ.pdb
     RDKit          3D

 24 23  0  0  1  0  0  0  0  0999 V2000
    8.3829  -20.4823   19.1870 O   0  0  0  0  0  0  0  0  0  0  0  0
    8.7736  -19.7799   18.0745 C   0  0  0  0  0  0  0  0  0  0  0  0
   10.2196  -19.9138   17.7255 C   0  0  2  0  0  0  0  0  0  0  0  0
   10.4918  -21.3375   17.5399 N   0  0  0  0  0  0  0  0  0  0  0  0
   11.1539  -19.3570   18.7047 C   0  0  0  0  0  0  0  0  0  0  0  0
   11.8659  -20.1506   19.3844 O   0  0  0  0  0  0  0  0  0  0  0  0
   11.3358  -17.9912   18.9618 N   0  0  0  0  0  0  0  0  0  0  0  0
   12.3077  -17.5181   19.9529 C   0  0  1  0  0  0  0  0  0  0  0  0
   12.8096  -16.1669   19.5747 C   0  0  0  0  0  0  0  0  0  0  0  0
   13.8889  -16.1835   18.6005 C   0  0  0  0  0  0  0  0  0  0  0  0
   13.6880  -16.0437   17.3856 O   0  0  0  0  0  0  0  0  0  0  0  0
   11.6093  -17.6095   21.2411 C   0  0  0  0  0  0  0  0  0  0  0  0
   10.4581  -17.1547   21.3657 O   0  0  0  0  0  0  0  0  0  0  0  0
   15.1947  -16.3619   19.0383 O   0  0  0  0  0  0  0  0  0  0  0  0
   12.4855  -21.4564   26.3244 N   0  0  0  0  0  0  0  0  0  0  0  0
   12.0176  -21.8164   25.0400 C   0  0  0  0  0  0  0  0  0  0  0  0
   11.8763  -23.0207   24.7519 O   0  0  0  0  0  0  0  0  0  0  0  0
   11.7072  -20.7607   24.0654 C   0  0  0  0  0  0  0  0  0  0  0  0
   11.9060  -19.3577   24.5634 C   0  0  0  0  0  0  0  0  0  0  0  0
   11.3595  -18.2859   23.6704 C   0  0  2  0  0  0  0  0  0  0  0  0
   12.1539  -18.2019   22.4278 N   0  0  0  0  0  0  0  0  0  0  0  0
   11.2906  -16.9570   24.3170 C   0  0  0  0  0  0  0  0  0  0  0  0
   10.4014  -16.7817   25.3735 O   0  0  0  0  0  0  0  0  0  0  0  0
   11.9759  -15.9600   23.9889 O   0  0  0  0  0  0  0  0  0  0  0  0
  2  3  1  0
  2  1  1  0
  3  4  1  1
  5  3  1  0
  6  5  2  0
  7  5  1  0
  8 12  1  0
  8  7  1  0
  8  9  1  6
 10  9  1  0
 10 11  2  0
 12 21  1  0
 13 12  2  0
 14 10  1  0
 16 18  1  0
 16 15  1  0
 17 16  2  0
 20 19  1  1
 19 18  1  0
 20 22  1  0
 21 20  1  0
 22 24  2  0
 22 23  1  0
M  END
$$$$
