SDQ.pdb
     RDKit          3D

 24 23  0  0  1  0  0  0  0  0999 V2000
    8.6650  -13.7179   18.1508 O   0  0  0  0  0  0  0  0  0  0  0  0
    7.9900  -14.2421   19.2248 C   0  0  0  0  0  0  0  0  0  0  0  0
    8.1064  -15.7235   19.3748 C   0  0  2  0  0  0  0  0  0  0  0  0
    7.3562  -16.3316   18.2780 N   0  0  0  0  0  0  0  0  0  0  0  0
    7.6360  -16.2622   20.6517 C   0  0  0  0  0  0  0  0  0  0  0  0
    6.3945  -16.4349   20.8176 O   0  0  0  0  0  0  0  0  0  0  0  0
    8.4573  -16.6133   21.7319 N   0  0  0  0  0  0  0  0  0  0  0  0
    7.9080  -17.2135   22.9521 C   0  0  1  0  0  0  0  0  0  0  0  0
    8.1705  -18.6804   22.9652 C   0  0  0  0  0  0  0  0  0  0  0  0
    9.5802  -19.0327   23.0186 C   0  0  0  0  0  0  0  0  0  0  0  0
   10.4031  -18.6019   22.1982 O   0  0  0  0  0  0  0  0  0  0  0  0
    8.4999  -16.4425   24.0523 C   0  0  0  0  0  0  0  0  0  0  0  0
    9.7063  -16.1393   24.0297 O   0  0  0  0  0  0  0  0  0  0  0  0
   10.0293  -19.8818   24.0216 O   0  0  0  0  0  0  0  0  0  0  0  0
    7.5004  -11.6378   25.1128 N   0  0  0  0  0  0  0  0  0  0  0  0
    6.5750  -12.2388   25.9963 C   0  0  0  0  0  0  0  0  0  0  0  0
    5.8238  -11.5195   26.6831 O   0  0  0  0  0  0  0  0  0  0  0  0
    6.5171  -13.7046   26.0896 C   0  0  0  0  0  0  0  0  0  0  0  0
    7.5512  -14.3257   26.9844 C   0  0  0  0  0  0  0  0  0  0  0  0
    8.4831  -15.2825   26.3052 C   0  0  2  0  0  0  0  0  0  0  0  0
    7.7855  -15.9829   25.2074 N   0  0  0  0  0  0  0  0  0  0  0  0
    9.0925  -16.2670   27.2262 C   0  0  0  0  0  0  0  0  0  0  0  0
    9.9388  -15.7993   28.2275 O   0  0  0  0  0  0  0  0  0  0  0  0
    8.9085  -17.5062   27.1804 O   0  0  0  0  0  0  0  0  0  0  0  0
  2  3  1  0
  2  1  1  0
  3  4  1  6
  5  3  1  0
  6  5  2  0
  7  5  1  0
  8 12  1  0
  8  7  1  0
  8  9  1  1
 10  9  1  0
 10 11  2  0
 12 21  1  0
 13 12  2  0
 14 10  1  0
 16 18  1  0
 16 15  1  0
 17 16  2  0
 20 19  1  1
 19 18  1  0
 20 22  1  0
 21 20  1  0
 22 24  2  0
 22 23  1  0
M  END
$$$$
