SDQ.pdb
     RDKit          3D

 24 23  0  0  1  0  0  0  0  0999 V2000
   14.1005  -15.3292   23.1817 O   0  0  0  0  0  0  0  0  0  0  0  0
   13.9950  -16.5107   22.4914 C   0  0  0  0  0  0  0  0  0  0  0  0
   12.5956  -16.9382   22.1922 C   0  0  2  0  0  0  0  0  0  0  0  0
   11.9701  -15.8675   21.4188 N   0  0  0  0  0  0  0  0  0  0  0  0
   11.7719  -17.2471   23.3618 C   0  0  0  0  0  0  0  0  0  0  0  0
   10.7452  -16.5435   23.5845 O   0  0  0  0  0  0  0  0  0  0  0  0
   12.0239  -18.2776   24.2778 N   0  0  0  0  0  0  0  0  0  0  0  0
   11.0771  -18.6021   25.3498 C   0  0  1  0  0  0  0  0  0  0  0  0
   11.1925  -20.0415   25.7178 C   0  0  0  0  0  0  0  0  0  0  0  0
   10.1834  -20.4981   26.6599 C   0  0  0  0  0  0  0  0  0  0  0  0
   10.0237  -21.6967   26.9315 O   0  0  0  0  0  0  0  0  0  0  0  0
   11.3699  -17.6378   26.4175 C   0  0  0  0  0  0  0  0  0  0  0  0
   12.5473  -17.3651   26.7128 O   0  0  0  0  0  0  0  0  0  0  0  0
    9.3650  -19.5646   27.2821 O   0  0  0  0  0  0  0  0  0  0  0  0
    8.2038  -12.5921   28.1236 N   0  0  0  0  0  0  0  0  0  0  0  0
    8.7488  -13.0613   26.9066 C   0  0  0  0  0  0  0  0  0  0  0  0
    8.4806  -12.4687   25.8434 O   0  0  0  0  0  0  0  0  0  0  0  0
    9.6225  -14.2433   26.9179 C   0  0  0  0  0  0  0  0  0  0  0  0
    9.9013  -14.8144   28.2787 C   0  0  0  0  0  0  0  0  0  0  0  0
   10.7694  -16.0356   28.2866 C   0  0  2  0  0  0  0  0  0  0  0  0
   10.3800  -16.9464   27.1907 N   0  0  0  0  0  0  0  0  0  0  0  0
   10.7557  -16.7613   29.5759 C   0  0  0  0  0  0  0  0  0  0  0  0
   11.3101  -16.1385   30.6905 O   0  0  0  0  0  0  0  0  0  0  0  0
   10.2796  -17.9074   29.7522 O   0  0  0  0  0  0  0  0  0  0  0  0
  2  3  1  0
  2  1  1  0
  3  4  1  1
  5  3  1  0
  6  5  2  0
  7  5  1  0
  8 12  1  0
  8  7  1  0
  8  9  1  1
 10  9  1  0
 10 11  2  0
 12 21  1  0
 13 12  2  0
 14 10  1  0
 16 18  1  0
 16 15  1  0
 17 16  2  0
 20 19  1  1
 19 18  1  0
 20 22  1  0
 21 20  1  0
 22 24  2  0
 22 23  1  0
M  END
$$$$
