CHK.pdb
     RDKit          3D

 26 26  0  0  1  0  0  0  0  0999 V2000
   24.9290  -15.9573  -16.3192 N   0  0  0  0  0  0  0  0  0  0  0  0
   24.7761  -14.6626  -15.6915 C   0  0  1  0  0  0  0  0  0  0  0  0
   26.0705  -13.8756  -15.7932 C   0  0  0  0  0  0  0  0  0  0  0  0
   27.4269  -14.7433  -14.9586 S   0  0  0  0  0  0  0  0  0  0  0  0
   23.7240  -13.8487  -16.3414 C   0  0  0  0  0  0  0  0  0  0  0  0
   23.3537  -14.0562  -17.5407 O   0  0  0  0  0  0  0  0  0  0  0  0
   23.1239  -12.8123  -15.5880 N   0  0  0  0  0  0  0  0  0  0  0  0
   21.9365  -12.0833  -16.1816 C   0  0  1  0  0  0  0  0  0  0  0  0
   20.7836  -12.5915  -15.3568 C   0  0  0  0  0  0  0  0  0  0  0  0
   19.9731  -13.6614  -15.9089 C   0  0  0  0  0  0  0  0  0  0  0  0
   20.0031  -14.3934  -17.0560 C   0  0  0  0  0  0  0  0  0  0  0  0
   19.0307  -15.3482  -17.0493 N   0  0  0  0  0  0  0  0  0  0  0  0
   18.4035  -15.1911  -15.8782 C   0  0  0  0  0  0  0  0  0  0  0  0
   18.9409  -14.2033  -15.1885 N   0  0  0  0  0  0  0  0  0  0  0  0
   22.2227  -10.6812  -15.7643 C   0  0  0  0  0  0  0  0  0  0  0  0
   22.8799  -10.5366  -14.6681 O   0  0  0  0  0  0  0  0  0  0  0  0
   21.8751   -9.5024  -16.4078 N   0  0  0  0  0  0  0  0  0  0  0  0
   22.2312   -8.2069  -15.7871 C   0  0  1  0  0  0  0  0  0  0  0  0
   22.1437   -7.1197  -16.8142 C   0  0  0  0  0  0  0  0  0  0  0  0
   22.3644   -5.7718  -16.2411 C   0  0  0  0  0  0  0  0  0  0  0  0
   22.1990   -4.6546  -17.2436 C   0  0  0  0  0  0  0  0  0  0  0  0
   22.4675   -3.3420  -16.5099 C   0  0  0  0  0  0  0  0  0  0  0  0
   22.1380   -2.2293  -17.4067 N   0  0  0  0  0  0  0  0  0  0  0  0
   21.2845   -7.9835  -14.6852 C   0  0  0  0  0  0  0  0  0  0  0  0
   20.0908   -8.3214  -14.7864 O   0  0  0  0  0  0  0  0  0  0  0  0
   21.6707   -7.3892  -13.4857 O   0  0  0  0  0  0  0  0  0  0  0  0
  2  5  1  0
  2  1  1  6
  3  2  1  0
  4  3  1  0
  5  6  2  0
  7  5  1  0
  7  8  1  0
  8 15  1  0
  8  9  1  1
  9 10  1  0
 10 11  2  0
 11 12  1  0
 13 12  1  0
 14 10  1  0
 14 13  2  0
 15 16  2  0
 17 18  1  0
 17 15  1  0
 18 24  1  0
 18 19  1  6
 20 19  1  0
 21 22  1  0
 21 20  1  0
 23 22  1  0
 24 25  2  0
 24 26  1  0
M  END
$$$$
