CHK.pdb
     RDKit          3D

 26 26  0  0  1  0  0  0  0  0999 V2000
   30.1614  -32.1593  -17.6304 N   0  0  0  0  0  0  0  0  0  0  0  0
   29.5959  -32.9473  -16.5567 C   0  0  1  0  0  0  0  0  0  0  0  0
   30.6327  -33.1728  -15.4708 C   0  0  0  0  0  0  0  0  0  0  0  0
   32.1209  -33.9599  -16.1454 S   0  0  0  0  0  0  0  0  0  0  0  0
   28.4423  -32.2735  -15.9185 C   0  0  0  0  0  0  0  0  0  0  0  0
   27.9137  -31.2268  -16.4120 O   0  0  0  0  0  0  0  0  0  0  0  0
   27.9264  -32.8269  -14.7229 N   0  0  0  0  0  0  0  0  0  0  0  0
   26.4378  -32.7236  -14.4637 C   0  0  1  0  0  0  0  0  0  0  0  0
   25.8499  -33.6263  -15.5159 C   0  0  0  0  0  0  0  0  0  0  0  0
   24.4106  -33.8122  -15.5243 C   0  0  0  0  0  0  0  0  0  0  0  0
   23.3712  -33.2846  -14.8215 C   0  0  0  0  0  0  0  0  0  0  0  0
   22.1804  -33.7590  -15.2845 N   0  0  0  0  0  0  0  0  0  0  0  0
   22.5059  -34.5860  -16.2843 C   0  0  0  0  0  0  0  0  0  0  0  0
   23.8143  -34.6338  -16.4450 N   0  0  0  0  0  0  0  0  0  0  0  0
   26.3274  -33.4132  -13.1468 C   0  0  0  0  0  0  0  0  0  0  0  0
   26.8998  -34.5615  -13.0559 O   0  0  0  0  0  0  0  0  0  0  0  0
   25.6876  -32.9764  -11.9960 N   0  0  0  0  0  0  0  0  0  0  0  0
   25.8122  -33.7700  -10.7531 C   0  0  1  0  0  0  0  0  0  0  0  0
   25.6928  -32.8629   -9.5666 C   0  0  0  0  0  0  0  0  0  0  0  0
   25.7464  -33.5939   -8.2795 C   0  0  0  0  0  0  0  0  0  0  0  0
   25.6369  -32.6964   -7.0700 C   0  0  0  0  0  0  0  0  0  0  0  0
   25.6448  -33.5951   -5.8348 C   0  0  0  0  0  0  0  0  0  0  0  0
   25.5411  -32.7497   -4.6409 N   0  0  0  0  0  0  0  0  0  0  0  0
   24.7378  -34.7728  -10.7738 C   0  0  0  0  0  0  0  0  0  0  0  0
   24.9455  -35.9435  -10.4053 O   0  0  0  0  0  0  0  0  0  0  0  0
   23.4476  -34.4676  -11.2020 O   0  0  0  0  0  0  0  0  0  0  0  0
  2  5  1  0
  2  1  1  6
  3  2  1  0
  4  3  1  0
  5  6  2  0
  7  5  1  0
  7  8  1  0
  8 15  1  0
  8  9  1  6
  9 10  1  0
 10 11  2  0
 11 12  1  0
 13 12  1  0
 14 10  1  0
 14 13  2  0
 15 16  2  0
 17 18  1  0
 17 15  1  0
 18 24  1  0
 18 19  1  1
 20 19  1  0
 21 22  1  0
 21 20  1  0
 23 22  1  0
 24 25  2  0
 24 26  1  0
M  END
$$$$
