CHK.pdb
     RDKit          3D

 26 26  0  0  1  0  0  0  0  0999 V2000
   20.1532  -21.9335  -12.9599 N   0  0  0  0  0  0  0  0  0  0  0  0
   21.2098  -22.2795  -13.8859 C   0  0  1  0  0  0  0  0  0  0  0  0
   20.6890  -22.2430  -15.3116 C   0  0  0  0  0  0  0  0  0  0  0  0
   20.0838  -23.8737  -15.8252 S   0  0  0  0  0  0  0  0  0  0  0  0
   22.3445  -21.3310  -13.8166 C   0  0  0  0  0  0  0  0  0  0  0  0
   22.1781  -20.0963  -13.5590 O   0  0  0  0  0  0  0  0  0  0  0  0
   23.6469  -21.8334  -14.0473 N   0  0  0  0  0  0  0  0  0  0  0  0
   24.8246  -20.9011  -13.8539 C   0  0  1  0  0  0  0  0  0  0  0  0
   25.6180  -21.5820  -12.7701 C   0  0  0  0  0  0  0  0  0  0  0  0
   25.3572  -21.1989  -11.3948 C   0  0  0  0  0  0  0  0  0  0  0  0
   24.5811  -20.2569  -10.7922 C   0  0  0  0  0  0  0  0  0  0  0  0
   24.6435  -20.3707   -9.4355 N   0  0  0  0  0  0  0  0  0  0  0  0
   25.4701  -21.3991   -9.2150 C   0  0  0  0  0  0  0  0  0  0  0  0
   25.9035  -21.9037  -10.3542 N   0  0  0  0  0  0  0  0  0  0  0  0
   25.5496  -21.0834  -15.1435 C   0  0  0  0  0  0  0  0  0  0  0  0
   25.3261  -22.1835  -15.7715 O   0  0  0  0  0  0  0  0  0  0  0  0
   26.4374  -20.2162  -15.7634 N   0  0  0  0  0  0  0  0  0  0  0  0
   26.3895  -20.0609  -17.2344 C   0  0  1  0  0  0  0  0  0  0  0  0
   25.0150  -19.6304  -17.6471 C   0  0  0  0  0  0  0  0  0  0  0  0
   24.3801  -20.5749  -18.5952 C   0  0  0  0  0  0  0  0  0  0  0  0
   22.8779  -20.4385  -18.6688 C   0  0  0  0  0  0  0  0  0  0  0  0
   22.3329  -21.7324  -19.2707 C   0  0  0  0  0  0  0  0  0  0  0  0
   20.8691  -21.6501  -19.3085 N   0  0  0  0  0  0  0  0  0  0  0  0
   27.3989  -19.0547  -17.5936 C   0  0  0  0  0  0  0  0  0  0  0  0
   27.5343  -18.0142  -16.9240 O   0  0  0  0  0  0  0  0  0  0  0  0
   28.2455  -19.2127  -18.6888 O   0  0  0  0  0  0  0  0  0  0  0  0
  2  5  1  0
  2  1  1  1
  3  2  1  0
  4  3  1  0
  5  6  2  0
  7  5  1  0
  7  8  1  0
  8 15  1  0
  8  9  1  1
  9 10  1  0
 10 11  2  0
 11 12  1  0
 13 12  1  0
 14 10  1  0
 14 13  2  0
 15 16  2  0
 17 18  1  0
 17 15  1  0
 18 24  1  0
 18 19  1  1
 20 19  1  0
 21 22  1  0
 21 20  1  0
 23 22  1  0
 24 25  2  0
 24 26  1  0
M  END
$$$$
