CHK.pdb
     RDKit          3D

 26 26  0  0  1  0  0  0  0  0999 V2000
   14.0978   -7.2222  -17.3740 N   0  0  0  0  0  0  0  0  0  0  0  0
   15.0272   -6.3949  -16.6355 C   0  0  1  0  0  0  0  0  0  0  0  0
   14.4705   -4.9908  -16.4825 C   0  0  0  0  0  0  0  0  0  0  0  0
   14.5892   -4.0703  -18.0407 S   0  0  0  0  0  0  0  0  0  0  0  0
   15.2719   -6.9132  -15.2705 C   0  0  0  0  0  0  0  0  0  0  0  0
   14.3423   -7.4156  -14.5619 O   0  0  0  0  0  0  0  0  0  0  0  0
   16.5878   -6.8383  -14.7560 N   0  0  0  0  0  0  0  0  0  0  0  0
   16.8701   -7.4580  -13.4033 C   0  0  1  0  0  0  0  0  0  0  0  0
   18.1404   -8.2296  -13.6455 C   0  0  0  0  0  0  0  0  0  0  0  0
   18.0254   -9.5895  -14.1393 C   0  0  0  0  0  0  0  0  0  0  0  0
   16.9870  -10.4078  -14.4629 C   0  0  0  0  0  0  0  0  0  0  0  0
   17.4389  -11.5937  -14.9598 N   0  0  0  0  0  0  0  0  0  0  0  0
   18.7723  -11.4895  -14.9369 C   0  0  0  0  0  0  0  0  0  0  0  0
   19.1420  -10.3174  -14.4577 N   0  0  0  0  0  0  0  0  0  0  0  0
   17.2079   -6.2494  -12.5989 C   0  0  0  0  0  0  0  0  0  0  0  0
   17.8296   -5.3090  -13.2183 O   0  0  0  0  0  0  0  0  0  0  0  0
   16.9356   -6.0002  -11.2616 N   0  0  0  0  0  0  0  0  0  0  0  0
   17.2854   -4.6828  -10.6851 C   0  0  1  0  0  0  0  0  0  0  0  0
   16.1394   -3.7357  -10.8709 C   0  0  0  0  0  0  0  0  0  0  0  0
   16.3740   -2.4208  -10.2305 C   0  0  0  0  0  0  0  0  0  0  0  0
   15.2219   -1.4575  -10.3891 C   0  0  0  0  0  0  0  0  0  0  0  0
   15.6689   -0.1154   -9.8125 C   0  0  0  0  0  0  0  0  0  0  0  0
   14.5487    0.8271   -9.8996 N   0  0  0  0  0  0  0  0  0  0  0  0
   17.5780   -4.9006   -9.2613 C   0  0  0  0  0  0  0  0  0  0  0  0
   17.7810   -3.9417   -8.4940 O   0  0  0  0  0  0  0  0  0  0  0  0
   17.6421   -6.1763   -8.7048 O   0  0  0  0  0  0  0  0  0  0  0  0
  2  5  1  0
  2  1  1  1
  3  2  1  0
  4  3  1  0
  5  6  2  0
  7  5  1  0
  7  8  1  0
  8 15  1  0
  8  9  1  6
  9 10  1  0
 10 11  2  0
 11 12  1  0
 13 12  1  0
 14 10  1  0
 14 13  2  0
 15 16  2  0
 17 18  1  0
 17 15  1  0
 18 24  1  0
 18 19  1  1
 20 19  1  0
 21 22  1  0
 21 20  1  0
 23 22  1  0
 24 25  2  0
 24 26  1  0
M  END
$$$$
