CHK.pdb
     RDKit          3D

 26 26  0  0  1  0  0  0  0  0999 V2000
   24.2772   -4.2635  -15.8566 N   0  0  0  0  0  0  0  0  0  0  0  0
   24.6328   -4.3964  -17.2528 C   0  0  1  0  0  0  0  0  0  0  0  0
   25.4347   -3.1894  -17.7058 C   0  0  0  0  0  0  0  0  0  0  0  0
   26.8775   -2.9288  -16.6382 S   0  0  0  0  0  0  0  0  0  0  0  0
   25.4716   -5.5904  -17.5033 C   0  0  0  0  0  0  0  0  0  0  0  0
   26.6848   -5.6549  -17.1261 O   0  0  0  0  0  0  0  0  0  0  0  0
   24.8866   -6.6834  -18.1853 N   0  0  0  0  0  0  0  0  0  0  0  0
   25.6686   -7.9770  -18.2796 C   0  0  1  0  0  0  0  0  0  0  0  0
   25.6632   -8.4774  -16.8593 C   0  0  0  0  0  0  0  0  0  0  0  0
   26.1341   -9.8278  -16.6131 C   0  0  0  0  0  0  0  0  0  0  0  0
   26.6973  -10.8019  -17.3792 C   0  0  0  0  0  0  0  0  0  0  0  0
   27.0272  -11.8861  -16.6223 N   0  0  0  0  0  0  0  0  0  0  0  0
   26.6583  -11.5612  -15.3782 C   0  0  0  0  0  0  0  0  0  0  0  0
   26.1296  -10.3530  -15.3473 N   0  0  0  0  0  0  0  0  0  0  0  0
   24.7309   -8.8219  -19.0725 C   0  0  0  0  0  0  0  0  0  0  0  0
   23.4825   -8.7127  -18.7825 O   0  0  0  0  0  0  0  0  0  0  0  0
   25.0273   -9.7147  -20.0921 N   0  0  0  0  0  0  0  0  0  0  0  0
   23.9315  -10.4874  -20.7187 C   0  0  1  0  0  0  0  0  0  0  0  0
   24.4229  -11.1114  -21.9891 C   0  0  0  0  0  0  0  0  0  0  0  0
   23.3723  -11.8851  -22.6905 C   0  0  0  0  0  0  0  0  0  0  0  0
   23.8433  -12.5104  -23.9818 C   0  0  0  0  0  0  0  0  0  0  0  0
   22.6760  -13.3164  -24.5487 C   0  0  0  0  0  0  0  0  0  0  0  0
   23.1510  -14.0717  -25.7127 N   0  0  0  0  0  0  0  0  0  0  0  0
   23.5130  -11.5063  -19.7456 C   0  0  0  0  0  0  0  0  0  0  0  0
   24.3247  -12.3360  -19.2961 O   0  0  0  0  0  0  0  0  0  0  0  0
   22.2019  -11.5942  -19.2826 O   0  0  0  0  0  0  0  0  0  0  0  0
  2  5  1  0
  2  1  1  1
  3  2  1  0
  4  3  1  0
  5  6  2  0
  7  5  1  0
  7  8  1  0
  8 15  1  0
  8  9  1  1
  9 10  1  0
 10 11  2  0
 11 12  1  0
 13 12  1  0
 14 10  1  0
 14 13  2  0
 15 16  2  0
 17 18  1  0
 17 15  1  0
 18 24  1  0
 18 19  1  6
 20 19  1  0
 21 22  1  0
 21 20  1  0
 23 22  1  0
 24 25  2  0
 24 26  1  0
M  END
$$$$
