CHK.pdb
     RDKit          3D

 26 26  0  0  1  0  0  0  0  0999 V2000
   23.7746  -11.1876  -18.1196 N   0  0  0  0  0  0  0  0  0  0  0  0
   22.5919  -11.2916  -18.9466 C   0  0  1  0  0  0  0  0  0  0  0  0
   22.1651  -12.7434  -19.0693 C   0  0  0  0  0  0  0  0  0  0  0  0
   23.5913  -13.8550  -18.9299 S   0  0  0  0  0  0  0  0  0  0  0  0
   21.4446  -10.5514  -18.3743 C   0  0  0  0  0  0  0  0  0  0  0  0
   20.3089  -10.5179  -18.9467 O   0  0  0  0  0  0  0  0  0  0  0  0
   21.6378   -9.8662  -17.1515 N   0  0  0  0  0  0  0  0  0  0  0  0
   20.4727   -9.0981  -16.5629 C   0  0  1  0  0  0  0  0  0  0  0  0
   20.1031   -9.9203  -15.3567 C   0  0  0  0  0  0  0  0  0  0  0  0
   18.9161  -10.7511  -15.4388 C   0  0  0  0  0  0  0  0  0  0  0  0
   17.9977  -11.0187  -16.4071 C   0  0  0  0  0  0  0  0  0  0  0  0
   17.0988  -11.9503  -15.9810 N   0  0  0  0  0  0  0  0  0  0  0  0
   17.4813  -12.2512  -14.7349 C   0  0  0  0  0  0  0  0  0  0  0  0
   18.5500  -11.5576  -14.3930 N   0  0  0  0  0  0  0  0  0  0  0  0
   21.1552   -7.8604  -16.0891 C   0  0  0  0  0  0  0  0  0  0  0  0
   22.3399   -8.0111  -15.6114 O   0  0  0  0  0  0  0  0  0  0  0  0
   20.6804   -6.5570  -16.0983 N   0  0  0  0  0  0  0  0  0  0  0  0
   21.5104   -5.4803  -15.5136 C   0  0  1  0  0  0  0  0  0  0  0  0
   21.0539   -4.1545  -16.0415 C   0  0  0  0  0  0  0  0  0  0  0  0
   21.8556   -3.0237  -15.5193 C   0  0  0  0  0  0  0  0  0  0  0  0
   21.4413   -1.6821  -16.0751 C   0  0  0  0  0  0  0  0  0  0  0  0
   22.4380   -0.6475  -15.5558 C   0  0  0  0  0  0  0  0  0  0  0  0
   22.1635    0.6358  -16.2104 N   0  0  0  0  0  0  0  0  0  0  0  0
   21.3539   -5.5611  -14.0544 C   0  0  0  0  0  0  0  0  0  0  0  0
   20.2918   -5.9626  -13.5443 O   0  0  0  0  0  0  0  0  0  0  0  0
   22.3743   -5.1968  -13.1784 O   0  0  0  0  0  0  0  0  0  0  0  0
  2  5  1  0
  2  1  1  1
  3  2  1  0
  4  3  1  0
  5  6  2  0
  7  5  1  0
  7  8  1  0
  8 15  1  0
  8  9  1  1
  9 10  1  0
 10 11  2  0
 11 12  1  0
 13 12  1  0
 14 10  1  0
 14 13  2  0
 15 16  2  0
 17 18  1  0
 17 15  1  0
 18 24  1  0
 18 19  1  6
 20 19  1  0
 21 22  1  0
 21 20  1  0
 23 22  1  0
 24 25  2  0
 24 26  1  0
M  END
$$$$
