CHK.pdb
     RDKit          3D

 26 26  0  0  1  0  0  0  0  0999 V2000
   23.5179  -20.0719  -18.7510 N   0  0  0  0  0  0  0  0  0  0  0  0
   22.9935  -21.4185  -18.6791 C   0  0  1  0  0  0  0  0  0  0  0  0
   23.7239  -22.3177  -19.6603 C   0  0  0  0  0  0  0  0  0  0  0  0
   22.8972  -22.3266  -21.2746 S   0  0  0  0  0  0  0  0  0  0  0  0
   23.1689  -22.0141  -17.3351 C   0  0  0  0  0  0  0  0  0  0  0  0
   24.2282  -22.6363  -17.0049 O   0  0  0  0  0  0  0  0  0  0  0  0
   22.1134  -21.8758  -16.4030 N   0  0  0  0  0  0  0  0  0  0  0  0
   22.4043  -22.1366  -14.9397 C   0  0  1  0  0  0  0  0  0  0  0  0
   23.2505  -20.9537  -14.5493 C   0  0  0  0  0  0  0  0  0  0  0  0
   24.6859  -21.0533  -14.7388 C   0  0  0  0  0  0  0  0  0  0  0  0
   25.5167  -21.9672  -15.3111 C   0  0  0  0  0  0  0  0  0  0  0  0
   26.8084  -21.5331  -15.2860 N   0  0  0  0  0  0  0  0  0  0  0  0
   26.7568  -20.3367  -14.6896 C   0  0  0  0  0  0  0  0  0  0  0  0
   25.5168  -20.0321  -14.3583 N   0  0  0  0  0  0  0  0  0  0  0  0
   21.0509  -21.9561  -14.3416 C   0  0  0  0  0  0  0  0  0  0  0  0
   20.3144  -21.0411  -14.8657 O   0  0  0  0  0  0  0  0  0  0  0  0
   20.4740  -22.6517  -13.2890 N   0  0  0  0  0  0  0  0  0  0  0  0
   19.0901  -22.3256  -12.8783 C   0  0  1  0  0  0  0  0  0  0  0  0
   18.5657  -23.4079  -11.9847 C   0  0  0  0  0  0  0  0  0  0  0  0
   19.0546  -23.2869  -10.5917 C   0  0  0  0  0  0  0  0  0  0  0  0
   18.6452  -24.4392   -9.7057 C   0  0  0  0  0  0  0  0  0  0  0  0
   19.3336  -24.2419   -8.3563 C   0  0  0  0  0  0  0  0  0  0  0  0
   18.9771  -25.3636   -7.4813 N   0  0  0  0  0  0  0  0  0  0  0  0
   19.1415  -21.0317  -12.1830 C   0  0  0  0  0  0  0  0  0  0  0  0
   18.1005  -20.3997  -11.9258 O   0  0  0  0  0  0  0  0  0  0  0  0
   20.3439  -20.4539  -11.7812 O   0  0  0  0  0  0  0  0  0  0  0  0
  2  5  1  0
  2  1  1  1
  3  2  1  0
  4  3  1  0
  5  6  2  0
  7  5  1  0
  7  8  1  0
  8 15  1  0
  8  9  1  1
  9 10  1  0
 10 11  2  0
 11 12  1  0
 13 12  1  0
 14 10  1  0
 14 13  2  0
 15 16  2  0
 17 18  1  0
 17 15  1  0
 18 24  1  0
 18 19  1  1
 20 19  1  0
 21 22  1  0
 21 20  1  0
 23 22  1  0
 24 25  2  0
 24 26  1  0
M  END
$$$$
