CHK.pdb
     RDKit          3D

 26 26  0  0  1  0  0  0  0  0999 V2000
   14.6231  -13.4979  -12.4168 N   0  0  0  0  0  0  0  0  0  0  0  0
   15.6537  -12.6025  -11.9376 C   0  0  1  0  0  0  0  0  0  0  0  0
   16.7990  -12.5427  -12.9324 C   0  0  0  0  0  0  0  0  0  0  0  0
   18.0927  -13.7408  -12.5081 S   0  0  0  0  0  0  0  0  0  0  0  0
   15.1556  -11.2185  -11.7692 C   0  0  0  0  0  0  0  0  0  0  0  0
   14.5078  -10.6176  -12.6845 O   0  0  0  0  0  0  0  0  0  0  0  0
   15.4188  -10.5609  -10.5443 N   0  0  0  0  0  0  0  0  0  0  0  0
   14.7571   -9.2231  -10.2870 C   0  0  1  0  0  0  0  0  0  0  0  0
   14.0097   -9.4596   -9.0013 C   0  0  0  0  0  0  0  0  0  0  0  0
   12.6463   -8.9708   -8.9085 C   0  0  0  0  0  0  0  0  0  0  0  0
   11.7938   -8.3389   -9.7609 C   0  0  0  0  0  0  0  0  0  0  0  0
   10.5711   -8.1637   -9.1849 N   0  0  0  0  0  0  0  0  0  0  0  0
   10.6867   -8.6997   -7.9647 C   0  0  0  0  0  0  0  0  0  0  0  0
   11.9003   -9.1820   -7.7785 N   0  0  0  0  0  0  0  0  0  0  0  0
   15.9419   -8.3705   -9.9845 C   0  0  0  0  0  0  0  0  0  0  0  0
   16.7622   -8.8273   -9.1054 O   0  0  0  0  0  0  0  0  0  0  0  0
   16.2822   -7.1421  -10.5319 N   0  0  0  0  0  0  0  0  0  0  0  0
   17.4062   -6.3762   -9.9486 C   0  0  1  0  0  0  0  0  0  0  0  0
   18.4319   -6.1090  -11.0075 C   0  0  0  0  0  0  0  0  0  0  0  0
   19.1174   -7.3403  -11.4639 C   0  0  0  0  0  0  0  0  0  0  0  0
   20.2366   -7.0805  -12.4440 C   0  0  0  0  0  0  0  0  0  0  0  0
   20.6520   -8.4297  -13.0275 C   0  0  0  0  0  0  0  0  0  0  0  0
   21.7122   -8.2051  -14.0156 N   0  0  0  0  0  0  0  0  0  0  0  0
   16.8445   -5.1267   -9.4161 C   0  0  0  0  0  0  0  0  0  0  0  0
   15.7316   -4.7130   -9.7898 O   0  0  0  0  0  0  0  0  0  0  0  0
   17.5213   -4.3511   -8.4772 O   0  0  0  0  0  0  0  0  0  0  0  0
  2  5  1  0
  2  1  1  6
  3  2  1  0
  4  3  1  0
  5  6  2  0
  7  5  1  0
  7  8  1  0
  8 15  1  0
  8  9  1  1
  9 10  1  0
 10 11  2  0
 11 12  1  0
 13 12  1  0
 14 10  1  0
 14 13  2  0
 15 16  2  0
 17 18  1  0
 17 15  1  0
 18 24  1  0
 18 19  1  6
 20 19  1  0
 21 22  1  0
 21 20  1  0
 23 22  1  0
 24 25  2  0
 24 26  1  0
M  END
$$$$
