CHK.pdb
     RDKit          3D

 26 26  0  0  1  0  0  0  0  0999 V2000
   26.1417  -18.8574  -15.8358 N   0  0  0  0  0  0  0  0  0  0  0  0
   25.4442  -17.6103  -15.6084 C   0  0  1  0  0  0  0  0  0  0  0  0
   26.3201  -16.4389  -16.0156 C   0  0  0  0  0  0  0  0  0  0  0  0
   27.8042  -16.3444  -14.9774 S   0  0  0  0  0  0  0  0  0  0  0  0
   24.1991  -17.5149  -16.4037 C   0  0  0  0  0  0  0  0  0  0  0  0
   24.1157  -17.9768  -17.5861 O   0  0  0  0  0  0  0  0  0  0  0  0
   23.0779  -16.8866  -15.8120 N   0  0  0  0  0  0  0  0  0  0  0  0
   21.7936  -16.8018  -16.6102 C   0  0  1  0  0  0  0  0  0  0  0  0
   20.7837  -17.4355  -15.6904 C   0  0  0  0  0  0  0  0  0  0  0  0
   20.4126  -18.8166  -15.9373 C   0  0  0  0  0  0  0  0  0  0  0  0
   20.7600  -19.7524  -16.8627 C   0  0  0  0  0  0  0  0  0  0  0  0
   20.1613  -20.9471  -16.5948 N   0  0  0  0  0  0  0  0  0  0  0  0
   19.4412  -20.7297  -15.4886 C   0  0  0  0  0  0  0  0  0  0  0  0
   19.5734  -19.4817  -15.0820 N   0  0  0  0  0  0  0  0  0  0  0  0
   21.5562  -15.3302  -16.6163 C   0  0  0  0  0  0  0  0  0  0  0  0
   21.8810  -14.6969  -15.5449 O   0  0  0  0  0  0  0  0  0  0  0  0
   21.0309  -14.5460  -17.6329 N   0  0  0  0  0  0  0  0  0  0  0  0
   21.0112  -13.0746  -17.4752 C   0  0  1  0  0  0  0  0  0  0  0  0
   21.3688  -12.4274  -18.7783 C   0  0  0  0  0  0  0  0  0  0  0  0
   21.3256  -10.9482  -18.7135 C   0  0  0  0  0  0  0  0  0  0  0  0
   21.5363  -10.2786  -20.0506 C   0  0  0  0  0  0  0  0  0  0  0  0
   21.5072   -8.7699  -19.8130 C   0  0  0  0  0  0  0  0  0  0  0  0
   21.9185   -8.0942  -21.0480 N   0  0  0  0  0  0  0  0  0  0  0  0
   19.6545  -12.7064  -17.0462 C   0  0  0  0  0  0  0  0  0  0  0  0
   18.6779  -13.4300  -17.3149 O   0  0  0  0  0  0  0  0  0  0  0  0
   19.3957  -11.5425  -16.3254 O   0  0  0  0  0  0  0  0  0  0  0  0
  2  5  1  0
  2  1  1  6
  3  2  1  0
  4  3  1  0
  5  6  2  0
  7  5  1  0
  7  8  1  0
  8 15  1  0
  8  9  1  1
  9 10  1  0
 10 11  2  0
 11 12  1  0
 13 12  1  0
 14 10  1  0
 14 13  2  0
 15 16  2  0
 17 18  1  0
 17 15  1  0
 18 24  1  0
 18 19  1  6
 20 19  1  0
 21 22  1  0
 21 20  1  0
 23 22  1  0
 24 25  2  0
 24 26  1  0
M  END
$$$$
