CHK.pdb
     RDKit          3D

 26 26  0  0  1  0  0  0  0  0999 V2000
   19.0306  -27.4604   -2.9378 N   0  0  0  0  0  0  0  0  0  0  0  0
   19.0360  -27.4900   -1.4912 C   0  0  1  0  0  0  0  0  0  0  0  0
   20.2469  -26.7461   -0.9570 C   0  0  0  0  0  0  0  0  0  0  0  0
   21.7548  -27.2433   -1.8336 S   0  0  0  0  0  0  0  0  0  0  0  0
   17.8391  -26.8355   -0.9158 C   0  0  0  0  0  0  0  0  0  0  0  0
   16.8468  -26.4911   -1.6334 O   0  0  0  0  0  0  0  0  0  0  0  0
   17.8180  -26.5943    0.4783 N   0  0  0  0  0  0  0  0  0  0  0  0
   16.5166  -26.1522    1.1143 C   0  0  1  0  0  0  0  0  0  0  0  0
   15.6435  -27.3712    0.9756 C   0  0  0  0  0  0  0  0  0  0  0  0
   14.3233  -27.3331    1.5771 C   0  0  0  0  0  0  0  0  0  0  0  0
   13.6160  -26.4069    2.2804 C   0  0  0  0  0  0  0  0  0  0  0  0
   12.3607  -26.8602    2.5565 N   0  0  0  0  0  0  0  0  0  0  0  0
   12.3085  -28.0801    2.0099 C   0  0  0  0  0  0  0  0  0  0  0  0
   13.4529  -28.3810    1.4268 N   0  0  0  0  0  0  0  0  0  0  0  0
   16.9220  -26.0324    2.5437 C   0  0  0  0  0  0  0  0  0  0  0  0
   17.7775  -26.8947    2.9669 O   0  0  0  0  0  0  0  0  0  0  0  0
   16.4991  -25.1050    3.4849 N   0  0  0  0  0  0  0  0  0  0  0  0
   17.0232  -25.1857    4.8666 C   0  0  1  0  0  0  0  0  0  0  0  0
   16.6777  -23.9294    5.6063 C   0  0  0  0  0  0  0  0  0  0  0  0
   17.4001  -22.7439    5.0897 C   0  0  0  0  0  0  0  0  0  0  0  0
   16.9629  -21.4458    5.7253 C   0  0  0  0  0  0  0  0  0  0  0  0
   17.9015  -20.3525    5.2180 C   0  0  0  0  0  0  0  0  0  0  0  0
   17.4505  -19.0638    5.7533 N   0  0  0  0  0  0  0  0  0  0  0  0
   16.4074  -26.3648    5.4918 C   0  0  0  0  0  0  0  0  0  0  0  0
   15.4474  -26.9478    4.9553 O   0  0  0  0  0  0  0  0  0  0  0  0
   16.8617  -26.8836    6.7024 O   0  0  0  0  0  0  0  0  0  0  0  0
  2  5  1  0
  2  1  1  6
  3  2  1  0
  4  3  1  0
  5  6  2  0
  7  5  1  0
  7  8  1  0
  8 15  1  0
  8  9  1  1
  9 10  1  0
 10 11  2  0
 11 12  1  0
 13 12  1  0
 14 10  1  0
 14 13  2  0
 15 16  2  0
 17 18  1  0
 17 15  1  0
 18 24  1  0
 18 19  1  1
 20 19  1  0
 21 22  1  0
 21 20  1  0
 23 22  1  0
 24 25  2  0
 24 26  1  0
M  END
$$$$
