LDG.pdb
     RDKit          3D

 21 20  0  0  1  0  0  0  0  0999 V2000
   28.1516  -21.4093   -9.7747 C   0  0  0  0  0  0  0  0  0  0  0  0
   28.2981  -21.3100  -11.2723 C   0  0  2  0  0  0  0  0  0  0  0  0
   29.6558  -20.7324  -11.5657 C   0  0  0  0  0  0  0  0  0  0  0  0
   27.2409  -20.4434  -11.8952 C   0  0  0  0  0  0  0  0  0  0  0  0
   25.8795  -21.0428  -11.7787 C   0  0  2  0  0  0  0  0  0  0  0  0
   25.8836  -22.4166  -12.1475 N   0  0  0  0  0  0  0  0  0  0  0  0
   24.9044  -20.2705  -12.6301 C   0  0  0  0  0  0  0  0  0  0  0  0
   24.6962  -19.1028  -12.2717 O   0  0  0  0  0  0  0  0  0  0  0  0
   24.3072  -20.8822  -13.7367 N   0  0  0  0  0  0  0  0  0  0  0  0
   23.3359  -20.3053  -14.5950 C   0  0  1  0  0  0  0  0  0  0  0  0
   23.7406  -20.3210  -16.0440 C   0  0  0  0  0  0  0  0  0  0  0  0
   25.0275  -19.6554  -16.2612 C   0  0  0  0  0  0  0  0  0  0  0  0
   26.0540  -20.3759  -16.4374 O   0  0  0  0  0  0  0  0  0  0  0  0
   22.0103  -20.8545  -14.3275 C   0  0  0  0  0  0  0  0  0  0  0  0
   21.9315  -22.0303  -13.8333 O   0  0  0  0  0  0  0  0  0  0  0  0
   25.2011  -18.2718  -16.2903 O   0  0  0  0  0  0  0  0  0  0  0  0
   20.7928  -20.1685  -14.5804 N   0  0  0  0  0  0  0  0  0  0  0  0
   19.5530  -20.8659  -14.3978 C   0  0  0  0  0  0  0  0  0  0  0  0
   18.6692  -20.1183  -13.4705 C   0  0  0  0  0  0  0  0  0  0  0  0
   19.0366  -19.0893  -12.8711 O   0  0  0  0  0  0  0  0  0  0  0  0
   17.3803  -20.5736  -13.2535 O   0  0  0  0  0  0  0  0  0  0  0  0
  2  3  1  1
  2  1  1  0
  4  2  1  0
  5  4  1  0
  5  6  1  6
  7  5  1  0
  7  9  1  0
  8  7  2  0
 10 14  1  0
 10  9  1  0
 10 11  1  6
 12 11  1  0
 12 16  1  0
 13 12  2  0
 14 17  1  0
 15 14  2  0
 17 18  1  0
 19 18  1  0
 20 19  2  0
 21 19  1  0
M  END
$$$$
