LDG.pdb
     RDKit          3D

 21 20  0  0  1  0  0  0  0  0999 V2000
   19.7758  -14.5125  -17.4645 C   0  0  0  0  0  0  0  0  0  0  0  0
   18.5058  -13.7026  -17.5369 C   0  0  2  0  0  0  0  0  0  0  0  0
   17.7597  -14.1242  -18.7733 C   0  0  0  0  0  0  0  0  0  0  0  0
   18.7709  -12.2250  -17.5926 C   0  0  0  0  0  0  0  0  0  0  0  0
   19.4650  -11.7301  -16.3680 C   0  0  2  0  0  0  0  0  0  0  0  0
   18.9349  -12.3301  -15.1922 N   0  0  0  0  0  0  0  0  0  0  0  0
   19.3575  -10.2286  -16.2889 C   0  0  0  0  0  0  0  0  0  0  0  0
   19.8643   -9.6098  -17.2353 O   0  0  0  0  0  0  0  0  0  0  0  0
   18.7180   -9.6311  -15.1982 N   0  0  0  0  0  0  0  0  0  0  0  0
   18.5226   -8.2405  -14.9955 C   0  0  1  0  0  0  0  0  0  0  0  0
   17.1216   -7.8942  -14.5703 C   0  0  0  0  0  0  0  0  0  0  0  0
   16.9336   -6.4483  -14.4273 C   0  0  0  0  0  0  0  0  0  0  0  0
   17.2497   -5.7026  -15.4009 O   0  0  0  0  0  0  0  0  0  0  0  0
   19.5713   -7.6841  -14.1462 C   0  0  0  0  0  0  0  0  0  0  0  0
   19.8749   -8.3082  -13.0732 O   0  0  0  0  0  0  0  0  0  0  0  0
   16.4238   -5.8317  -13.2849 O   0  0  0  0  0  0  0  0  0  0  0  0
   20.2828   -6.4885  -14.4310 N   0  0  0  0  0  0  0  0  0  0  0  0
   21.3555   -6.0966  -13.5635 C   0  0  0  0  0  0  0  0  0  0  0  0
   21.9662   -4.8295  -14.0340 C   0  0  0  0  0  0  0  0  0  0  0  0
   21.5856   -4.2385  -15.0630 O   0  0  0  0  0  0  0  0  0  0  0  0
   23.0037   -4.2708  -13.3080 O   0  0  0  0  0  0  0  0  0  0  0  0
  2  3  1  6
  2  1  1  0
  4  2  1  0
  5  4  1  0
  5  6  1  1
  7  5  1  0
  7  9  1  0
  8  7  2  0
 10 14  1  0
 10  9  1  0
 10 11  1  1
 12 11  1  0
 12 16  1  0
 13 12  2  0
 14 17  1  0
 15 14  2  0
 17 18  1  0
 19 18  1  0
 20 19  2  0
 21 19  1  0
M  END
$$$$
