LDG.pdb
     RDKit          3D

 21 20  0  0  1  0  0  0  0  0999 V2000
   26.7166  -13.9756  -17.3085 C   0  0  0  0  0  0  0  0  0  0  0  0
   25.3036  -13.7625  -17.7901 C   0  0  2  0  0  0  0  0  0  0  0  0
   25.2060  -14.3063  -19.1893 C   0  0  0  0  0  0  0  0  0  0  0  0
   24.9104  -12.3126  -17.7888 C   0  0  0  0  0  0  0  0  0  0  0  0
   24.7280  -11.7789  -16.4074 C   0  0  2  0  0  0  0  0  0  0  0  0
   24.3563  -12.8078  -15.4981 N   0  0  0  0  0  0  0  0  0  0  0  0
   23.6948  -10.6814  -16.4138 C   0  0  0  0  0  0  0  0  0  0  0  0
   23.8936   -9.7703  -17.2297 O   0  0  0  0  0  0  0  0  0  0  0  0
   22.6075  -10.7413  -15.5365 N   0  0  0  0  0  0  0  0  0  0  0  0
   21.5473   -9.8028  -15.4448 C   0  0  1  0  0  0  0  0  0  0  0  0
   20.2056  -10.4440  -15.2160 C   0  0  0  0  0  0  0  0  0  0  0  0
   19.8356  -11.3462  -16.3094 C   0  0  0  0  0  0  0  0  0  0  0  0
   19.6637  -12.5725  -16.0439 O   0  0  0  0  0  0  0  0  0  0  0  0
   21.8772   -8.7319  -14.5094 C   0  0  0  0  0  0  0  0  0  0  0  0
   22.1988   -9.0507  -13.3145 O   0  0  0  0  0  0  0  0  0  0  0  0
   19.6552  -10.9440  -17.6327 O   0  0  0  0  0  0  0  0  0  0  0  0
   21.8653   -7.3501  -14.8370 N   0  0  0  0  0  0  0  0  0  0  0  0
   22.2577   -6.3975  -13.8392 C   0  0  0  0  0  0  0  0  0  0  0  0
   22.3016   -5.0315  -14.4154 C   0  0  0  0  0  0  0  0  0  0  0  0
   22.0609   -4.7976  -15.6155 O   0  0  0  0  0  0  0  0  0  0  0  0
   22.6227   -3.9639  -13.5952 O   0  0  0  0  0  0  0  0  0  0  0  0
  2  3  1  6
  2  1  1  0
  4  2  1  0
  5  4  1  0
  5  6  1  1
  7  5  1  0
  7  9  1  0
  8  7  2  0
 10 14  1  0
 10  9  1  0
 10 11  1  1
 12 11  1  0
 12 16  1  0
 13 12  2  0
 14 17  1  0
 15 14  2  0
 17 18  1  0
 19 18  1  0
 20 19  2  0
 21 19  1  0
M  END
$$$$
