LDG.pdb
     RDKit          3D

 21 20  0  0  1  0  0  0  0  0999 V2000
   17.4049  -12.7551  -14.8073 C   0  0  0  0  0  0  0  0  0  0  0  0
   17.8809  -12.3164  -16.1693 C   0  0  2  0  0  0  0  0  0  0  0  0
   17.7763  -13.4962  -17.0967 C   0  0  0  0  0  0  0  0  0  0  0  0
   19.2990  -11.8211  -16.1486 C   0  0  0  0  0  0  0  0  0  0  0  0
   19.4597  -10.6064  -15.2970 C   0  0  2  0  0  0  0  0  0  0  0  0
   18.4209   -9.6642  -15.5349 N   0  0  0  0  0  0  0  0  0  0  0  0
   20.8080   -9.9800  -15.5464 C   0  0  0  0  0  0  0  0  0  0  0  0
   21.7833  -10.6954  -15.2773 O   0  0  0  0  0  0  0  0  0  0  0  0
   20.8903   -8.6774  -16.0483 N   0  0  0  0  0  0  0  0  0  0  0  0
   22.0788   -7.9747  -16.3746 C   0  0  1  0  0  0  0  0  0  0  0  0
   22.2537   -7.7596  -17.8534 C   0  0  0  0  0  0  0  0  0  0  0  0
   22.4732   -9.0193  -18.5685 C   0  0  0  0  0  0  0  0  0  0  0  0
   21.6124   -9.3822  -19.4235 O   0  0  0  0  0  0  0  0  0  0  0  0
   22.2113   -6.7678  -15.5644 C   0  0  0  0  0  0  0  0  0  0  0  0
   23.2527   -6.0445  -15.7230 O   0  0  0  0  0  0  0  0  0  0  0  0
   23.5752   -9.8518  -18.3731 O   0  0  0  0  0  0  0  0  0  0  0  0
   21.2566   -6.3383  -14.6047 N   0  0  0  0  0  0  0  0  0  0  0  0
   21.5153   -5.1425  -13.8564 C   0  0  0  0  0  0  0  0  0  0  0  0
   21.1621   -3.9441  -14.6558 C   0  0  0  0  0  0  0  0  0  0  0  0
   20.8333   -4.0069  -15.8561 O   0  0  0  0  0  0  0  0  0  0  0  0
   21.1963   -2.6982  -14.0539 O   0  0  0  0  0  0  0  0  0  0  0  0
  2  3  1  6
  2  1  1  0
  4  2  1  0
  5  4  1  0
  5  6  1  6
  7  5  1  0
  7  9  1  0
  8  7  2  0
 10 14  1  0
 10  9  1  0
 10 11  1  6
 12 11  1  0
 12 16  1  0
 13 12  2  0
 14 17  1  0
 15 14  2  0
 17 18  1  0
 19 18  1  0
 20 19  2  0
 21 19  1  0
M  END
$$$$
