LDG.pdb
     RDKit          3D

 21 20  0  0  1  0  0  0  0  0999 V2000
   26.0491  -13.1093  -15.5819 C   0  0  0  0  0  0  0  0  0  0  0  0
   26.3959  -12.2449  -16.7679 C   0  0  2  0  0  0  0  0  0  0  0  0
   27.8411  -11.8467  -16.6417 C   0  0  0  0  0  0  0  0  0  0  0  0
   25.5425  -11.0111  -16.8468 C   0  0  0  0  0  0  0  0  0  0  0  0
   24.0937  -11.3360  -16.9946 C   0  0  2  0  0  0  0  0  0  0  0  0
   23.8536  -12.1221  -18.1557 N   0  0  0  0  0  0  0  0  0  0  0  0
   23.2851  -10.0647  -17.0413 C   0  0  0  0  0  0  0  0  0  0  0  0
   23.5161   -9.3242  -18.0076 O   0  0  0  0  0  0  0  0  0  0  0  0
   22.3525   -9.7934  -16.0353 N   0  0  0  0  0  0  0  0  0  0  0  0
   21.4584   -8.6927  -15.9911 C   0  0  1  0  0  0  0  0  0  0  0  0
   20.0322   -9.0970  -15.7336 C   0  0  0  0  0  0  0  0  0  0  0  0
   19.5399  -10.0416  -16.7395 C   0  0  0  0  0  0  0  0  0  0  0  0
   19.1073  -11.1653  -16.3471 O   0  0  0  0  0  0  0  0  0  0  0  0
   21.9626   -7.6451  -15.1085 C   0  0  0  0  0  0  0  0  0  0  0  0
   22.3198   -7.9713  -13.9258 O   0  0  0  0  0  0  0  0  0  0  0  0
   19.5120   -9.7856  -18.1103 O   0  0  0  0  0  0  0  0  0  0  0  0
   22.0844   -6.2785  -15.4751 N   0  0  0  0  0  0  0  0  0  0  0  0
   22.6550   -5.3569  -14.5360 C   0  0  0  0  0  0  0  0  0  0  0  0
   21.6133   -4.8481  -13.6108 C   0  0  0  0  0  0  0  0  0  0  0  0
   20.4305   -5.2390  -13.6461 O   0  0  0  0  0  0  0  0  0  0  0  0
   21.9576   -3.8984  -12.6647 O   0  0  0  0  0  0  0  0  0  0  0  0
  2  3  1  1
  2  1  1  0
  4  2  1  0
  5  4  1  0
  5  6  1  6
  7  5  1  0
  7  9  1  0
  8  7  2  0
 10 14  1  0
 10  9  1  0
 10 11  1  1
 12 11  1  0
 12 16  1  0
 13 12  2  0
 14 17  1  0
 15 14  2  0
 17 18  1  0
 19 18  1  0
 20 19  2  0
 21 19  1  0
M  END
$$$$
