LDG.pdb
     RDKit          3D

 21 20  0  0  1  0  0  0  0  0999 V2000
   20.7252  -13.2640  -16.8832 C   0  0  0  0  0  0  0  0  0  0  0  0
   19.3168  -12.8604  -17.2406 C   0  0  2  0  0  0  0  0  0  0  0  0
   18.9282  -13.6003  -18.4914 C   0  0  0  0  0  0  0  0  0  0  0  0
   19.1860  -11.3821  -17.4732 C   0  0  0  0  0  0  0  0  0  0  0  0
   19.4194  -10.5925  -16.2288 C   0  0  2  0  0  0  0  0  0  0  0  0
   18.6741  -11.1142  -15.1353 N   0  0  0  0  0  0  0  0  0  0  0  0
   19.0672   -9.1461  -16.4655 C   0  0  0  0  0  0  0  0  0  0  0  0
   19.0876   -8.7820  -17.6498 O   0  0  0  0  0  0  0  0  0  0  0  0
   18.7476   -8.3195  -15.3838 N   0  0  0  0  0  0  0  0  0  0  0  0
   18.3070   -6.9727  -15.4551 C   0  0  1  0  0  0  0  0  0  0  0  0
   16.8425   -6.8109  -15.1506 C   0  0  0  0  0  0  0  0  0  0  0  0
   16.4136   -5.4133  -15.2471 C   0  0  0  0  0  0  0  0  0  0  0  0
   16.8486   -4.7170  -16.2114 O   0  0  0  0  0  0  0  0  0  0  0  0
   19.1878   -6.0939  -14.6920 C   0  0  0  0  0  0  0  0  0  0  0  0
   19.0865   -6.0944  -13.4182 O   0  0  0  0  0  0  0  0  0  0  0  0
   15.5501   -4.7926  -14.3447 O   0  0  0  0  0  0  0  0  0  0  0  0
   20.1566   -5.2316  -15.2707 N   0  0  0  0  0  0  0  0  0  0  0  0
   20.8609   -4.3129  -14.4242 C   0  0  0  0  0  0  0  0  0  0  0  0
   21.9251   -5.0165  -13.6676 C   0  0  0  0  0  0  0  0  0  0  0  0
   22.7119   -4.4259  -12.9027 O   0  0  0  0  0  0  0  0  0  0  0  0
   22.0597   -6.3867  -13.8097 O   0  0  0  0  0  0  0  0  0  0  0  0
  2  3  1  6
  2  1  1  0
  4  2  1  0
  5  4  1  0
  5  6  1  1
  7  5  1  0
  7  9  1  0
  8  7  2  0
 10 14  1  0
 10  9  1  0
 10 11  1  1
 12 11  1  0
 12 16  1  0
 13 12  2  0
 14 17  1  0
 15 14  2  0
 17 18  1  0
 19 18  1  0
 20 19  2  0
 21 19  1  0
M  END
$$$$
