LDG.pdb
     RDKit          3D

 21 20  0  0  1  0  0  0  0  0999 V2000
   32.5712  -35.0691   -6.8507 C   0  0  0  0  0  0  0  0  0  0  0  0
   32.1203  -33.7570   -6.2595 C   0  0  2  0  0  0  0  0  0  0  0  0
   33.2726  -32.7935   -6.3423 C   0  0  0  0  0  0  0  0  0  0  0  0
   31.6844  -33.8931   -4.8283 C   0  0  0  0  0  0  0  0  0  0  0  0
   30.4560  -34.7288   -4.6899 C   0  0  2  0  0  0  0  0  0  0  0  0
   29.3589  -34.1601   -5.3945 N   0  0  0  0  0  0  0  0  0  0  0  0
   30.1147  -34.9014   -3.2318 C   0  0  0  0  0  0  0  0  0  0  0  0
   29.5433  -33.9374   -2.7030 O   0  0  0  0  0  0  0  0  0  0  0  0
   30.4446  -36.0903   -2.5738 N   0  0  0  0  0  0  0  0  0  0  0  0
   30.2616  -36.3675   -1.1944 C   0  0  1  0  0  0  0  0  0  0  0  0
   29.4240  -37.5915   -0.9415 C   0  0  0  0  0  0  0  0  0  0  0  0
   28.0050  -37.3511   -1.2155 C   0  0  0  0  0  0  0  0  0  0  0  0
   27.3474  -38.2539   -1.8124 O   0  0  0  0  0  0  0  0  0  0  0  0
   31.5362  -36.3450   -0.4835 C   0  0  0  0  0  0  0  0  0  0  0  0
   32.5743  -36.7777   -1.0899 O   0  0  0  0  0  0  0  0  0  0  0  0
   27.3222  -36.1883   -0.8590 O   0  0  0  0  0  0  0  0  0  0  0  0
   31.7042  -35.8725    0.8452 N   0  0  0  0  0  0  0  0  0  0  0  0
   33.0124  -35.9041    1.4321 C   0  0  0  0  0  0  0  0  0  0  0  0
   32.9432  -35.5547    2.8720 C   0  0  0  0  0  0  0  0  0  0  0  0
   32.3223  -36.2438    3.7042 O   0  0  0  0  0  0  0  0  0  0  0  0
   33.5913  -34.4174    3.3216 O   0  0  0  0  0  0  0  0  0  0  0  0
  2  3  1  1
  2  1  1  0
  4  2  1  0
  5  4  1  0
  5  6  1  6
  7  5  1  0
  7  9  1  0
  8  7  2  0
 10 14  1  0
 10  9  1  0
 10 11  1  6
 12 11  1  0
 12 16  1  0
 13 12  2  0
 14 17  1  0
 15 14  2  0
 17 18  1  0
 19 18  1  0
 20 19  2  0
 21 19  1  0
M  END
$$$$
