LDG.pdb
     RDKit          3D

 21 20  0  0  1  0  0  0  0  0999 V2000
   20.4066  -14.2078  -16.4289 C   0  0  0  0  0  0  0  0  0  0  0  0
   19.1990  -13.3094  -16.5223 C   0  0  2  0  0  0  0  0  0  0  0  0
   18.0209  -14.1592  -16.9133 C   0  0  0  0  0  0  0  0  0  0  0  0
   19.3790  -12.2103  -17.5304 C   0  0  0  0  0  0  0  0  0  0  0  0
   20.2306  -11.1012  -17.0096 C   0  0  2  0  0  0  0  0  0  0  0  0
   20.6490  -11.3514  -15.6732 N   0  0  0  0  0  0  0  0  0  0  0  0
   19.4807   -9.7963  -17.0926 C   0  0  0  0  0  0  0  0  0  0  0  0
   19.1857   -9.4257  -18.2376 O   0  0  0  0  0  0  0  0  0  0  0  0
   19.1666   -9.0962  -15.9235 N   0  0  0  0  0  0  0  0  0  0  0  0
   18.5806   -7.8064  -15.8466 C   0  0  1  0  0  0  0  0  0  0  0  0
   17.1588   -7.8293  -15.3549 C   0  0  0  0  0  0  0  0  0  0  0  0
   16.4817   -6.5489  -15.5755 C   0  0  0  0  0  0  0  0  0  0  0  0
   16.3424   -6.1407  -16.7662 O   0  0  0  0  0  0  0  0  0  0  0  0
   19.4547   -6.8770  -15.1376 C   0  0  0  0  0  0  0  0  0  0  0  0
   19.2120   -6.6390  -13.9058 O   0  0  0  0  0  0  0  0  0  0  0  0
   15.9733   -5.7435  -14.5566 O   0  0  0  0  0  0  0  0  0  0  0  0
   20.5641   -6.2134  -15.7257 N   0  0  0  0  0  0  0  0  0  0  0  0
   21.2533   -5.2098  -14.9677 C   0  0  0  0  0  0  0  0  0  0  0  0
   21.9712   -5.8252  -13.8249 C   0  0  0  0  0  0  0  0  0  0  0  0
   22.7524   -5.1846  -13.0953 O   0  0  0  0  0  0  0  0  0  0  0  0
   21.7735   -7.1668  -13.5482 O   0  0  0  0  0  0  0  0  0  0  0  0
  2  3  1  6
  2  1  1  0
  4  2  1  0
  5  4  1  0
  5  6  1  1
  7  5  1  0
  7  9  1  0
  8  7  2  0
 10 14  1  0
 10  9  1  0
 10 11  1  1
 12 11  1  0
 12 16  1  0
 13 12  2  0
 14 17  1  0
 15 14  2  0
 17 18  1  0
 19 18  1  0
 20 19  2  0
 21 19  1  0
M  END
$$$$
