LDG.pdb
     RDKit          3D

 21 20  0  0  1  0  0  0  0  0999 V2000
   24.7248  -13.6910  -15.4572 C   0  0  0  0  0  0  0  0  0  0  0  0
   23.8542  -13.2876  -16.6206 C   0  0  2  0  0  0  0  0  0  0  0  0
   24.5458  -13.7178  -17.8853 C   0  0  0  0  0  0  0  0  0  0  0  0
   23.6073  -11.8064  -16.6649 C   0  0  0  0  0  0  0  0  0  0  0  0
   22.8703  -11.3212  -15.4617 C   0  0  2  0  0  0  0  0  0  0  0  0
   21.7001  -12.0939  -15.2229 N   0  0  0  0  0  0  0  0  0  0  0  0
   22.5166   -9.8655  -15.6293 C   0  0  0  0  0  0  0  0  0  0  0  0
   23.4574   -9.1240  -15.9463 O   0  0  0  0  0  0  0  0  0  0  0  0
   21.2000   -9.4395  -15.4281 N   0  0  0  0  0  0  0  0  0  0  0  0
   20.6974   -8.1298  -15.6405 C   0  0  1  0  0  0  0  0  0  0  0  0
   19.2292   -8.1039  -15.9684 C   0  0  0  0  0  0  0  0  0  0  0  0
   18.9267   -8.8550  -17.1893 C   0  0  0  0  0  0  0  0  0  0  0  0
   18.0950   -9.8074  -17.1178 O   0  0  0  0  0  0  0  0  0  0  0  0
   21.0948   -7.2357  -14.5573 C   0  0  0  0  0  0  0  0  0  0  0  0
   21.1370   -7.7061  -13.3700 O   0  0  0  0  0  0  0  0  0  0  0  0
   19.4940   -8.5897  -18.4356 O   0  0  0  0  0  0  0  0  0  0  0  0
   21.4399   -5.8693  -14.7322 N   0  0  0  0  0  0  0  0  0  0  0  0
   21.8564   -5.1078  -13.5905 C   0  0  0  0  0  0  0  0  0  0  0  0
   22.2840   -3.7484  -14.0019 C   0  0  0  0  0  0  0  0  0  0  0  0
   22.2807   -3.3708  -15.1895 O   0  0  0  0  0  0  0  0  0  0  0  0
   22.7069   -2.8532  -13.0347 O   0  0  0  0  0  0  0  0  0  0  0  0
  2  3  1  6
  2  1  1  0
  4  2  1  0
  5  4  1  0
  5  6  1  6
  7  5  1  0
  7  9  1  0
  8  7  2  0
 10 14  1  0
 10  9  1  0
 10 11  1  1
 12 11  1  0
 12 16  1  0
 13 12  2  0
 14 17  1  0
 15 14  2  0
 17 18  1  0
 19 18  1  0
 20 19  2  0
 21 19  1  0
M  END
$$$$
