LDG.pdb
     RDKit          3D

 21 20  0  0  1  0  0  0  0  0999 V2000
   21.5417  -13.5222  -18.2742 C   0  0  0  0  0  0  0  0  0  0  0  0
   20.0582  -13.3366  -18.0766 C   0  0  2  0  0  0  0  0  0  0  0  0
   19.3541  -13.9732  -19.2436 C   0  0  0  0  0  0  0  0  0  0  0  0
   19.6688  -11.8884  -17.9873 C   0  0  0  0  0  0  0  0  0  0  0  0
   20.3224  -11.1986  -16.8369 C   0  0  2  0  0  0  0  0  0  0  0  0
   20.1310  -11.9167  -15.6240 N   0  0  0  0  0  0  0  0  0  0  0  0
   19.7876   -9.7950  -16.7095 C   0  0  0  0  0  0  0  0  0  0  0  0
   19.9913   -9.0590  -17.6853 O   0  0  0  0  0  0  0  0  0  0  0  0
   19.1155   -9.4071  -15.5462 N   0  0  0  0  0  0  0  0  0  0  0  0
   18.5703   -8.1253  -15.2769 C   0  0  1  0  0  0  0  0  0  0  0  0
   17.1730   -8.1797  -14.7215 C   0  0  0  0  0  0  0  0  0  0  0  0
   16.2189   -8.7255  -15.6900 C   0  0  0  0  0  0  0  0  0  0  0  0
   15.2591   -9.4288  -15.2564 O   0  0  0  0  0  0  0  0  0  0  0  0
   19.5025   -7.3138  -14.5003 C   0  0  0  0  0  0  0  0  0  0  0  0
   19.0854   -6.2043  -14.0227 O   0  0  0  0  0  0  0  0  0  0  0  0
   16.2936   -8.5200  -17.0676 O   0  0  0  0  0  0  0  0  0  0  0  0
   20.8508   -7.6738  -14.2367 N   0  0  0  0  0  0  0  0  0  0  0  0
   21.6429   -6.8254  -13.3943 C   0  0  0  0  0  0  0  0  0  0  0  0
   22.0097   -5.5797  -14.1109 C   0  0  0  0  0  0  0  0  0  0  0  0
   21.6486   -5.3428  -15.2799 O   0  0  0  0  0  0  0  0  0  0  0  0
   22.7860   -4.6337  -13.4644 O   0  0  0  0  0  0  0  0  0  0  0  0
  2  3  1  6
  2  1  1  0
  4  2  1  0
  5  4  1  0
  5  6  1  1
  7  5  1  0
  7  9  1  0
  8  7  2  0
 10 14  1  0
 10  9  1  0
 10 11  1  1
 12 11  1  0
 12 16  1  0
 13 12  2  0
 14 17  1  0
 15 14  2  0
 17 18  1  0
 19 18  1  0
 20 19  2  0
 21 19  1  0
M  END
$$$$
