LDG.pdb
     RDKit          3D

 21 20  0  0  1  0  0  0  0  0999 V2000
   27.3396  -18.2800   -6.7253 C   0  0  0  0  0  0  0  0  0  0  0  0
   27.6752  -19.7498   -6.7592 C   0  0  2  0  0  0  0  0  0  0  0  0
   29.1417  -19.8953   -6.4571 C   0  0  0  0  0  0  0  0  0  0  0  0
   27.3748  -20.3755   -8.0915 C   0  0  0  0  0  0  0  0  0  0  0  0
   25.9280  -20.2830   -8.4447 C   0  0  2  0  0  0  0  0  0  0  0  0
   25.1137  -20.9256   -7.4714 N   0  0  0  0  0  0  0  0  0  0  0  0
   25.6936  -20.8819   -9.8079 C   0  0  0  0  0  0  0  0  0  0  0  0
   26.0896  -22.0473   -9.9507 O   0  0  0  0  0  0  0  0  0  0  0  0
   25.0668  -20.1264  -10.8038 N   0  0  0  0  0  0  0  0  0  0  0  0
   24.8298  -20.5305  -12.1430 C   0  0  1  0  0  0  0  0  0  0  0  0
   23.5563  -19.9697  -12.7153 C   0  0  0  0  0  0  0  0  0  0  0  0
   22.3758  -20.4273  -11.9781 C   0  0  0  0  0  0  0  0  0  0  0  0
   21.6231  -19.5566  -11.4498 O   0  0  0  0  0  0  0  0  0  0  0  0
   26.0137  -20.3182  -12.9700 C   0  0  0  0  0  0  0  0  0  0  0  0
   26.4874  -19.1344  -13.0549 O   0  0  0  0  0  0  0  0  0  0  0  0
   22.0193  -21.7663  -11.8191 O   0  0  0  0  0  0  0  0  0  0  0  0
   26.6806  -21.3429  -13.6926 N   0  0  0  0  0  0  0  0  0  0  0  0
   27.8325  -21.0018  -14.4760 C   0  0  0  0  0  0  0  0  0  0  0  0
   27.8300  -21.7520  -15.7555 C   0  0  0  0  0  0  0  0  0  0  0  0
   26.9039  -22.5173  -16.0868 O   0  0  0  0  0  0  0  0  0  0  0  0
   28.8960  -21.6042  -16.6257 O   0  0  0  0  0  0  0  0  0  0  0  0
  2  3  1  6
  2  1  1  0
  4  2  1  0
  5  4  1  0
  5  6  1  1
  7  5  1  0
  7  9  1  0
  8  7  2  0
 10 14  1  0
 10  9  1  0
 10 11  1  6
 12 11  1  0
 12 16  1  0
 13 12  2  0
 14 17  1  0
 15 14  2  0
 17 18  1  0
 19 18  1  0
 20 19  2  0
 21 19  1  0
M  END
$$$$
