RAE.pdb
     RDKit          3D

 26 25  0  0  1  0  0  0  0  0999 V2000
    9.2088  -14.5271   16.9035 N   0  0  0  0  0  0  0  0  0  0  0  0
    7.8409  -14.3493   17.2234 C   0  0  0  0  0  0  0  0  0  0  0  0
    7.1776  -13.3548   16.7590 N   0  0  0  0  0  0  0  0  0  0  0  0
    7.2026  -15.3079   18.0843 N   0  0  0  0  0  0  0  0  0  0  0  0
    6.7837  -14.9218   19.4127 C   0  0  0  0  0  0  0  0  0  0  0  0
    7.5531  -13.8113   20.0135 C   0  0  0  0  0  0  0  0  0  0  0  0
    7.1446  -13.3136   21.3596 C   0  0  0  0  0  0  0  0  0  0  0  0
    7.9895  -13.6899   22.5150 C   0  0  2  0  0  0  0  0  0  0  0  0
    9.3463  -13.1538   22.2820 N   0  0  0  0  0  0  0  0  0  0  0  0
    8.1496  -15.1158   22.8143 C   0  0  0  0  0  0  0  0  0  0  0  0
    7.1347  -15.8618   22.9393 O   0  0  0  0  0  0  0  0  0  0  0  0
    6.2077  -13.1061   16.9756 C   0  0  0  0  0  0  0  0  0  0  0  0
    8.9735  -17.9365   21.9040 C   0  0  2  0  0  0  0  0  0  0  0  0
    9.4715  -17.2292   23.1720 N   0  0  0  0  0  0  0  0  0  0  0  0
    9.4082  -15.7831   22.9913 C   0  0  0  0  0  0  0  0  0  0  0  0
   10.9029  -17.6010   23.2933 O   0  0  0  0  0  0  0  0  0  0  0  0
   11.2250  -18.8061   23.4234 N   0  0  0  0  0  0  0  0  0  0  0  0
   11.9420  -16.6597   23.2698 C   0  0  1  0  0  0  0  0  0  0  0  0
   13.3288  -16.9739   22.8684 C   0  0  0  0  0  0  0  0  0  0  0  0
   13.6797  -16.0399   21.7798 C   0  0  0  0  0  0  0  0  0  0  0  0
   15.1024  -16.0424   21.3883 C   0  0  0  0  0  0  0  0  0  0  0  0
   15.3730  -15.0347   20.3459 O   0  0  0  0  0  0  0  0  0  0  0  0
   14.8618  -13.8914   20.4830 C   0  0  0  0  0  0  0  0  0  0  0  0
   14.1141  -17.0631   24.0751 O   0  0  0  0  0  0  0  0  0  0  0  0
   13.6514  -16.7035   25.2160 O   0  0  0  0  0  0  0  0  0  0  0  0
   16.1778  -15.3030   19.2213 O   0  0  0  0  0  0  0  0  0  0  0  0
  2  1  1  0
  3  2  2  0
  4  2  1  0
  5  4  1  0
  6  5  1  0
  7  6  1  0
  8 10  1  0
  8  7  1  0
  8  9  1  6
 10 14  1  0
 11 10  2  0
 13 12  1  1
 14 13  1  0
 15 17  1  0
 15 13  1  0
 16 15  2  0
 18 17  1  0
 18 19  1  1
 19 20  1  0
 20 21  1  0
 21 25  1  0
 22 21  2  0
 23 18  1  0
 24 23  2  0
 26 23  1  0
M  END
$$$$
