RAE.pdb
     RDKit          3D

 26 25  0  0  1  0  0  0  0  0999 V2000
   10.2597  -12.7746   20.1206 N   0  0  0  0  0  0  0  0  0  0  0  0
    9.0986  -12.2319   19.5186 C   0  0  0  0  0  0  0  0  0  0  0  0
    8.7761  -11.0031   19.6941 N   0  0  0  0  0  0  0  0  0  0  0  0
    8.2802  -13.0867   18.7018 N   0  0  0  0  0  0  0  0  0  0  0  0
    7.8921  -14.3931   19.1835 C   0  0  0  0  0  0  0  0  0  0  0  0
    6.8145  -14.3920   20.1960 C   0  0  0  0  0  0  0  0  0  0  0  0
    6.2833  -15.7049   20.6660 C   0  0  0  0  0  0  0  0  0  0  0  0
    7.2523  -16.6798   21.2144 C   0  0  2  0  0  0  0  0  0  0  0  0
    6.6145  -18.0124   21.2042 N   0  0  0  0  0  0  0  0  0  0  0  0
    7.7481  -16.4645   22.5769 C   0  0  0  0  0  0  0  0  0  0  0  0
    8.6598  -15.6152   22.7999 O   0  0  0  0  0  0  0  0  0  0  0  0
    7.9593  -10.5196   19.3090 C   0  0  0  0  0  0  0  0  0  0  0  0
    6.7345  -17.0240   26.1284 C   0  0  2  0  0  0  0  0  0  0  0  0
    7.8269  -16.8646   25.0619 N   0  0  0  0  0  0  0  0  0  0  0  0
    7.2794  -17.1593   23.7424 C   0  0  0  0  0  0  0  0  0  0  0  0
    8.8333  -17.9104   25.3706 O   0  0  0  0  0  0  0  0  0  0  0  0
    8.8653  -18.9643   24.6917 N   0  0  0  0  0  0  0  0  0  0  0  0
    9.7743  -17.7851   26.4027 C   0  0  1  0  0  0  0  0  0  0  0  0
   11.1031  -18.4307   26.3883 C   0  0  0  0  0  0  0  0  0  0  0  0
   11.9017  -17.7401   25.3560 C   0  0  0  0  0  0  0  0  0  0  0  0
   13.3000  -18.1967   25.2380 C   0  0  0  0  0  0  0  0  0  0  0  0
   14.0083  -17.4807   24.1606 O   0  0  0  0  0  0  0  0  0  0  0  0
   13.4176  -17.3414   23.0565 C   0  0  0  0  0  0  0  0  0  0  0  0
   11.5489  -18.5237   27.7571 O   0  0  0  0  0  0  0  0  0  0  0  0
   11.0149  -17.8307   28.6950 O   0  0  0  0  0  0  0  0  0  0  0  0
   15.3026  -16.9496   24.3251 O   0  0  0  0  0  0  0  0  0  0  0  0
  2  1  1  0
  3  2  2  0
  4  2  1  0
  5  4  1  0
  6  5  1  0
  7  6  1  0
  8 10  1  0
  8  7  1  0
  8  9  1  1
 10 14  1  0
 11 10  2  0
 13 12  1  6
 14 13  1  0
 15 17  1  0
 15 13  1  0
 16 15  2  0
 18 17  1  0
 18 19  1  1
 19 20  1  0
 20 21  1  0
 21 25  1  0
 22 21  2  0
 23 18  1  0
 24 23  2  0
 26 23  1  0
M  END
$$$$
