RAE.pdb
     RDKit          3D

 26 25  0  0  1  0  0  0  0  0999 V2000
    9.8260  -13.6794   16.9597 N   0  0  0  0  0  0  0  0  0  0  0  0
    8.4869  -13.8004   16.5158 C   0  0  0  0  0  0  0  0  0  0  0  0
    7.9882  -12.9616   15.6837 N   0  0  0  0  0  0  0  0  0  0  0  0
    7.6885  -14.8863   17.0170 N   0  0  0  0  0  0  0  0  0  0  0  0
    8.1544  -15.6695   18.1389 C   0  0  0  0  0  0  0  0  0  0  0  0
    8.5698  -14.8842   19.3208 C   0  0  0  0  0  0  0  0  0  0  0  0
    9.1526  -15.6124   20.4857 C   0  0  0  0  0  0  0  0  0  0  0  0
    8.2507  -15.9334   21.6143 C   0  0  2  0  0  0  0  0  0  0  0  0
    6.8839  -15.5160   21.2394 N   0  0  0  0  0  0  0  0  0  0  0  0
    8.5324  -15.3203   22.9155 C   0  0  0  0  0  0  0  0  0  0  0  0
    9.6839  -15.4152   23.4324 O   0  0  0  0  0  0  0  0  0  0  0  0
    7.0403  -12.9685   15.2953 C   0  0  0  0  0  0  0  0  0  0  0  0
    6.7593  -13.2900   25.6131 C   0  0  2  0  0  0  0  0  0  0  0  0
    7.9830  -13.9268   24.9400 N   0  0  0  0  0  0  0  0  0  0  0  0
    7.5816  -14.5874   23.7029 C   0  0  0  0  0  0  0  0  0  0  0  0
    8.4442  -14.9799   25.8782 O   0  0  0  0  0  0  0  0  0  0  0  0
    7.7090  -15.9675   26.1170 N   0  0  0  0  0  0  0  0  0  0  0  0
    9.6855  -14.9339   26.5290 C   0  0  1  0  0  0  0  0  0  0  0  0
   10.1490  -15.9546   27.4914 C   0  0  0  0  0  0  0  0  0  0  0  0
   11.3793  -16.5450   26.9273 C   0  0  0  0  0  0  0  0  0  0  0  0
   11.1639  -17.5167   25.8379 C   0  0  0  0  0  0  0  0  0  0  0  0
   12.4438  -18.0471   25.3322 O   0  0  0  0  0  0  0  0  0  0  0  0
   13.5065  -17.6402   25.8729 C   0  0  0  0  0  0  0  0  0  0  0  0
   10.1282  -15.3495   28.8007 O   0  0  0  0  0  0  0  0  0  0  0  0
    9.9354  -14.0923   28.9660 O   0  0  0  0  0  0  0  0  0  0  0  0
   12.5156  -18.9852   24.2837 O   0  0  0  0  0  0  0  0  0  0  0  0
  2  1  1  0
  3  2  2  0
  4  2  1  0
  5  4  1  0
  6  5  1  0
  7  6  1  0
  8 10  1  0
  8  7  1  0
  8  9  1  6
 10 14  1  0
 11 10  2  0
 13 12  1  6
 14 13  1  0
 15 17  1  0
 15 13  1  0
 16 15  2  0
 18 17  1  0
 18 19  1  1
 19 20  1  0
 20 21  1  0
 21 25  1  0
 22 21  2  0
 23 18  1  0
 24 23  2  0
 26 23  1  0
M  END
$$$$
