RAE.pdb
     RDKit          3D

 26 25  0  0  1  0  0  0  0  0999 V2000
    8.9288  -15.3744   14.7174 N   0  0  0  0  0  0  0  0  0  0  0  0
    8.7610  -16.6567   15.2940 C   0  0  0  0  0  0  0  0  0  0  0  0
    9.4094  -17.6705   14.8508 N   0  0  0  0  0  0  0  0  0  0  0  0
    7.8446  -16.8058   16.3921 N   0  0  0  0  0  0  0  0  0  0  0  0
    7.1042  -15.6632   16.8772 C   0  0  0  0  0  0  0  0  0  0  0  0
    7.8905  -14.7036   17.6817 C   0  0  0  0  0  0  0  0  0  0  0  0
    7.8907  -14.8571   19.1660 C   0  0  0  0  0  0  0  0  0  0  0  0
    7.4648  -13.6936   19.9754 C   0  0  2  0  0  0  0  0  0  0  0  0
    7.9564  -12.4697   19.3096 N   0  0  0  0  0  0  0  0  0  0  0  0
    7.9171  -13.6219   21.3678 C   0  0  0  0  0  0  0  0  0  0  0  0
    9.1323  -13.3891   21.6351 O   0  0  0  0  0  0  0  0  0  0  0  0
    9.3096  -18.6449   15.1508 C   0  0  0  0  0  0  0  0  0  0  0  0
    6.5007  -13.7620   24.8993 C   0  0  1  0  0  0  0  0  0  0  0  0
    7.6338  -13.7925   23.8643 N   0  0  0  0  0  0  0  0  0  0  0  0
    7.0754  -13.8013   22.5167 C   0  0  0  0  0  0  0  0  0  0  0  0
    8.3202  -15.0918   24.0708 O   0  0  0  0  0  0  0  0  0  0  0  0
    7.7810  -16.1517   23.6726 N   0  0  0  0  0  0  0  0  0  0  0  0
    9.5679  -15.2058   24.7006 C   0  0  1  0  0  0  0  0  0  0  0  0
   10.2656  -16.4896   24.9193 C   0  0  0  0  0  0  0  0  0  0  0  0
   11.6599  -16.2989   24.4721 C   0  0  0  0  0  0  0  0  0  0  0  0
   12.5589  -17.4418   24.7231 C   0  0  0  0  0  0  0  0  0  0  0  0
   13.9246  -17.1656   24.2396 O   0  0  0  0  0  0  0  0  0  0  0  0
   14.1444  -16.0501   23.6967 C   0  0  0  0  0  0  0  0  0  0  0  0
    9.9504  -16.9257   26.2578 O   0  0  0  0  0  0  0  0  0  0  0  0
   10.2440  -18.1018   26.6768 O   0  0  0  0  0  0  0  0  0  0  0  0
   14.9776  -18.0924   24.3685 O   0  0  0  0  0  0  0  0  0  0  0  0
  2  1  1  0
  3  2  2  0
  4  2  1  0
  5  4  1  0
  6  5  1  0
  7  6  1  0
  8 10  1  0
  8  7  1  0
  8  9  1  6
 10 14  1  0
 11 10  2  0
 13 12  1  6
 14 13  1  0
 15 17  1  0
 15 13  1  0
 16 15  2  0
 18 17  1  0
 18 19  1  1
 19 20  1  0
 20 21  1  0
 21 25  1  0
 22 21  2  0
 23 18  1  0
 24 23  2  0
 26 23  1  0
M  END
$$$$
