RAE.pdb
     RDKit          3D

 26 25  0  0  1  0  0  0  0  0999 V2000
    7.9559  -12.6163   17.8733 N   0  0  0  0  0  0  0  0  0  0  0  0
    7.9513  -13.7694   17.0515 C   0  0  0  0  0  0  0  0  0  0  0  0
    8.3559  -13.7159   15.8356 N   0  0  0  0  0  0  0  0  0  0  0  0
    7.4818  -15.0105   17.6054 N   0  0  0  0  0  0  0  0  0  0  0  0
    7.0538  -15.0717   18.9846 C   0  0  0  0  0  0  0  0  0  0  0  0
    7.8107  -14.2055   19.9137 C   0  0  0  0  0  0  0  0  0  0  0  0
    7.4436  -14.2272   21.3599 C   0  0  0  0  0  0  0  0  0  0  0  0
    8.2128  -15.1263   22.2489 C   0  0  2  0  0  0  0  0  0  0  0  0
    7.8745  -16.5196   21.8924 N   0  0  0  0  0  0  0  0  0  0  0  0
    8.0077  -15.0037   23.6951 C   0  0  0  0  0  0  0  0  0  0  0  0
    7.3313  -15.8709   24.3217 O   0  0  0  0  0  0  0  0  0  0  0  0
    8.3696  -14.4829   15.1567 C   0  0  0  0  0  0  0  0  0  0  0  0
    6.3444  -13.4738   25.5348 C   0  0  2  0  0  0  0  0  0  0  0  0
    7.8607  -13.5640   25.7560 N   0  0  0  0  0  0  0  0  0  0  0  0
    8.5225  -13.9415   24.5120 C   0  0  0  0  0  0  0  0  0  0  0  0
    8.0522  -14.6773   26.7182 O   0  0  0  0  0  0  0  0  0  0  0  0
    7.5644  -14.5958   27.8707 N   0  0  0  0  0  0  0  0  0  0  0  0
    8.7641  -15.8442   26.4056 C   0  0  1  0  0  0  0  0  0  0  0  0
    8.9326  -16.9800   27.3354 C   0  0  0  0  0  0  0  0  0  0  0  0
    8.1321  -18.0966   26.7941 C   0  0  0  0  0  0  0  0  0  0  0  0
    8.3122  -19.3876   27.4856 C   0  0  0  0  0  0  0  0  0  0  0  0
    7.5096  -20.4510   26.8527 O   0  0  0  0  0  0  0  0  0  0  0  0
    8.1162  -21.3300   26.1844 C   0  0  0  0  0  0  0  0  0  0  0  0
   10.3450  -17.1146   27.5956 O   0  0  0  0  0  0  0  0  0  0  0  0
   11.2309  -16.5990   26.8246 O   0  0  0  0  0  0  0  0  0  0  0  0
    6.1078  -20.5184   26.9743 O   0  0  0  0  0  0  0  0  0  0  0  0
  2  1  1  0
  3  2  2  0
  4  2  1  0
  5  4  1  0
  6  5  1  0
  7  6  1  0
  8 10  1  0
  8  7  1  0
  8  9  1  6
 10 14  1  0
 11 10  2  0
 13 12  1  6
 14 13  1  0
 15 17  1  0
 15 13  1  0
 16 15  2  0
 18 17  1  0
 18 19  1  1
 19 20  1  0
 20 21  1  0
 21 25  1  0
 22 21  2  0
 23 18  1  0
 24 23  2  0
 26 23  1  0
M  END
$$$$
