RAE.pdb
     RDKit          3D

 26 25  0  0  1  0  0  0  0  0999 V2000
    8.8632  -15.1840   13.5752 N   0  0  0  0  0  0  0  0  0  0  0  0
    8.1317  -13.9819   13.7324 C   0  0  0  0  0  0  0  0  0  0  0  0
    8.4077  -12.9439   13.0315 N   0  0  0  0  0  0  0  0  0  0  0  0
    7.0667  -13.9425   14.6978 N   0  0  0  0  0  0  0  0  0  0  0  0
    7.3699  -13.9568   16.1110 C   0  0  0  0  0  0  0  0  0  0  0  0
    8.8011  -13.7950   16.4456 C   0  0  0  0  0  0  0  0  0  0  0  0
    9.1738  -13.5735   17.8734 C   0  0  0  0  0  0  0  0  0  0  0  0
    9.0387  -14.7176   18.8025 C   0  0  2  0  0  0  0  0  0  0  0  0
    7.6774  -15.2710   18.6502 N   0  0  0  0  0  0  0  0  0  0  0  0
    9.2299  -14.4672   20.2340 C   0  0  0  0  0  0  0  0  0  0  0  0
   10.2979  -13.9329   20.6536 O   0  0  0  0  0  0  0  0  0  0  0  0
    7.9423  -12.0322   13.0712 C   0  0  0  0  0  0  0  0  0  0  0  0
    7.3273  -14.7352   23.5185 C   0  0  2  0  0  0  0  0  0  0  0  0
    8.5966  -14.5843   22.6685 N   0  0  0  0  0  0  0  0  0  0  0  0
    8.2777  -14.7871   21.2596 C   0  0  0  0  0  0  0  0  0  0  0  0
    9.4856  -15.6957   23.0887 O   0  0  0  0  0  0  0  0  0  0  0  0
    9.2784  -16.8558   22.6598 N   0  0  0  0  0  0  0  0  0  0  0  0
   10.5711  -15.5193   23.9588 C   0  0  1  0  0  0  0  0  0  0  0  0
   11.4639  -16.6131   24.3937 C   0  0  0  0  0  0  0  0  0  0  0  0
   12.8480  -16.1360   24.2011 C   0  0  0  0  0  0  0  0  0  0  0  0
   13.8380  -17.1907   23.9097 C   0  0  0  0  0  0  0  0  0  0  0  0
   15.1932  -16.6276   23.7626 O   0  0  0  0  0  0  0  0  0  0  0  0
   15.4513  -15.9754   22.7161 C   0  0  0  0  0  0  0  0  0  0  0  0
   10.9894  -17.0684   25.6776 O   0  0  0  0  0  0  0  0  0  0  0  0
   10.1927  -16.3659   26.3965 O   0  0  0  0  0  0  0  0  0  0  0  0
   16.1923  -16.7877   24.7427 O   0  0  0  0  0  0  0  0  0  0  0  0
  2  1  1  0
  3  2  2  0
  4  2  1  0
  5  4  1  0
  6  5  1  0
  7  6  1  0
  8 10  1  0
  8  7  1  0
  8  9  1  1
 10 14  1  0
 11 10  2  0
 13 12  1  6
 14 13  1  0
 15 17  1  0
 15 13  1  0
 16 15  2  0
 18 17  1  0
 18 19  1  1
 19 20  1  0
 20 21  1  0
 21 25  1  0
 22 21  2  0
 23 18  1  0
 24 23  2  0
 26 23  1  0
M  END
$$$$
