RAE.pdb
     RDKit          3D

 26 25  0  0  1  0  0  0  0  0999 V2000
    8.2945  -18.6896   16.5178 N   0  0  0  0  0  0  0  0  0  0  0  0
    8.5523  -17.7001   15.5383 C   0  0  0  0  0  0  0  0  0  0  0  0
    9.4364  -17.8858   14.6280 N   0  0  0  0  0  0  0  0  0  0  0  0
    7.8021  -16.4741   15.5809 N   0  0  0  0  0  0  0  0  0  0  0  0
    8.3010  -15.3460   16.3345 C   0  0  0  0  0  0  0  0  0  0  0  0
    8.2642  -15.5094   17.8036 C   0  0  0  0  0  0  0  0  0  0  0  0
    7.1115  -14.9282   18.5521 C   0  0  0  0  0  0  0  0  0  0  0  0
    7.3414  -13.6692   19.2952 C   0  0  2  0  0  0  0  0  0  0  0  0
    8.1465  -12.7741   18.4388 N   0  0  0  0  0  0  0  0  0  0  0  0
    8.0346  -13.7484   20.5843 C   0  0  0  0  0  0  0  0  0  0  0  0
    9.2844  -13.5602   20.6520 O   0  0  0  0  0  0  0  0  0  0  0  0
    9.6909  -17.2392   13.8754 C   0  0  0  0  0  0  0  0  0  0  0  0
    7.2147  -14.1215   24.2839 C   0  0  1  0  0  0  0  0  0  0  0  0
    8.1671  -14.0200   23.0844 N   0  0  0  0  0  0  0  0  0  0  0  0
    7.4037  -14.0355   21.8415 C   0  0  0  0  0  0  0  0  0  0  0  0
    8.9813  -15.2600   23.1228 O   0  0  0  0  0  0  0  0  0  0  0  0
    8.5584  -16.3008   22.5654 N   0  0  0  0  0  0  0  0  0  0  0  0
   10.2273  -15.3371   23.7615 C   0  0  1  0  0  0  0  0  0  0  0  0
   11.0000  -16.5875   23.9111 C   0  0  0  0  0  0  0  0  0  0  0  0
   12.3806  -16.2898   23.4803 C   0  0  0  0  0  0  0  0  0  0  0  0
   13.3489  -17.3845   23.6842 C   0  0  0  0  0  0  0  0  0  0  0  0
   14.7027  -16.9898   23.2519 O   0  0  0  0  0  0  0  0  0  0  0  0
   14.9403  -15.7615   23.1030 C   0  0  0  0  0  0  0  0  0  0  0  0
   10.7107  -17.1154   25.2221 O   0  0  0  0  0  0  0  0  0  0  0  0
   10.2511  -16.3785   26.1659 O   0  0  0  0  0  0  0  0  0  0  0  0
   15.7257  -17.9274   23.0095 O   0  0  0  0  0  0  0  0  0  0  0  0
  2  1  1  0
  3  2  2  0
  4  2  1  0
  5  4  1  0
  6  5  1  0
  7  6  1  0
  8 10  1  0
  8  7  1  0
  8  9  1  6
 10 14  1  0
 11 10  2  0
 13 12  1  1
 14 13  1  0
 15 17  1  0
 15 13  1  0
 16 15  2  0
 18 17  1  0
 18 19  1  1
 19 20  1  0
 20 21  1  0
 21 25  1  0
 22 21  2  0
 23 18  1  0
 24 23  2  0
 26 23  1  0
M  END
$$$$
