RAE.pdb
     RDKit          3D

 26 25  0  0  1  0  0  0  0  0999 V2000
    8.2576  -12.4038   18.3103 N   0  0  0  0  0  0  0  0  0  0  0  0
    8.8335  -12.8427   19.5271 C   0  0  0  0  0  0  0  0  0  0  0  0
   10.0665  -13.1904   19.5871 N   0  0  0  0  0  0  0  0  0  0  0  0
    8.0080  -12.8934   20.7033 N   0  0  0  0  0  0  0  0  0  0  0  0
    7.9251  -14.1112   21.4776 C   0  0  0  0  0  0  0  0  0  0  0  0
    6.7270  -14.9377   21.2177 C   0  0  0  0  0  0  0  0  0  0  0  0
    6.5788  -15.5667   19.8727 C   0  0  0  0  0  0  0  0  0  0  0  0
    6.8383  -17.0196   19.7630 C   0  0  2  0  0  0  0  0  0  0  0  0
    5.9764  -17.7125   20.7427 N   0  0  0  0  0  0  0  0  0  0  0  0
    8.2048  -17.4938   20.0002 C   0  0  0  0  0  0  0  0  0  0  0  0
    8.4981  -18.0892   21.0780 O   0  0  0  0  0  0  0  0  0  0  0  0
   10.5617  -13.5662   20.4012 C   0  0  0  0  0  0  0  0  0  0  0  0
   11.5929  -17.5708   18.2500 C   0  0  1  0  0  0  0  0  0  0  0  0
   10.6187  -17.8800   19.3952 N   0  0  0  0  0  0  0  0  0  0  0  0
    9.2999  -17.3393   19.0849 C   0  0  0  0  0  0  0  0  0  0  0  0
   11.1410  -17.1354   20.5677 O   0  0  0  0  0  0  0  0  0  0  0  0
   10.9531  -15.8985   20.6547 N   0  0  0  0  0  0  0  0  0  0  0  0
   11.8497  -17.7501   21.6100 C   0  0  1  0  0  0  0  0  0  0  0  0
   12.3468  -17.0333   22.8024 C   0  0  0  0  0  0  0  0  0  0  0  0
   11.9654  -17.8433   23.9767 C   0  0  0  0  0  0  0  0  0  0  0  0
   12.5406  -17.3944   25.2593 C   0  0  0  0  0  0  0  0  0  0  0  0
   12.1238  -18.2713   26.3695 O   0  0  0  0  0  0  0  0  0  0  0  0
   12.6347  -18.0713   27.5037 C   0  0  0  0  0  0  0  0  0  0  0  0
   13.7188  -16.6708   22.5432 O   0  0  0  0  0  0  0  0  0  0  0  0
   14.4196  -17.2591   21.6444 O   0  0  0  0  0  0  0  0  0  0  0  0
   11.1822  -19.3064   26.2071 O   0  0  0  0  0  0  0  0  0  0  0  0
  2  1  1  0
  3  2  2  0
  4  2  1  0
  5  4  1  0
  6  5  1  0
  7  6  1  0
  8 10  1  0
  8  7  1  0
  8  9  1  1
 10 14  1  0
 11 10  2  0
 13 12  1  6
 14 13  1  0
 15 17  1  0
 15 13  1  0
 16 15  2  0
 18 17  1  0
 18 19  1  6
 19 20  1  0
 20 21  1  0
 21 25  1  0
 22 21  2  0
 23 18  1  0
 24 23  2  0
 26 23  1  0
M  END
$$$$
