RAE.pdb
     RDKit          3D

 26 25  0  0  1  0  0  0  0  0999 V2000
    9.2260  -14.6720   17.8840 N   0  0  0  0  0  0  0  0  0  0  0  0
    8.3384  -13.5823   17.7111 C   0  0  0  0  0  0  0  0  0  0  0  0
    8.2519  -12.9725   16.5862 N   0  0  0  0  0  0  0  0  0  0  0  0
    7.5301  -13.1664   18.8253 N   0  0  0  0  0  0  0  0  0  0  0  0
    6.8853  -14.1543   19.6605 C   0  0  0  0  0  0  0  0  0  0  0  0
    7.5107  -15.4940   19.6415 C   0  0  0  0  0  0  0  0  0  0  0  0
    8.4859  -15.8355   20.7181 C   0  0  0  0  0  0  0  0  0  0  0  0
    7.9412  -16.2361   22.0346 C   0  0  2  0  0  0  0  0  0  0  0  0
    6.4868  -15.9767   22.0249 N   0  0  0  0  0  0  0  0  0  0  0  0
    8.4751  -15.5759   23.2294 C   0  0  0  0  0  0  0  0  0  0  0  0
    9.7208  -15.5679   23.4540 O   0  0  0  0  0  0  0  0  0  0  0  0
    7.6271  -12.1948   16.3536 C   0  0  0  0  0  0  0  0  0  0  0  0
    7.2474  -13.5543   26.2200 C   0  0  2  0  0  0  0  0  0  0  0  0
    8.3080  -14.2855   25.3855 N   0  0  0  0  0  0  0  0  0  0  0  0
    7.6838  -14.9055   24.2219 C   0  0  0  0  0  0  0  0  0  0  0  0
    8.8100  -15.3769   26.2565 O   0  0  0  0  0  0  0  0  0  0  0  0
    8.1564  -16.4422   26.3600 N   0  0  0  0  0  0  0  0  0  0  0  0
   10.0026  -15.2840   26.9883 C   0  0  1  0  0  0  0  0  0  0  0  0
   10.5643  -16.3898   27.7912 C   0  0  0  0  0  0  0  0  0  0  0  0
   11.8918  -16.6980   27.2227 C   0  0  0  0  0  0  0  0  0  0  0  0
   12.6472  -17.7483   27.9323 C   0  0  0  0  0  0  0  0  0  0  0  0
   13.9323  -18.0278   27.2648 O   0  0  0  0  0  0  0  0  0  0  0  0
   14.4507  -17.1104   26.5741 C   0  0  0  0  0  0  0  0  0  0  0  0
   10.3959  -16.0390   29.1802 O   0  0  0  0  0  0  0  0  0  0  0  0
   10.1603  -14.8349   29.5540 O   0  0  0  0  0  0  0  0  0  0  0  0
   14.5927  -19.2670   27.3775 O   0  0  0  0  0  0  0  0  0  0  0  0
  2  1  1  0
  3  2  2  0
  4  2  1  0
  5  4  1  0
  6  5  1  0
  7  6  1  0
  8 10  1  0
  8  7  1  0
  8  9  1  6
 10 14  1  0
 11 10  2  0
 13 12  1  6
 14 13  1  0
 15 17  1  0
 15 13  1  0
 16 15  2  0
 18 17  1  0
 18 19  1  1
 19 20  1  0
 20 21  1  0
 21 25  1  0
 22 21  2  0
 23 18  1  0
 24 23  2  0
 26 23  1  0
M  END
$$$$
