DDV.pdb
     RDKit          3D

 24 23  0  0  1  0  0  0  0  0999 V2000
    7.5565  -16.5651   19.1425 N   0  0  0  0  0  0  0  0  0  0  0  0
    8.2865  -15.5790   19.8919 C   0  0  1  0  0  0  0  0  0  0  0  0
    7.8265  -14.1932   19.5117 C   0  0  0  0  0  0  0  0  0  0  0  0
    8.0686  -13.8779   18.1024 C   0  0  0  0  0  0  0  0  0  0  0  0
    9.1367  -14.2874   17.5798 O   0  0  0  0  0  0  0  0  0  0  0  0
    8.1860  -15.8069   21.3618 C   0  0  0  0  0  0  0  0  0  0  0  0
    7.0723  -15.8725   21.9430 O   0  0  0  0  0  0  0  0  0  0  0  0
    7.2040  -13.1568   17.2930 O   0  0  0  0  0  0  0  0  0  0  0  0
    9.3349  -15.9622   22.1866 N   0  0  0  0  0  0  0  0  0  0  0  0
    9.2733  -16.3200   23.5715 C   0  0  1  0  0  0  0  0  0  0  0  0
   10.2867  -17.3628   23.9826 C   0  0  0  0  0  0  0  0  0  0  0  0
   10.0782  -18.6766   23.3785 C   0  0  0  0  0  0  0  0  0  0  0  0
   11.0086  -19.2150   22.7351 O   0  0  0  0  0  0  0  0  0  0  0  0
    9.4320  -15.1639   24.4846 C   0  0  0  0  0  0  0  0  0  0  0  0
   10.5122  -14.5340   24.4731 O   0  0  0  0  0  0  0  0  0  0  0  0
    8.8816  -19.3626   23.4868 O   0  0  0  0  0  0  0  0  0  0  0  0
    6.2797  -13.6667   26.6833 C   0  0  0  0  0  0  0  0  0  0  0  0
    7.4602  -12.7657   26.4285 C   0  0  2  0  0  0  0  0  0  0  0  0
    7.3388  -12.1211   25.0449 C   0  0  0  0  0  0  0  0  0  0  0  0
    8.6921  -13.6530   26.3642 C   0  0  2  0  0  0  0  0  0  0  0  0
    8.4386  -14.7124   25.3819 N   0  0  0  0  0  0  0  0  0  0  0  0
    8.9170  -14.3237   27.6831 C   0  0  0  0  0  0  0  0  0  0  0  0
    9.3485  -13.6177   28.7972 O   0  0  0  0  0  0  0  0  0  0  0  0
    8.7251  -15.5588   27.8423 O   0  0  0  0  0  0  0  0  0  0  0  0
  2  1  1  6
  3  4  1  0
  3  2  1  0
  4  8  1  0
  5  4  2  0
  6  2  1  0
  7  6  2  0
  9  6  1  0
 10 14  1  0
 10  9  1  0
 10 11  1  1
 12 11  1  0
 13 12  2  0
 14 21  1  0
 15 14  2  0
 16 12  1  0
 18 20  1  0
 18 17  1  6
 19 18  1  0
 20 22  1  0
 20 21  1  6
 22 24  2  0
 22 23  1  0
M  END
$$$$
