DDV.pdb
     RDKit          3D

 24 23  0  0  1  0  0  0  0  0999 V2000
    9.7744  -14.0256   19.3960 N   0  0  0  0  0  0  0  0  0  0  0  0
    8.4138  -13.7382   19.7605 C   0  0  1  0  0  0  0  0  0  0  0  0
    7.4943  -14.0222   18.5984 C   0  0  0  0  0  0  0  0  0  0  0  0
    8.1559  -13.8820   17.2996 C   0  0  0  0  0  0  0  0  0  0  0  0
    8.9772  -14.7699   16.9554 O   0  0  0  0  0  0  0  0  0  0  0  0
    7.9952  -14.4780   20.9853 C   0  0  0  0  0  0  0  0  0  0  0  0
    6.8283  -14.3823   21.4454 O   0  0  0  0  0  0  0  0  0  0  0  0
    7.9448  -12.8372   16.4128 O   0  0  0  0  0  0  0  0  0  0  0  0
    8.8842  -15.3288   21.6997 N   0  0  0  0  0  0  0  0  0  0  0  0
    8.5591  -15.9412   22.9523 C   0  0  1  0  0  0  0  0  0  0  0  0
    9.1987  -17.2946   23.1592 C   0  0  0  0  0  0  0  0  0  0  0  0
    8.8148  -17.9585   24.4027 C   0  0  0  0  0  0  0  0  0  0  0  0
    7.7643  -17.6102   24.9898 O   0  0  0  0  0  0  0  0  0  0  0  0
    8.9069  -15.1032   24.1238 C   0  0  0  0  0  0  0  0  0  0  0  0
   10.1048  -14.7936   24.3057 O   0  0  0  0  0  0  0  0  0  0  0  0
    9.5706  -18.9695   24.9690 O   0  0  0  0  0  0  0  0  0  0  0  0
    6.0044  -13.2601   26.3585 C   0  0  0  0  0  0  0  0  0  0  0  0
    7.3867  -12.6604   26.3547 C   0  0  2  0  0  0  0  0  0  0  0  0
    7.5816  -11.8001   25.1031 C   0  0  0  0  0  0  0  0  0  0  0  0
    8.3709  -13.8106   26.2226 C   0  0  2  0  0  0  0  0  0  0  0  0
    7.9720  -14.6199   25.0661 N   0  0  0  0  0  0  0  0  0  0  0  0
    8.2948  -14.6984   27.4252 C   0  0  0  0  0  0  0  0  0  0  0  0
    8.7461  -14.2823   28.6697 O   0  0  0  0  0  0  0  0  0  0  0  0
    7.8179  -15.8630   27.3628 O   0  0  0  0  0  0  0  0  0  0  0  0
  2  1  1  6
  3  4  1  0
  3  2  1  0
  4  8  1  0
  5  4  2  0
  6  2  1  0
  7  6  2  0
  9  6  1  0
 10 14  1  0
 10  9  1  0
 10 11  1  1
 12 11  1  0
 13 12  2  0
 14 21  1  0
 15 14  2  0
 16 12  1  0
 18 20  1  0
 18 17  1  6
 19 18  1  0
 20 22  1  0
 20 21  1  6
 22 24  2  0
 22 23  1  0
M  END
$$$$
