DDV.pdb
     RDKit          3D

 24 23  0  0  1  0  0  0  0  0999 V2000
   11.5810  -18.0728   19.8873 N   0  0  0  0  0  0  0  0  0  0  0  0
   12.1886  -17.3349   20.9610 C   0  0  1  0  0  0  0  0  0  0  0  0
   12.5938  -15.9623   20.4831 C   0  0  0  0  0  0  0  0  0  0  0  0
   13.7267  -15.9921   19.5558 C   0  0  0  0  0  0  0  0  0  0  0  0
   13.5268  -15.6369   18.3661 O   0  0  0  0  0  0  0  0  0  0  0  0
   11.3037  -17.2601   22.1586 C   0  0  0  0  0  0  0  0  0  0  0  0
   10.1414  -16.7841   22.0894 O   0  0  0  0  0  0  0  0  0  0  0  0
   15.0135  -16.3851   19.8911 O   0  0  0  0  0  0  0  0  0  0  0  0
   11.7192  -17.7192   23.4397 N   0  0  0  0  0  0  0  0  0  0  0  0
   10.8390  -17.8365   24.5627 C   0  0  1  0  0  0  0  0  0  0  0  0
   10.7377  -19.2372   25.1206 C   0  0  0  0  0  0  0  0  0  0  0  0
    9.8392  -19.3661   26.2654 C   0  0  0  0  0  0  0  0  0  0  0  0
    9.9908  -18.6156   27.2570 O   0  0  0  0  0  0  0  0  0  0  0  0
   11.1957  -16.9374   25.6852 C   0  0  0  0  0  0  0  0  0  0  0  0
   12.3563  -16.9870   26.1482 O   0  0  0  0  0  0  0  0  0  0  0  0
    8.8133  -20.2937   26.3038 O   0  0  0  0  0  0  0  0  0  0  0  0
   10.0798  -13.1059   28.5952 C   0  0  0  0  0  0  0  0  0  0  0  0
    9.6763  -13.9912   27.4446 C   0  0  2  0  0  0  0  0  0  0  0  0
    8.3765  -14.7277   27.7806 C   0  0  0  0  0  0  0  0  0  0  0  0
   10.7403  -15.0685   27.3170 C   0  0  2  0  0  0  0  0  0  0  0  0
   10.3088  -16.0134   26.2814 N   0  0  0  0  0  0  0  0  0  0  0  0
   10.8521  -15.8401   28.5946 C   0  0  0  0  0  0  0  0  0  0  0  0
   11.6112  -15.3804   29.6614 O   0  0  0  0  0  0  0  0  0  0  0  0
   10.2626  -16.9415   28.7599 O   0  0  0  0  0  0  0  0  0  0  0  0
  2  1  1  6
  3  4  1  0
  3  2  1  0
  4  8  1  0
  5  4  2  0
  6  2  1  0
  7  6  2  0
  9  6  1  0
 10 14  1  0
 10  9  1  0
 10 11  1  1
 12 11  1  0
 13 12  2  0
 14 21  1  0
 15 14  2  0
 16 12  1  0
 18 20  1  0
 18 17  1  1
 19 18  1  0
 20 22  1  0
 20 21  1  6
 22 24  2  0
 22 23  1  0
M  END
$$$$
