DDV.pdb
     RDKit          3D

 24 23  0  0  1  0  0  0  0  0999 V2000
    7.9946  -17.3779   19.3838 N   0  0  0  0  0  0  0  0  0  0  0  0
    8.5109  -16.1717   19.9713 C   0  0  1  0  0  0  0  0  0  0  0  0
    7.7982  -14.9704   19.4008 C   0  0  0  0  0  0  0  0  0  0  0  0
    7.9299  -14.8661   17.9461 C   0  0  0  0  0  0  0  0  0  0  0  0
    8.9566  -15.3546   17.4088 O   0  0  0  0  0  0  0  0  0  0  0  0
    8.4358  -16.1987   21.4600 C   0  0  0  0  0  0  0  0  0  0  0  0
    7.3336  -16.1514   22.0644 O   0  0  0  0  0  0  0  0  0  0  0  0
    7.0023  -14.2655   17.1087 O   0  0  0  0  0  0  0  0  0  0  0  0
    9.5975  -16.2790   22.2778 N   0  0  0  0  0  0  0  0  0  0  0  0
    9.5554  -16.4306   23.7008 C   0  0  1  0  0  0  0  0  0  0  0  0
   10.6772  -17.2729   24.2626 C   0  0  0  0  0  0  0  0  0  0  0  0
   10.6720  -18.6622   23.8104 C   0  0  0  0  0  0  0  0  0  0  0  0
    9.6376  -19.3544   23.9540 O   0  0  0  0  0  0  0  0  0  0  0  0
    9.5625  -15.1406   24.4296 C   0  0  0  0  0  0  0  0  0  0  0  0
   10.4953  -14.3357   24.2158 O   0  0  0  0  0  0  0  0  0  0  0  0
   11.7744  -19.2561   23.2222 O   0  0  0  0  0  0  0  0  0  0  0  0
    6.3266  -13.8286   26.5785 C   0  0  0  0  0  0  0  0  0  0  0  0
    7.3614  -12.8157   26.1622 C   0  0  2  0  0  0  0  0  0  0  0  0
    7.1217  -12.3869   24.7119 C   0  0  0  0  0  0  0  0  0  0  0  0
    8.7055  -13.5244   26.1665 C   0  0  2  0  0  0  0  0  0  0  0  0
    8.5786  -14.7450   25.3630 N   0  0  0  0  0  0  0  0  0  0  0  0
    9.0622  -13.9503   27.5563 C   0  0  0  0  0  0  0  0  0  0  0  0
    9.1708  -15.2892   27.9046 O   0  0  0  0  0  0  0  0  0  0  0  0
    9.2800  -13.1135   28.4729 O   0  0  0  0  0  0  0  0  0  0  0  0
  2  1  1  6
  3  4  1  0
  3  2  1  0
  4  8  1  0
  5  4  2  0
  6  2  1  0
  7  6  2  0
  9  6  1  0
 10 14  1  0
 10  9  1  0
 10 11  1  1
 12 11  1  0
 13 12  2  0
 14 21  1  0
 15 14  2  0
 16 12  1  0
 18 20  1  0
 18 17  1  6
 19 18  1  0
 20 22  1  0
 20 21  1  6
 22 24  2  0
 22 23  1  0
M  END
$$$$
