DDV.pdb
     RDKit          3D

 24 23  0  0  1  0  0  0  0  0999 V2000
   10.2219  -16.9693   19.7323 N   0  0  0  0  0  0  0  0  0  0  0  0
    9.0472  -16.1626   19.9212 C   0  0  1  0  0  0  0  0  0  0  0  0
    7.9295  -16.6585   19.0372 C   0  0  0  0  0  0  0  0  0  0  0  0
    8.3610  -16.9158   17.6617 C   0  0  0  0  0  0  0  0  0  0  0  0
    8.1309  -18.0511   17.1722 O   0  0  0  0  0  0  0  0  0  0  0  0
    8.6318  -16.1067   21.3519 C   0  0  0  0  0  0  0  0  0  0  0  0
    7.5693  -15.5345   21.7070 O   0  0  0  0  0  0  0  0  0  0  0  0
    9.0091  -15.9966   16.8508 O   0  0  0  0  0  0  0  0  0  0  0  0
    9.4070  -16.6929   22.3913 N   0  0  0  0  0  0  0  0  0  0  0  0
    8.9842  -16.7515   23.7578 C   0  0  1  0  0  0  0  0  0  0  0  0
    9.6958  -17.8034   24.5768 C   0  0  0  0  0  0  0  0  0  0  0  0
    9.4578  -19.1750   24.1336 C   0  0  0  0  0  0  0  0  0  0  0  0
   10.4327  -19.9278   23.9043 O   0  0  0  0  0  0  0  0  0  0  0  0
    9.1271  -15.4617   24.4730 C   0  0  0  0  0  0  0  0  0  0  0  0
   10.2768  -15.0209   24.6913 O   0  0  0  0  0  0  0  0  0  0  0  0
    8.1853  -19.6871   23.9531 O   0  0  0  0  0  0  0  0  0  0  0  0
    7.2274  -11.3658   26.4245 C   0  0  0  0  0  0  0  0  0  0  0  0
    6.9830  -12.6232   25.6312 C   0  0  2  0  0  0  0  0  0  0  0  0
    5.8663  -13.4447   26.2815 C   0  0  0  0  0  0  0  0  0  0  0  0
    8.2386  -13.4716   25.7431 C   0  0  2  0  0  0  0  0  0  0  0  0
    8.0447  -14.6798   24.9342 N   0  0  0  0  0  0  0  0  0  0  0  0
    8.4373  -13.9190   27.1575 C   0  0  0  0  0  0  0  0  0  0  0  0
    8.2065  -15.2305   27.5478 O   0  0  0  0  0  0  0  0  0  0  0  0
    8.8227  -13.1261   28.0577 O   0  0  0  0  0  0  0  0  0  0  0  0
  2  1  1  1
  3  4  1  0
  3  2  1  0
  4  8  1  0
  5  4  2  0
  6  2  1  0
  7  6  2  0
  9  6  1  0
 10 14  1  0
 10  9  1  0
 10 11  1  1
 12 11  1  0
 13 12  2  0
 14 21  1  0
 15 14  2  0
 16 12  1  0
 18 20  1  0
 18 17  1  1
 19 18  1  0
 20 22  1  0
 20 21  1  6
 22 24  2  0
 22 23  1  0
M  END
$$$$
