DDV.pdb
     RDKit          3D

 24 23  0  0  1  0  0  0  0  0999 V2000
    9.2585  -16.6088   19.9106 N   0  0  0  0  0  0  0  0  0  0  0  0
    8.0071  -15.9119   20.0327 C   0  0  1  0  0  0  0  0  0  0  0  0
    7.0222  -16.4321   19.0149 C   0  0  0  0  0  0  0  0  0  0  0  0
    7.6708  -17.0007   17.8315 C   0  0  0  0  0  0  0  0  0  0  0  0
    8.9276  -17.0379   17.8065 O   0  0  0  0  0  0  0  0  0  0  0  0
    7.4580  -15.9877   21.4166 C   0  0  0  0  0  0  0  0  0  0  0  0
    6.4190  -15.3605   21.7477 O   0  0  0  0  0  0  0  0  0  0  0  0
    7.0007  -17.5054   16.7275 O   0  0  0  0  0  0  0  0  0  0  0  0
    8.0722  -16.7679   22.4357 N   0  0  0  0  0  0  0  0  0  0  0  0
    7.6480  -16.7602   23.8031 C   0  0  1  0  0  0  0  0  0  0  0  0
    7.8387  -18.0803   24.5133 C   0  0  0  0  0  0  0  0  0  0  0  0
    7.2929  -18.1200   25.8679 C   0  0  0  0  0  0  0  0  0  0  0  0
    6.4265  -17.2818   26.2094 O   0  0  0  0  0  0  0  0  0  0  0  0
    8.3140  -15.7181   24.6191 C   0  0  0  0  0  0  0  0  0  0  0  0
    9.5638  -15.6895   24.6521 O   0  0  0  0  0  0  0  0  0  0  0  0
    7.6959  -19.0556   26.8041 O   0  0  0  0  0  0  0  0  0  0  0  0
    6.1382  -13.1703   27.0390 C   0  0  0  0  0  0  0  0  0  0  0  0
    7.3774  -12.5750   26.4225 C   0  0  2  0  0  0  0  0  0  0  0  0
    7.0481  -11.9860   25.0479 C   0  0  0  0  0  0  0  0  0  0  0  0
    8.3396  -13.7216   26.1607 C   0  0  2  0  0  0  0  0  0  0  0  0
    7.6323  -14.7383   25.3748 N   0  0  0  0  0  0  0  0  0  0  0  0
    8.7407  -14.3661   27.4506 C   0  0  0  0  0  0  0  0  0  0  0  0
    9.5443  -13.7130   28.3744 O   0  0  0  0  0  0  0  0  0  0  0  0
    8.3676  -15.5301   27.7564 O   0  0  0  0  0  0  0  0  0  0  0  0
  2  1  1  1
  3  4  1  0
  3  2  1  0
  4  8  1  0
  5  4  2  0
  6  2  1  0
  7  6  2  0
  9  6  1  0
 10 14  1  0
 10  9  1  0
 10 11  1  1
 12 11  1  0
 13 12  2  0
 14 21  1  0
 15 14  2  0
 16 12  1  0
 18 20  1  0
 18 17  1  6
 19 18  1  0
 20 22  1  0
 20 21  1  6
 22 24  2  0
 22 23  1  0
M  END
$$$$
