DDV.pdb
     RDKit          3D

 24 23  0  0  1  0  0  0  0  0999 V2000
    9.5709  -15.0163   19.0917 N   0  0  0  0  0  0  0  0  0  0  0  0
    8.7053  -14.0188   19.6595 C   0  0  1  0  0  0  0  0  0  0  0  0
    7.5487  -13.7455   18.7299 C   0  0  0  0  0  0  0  0  0  0  0  0
    7.9131  -13.8602   17.3163 C   0  0  0  0  0  0  0  0  0  0  0  0
    9.0669  -14.2738   17.0346 O   0  0  0  0  0  0  0  0  0  0  0  0
    8.2361  -14.3967   21.0231 C   0  0  0  0  0  0  0  0  0  0  0  0
    7.3468  -13.7367   21.6197 O   0  0  0  0  0  0  0  0  0  0  0  0
    7.0773  -13.5455   16.2556 O   0  0  0  0  0  0  0  0  0  0  0  0
    8.7627  -15.5175   21.7240 N   0  0  0  0  0  0  0  0  0  0  0  0
    8.2799  -15.9521   22.9998 C   0  0  1  0  0  0  0  0  0  0  0  0
    8.5915  -17.3967   23.3154 C   0  0  0  0  0  0  0  0  0  0  0  0
    8.2563  -18.3330   22.2452 C   0  0  0  0  0  0  0  0  0  0  0  0
    7.0562  -18.6224   22.0314 O   0  0  0  0  0  0  0  0  0  0  0  0
    8.7827  -15.1339   24.1282 C   0  0  0  0  0  0  0  0  0  0  0  0
   10.0179  -15.0461   24.3021 O   0  0  0  0  0  0  0  0  0  0  0  0
    9.2190  -18.9229   21.4456 O   0  0  0  0  0  0  0  0  0  0  0  0
    6.1806  -13.1786   26.6937 C   0  0  0  0  0  0  0  0  0  0  0  0
    7.5453  -12.5657   26.5140 C   0  0  2  0  0  0  0  0  0  0  0  0
    7.5500  -11.6464   25.2895 C   0  0  0  0  0  0  0  0  0  0  0  0
    8.5024  -13.6987   26.1836 C   0  0  2  0  0  0  0  0  0  0  0  0
    7.9581  -14.4341   25.0371 N   0  0  0  0  0  0  0  0  0  0  0  0
    8.5782  -14.6627   27.3260 C   0  0  0  0  0  0  0  0  0  0  0  0
    9.2315  -14.3443   28.5081 O   0  0  0  0  0  0  0  0  0  0  0  0
    8.0528  -15.8065   27.2667 O   0  0  0  0  0  0  0  0  0  0  0  0
  2  1  1  6
  3  4  1  0
  3  2  1  0
  4  8  1  0
  5  4  2  0
  6  2  1  0
  7  6  2  0
  9  6  1  0
 10 14  1  0
 10  9  1  0
 10 11  1  1
 12 11  1  0
 13 12  2  0
 14 21  1  0
 15 14  2  0
 16 12  1  0
 18 20  1  0
 18 17  1  6
 19 18  1  0
 20 22  1  0
 20 21  1  6
 22 24  2  0
 22 23  1  0
M  END
$$$$
