DDV.pdb
     RDKit          3D

 24 23  0  0  1  0  0  0  0  0999 V2000
    7.8416  -12.3067   19.7903 N   0  0  0  0  0  0  0  0  0  0  0  0
    7.5741  -13.7058   19.5964 C   0  0  1  0  0  0  0  0  0  0  0  0
    8.5448  -14.2861   18.5976 C   0  0  0  0  0  0  0  0  0  0  0  0
    8.3306  -15.7146   18.3570 C   0  0  0  0  0  0  0  0  0  0  0  0
    7.2144  -16.2053   18.6650 O   0  0  0  0  0  0  0  0  0  0  0  0
    7.5914  -14.4614   20.8815 C   0  0  0  0  0  0  0  0  0  0  0  0
    6.5272  -14.8061   21.4568 O   0  0  0  0  0  0  0  0  0  0  0  0
    9.2712  -16.5749   17.8113 O   0  0  0  0  0  0  0  0  0  0  0  0
    8.8034  -14.8338   21.5272 N   0  0  0  0  0  0  0  0  0  0  0  0
    8.8535  -15.5759   22.7506 C   0  0  1  0  0  0  0  0  0  0  0  0
    9.8459  -16.7154   22.7382 C   0  0  0  0  0  0  0  0  0  0  0  0
    9.3345  -17.9532   22.1544 C   0  0  0  0  0  0  0  0  0  0  0  0
    8.2656  -18.4439   22.5860 O   0  0  0  0  0  0  0  0  0  0  0  0
    9.1564  -14.7376   23.9343 C   0  0  0  0  0  0  0  0  0  0  0  0
   10.2217  -14.0829   23.9491 O   0  0  0  0  0  0  0  0  0  0  0  0
    9.9876  -18.6173   21.1314 O   0  0  0  0  0  0  0  0  0  0  0  0
    6.2980  -13.7306   26.6026 C   0  0  0  0  0  0  0  0  0  0  0  0
    7.5578  -12.9041   26.5882 C   0  0  2  0  0  0  0  0  0  0  0  0
    7.5033  -11.8852   25.4465 C   0  0  0  0  0  0  0  0  0  0  0  0
    8.7029  -13.8436   26.2490 C   0  0  2  0  0  0  0  0  0  0  0  0
    8.3186  -14.6205   25.0657 N   0  0  0  0  0  0  0  0  0  0  0  0
    8.9190  -14.8201   27.3625 C   0  0  0  0  0  0  0  0  0  0  0  0
    9.4678  -14.4332   28.5769 O   0  0  0  0  0  0  0  0  0  0  0  0
    8.6129  -16.0371   27.2484 O   0  0  0  0  0  0  0  0  0  0  0  0
  2  1  1  1
  3  4  1  0
  3  2  1  0
  4  8  1  0
  5  4  2  0
  6  2  1  0
  7  6  2  0
  9  6  1  0
 10 14  1  0
 10  9  1  0
 10 11  1  6
 12 11  1  0
 13 12  2  0
 14 21  1  0
 15 14  2  0
 16 12  1  0
 18 20  1  0
 18 17  1  6
 19 18  1  0
 20 22  1  0
 20 21  1  6
 22 24  2  0
 22 23  1  0
M  END
$$$$
