QMG.pdb
     RDKit          3D

 22 21  0  0  1  0  0  0  0  0999 V2000
   27.4089  -19.2458  -16.6054 N   0  0  0  0  0  0  0  0  0  0  0  0
   27.3708  -19.2766  -18.0461 C   0  0  0  0  0  0  0  0  0  0  0  0
   28.2072  -18.6071  -18.6999 O   0  0  0  0  0  0  0  0  0  0  0  0
   26.3445  -20.1002  -18.6837 C   0  0  0  0  0  0  0  0  0  0  0  0
   25.5725  -20.8745  -17.6591 C   0  0  0  0  0  0  0  0  0  0  0  0
   24.3627  -20.1433  -17.1779 C   0  0  2  0  0  0  0  0  0  0  0  0
   24.7045  -18.7419  -17.0080 N   0  0  0  0  0  0  0  0  0  0  0  0
   23.9814  -20.7601  -15.8681 C   0  0  0  0  0  0  0  0  0  0  0  0
   23.6474  -21.9489  -15.8301 O   0  0  0  0  0  0  0  0  0  0  0  0
   25.0212  -21.5666   -8.5491 C   0  0  0  0  0  0  0  0  0  0  0  0
   25.3988  -21.2085  -10.2990 S   0  0  0  0  0  0  0  0  0  0  0  0
   24.1459  -20.1071  -10.9811 C   0  0  0  0  0  0  0  0  0  0  0  0
   24.3512  -19.8396  -12.4145 C   0  0  0  0  0  0  0  0  0  0  0  0
   23.5449  -20.5405  -13.4295 C   0  0  2  0  0  0  0  0  0  0  0  0
   24.0162  -19.9629  -14.7215 N   0  0  0  0  0  0  0  0  0  0  0  0
   22.0923  -20.3606  -13.4363 C   0  0  0  0  0  0  0  0  0  0  0  0
   21.5686  -19.2353  -13.5669 O   0  0  0  0  0  0  0  0  0  0  0  0
   21.1834  -21.4535  -13.2944 N   0  0  0  0  0  0  0  0  0  0  0  0
   20.0166  -21.3920  -12.4398 C   0  0  0  0  0  0  0  0  0  0  0  0
   19.2364  -22.6475  -12.4697 C   0  0  0  0  0  0  0  0  0  0  0  0
   18.1218  -22.7761  -11.6612 O   0  0  0  0  0  0  0  0  0  0  0  0
   19.6094  -23.5800  -13.2394 O   0  0  0  0  0  0  0  0  0  0  0  0
  1  2  1  0
  2  3  2  0
  4  5  1  0
  4  2  1  0
  6  8  1  0
  6  5  1  0
  6  7  1  1
  8 15  1  0
  9  8  2  0
 10 11  1  0
 11 12  1  0
 12 13  1  0
 14 13  1  1
 14 16  1  0
 15 14  1  0
 16 17  2  0
 16 18  1  0
 18 19  1  0
 20 21  1  0
 20 19  1  0
 22 20  2  0
M  END
$$$$
