QMG.pdb
     RDKit          3D

 22 21  0  0  1  0  0  0  0  0999 V2000
   16.1826  -10.8748  -15.8192 N   0  0  0  0  0  0  0  0  0  0  0  0
   16.1721  -11.8903  -16.8423 C   0  0  0  0  0  0  0  0  0  0  0  0
   15.0780  -12.2589  -17.3346 O   0  0  0  0  0  0  0  0  0  0  0  0
   17.4568  -12.4478  -17.2629 C   0  0  0  0  0  0  0  0  0  0  0  0
   18.5890  -11.7620  -16.5608 C   0  0  0  0  0  0  0  0  0  0  0  0
   19.9159  -12.3652  -16.8853 C   0  0  2  0  0  0  0  0  0  0  0  0
   19.8941  -13.7667  -16.5046 N   0  0  0  0  0  0  0  0  0  0  0  0
   20.9355  -11.6134  -16.0876 C   0  0  0  0  0  0  0  0  0  0  0  0
   20.9354  -11.7092  -14.8559 O   0  0  0  0  0  0  0  0  0  0  0  0
   28.4145  -10.4191  -15.9230 C   0  0  0  0  0  0  0  0  0  0  0  0
   26.8582  -11.1304  -16.5595 S   0  0  0  0  0  0  0  0  0  0  0  0
   25.4557  -10.1821  -15.9417 C   0  0  0  0  0  0  0  0  0  0  0  0
   24.1646  -10.7253  -16.3957 C   0  0  0  0  0  0  0  0  0  0  0  0
   22.8996  -10.0911  -15.9843 C   0  0  2  0  0  0  0  0  0  0  0  0
   21.8621  -10.8208  -16.7692 N   0  0  0  0  0  0  0  0  0  0  0  0
   22.6808   -8.6750  -16.2830 C   0  0  0  0  0  0  0  0  0  0  0  0
   22.6481   -8.2464  -17.4546 O   0  0  0  0  0  0  0  0  0  0  0  0
   22.4917   -7.6957  -15.2603 N   0  0  0  0  0  0  0  0  0  0  0  0
   22.3443   -6.2848  -15.5489 C   0  0  0  0  0  0  0  0  0  0  0  0
   22.1314   -5.4842  -14.3242 C   0  0  0  0  0  0  0  0  0  0  0  0
   21.9128   -6.1274  -13.1196 O   0  0  0  0  0  0  0  0  0  0  0  0
   22.1544   -4.2218  -14.4082 O   0  0  0  0  0  0  0  0  0  0  0  0
  1  2  1  0
  2  3  2  0
  4  5  1  0
  4  2  1  0
  6  8  1  0
  6  5  1  0
  6  7  1  1
  8 15  1  0
  9  8  2  0
 10 11  1  0
 11 12  1  0
 12 13  1  0
 14 13  1  6
 14 16  1  0
 15 14  1  0
 16 17  2  0
 16 18  1  0
 18 19  1  0
 20 21  1  0
 20 19  1  0
 22 20  2  0
M  END
$$$$
