QMG.pdb
     RDKit          3D

 22 21  0  0  1  0  0  0  0  0999 V2000
   19.7646  -22.1477  -12.2850 N   0  0  0  0  0  0  0  0  0  0  0  0
   19.0248  -21.5217  -11.2179 C   0  0  0  0  0  0  0  0  0  0  0  0
   17.8712  -21.9327  -10.9430 O   0  0  0  0  0  0  0  0  0  0  0  0
   19.6660  -20.4230  -10.4968 C   0  0  0  0  0  0  0  0  0  0  0  0
   21.0745  -20.2279  -10.9691 C   0  0  0  0  0  0  0  0  0  0  0  0
   22.0392  -21.1462  -10.2937 C   0  0  2  0  0  0  0  0  0  0  0  0
   21.7668  -21.1378   -8.8671 N   0  0  0  0  0  0  0  0  0  0  0  0
   23.4091  -20.6127  -10.5766 C   0  0  0  0  0  0  0  0  0  0  0  0
   23.5688  -19.8043  -11.4970 O   0  0  0  0  0  0  0  0  0  0  0  0
   27.3870  -18.6378   -5.3792 C   0  0  0  0  0  0  0  0  0  0  0  0
   27.6090  -20.0022   -6.5717 S   0  0  0  0  0  0  0  0  0  0  0  0
   26.4877  -19.7835   -7.9656 C   0  0  0  0  0  0  0  0  0  0  0  0
   26.6568  -20.8244   -8.9933 C   0  0  0  0  0  0  0  0  0  0  0  0
   25.8669  -20.7837  -10.2367 C   0  0  2  0  0  0  0  0  0  0  0  0
   24.4715  -21.0512   -9.7826 N   0  0  0  0  0  0  0  0  0  0  0  0
   26.1273  -21.7762  -11.2807 C   0  0  0  0  0  0  0  0  0  0  0  0
   26.2415  -22.9913  -11.0204 O   0  0  0  0  0  0  0  0  0  0  0  0
   26.2673  -21.4224  -12.6576 N   0  0  0  0  0  0  0  0  0  0  0  0
   27.5485  -21.4009  -13.3311 C   0  0  0  0  0  0  0  0  0  0  0  0
   27.4185  -21.0726  -14.7669 C   0  0  0  0  0  0  0  0  0  0  0  0
   27.8697  -21.9727  -15.7149 O   0  0  0  0  0  0  0  0  0  0  0  0
   26.8941  -19.9690  -15.0959 O   0  0  0  0  0  0  0  0  0  0  0  0
  1  2  1  0
  2  3  2  0
  4  5  1  0
  4  2  1  0
  6  8  1  0
  6  5  1  0
  6  7  1  1
  8 15  1  0
  9  8  2  0
 10 11  1  0
 11 12  1  0
 12 13  1  0
 14 13  1  1
 14 16  1  0
 15 14  1  0
 16 17  2  0
 16 18  1  0
 18 19  1  0
 20 21  1  0
 20 19  1  0
 22 20  2  0
M  END
$$$$
