QMG.pdb
     RDKit          3D

 22 21  0  0  1  0  0  0  0  0999 V2000
   15.7876  -10.3791  -14.3710 N   0  0  0  0  0  0  0  0  0  0  0  0
   15.6711  -11.6438  -15.0529 C   0  0  0  0  0  0  0  0  0  0  0  0
   14.6411  -12.3415  -14.8872 O   0  0  0  0  0  0  0  0  0  0  0  0
   16.7755  -12.0563  -15.9180 C   0  0  0  0  0  0  0  0  0  0  0  0
   17.8260  -10.9899  -15.9834 C   0  0  0  0  0  0  0  0  0  0  0  0
   19.0348  -11.4204  -16.7473 C   0  0  2  0  0  0  0  0  0  0  0  0
   19.5227  -12.6655  -16.1808 N   0  0  0  0  0  0  0  0  0  0  0  0
   20.0506  -10.3316  -16.5920 C   0  0  0  0  0  0  0  0  0  0  0  0
   20.9218  -10.4323  -15.7220 O   0  0  0  0  0  0  0  0  0  0  0  0
   20.6063   -4.8673  -21.0138 C   0  0  0  0  0  0  0  0  0  0  0  0
   22.0197   -5.9659  -20.6555 S   0  0  0  0  0  0  0  0  0  0  0  0
   22.0002   -6.4386  -18.9165 C   0  0  0  0  0  0  0  0  0  0  0  0
   21.0929   -7.5673  -18.6497 C   0  0  0  0  0  0  0  0  0  0  0  0
   20.9848   -8.1364  -17.2947 C   0  0  2  0  0  0  0  0  0  0  0  0
   19.9786   -9.2273  -17.4444 N   0  0  0  0  0  0  0  0  0  0  0  0
   20.4814   -7.2972  -16.2061 C   0  0  0  0  0  0  0  0  0  0  0  0
   19.2622   -7.2026  -15.9572 O   0  0  0  0  0  0  0  0  0  0  0  0
   21.3463   -6.5356  -15.3619 N   0  0  0  0  0  0  0  0  0  0  0  0
   20.8522   -5.7101  -14.2803 C   0  0  0  0  0  0  0  0  0  0  0  0
   21.9477   -5.1545  -13.4573 C   0  0  0  0  0  0  0  0  0  0  0  0
   21.6443   -4.3721  -12.3581 O   0  0  0  0  0  0  0  0  0  0  0  0
   23.1441   -5.4100  -13.7805 O   0  0  0  0  0  0  0  0  0  0  0  0
  1  2  1  0
  2  3  2  0
  4  5  1  0
  4  2  1  0
  6  8  1  0
  6  5  1  0
  6  7  1  1
  8 15  1  0
  9  8  2  0
 10 11  1  0
 11 12  1  0
 12 13  1  0
 14 13  1  6
 14 16  1  0
 15 14  1  0
 16 17  2  0
 16 18  1  0
 18 19  1  0
 20 21  1  0
 20 19  1  0
 22 20  2  0
M  END
$$$$
