QMG.pdb
     RDKit          3D

 22 21  0  0  1  0  0  0  0  0999 V2000
   19.3994  -12.2606  -20.1667 N   0  0  0  0  0  0  0  0  0  0  0  0
   19.7036  -13.4959  -20.8447 C   0  0  0  0  0  0  0  0  0  0  0  0
   18.7800  -14.1372  -21.4024 O   0  0  0  0  0  0  0  0  0  0  0  0
   21.0947  -13.9462  -20.8500 C   0  0  0  0  0  0  0  0  0  0  0  0
   21.9615  -13.0028  -20.0730 C   0  0  0  0  0  0  0  0  0  0  0  0
   23.4037  -13.3888  -20.1052 C   0  0  2  0  0  0  0  0  0  0  0  0
   23.4958  -14.8382  -20.1235 N   0  0  0  0  0  0  0  0  0  0  0  0
   24.0246  -12.8323  -18.8618 C   0  0  0  0  0  0  0  0  0  0  0  0
   23.8099  -13.3820  -17.7764 O   0  0  0  0  0  0  0  0  0  0  0  0
   28.7408  -12.4894  -14.3570 C   0  0  0  0  0  0  0  0  0  0  0  0
   27.5686  -12.5903  -15.7529 S   0  0  0  0  0  0  0  0  0  0  0  0
   27.8820  -11.2463  -16.9120 C   0  0  0  0  0  0  0  0  0  0  0  0
   26.9089  -11.2167  -18.0166 C   0  0  0  0  0  0  0  0  0  0  0  0
   25.4635  -11.1429  -17.7388 C   0  0  2  0  0  0  0  0  0  0  0  0
   24.8338  -11.6990  -18.9714 N   0  0  0  0  0  0  0  0  0  0  0  0
   24.8394   -9.8329  -17.5470 C   0  0  0  0  0  0  0  0  0  0  0  0
   24.5211   -9.1074  -18.5112 O   0  0  0  0  0  0  0  0  0  0  0  0
   24.5552   -9.3009  -16.2520 N   0  0  0  0  0  0  0  0  0  0  0  0
   23.9601   -7.9956  -16.0582 C   0  0  0  0  0  0  0  0  0  0  0  0
   24.7527   -6.9213  -16.6936 C   0  0  0  0  0  0  0  0  0  0  0  0
   26.1325   -7.0123  -16.7110 O   0  0  0  0  0  0  0  0  0  0  0  0
   24.1457   -5.9382  -17.2095 O   0  0  0  0  0  0  0  0  0  0  0  0
  1  2  1  0
  2  3  2  0
  4  5  1  0
  4  2  1  0
  6  8  1  0
  6  5  1  0
  6  7  1  1
  8 15  1  0
  9  8  2  0
 10 11  1  0
 11 12  1  0
 12 13  1  0
 14 13  1  6
 14 16  1  0
 15 14  1  0
 16 17  2  0
 16 18  1  0
 18 19  1  0
 20 21  1  0
 20 19  1  0
 22 20  2  0
M  END
$$$$
