QMG.pdb
     RDKit          3D

 22 21  0  0  1  0  0  0  0  0999 V2000
   98.6365   24.9831  145.0145 N   0  0  0  0  0  0  0  0  0  0  0  0
   99.6395   24.9579  143.9794 C   0  0  0  0  0  0  0  0  0  0  0  0
  100.8510   25.0579  144.2917 O   0  0  0  0  0  0  0  0  0  0  0  0
   99.1883   24.8134  142.5960 C   0  0  0  0  0  0  0  0  0  0  0  0
   98.7880   26.1402  142.0264 C   0  0  0  0  0  0  0  0  0  0  0  0
   99.2376   26.3180  140.6135 C   0  0  2  0  0  0  0  0  0  0  0  0
   99.6345   27.7022  140.4237 N   0  0  0  0  0  0  0  0  0  0  0  0
   98.0673   25.9766  139.7446 C   0  0  0  0  0  0  0  0  0  0  0  0
   97.8777   26.6123  138.7025 O   0  0  0  0  0  0  0  0  0  0  0  0
   94.9549   22.1178  139.2243 C   0  0  0  0  0  0  0  0  0  0  0  0
   96.7067   22.4490  138.8311 S   0  0  0  0  0  0  0  0  0  0  0  0
   97.7078   22.2895  140.3211 C   0  0  0  0  0  0  0  0  0  0  0  0
   97.1342   23.0171  141.4656 C   0  0  0  0  0  0  0  0  0  0  0  0
   97.2668   24.4815  141.5638 C   0  0  2  0  0  0  0  0  0  0  0  0
   97.2204   24.9405  140.1453 N   0  0  0  0  0  0  0  0  0  0  0  0
   98.4989   25.0517  142.1111 C   0  0  0  0  0  0  0  0  0  0  0  0
   99.5921   24.9492  141.5182 O   0  0  0  0  0  0  0  0  0  0  0  0
   98.5319   25.7583  143.3522 N   0  0  0  0  0  0  0  0  0  0  0  0
   97.7576   25.3478  144.5045 C   0  0  0  0  0  0  0  0  0  0  0  0
   98.5853   24.6538  145.5141 C   0  0  0  0  0  0  0  0  0  0  0  0
   98.9813   23.3480  145.2891 O   0  0  0  0  0  0  0  0  0  0  0  0
   98.9135   25.2750  146.5665 O   0  0  0  0  0  0  0  0  0  0  0  0
  1  2  1  0
  2  3  2  0
  4  5  1  0
  4  2  1  0
  6  8  1  0
  6  5  1  0
  6  7  1  1
  8 15  1  0
  9  8  2  0
 10 11  1  0
 11 12  1  0
 12 13  1  0
 14 13  1  6
 14 16  1  0
 15 14  1  0
 16 17  2  0
 16 18  1  0
 18 19  1  0
 20 21  1  0
 20 19  1  0
 22 20  2  0
M  END
$$$$
