QMG.pdb
     RDKit          3D

 22 21  0  0  1  0  0  0  0  0999 V2000
   28.5685  -17.9199  -15.6783 N   0  0  0  0  0  0  0  0  0  0  0  0
   27.1364  -17.9538  -15.5165 C   0  0  0  0  0  0  0  0  0  0  0  0
   26.4032  -17.4537  -16.4039 O   0  0  0  0  0  0  0  0  0  0  0  0
   26.6014  -18.5803  -14.3085 C   0  0  0  0  0  0  0  0  0  0  0  0
   27.7040  -18.9159  -13.3511 C   0  0  0  0  0  0  0  0  0  0  0  0
   27.8743  -20.3877  -13.1640 C   0  0  2  0  0  0  0  0  0  0  0  0
   27.4932  -21.0589  -14.3944 N   0  0  0  0  0  0  0  0  0  0  0  0
   26.9692  -20.7847  -12.0395 C   0  0  0  0  0  0  0  0  0  0  0  0
   25.9649  -21.4635  -12.2779 O   0  0  0  0  0  0  0  0  0  0  0  0
   26.8852  -20.2602   -4.1387 C   0  0  0  0  0  0  0  0  0  0  0  0
   27.6400  -19.9242   -5.7667 S   0  0  0  0  0  0  0  0  0  0  0  0
   26.5528  -20.5143   -7.0774 C   0  0  0  0  0  0  0  0  0  0  0  0
   27.1451  -20.3529   -8.4158 C   0  0  0  0  0  0  0  0  0  0  0  0
   26.4002  -20.7657   -9.6185 C   0  0  2  0  0  0  0  0  0  0  0  0
   27.2937  -20.3703  -10.7456 N   0  0  0  0  0  0  0  0  0  0  0  0
   25.1118  -20.1356   -9.9115 C   0  0  0  0  0  0  0  0  0  0  0  0
   25.0029  -18.9029  -10.0721 O   0  0  0  0  0  0  0  0  0  0  0  0
   23.9014  -20.8847  -10.0319 N   0  0  0  0  0  0  0  0  0  0  0  0
   22.6028  -20.2556  -10.1478 C   0  0  0  0  0  0  0  0  0  0  0  0
   21.7265  -20.9580  -11.1095 C   0  0  0  0  0  0  0  0  0  0  0  0
   20.3891  -20.6153  -11.1881 O   0  0  0  0  0  0  0  0  0  0  0  0
   22.2245  -21.8616  -11.8421 O   0  0  0  0  0  0  0  0  0  0  0  0
  1  2  1  0
  2  3  2  0
  4  5  1  0
  4  2  1  0
  6  8  1  0
  6  5  1  0
  6  7  1  6
  8 15  1  0
  9  8  2  0
 10 11  1  0
 11 12  1  0
 12 13  1  0
 14 13  1  1
 14 16  1  0
 15 14  1  0
 16 17  2  0
 16 18  1  0
 18 19  1  0
 20 21  1  0
 20 19  1  0
 22 20  2  0
M  END
$$$$
