QDY.pdb
     RDKit          3D

 30 30  0  0  1  0  0  0  0  0999 V2000
   29.1979  -20.7469  -21.5424 N   0  0  0  0  0  0  0  0  0  0  0  0
   28.7942  -19.5195  -20.9285 C   0  0  0  0  0  0  0  0  0  0  0  0
   27.8013  -18.9334  -21.3723 O   0  0  0  0  0  0  0  0  0  0  0  0
   29.5764  -19.0196  -19.8042 C   0  0  0  0  0  0  0  0  0  0  0  0
   28.7623  -18.7803  -18.5845 C   0  0  0  0  0  0  0  0  0  0  0  0
   28.2663  -20.0098  -17.8790 C   0  0  2  0  0  0  0  0  0  0  0  0
   27.9124  -21.0701  -18.7851 N   0  0  0  0  0  0  0  0  0  0  0  0
   27.1557  -19.5915  -17.0021 C   0  0  0  0  0  0  0  0  0  0  0  0
   27.4009  -18.7430  -16.1122 O   0  0  0  0  0  0  0  0  0  0  0  0
   25.8269  -20.0996  -17.1146 N   0  0  0  0  0  0  0  0  0  0  0  0
   24.7888  -19.7891  -16.1574 C   0  0  1  0  0  0  0  0  0  0  0  0
   23.4931  -19.5449  -16.8703 C   0  0  0  0  0  0  0  0  0  0  0  0
   22.3967  -19.0949  -16.0037 C   0  0  0  0  0  0  0  0  0  0  0  0
   21.5481  -19.9205  -15.5991 O   0  0  0  0  0  0  0  0  0  0  0  0
   24.6605  -20.8375  -15.1181 C   0  0  0  0  0  0  0  0  0  0  0  0
   25.3426  -21.8804  -15.2073 O   0  0  0  0  0  0  0  0  0  0  0  0
   22.2661  -17.7748  -15.6134 O   0  0  0  0  0  0  0  0  0  0  0  0
   27.2064  -20.4872   -7.0983 O   0  0  0  0  0  0  0  0  0  0  0  0
   26.7610  -20.3932   -8.3998 C   0  0  0  0  0  0  0  0  0  0  0  0
   26.8291  -21.4858   -9.2309 C   0  0  0  0  0  0  0  0  0  0  0  0
   26.3837  -21.3985  -10.5387 C   0  0  0  0  0  0  0  0  0  0  0  0
   25.8706  -20.2200  -11.0161 C   0  0  0  0  0  0  0  0  0  0  0  0
   25.4046  -20.1442  -12.4095 C   0  0  0  0  0  0  0  0  0  0  0  0
   24.1417  -20.9358  -12.6738 C   0  0  2  0  0  0  0  0  0  0  0  0
   23.7621  -20.6254  -14.0465 N   0  0  0  0  0  0  0  0  0  0  0  0
   23.0385  -20.5982  -11.7588 C   0  0  0  0  0  0  0  0  0  0  0  0
   22.0698  -19.7075  -12.1421 O   0  0  0  0  0  0  0  0  0  0  0  0
   25.7947  -19.1186  -10.2005 C   0  0  0  0  0  0  0  0  0  0  0  0
   26.2491  -19.2289   -8.8863 C   0  0  0  0  0  0  0  0  0  0  0  0
   22.9999  -21.1355  -10.6301 O   0  0  0  0  0  0  0  0  0  0  0  0
  2  3  2  0
  2  1  1  0
  4  2  1  0
  5  6  1  0
  5  4  1  0
  6  7  1  6
  6  8  1  0
  8  9  2  0
  8 10  1  0
 10 11  1  0
 11 12  1  6
 12 13  1  0
 13 17  1  0
 14 13  2  0
 15 11  1  0
 15 16  2  0
 18 19  1  0
 19 20  2  0
 20 21  1  0
 22 21  2  0
 22 23  1  0
 24 23  1  1
 24 25  1  0
 25 15  1  0
 26 24  1  0
 27 26  1  0
 28 22  1  0
 29 19  1  0
 29 28  2  0
 30 26  2  0
M  END
$$$$
