QDY.pdb
     RDKit          3D

 30 30  0  0  1  0  0  0  0  0999 V2000
   25.6925  -33.4113  -11.0372 N   0  0  0  0  0  0  0  0  0  0  0  0
   24.9824  -33.2063  -12.2620 C   0  0  0  0  0  0  0  0  0  0  0  0
   25.5675  -33.4196  -13.3290 O   0  0  0  0  0  0  0  0  0  0  0  0
   23.5977  -32.7555  -12.1904 C   0  0  0  0  0  0  0  0  0  0  0  0
   23.1329  -32.5091  -10.8008 C   0  0  0  0  0  0  0  0  0  0  0  0
   22.9152  -33.7333   -9.9586 C   0  0  2  0  0  0  0  0  0  0  0  0
   21.9662  -34.6479  -10.5360 N   0  0  0  0  0  0  0  0  0  0  0  0
   22.5398  -33.2725   -8.6080 C   0  0  0  0  0  0  0  0  0  0  0  0
   23.2965  -32.4503   -8.0392 O   0  0  0  0  0  0  0  0  0  0  0  0
   21.3683  -33.7117   -7.9215 N   0  0  0  0  0  0  0  0  0  0  0  0
   21.0475  -33.2898   -6.5764 C   0  0  1  0  0  0  0  0  0  0  0  0
   19.6043  -32.8933   -6.4959 C   0  0  0  0  0  0  0  0  0  0  0  0
   19.1731  -32.4297   -5.1712 C   0  0  0  0  0  0  0  0  0  0  0  0
   20.0270  -32.2102   -4.2835 O   0  0  0  0  0  0  0  0  0  0  0  0
   21.3950  -34.3233   -5.5728 C   0  0  0  0  0  0  0  0  0  0  0  0
   20.7454  -35.3898   -5.5362 O   0  0  0  0  0  0  0  0  0  0  0  0
   17.8404  -32.2243   -4.8651 O   0  0  0  0  0  0  0  0  0  0  0  0
   24.6359  -40.6042   -1.0948 O   0  0  0  0  0  0  0  0  0  0  0  0
   24.2746  -39.5506   -1.9074 C   0  0  0  0  0  0  0  0  0  0  0  0
   25.2315  -38.8813   -2.6324 C   0  0  0  0  0  0  0  0  0  0  0  0
   24.8759  -37.8226   -3.4502 C   0  0  0  0  0  0  0  0  0  0  0  0
   23.5648  -37.4324   -3.5437 C   0  0  0  0  0  0  0  0  0  0  0  0
   23.2051  -36.3032   -4.4153 C   0  0  0  0  0  0  0  0  0  0  0  0
   22.8363  -35.0438   -3.6606 C   0  0  2  0  0  0  0  0  0  0  0  0
   22.4609  -34.0701   -4.6782 N   0  0  0  0  0  0  0  0  0  0  0  0
   23.9362  -34.5126   -2.8382 C   0  0  0  0  0  0  0  0  0  0  0  0
   24.3951  -33.2366   -3.0379 O   0  0  0  0  0  0  0  0  0  0  0  0
   22.5956  -38.0890   -2.8270 C   0  0  0  0  0  0  0  0  0  0  0  0
   22.9762  -39.1531   -2.0092 C   0  0  0  0  0  0  0  0  0  0  0  0
   24.4430  -35.2419   -1.9577 O   0  0  0  0  0  0  0  0  0  0  0  0
  2  3  2  0
  2  1  1  0
  4  2  1  0
  5  6  1  0
  5  4  1  0
  6  7  1  6
  6  8  1  0
  8  9  2  0
  8 10  1  0
 10 11  1  0
 11 12  1  6
 12 13  1  0
 13 17  1  0
 14 13  2  0
 15 11  1  0
 15 16  2  0
 18 19  1  0
 19 20  2  0
 20 21  1  0
 22 21  2  0
 22 23  1  0
 24 23  1  6
 24 25  1  0
 25 15  1  0
 26 24  1  0
 27 26  1  0
 28 22  1  0
 29 19  1  0
 29 28  2  0
 30 26  2  0
M  END
$$$$
