QDY.pdb
     RDKit          3D

 30 30  0  0  1  0  0  0  0  0999 V2000
   21.2737  -10.1983  -20.6202 N   0  0  0  0  0  0  0  0  0  0  0  0
   21.3398  -11.6259  -20.6813 C   0  0  0  0  0  0  0  0  0  0  0  0
   21.6010  -12.1613  -21.7637 O   0  0  0  0  0  0  0  0  0  0  0  0
   21.0961  -12.3816  -19.4584 C   0  0  0  0  0  0  0  0  0  0  0  0
   20.7632  -11.5204  -18.2942 C   0  0  0  0  0  0  0  0  0  0  0  0
   21.9337  -11.0121  -17.5024 C   0  0  2  0  0  0  0  0  0  0  0  0
   22.7185  -12.0697  -16.9227 N   0  0  0  0  0  0  0  0  0  0  0  0
   21.4062  -10.0589  -16.5071 C   0  0  0  0  0  0  0  0  0  0  0  0
   20.8140  -10.5267  -15.5058 O   0  0  0  0  0  0  0  0  0  0  0  0
   21.5348   -8.6426  -16.6253 N   0  0  0  0  0  0  0  0  0  0  0  0
   20.9882   -7.7251  -15.6508 C   0  0  1  0  0  0  0  0  0  0  0  0
   22.0179   -6.7014  -15.2791 C   0  0  0  0  0  0  0  0  0  0  0  0
   21.5426   -5.6694  -14.3491 C   0  0  0  0  0  0  0  0  0  0  0  0
   21.0131   -6.0071  -13.2670 O   0  0  0  0  0  0  0  0  0  0  0  0
   19.7300   -7.0998  -16.1219 C   0  0  0  0  0  0  0  0  0  0  0  0
   19.6761   -6.6142  -17.2717 O   0  0  0  0  0  0  0  0  0  0  0  0
   21.6604   -4.3205  -14.6294 O   0  0  0  0  0  0  0  0  0  0  0  0
   14.4272  -11.9043  -14.4848 O   0  0  0  0  0  0  0  0  0  0  0  0
   14.9960  -10.7667  -15.0169 C   0  0  0  0  0  0  0  0  0  0  0  0
   14.3509   -9.5581  -14.9054 C   0  0  0  0  0  0  0  0  0  0  0  0
   14.9162   -8.4120  -15.4373 C   0  0  0  0  0  0  0  0  0  0  0  0
   16.1256   -8.4731  -16.0804 C   0  0  0  0  0  0  0  0  0  0  0  0
   16.7104   -7.2457  -16.6424 C   0  0  0  0  0  0  0  0  0  0  0  0
   17.3930   -6.3694  -15.6139 C   0  0  2  0  0  0  0  0  0  0  0  0
   18.6175   -7.0707  -15.2489 N   0  0  0  0  0  0  0  0  0  0  0  0
   16.5737   -6.1308  -14.4139 C   0  0  0  0  0  0  0  0  0  0  0  0
   16.9796   -6.6054  -13.1937 O   0  0  0  0  0  0  0  0  0  0  0  0
   16.7843   -9.6713  -16.2012 C   0  0  0  0  0  0  0  0  0  0  0  0
   16.1965  -10.8136  -15.6578 C   0  0  0  0  0  0  0  0  0  0  0  0
   15.5053   -5.4904  -14.5255 O   0  0  0  0  0  0  0  0  0  0  0  0
  2  3  2  0
  2  1  1  0
  4  2  1  0
  5  6  1  0
  5  4  1  0
  6  7  1  1
  6  8  1  0
  8  9  2  0
  8 10  1  0
 10 11  1  0
 11 12  1  6
 12 13  1  0
 13 17  1  0
 14 13  2  0
 15 11  1  0
 15 16  2  0
 18 19  1  0
 19 20  2  0
 20 21  1  0
 22 21  2  0
 22 23  1  0
 24 23  1  6
 24 25  1  0
 25 15  1  0
 26 24  1  0
 27 26  1  0
 28 22  1  0
 29 19  1  0
 29 28  2  0
 30 26  2  0
M  END
$$$$
