QDY.pdb
     RDKit          3D

 30 30  0  0  1  0  0  0  0  0999 V2000
   18.6624  -12.7906  -20.8834 N   0  0  0  0  0  0  0  0  0  0  0  0
   18.7953  -13.8749  -19.9599 C   0  0  0  0  0  0  0  0  0  0  0  0
   18.5074  -15.0150  -20.3391 O   0  0  0  0  0  0  0  0  0  0  0  0
   19.2671  -13.5804  -18.6121 C   0  0  0  0  0  0  0  0  0  0  0  0
   19.5144  -12.1336  -18.3811 C   0  0  0  0  0  0  0  0  0  0  0  0
   20.0185  -11.7675  -17.0147 C   0  0  2  0  0  0  0  0  0  0  0  0
   19.4318  -12.5642  -15.9700 N   0  0  0  0  0  0  0  0  0  0  0  0
   19.7984  -10.3186  -16.8422 C   0  0  0  0  0  0  0  0  0  0  0  0
   20.2789   -9.5470  -17.7058 O   0  0  0  0  0  0  0  0  0  0  0  0
   19.0717   -9.7552  -15.7508 N   0  0  0  0  0  0  0  0  0  0  0  0
   18.8016   -8.3391  -15.6409 C   0  0  1  0  0  0  0  0  0  0  0  0
   17.6782   -8.1068  -14.6764 C   0  0  0  0  0  0  0  0  0  0  0  0
   16.3850   -8.6549  -15.1042 C   0  0  0  0  0  0  0  0  0  0  0  0
   16.1085   -8.7104  -16.3231 O   0  0  0  0  0  0  0  0  0  0  0  0
   20.0140   -7.5695  -15.2753 C   0  0  0  0  0  0  0  0  0  0  0  0
   20.9157   -8.1202  -14.6087 O   0  0  0  0  0  0  0  0  0  0  0  0
   15.4495   -9.1178  -14.1973 O   0  0  0  0  0  0  0  0  0  0  0  0
   26.8576   -3.0149  -17.6533 O   0  0  0  0  0  0  0  0  0  0  0  0
   25.7471   -3.7835  -17.3756 C   0  0  0  0  0  0  0  0  0  0  0  0
   25.6060   -4.3670  -16.1391 C   0  0  0  0  0  0  0  0  0  0  0  0
   24.4937   -5.1399  -15.8534 C   0  0  0  0  0  0  0  0  0  0  0  0
   23.5227   -5.3299  -16.8026 C   0  0  0  0  0  0  0  0  0  0  0  0
   22.3486   -6.1567  -16.4828 C   0  0  0  0  0  0  0  0  0  0  0  0
   21.3634   -5.4825  -15.5521 C   0  0  2  0  0  0  0  0  0  0  0  0
   20.1159   -6.2228  -15.6952 N   0  0  0  0  0  0  0  0  0  0  0  0
   21.1429   -4.0608  -15.8655 C   0  0  0  0  0  0  0  0  0  0  0  0
   21.8259   -3.0880  -15.1828 O   0  0  0  0  0  0  0  0  0  0  0  0
   23.6466   -4.7548  -18.0428 C   0  0  0  0  0  0  0  0  0  0  0  0
   24.7755   -3.9799  -18.3091 C   0  0  0  0  0  0  0  0  0  0  0  0
   20.3252   -3.7562  -16.7615 O   0  0  0  0  0  0  0  0  0  0  0  0
  2  3  2  0
  2  1  1  0
  4  2  1  0
  5  6  1  0
  5  4  1  0
  6  7  1  1
  6  8  1  0
  8  9  2  0
  8 10  1  0
 10 11  1  0
 11 12  1  1
 12 13  1  0
 13 17  1  0
 14 13  2  0
 15 11  1  0
 15 16  2  0
 18 19  1  0
 19 20  2  0
 20 21  1  0
 22 21  2  0
 22 23  1  0
 24 23  1  6
 24 25  1  0
 25 15  1  0
 26 24  1  0
 27 26  1  0
 28 22  1  0
 29 19  1  0
 29 28  2  0
 30 26  2  0
M  END
$$$$
