QDY.pdb
     RDKit          3D

 30 30  0  0  1  0  0  0  0  0999 V2000
   25.6084  -17.5250  -22.2116 N   0  0  0  0  0  0  0  0  0  0  0  0
   26.3407  -18.6219  -22.7656 C   0  0  0  0  0  0  0  0  0  0  0  0
   26.0705  -18.9963  -23.9115 O   0  0  0  0  0  0  0  0  0  0  0  0
   27.3745  -19.2453  -21.9481 C   0  0  0  0  0  0  0  0  0  0  0  0
   27.4881  -18.6488  -20.5919 C   0  0  0  0  0  0  0  0  0  0  0  0
   27.2668  -19.5910  -19.4437 C   0  0  2  0  0  0  0  0  0  0  0  0
   27.1538  -20.9637  -19.8603 N   0  0  0  0  0  0  0  0  0  0  0  0
   26.0886  -19.1039  -18.7005 C   0  0  0  0  0  0  0  0  0  0  0  0
   26.1229  -17.9338  -18.2517 O   0  0  0  0  0  0  0  0  0  0  0  0
   24.9211  -19.8911  -18.4686 N   0  0  0  0  0  0  0  0  0  0  0  0
   23.8139  -19.4267  -17.6631 C   0  0  1  0  0  0  0  0  0  0  0  0
   22.5555  -19.4243  -18.4772 C   0  0  0  0  0  0  0  0  0  0  0  0
   21.3826  -18.8776  -17.7836 C   0  0  0  0  0  0  0  0  0  0  0  0
   20.3582  -19.5831  -17.6485 O   0  0  0  0  0  0  0  0  0  0  0  0
   23.6660  -20.2141  -16.4165 C   0  0  0  0  0  0  0  0  0  0  0  0
   23.7637  -21.4589  -16.4586 O   0  0  0  0  0  0  0  0  0  0  0  0
   21.3686  -17.5947  -17.2678 O   0  0  0  0  0  0  0  0  0  0  0  0
   23.6359  -21.5265   -7.7057 O   0  0  0  0  0  0  0  0  0  0  0  0
   23.7323  -21.0269   -8.9871 C   0  0  0  0  0  0  0  0  0  0  0  0
   24.9052  -21.1605   -9.6912 C   0  0  0  0  0  0  0  0  0  0  0  0
   25.0090  -20.6613  -10.9781 C   0  0  0  0  0  0  0  0  0  0  0  0
   23.9415  -20.0287  -11.5615 C   0  0  0  0  0  0  0  0  0  0  0  0
   24.0704  -19.5016  -12.9290 C   0  0  0  0  0  0  0  0  0  0  0  0
   23.2444  -20.2519  -13.9519 C   0  0  2  0  0  0  0  0  0  0  0  0
   23.4164  -19.5278  -15.2051 N   0  0  0  0  0  0  0  0  0  0  0  0
   21.8149  -20.3269  -13.6069 C   0  0  0  0  0  0  0  0  0  0  0  0
   20.9510  -19.3467  -14.0212 O   0  0  0  0  0  0  0  0  0  0  0  0
   22.7623  -19.8862  -10.8736 C   0  0  0  0  0  0  0  0  0  0  0  0
   22.6797  -20.3968   -9.5781 C   0  0  0  0  0  0  0  0  0  0  0  0
   21.4032  -21.2960  -12.9320 O   0  0  0  0  0  0  0  0  0  0  0  0
  2  3  2  0
  2  1  1  0
  4  2  1  0
  5  6  1  0
  5  4  1  0
  6  7  1  6
  6  8  1  0
  8  9  2  0
  8 10  1  0
 10 11  1  0
 11 12  1  6
 12 13  1  0
 13 17  1  0
 14 13  2  0
 15 11  1  0
 15 16  2  0
 18 19  1  0
 19 20  2  0
 20 21  1  0
 22 21  2  0
 22 23  1  0
 24 23  1  1
 24 25  1  0
 25 15  1  0
 26 24  1  0
 27 26  1  0
 28 22  1  0
 29 19  1  0
 29 28  2  0
 30 26  2  0
M  END
$$$$
