QDY.pdb
     RDKit          3D

 30 30  0  0  1  0  0  0  0  0999 V2000
   33.6186  -39.5948   -5.9408 N   0  0  0  0  0  0  0  0  0  0  0  0
   32.2384  -39.7338   -5.5914 C   0  0  0  0  0  0  0  0  0  0  0  0
   31.4938  -40.3579   -6.3546 O   0  0  0  0  0  0  0  0  0  0  0  0
   31.7770  -39.1312   -4.3465 C   0  0  0  0  0  0  0  0  0  0  0  0
   32.8466  -38.4021   -3.6169 C   0  0  0  0  0  0  0  0  0  0  0  0
   32.6890  -36.9102   -3.5473 C   0  0  2  0  0  0  0  0  0  0  0  0
   33.7480  -36.2696   -2.8134 N   0  0  0  0  0  0  0  0  0  0  0  0
   31.3464  -36.6385   -2.9986 C   0  0  0  0  0  0  0  0  0  0  0  0
   30.3545  -36.9358   -3.7055 O   0  0  0  0  0  0  0  0  0  0  0  0
   31.1213  -36.0591   -1.7140 N   0  0  0  0  0  0  0  0  0  0  0  0
   29.7986  -35.8871   -1.1562 C   0  0  1  0  0  0  0  0  0  0  0  0
   29.8897  -35.7108    0.3294 C   0  0  0  0  0  0  0  0  0  0  0  0
   28.6010  -35.4867    0.9962 C   0  0  0  0  0  0  0  0  0  0  0  0
   27.5460  -35.4939    0.3237 O   0  0  0  0  0  0  0  0  0  0  0  0
   29.0642  -34.7740   -1.8023 C   0  0  0  0  0  0  0  0  0  0  0  0
   29.5279  -33.6153   -1.7465 O   0  0  0  0  0  0  0  0  0  0  0  0
   28.5096  -35.2649    2.3580 O   0  0  0  0  0  0  0  0  0  0  0  0
   25.4753  -31.2054   -8.6959 O   0  0  0  0  0  0  0  0  0  0  0  0
   26.1057  -31.7880   -7.6170 C   0  0  0  0  0  0  0  0  0  0  0  0
   27.1261  -32.6865   -7.8191 C   0  0  0  0  0  0  0  0  0  0  0  0
   27.7634  -33.2753   -6.7405 C   0  0  0  0  0  0  0  0  0  0  0  0
   27.3814  -32.9667   -5.4603 C   0  0  0  0  0  0  0  0  0  0  0  0
   28.0676  -33.6041   -4.3258 C   0  0  0  0  0  0  0  0  0  0  0  0
   27.1370  -34.0232   -3.2078 C   0  0  2  0  0  0  0  0  0  0  0  0
   27.8495  -35.0580   -2.4689 N   0  0  0  0  0  0  0  0  0  0  0  0
   25.8466  -34.5460   -3.6872 C   0  0  0  0  0  0  0  0  0  0  0  0
   24.7396  -33.7381   -3.7131 O   0  0  0  0  0  0  0  0  0  0  0  0
   26.3645  -32.0717   -5.2393 C   0  0  0  0  0  0  0  0  0  0  0  0
   25.7362  -31.4903   -6.3407 C   0  0  0  0  0  0  0  0  0  0  0  0
   25.7772  -35.7350   -4.0689 O   0  0  0  0  0  0  0  0  0  0  0  0
  2  3  2  0
  2  1  1  0
  4  2  1  0
  5  6  1  0
  5  4  1  0
  6  7  1  1
  6  8  1  0
  8  9  2  0
  8 10  1  0
 10 11  1  0
 11 12  1  1
 12 13  1  0
 13 17  1  0
 14 13  2  0
 15 11  1  0
 15 16  2  0
 18 19  1  0
 19 20  2  0
 20 21  1  0
 22 21  2  0
 22 23  1  0
 24 23  1  6
 24 25  1  0
 25 15  1  0
 26 24  1  0
 27 26  1  0
 28 22  1  0
 29 19  1  0
 29 28  2  0
 30 26  2  0
M  END
$$$$
