QDY.pdb
     RDKit          3D

 30 30  0  0  1  0  0  0  0  0999 V2000
   29.3450  -28.1020  -15.9706 N   0  0  0  0  0  0  0  0  0  0  0  0
   29.6213  -28.0732  -17.3739 C   0  0  0  0  0  0  0  0  0  0  0  0
   30.0822  -29.0875  -17.9080 O   0  0  0  0  0  0  0  0  0  0  0  0
   29.3432  -26.8444  -18.1075 C   0  0  0  0  0  0  0  0  0  0  0  0
   28.8151  -25.7547  -17.2464 C   0  0  0  0  0  0  0  0  0  0  0  0
   27.3547  -25.8408  -16.9068 C   0  0  2  0  0  0  0  0  0  0  0  0
   26.5650  -26.4014  -17.9710 N   0  0  0  0  0  0  0  0  0  0  0  0
   26.9206  -24.4896  -16.5024 C   0  0  0  0  0  0  0  0  0  0  0  0
   27.5719  -23.9116  -15.6004 O   0  0  0  0  0  0  0  0  0  0  0  0
   25.8057  -23.8127  -17.0814 N   0  0  0  0  0  0  0  0  0  0  0  0
   25.3349  -22.5325  -16.6021 C   0  0  1  0  0  0  0  0  0  0  0  0
   25.4958  -21.4957  -17.6724 C   0  0  0  0  0  0  0  0  0  0  0  0
   25.1338  -20.1338  -17.2604 C   0  0  0  0  0  0  0  0  0  0  0  0
   23.9293  -19.7971  -17.2244 O   0  0  0  0  0  0  0  0  0  0  0  0
   23.9407  -22.6043  -16.1053 C   0  0  0  0  0  0  0  0  0  0  0  0
   23.2423  -23.6054  -16.3719 O   0  0  0  0  0  0  0  0  0  0  0  0
   26.0878  -19.1977  -16.9061 O   0  0  0  0  0  0  0  0  0  0  0  0
   16.6739  -23.1830  -11.9091 O   0  0  0  0  0  0  0  0  0  0  0  0
   17.9460  -23.0681  -12.4282 C   0  0  0  0  0  0  0  0  0  0  0  0
   18.8932  -22.3214  -11.7690 C   0  0  0  0  0  0  0  0  0  0  0  0
   20.1723  -22.2017  -12.2845 C   0  0  0  0  0  0  0  0  0  0  0  0
   20.5052  -22.8276  -13.4581 C   0  0  0  0  0  0  0  0  0  0  0  0
   21.8684  -22.6871  -13.9931 C   0  0  0  0  0  0  0  0  0  0  0  0
   22.0433  -21.4964  -14.9113 C   0  0  2  0  0  0  0  0  0  0  0  0
   23.4368  -21.5287  -15.3375 N   0  0  0  0  0  0  0  0  0  0  0  0
   21.7462  -20.2090  -14.2612 C   0  0  0  0  0  0  0  0  0  0  0  0
   20.4507  -19.7781  -14.1399 O   0  0  0  0  0  0  0  0  0  0  0  0
   19.5723  -23.5774  -14.1301 C   0  0  0  0  0  0  0  0  0  0  0  0
   18.2895  -23.6846  -13.5927 C   0  0  0  0  0  0  0  0  0  0  0  0
   22.6917  -19.5175  -13.8231 O   0  0  0  0  0  0  0  0  0  0  0  0
  2  3  2  0
  2  1  1  0
  4  2  1  0
  5  6  1  0
  5  4  1  0
  6  7  1  6
  6  8  1  0
  8  9  2  0
  8 10  1  0
 10 11  1  0
 11 12  1  6
 12 13  1  0
 13 17  1  0
 14 13  2  0
 15 11  1  0
 15 16  2  0
 18 19  1  0
 19 20  2  0
 20 21  1  0
 22 21  2  0
 22 23  1  0
 24 23  1  1
 24 25  1  0
 25 15  1  0
 26 24  1  0
 27 26  1  0
 28 22  1  0
 29 19  1  0
 29 28  2  0
 30 26  2  0
M  END
$$$$
