QDY.pdb
     RDKit          3D

 30 30  0  0  1  0  0  0  0  0999 V2000
   15.2727   -5.3476  -20.6306 N   0  0  0  0  0  0  0  0  0  0  0  0
   15.5291   -4.0571  -21.1920 C   0  0  0  0  0  0  0  0  0  0  0  0
   16.0433   -3.9902  -22.3134 O   0  0  0  0  0  0  0  0  0  0  0  0
   15.1684   -2.8800  -20.4108 C   0  0  0  0  0  0  0  0  0  0  0  0
   14.5500   -3.2129  -19.1014 C   0  0  0  0  0  0  0  0  0  0  0  0
   15.3736   -2.8866  -17.8887 C   0  0  2  0  0  0  0  0  0  0  0  0
   16.2343   -1.7506  -18.0863 N   0  0  0  0  0  0  0  0  0  0  0  0
   16.0994   -4.1147  -17.5110 C   0  0  0  0  0  0  0  0  0  0  0  0
   15.4378   -5.1736  -17.3976 O   0  0  0  0  0  0  0  0  0  0  0  0
   17.5054   -4.1579  -17.2701 N   0  0  0  0  0  0  0  0  0  0  0  0
   18.1912   -5.3646  -16.8653 C   0  0  1  0  0  0  0  0  0  0  0  0
   19.6226   -5.3110  -17.3065 C   0  0  0  0  0  0  0  0  0  0  0  0
   20.3771   -6.5497  -17.0779 C   0  0  0  0  0  0  0  0  0  0  0  0
   21.5854   -6.4891  -16.7590 O   0  0  0  0  0  0  0  0  0  0  0  0
   18.0691   -5.6105  -15.4092 C   0  0  0  0  0  0  0  0  0  0  0  0
   18.2235   -4.6634  -14.6091 O   0  0  0  0  0  0  0  0  0  0  0  0
   19.7933   -7.7968  -17.2038 O   0  0  0  0  0  0  0  0  0  0  0  0
   15.1935   -8.7577   -7.8823 O   0  0  0  0  0  0  0  0  0  0  0  0
   15.4468   -8.3966   -9.1885 C   0  0  0  0  0  0  0  0  0  0  0  0
   15.6860   -9.3636  -10.1357 C   0  0  0  0  0  0  0  0  0  0  0  0
   15.9410   -9.0082  -11.4490 C   0  0  0  0  0  0  0  0  0  0  0  0
   15.9574   -7.6872  -11.8161 C   0  0  0  0  0  0  0  0  0  0  0  0
   16.2331   -7.3274  -13.2156 C   0  0  0  0  0  0  0  0  0  0  0  0
   17.7084   -7.2341  -13.5417 C   0  0  2  0  0  0  0  0  0  0  0  0
   17.7788   -6.9211  -14.9636 N   0  0  0  0  0  0  0  0  0  0  0  0
   18.4478   -8.4767  -13.2635 C   0  0  0  0  0  0  0  0  0  0  0  0
   18.9996   -8.6911  -12.0272 O   0  0  0  0  0  0  0  0  0  0  0  0
   15.7207   -6.7079  -10.8838 C   0  0  0  0  0  0  0  0  0  0  0  0
   15.4658   -7.0885   -9.5663 C   0  0  0  0  0  0  0  0  0  0  0  0
   18.5637   -9.3303  -14.1701 O   0  0  0  0  0  0  0  0  0  0  0  0
  2  3  2  0
  2  1  1  0
  4  2  1  0
  5  6  1  0
  5  4  1  0
  6  7  1  6
  6  8  1  0
  8  9  2  0
  8 10  1  0
 10 11  1  0
 11 12  1  1
 12 13  1  0
 13 17  1  0
 14 13  2  0
 15 11  1  0
 15 16  2  0
 18 19  1  0
 19 20  2  0
 20 21  1  0
 22 21  2  0
 22 23  1  0
 24 23  1  6
 24 25  1  0
 25 15  1  0
 26 24  1  0
 27 26  1  0
 28 22  1  0
 29 19  1  0
 29 28  2  0
 30 26  2  0
M  END
$$$$
