ECA.pdb
     RDKit          3D

 21 20  0  0  1  0  0  0  0  0999 V2000
   15.7658  -14.4104  -17.0128 N   0  0  0  0  0  0  0  0  0  0  0  0
   16.2176  -13.5700  -15.8833 C   0  0  1  0  0  0  0  0  0  0  0  0
   17.0589  -14.4323  -14.9999 C   0  0  0  0  0  0  0  0  0  0  0  0
   16.2589  -15.4207  -14.2356 C   0  0  0  0  0  0  0  0  0  0  0  0
   17.1264  -16.2914  -13.4258 C   0  0  0  0  0  0  0  0  0  0  0  0
   18.3656  -16.2603  -13.3933 O   0  0  0  0  0  0  0  0  0  0  0  0
   16.9968  -12.4297  -16.3865 C   0  0  0  0  0  0  0  0  0  0  0  0
   17.6477  -12.5309  -17.4460 O   0  0  0  0  0  0  0  0  0  0  0  0
   16.4754  -17.2423  -12.6187 O   0  0  0  0  0  0  0  0  0  0  0  0
   17.0486  -11.1807  -15.7090 N   0  0  0  0  0  0  0  0  0  0  0  0
   17.7293  -10.0119  -16.2235 C   0  0  1  0  0  0  0  0  0  0  0  0
   16.6715   -8.9574  -16.4666 C   0  0  0  0  0  0  0  0  0  0  0  0
   15.4706   -9.4487  -17.7000 S   0  0  0  0  0  0  0  0  0  0  0  0
   18.7565   -9.5461  -15.2562 C   0  0  0  0  0  0  0  0  0  0  0  0
   18.4985   -9.4773  -14.0091 O   0  0  0  0  0  0  0  0  0  0  0  0
   22.4635   -8.7647  -15.4541 C   0  0  0  0  0  0  0  0  0  0  0  0
   21.1205   -8.8057  -14.7894 C   0  0  2  0  0  0  0  0  0  0  0  0
   20.0444   -9.1654  -15.6718 N   0  0  0  0  0  0  0  0  0  0  0  0
   20.8603   -7.4600  -14.2133 C   0  0  0  0  0  0  0  0  0  0  0  0
   21.4802   -6.9677  -13.0887 O   0  0  0  0  0  0  0  0  0  0  0  0
   20.0126   -6.6808  -14.7703 O   0  0  0  0  0  0  0  0  0  0  0  0
  2  1  1  6
  3  2  1  0
  3  4  1  0
  4  5  1  0
  5  9  1  0
  5  6  2  0
  7  2  1  0
  7 10  1  0
  8  7  2  0
 11 10  1  0
 11 12  1  1
 13 12  1  0
 14 18  1  0
 14 11  1  0
 15 14  2  0
 17 18  1  0
 17 16  1  6
 19 17  1  0
 20 19  1  0
 21 19  2  0
M  END
$$$$
