ECA.pdb
     RDKit          3D

 21 20  0  0  1  0  0  0  0  0999 V2000
   17.9109  -11.8885  -17.6863 N   0  0  0  0  0  0  0  0  0  0  0  0
   18.0531  -10.4170  -17.6645 C   0  0  1  0  0  0  0  0  0  0  0  0
   16.8232   -9.8637  -17.0218 C   0  0  0  0  0  0  0  0  0  0  0  0
   16.1516   -8.8397  -17.8593 C   0  0  0  0  0  0  0  0  0  0  0  0
   16.3664   -7.4883  -17.3172 C   0  0  0  0  0  0  0  0  0  0  0  0
   16.7806   -6.5055  -17.9499 O   0  0  0  0  0  0  0  0  0  0  0  0
   19.2504  -10.0398  -16.8996 C   0  0  0  0  0  0  0  0  0  0  0  0
   19.4856  -10.5720  -15.7960 O   0  0  0  0  0  0  0  0  0  0  0  0
   16.0702   -7.3098  -15.9535 O   0  0  0  0  0  0  0  0  0  0  0  0
   20.1818   -9.0719  -17.3657 N   0  0  0  0  0  0  0  0  0  0  0  0
   21.3142   -8.6057  -16.5946 C   0  0  1  0  0  0  0  0  0  0  0  0
   22.5554   -8.9168  -17.4024 C   0  0  0  0  0  0  0  0  0  0  0  0
   24.0517   -8.2856  -16.6487 S   0  0  0  0  0  0  0  0  0  0  0  0
   21.1877   -7.1507  -16.3212 C   0  0  0  0  0  0  0  0  0  0  0  0
   20.9141   -6.3295  -17.2578 O   0  0  0  0  0  0  0  0  0  0  0  0
   21.4679   -4.9426  -13.2343 C   0  0  0  0  0  0  0  0  0  0  0  0
   21.1538   -5.2481  -14.6679 C   0  0  2  0  0  0  0  0  0  0  0  0
   21.3626   -6.6233  -15.0298 N   0  0  0  0  0  0  0  0  0  0  0  0
   22.0119   -4.3771  -15.5138 C   0  0  0  0  0  0  0  0  0  0  0  0
   22.9850   -4.8441  -16.3659 O   0  0  0  0  0  0  0  0  0  0  0  0
   21.8662   -3.1070  -15.4746 O   0  0  0  0  0  0  0  0  0  0  0  0
  2  1  1  1
  3  2  1  0
  3  4  1  0
  4  5  1  0
  5  9  1  0
  5  6  2  0
  7  2  1  0
  7 10  1  0
  8  7  2  0
 11 10  1  0
 11 12  1  6
 13 12  1  0
 14 18  1  0
 14 11  1  0
 15 14  2  0
 17 18  1  0
 17 16  1  1
 19 17  1  0
 20 19  1  0
 21 19  2  0
M  END
$$$$
