ECA.pdb
     RDKit          3D

 21 20  0  0  1  0  0  0  0  0999 V2000
   19.7215  -11.1880  -16.0358 N   0  0  0  0  0  0  0  0  0  0  0  0
   20.3984  -10.0390  -16.6743 C   0  0  1  0  0  0  0  0  0  0  0  0
   19.8052   -9.8776  -18.0359 C   0  0  0  0  0  0  0  0  0  0  0  0
   20.2917  -10.8984  -18.9963 C   0  0  0  0  0  0  0  0  0  0  0  0
   21.7291  -10.7305  -19.2645 C   0  0  0  0  0  0  0  0  0  0  0  0
   22.2584   -9.7593  -19.8252 O   0  0  0  0  0  0  0  0  0  0  0  0
   20.1899   -8.8248  -15.8723 C   0  0  0  0  0  0  0  0  0  0  0  0
   19.1128   -8.6468  -15.2685 O   0  0  0  0  0  0  0  0  0  0  0  0
   22.5684  -11.7768  -18.8399 O   0  0  0  0  0  0  0  0  0  0  0  0
   21.1808   -7.8132  -15.7452 N   0  0  0  0  0  0  0  0  0  0  0  0
   21.0423   -6.6512  -14.8938 C   0  0  1  0  0  0  0  0  0  0  0  0
   22.3466   -6.4979  -14.1419 C   0  0  0  0  0  0  0  0  0  0  0  0
   22.4425   -4.9653  -13.2216 S   0  0  0  0  0  0  0  0  0  0  0  0
   20.7345   -5.4482  -15.7097 C   0  0  0  0  0  0  0  0  0  0  0  0
   21.5071   -5.0836  -16.6566 O   0  0  0  0  0  0  0  0  0  0  0  0
   17.8684   -2.9691  -15.9352 C   0  0  0  0  0  0  0  0  0  0  0  0
   19.2737   -3.4424  -16.1547 C   0  0  2  0  0  0  0  0  0  0  0  0
   19.5886   -4.6685  -15.4739 N   0  0  0  0  0  0  0  0  0  0  0  0
   20.1901   -2.3678  -15.6898 C   0  0  0  0  0  0  0  0  0  0  0  0
   21.0999   -2.5158  -14.6692 O   0  0  0  0  0  0  0  0  0  0  0  0
   20.1606   -1.2182  -16.2497 O   0  0  0  0  0  0  0  0  0  0  0  0
  2  1  1  1
  3  2  1  0
  3  4  1  0
  4  5  1  0
  5  9  1  0
  5  6  2  0
  7  2  1  0
  7 10  1  0
  8  7  2  0
 11 10  1  0
 11 12  1  6
 13 12  1  0
 14 18  1  0
 14 11  1  0
 15 14  2  0
 17 18  1  0
 17 16  1  1
 19 17  1  0
 20 19  1  0
 21 19  2  0
M  END
$$$$
