ECA.pdb
     RDKit          3D

 21 20  0  0  1  0  0  0  0  0999 V2000
   20.2614  -11.9414  -17.7623 N   0  0  0  0  0  0  0  0  0  0  0  0
   20.1075  -12.0545  -16.2961 C   0  0  1  0  0  0  0  0  0  0  0  0
   19.9006  -13.5007  -15.9838 C   0  0  0  0  0  0  0  0  0  0  0  0
   18.8185  -14.1117  -16.7943 C   0  0  0  0  0  0  0  0  0  0  0  0
   17.5385  -14.0940  -16.0678 C   0  0  0  0  0  0  0  0  0  0  0  0
   17.0618  -15.0283  -15.4063 O   0  0  0  0  0  0  0  0  0  0  0  0
   21.3129  -11.5478  -15.6245 C   0  0  0  0  0  0  0  0  0  0  0  0
   21.4333  -11.6492  -14.3869 O   0  0  0  0  0  0  0  0  0  0  0  0
   16.7980  -12.8999  -16.1396 O   0  0  0  0  0  0  0  0  0  0  0  0
   22.3800  -10.9303  -16.3326 N   0  0  0  0  0  0  0  0  0  0  0  0
   23.5659  -10.3957  -15.6984 C   0  0  1  0  0  0  0  0  0  0  0  0
   24.7488  -10.8378  -16.5322 C   0  0  0  0  0  0  0  0  0  0  0  0
   26.3156  -10.2882  -15.8625 S   0  0  0  0  0  0  0  0  0  0  0  0
   23.4798   -8.9151  -15.6094 C   0  0  0  0  0  0  0  0  0  0  0  0
   24.3715   -8.2428  -14.9934 O   0  0  0  0  0  0  0  0  0  0  0  0
   21.3171   -6.2242  -17.1646 C   0  0  0  0  0  0  0  0  0  0  0  0
   22.2609   -6.7725  -16.1371 C   0  0  2  0  0  0  0  0  0  0  0  0
   22.4211   -8.1996  -16.1958 N   0  0  0  0  0  0  0  0  0  0  0  0
   21.7444   -6.3862  -14.7975 C   0  0  0  0  0  0  0  0  0  0  0  0
   21.7910   -5.1088  -14.2901 O   0  0  0  0  0  0  0  0  0  0  0  0
   21.2160   -7.2699  -14.0387 O   0  0  0  0  0  0  0  0  0  0  0  0
  2  1  1  6
  3  2  1  0
  3  4  1  0
  4  5  1  0
  5  9  1  0
  5  6  2  0
  7  2  1  0
  7 10  1  0
  8  7  2  0
 11 10  1  0
 11 12  1  6
 13 12  1  0
 14 18  1  0
 14 11  1  0
 15 14  2  0
 17 18  1  0
 17 16  1  6
 19 17  1  0
 20 19  1  0
 21 19  2  0
M  END
$$$$
