ECA.pdb
     RDKit          3D

 21 20  0  0  1  0  0  0  0  0999 V2000
   19.4293  -13.1279  -16.5459 N   0  0  0  0  0  0  0  0  0  0  0  0
   19.0309  -11.7153  -16.3663 C   0  0  1  0  0  0  0  0  0  0  0  0
   17.7640  -11.7107  -15.5746 C   0  0  0  0  0  0  0  0  0  0  0  0
   16.5891  -12.1384  -16.3732 C   0  0  0  0  0  0  0  0  0  0  0  0
   15.3525  -12.0616  -15.5786 C   0  0  0  0  0  0  0  0  0  0  0  0
   14.8296  -12.9941  -14.9504 O   0  0  0  0  0  0  0  0  0  0  0  0
   20.0879  -10.9825  -15.6546 C   0  0  0  0  0  0  0  0  0  0  0  0
   20.3908  -11.2930  -14.4849 O   0  0  0  0  0  0  0  0  0  0  0  0
   14.7157  -10.8078  -15.5371 O   0  0  0  0  0  0  0  0  0  0  0  0
   20.8042   -9.9067  -16.2473 N   0  0  0  0  0  0  0  0  0  0  0  0
   21.8147   -9.1338  -15.5576 C   0  0  1  0  0  0  0  0  0  0  0  0
   23.1124   -9.3341  -16.3099 C   0  0  0  0  0  0  0  0  0  0  0  0
   24.1186  -10.6462  -15.6233 S   0  0  0  0  0  0  0  0  0  0  0  0
   21.4239   -7.7011  -15.5092 C   0  0  0  0  0  0  0  0  0  0  0  0
   20.8589   -7.1421  -16.5065 O   0  0  0  0  0  0  0  0  0  0  0  0
   21.7026   -4.9072  -12.9397 C   0  0  0  0  0  0  0  0  0  0  0  0
   21.3646   -5.5056  -14.2719 C   0  0  2  0  0  0  0  0  0  0  0  0
   21.6587   -6.9089  -14.3717 N   0  0  0  0  0  0  0  0  0  0  0  0
   22.1307   -4.7636  -15.3078 C   0  0  0  0  0  0  0  0  0  0  0  0
   23.3460   -5.1684  -15.8083 O   0  0  0  0  0  0  0  0  0  0  0  0
   21.6630   -3.6748  -15.7891 O   0  0  0  0  0  0  0  0  0  0  0  0
  2  1  1  1
  3  2  1  0
  3  4  1  0
  4  5  1  0
  5  9  1  0
  5  6  2  0
  7  2  1  0
  7 10  1  0
  8  7  2  0
 11 10  1  0
 11 12  1  6
 13 12  1  0
 14 18  1  0
 14 11  1  0
 15 14  2  0
 17 18  1  0
 17 16  1  1
 19 17  1  0
 20 19  1  0
 21 19  2  0
M  END
$$$$
