ECA.pdb
     RDKit          3D

 21 20  0  0  1  0  0  0  0  0999 V2000
   27.0340  -21.2636  -11.1165 N   0  0  0  0  0  0  0  0  0  0  0  0
   26.1685  -20.9205  -12.2652 C   0  0  1  0  0  0  0  0  0  0  0  0
   24.7662  -20.8466  -11.7552 C   0  0  0  0  0  0  0  0  0  0  0  0
   23.9983  -22.0899  -12.0114 C   0  0  0  0  0  0  0  0  0  0  0  0
   23.7696  -22.2835  -13.4524 C   0  0  0  0  0  0  0  0  0  0  0  0
   23.9612  -21.4406  -14.3416 O   0  0  0  0  0  0  0  0  0  0  0  0
   26.5799  -19.6297  -12.8355 C   0  0  0  0  0  0  0  0  0  0  0  0
   27.1375  -18.7742  -12.1189 O   0  0  0  0  0  0  0  0  0  0  0  0
   23.2891  -23.5470  -13.8426 O   0  0  0  0  0  0  0  0  0  0  0  0
   26.3693  -19.2957  -14.2014 N   0  0  0  0  0  0  0  0  0  0  0  0
   26.7813  -18.0432  -14.7980 C   0  0  1  0  0  0  0  0  0  0  0  0
   27.8028  -18.3775  -15.8633 C   0  0  0  0  0  0  0  0  0  0  0  0
   28.3087  -16.9476  -16.8144 S   0  0  0  0  0  0  0  0  0  0  0  0
   25.6071  -17.3327  -15.3673 C   0  0  0  0  0  0  0  0  0  0  0  0
   24.7384  -17.9556  -16.0629 O   0  0  0  0  0  0  0  0  0  0  0  0
   24.3087  -13.7564  -15.2937 C   0  0  0  0  0  0  0  0  0  0  0  0
   24.3368  -15.1873  -15.7397 C   0  0  2  0  0  0  0  0  0  0  0  0
   25.4064  -15.9560  -15.1645 N   0  0  0  0  0  0  0  0  0  0  0  0
   24.4610  -15.1963  -17.2213 C   0  0  0  0  0  0  0  0  0  0  0  0
   23.4024  -15.0485  -18.0866 O   0  0  0  0  0  0  0  0  0  0  0  0
   25.6091  -15.3488  -17.7640 O   0  0  0  0  0  0  0  0  0  0  0  0
  2  1  1  1
  3  2  1  0
  3  4  1  0
  4  5  1  0
  5  9  1  0
  5  6  2  0
  7  2  1  0
  7 10  1  0
  8  7  2  0
 11 10  1  0
 11 12  1  6
 13 12  1  0
 14 18  1  0
 14 11  1  0
 15 14  2  0
 17 18  1  0
 17 16  1  1
 19 17  1  0
 20 19  1  0
 21 19  2  0
M  END
$$$$
