ECA.pdb
     RDKit          3D

 21 20  0  0  1  0  0  0  0  0999 V2000
   20.8273  -11.9574  -19.1471 N   0  0  0  0  0  0  0  0  0  0  0  0
   21.6422  -10.7853  -18.7619 C   0  0  1  0  0  0  0  0  0  0  0  0
   22.0761  -10.1147  -20.0244 C   0  0  0  0  0  0  0  0  0  0  0  0
   23.1687  -10.8445  -20.7134 C   0  0  0  0  0  0  0  0  0  0  0  0
   23.6024  -10.1285  -21.9240 C   0  0  0  0  0  0  0  0  0  0  0  0
   23.2102  -10.3454  -23.0802 O   0  0  0  0  0  0  0  0  0  0  0  0
   20.8431   -9.8677  -17.9373 C   0  0  0  0  0  0  0  0  0  0  0  0
   19.7213   -9.4860  -18.3275 O   0  0  0  0  0  0  0  0  0  0  0  0
   24.5504   -9.1058  -21.7368 O   0  0  0  0  0  0  0  0  0  0  0  0
   21.2952   -9.3782  -16.6812 N   0  0  0  0  0  0  0  0  0  0  0  0
   20.5176   -8.5045  -15.8290 C   0  0  1  0  0  0  0  0  0  0  0  0
   19.8757   -9.3769  -14.7722 C   0  0  0  0  0  0  0  0  0  0  0  0
   19.0829   -8.4296  -13.4763 S   0  0  0  0  0  0  0  0  0  0  0  0
   21.3893   -7.4633  -15.2260 C   0  0  0  0  0  0  0  0  0  0  0  0
   22.4835   -7.7774  -14.6510 O   0  0  0  0  0  0  0  0  0  0  0  0
   21.3829   -3.6659  -15.1180 C   0  0  0  0  0  0  0  0  0  0  0  0
   21.8497   -5.0356  -14.7267 C   0  0  2  0  0  0  0  0  0  0  0  0
   21.0472   -6.1001  -15.2638 N   0  0  0  0  0  0  0  0  0  0  0  0
   21.8408   -5.1088  -13.2417 C   0  0  0  0  0  0  0  0  0  0  0  0
   22.7531   -4.4749  -12.4312 O   0  0  0  0  0  0  0  0  0  0  0  0
   20.9433   -5.7953  -12.6425 O   0  0  0  0  0  0  0  0  0  0  0  0
  2  1  1  6
  3  2  1  0
  3  4  1  0
  4  5  1  0
  5  9  1  0
  5  6  2  0
  7  2  1  0
  7 10  1  0
  8  7  2  0
 11 10  1  0
 11 12  1  1
 13 12  1  0
 14 18  1  0
 14 11  1  0
 15 14  2  0
 17 18  1  0
 17 16  1  1
 19 17  1  0
 20 19  1  0
 21 19  2  0
M  END
$$$$
