ERR.pdb
     RDKit          3D

 32 31  0  0  1  0  0  0  0  0999 V2000
   10.9517  -20.0271   16.7096 N   0  0  0  0  0  0  0  0  0  0  0  0
   10.2387  -20.5646   17.8731 C   0  0  1  0  0  0  0  0  0  0  0  0
   10.9609  -21.8632   18.1884 C   0  0  0  0  0  0  0  0  0  0  0  0
   12.2909  -21.6726   18.8450 C   0  0  0  0  0  0  0  0  0  0  0  0
   12.8979  -23.0143   19.0743 C   0  0  0  0  0  0  0  0  0  0  0  0
   12.3010  -24.0811   18.8112 O   0  0  0  0  0  0  0  0  0  0  0  0
   10.3651  -19.5605   18.9602 C   0  0  0  0  0  0  0  0  0  0  0  0
   11.5194  -19.1000   19.2639 O   0  0  0  0  0  0  0  0  0  0  0  0
   14.1833  -23.0677   19.6002 O   0  0  0  0  0  0  0  0  0  0  0  0
    9.3421  -12.2642   19.9097 N   0  0  0  0  0  0  0  0  0  0  0  0
    8.0356  -12.5929   20.4000 C   0  0  0  0  0  0  0  0  0  0  0  0
    7.1175  -11.6660   20.3710 N   0  0  0  0  0  0  0  0  0  0  0  0
    7.7163  -13.8642   20.9061 N   0  0  0  0  0  0  0  0  0  0  0  0
    8.7585  -14.8520   21.1638 C   0  0  0  0  0  0  0  0  0  0  0  0
    8.1397  -16.1188   21.7080 C   0  0  0  0  0  0  0  0  0  0  0  0
    8.1617  -17.2573   20.7528 C   0  0  0  0  0  0  0  0  0  0  0  0
    9.4835  -18.0462   20.7764 C   0  0  2  0  0  0  0  0  0  0  0  0
    9.2942  -19.0473   19.7133 N   0  0  0  0  0  0  0  0  0  0  0  0
    9.5872  -18.6687   22.1042 C   0  0  0  0  0  0  0  0  0  0  0  0
    9.3362  -19.9181   22.2264 O   0  0  0  0  0  0  0  0  0  0  0  0
    6.1554  -11.8147   20.7214 N   0  0  0  0  0  0  0  0  0  0  0  0
   17.2694  -20.2256   22.3920 C   0  0  0  0  0  0  0  0  0  0  0  0
   16.6742  -20.9634   23.4760 N   0  0  0  0  0  0  0  0  0  0  0  0
   17.1985  -22.0641   23.8311 N   0  0  0  0  0  0  0  0  0  0  0  0
   15.5199  -20.4845   24.1460 C   0  0  0  0  0  0  0  0  0  0  0  0
   14.4202  -19.9062   23.4414 C   0  0  0  0  0  0  0  0  0  0  0  0
   13.2737  -19.5239   24.3946 C   0  0  0  0  0  0  0  0  0  0  0  0
   12.2016  -18.9561   23.5782 C   0  0  2  0  0  0  0  0  0  0  0  0
   10.9281  -18.5518   24.2592 N   0  0  0  0  0  0  0  0  0  0  0  0
    9.9456  -18.0263   23.3122 C   0  0  0  0  0  0  0  0  0  0  0  0
   11.0713  -17.7303   25.4488 O   0  0  0  0  0  0  0  0  0  0  0  0
   10.7280  -16.5159   25.4353 O   0  0  0  0  0  0  0  0  0  0  0  0
  2  1  1  6
  3  2  1  0
  3  4  1  0
  5  9  1  0
  5  4  1  0
  6  5  2  0
  7  2  1  0
  7  8  2  0
 10 11  1  0
 11 13  1  0
 11 12  2  0
 13 14  1  0
 14 15  1  0
 15 16  1  0
 17 16  1  1
 17 18  1  0
 18  7  1  0
 19 29  1  0
 19 17  1  0
 20 19  2  0
 21 22  1  0
 22 23  2  0
 24 22  1  0
 24 25  1  0
 25 26  1  0
 26 27  1  0
 28 27  1  6
 28 29  1  0
 28 30  1  0
 30 32  1  0
 31 30  2  0
M  END
$$$$
