ERR.pdb
     RDKit          3D

 32 31  0  0  1  0  0  0  0  0999 V2000
    6.9992  -17.1789   19.5264 N   0  0  0  0  0  0  0  0  0  0  0  0
    8.2559  -16.5655   19.0845 C   0  0  1  0  0  0  0  0  0  0  0  0
    7.9472  -15.0794   19.0249 C   0  0  0  0  0  0  0  0  0  0  0  0
    7.6950  -14.4590   20.3620 C   0  0  0  0  0  0  0  0  0  0  0  0
    7.5826  -12.9840   20.1816 C   0  0  0  0  0  0  0  0  0  0  0  0
    7.6425  -12.4327   19.0607 O   0  0  0  0  0  0  0  0  0  0  0  0
    9.2819  -16.8967   20.1060 C   0  0  0  0  0  0  0  0  0  0  0  0
    8.9210  -17.4108   21.2206 O   0  0  0  0  0  0  0  0  0  0  0  0
    7.4006  -12.2000   21.3147 O   0  0  0  0  0  0  0  0  0  0  0  0
   16.8289  -14.5889   21.4246 N   0  0  0  0  0  0  0  0  0  0  0  0
   16.1922  -14.6425   20.1412 C   0  0  0  0  0  0  0  0  0  0  0  0
   16.2691  -13.5904   19.3730 N   0  0  0  0  0  0  0  0  0  0  0  0
   15.4954  -15.7762   19.6903 N   0  0  0  0  0  0  0  0  0  0  0  0
   15.4922  -17.0119   20.4657 C   0  0  0  0  0  0  0  0  0  0  0  0
   14.1593  -17.1783   21.1582 C   0  0  0  0  0  0  0  0  0  0  0  0
   12.9942  -16.7888   20.3214 C   0  0  0  0  0  0  0  0  0  0  0  0
   11.6390  -17.0902   20.9867 C   0  0  2  0  0  0  0  0  0  0  0  0
   10.6652  -16.6930   19.9562 N   0  0  0  0  0  0  0  0  0  0  0  0
   11.5503  -16.2394   22.1825 C   0  0  0  0  0  0  0  0  0  0  0  0
   11.3327  -14.9861   22.0389 O   0  0  0  0  0  0  0  0  0  0  0  0
   15.8801  -13.5628   18.4146 N   0  0  0  0  0  0  0  0  0  0  0  0
    5.7453  -12.2441   24.2603 C   0  0  0  0  0  0  0  0  0  0  0  0
    6.1767  -12.6616   25.5691 N   0  0  0  0  0  0  0  0  0  0  0  0
    5.9190  -11.9196   26.5669 N   0  0  0  0  0  0  0  0  0  0  0  0
    6.8810  -13.8776   25.7589 C   0  0  0  0  0  0  0  0  0  0  0  0
    7.8544  -14.3433   24.8231 C   0  0  0  0  0  0  0  0  0  0  0  0
    8.3982  -15.7296   25.2127 C   0  0  0  0  0  0  0  0  0  0  0  0
    9.3878  -16.1067   24.2043 C   0  0  1  0  0  0  0  0  0  0  0  0
   10.8271  -16.1896   24.6176 N   0  0  0  0  0  0  0  0  0  0  0  0
   11.6821  -16.6569   23.5273 C   0  0  0  0  0  0  0  0  0  0  0  0
   11.0930  -16.8586   25.8794 O   0  0  0  0  0  0  0  0  0  0  0  0
   10.5502  -16.4572   26.9457 O   0  0  0  0  0  0  0  0  0  0  0  0
  2  1  1  1
  3  2  1  0
  3  4  1  0
  5  9  1  0
  5  4  1  0
  6  5  2  0
  7  2  1  0
  7  8  2  0
 10 11  1  0
 11 13  1  0
 11 12  2  0
 13 14  1  0
 14 15  1  0
 15 16  1  0
 17 16  1  6
 17 18  1  0
 18  7  1  0
 19 29  1  0
 19 17  1  0
 20 19  2  0
 21 22  1  0
 22 23  2  0
 24 22  1  0
 24 25  1  0
 25 26  1  0
 26 27  1  0
 28 27  1  6
 28 29  1  0
 28 30  1  0
 30 32  1  0
 31 30  2  0
M  END
$$$$
