ERR.pdb
     RDKit          3D

 32 31  0  0  1  0  0  0  0  0999 V2000
   13.2725  -23.4136   25.7584 N   0  0  0  0  0  0  0  0  0  0  0  0
   14.1374  -22.4658   26.4687 C   0  0  1  0  0  0  0  0  0  0  0  0
   13.9797  -21.1654   25.6997 C   0  0  0  0  0  0  0  0  0  0  0  0
   15.2141  -20.3215   25.6772 C   0  0  0  0  0  0  0  0  0  0  0  0
   14.9155  -19.0727   24.9207 C   0  0  0  0  0  0  0  0  0  0  0  0
   14.8254  -17.9533   25.4708 O   0  0  0  0  0  0  0  0  0  0  0  0
   13.6273  -22.3735   27.8605 C   0  0  0  0  0  0  0  0  0  0  0  0
   14.2120  -21.6033   28.6980 O   0  0  0  0  0  0  0  0  0  0  0  0
   14.7351  -19.1698   23.5460 O   0  0  0  0  0  0  0  0  0  0  0  0
    9.0157  -28.4514   32.3415 N   0  0  0  0  0  0  0  0  0  0  0  0
   10.2157  -28.1818   31.6046 C   0  0  0  0  0  0  0  0  0  0  0  0
   10.8133  -29.1819   31.0168 N   0  0  0  0  0  0  0  0  0  0  0  0
   10.7631  -26.8921   31.4978 N   0  0  0  0  0  0  0  0  0  0  0  0
    9.9075  -25.7106   31.5165 C   0  0  0  0  0  0  0  0  0  0  0  0
   10.7472  -24.4677   31.3326 C   0  0  0  0  0  0  0  0  0  0  0  0
   11.2501  -24.2813   29.9464 C   0  0  0  0  0  0  0  0  0  0  0  0
   12.1223  -23.0238   29.7792 C   0  0  2  0  0  0  0  0  0  0  0  0
   12.5182  -23.0778   28.3620 N   0  0  0  0  0  0  0  0  0  0  0  0
   13.2757  -23.1799   30.6775 C   0  0  0  0  0  0  0  0  0  0  0  0
   14.0530  -24.1852   30.5222 O   0  0  0  0  0  0  0  0  0  0  0  0
   11.7104  -29.0837   30.5107 N   0  0  0  0  0  0  0  0  0  0  0  0
   22.2046  -23.3558   31.5141 C   0  0  0  0  0  0  0  0  0  0  0  0
   20.8862  -23.2252   30.9500 N   0  0  0  0  0  0  0  0  0  0  0  0
   20.7566  -23.2141   29.6868 N   0  0  0  0  0  0  0  0  0  0  0  0
   19.7401  -23.1077   31.7766 C   0  0  0  0  0  0  0  0  0  0  0  0
   18.4211  -23.0231   31.2354 C   0  0  0  0  0  0  0  0  0  0  0  0
   17.3640  -22.8516   32.3411 C   0  0  0  0  0  0  0  0  0  0  0  0
   16.0648  -22.7208   31.6829 C   0  0  1  0  0  0  0  0  0  0  0  0
   14.8569  -22.4759   32.5374 N   0  0  0  0  0  0  0  0  0  0  0  0
   13.6442  -22.3173   31.7359 C   0  0  0  0  0  0  0  0  0  0  0  0
   14.9973  -21.4619   33.5683 O   0  0  0  0  0  0  0  0  0  0  0  0
   14.1737  -20.5088   33.6475 O   0  0  0  0  0  0  0  0  0  0  0  0
  2  1  1  6
  3  2  1  0
  3  4  1  0
  5  9  1  0
  5  4  1  0
  6  5  2  0
  7  2  1  0
  7  8  2  0
 10 11  1  0
 11 13  1  0
 11 12  2  0
 13 14  1  0
 14 15  1  0
 15 16  1  0
 17 16  1  1
 17 18  1  0
 18  7  1  0
 19 29  1  0
 19 17  1  0
 20 19  2  0
 21 22  1  0
 22 23  2  0
 24 22  1  0
 24 25  1  0
 25 26  1  0
 26 27  1  0
 28 27  1  1
 28 29  1  0
 28 30  1  0
 30 32  1  0
 31 30  2  0
M  END
$$$$
