ERR.pdb
     RDKit          3D

 32 31  0  0  1  0  0  0  0  0999 V2000
   11.1911  -16.0009   18.5577 N   0  0  0  0  0  0  0  0  0  0  0  0
   12.0243  -16.5589   19.6278 C   0  0  1  0  0  0  0  0  0  0  0  0
   13.4093  -15.9972   19.3561 C   0  0  0  0  0  0  0  0  0  0  0  0
   13.4015  -14.6988   18.6143 C   0  0  0  0  0  0  0  0  0  0  0  0
   14.5360  -13.8685   19.1089 C   0  0  0  0  0  0  0  0  0  0  0  0
   14.6061  -13.4504   20.2854 O   0  0  0  0  0  0  0  0  0  0  0  0
   11.4548  -16.0813   20.9137 C   0  0  0  0  0  0  0  0  0  0  0  0
   12.0397  -16.3769   22.0124 O   0  0  0  0  0  0  0  0  0  0  0  0
   15.5538  -13.5558   18.2157 O   0  0  0  0  0  0  0  0  0  0  0  0
    7.6042  -12.9466   17.1095 N   0  0  0  0  0  0  0  0  0  0  0  0
    8.3785  -12.8785   18.3142 C   0  0  0  0  0  0  0  0  0  0  0  0
    8.9794  -11.7547   18.5954 N   0  0  0  0  0  0  0  0  0  0  0  0
    8.5111  -13.9693   19.1898 N   0  0  0  0  0  0  0  0  0  0  0  0
    7.6735  -15.1548   19.0429 C   0  0  0  0  0  0  0  0  0  0  0  0
    7.2294  -15.6396   20.4035 C   0  0  0  0  0  0  0  0  0  0  0  0
    8.2417  -16.4713   21.1055 C   0  0  0  0  0  0  0  0  0  0  0  0
    9.2074  -15.6481   21.9770 C   0  0  2  0  0  0  0  0  0  0  0  0
   10.2906  -15.3030   21.0411 N   0  0  0  0  0  0  0  0  0  0  0  0
    9.6739  -16.5340   23.0536 C   0  0  0  0  0  0  0  0  0  0  0  0
   10.1448  -17.6853   22.7511 O   0  0  0  0  0  0  0  0  0  0  0  0
    9.5935  -11.6350   19.4195 N   0  0  0  0  0  0  0  0  0  0  0  0
   11.9323  -15.1408   31.4890 C   0  0  0  0  0  0  0  0  0  0  0  0
   11.3624  -14.7302   30.2320 N   0  0  0  0  0  0  0  0  0  0  0  0
   11.0536  -13.5095   30.0667 N   0  0  0  0  0  0  0  0  0  0  0  0
   11.1405  -15.6607   29.1853 C   0  0  0  0  0  0  0  0  0  0  0  0
   10.1161  -16.6534   29.2587 C   0  0  0  0  0  0  0  0  0  0  0  0
   10.0911  -17.5371   27.9986 C   0  0  0  0  0  0  0  0  0  0  0  0
    9.9183  -16.6495   26.8494 C   0  0  1  0  0  0  0  0  0  0  0  0
    9.8944  -17.2582   25.4790 N   0  0  0  0  0  0  0  0  0  0  0  0
    9.6642  -16.2552   24.4401 C   0  0  0  0  0  0  0  0  0  0  0  0
    9.0716  -18.4448   25.3200 O   0  0  0  0  0  0  0  0  0  0  0  0
    9.4266  -19.5447   25.8270 O   0  0  0  0  0  0  0  0  0  0  0  0
  2  1  1  6
  3  2  1  0
  3  4  1  0
  5  9  1  0
  5  4  1  0
  6  5  2  0
  7  2  1  0
  7  8  2  0
 10 11  1  0
 11 13  1  0
 11 12  2  0
 13 14  1  0
 14 15  1  0
 15 16  1  0
 17 16  1  6
 17 18  1  0
 18  7  1  0
 19 29  1  0
 19 17  1  0
 20 19  2  0
 21 22  1  0
 22 23  2  0
 24 22  1  0
 24 25  1  0
 25 26  1  0
 26 27  1  0
 28 27  1  6
 28 29  1  0
 28 30  1  0
 30 32  1  0
 31 30  2  0
M  END
$$$$
