ERR.pdb
     RDKit          3D

 32 31  0  0  1  0  0  0  0  0999 V2000
    8.1838  -12.9382   18.2121 N   0  0  0  0  0  0  0  0  0  0  0  0
    8.5959  -14.3288   18.4288 C   0  0  1  0  0  0  0  0  0  0  0  0
    9.3169  -14.7103   17.1474 C   0  0  0  0  0  0  0  0  0  0  0  0
    8.4012  -15.0228   16.0072 C   0  0  0  0  0  0  0  0  0  0  0  0
    8.0395  -16.4668   16.0775 C   0  0  0  0  0  0  0  0  0  0  0  0
    8.4668  -17.2288   16.9722 O   0  0  0  0  0  0  0  0  0  0  0  0
    9.4916  -14.3352   19.6136 C   0  0  0  0  0  0  0  0  0  0  0  0
   10.3889  -13.4311   19.7322 O   0  0  0  0  0  0  0  0  0  0  0  0
    7.1881  -16.9744   15.1033 O   0  0  0  0  0  0  0  0  0  0  0  0
    9.3758  -19.9562   22.9912 N   0  0  0  0  0  0  0  0  0  0  0  0
   10.5710  -20.0579   23.7764 C   0  0  0  0  0  0  0  0  0  0  0  0
   11.1808  -21.2108   23.8204 N   0  0  0  0  0  0  0  0  0  0  0  0
   11.0993  -18.9706   24.4925 N   0  0  0  0  0  0  0  0  0  0  0  0
   10.2973  -17.7784   24.7452 C   0  0  0  0  0  0  0  0  0  0  0  0
   10.7680  -16.6477   23.8599 C   0  0  0  0  0  0  0  0  0  0  0  0
    9.9267  -16.4391   22.6525 C   0  0  0  0  0  0  0  0  0  0  0  0
   10.4250  -15.2926   21.7540 C   0  0  2  0  0  0  0  0  0  0  0  0
    9.4421  -15.2759   20.6577 N   0  0  0  0  0  0  0  0  0  0  0  0
   11.7659  -15.6692   21.2832 C   0  0  0  0  0  0  0  0  0  0  0  0
   11.9042  -16.7360   20.5892 O   0  0  0  0  0  0  0  0  0  0  0  0
   12.0445  -21.3710   24.3672 N   0  0  0  0  0  0  0  0  0  0  0  0
   16.8594  -11.7277   16.3789 C   0  0  0  0  0  0  0  0  0  0  0  0
   17.8487  -12.5225   17.0592 N   0  0  0  0  0  0  0  0  0  0  0  0
   19.0292  -12.5654   16.5931 N   0  0  0  0  0  0  0  0  0  0  0  0
   17.5271  -13.2537   18.2308 C   0  0  0  0  0  0  0  0  0  0  0  0
   16.4678  -14.2114   18.2592 C   0  0  0  0  0  0  0  0  0  0  0  0
   16.2908  -14.8202   19.6619 C   0  0  0  0  0  0  0  0  0  0  0  0
   14.9219  -14.5344   20.0895 C   0  0  1  0  0  0  0  0  0  0  0  0
   14.2900  -15.4419   21.1025 N   0  0  0  0  0  0  0  0  0  0  0  0
   12.9705  -14.9652   21.5147 C   0  0  0  0  0  0  0  0  0  0  0  0
   15.1298  -15.8365   22.2203 O   0  0  0  0  0  0  0  0  0  0  0  0
   14.8954  -15.4050   23.3830 O   0  0  0  0  0  0  0  0  0  0  0  0
  2  1  1  6
  3  2  1  0
  3  4  1  0
  5  9  1  0
  5  4  1  0
  6  5  2  0
  7  2  1  0
  7  8  2  0
 10 11  1  0
 11 13  1  0
 11 12  2  0
 13 14  1  0
 14 15  1  0
 15 16  1  0
 17 16  1  1
 17 18  1  0
 18  7  1  0
 19 29  1  0
 19 17  1  0
 20 19  2  0
 21 22  1  0
 22 23  2  0
 24 22  1  0
 24 25  1  0
 25 26  1  0
 26 27  1  0
 28 27  1  6
 28 29  1  0
 28 30  1  0
 30 32  1  0
 31 30  2  0
M  END
$$$$
