ERR.pdb
     RDKit          3D

 32 31  0  0  1  0  0  0  0  0999 V2000
    6.2455  -20.0249   24.0107 N   0  0  0  0  0  0  0  0  0  0  0  0
    5.8685  -18.6078   24.0350 C   0  0  1  0  0  0  0  0  0  0  0  0
    5.9818  -18.2148   25.4979 C   0  0  0  0  0  0  0  0  0  0  0  0
    7.3874  -18.1722   26.0066 C   0  0  0  0  0  0  0  0  0  0  0  0
    7.3538  -17.7980   27.4487 C   0  0  0  0  0  0  0  0  0  0  0  0
    6.2873  -17.6231   28.0779 O   0  0  0  0  0  0  0  0  0  0  0  0
    6.8384  -17.8869   23.1716 C   0  0  0  0  0  0  0  0  0  0  0  0
    7.8223  -18.5234   22.6584 O   0  0  0  0  0  0  0  0  0  0  0  0
    8.5658  -17.6434   28.1112 O   0  0  0  0  0  0  0  0  0  0  0  0
    9.0571  -13.9492   16.4640 N   0  0  0  0  0  0  0  0  0  0  0  0
    8.5948  -13.3990   17.7046 C   0  0  0  0  0  0  0  0  0  0  0  0
    9.3994  -12.6120   18.3652 N   0  0  0  0  0  0  0  0  0  0  0  0
    7.3204  -13.6777   18.2265 N   0  0  0  0  0  0  0  0  0  0  0  0
    6.9069  -13.1446   19.5200 C   0  0  0  0  0  0  0  0  0  0  0  0
    7.7810  -13.7160   20.6123 C   0  0  0  0  0  0  0  0  0  0  0  0
    7.0402  -14.5298   21.6114 C   0  0  0  0  0  0  0  0  0  0  0  0
    7.7139  -15.8798   21.9170 C   0  0  2  0  0  0  0  0  0  0  0  0
    6.7724  -16.5193   22.8512 N   0  0  0  0  0  0  0  0  0  0  0  0
    9.0033  -15.5801   22.5566 C   0  0  0  0  0  0  0  0  0  0  0  0
    9.0121  -14.9659   23.6798 O   0  0  0  0  0  0  0  0  0  0  0  0
    9.1570  -12.2002   19.2830 N   0  0  0  0  0  0  0  0  0  0  0  0
   12.1765  -16.1985   28.5046 C   0  0  0  0  0  0  0  0  0  0  0  0
   10.7507  -16.3636   28.6201 N   0  0  0  0  0  0  0  0  0  0  0  0
   10.1808  -16.0412   29.7081 N   0  0  0  0  0  0  0  0  0  0  0  0
    9.9800  -16.8785   27.5469 C   0  0  0  0  0  0  0  0  0  0  0  0
   10.5818  -17.3572   26.3433 C   0  0  0  0  0  0  0  0  0  0  0  0
   10.6999  -16.2444   25.2864 C   0  0  0  0  0  0  0  0  0  0  0  0
   11.2938  -16.8421   24.0913 C   0  0  2  0  0  0  0  0  0  0  0  0
   11.4919  -15.9725   22.8856 N   0  0  0  0  0  0  0  0  0  0  0  0
   10.2875  -15.9023   22.0593 C   0  0  0  0  0  0  0  0  0  0  0  0
   12.7002  -16.2120   22.1154 O   0  0  0  0  0  0  0  0  0  0  0  0
   12.6306  -16.5911   20.9136 O   0  0  0  0  0  0  0  0  0  0  0  0
  2  1  1  1
  3  2  1  0
  3  4  1  0
  5  9  1  0
  5  4  1  0
  6  5  2  0
  7  2  1  0
  7  8  2  0
 10 11  1  0
 11 13  1  0
 11 12  2  0
 13 14  1  0
 14 15  1  0
 15 16  1  0
 17 16  1  1
 17 18  1  0
 18  7  1  0
 19 29  1  0
 19 17  1  0
 20 19  2  0
 21 22  1  0
 22 23  2  0
 24 22  1  0
 24 25  1  0
 25 26  1  0
 26 27  1  0
 28 27  1  1
 28 29  1  0
 28 30  1  0
 30 32  1  0
 31 30  2  0
M  END
$$$$
