ERR.pdb
     RDKit          3D

 32 31  0  0  1  0  0  0  0  0999 V2000
   12.7244  -14.6934   17.5856 N   0  0  0  0  0  0  0  0  0  0  0  0
   11.6731  -15.5786   18.0976 C   0  0  1  0  0  0  0  0  0  0  0  0
   12.3497  -16.9332   18.2188 C   0  0  0  0  0  0  0  0  0  0  0  0
   13.8149  -16.9073   17.9209 C   0  0  0  0  0  0  0  0  0  0  0  0
   14.4368  -18.1239   18.5161 C   0  0  0  0  0  0  0  0  0  0  0  0
   14.6012  -18.2665   19.7475 O   0  0  0  0  0  0  0  0  0  0  0  0
   11.2480  -15.0312   19.4111 C   0  0  0  0  0  0  0  0  0  0  0  0
   12.0242  -14.2363   20.0456 O   0  0  0  0  0  0  0  0  0  0  0  0
   14.8436  -19.1364   17.6552 O   0  0  0  0  0  0  0  0  0  0  0  0
    8.0942  -12.2399   17.0045 N   0  0  0  0  0  0  0  0  0  0  0  0
    7.6666  -13.5889   16.7747 C   0  0  0  0  0  0  0  0  0  0  0  0
    7.9481  -14.1348   15.6233 N   0  0  0  0  0  0  0  0  0  0  0  0
    6.9616  -14.3322   17.7363 N   0  0  0  0  0  0  0  0  0  0  0  0
    6.7198  -13.7940   19.0705 C   0  0  0  0  0  0  0  0  0  0  0  0
    8.0371  -13.5187   19.7580 C   0  0  0  0  0  0  0  0  0  0  0  0
    8.1952  -14.2211   21.0583 C   0  0  0  0  0  0  0  0  0  0  0  0
    9.6360  -14.6940   21.3235 C   0  0  2  0  0  0  0  0  0  0  0  0
   10.0251  -15.3132   20.0454 N   0  0  0  0  0  0  0  0  0  0  0  0
    9.5699  -15.6791   22.4128 C   0  0  0  0  0  0  0  0  0  0  0  0
    8.7016  -15.5228   23.3404 O   0  0  0  0  0  0  0  0  0  0  0  0
    7.6690  -15.0994   15.3737 N   0  0  0  0  0  0  0  0  0  0  0  0
   17.3594  -15.3331   20.5042 C   0  0  0  0  0  0  0  0  0  0  0  0
   17.4878  -15.3970   21.9369 N   0  0  0  0  0  0  0  0  0  0  0  0
   18.6482  -15.3682   22.4519 N   0  0  0  0  0  0  0  0  0  0  0  0
   16.3477  -15.4931   22.7746 C   0  0  0  0  0  0  0  0  0  0  0  0
   15.0204  -15.5197   22.2475 C   0  0  0  0  0  0  0  0  0  0  0  0
   13.9852  -15.8615   23.3341 C   0  0  0  0  0  0  0  0  0  0  0  0
   12.6859  -15.9801   22.6738 C   0  0  1  0  0  0  0  0  0  0  0  0
   11.6404  -16.8446   23.3130 N   0  0  0  0  0  0  0  0  0  0  0  0
   10.3841  -16.8255   22.5649 C   0  0  0  0  0  0  0  0  0  0  0  0
   11.4560  -16.6739   24.7439 O   0  0  0  0  0  0  0  0  0  0  0  0
   12.3151  -17.1115   25.5584 O   0  0  0  0  0  0  0  0  0  0  0  0
  2  1  1  1
  3  2  1  0
  3  4  1  0
  5  9  1  0
  5  4  1  0
  6  5  2  0
  7  2  1  0
  7  8  2  0
 10 11  1  0
 11 13  1  0
 11 12  2  0
 13 14  1  0
 14 15  1  0
 15 16  1  0
 17 16  1  6
 17 18  1  0
 18  7  1  0
 19 29  1  0
 19 17  1  0
 20 19  2  0
 21 22  1  0
 22 23  2  0
 24 22  1  0
 24 25  1  0
 25 26  1  0
 26 27  1  0
 28 27  1  6
 28 29  1  0
 28 30  1  0
 30 32  1  0
 31 30  2  0
M  END
$$$$
