ERR.pdb
     RDKit          3D

 32 31  0  0  1  0  0  0  0  0999 V2000
   12.1468  -16.1483   13.7387 N   0  0  0  0  0  0  0  0  0  0  0  0
   13.0386  -16.8721   14.6507 C   0  0  1  0  0  0  0  0  0  0  0  0
   14.2975  -16.0232   14.6963 C   0  0  0  0  0  0  0  0  0  0  0  0
   14.3912  -15.0189   13.5923 C   0  0  0  0  0  0  0  0  0  0  0  0
   15.6907  -14.3006   13.7198 C   0  0  0  0  0  0  0  0  0  0  0  0
   16.3098  -14.2088   14.8025 O   0  0  0  0  0  0  0  0  0  0  0  0
   12.3488  -16.9445   15.9640 C   0  0  0  0  0  0  0  0  0  0  0  0
   12.9309  -17.5097   16.9531 O   0  0  0  0  0  0  0  0  0  0  0  0
   16.2276  -13.7155   12.5792 O   0  0  0  0  0  0  0  0  0  0  0  0
    5.8900  -20.5320   19.3485 N   0  0  0  0  0  0  0  0  0  0  0  0
    5.9686  -20.4022   17.9228 C   0  0  0  0  0  0  0  0  0  0  0  0
    5.5737  -21.4084   17.1917 N   0  0  0  0  0  0  0  0  0  0  0  0
    6.4529  -19.2420   17.2954 N   0  0  0  0  0  0  0  0  0  0  0  0
    7.1013  -18.1873   18.0671 C   0  0  0  0  0  0  0  0  0  0  0  0
    8.5881  -18.4474   18.1410 C   0  0  0  0  0  0  0  0  0  0  0  0
    9.3592  -17.8519   17.0185 C   0  0  0  0  0  0  0  0  0  0  0  0
   10.3314  -16.7457   17.4671 C   0  0  2  0  0  0  0  0  0  0  0  0
   11.0688  -16.4282   16.2328 N   0  0  0  0  0  0  0  0  0  0  0  0
   11.2055  -17.3337   18.4927 C   0  0  0  0  0  0  0  0  0  0  0  0
   11.8872  -18.3781   18.2040 O   0  0  0  0  0  0  0  0  0  0  0  0
    5.5528  -21.3797   16.1576 N   0  0  0  0  0  0  0  0  0  0  0  0
   17.8698  -12.6084   20.5206 C   0  0  0  0  0  0  0  0  0  0  0  0
   17.4839  -13.0075   19.1920 N   0  0  0  0  0  0  0  0  0  0  0  0
   17.7203  -12.2233   18.2216 N   0  0  0  0  0  0  0  0  0  0  0  0
   16.8471  -14.2518   18.9529 C   0  0  0  0  0  0  0  0  0  0  0  0
   15.4302  -14.3628   18.8109 C   0  0  0  0  0  0  0  0  0  0  0  0
   14.8097  -15.1960   19.9467 C   0  0  0  0  0  0  0  0  0  0  0  0
   13.4938  -15.6409   19.4897 C   0  0  1  0  0  0  0  0  0  0  0  0
   12.6933  -16.5336   20.3905 N   0  0  0  0  0  0  0  0  0  0  0  0
   11.3908  -16.8644   19.8139 C   0  0  0  0  0  0  0  0  0  0  0  0
   12.6159  -16.1325   21.7846 O   0  0  0  0  0  0  0  0  0  0  0  0
   13.4893  -16.5145   22.6118 O   0  0  0  0  0  0  0  0  0  0  0  0
  2  1  1  6
  3  2  1  0
  3  4  1  0
  5  9  1  0
  5  4  1  0
  6  5  2  0
  7  2  1  0
  7  8  2  0
 10 11  1  0
 11 13  1  0
 11 12  2  0
 13 14  1  0
 14 15  1  0
 15 16  1  0
 17 16  1  6
 17 18  1  0
 18  7  1  0
 19 29  1  0
 19 17  1  0
 20 19  2  0
 21 22  1  0
 22 23  2  0
 24 22  1  0
 24 25  1  0
 25 26  1  0
 26 27  1  0
 28 27  1  6
 28 29  1  0
 28 30  1  0
 30 32  1  0
 31 30  2  0
M  END
$$$$
