ERR.pdb
     RDKit          3D

 32 31  0  0  1  0  0  0  0  0999 V2000
   13.8582  -19.8122   18.4075 N   0  0  0  0  0  0  0  0  0  0  0  0
   14.7952  -18.9928   19.1830 C   0  0  1  0  0  0  0  0  0  0  0  0
   15.6127  -18.2618   18.1318 C   0  0  0  0  0  0  0  0  0  0  0  0
   15.2325  -18.6000   16.7256 C   0  0  0  0  0  0  0  0  0  0  0  0
   16.1731  -17.9023   15.8041 C   0  0  0  0  0  0  0  0  0  0  0  0
   17.3031  -17.5052   16.1636 O   0  0  0  0  0  0  0  0  0  0  0  0
   13.9792  -18.0727   20.0157 C   0  0  0  0  0  0  0  0  0  0  0  0
   14.5500  -17.1176   20.6468 O   0  0  0  0  0  0  0  0  0  0  0  0
   15.7662  -17.6933   14.4916 O   0  0  0  0  0  0  0  0  0  0  0  0
    8.0942  -12.5915   18.9061 N   0  0  0  0  0  0  0  0  0  0  0  0
    7.8459  -12.9205   20.2793 C   0  0  0  0  0  0  0  0  0  0  0  0
    7.1848  -12.0622   21.0067 N   0  0  0  0  0  0  0  0  0  0  0  0
    8.2875  -14.1212   20.8603 N   0  0  0  0  0  0  0  0  0  0  0  0
    9.2109  -15.0015   20.1526 C   0  0  0  0  0  0  0  0  0  0  0  0
    9.5084  -16.2179   20.9985 C   0  0  0  0  0  0  0  0  0  0  0  0
   10.4435  -17.1805   20.3597 C   0  0  0  0  0  0  0  0  0  0  0  0
   11.8314  -17.2137   21.0249 C   0  0  2  0  0  0  0  0  0  0  0  0
   12.5849  -18.1547   20.1793 N   0  0  0  0  0  0  0  0  0  0  0  0
   11.6411  -17.7319   22.3875 C   0  0  0  0  0  0  0  0  0  0  0  0
   10.7229  -18.5982   22.6005 O   0  0  0  0  0  0  0  0  0  0  0  0
    6.9621  -12.2225   22.0043 N   0  0  0  0  0  0  0  0  0  0  0  0
    9.2906  -15.4718   29.8277 C   0  0  0  0  0  0  0  0  0  0  0  0
   10.0650  -14.5024   29.0970 N   0  0  0  0  0  0  0  0  0  0  0  0
    9.5605  -13.3600   28.8667 N   0  0  0  0  0  0  0  0  0  0  0  0
   11.3708  -14.8021   28.6325 C   0  0  0  0  0  0  0  0  0  0  0  0
   11.6934  -14.8246   27.2413 C   0  0  0  0  0  0  0  0  0  0  0  0
   10.6454  -15.6057   26.4283 C   0  0  0  0  0  0  0  0  0  0  0  0
   11.2334  -15.8878   25.1195 C   0  0  2  0  0  0  0  0  0  0  0  0
   11.8061  -17.2525   24.8772 N   0  0  0  0  0  0  0  0  0  0  0  0
   12.3811  -17.3733   23.5381 C   0  0  0  0  0  0  0  0  0  0  0  0
   10.9584  -18.3756   25.2385 O   0  0  0  0  0  0  0  0  0  0  0  0
    9.8132  -18.5069   24.7245 O   0  0  0  0  0  0  0  0  0  0  0  0
  2  1  1  6
  3  2  1  0
  3  4  1  0
  5  9  1  0
  5  4  1  0
  6  5  2  0
  7  2  1  0
  7  8  2  0
 10 11  1  0
 11 13  1  0
 11 12  2  0
 13 14  1  0
 14 15  1  0
 15 16  1  0
 17 16  1  6
 17 18  1  0
 18  7  1  0
 19 29  1  0
 19 17  1  0
 20 19  2  0
 21 22  1  0
 22 23  2  0
 24 22  1  0
 24 25  1  0
 25 26  1  0
 26 27  1  0
 28 27  1  1
 28 29  1  0
 28 30  1  0
 30 32  1  0
 31 30  2  0
M  END
$$$$
