ERR.pdb
     RDKit          3D

 32 31  0  0  1  0  0  0  0  0999 V2000
    6.6749  -20.2317   21.1560 N   0  0  0  0  0  0  0  0  0  0  0  0
    6.6140  -19.1309   22.1232 C   0  0  1  0  0  0  0  0  0  0  0  0
    6.7473  -19.8114   23.4746 C   0  0  0  0  0  0  0  0  0  0  0  0
    6.8275  -18.8607   24.6262 C   0  0  0  0  0  0  0  0  0  0  0  0
    7.1070  -19.6438   25.8630 C   0  0  0  0  0  0  0  0  0  0  0  0
    7.0303  -20.8912   25.9061 O   0  0  0  0  0  0  0  0  0  0  0  0
    7.7532  -18.2268   21.8224 C   0  0  0  0  0  0  0  0  0  0  0  0
    8.9038  -18.7238   21.5661 O   0  0  0  0  0  0  0  0  0  0  0  0
    7.4702  -18.9462   27.0089 O   0  0  0  0  0  0  0  0  0  0  0  0
    9.1285  -14.3034   17.4615 N   0  0  0  0  0  0  0  0  0  0  0  0
    7.8832  -13.6255   17.2490 C   0  0  0  0  0  0  0  0  0  0  0  0
    7.2225  -13.8833   16.1536 N   0  0  0  0  0  0  0  0  0  0  0  0
    7.3586  -12.7028   18.1697 N   0  0  0  0  0  0  0  0  0  0  0  0
    7.5347  -12.8933   19.6053 C   0  0  0  0  0  0  0  0  0  0  0  0
    8.1333  -14.2552   19.8713 C   0  0  0  0  0  0  0  0  0  0  0  0
    8.2602  -14.5848   21.3150 C   0  0  0  0  0  0  0  0  0  0  0  0
    8.8672  -15.9762   21.5708 C   0  0  2  0  0  0  0  0  0  0  0  0
    7.6823  -16.8227   21.7891 N   0  0  0  0  0  0  0  0  0  0  0  0
    9.6942  -15.8669   22.7814 C   0  0  0  0  0  0  0  0  0  0  0  0
    9.1624  -15.4275   23.8599 O   0  0  0  0  0  0  0  0  0  0  0  0
    6.3179  -13.4372   15.9228 N   0  0  0  0  0  0  0  0  0  0  0  0
    9.9984  -20.4408   29.1669 C   0  0  0  0  0  0  0  0  0  0  0  0
   10.6526  -19.2238   29.5725 N   0  0  0  0  0  0  0  0  0  0  0  0
   10.6252  -18.8902   30.7974 N   0  0  0  0  0  0  0  0  0  0  0  0
   11.3196  -18.3980   28.6323 C   0  0  0  0  0  0  0  0  0  0  0  0
   10.7377  -18.0621   27.3719 C   0  0  0  0  0  0  0  0  0  0  0  0
   11.6864  -17.1987   26.5211 C   0  0  0  0  0  0  0  0  0  0  0  0
   11.0365  -16.9843   25.2288 C   0  0  1  0  0  0  0  0  0  0  0  0
   11.7895  -16.2344   24.1706 N   0  0  0  0  0  0  0  0  0  0  0  0
   11.0627  -16.2027   22.9021 C   0  0  0  0  0  0  0  0  0  0  0  0
   13.1922  -16.5799   24.0170 O   0  0  0  0  0  0  0  0  0  0  0  0
   14.0896  -15.7075   24.1797 O   0  0  0  0  0  0  0  0  0  0  0  0
  2  1  1  6
  3  2  1  0
  3  4  1  0
  5  9  1  0
  5  4  1  0
  6  5  2  0
  7  2  1  0
  7  8  2  0
 10 11  1  0
 11 13  1  0
 11 12  2  0
 13 14  1  0
 14 15  1  0
 15 16  1  0
 17 16  1  1
 17 18  1  0
 18  7  1  0
 19 29  1  0
 19 17  1  0
 20 19  2  0
 21 22  1  0
 22 23  2  0
 24 22  1  0
 24 25  1  0
 25 26  1  0
 26 27  1  0
 28 27  1  1
 28 29  1  0
 28 30  1  0
 30 32  1  0
 31 30  2  0
M  END
$$$$
