FFR.pdb
     RDKit          3D

 34 35  0  0  1  0  0  0  0  0999 V2000
    6.4977  -17.7708   21.1663 N   0  0  0  0  0  0  0  0  0  0  0  0
    7.1809  -16.5190   20.8579 C   0  0  1  0  0  0  0  0  0  0  0  0
    6.0910  -15.5374   20.4846 C   0  0  0  0  0  0  0  0  0  0  0  0
    6.7026  -14.2437   20.0155 C   0  0  0  0  0  0  0  0  0  0  0  0
    7.1848  -14.1899   18.7263 C   0  0  0  0  0  0  0  0  0  0  0  0
    7.7488  -13.0162   18.2768 C   0  0  0  0  0  0  0  0  0  0  0  0
    7.8274  -11.9180   19.1047 C   0  0  0  0  0  0  0  0  0  0  0  0
    7.3413  -11.9759   20.4010 C   0  0  0  0  0  0  0  0  0  0  0  0
    6.7811  -13.1556   20.8345 C   0  0  0  0  0  0  0  0  0  0  0  0
    7.9546  -16.1113   22.0350 C   0  0  0  0  0  0  0  0  0  0  0  0
    9.0994  -15.5512   21.9204 O   0  0  0  0  0  0  0  0  0  0  0  0
    7.5197  -16.2931   23.3821 N   0  0  0  0  0  0  0  0  0  0  0  0
    8.3319  -15.9251   24.5168 C   0  0  1  0  0  0  0  0  0  0  0  0
    7.4046  -15.8656   25.7410 C   0  0  0  0  0  0  0  0  0  0  0  0
    7.3755  -14.4947   26.2577 C   0  0  0  0  0  0  0  0  0  0  0  0
    6.2516  -13.7017   26.0576 C   0  0  0  0  0  0  0  0  0  0  0  0
    6.2119  -12.4020   26.5408 C   0  0  0  0  0  0  0  0  0  0  0  0
    7.2796  -11.8745   27.2247 C   0  0  0  0  0  0  0  0  0  0  0  0
    8.3878  -12.6736   27.4152 C   0  0  0  0  0  0  0  0  0  0  0  0
    8.4422  -13.9852   26.9342 C   0  0  0  0  0  0  0  0  0  0  0  0
    9.3434  -16.9591   24.8471 C   0  0  0  0  0  0  0  0  0  0  0  0
    8.9398  -18.1385   25.0716 O   0  0  0  0  0  0  0  0  0  0  0  0
   14.3562  -13.8811   20.6950 N   0  0  0  0  0  0  0  0  0  0  0  0
   13.8561  -15.1232   20.2148 C   0  0  0  0  0  0  0  0  0  0  0  0
   14.3786  -15.6266   19.1391 N   0  0  0  0  0  0  0  0  0  0  0  0
   12.8139  -15.7975   20.8920 N   0  0  0  0  0  0  0  0  0  0  0  0
   12.7238  -15.7409   22.3695 C   0  0  0  0  0  0  0  0  0  0  0  0
   12.9726  -17.1049   22.9207 C   0  0  0  0  0  0  0  0  0  0  0  0
   12.9399  -17.3670   24.3382 C   0  0  0  0  0  0  0  0  0  0  0  0
   11.7291  -17.8251   25.0535 C   0  0  2  0  0  0  0  0  0  0  0  0
   10.7180  -16.7206   24.9281 N   0  0  0  0  0  0  0  0  0  0  0  0
   11.8894  -17.9289   26.5253 C   0  0  0  0  0  0  0  0  0  0  0  0
   12.6490  -19.0026   27.0648 O   0  0  0  0  0  0  0  0  0  0  0  0
   11.4325  -17.1760   27.4013 O   0  0  0  0  0  0  0  0  0  0  0  0
  2  1  1  1
  3  2  1  0
  4  3  1  0
  4  5  2  0
  6  5  1  0
  7  6  2  0
  8  9  2  0
  8  7  1  0
  9  4  1  0
 10  2  1  0
 11 10  2  0
 12 10  1  0
 13 12  1  0
 13 14  1  1
 15 14  1  0
 16 15  2  0
 17 16  1  0
 18 17  2  0
 18 19  1  0
 19 20  2  0
 20 15  1  0
 21 22  2  0
 21 13  1  0
 23 24  1  0
 24 25  2  0
 26 27  1  0
 26 24  1  0
 27 28  1  0
 30 29  1  6
 29 28  1  0
 30 31  1  0
 31 21  1  0
 32 30  1  0
 33 32  1  0
 34 32  2  0
M  END
$$$$
