FFR.pdb
     RDKit          3D

 34 35  0  0  1  0  0  0  0  0999 V2000
    5.9362  -19.1818   20.7425 N   0  0  0  0  0  0  0  0  0  0  0  0
    6.3183  -19.2836   22.1470 C   0  0  1  0  0  0  0  0  0  0  0  0
    7.2869  -20.4440   22.2260 C   0  0  0  0  0  0  0  0  0  0  0  0
    6.5406  -21.7461   22.1017 C   0  0  0  0  0  0  0  0  0  0  0  0
    7.2544  -22.9142   22.2548 C   0  0  0  0  0  0  0  0  0  0  0  0
    6.5915  -24.1167   22.1444 C   0  0  0  0  0  0  0  0  0  0  0  0
    5.2388  -24.1466   21.8856 C   0  0  0  0  0  0  0  0  0  0  0  0
    4.5241  -22.9694   21.7322 C   0  0  0  0  0  0  0  0  0  0  0  0
    5.2011  -21.7768   21.8453 C   0  0  0  0  0  0  0  0  0  0  0  0
    6.9051  -18.0051   22.5614 C   0  0  0  0  0  0  0  0  0  0  0  0
    7.7504  -17.3885   21.8248 O   0  0  0  0  0  0  0  0  0  0  0  0
    6.5997  -17.3436   23.7886 N   0  0  0  0  0  0  0  0  0  0  0  0
    7.2769  -16.1417   24.2123 C   0  0  1  0  0  0  0  0  0  0  0  0
    6.5331  -15.6111   25.4482 C   0  0  0  0  0  0  0  0  0  0  0  0
    7.1611  -14.3630   25.8900 C   0  0  0  0  0  0  0  0  0  0  0  0
    8.1042  -14.3844   26.9107 C   0  0  0  0  0  0  0  0  0  0  0  0
    8.7052  -13.2097   27.3388 C   0  0  0  0  0  0  0  0  0  0  0  0
    8.3809  -12.0055   26.7639 C   0  0  0  0  0  0  0  0  0  0  0  0
    7.4432  -12.0003   25.7522 C   0  0  0  0  0  0  0  0  0  0  0  0
    6.8292  -13.1761   25.3102 C   0  0  0  0  0  0  0  0  0  0  0  0
    8.6607  -16.4066   24.6773 C   0  0  0  0  0  0  0  0  0  0  0  0
    8.8846  -17.4867   25.2998 O   0  0  0  0  0  0  0  0  0  0  0  0
   12.1750  -12.8537   18.7176 N   0  0  0  0  0  0  0  0  0  0  0  0
   13.0107  -13.6451   19.5536 C   0  0  0  0  0  0  0  0  0  0  0  0
   14.0218  -14.2564   19.0174 N   0  0  0  0  0  0  0  0  0  0  0  0
   12.7493  -13.7647   20.9381 N   0  0  0  0  0  0  0  0  0  0  0  0
   13.7459  -14.3949   21.8348 C   0  0  0  0  0  0  0  0  0  0  0  0
   13.0562  -15.4064   22.6876 C   0  0  0  0  0  0  0  0  0  0  0  0
   11.7790  -15.1370   23.3001 C   0  0  0  0  0  0  0  0  0  0  0  0
   11.1503  -16.0295   24.2978 C   0  0  2  0  0  0  0  0  0  0  0  0
    9.7399  -15.5421   24.4751 N   0  0  0  0  0  0  0  0  0  0  0  0
   11.6966  -15.8947   25.6711 C   0  0  0  0  0  0  0  0  0  0  0  0
   11.2016  -14.8632   26.5148 O   0  0  0  0  0  0  0  0  0  0  0  0
   12.5694  -16.5871   26.2204 O   0  0  0  0  0  0  0  0  0  0  0  0
  2  1  1  6
  3  2  1  0
  4  3  1  0
  4  5  2  0
  6  5  1  0
  7  6  2  0
  8  9  2  0
  8  7  1  0
  9  4  1  0
 10  2  1  0
 11 10  2  0
 12 10  1  0
 13 12  1  0
 13 14  1  1
 15 14  1  0
 16 15  2  0
 17 16  1  0
 18 17  2  0
 18 19  1  0
 19 20  2  0
 20 15  1  0
 21 22  2  0
 21 13  1  0
 23 24  1  0
 24 25  2  0
 26 27  1  0
 26 24  1  0
 27 28  1  0
 30 29  1  6
 29 28  1  0
 30 31  1  0
 31 21  1  0
 32 30  1  0
 33 32  1  0
 34 32  2  0
M  END
$$$$
