FFR.pdb
     RDKit          3D

 34 35  0  0  1  0  0  0  0  0999 V2000
    7.6260  -17.2562   20.4466 N   0  0  0  0  0  0  0  0  0  0  0  0
    9.0359  -16.8998   20.5661 C   0  0  1  0  0  0  0  0  0  0  0  0
    9.3194  -15.9551   19.4181 C   0  0  0  0  0  0  0  0  0  0  0  0
    8.6142  -14.6439   19.6449 C   0  0  0  0  0  0  0  0  0  0  0  0
    7.2391  -14.6580   19.7236 C   0  0  0  0  0  0  0  0  0  0  0  0
    6.5738  -13.4695   19.9302 C   0  0  0  0  0  0  0  0  0  0  0  0
    7.2746  -12.2901   20.0554 C   0  0  0  0  0  0  0  0  0  0  0  0
    8.6579  -12.2801   19.9756 C   0  0  0  0  0  0  0  0  0  0  0  0
    9.3072  -13.4755   19.7688 C   0  0  0  0  0  0  0  0  0  0  0  0
    9.2509  -16.2959   21.8850 C   0  0  0  0  0  0  0  0  0  0  0  0
   10.4279  -16.0529   22.3243 O   0  0  0  0  0  0  0  0  0  0  0  0
    8.2008  -15.9307   22.7799 N   0  0  0  0  0  0  0  0  0  0  0  0
    8.4508  -15.3084   24.0578 C   0  0  1  0  0  0  0  0  0  0  0  0
    7.1394  -14.6435   24.5053 C   0  0  0  0  0  0  0  0  0  0  0  0
    7.3772  -13.8904   25.7396 C   0  0  0  0  0  0  0  0  0  0  0  0
    6.9535  -14.4055   26.9590 C   0  0  0  0  0  0  0  0  0  0  0  0
    7.1717  -13.7020   28.1345 C   0  0  0  0  0  0  0  0  0  0  0  0
    7.8090  -12.4857   28.1165 C   0  0  0  0  0  0  0  0  0  0  0  0
    8.2235  -11.9875   26.8988 C   0  0  0  0  0  0  0  0  0  0  0  0
    8.0107  -12.6852   25.7060 C   0  0  0  0  0  0  0  0  0  0  0  0
    8.7639  -16.2989   25.1172 C   0  0  0  0  0  0  0  0  0  0  0  0
    8.0562  -17.3474   25.1819 O   0  0  0  0  0  0  0  0  0  0  0  0
   14.5333  -20.7768   26.0320 N   0  0  0  0  0  0  0  0  0  0  0  0
   13.9647  -20.7810   24.7281 C   0  0  0  0  0  0  0  0  0  0  0  0
   14.7533  -20.9355   23.7095 N   0  0  0  0  0  0  0  0  0  0  0  0
   12.5721  -20.6216   24.5422 N   0  0  0  0  0  0  0  0  0  0  0  0
   11.7085  -20.2176   25.6760 C   0  0  0  0  0  0  0  0  0  0  0  0
   12.2614  -18.9723   26.2839 C   0  0  0  0  0  0  0  0  0  0  0  0
   11.6146  -17.6947   26.1150 C   0  0  0  0  0  0  0  0  0  0  0  0
   10.3678  -17.3149   26.8141 C   0  0  2  0  0  0  0  0  0  0  0  0
    9.7910  -16.1542   26.0537 N   0  0  0  0  0  0  0  0  0  0  0  0
   10.5752  -16.7269   28.1609 C   0  0  0  0  0  0  0  0  0  0  0  0
   10.6422  -17.5887   29.2895 O   0  0  0  0  0  0  0  0  0  0  0  0
   10.7049  -15.5291   28.4629 O   0  0  0  0  0  0  0  0  0  0  0  0
  2  1  1  1
  3  2  1  0
  4  3  1  0
  4  5  2  0
  6  5  1  0
  7  6  2  0
  8  9  2  0
  8  7  1  0
  9  4  1  0
 10  2  1  0
 11 10  2  0
 12 10  1  0
 13 12  1  0
 13 14  1  1
 15 14  1  0
 16 15  2  0
 17 16  1  0
 18 17  2  0
 18 19  1  0
 19 20  2  0
 20 15  1  0
 21 22  2  0
 21 13  1  0
 23 24  1  0
 24 25  2  0
 26 27  1  0
 26 24  1  0
 27 28  1  0
 30 29  1  6
 29 28  1  0
 30 31  1  0
 31 21  1  0
 32 30  1  0
 33 32  1  0
 34 32  2  0
M  END
$$$$
