FFR.pdb
     RDKit          3D

 34 35  0  0  1  0  0  0  0  0999 V2000
    6.8830  -20.4625   26.5306 N   0  0  0  0  0  0  0  0  0  0  0  0
    6.4552  -20.1013   25.1832 C   0  0  1  0  0  0  0  0  0  0  0  0
    5.0759  -20.7013   25.0155 C   0  0  0  0  0  0  0  0  0  0  0  0
    5.1888  -22.1689   24.6967 C   0  0  0  0  0  0  0  0  0  0  0  0
    4.0234  -22.8945   24.5844 C   0  0  0  0  0  0  0  0  0  0  0  0
    4.1038  -24.2387   24.2937 C   0  0  0  0  0  0  0  0  0  0  0  0
    5.3294  -24.8428   24.1190 C   0  0  0  0  0  0  0  0  0  0  0  0
    6.4996  -24.1094   24.2327 C   0  0  0  0  0  0  0  0  0  0  0  0
    6.4020  -22.7680   24.5236 C   0  0  0  0  0  0  0  0  0  0  0  0
    6.4731  -18.6395   25.0677 C   0  0  0  0  0  0  0  0  0  0  0  0
    5.3978  -17.9710   24.8830 O   0  0  0  0  0  0  0  0  0  0  0  0
    7.6552  -17.8438   25.1480 N   0  0  0  0  0  0  0  0  0  0  0  0
    7.6531  -16.4225   24.8980 C   0  0  1  0  0  0  0  0  0  0  0  0
    8.1390  -15.7329   26.1828 C   0  0  0  0  0  0  0  0  0  0  0  0
    7.6552  -14.3499   26.2004 C   0  0  0  0  0  0  0  0  0  0  0  0
    6.4076  -14.0583   26.7390 C   0  0  0  0  0  0  0  0  0  0  0  0
    5.9376  -12.7532   26.7606 C   0  0  0  0  0  0  0  0  0  0  0  0
    6.6941  -11.7263   26.2516 C   0  0  0  0  0  0  0  0  0  0  0  0
    7.9301  -12.0314   25.7205 C   0  0  0  0  0  0  0  0  0  0  0  0
    8.4169  -13.3418   25.6918 C   0  0  0  0  0  0  0  0  0  0  0  0
    8.6319  -16.0307   23.8542 C   0  0  0  0  0  0  0  0  0  0  0  0
    9.6777  -16.7331   23.7230 O   0  0  0  0  0  0  0  0  0  0  0  0
    8.8435  -15.4834   17.0065 N   0  0  0  0  0  0  0  0  0  0  0  0
    8.5541  -14.2067   16.4498 C   0  0  0  0  0  0  0  0  0  0  0  0
    8.9419  -13.9579   15.2370 N   0  0  0  0  0  0  0  0  0  0  0  0
    7.8589  -13.2286   17.1978 N   0  0  0  0  0  0  0  0  0  0  0  0
    7.2802  -13.5697   18.5182 C   0  0  0  0  0  0  0  0  0  0  0  0
    8.3286  -13.3923   19.5648 C   0  0  0  0  0  0  0  0  0  0  0  0
    8.1136  -13.8032   20.9301 C   0  0  0  0  0  0  0  0  0  0  0  0
    8.7202  -15.0161   21.5203 C   0  0  2  0  0  0  0  0  0  0  0  0
    8.4793  -14.9342   23.0013 N   0  0  0  0  0  0  0  0  0  0  0  0
   10.2022  -15.0554   21.4520 C   0  0  0  0  0  0  0  0  0  0  0  0
   10.9589  -14.3395   22.4194 O   0  0  0  0  0  0  0  0  0  0  0  0
   10.9163  -15.6530   20.6299 O   0  0  0  0  0  0  0  0  0  0  0  0
  2  1  1  1
  3  2  1  0
  4  3  1  0
  4  5  2  0
  6  5  1  0
  7  6  2  0
  8  9  2  0
  8  7  1  0
  9  4  1  0
 10  2  1  0
 11 10  2  0
 12 10  1  0
 13 12  1  0
 13 14  1  1
 15 14  1  0
 16 15  2  0
 17 16  1  0
 18 17  2  0
 18 19  1  0
 19 20  2  0
 20 15  1  0
 21 22  2  0
 21 13  1  0
 23 24  1  0
 24 25  2  0
 26 27  1  0
 26 24  1  0
 27 28  1  0
 30 29  1  6
 29 28  1  0
 30 31  1  0
 31 21  1  0
 32 30  1  0
 33 32  1  0
 34 32  2  0
M  END
$$$$
