FFR.pdb
     RDKit          3D

 34 35  0  0  1  0  0  0  0  0999 V2000
    7.9325  -17.0845   21.9187 N   0  0  0  0  0  0  0  0  0  0  0  0
    9.3073  -16.6033   21.8345 C   0  0  1  0  0  0  0  0  0  0  0  0
    9.3373  -15.6492   20.6600 C   0  0  0  0  0  0  0  0  0  0  0  0
    8.2898  -14.5818   20.8376 C   0  0  0  0  0  0  0  0  0  0  0  0
    7.1738  -14.6350   20.0320 C   0  0  0  0  0  0  0  0  0  0  0  0
    6.2034  -13.6680   20.1775 C   0  0  0  0  0  0  0  0  0  0  0  0
    6.3500  -12.6675   21.1129 C   0  0  0  0  0  0  0  0  0  0  0  0
    7.4742  -12.6173   21.9214 C   0  0  0  0  0  0  0  0  0  0  0  0
    8.4341  -13.5905   21.7635 C   0  0  0  0  0  0  0  0  0  0  0  0
    9.6550  -15.9688   23.1101 C   0  0  0  0  0  0  0  0  0  0  0  0
   10.7547  -15.3322   23.2614 O   0  0  0  0  0  0  0  0  0  0  0  0
    8.8262  -15.9978   24.2716 N   0  0  0  0  0  0  0  0  0  0  0  0
    9.3424  -15.7697   25.5998 C   0  0  1  0  0  0  0  0  0  0  0  0
    8.1519  -15.3811   26.4910 C   0  0  0  0  0  0  0  0  0  0  0  0
    7.8330  -13.9666   26.2799 C   0  0  0  0  0  0  0  0  0  0  0  0
    8.8061  -12.9970   26.4916 C   0  0  0  0  0  0  0  0  0  0  0  0
    8.5166  -11.6545   26.2964 C   0  0  0  0  0  0  0  0  0  0  0  0
    7.2658  -11.2580   25.8910 C   0  0  0  0  0  0  0  0  0  0  0  0
    6.3107  -12.2317   25.6851 C   0  0  0  0  0  0  0  0  0  0  0  0
    6.5879  -13.5885   25.8778 C   0  0  0  0  0  0  0  0  0  0  0  0
    9.8968  -17.0030   26.2103 C   0  0  0  0  0  0  0  0  0  0  0  0
   10.5052  -16.9000   27.3164 O   0  0  0  0  0  0  0  0  0  0  0  0
   14.3742  -18.3445   22.3112 N   0  0  0  0  0  0  0  0  0  0  0  0
   13.5198  -19.1617   21.5202 C   0  0  0  0  0  0  0  0  0  0  0  0
   13.4626  -18.9429   20.2426 N   0  0  0  0  0  0  0  0  0  0  0  0
   12.7493  -20.1908   22.1091 N   0  0  0  0  0  0  0  0  0  0  0  0
   12.8559  -20.4665   23.5607 C   0  0  0  0  0  0  0  0  0  0  0  0
   12.1387  -19.3937   24.3096 C   0  0  0  0  0  0  0  0  0  0  0  0
   11.8284  -19.5259   25.7115 C   0  0  0  0  0  0  0  0  0  0  0  0
   10.4503  -19.4883   26.2471 C   0  0  2  0  0  0  0  0  0  0  0  0
    9.7937  -18.2775   25.6464 N   0  0  0  0  0  0  0  0  0  0  0  0
   10.3651  -19.1949   27.6995 C   0  0  0  0  0  0  0  0  0  0  0  0
   10.4366  -20.2690   28.6280 O   0  0  0  0  0  0  0  0  0  0  0  0
   10.2329  -18.0903   28.2520 O   0  0  0  0  0  0  0  0  0  0  0  0
  2  1  1  1
  3  2  1  0
  4  3  1  0
  4  5  2  0
  6  5  1  0
  7  6  2  0
  8  9  2  0
  8  7  1  0
  9  4  1  0
 10  2  1  0
 11 10  2  0
 12 10  1  0
 13 12  1  0
 13 14  1  1
 15 14  1  0
 16 15  2  0
 17 16  1  0
 18 17  2  0
 18 19  1  0
 19 20  2  0
 20 15  1  0
 21 22  2  0
 21 13  1  0
 23 24  1  0
 24 25  2  0
 26 27  1  0
 26 24  1  0
 27 28  1  0
 30 29  1  6
 29 28  1  0
 30 31  1  0
 31 21  1  0
 32 30  1  0
 33 32  1  0
 34 32  2  0
M  END
$$$$
