FFR.pdb
     RDKit          3D

 34 35  0  0  1  0  0  0  0  0999 V2000
    7.0075  -15.4473   20.0908 N   0  0  0  0  0  0  0  0  0  0  0  0
    6.8215  -16.2535   21.2926 C   0  0  1  0  0  0  0  0  0  0  0  0
    6.9811  -17.6922   20.8508 C   0  0  0  0  0  0  0  0  0  0  0  0
    5.7838  -18.1178   20.0424 C   0  0  0  0  0  0  0  0  0  0  0  0
    5.9030  -18.1235   18.6701 C   0  0  0  0  0  0  0  0  0  0  0  0
    4.8197  -18.5089   17.9113 C   0  0  0  0  0  0  0  0  0  0  0  0
    3.6401  -18.8812   18.5176 C   0  0  0  0  0  0  0  0  0  0  0  0
    3.5241  -18.8741   19.8984 C   0  0  0  0  0  0  0  0  0  0  0  0
    4.6152  -18.4865   20.6418 C   0  0  0  0  0  0  0  0  0  0  0  0
    7.8135  -15.8360   22.2887 C   0  0  0  0  0  0  0  0  0  0  0  0
    8.9908  -15.4703   21.9460 O   0  0  0  0  0  0  0  0  0  0  0  0
    7.5701  -15.7973   23.6945 N   0  0  0  0  0  0  0  0  0  0  0  0
    8.5919  -15.4427   24.6500 C   0  0  1  0  0  0  0  0  0  0  0  0
    7.8950  -15.2231   26.0022 C   0  0  0  0  0  0  0  0  0  0  0  0
    7.4683  -13.8249   26.1033 C   0  0  0  0  0  0  0  0  0  0  0  0
    6.1144  -13.5108   26.0988 C   0  0  0  0  0  0  0  0  0  0  0  0
    5.6975  -12.1910   26.1928 C   0  0  0  0  0  0  0  0  0  0  0  0
    6.6121  -11.1714   26.2921 C   0  0  0  0  0  0  0  0  0  0  0  0
    7.9522  -11.4989   26.2952 C   0  0  0  0  0  0  0  0  0  0  0  0
    8.3872  -12.8243   26.2012 C   0  0  0  0  0  0  0  0  0  0  0  0
    9.5538  -16.5476   24.8851 C   0  0  0  0  0  0  0  0  0  0  0  0
    9.0907  -17.6912   25.1712 O   0  0  0  0  0  0  0  0  0  0  0  0
   17.2903  -16.1765   21.2650 N   0  0  0  0  0  0  0  0  0  0  0  0
   16.9369  -15.8525   22.6043 C   0  0  0  0  0  0  0  0  0  0  0  0
   17.6834  -15.0150   23.2561 N   0  0  0  0  0  0  0  0  0  0  0  0
   15.7983  -16.4273   23.2147 N   0  0  0  0  0  0  0  0  0  0  0  0
   15.1950  -17.6606   22.6584 C   0  0  0  0  0  0  0  0  0  0  0  0
   14.0774  -18.0942   23.5466 C   0  0  0  0  0  0  0  0  0  0  0  0
   13.0240  -17.1897   23.9358 C   0  0  0  0  0  0  0  0  0  0  0  0
   11.8733  -17.5924   24.7731 C   0  0  2  0  0  0  0  0  0  0  0  0
   10.9429  -16.4130   24.8123 N   0  0  0  0  0  0  0  0  0  0  0  0
   12.1958  -17.7769   26.2100 C   0  0  0  0  0  0  0  0  0  0  0  0
   11.6112  -16.9046   27.1681 O   0  0  0  0  0  0  0  0  0  0  0  0
   12.9414  -18.6262   26.7254 O   0  0  0  0  0  0  0  0  0  0  0  0
  2  1  1  6
  3  2  1  0
  4  3  1  0
  4  5  2  0
  6  5  1  0
  7  6  2  0
  8  9  2  0
  8  7  1  0
  9  4  1  0
 10  2  1  0
 11 10  2  0
 12 10  1  0
 13 12  1  0
 13 14  1  1
 15 14  1  0
 16 15  2  0
 17 16  1  0
 18 17  2  0
 18 19  1  0
 19 20  2  0
 20 15  1  0
 21 22  2  0
 21 13  1  0
 23 24  1  0
 24 25  2  0
 26 27  1  0
 26 24  1  0
 27 28  1  0
 30 29  1  6
 29 28  1  0
 30 31  1  0
 31 21  1  0
 32 30  1  0
 33 32  1  0
 34 32  2  0
M  END
$$$$
