FFR.pdb
     RDKit          3D

 34 35  0  0  1  0  0  0  0  0999 V2000
    4.4878  -17.8424   21.2020 N   0  0  0  0  0  0  0  0  0  0  0  0
    4.4677  -17.9054   22.6596 C   0  0  1  0  0  0  0  0  0  0  0  0
    4.4842  -19.3783   23.0073 C   0  0  0  0  0  0  0  0  0  0  0  0
    3.1693  -20.0099   22.6328 C   0  0  0  0  0  0  0  0  0  0  0  0
    2.0209  -19.4731   23.1716 C   0  0  0  0  0  0  0  0  0  0  0  0
    0.8073  -20.0359   22.8426 C   0  0  0  0  0  0  0  0  0  0  0  0
    0.7472  -21.1160   21.9898 C   0  0  0  0  0  0  0  0  0  0  0  0
    1.9047  -21.6533   21.4499 C   0  0  0  0  0  0  0  0  0  0  0  0
    3.1088  -21.0797   21.7885 C   0  0  0  0  0  0  0  0  0  0  0  0
    5.6303  -17.1724   23.1710 C   0  0  0  0  0  0  0  0  0  0  0  0
    6.6084  -16.8561   22.4090 O   0  0  0  0  0  0  0  0  0  0  0  0
    5.7798  -16.7527   24.5269 N   0  0  0  0  0  0  0  0  0  0  0  0
    6.9502  -16.0522   24.9984 C   0  0  1  0  0  0  0  0  0  0  0  0
    6.6768  -15.6347   26.4520 C   0  0  0  0  0  0  0  0  0  0  0  0
    6.8544  -14.1857   26.5791 C   0  0  0  0  0  0  0  0  0  0  0  0
    7.9434  -13.6791   27.2786 C   0  0  0  0  0  0  0  0  0  0  0  0
    8.1224  -12.3094   27.4071 C   0  0  0  0  0  0  0  0  0  0  0  0
    7.2292  -11.4294   26.8469 C   0  0  0  0  0  0  0  0  0  0  0  0
    6.1535  -11.9473   26.1559 C   0  0  0  0  0  0  0  0  0  0  0  0
    5.9602  -13.3251   26.0181 C   0  0  0  0  0  0  0  0  0  0  0  0
    8.1450  -16.9293   25.0656 C   0  0  0  0  0  0  0  0  0  0  0  0
    7.9834  -18.1308   25.4325 O   0  0  0  0  0  0  0  0  0  0  0  0
   15.7381  -17.5319   22.7819 N   0  0  0  0  0  0  0  0  0  0  0  0
   15.3456  -18.3122   21.6591 C   0  0  0  0  0  0  0  0  0  0  0  0
   16.1622  -19.2199   21.2201 N   0  0  0  0  0  0  0  0  0  0  0  0
   14.0943  -18.1069   21.0333 N   0  0  0  0  0  0  0  0  0  0  0  0
   13.1427  -17.1092   21.5753 C   0  0  0  0  0  0  0  0  0  0  0  0
   12.2013  -17.7966   22.5066 C   0  0  0  0  0  0  0  0  0  0  0  0
   11.1220  -17.0902   23.1509 C   0  0  0  0  0  0  0  0  0  0  0  0
   10.5536  -17.4885   24.4569 C   0  0  2  0  0  0  0  0  0  0  0  0
    9.4433  -16.5193   24.7506 N   0  0  0  0  0  0  0  0  0  0  0  0
   11.4614  -17.2743   25.6113 C   0  0  0  0  0  0  0  0  0  0  0  0
   11.2377  -16.1645   26.4711 O   0  0  0  0  0  0  0  0  0  0  0  0
   12.4400  -17.9581   25.9543 O   0  0  0  0  0  0  0  0  0  0  0  0
  2  1  1  6
  3  2  1  0
  4  3  1  0
  4  5  2  0
  6  5  1  0
  7  6  2  0
  8  9  2  0
  8  7  1  0
  9  4  1  0
 10  2  1  0
 11 10  2  0
 12 10  1  0
 13 12  1  0
 13 14  1  1
 15 14  1  0
 16 15  2  0
 17 16  1  0
 18 17  2  0
 18 19  1  0
 19 20  2  0
 20 15  1  0
 21 22  2  0
 21 13  1  0
 23 24  1  0
 24 25  2  0
 26 27  1  0
 26 24  1  0
 27 28  1  0
 30 29  1  6
 29 28  1  0
 30 31  1  0
 31 21  1  0
 32 30  1  0
 33 32  1  0
 34 32  2  0
M  END
$$$$
