AAD.pdb
     RDKit          3D

 19 18  0  0  1  0  0  0  0  0999 V2000
   12.2255  -12.5537  -13.7896 C   0  0  0  0  0  0  0  0  0  0  0  0
   13.5399  -13.2656  -13.7611 C   0  0  2  0  0  0  0  0  0  0  0  0
   13.3932  -14.6000  -13.2743 N   0  0  0  0  0  0  0  0  0  0  0  0
   14.6016  -12.4881  -13.0710 C   0  0  0  0  0  0  0  0  0  0  0  0
   14.5406  -12.4308  -11.8132 O   0  0  0  0  0  0  0  0  0  0  0  0
   17.8753  -10.7744  -13.9038 C   0  0  0  0  0  0  0  0  0  0  0  0
   16.7007  -11.1244  -12.9936 C   0  0  2  0  0  0  0  0  0  0  0  0
   15.6617  -11.8162  -13.7119 N   0  0  0  0  0  0  0  0  0  0  0  0
   16.2220   -9.8327  -12.4263 C   0  0  0  0  0  0  0  0  0  0  0  0
   15.2987   -9.2379  -13.0235 O   0  0  0  0  0  0  0  0  0  0  0  0
   16.7675   -9.2641  -11.2521 N   0  0  0  0  0  0  0  0  0  0  0  0
   16.3185   -7.9985  -10.6729 C   0  0  1  0  0  0  0  0  0  0  0  0
   16.7505   -7.8663   -9.2531 C   0  0  0  0  0  0  0  0  0  0  0  0
   16.4637   -6.5741   -8.6241 C   0  0  0  0  0  0  0  0  0  0  0  0
   17.0161   -6.1284   -7.5996 O   0  0  0  0  0  0  0  0  0  0  0  0
   16.9982   -6.9459  -11.4857 C   0  0  0  0  0  0  0  0  0  0  0  0
   18.0774   -7.1701  -12.0593 O   0  0  0  0  0  0  0  0  0  0  0  0
   15.4884   -5.7414   -9.1990 O   0  0  0  0  0  0  0  0  0  0  0  0
   16.4692   -5.6650  -11.6477 O   0  0  0  0  0  0  0  0  0  0  0  0
  2  1  1  1
  2  4  1  0
  2  3  1  0
  4  5  2  0
  7  6  1  6
  7  9  1  0
  8  4  1  0
  8  7  1  0
  9 10  2  0
 11 12  1  0
 11  9  1  0
 12 16  1  0
 12 13  1  1
 14 15  2  0
 14 13  1  0
 16 17  2  0
 16 19  1  0
 18 14  1  0
M  END
$$$$
