AAD.pdb
     RDKit          3D

 19 18  0  0  1  0  0  0  0  0999 V2000
   19.2119  -11.9558  -17.3680 C   0  0  0  0  0  0  0  0  0  0  0  0
   18.2580  -11.9004  -16.2182 C   0  0  2  0  0  0  0  0  0  0  0  0
   16.9907  -12.4552  -16.5723 N   0  0  0  0  0  0  0  0  0  0  0  0
   18.1717  -10.5495  -15.6055 C   0  0  0  0  0  0  0  0  0  0  0  0
   17.7893   -9.6080  -16.3514 O   0  0  0  0  0  0  0  0  0  0  0  0
   18.3677   -8.9406  -12.1898 C   0  0  0  0  0  0  0  0  0  0  0  0
   18.3749   -8.9181  -13.7162 C   0  0  2  0  0  0  0  0  0  0  0  0
   18.4829  -10.2451  -14.2651 N   0  0  0  0  0  0  0  0  0  0  0  0
   19.5253   -8.0566  -14.1086 C   0  0  0  0  0  0  0  0  0  0  0  0
   20.5945   -8.6191  -14.4300 O   0  0  0  0  0  0  0  0  0  0  0  0
   19.4509   -6.6446  -14.1302 N   0  0  0  0  0  0  0  0  0  0  0  0
   20.5755   -5.7728  -14.4678 C   0  0  1  0  0  0  0  0  0  0  0  0
   20.1176   -4.3891  -14.7770 C   0  0  0  0  0  0  0  0  0  0  0  0
   21.1823   -3.4096  -15.0108 C   0  0  0  0  0  0  0  0  0  0  0  0
   22.3505   -3.6769  -15.3531 O   0  0  0  0  0  0  0  0  0  0  0  0
   21.4155   -5.7402  -13.2333 C   0  0  0  0  0  0  0  0  0  0  0  0
   20.9076   -5.8468  -12.1043 O   0  0  0  0  0  0  0  0  0  0  0  0
   20.8961   -2.0438  -14.8439 O   0  0  0  0  0  0  0  0  0  0  0  0
   22.8021   -5.5902  -13.2731 O   0  0  0  0  0  0  0  0  0  0  0  0
  2  1  1  6
  2  4  1  0
  2  3  1  0
  4  5  2  0
  7  6  1  1
  7  9  1  0
  8  4  1  0
  8  7  1  0
  9 10  2  0
 11 12  1  0
 11  9  1  0
 12 16  1  0
 12 13  1  1
 14 15  2  0
 14 13  1  0
 16 17  2  0
 16 19  1  0
 18 14  1  0
M  END
$$$$
