AAD.pdb
     RDKit          3D

 19 18  0  0  1  0  0  0  0  0999 V2000
   17.8634  -12.3465  -15.6813 C   0  0  0  0  0  0  0  0  0  0  0  0
   18.1539  -11.9881  -17.1033 C   0  0  2  0  0  0  0  0  0  0  0  0
   18.5222  -13.1412  -17.8609 N   0  0  0  0  0  0  0  0  0  0  0  0
   19.1094  -10.8571  -17.2290 C   0  0  0  0  0  0  0  0  0  0  0  0
   20.1266  -10.8840  -16.4850 O   0  0  0  0  0  0  0  0  0  0  0  0
   19.5763   -7.7198  -19.3175 C   0  0  0  0  0  0  0  0  0  0  0  0
   19.9160   -8.6886  -18.1877 C   0  0  2  0  0  0  0  0  0  0  0  0
   18.9642   -9.7665  -18.1098 N   0  0  0  0  0  0  0  0  0  0  0  0
   19.9390   -7.8733  -16.9409 C   0  0  0  0  0  0  0  0  0  0  0  0
   18.8697   -7.7447  -16.3062 O   0  0  0  0  0  0  0  0  0  0  0  0
   21.1118   -7.2487  -16.4571 N   0  0  0  0  0  0  0  0  0  0  0  0
   21.1690   -6.4605  -15.2266 C   0  0  1  0  0  0  0  0  0  0  0  0
   21.1634   -7.3344  -14.0198 C   0  0  0  0  0  0  0  0  0  0  0  0
   21.3108   -6.6404  -12.7375 C   0  0  0  0  0  0  0  0  0  0  0  0
   21.4622   -5.4119  -12.5916 O   0  0  0  0  0  0  0  0  0  0  0  0
   22.4754   -5.7401  -15.2965 C   0  0  0  0  0  0  0  0  0  0  0  0
   23.3210   -6.0201  -16.1630 O   0  0  0  0  0  0  0  0  0  0  0  0
   21.2839   -7.3938  -11.5514 O   0  0  0  0  0  0  0  0  0  0  0  0
   22.8202   -4.7233  -14.4055 O   0  0  0  0  0  0  0  0  0  0  0  0
  2  1  1  1
  2  4  1  0
  2  3  1  0
  4  5  2  0
  7  6  1  6
  7  9  1  0
  8  4  1  0
  8  7  1  0
  9 10  2  0
 11 12  1  0
 11  9  1  0
 12 16  1  0
 12 13  1  1
 14 15  2  0
 14 13  1  0
 16 17  2  0
 16 19  1  0
 18 14  1  0
M  END
$$$$
