AAD.pdb
     RDKit          3D

 19 18  0  0  1  0  0  0  0  0999 V2000
   24.2345  -22.2852  -12.4971 C   0  0  0  0  0  0  0  0  0  0  0  0
   25.0942  -21.6099  -13.5168 C   0  0  2  0  0  0  0  0  0  0  0  0
   26.4293  -21.4445  -13.0377 N   0  0  0  0  0  0  0  0  0  0  0  0
   24.4876  -20.3612  -14.0464 C   0  0  0  0  0  0  0  0  0  0  0  0
   24.1468  -19.4895  -13.2018 O   0  0  0  0  0  0  0  0  0  0  0  0
   24.3765  -18.4778  -17.2642 C   0  0  0  0  0  0  0  0  0  0  0  0
   23.8095  -18.8007  -15.8840 C   0  0  2  0  0  0  0  0  0  0  0  0
   24.2666  -20.0813  -15.4098 N   0  0  0  0  0  0  0  0  0  0  0  0
   22.3274  -18.7556  -16.0283 C   0  0  0  0  0  0  0  0  0  0  0  0
   21.7341  -19.8203  -16.3063 O   0  0  0  0  0  0  0  0  0  0  0  0
   21.5787  -17.5672  -15.8639 N   0  0  0  0  0  0  0  0  0  0  0  0
   20.1173  -17.5193  -15.8419 C   0  0  1  0  0  0  0  0  0  0  0  0
   19.6182  -16.6319  -14.7540 C   0  0  0  0  0  0  0  0  0  0  0  0
   18.6205  -17.2279  -13.8613 C   0  0  0  0  0  0  0  0  0  0  0  0
   18.1867  -18.3940  -13.9352 O   0  0  0  0  0  0  0  0  0  0  0  0
   19.7361  -16.9302  -17.1603 C   0  0  0  0  0  0  0  0  0  0  0  0
   20.5506  -16.2783  -17.8354 O   0  0  0  0  0  0  0  0  0  0  0  0
   18.0864  -16.4461  -12.8227 O   0  0  0  0  0  0  0  0  0  0  0  0
   18.4601  -17.0746  -17.7058 O   0  0  0  0  0  0  0  0  0  0  0  0
  2  1  1  1
  2  4  1  0
  2  3  1  0
  4  5  2  0
  7  6  1  6
  7  9  1  0
  8  4  1  0
  8  7  1  0
  9 10  2  0
 11 12  1  0
 11  9  1  0
 12 16  1  0
 12 13  1  1
 14 15  2  0
 14 13  1  0
 16 17  2  0
 16 19  1  0
 18 14  1  0
M  END
$$$$
