AAD.pdb
     RDKit          3D

 19 18  0  0  1  0  0  0  0  0999 V2000
   15.3500  -11.1360  -11.0141 C   0  0  0  0  0  0  0  0  0  0  0  0
   15.4436  -11.5541  -12.4465 C   0  0  2  0  0  0  0  0  0  0  0  0
   15.6496  -12.9626  -12.5601 N   0  0  0  0  0  0  0  0  0  0  0  0
   16.4159  -10.7408  -13.2219 C   0  0  0  0  0  0  0  0  0  0  0  0
   17.6331  -11.0501  -13.1136 O   0  0  0  0  0  0  0  0  0  0  0  0
   16.3714   -8.2619  -16.0577 C   0  0  0  0  0  0  0  0  0  0  0  0
   17.0442   -8.9855  -14.8940 C   0  0  2  0  0  0  0  0  0  0  0  0
   16.0816   -9.6593  -14.0614 N   0  0  0  0  0  0  0  0  0  0  0  0
   17.7984   -7.9428  -14.1433 C   0  0  0  0  0  0  0  0  0  0  0  0
   17.2552   -7.4390  -13.1364 O   0  0  0  0  0  0  0  0  0  0  0  0
   19.0893   -7.5093  -14.5245 N   0  0  0  0  0  0  0  0  0  0  0  0
   19.8198   -6.4331  -13.8560 C   0  0  1  0  0  0  0  0  0  0  0  0
   21.2804   -6.5084  -14.1406 C   0  0  0  0  0  0  0  0  0  0  0  0
   22.0939   -5.4414  -13.5512 C   0  0  0  0  0  0  0  0  0  0  0  0
   21.7542   -4.7137  -12.5981 O   0  0  0  0  0  0  0  0  0  0  0  0
   19.2748   -5.1764  -14.4512 C   0  0  0  0  0  0  0  0  0  0  0  0
   19.2962   -4.1036  -13.8245 O   0  0  0  0  0  0  0  0  0  0  0  0
   23.3710   -5.1905  -14.0814 O   0  0  0  0  0  0  0  0  0  0  0  0
   18.7166   -5.1321  -15.7291 O   0  0  0  0  0  0  0  0  0  0  0  0
  2  1  1  1
  2  4  1  0
  2  3  1  0
  4  5  2  0
  7  6  1  6
  7  9  1  0
  8  4  1  0
  8  7  1  0
  9 10  2  0
 11 12  1  0
 11  9  1  0
 12 16  1  0
 12 13  1  6
 14 15  2  0
 14 13  1  0
 16 17  2  0
 16 19  1  0
 18 14  1  0
M  END
$$$$
