AAD.pdb
     RDKit          3D

 19 18  0  0  1  0  0  0  0  0999 V2000
   15.3023  -14.5685  -16.7853 C   0  0  0  0  0  0  0  0  0  0  0  0
   15.7693  -13.1783  -17.0757 C   0  0  2  0  0  0  0  0  0  0  0  0
   16.0336  -13.0033  -18.4680 N   0  0  0  0  0  0  0  0  0  0  0  0
   16.8860  -12.7495  -16.1942 C   0  0  0  0  0  0  0  0  0  0  0  0
   16.6892  -12.8153  -14.9508 O   0  0  0  0  0  0  0  0  0  0  0  0
   20.5752  -12.2207  -16.3677 C   0  0  0  0  0  0  0  0  0  0  0  0
   19.2111  -11.9344  -15.7450 C   0  0  2  0  0  0  0  0  0  0  0  0
   18.1371  -12.2788  -16.6406 N   0  0  0  0  0  0  0  0  0  0  0  0
   19.2111  -10.4838  -15.4056 C   0  0  0  0  0  0  0  0  0  0  0  0
   20.0471  -10.0788  -14.5689 O   0  0  0  0  0  0  0  0  0  0  0  0
   18.3114   -9.5618  -15.9887 N   0  0  0  0  0  0  0  0  0  0  0  0
   18.2627   -8.1407  -15.6469 C   0  0  1  0  0  0  0  0  0  0  0  0
   18.8257   -7.2986  -16.7396 C   0  0  0  0  0  0  0  0  0  0  0  0
   18.7183   -5.8509  -16.5396 C   0  0  0  0  0  0  0  0  0  0  0  0
   19.5842   -5.1259  -16.0123 O   0  0  0  0  0  0  0  0  0  0  0  0
   16.8083   -7.8343  -15.5001 C   0  0  0  0  0  0  0  0  0  0  0  0
   15.9685   -8.2977  -16.2901 O   0  0  0  0  0  0  0  0  0  0  0  0
   17.5530   -5.1917  -16.9670 O   0  0  0  0  0  0  0  0  0  0  0  0
   16.3121   -7.0207  -14.4811 O   0  0  0  0  0  0  0  0  0  0  0  0
  2  1  1  6
  2  4  1  0
  2  3  1  0
  4  5  2  0
  7  6  1  6
  7  9  1  0
  8  4  1  0
  8  7  1  0
  9 10  2  0
 11 12  1  0
 11  9  1  0
 12 16  1  0
 12 13  1  6
 14 15  2  0
 14 13  1  0
 16 17  2  0
 16 19  1  0
 18 14  1  0
M  END
$$$$
