AAD.pdb
     RDKit          3D

 19 18  0  0  1  0  0  0  0  0999 V2000
   18.4869  -10.6509  -19.0835 C   0  0  0  0  0  0  0  0  0  0  0  0
   19.1139  -11.5377  -18.0562 C   0  0  2  0  0  0  0  0  0  0  0  0
   18.1990  -12.5406  -17.6130 N   0  0  0  0  0  0  0  0  0  0  0  0
   19.7525  -10.7773  -16.9508 C   0  0  0  0  0  0  0  0  0  0  0  0
   18.9887  -10.1143  -16.1985 O   0  0  0  0  0  0  0  0  0  0  0  0
   23.1581  -10.3901  -15.3388 C   0  0  0  0  0  0  0  0  0  0  0  0
   21.7056   -9.9948  -15.5924 C   0  0  2  0  0  0  0  0  0  0  0  0
   21.1358  -10.7423  -16.6835 N   0  0  0  0  0  0  0  0  0  0  0  0
   21.7206   -8.5305  -15.8670 C   0  0  0  0  0  0  0  0  0  0  0  0
   21.6207   -8.1572  -17.0559 O   0  0  0  0  0  0  0  0  0  0  0  0
   21.8420   -7.5618  -14.8440 N   0  0  0  0  0  0  0  0  0  0  0  0
   21.8884   -6.1203  -15.0858 C   0  0  1  0  0  0  0  0  0  0  0  0
   20.6329   -5.6350  -15.7248 C   0  0  0  0  0  0  0  0  0  0  0  0
   20.5361   -4.1838  -15.9039 C   0  0  0  0  0  0  0  0  0  0  0  0
   21.3307   -3.4795  -16.5565 O   0  0  0  0  0  0  0  0  0  0  0  0
   22.0074   -5.5103  -13.7277 C   0  0  0  0  0  0  0  0  0  0  0  0
   21.7519   -6.1639  -12.7023 O   0  0  0  0  0  0  0  0  0  0  0  0
   19.4687   -3.4957  -15.3019 O   0  0  0  0  0  0  0  0  0  0  0  0
   22.4072   -4.1881  -13.5316 O   0  0  0  0  0  0  0  0  0  0  0  0
  2  1  1  6
  2  4  1  0
  2  3  1  0
  4  5  2  0
  7  6  1  6
  7  9  1  0
  8  4  1  0
  8  7  1  0
  9 10  2  0
 11 12  1  0
 11  9  1  0
 12 16  1  0
 12 13  1  1
 14 15  2  0
 14 13  1  0
 16 17  2  0
 16 19  1  0
 18 14  1  0
M  END
$$$$
