AAD.pdb
     RDKit          3D

 19 18  0  0  1  0  0  0  0  0999 V2000
   18.7438  -13.0230  -16.2901 C   0  0  0  0  0  0  0  0  0  0  0  0
   19.3559  -11.7916  -16.8765 C   0  0  2  0  0  0  0  0  0  0  0  0
   20.1611  -12.1069  -18.0129 N   0  0  0  0  0  0  0  0  0  0  0  0
   20.0489  -10.9540  -15.8636 C   0  0  0  0  0  0  0  0  0  0  0  0
   19.3704  -10.5851  -14.8673 O   0  0  0  0  0  0  0  0  0  0  0  0
   23.5174   -9.7336  -15.0046 C   0  0  0  0  0  0  0  0  0  0  0  0
   21.9935   -9.6472  -14.9789 C   0  0  2  0  0  0  0  0  0  0  0  0
   21.3957  -10.5449  -15.9332 N   0  0  0  0  0  0  0  0  0  0  0  0
   21.6583   -8.2241  -15.2655 C   0  0  0  0  0  0  0  0  0  0  0  0
   21.4216   -7.9062  -16.4511 O   0  0  0  0  0  0  0  0  0  0  0  0
   21.5989   -7.2344  -14.2572 N   0  0  0  0  0  0  0  0  0  0  0  0
   21.2976   -5.8262  -14.5121 C   0  0  1  0  0  0  0  0  0  0  0  0
   19.8338   -5.5598  -14.4319 C   0  0  0  0  0  0  0  0  0  0  0  0
   19.4388   -4.1566  -14.5820 C   0  0  0  0  0  0  0  0  0  0  0  0
   20.1206   -3.2659  -15.1254 O   0  0  0  0  0  0  0  0  0  0  0  0
   21.9854   -5.0850  -13.4129 C   0  0  0  0  0  0  0  0  0  0  0  0
   22.2976   -5.6496  -12.3509 O   0  0  0  0  0  0  0  0  0  0  0  0
   18.1912   -3.7459  -14.0819 O   0  0  0  0  0  0  0  0  0  0  0  0
   22.3144   -3.7327  -13.5112 O   0  0  0  0  0  0  0  0  0  0  0  0
  2  1  1  1
  2  4  1  0
  2  3  1  0
  4  5  2  0
  7  6  1  6
  7  9  1  0
  8  4  1  0
  8  7  1  0
  9 10  2  0
 11 12  1  0
 11  9  1  0
 12 16  1  0
 12 13  1  1
 14 15  2  0
 14 13  1  0
 16 17  2  0
 16 19  1  0
 18 14  1  0
M  END
$$$$
