RSF.pdb
     RDKit          3D

 29 29  0  0  1  0  0  0  0  0999 V2000
   27.8655  -30.3407  -19.9875 N   0  0  0  0  0  0  0  0  0  0  0  0
   29.1682  -30.3406  -19.4442 C   0  0  0  0  0  0  0  0  0  0  0  0
   30.0994  -31.1283  -19.8376 N   0  0  0  0  0  0  0  0  0  0  0  0
   29.4444  -29.4041  -18.4085 N   0  0  0  0  0  0  0  0  0  0  0  0
   28.4180  -28.6050  -17.7862 C   0  0  0  0  0  0  0  0  0  0  0  0
   29.1283  -27.3282  -17.2969 C   0  0  0  0  0  0  0  0  0  0  0  0
   29.2013  -26.3117  -18.3879 C   0  0  0  0  0  0  0  0  0  0  0  0
   30.0570  -25.1294  -17.8694 C   0  0  2  0  0  0  0  0  0  0  0  0
   31.1480  -25.7043  -17.0731 N   0  0  0  0  0  0  0  0  0  0  0  0
   29.1022  -24.3962  -16.9388 C   0  0  0  0  0  0  0  0  0  0  0  0
   28.9978  -24.9172  -15.8194 O   0  0  0  0  0  0  0  0  0  0  0  0
   31.0412  -31.1645  -19.4302 O   0  0  0  0  0  0  0  0  0  0  0  0
   27.0119  -21.2445  -18.7977 C   0  0  0  0  0  0  0  0  0  0  0  0
   27.2896  -21.0793  -17.4622 C   0  0  1  0  0  0  0  0  0  0  0  0
   27.5692  -22.4178  -16.7315 N   0  0  0  0  0  0  0  0  0  0  0  0
   28.4658  -23.2585  -17.4210 C   0  0  0  0  0  0  0  0  0  0  0  0
   26.3111  -23.1010  -16.4602 O   0  0  0  0  0  0  0  0  0  0  0  0
   25.8996  -24.0117  -17.2655 N   0  0  0  0  0  0  0  0  0  0  0  0
   25.4379  -22.8798  -15.3661 C   0  0  1  0  0  0  0  0  0  0  0  0
   24.2181  -23.6245  -15.2316 C   0  0  0  0  0  0  0  0  0  0  0  0
   23.8592  -23.5703  -13.7309 C   0  0  0  0  0  0  0  0  0  0  0  0
   22.6001  -24.2530  -13.4224 C   0  0  0  0  0  0  0  0  0  0  0  0
   21.3692  -23.6131  -13.3110 C   0  0  0  0  0  0  0  0  0  0  0  0
   20.2336  -24.3291  -13.0262 C   0  0  0  0  0  0  0  0  0  0  0  0
   20.2796  -25.6873  -12.8418 C   0  0  0  0  0  0  0  0  0  0  0  0
   21.4654  -26.3634  -12.9390 C   0  0  0  0  0  0  0  0  0  0  0  0
   22.6038  -25.6143  -13.2307 C   0  0  0  0  0  0  0  0  0  0  0  0
   23.1024  -23.0478  -15.9859 O   0  0  0  0  0  0  0  0  0  0  0  0
   22.1518  -23.9627  -16.4724 O   0  0  0  0  0  0  0  0  0  0  0  0
  1  2  1  0
  2  4  1  0
  2  3  2  0
  4  5  1  0
  6  5  1  0
  7  6  1  0
  8  7  1  0
  8  9  1  1
 10  8  1  0
 11 10  2  0
 13 12  1  0
 14 13  1  1
 14 16  1  0
 14 15  1  0
 15 10  1  0
 16 18  1  0
 17 16  2  0
 18 19  1  0
 19 27  1  0
 20 21  1  0
 19 20  1  6
 21 26  2  0
 22 23  2  0
 22 21  1  0
 23 24  1  0
 24 25  2  0
 26 25  1  0
 27 29  2  0
 27 28  1  0
M  END
$$$$
