RSF.pdb
     RDKit          3D

 29 29  0  0  1  0  0  0  0  0999 V2000
   24.2031  -18.4583  -19.4008 N   0  0  0  0  0  0  0  0  0  0  0  0
   24.1849  -17.3320  -20.2512 C   0  0  0  0  0  0  0  0  0  0  0  0
   23.9059  -17.3924  -21.5005 N   0  0  0  0  0  0  0  0  0  0  0  0
   24.4903  -16.0691  -19.6699 N   0  0  0  0  0  0  0  0  0  0  0  0
   25.0068  -15.9321  -18.3305 C   0  0  0  0  0  0  0  0  0  0  0  0
   26.0623  -17.0445  -18.1790 C   0  0  0  0  0  0  0  0  0  0  0  0
   25.5749  -18.1153  -17.2600 C   0  0  0  0  0  0  0  0  0  0  0  0
   26.1680  -17.8338  -15.8572 C   0  0  2  0  0  0  0  0  0  0  0  0
   27.6218  -18.0077  -15.9616 N   0  0  0  0  0  0  0  0  0  0  0  0
   25.5972  -18.9616  -15.0101 C   0  0  0  0  0  0  0  0  0  0  0  0
   24.3586  -18.9916  -14.9881 O   0  0  0  0  0  0  0  0  0  0  0  0
   23.8804  -16.5821  -22.1306 O   0  0  0  0  0  0  0  0  0  0  0  0
   28.3777  -21.8754  -14.0833 C   0  0  0  0  0  0  0  0  0  0  0  0
   27.0507  -22.1775  -13.8941 C   0  0  1  0  0  0  0  0  0  0  0  0
   26.1863  -20.9322  -13.5690 N   0  0  0  0  0  0  0  0  0  0  0  0
   26.4899  -19.8123  -14.3689 C   0  0  0  0  0  0  0  0  0  0  0  0
   26.2998  -20.6123  -12.1520 O   0  0  0  0  0  0  0  0  0  0  0  0
   27.4445  -20.6873  -11.5765 N   0  0  0  0  0  0  0  0  0  0  0  0
   25.2570  -20.2076  -11.2818 C   0  0  1  0  0  0  0  0  0  0  0  0
   24.9428  -20.9639  -10.1028 C   0  0  0  0  0  0  0  0  0  0  0  0
   25.2255  -20.0202   -8.9139 C   0  0  0  0  0  0  0  0  0  0  0  0
   26.6269  -20.0474   -8.4871 C   0  0  0  0  0  0  0  0  0  0  0  0
   27.4630  -21.1526   -8.6150 C   0  0  0  0  0  0  0  0  0  0  0  0
   28.7684  -21.0923   -8.1959 C   0  0  0  0  0  0  0  0  0  0  0  0
   29.2824  -19.9487   -7.6400 C   0  0  0  0  0  0  0  0  0  0  0  0
   28.5010  -18.8352   -7.4905 C   0  0  0  0  0  0  0  0  0  0  0  0
   27.1797  -18.9211   -7.9253 C   0  0  0  0  0  0  0  0  0  0  0  0
   23.5371  -21.3709  -10.0345 O   0  0  0  0  0  0  0  0  0  0  0  0
   23.1794  -22.1604   -8.9272 O   0  0  0  0  0  0  0  0  0  0  0  0
  1  2  1  0
  2  4  1  0
  2  3  2  0
  4  5  1  0
  6  5  1  0
  7  6  1  0
  8  7  1  0
  8  9  1  6
 10  8  1  0
 11 10  2  0
 13 12  1  0
 14 13  1  6
 14 16  1  0
 14 15  1  0
 15 10  1  0
 16 18  1  0
 17 16  2  0
 18 19  1  0
 19 27  1  0
 20 21  1  0
 19 20  1  1
 21 26  2  0
 22 23  2  0
 22 21  1  0
 23 24  1  0
 24 25  2  0
 26 25  1  0
 27 29  2  0
 27 28  1  0
M  END
$$$$
