RSF.pdb
     RDKit          3D

 29 29  0  0  1  0  0  0  0  0999 V2000
   14.0517  -14.1321  -15.1507 N   0  0  0  0  0  0  0  0  0  0  0  0
   13.7206  -13.5114  -16.3744 C   0  0  0  0  0  0  0  0  0  0  0  0
   12.5164  -13.2946  -16.7554 N   0  0  0  0  0  0  0  0  0  0  0  0
   14.7963  -13.1068  -17.2142 N   0  0  0  0  0  0  0  0  0  0  0  0
   15.6230  -11.9614  -16.9243 C   0  0  0  0  0  0  0  0  0  0  0  0
   16.6170  -11.8618  -18.0975 C   0  0  0  0  0  0  0  0  0  0  0  0
   17.6267  -10.7911  -17.8467 C   0  0  0  0  0  0  0  0  0  0  0  0
   17.2459   -9.5737  -18.7252 C   0  0  2  0  0  0  0  0  0  0  0  0
   17.4448   -9.9730  -20.1237 N   0  0  0  0  0  0  0  0  0  0  0  0
   18.2988   -8.5396  -18.3544 C   0  0  0  0  0  0  0  0  0  0  0  0
   19.3509   -8.6448  -19.0005 O   0  0  0  0  0  0  0  0  0  0  0  0
   12.2564  -12.9111  -17.6717 O   0  0  0  0  0  0  0  0  0  0  0  0
   17.3887   -6.0665  -14.9674 C   0  0  0  0  0  0  0  0  0  0  0  0
   17.9726   -5.5011  -16.0752 C   0  0  1  0  0  0  0  0  0  0  0  0
   18.7637   -6.5231  -16.9314 N   0  0  0  0  0  0  0  0  0  0  0  0
   17.9862   -7.6161  -17.3639 C   0  0  0  0  0  0  0  0  0  0  0  0
   19.9396   -6.9724  -16.1973 O   0  0  0  0  0  0  0  0  0  0  0  0
   20.0179   -8.1953  -15.8160 N   0  0  0  0  0  0  0  0  0  0  0  0
   21.0663   -6.1947  -15.8313 C   0  0  1  0  0  0  0  0  0  0  0  0
   22.1870   -6.7882  -15.1586 C   0  0  0  0  0  0  0  0  0  0  0  0
   22.7770   -7.8112  -16.1533 C   0  0  0  0  0  0  0  0  0  0  0  0
   23.9982   -8.4493  -15.6551 C   0  0  0  0  0  0  0  0  0  0  0  0
   24.0236   -9.4216  -14.6597 C   0  0  0  0  0  0  0  0  0  0  0  0
   25.2122   -9.9754  -14.2551 C   0  0  0  0  0  0  0  0  0  0  0  0
   26.4023   -9.5869  -14.8152 C   0  0  0  0  0  0  0  0  0  0  0  0
   26.4316   -8.6334  -15.7964 C   0  0  0  0  0  0  0  0  0  0  0  0
   25.2115   -8.0876  -16.1910 C   0  0  0  0  0  0  0  0  0  0  0  0
   23.2375   -5.8235  -14.8237 O   0  0  0  0  0  0  0  0  0  0  0  0
   23.1501   -4.5738  -15.4624 O   0  0  0  0  0  0  0  0  0  0  0  0
  1  2  1  0
  2  4  1  0
  2  3  2  0
  4  5  1  0
  6  5  1  0
  7  6  1  0
  8  7  1  0
  8  9  1  6
 10  8  1  0
 11 10  2  0
 13 12  1  0
 14 13  1  6
 14 16  1  0
 14 15  1  0
 15 10  1  0
 16 18  1  0
 17 16  2  0
 18 19  1  0
 19 27  1  0
 20 21  1  0
 19 20  1  1
 21 26  2  0
 22 23  2  0
 22 21  1  0
 23 24  1  0
 24 25  2  0
 26 25  1  0
 27 29  2  0
 27 28  1  0
M  END
$$$$
