RSF.pdb
     RDKit          3D

 29 29  0  0  1  0  0  0  0  0999 V2000
   19.1689  -21.7644  -14.2923 N   0  0  0  0  0  0  0  0  0  0  0  0
   18.7217  -23.1002  -14.3794 C   0  0  0  0  0  0  0  0  0  0  0  0
   17.5294  -23.4272  -14.7168 N   0  0  0  0  0  0  0  0  0  0  0  0
   19.6620  -24.1254  -14.0776 N   0  0  0  0  0  0  0  0  0  0  0  0
   20.9880  -23.8460  -13.5845 C   0  0  0  0  0  0  0  0  0  0  0  0
   21.9491  -24.3238  -14.6901 C   0  0  0  0  0  0  0  0  0  0  0  0
   23.3704  -24.1488  -14.2682 C   0  0  0  0  0  0  0  0  0  0  0  0
   23.8400  -22.7608  -14.7702 C   0  0  2  0  0  0  0  0  0  0  0  0
   24.0507  -22.8755  -16.2184 N   0  0  0  0  0  0  0  0  0  0  0  0
   25.1895  -22.5874  -14.0889 C   0  0  0  0  0  0  0  0  0  0  0  0
   25.9975  -23.4914  -14.3447 O   0  0  0  0  0  0  0  0  0  0  0  0
   17.1765  -24.3911  -14.7447 O   0  0  0  0  0  0  0  0  0  0  0  0
   26.0324  -18.7343  -13.0868 C   0  0  0  0  0  0  0  0  0  0  0  0
   27.0445  -19.6624  -13.0398 C   0  0  1  0  0  0  0  0  0  0  0  0
   26.5543  -21.0728  -12.6225 N   0  0  0  0  0  0  0  0  0  0  0  0
   25.3725  -21.4742  -13.2772 C   0  0  0  0  0  0  0  0  0  0  0  0
   26.3983  -21.1298  -11.1748 O   0  0  0  0  0  0  0  0  0  0  0  0
   25.2229  -21.0724  -10.6627 N   0  0  0  0  0  0  0  0  0  0  0  0
   27.4287  -21.2469  -10.2090 C   0  0  2  0  0  0  0  0  0  0  0  0
   27.1682  -21.0083   -8.8176 C   0  0  0  0  0  0  0  0  0  0  0  0
   28.4969  -20.4886   -8.2274 C   0  0  0  0  0  0  0  0  0  0  0  0
   28.3791  -20.0963   -6.8205 C   0  0  0  0  0  0  0  0  0  0  0  0
   27.5052  -20.6878   -5.9133 C   0  0  0  0  0  0  0  0  0  0  0  0
   27.4625  -20.2652   -4.6083 C   0  0  0  0  0  0  0  0  0  0  0  0
   28.2734  -19.2521   -4.1644 C   0  0  0  0  0  0  0  0  0  0  0  0
   29.1490  -18.6367   -5.0173 C   0  0  0  0  0  0  0  0  0  0  0  0
   29.1747  -19.0850   -6.3366 C   0  0  0  0  0  0  0  0  0  0  0  0
   26.1407  -19.9895   -8.5882 O   0  0  0  0  0  0  0  0  0  0  0  0
   25.0884  -20.3604   -7.7323 O   0  0  0  0  0  0  0  0  0  0  0  0
  1  2  1  0
  2  4  1  0
  2  3  2  0
  4  5  1  0
  6  5  1  0
  7  6  1  0
  8  7  1  0
  8  9  1  6
 10  8  1  0
 11 10  2  0
 13 12  1  0
 14 13  1  6
 14 16  1  0
 14 15  1  0
 15 10  1  0
 16 18  1  0
 17 16  2  0
 18 19  1  0
 19 27  1  0
 20 21  1  0
 19 20  1  6
 21 26  2  0
 22 23  2  0
 22 21  1  0
 23 24  1  0
 24 25  2  0
 26 25  1  0
 27 29  2  0
 27 28  1  0
M  END
$$$$
