RSF.pdb
     RDKit          3D

 29 29  0  0  1  0  0  0  0  0999 V2000
   33.7083  -22.8814  -11.6757 N   0  0  0  0  0  0  0  0  0  0  0  0
   33.6599  -23.4605  -12.9620 C   0  0  0  0  0  0  0  0  0  0  0  0
   34.6524  -24.0623  -13.5053 N   0  0  0  0  0  0  0  0  0  0  0  0
   32.4322  -23.3653  -13.6760 N   0  0  0  0  0  0  0  0  0  0  0  0
   31.2444  -22.7764  -13.1087 C   0  0  0  0  0  0  0  0  0  0  0  0
   31.3849  -21.2594  -13.3393 C   0  0  0  0  0  0  0  0  0  0  0  0
   30.1768  -20.5346  -12.8455 C   0  0  0  0  0  0  0  0  0  0  0  0
   29.0908  -20.6314  -13.9455 C   0  0  2  0  0  0  0  0  0  0  0  0
   29.5106  -19.7524  -15.0436 N   0  0  0  0  0  0  0  0  0  0  0  0
   27.8660  -20.0284  -13.2734 C   0  0  0  0  0  0  0  0  0  0  0  0
   28.0101  -18.8422  -12.9454 O   0  0  0  0  0  0  0  0  0  0  0  0
   34.6471  -24.4517  -14.4554 O   0  0  0  0  0  0  0  0  0  0  0  0
   24.3220  -20.4592  -14.7547 C   0  0  0  0  0  0  0  0  0  0  0  0
   24.3071  -20.9735  -13.4806 C   0  0  2  0  0  0  0  0  0  0  0  0
   25.4840  -20.4657  -12.6086 N   0  0  0  0  0  0  0  0  0  0  0  0
   26.7508  -20.8395  -13.1004 C   0  0  0  0  0  0  0  0  0  0  0  0
   25.3025  -20.9096  -11.2326 O   0  0  0  0  0  0  0  0  0  0  0  0
   25.6820  -22.0877  -10.8930 N   0  0  0  0  0  0  0  0  0  0  0  0
   24.7327  -20.1716  -10.1654 C   0  0  1  0  0  0  0  0  0  0  0  0
   24.4449  -20.7965   -8.9055 C   0  0  0  0  0  0  0  0  0  0  0  0
   24.7969  -19.7470   -7.8291 C   0  0  0  0  0  0  0  0  0  0  0  0
   26.1769  -19.8638   -7.3509 C   0  0  0  0  0  0  0  0  0  0  0  0
   26.8204  -21.0728   -7.1039 C   0  0  0  0  0  0  0  0  0  0  0  0
   28.1200  -21.0946   -6.6637 C   0  0  0  0  0  0  0  0  0  0  0  0
   28.8168  -19.9322   -6.4534 C   0  0  0  0  0  0  0  0  0  0  0  0
   28.2289  -18.7173   -6.6799 C   0  0  0  0  0  0  0  0  0  0  0  0
   26.9093  -18.7219   -7.1281 C   0  0  0  0  0  0  0  0  0  0  0  0
   23.0330  -21.1535   -8.7462 O   0  0  0  0  0  0  0  0  0  0  0  0
   22.1905  -20.8223   -9.8223 O   0  0  0  0  0  0  0  0  0  0  0  0
  1  2  1  0
  2  4  1  0
  2  3  2  0
  4  5  1  0
  6  5  1  0
  7  6  1  0
  8  7  1  0
  8  9  1  6
 10  8  1  0
 11 10  2  0
 13 12  1  0
 14 13  1  6
 14 16  1  0
 14 15  1  0
 15 10  1  0
 16 18  1  0
 17 16  2  0
 18 19  1  0
 19 27  1  0
 20 21  1  0
 19 20  1  1
 21 26  2  0
 22 23  2  0
 22 21  1  0
 23 24  1  0
 24 25  2  0
 26 25  1  0
 27 29  2  0
 27 28  1  0
M  END
$$$$
