RSF.pdb
     RDKit          3D

 29 29  0  0  1  0  0  0  0  0999 V2000
   26.5181  -26.7918  -16.5601 N   0  0  0  0  0  0  0  0  0  0  0  0
   27.0342  -27.2412  -17.7945 C   0  0  0  0  0  0  0  0  0  0  0  0
   27.0282  -28.4697  -18.1593 N   0  0  0  0  0  0  0  0  0  0  0  0
   27.5816  -26.2613  -18.6699 N   0  0  0  0  0  0  0  0  0  0  0  0
   27.5181  -24.8473  -18.3939 C   0  0  0  0  0  0  0  0  0  0  0  0
   28.3926  -24.6307  -17.1439 C   0  0  0  0  0  0  0  0  0  0  0  0
   29.0229  -23.2776  -17.1666 C   0  0  0  0  0  0  0  0  0  0  0  0
   27.8945  -22.2326  -16.9837 C   0  0  2  0  0  0  0  0  0  0  0  0
   28.0498  -21.2395  -18.0535 N   0  0  0  0  0  0  0  0  0  0  0  0
   28.2421  -21.5808  -15.6533 C   0  0  0  0  0  0  0  0  0  0  0  0
   29.4472  -21.6360  -15.3703 O   0  0  0  0  0  0  0  0  0  0  0  0
   27.3865  -28.8110  -19.0591 O   0  0  0  0  0  0  0  0  0  0  0  0
   28.1908  -18.2411  -14.7471 C   0  0  0  0  0  0  0  0  0  0  0  0
   27.2088  -18.7411  -13.9264 C   0  0  2  0  0  0  0  0  0  0  0  0
   27.3143  -20.2740  -13.7198 N   0  0  0  0  0  0  0  0  0  0  0  0
   27.2105  -21.0114  -14.9163 C   0  0  0  0  0  0  0  0  0  0  0  0
   26.3199  -20.7077  -12.7470 O   0  0  0  0  0  0  0  0  0  0  0  0
   25.1336  -20.9977  -13.1419 N   0  0  0  0  0  0  0  0  0  0  0  0
   26.5015  -20.8594  -11.3498 C   0  0  1  0  0  0  0  0  0  0  0  0
   25.4075  -21.2318  -10.4983 C   0  0  0  0  0  0  0  0  0  0  0  0
   26.0510  -21.8486   -9.2376 C   0  0  0  0  0  0  0  0  0  0  0  0
   26.8749  -20.8920   -8.4939 C   0  0  0  0  0  0  0  0  0  0  0  0
   26.3638  -19.8746   -7.6936 C   0  0  0  0  0  0  0  0  0  0  0  0
   27.2066  -19.0239   -7.0232 C   0  0  0  0  0  0  0  0  0  0  0  0
   28.5685  -19.1500   -7.1242 C   0  0  0  0  0  0  0  0  0  0  0  0
   29.1211  -20.1329   -7.8996 C   0  0  0  0  0  0  0  0  0  0  0  0
   28.2445  -20.9848   -8.5688 C   0  0  0  0  0  0  0  0  0  0  0  0
   24.5880  -20.0925  -10.0781 O   0  0  0  0  0  0  0  0  0  0  0  0
   25.0967  -18.8202  -10.3943 O   0  0  0  0  0  0  0  0  0  0  0  0
  1  2  1  0
  2  4  1  0
  2  3  2  0
  4  5  1  0
  6  5  1  0
  7  6  1  0
  8  7  1  0
  8  9  1  6
 10  8  1  0
 11 10  2  0
 13 12  1  0
 14 13  1  6
 14 16  1  0
 14 15  1  0
 15 10  1  0
 16 18  1  0
 17 16  2  0
 18 19  1  0
 19 27  1  0
 20 21  1  0
 19 20  1  1
 21 26  2  0
 22 23  2  0
 22 21  1  0
 23 24  1  0
 24 25  2  0
 26 25  1  0
 27 29  2  0
 27 28  1  0
M  END
$$$$
