RSF.pdb
     RDKit          3D

 29 29  0  0  1  0  0  0  0  0999 V2000
   29.1300  -25.5428  -18.0373 N   0  0  0  0  0  0  0  0  0  0  0  0
   28.6465  -25.7497  -16.7275 C   0  0  0  0  0  0  0  0  0  0  0  0
   28.8353  -26.8308  -16.0656 N   0  0  0  0  0  0  0  0  0  0  0  0
   27.9170  -24.6867  -16.1244 N   0  0  0  0  0  0  0  0  0  0  0  0
   27.6441  -23.4447  -16.8044 C   0  0  0  0  0  0  0  0  0  0  0  0
   28.5672  -22.4015  -16.1456 C   0  0  0  0  0  0  0  0  0  0  0  0
   27.9376  -21.8401  -14.9138 C   0  0  0  0  0  0  0  0  0  0  0  0
   26.7490  -20.9524  -15.3587 C   0  0  2  0  0  0  0  0  0  0  0  0
   27.2684  -20.0029  -16.3504 N   0  0  0  0  0  0  0  0  0  0  0  0
   26.3933  -20.1926  -14.0892 C   0  0  0  0  0  0  0  0  0  0  0  0
   27.0460  -19.1511  -13.9316 O   0  0  0  0  0  0  0  0  0  0  0  0
   28.4643  -27.0091  -15.1249 O   0  0  0  0  0  0  0  0  0  0  0  0
   23.0382  -21.7614  -12.0306 C   0  0  0  0  0  0  0  0  0  0  0  0
   23.3683  -20.4349  -11.8916 C   0  0  1  0  0  0  0  0  0  0  0  0
   24.8828  -20.1642  -12.0831 N   0  0  0  0  0  0  0  0  0  0  0  0
   25.4095  -20.7245  -13.2642 C   0  0  0  0  0  0  0  0  0  0  0  0
   25.6157  -20.6243  -10.9108 O   0  0  0  0  0  0  0  0  0  0  0  0
   25.9917  -21.8494  -10.8408 N   0  0  0  0  0  0  0  0  0  0  0  0
   25.9871  -19.8554   -9.7798 C   0  0  1  0  0  0  0  0  0  0  0  0
   26.5518  -20.4777   -8.6160 C   0  0  0  0  0  0  0  0  0  0  0  0
   27.5345  -19.4437   -8.0251 C   0  0  0  0  0  0  0  0  0  0  0  0
   28.0552  -19.8389   -6.7139 C   0  0  0  0  0  0  0  0  0  0  0  0
   27.7037  -19.2264   -5.5147 C   0  0  0  0  0  0  0  0  0  0  0  0
   28.2326  -19.6637   -4.3262 C   0  0  0  0  0  0  0  0  0  0  0  0
   29.1195  -20.7091   -4.2871 C   0  0  0  0  0  0  0  0  0  0  0  0
   29.4987  -21.3440   -5.4386 C   0  0  0  0  0  0  0  0  0  0  0  0
   28.9464  -20.8825   -6.6320 C   0  0  0  0  0  0  0  0  0  0  0  0
   25.5561  -20.7952   -7.5894 O   0  0  0  0  0  0  0  0  0  0  0  0
   25.9005  -21.8267   -6.6978 O   0  0  0  0  0  0  0  0  0  0  0  0
  1  2  1  0
  2  4  1  0
  2  3  2  0
  4  5  1  0
  6  5  1  0
  7  6  1  0
  8  7  1  0
  8  9  1  6
 10  8  1  0
 11 10  2  0
 13 12  1  0
 14 13  1  6
 14 16  1  0
 14 15  1  0
 15 10  1  0
 16 18  1  0
 17 16  2  0
 18 19  1  0
 19 27  1  0
 20 21  1  0
 19 20  1  1
 21 26  2  0
 22 23  2  0
 22 21  1  0
 23 24  1  0
 24 25  2  0
 26 25  1  0
 27 29  2  0
 27 28  1  0
M  END
$$$$
