RSF.pdb
     RDKit          3D

 29 29  0  0  1  0  0  0  0  0999 V2000
   20.0060  -27.2671  -12.9603 N   0  0  0  0  0  0  0  0  0  0  0  0
   21.0916  -27.1570  -13.8555 C   0  0  0  0  0  0  0  0  0  0  0  0
   21.5323  -28.1344  -14.5576 N   0  0  0  0  0  0  0  0  0  0  0  0
   21.7138  -25.8824  -13.9751 N   0  0  0  0  0  0  0  0  0  0  0  0
   21.2554  -24.7207  -13.2540 C   0  0  0  0  0  0  0  0  0  0  0  0
   20.9003  -23.6787  -14.3321 C   0  0  0  0  0  0  0  0  0  0  0  0
   21.9187  -22.5877  -14.3700 C   0  0  0  0  0  0  0  0  0  0  0  0
   21.8743  -21.8586  -13.0042 C   0  0  2  0  0  0  0  0  0  0  0  0
   20.5391  -21.2620  -12.8779 N   0  0  0  0  0  0  0  0  0  0  0  0
   22.8966  -20.7447  -13.1759 C   0  0  0  0  0  0  0  0  0  0  0  0
   22.4217  -19.6988  -13.6407 O   0  0  0  0  0  0  0  0  0  0  0  0
   22.2589  -28.0517  -15.2784 O   0  0  0  0  0  0  0  0  0  0  0  0
   26.9691  -22.0260  -12.7548 C   0  0  0  0  0  0  0  0  0  0  0  0
   26.6404  -20.7398  -12.4004 C   0  0  1  0  0  0  0  0  0  0  0  0
   25.3533  -20.2293  -13.0979 N   0  0  0  0  0  0  0  0  0  0  0  0
   24.2118  -21.0037  -12.8088 C   0  0  0  0  0  0  0  0  0  0  0  0
   25.5768  -20.1387  -14.5349 O   0  0  0  0  0  0  0  0  0  0  0  0
   25.4880  -21.1963  -15.2566 N   0  0  0  0  0  0  0  0  0  0  0  0
   25.8953  -18.9747  -15.2778 C   0  0  2  0  0  0  0  0  0  0  0  0
   26.0738  -19.0319  -16.7010 C   0  0  0  0  0  0  0  0  0  0  0  0
   25.6866  -17.6328  -17.2269 C   0  0  0  0  0  0  0  0  0  0  0  0
   26.5315  -16.5668  -16.6822 C   0  0  0  0  0  0  0  0  0  0  0  0
   26.2946  -15.9210  -15.4724 C   0  0  0  0  0  0  0  0  0  0  0  0
   27.1412  -14.9358  -15.0297 C   0  0  0  0  0  0  0  0  0  0  0  0
   28.2370  -14.5601  -15.7639 C   0  0  0  0  0  0  0  0  0  0  0  0
   28.5131  -15.1630  -16.9610 C   0  0  0  0  0  0  0  0  0  0  0  0
   27.6395  -16.1615  -17.3878 C   0  0  0  0  0  0  0  0  0  0  0  0
   27.4579  -19.2993  -17.1000 O   0  0  0  0  0  0  0  0  0  0  0  0
   28.4023  -19.3301  -16.0585 O   0  0  0  0  0  0  0  0  0  0  0  0
  1  2  1  0
  2  4  1  0
  2  3  2  0
  4  5  1  0
  6  5  1  0
  7  6  1  0
  8  7  1  0
  8  9  1  6
 10  8  1  0
 11 10  2  0
 13 12  1  0
 14 13  1  1
 14 16  1  0
 14 15  1  0
 15 10  1  0
 16 18  1  0
 17 16  2  0
 18 19  1  0
 19 27  1  0
 20 21  1  0
 19 20  1  1
 21 26  2  0
 22 23  2  0
 22 21  1  0
 23 24  1  0
 24 25  2  0
 26 25  1  0
 27 29  2  0
 27 28  1  0
M  END
$$$$
