RSF.pdb
     RDKit          3D

 29 29  0  0  1  0  0  0  0  0999 V2000
   23.4157  -21.1992   -9.4388 N   0  0  0  0  0  0  0  0  0  0  0  0
   24.7386  -20.9082   -9.8357 C   0  0  0  0  0  0  0  0  0  0  0  0
   25.7592  -21.0842   -9.0809 N   0  0  0  0  0  0  0  0  0  0  0  0
   24.9292  -20.3977  -11.1507 N   0  0  0  0  0  0  0  0  0  0  0  0
   23.9816  -20.6145  -12.2158 C   0  0  0  0  0  0  0  0  0  0  0  0
   24.7913  -21.2391  -13.3684 C   0  0  0  0  0  0  0  0  0  0  0  0
   24.7531  -20.3640  -14.5774 C   0  0  0  0  0  0  0  0  0  0  0  0
   26.1760  -19.7878  -14.7832 C   0  0  2  0  0  0  0  0  0  0  0  0
   27.0546  -20.4542  -13.8143 N   0  0  0  0  0  0  0  0  0  0  0  0
   26.0174  -18.3288  -14.3813 C   0  0  0  0  0  0  0  0  0  0  0  0
   25.4538  -18.1705  -13.2892 O   0  0  0  0  0  0  0  0  0  0  0  0
   26.7030  -20.7373   -9.2888 O   0  0  0  0  0  0  0  0  0  0  0  0
   27.6887  -15.5562  -17.1412 C   0  0  0  0  0  0  0  0  0  0  0  0
   27.3959  -15.1315  -15.8677 C   0  0  1  0  0  0  0  0  0  0  0  0
   26.2774  -15.9664  -15.1928 N   0  0  0  0  0  0  0  0  0  0  0  0
   26.5018  -17.3567  -15.2484 C   0  0  0  0  0  0  0  0  0  0  0  0
   24.9870  -15.6186  -15.7736 O   0  0  0  0  0  0  0  0  0  0  0  0
   24.3502  -16.4906  -16.4673 N   0  0  0  0  0  0  0  0  0  0  0  0
   24.3084  -14.3792  -15.6661 C   0  0  1  0  0  0  0  0  0  0  0  0
   23.0512  -14.1653  -16.3250 C   0  0  0  0  0  0  0  0  0  0  0  0
   22.0298  -15.0437  -15.5707 C   0  0  0  0  0  0  0  0  0  0  0  0
   20.6728  -14.9296  -16.1115 C   0  0  0  0  0  0  0  0  0  0  0  0
   20.2205  -15.6057  -17.2408 C   0  0  0  0  0  0  0  0  0  0  0  0
   18.9291  -15.4487  -17.6776 C   0  0  0  0  0  0  0  0  0  0  0  0
   18.0533  -14.6239  -17.0191 C   0  0  0  0  0  0  0  0  0  0  0  0
   18.4494  -13.9354  -15.9047 C   0  0  0  0  0  0  0  0  0  0  0  0
   19.7648  -14.1130  -15.4802 C   0  0  0  0  0  0  0  0  0  0  0  0
   22.5918  -12.7758  -16.2572 O   0  0  0  0  0  0  0  0  0  0  0  0
   21.8100  -12.3337  -17.3392 O   0  0  0  0  0  0  0  0  0  0  0  0
  1  2  1  0
  2  4  1  0
  2  3  2  0
  4  5  1  0
  6  5  1  0
  7  6  1  0
  8  7  1  0
  8  9  1  1
 10  8  1  0
 11 10  2  0
 13 12  1  0
 14 13  1  1
 14 16  1  0
 14 15  1  0
 15 10  1  0
 16 18  1  0
 17 16  2  0
 18 19  1  0
 19 27  1  0
 20 21  1  0
 19 20  1  6
 21 26  2  0
 22 23  2  0
 22 21  1  0
 23 24  1  0
 24 25  2  0
 26 25  1  0
 27 29  2  0
 27 28  1  0
M  END
$$$$
