RSF.pdb
     RDKit          3D

 29 29  0  0  1  0  0  0  0  0999 V2000
   28.1814  -26.7263  -16.1901 N   0  0  0  0  0  0  0  0  0  0  0  0
   28.6014  -27.1763  -17.4602 C   0  0  0  0  0  0  0  0  0  0  0  0
   28.3572  -28.3505  -17.9119 N   0  0  0  0  0  0  0  0  0  0  0  0
   29.3295  -26.2600  -18.2704 N   0  0  0  0  0  0  0  0  0  0  0  0
   28.8594  -24.9265  -18.5538 C   0  0  0  0  0  0  0  0  0  0  0  0
   28.9665  -24.1590  -17.2220 C   0  0  0  0  0  0  0  0  0  0  0  0
   28.5181  -22.7447  -17.3883 C   0  0  0  0  0  0  0  0  0  0  0  0
   27.0561  -22.6551  -16.8850 C   0  0  2  0  0  0  0  0  0  0  0  0
   26.2567  -22.0960  -17.9819 N   0  0  0  0  0  0  0  0  0  0  0  0
   27.1405  -21.6285  -15.7649 C   0  0  0  0  0  0  0  0  0  0  0  0
   28.1021  -20.8540  -15.8694 O   0  0  0  0  0  0  0  0  0  0  0  0
   28.6652  -28.6969  -18.8281 O   0  0  0  0  0  0  0  0  0  0  0  0
   23.5494  -20.6097  -14.1186 C   0  0  0  0  0  0  0  0  0  0  0  0
   24.6871  -19.8603  -13.9401 C   0  0  1  0  0  0  0  0  0  0  0  0
   25.9578  -20.7260  -13.7416 N   0  0  0  0  0  0  0  0  0  0  0  0
   26.1671  -21.6629  -14.7735 C   0  0  0  0  0  0  0  0  0  0  0  0
   25.9080  -21.3798  -12.4403 O   0  0  0  0  0  0  0  0  0  0  0  0
   25.6490  -22.6350  -12.3728 N   0  0  0  0  0  0  0  0  0  0  0  0
   26.1198  -20.7792  -11.1744 C   0  0  1  0  0  0  0  0  0  0  0  0
   25.6271  -21.3924   -9.9736 C   0  0  0  0  0  0  0  0  0  0  0  0
   26.8765  -21.7073   -9.1227 C   0  0  0  0  0  0  0  0  0  0  0  0
   27.2985  -20.5764   -8.2922 C   0  0  0  0  0  0  0  0  0  0  0  0
   26.4398  -19.5883   -7.8199 C   0  0  0  0  0  0  0  0  0  0  0  0
   26.9157  -18.5647   -7.0394 C   0  0  0  0  0  0  0  0  0  0  0  0
   28.2439  -18.4855   -6.7068 C   0  0  0  0  0  0  0  0  0  0  0  0
   29.1296  -19.4311   -7.1474 C   0  0  0  0  0  0  0  0  0  0  0  0
   28.6216  -20.4611   -7.9368 C   0  0  0  0  0  0  0  0  0  0  0  0
   24.7553  -20.5129   -9.1909 O   0  0  0  0  0  0  0  0  0  0  0  0
   24.1548  -21.0923   -8.0590 O   0  0  0  0  0  0  0  0  0  0  0  0
  1  2  1  0
  2  4  1  0
  2  3  2  0
  4  5  1  0
  6  5  1  0
  7  6  1  0
  8  7  1  0
  8  9  1  6
 10  8  1  0
 11 10  2  0
 13 12  1  0
 14 13  1  6
 14 16  1  0
 14 15  1  0
 15 10  1  0
 16 18  1  0
 17 16  2  0
 18 19  1  0
 19 27  1  0
 20 21  1  0
 19 20  1  1
 21 26  2  0
 22 23  2  0
 22 21  1  0
 23 24  1  0
 24 25  2  0
 26 25  1  0
 27 29  2  0
 27 28  1  0
M  END
$$$$
