RSF.pdb
     RDKit          3D

 29 29  0  0  1  0  0  0  0  0999 V2000
   27.5852  -23.0730  -19.6318 N   0  0  0  0  0  0  0  0  0  0  0  0
   27.2605  -21.7353  -19.9435 C   0  0  0  0  0  0  0  0  0  0  0  0
   26.4522  -21.4028  -20.8808 N   0  0  0  0  0  0  0  0  0  0  0  0
   27.8695  -20.7151  -19.1597 N   0  0  0  0  0  0  0  0  0  0  0  0
   28.7076  -21.0022  -18.0219 C   0  0  0  0  0  0  0  0  0  0  0  0
   28.2483  -20.0330  -16.9155 C   0  0  0  0  0  0  0  0  0  0  0  0
   27.0770  -20.5900  -16.1763 C   0  0  0  0  0  0  0  0  0  0  0  0
   27.6234  -21.5338  -15.0764 C   0  0  2  0  0  0  0  0  0  0  0  0
   28.1445  -22.7275  -15.7534 N   0  0  0  0  0  0  0  0  0  0  0  0
   26.3725  -21.9159  -14.2988 C   0  0  0  0  0  0  0  0  0  0  0  0
   25.5939  -22.6427  -14.9320 O   0  0  0  0  0  0  0  0  0  0  0  0
   26.1579  -20.4396  -21.0806 O   0  0  0  0  0  0  0  0  0  0  0  0
   25.9714  -19.9817  -10.5304 C   0  0  0  0  0  0  0  0  0  0  0  0
   25.5090  -21.2707  -10.6418 C   0  0  1  0  0  0  0  0  0  0  0  0
   25.1791  -21.6719  -12.1026 N   0  0  0  0  0  0  0  0  0  0  0  0
   26.2340  -21.4280  -13.0048 C   0  0  0  0  0  0  0  0  0  0  0  0
   23.9565  -21.0048  -12.5306 O   0  0  0  0  0  0  0  0  0  0  0  0
   24.0300  -19.8667  -13.1193 N   0  0  0  0  0  0  0  0  0  0  0  0
   22.6283  -21.4735  -12.3741 C   0  0  1  0  0  0  0  0  0  0  0  0
   21.5095  -20.6784  -12.7946 C   0  0  0  0  0  0  0  0  0  0  0  0
   21.6757  -20.4971  -14.3189 C   0  0  0  0  0  0  0  0  0  0  0  0
   21.5986  -21.7624  -15.0537 C   0  0  0  0  0  0  0  0  0  0  0  0
   22.7057  -22.4712  -15.5107 C   0  0  0  0  0  0  0  0  0  0  0  0
   22.5463  -23.6553  -16.1858 C   0  0  0  0  0  0  0  0  0  0  0  0
   21.2986  -24.1696  -16.4302 C   0  0  0  0  0  0  0  0  0  0  0  0
   20.1779  -23.5103  -16.0032 C   0  0  0  0  0  0  0  0  0  0  0  0
   20.3662  -22.3112  -15.3186 C   0  0  0  0  0  0  0  0  0  0  0  0
   20.2173  -21.3250  -12.5530 O   0  0  0  0  0  0  0  0  0  0  0  0
   19.0811  -20.5864  -12.9286 O   0  0  0  0  0  0  0  0  0  0  0  0
  1  2  1  0
  2  4  1  0
  2  3  2  0
  4  5  1  0
  6  5  1  0
  7  6  1  0
  8  7  1  0
  8  9  1  6
 10  8  1  0
 11 10  2  0
 13 12  1  0
 14 13  1  1
 14 16  1  0
 14 15  1  0
 15 10  1  0
 16 18  1  0
 17 16  2  0
 18 19  1  0
 19 27  1  0
 20 21  1  0
 19 20  1  1
 21 26  2  0
 22 23  2  0
 22 21  1  0
 23 24  1  0
 24 25  2  0
 26 25  1  0
 27 29  2  0
 27 28  1  0
M  END
$$$$
