VLI.pdb
     RDKit          3D

 24 23  0  0  1  0  0  0  0  0999 V2000
   27.1506  -20.8905  -12.4832 C   0  0  0  0  0  0  0  0  0  0  0  0
   25.8796  -20.8544  -13.2626 C   0  0  2  0  0  0  0  0  0  0  0  0
   26.0365  -19.9612  -14.4838 C   0  0  0  0  0  0  0  0  0  0  0  0
   24.6908  -20.3795  -12.4876 C   0  0  2  0  0  0  0  0  0  0  0  0
   24.8583  -18.9921  -12.1439 N   0  0  0  0  0  0  0  0  0  0  0  0
   24.4176  -21.1523  -11.2722 C   0  0  0  0  0  0  0  0  0  0  0  0
   24.1703  -22.4019  -11.3266 O   0  0  0  0  0  0  0  0  0  0  0  0
   26.4319  -19.0252   -6.8944 C   0  0  0  0  0  0  0  0  0  0  0  0
   26.0873  -19.9443   -8.0605 C   0  0  1  0  0  0  0  0  0  0  0  0
   27.3293  -20.8059   -8.2879 C   0  0  0  0  0  0  0  0  0  0  0  0
   24.9461  -20.8155   -7.6305 C   0  0  0  0  0  0  0  0  0  0  0  0
   24.1407  -21.3537   -8.7751 C   0  0  2  0  0  0  0  0  0  0  0  0
   24.4066  -20.5835   -9.9661 N   0  0  0  0  0  0  0  0  0  0  0  0
   22.6960  -21.2723   -8.3841 C   0  0  0  0  0  0  0  0  0  0  0  0
   22.0777  -20.1773   -8.3854 O   0  0  0  0  0  0  0  0  0  0  0  0
   19.0963  -23.2379  -11.0757 C   0  0  0  0  0  0  0  0  0  0  0  0
   19.7175  -22.3436  -10.0078 C   0  0  0  0  0  0  0  0  0  0  0  0
   19.6661  -22.9791   -8.6699 C   0  0  2  0  0  0  0  0  0  0  0  0
   18.2327  -22.9056   -8.1314 C   0  0  0  0  0  0  0  0  0  0  0  0
   20.5559  -22.4030   -7.6249 C   0  0  2  0  0  0  0  0  0  0  0  0
   21.9564  -22.4204   -7.9949 N   0  0  0  0  0  0  0  0  0  0  0  0
   20.3288  -22.8985   -6.2515 C   0  0  0  0  0  0  0  0  0  0  0  0
   21.0533  -23.7392   -5.6784 O   0  0  0  0  0  0  0  0  0  0  0  0
   19.2418  -22.4318   -5.4861 O   0  0  0  0  0  0  0  0  0  0  0  0
  2  1  1  1
  2  3  1  0
  4  2  1  0
  4  5  1  1
  6  4  1  0
  6  7  2  0
  9 11  1  0
  9  8  1  1
 10  9  1  0
 12 11  1  1
 12 13  1  0
 13  6  1  0
 14 12  1  0
 15 14  2  0
 16 17  1  0
 17 18  1  0
 18 20  1  0
 18 19  1  1
 20 21  1  6
 20 22  1  0
 21 14  1  0
 22 24  1  0
 23 22  2  0
M  END
$$$$
