VLI.pdb
     RDKit          3D

 24 23  0  0  1  0  0  0  0  0999 V2000
   17.8037  -26.7023   -7.9800 C   0  0  0  0  0  0  0  0  0  0  0  0
   18.0205  -25.3701   -8.6144 C   0  0  2  0  0  0  0  0  0  0  0  0
   18.6146  -25.5399  -10.0044 C   0  0  0  0  0  0  0  0  0  0  0  0
   18.9091  -24.4507   -7.8370 C   0  0  2  0  0  0  0  0  0  0  0  0
   18.3065  -24.1552   -6.5639 N   0  0  0  0  0  0  0  0  0  0  0  0
   19.2283  -23.1973   -8.5269 C   0  0  0  0  0  0  0  0  0  0  0  0
   18.3458  -22.2923   -8.6928 O   0  0  0  0  0  0  0  0  0  0  0  0
   22.7015  -21.2809   -7.6298 C   0  0  0  0  0  0  0  0  0  0  0  0
   22.7774  -20.5800   -8.9812 C   0  0  1  0  0  0  0  0  0  0  0  0
   24.2638  -20.3270   -9.2321 C   0  0  0  0  0  0  0  0  0  0  0  0
   22.2499  -21.5282  -10.0150 C   0  0  0  0  0  0  0  0  0  0  0  0
   20.7729  -21.7649   -9.9109 C   0  0  2  0  0  0  0  0  0  0  0  0
   20.5175  -22.8976   -9.0540 N   0  0  0  0  0  0  0  0  0  0  0  0
   20.2582  -22.0035  -11.2983 C   0  0  0  0  0  0  0  0  0  0  0  0
   20.4000  -23.1159  -11.8673 O   0  0  0  0  0  0  0  0  0  0  0  0
   15.3564  -21.9733  -12.8810 C   0  0  0  0  0  0  0  0  0  0  0  0
   16.8630  -22.2014  -12.8152 C   0  0  0  0  0  0  0  0  0  0  0  0
   17.6079  -21.1048  -13.4779 C   0  0  2  0  0  0  0  0  0  0  0  0
   17.2484  -21.0795  -14.9679 C   0  0  0  0  0  0  0  0  0  0  0  0
   19.0926  -21.1591  -13.3871 C   0  0  2  0  0  0  0  0  0  0  0  0
   19.5883  -20.9920  -12.0362 N   0  0  0  0  0  0  0  0  0  0  0  0
   19.8212  -20.3225  -14.3631 C   0  0  0  0  0  0  0  0  0  0  0  0
   20.0834  -19.1129  -14.1952 O   0  0  0  0  0  0  0  0  0  0  0  0
   20.2760  -20.8647  -15.5814 O   0  0  0  0  0  0  0  0  0  0  0  0
  2  1  1  1
  2  3  1  0
  4  2  1  0
  4  5  1  1
  6  4  1  0
  6  7  2  0
  9 11  1  0
  9  8  1  1
 10  9  1  0
 12 11  1  6
 12 13  1  0
 13  6  1  0
 14 12  1  0
 15 14  2  0
 16 17  1  0
 17 18  1  0
 18 20  1  0
 18 19  1  6
 20 21  1  1
 20 22  1  0
 21 14  1  0
 22 24  1  0
 23 22  2  0
M  END
$$$$
