VLI.pdb
     RDKit          3D

 24 23  0  0  1  0  0  0  0  0999 V2000
   15.5451  -21.7869    3.9754 C   0  0  0  0  0  0  0  0  0  0  0  0
   14.7231  -20.8724    3.1313 C   0  0  2  0  0  0  0  0  0  0  0  0
   13.6825  -21.6658    2.3558 C   0  0  0  0  0  0  0  0  0  0  0  0
   15.5098  -20.0561    2.1546 C   0  0  2  0  0  0  0  0  0  0  0  0
   16.0363  -20.9094    1.1223 N   0  0  0  0  0  0  0  0  0  0  0  0
   16.6040  -19.2884    2.7565 C   0  0  0  0  0  0  0  0  0  0  0  0
   17.8115  -19.6907    2.6813 O   0  0  0  0  0  0  0  0  0  0  0  0
   16.9783  -13.7171    3.1406 C   0  0  0  0  0  0  0  0  0  0  0  0
   17.4030  -15.1657    2.9291 C   0  0  1  0  0  0  0  0  0  0  0  0
   18.9040  -15.1183    2.6440 C   0  0  0  0  0  0  0  0  0  0  0  0
   17.1605  -15.9020    4.2116 C   0  0  0  0  0  0  0  0  0  0  0  0
   17.4792  -17.3650    4.1304 C   0  0  2  0  0  0  0  0  0  0  0  0
   16.4109  -18.0624    3.4561 N   0  0  0  0  0  0  0  0  0  0  0  0
   17.6563  -17.8638    5.5328 C   0  0  0  0  0  0  0  0  0  0  0  0
   16.7025  -18.3785    6.1704 O   0  0  0  0  0  0  0  0  0  0  0  0
   21.0129  -21.2062    9.0583 C   0  0  0  0  0  0  0  0  0  0  0  0
   20.2180  -19.9046    9.0765 C   0  0  0  0  0  0  0  0  0  0  0  0
   20.0022  -19.3807    7.7070 C   0  0  2  0  0  0  0  0  0  0  0  0
   21.3548  -19.0013    7.0932 C   0  0  0  0  0  0  0  0  0  0  0  0
   19.1160  -18.1914    7.5814 C   0  0  2  0  0  0  0  0  0  0  0  0
   18.9025  -17.7811    6.2086 N   0  0  0  0  0  0  0  0  0  0  0  0
   19.4470  -17.0546    8.4653 C   0  0  0  0  0  0  0  0  0  0  0  0
   20.0401  -16.0214    8.0899 O   0  0  0  0  0  0  0  0  0  0  0  0
   19.0985  -17.0760    9.8304 O   0  0  0  0  0  0  0  0  0  0  0  0
  2  1  1  6
  2  3  1  0
  4  2  1  0
  4  5  1  6
  6  4  1  0
  6  7  2  0
  9 11  1  0
  9  8  1  1
 10  9  1  0
 12 11  1  1
 12 13  1  0
 13  6  1  0
 14 12  1  0
 15 14  2  0
 16 17  1  0
 17 18  1  0
 18 20  1  0
 18 19  1  1
 20 21  1  6
 20 22  1  0
 21 14  1  0
 22 24  1  0
 23 22  2  0
M  END
$$$$
