VLI.pdb
     RDKit          3D

 24 23  0  0  1  0  0  0  0  0999 V2000
   28.7244  -19.4267  -13.8898 C   0  0  0  0  0  0  0  0  0  0  0  0
   28.0261  -19.1888  -15.1859 C   0  0  2  0  0  0  0  0  0  0  0  0
   28.6639  -18.0191  -15.9201 C   0  0  0  0  0  0  0  0  0  0  0  0
   26.5603  -18.9159  -15.0591 C   0  0  2  0  0  0  0  0  0  0  0  0
   26.3573  -17.6453  -14.4145 N   0  0  0  0  0  0  0  0  0  0  0  0
   25.8161  -19.9522  -14.3371 C   0  0  0  0  0  0  0  0  0  0  0  0
   25.6529  -21.1147  -14.8344 O   0  0  0  0  0  0  0  0  0  0  0  0
   25.9395  -20.3177   -8.9221 C   0  0  0  0  0  0  0  0  0  0  0  0
   25.9665  -20.5132  -10.4335 C   0  0  1  0  0  0  0  0  0  0  0  0
   26.6601  -21.8558  -10.6636 C   0  0  0  0  0  0  0  0  0  0  0  0
   24.5469  -20.5960  -10.9064 C   0  0  0  0  0  0  0  0  0  0  0  0
   24.4197  -20.7425  -12.3933 C   0  0  2  0  0  0  0  0  0  0  0  0
   25.2303  -19.7484  -13.0544 N   0  0  0  0  0  0  0  0  0  0  0  0
   22.9698  -20.5807  -12.7373 C   0  0  0  0  0  0  0  0  0  0  0  0
   22.4076  -19.4566  -12.6939 O   0  0  0  0  0  0  0  0  0  0  0  0
   20.9150  -22.1678  -17.2661 C   0  0  0  0  0  0  0  0  0  0  0  0
   21.1139  -21.4091  -15.9580 C   0  0  0  0  0  0  0  0  0  0  0  0
   20.4424  -22.0916  -14.8267 C   0  0  2  0  0  0  0  0  0  0  0  0
   18.9233  -21.9903  -15.0065 C   0  0  0  0  0  0  0  0  0  0  0  0
   20.7562  -21.5847  -13.4629 C   0  0  2  0  0  0  0  0  0  0  0  0
   22.1621  -21.6816  -13.1274 N   0  0  0  0  0  0  0  0  0  0  0  0
   19.8822  -22.0844  -12.3813 C   0  0  0  0  0  0  0  0  0  0  0  0
   20.1027  -23.1219  -11.7216 O   0  0  0  0  0  0  0  0  0  0  0  0
   18.7090  -21.3914  -12.0228 O   0  0  0  0  0  0  0  0  0  0  0  0
  2  1  1  1
  2  3  1  0
  4  2  1  0
  4  5  1  1
  6  4  1  0
  6  7  2  0
  9 11  1  0
  9  8  1  1
 10  9  1  0
 12 11  1  1
 12 13  1  0
 13  6  1  0
 14 12  1  0
 15 14  2  0
 16 17  1  0
 17 18  1  0
 18 20  1  0
 18 19  1  6
 20 21  1  1
 20 22  1  0
 21 14  1  0
 22 24  1  0
 23 22  2  0
M  END
$$$$
