VLI.pdb
     RDKit          3D

 24 23  0  0  1  0  0  0  0  0999 V2000
   23.9197  -19.6011  -19.2130 C   0  0  0  0  0  0  0  0  0  0  0  0
   22.8130  -20.2385  -18.4427 C   0  0  2  0  0  0  0  0  0  0  0  0
   21.4666  -19.8311  -19.0215 C   0  0  0  0  0  0  0  0  0  0  0  0
   22.8090  -19.9156  -16.9815 C   0  0  2  0  0  0  0  0  0  0  0  0
   22.4946  -18.5239  -16.7930 N   0  0  0  0  0  0  0  0  0  0  0  0
   24.0650  -20.2282  -16.2933 C   0  0  0  0  0  0  0  0  0  0  0  0
   24.4664  -21.4317  -16.1673 O   0  0  0  0  0  0  0  0  0  0  0  0
   28.7582  -17.8020  -17.1166 C   0  0  0  0  0  0  0  0  0  0  0  0
   27.6751  -18.8342  -16.8251 C   0  0  1  0  0  0  0  0  0  0  0  0
   28.3566  -20.1960  -16.9570 C   0  0  0  0  0  0  0  0  0  0  0  0
   27.2264  -18.6344  -15.4092 C   0  0  0  0  0  0  0  0  0  0  0  0
   26.1202  -19.5588  -14.9966 C   0  0  2  0  0  0  0  0  0  0  0  0
   24.9162  -19.2374  -15.7244 N   0  0  0  0  0  0  0  0  0  0  0  0
   25.9252  -19.3935  -13.5197 C   0  0  0  0  0  0  0  0  0  0  0  0
   25.7136  -18.2640  -13.0091 O   0  0  0  0  0  0  0  0  0  0  0  0
   21.9239  -19.2507  -10.1074 C   0  0  0  0  0  0  0  0  0  0  0  0
   23.3521  -19.7697   -9.9768 C   0  0  0  0  0  0  0  0  0  0  0  0
   23.9580  -20.0328  -11.3036 C   0  0  2  0  0  0  0  0  0  0  0  0
   23.1256  -21.0906  -12.0372 C   0  0  0  0  0  0  0  0  0  0  0  0
   25.3692  -20.5059  -11.3087 C   0  0  2  0  0  0  0  0  0  0  0  0
   25.9693  -20.4972  -12.6272 N   0  0  0  0  0  0  0  0  0  0  0  0
   25.6203  -21.7681  -10.5827 C   0  0  0  0  0  0  0  0  0  0  0  0
   25.3648  -21.9465   -9.3732 O   0  0  0  0  0  0  0  0  0  0  0  0
   26.1827  -22.8799  -11.2406 O   0  0  0  0  0  0  0  0  0  0  0  0
  2  1  1  6
  2  3  1  0
  4  2  1  0
  4  5  1  6
  6  4  1  0
  6  7  2  0
  9 11  1  0
  9  8  1  1
 10  9  1  0
 12 11  1  6
 12 13  1  0
 13  6  1  0
 14 12  1  0
 15 14  2  0
 16 17  1  0
 17 18  1  0
 18 20  1  0
 18 19  1  1
 20 21  1  6
 20 22  1  0
 21 14  1  0
 22 24  1  0
 23 22  2  0
M  END
$$$$
