HMF.pdb
     RDKit          3D

 30 31  0  0  1  0  0  0  0  0999 V2000
    9.7430  -17.7053   19.5622 N   0  0  0  0  0  0  0  0  0  0  0  0
    9.1191  -16.3990   19.4233 C   0  0  1  0  0  0  0  0  0  0  0  0
    7.8036  -16.4878   18.7191 C   0  0  0  0  0  0  0  0  0  0  0  0
    7.8820  -16.6674   17.2557 C   0  0  0  0  0  0  0  0  0  0  0  0
    8.8084  -16.0495   16.4634 C   0  0  0  0  0  0  0  0  0  0  0  0
    8.5809  -16.4352   15.1970 N   0  0  0  0  0  0  0  0  0  0  0  0
    7.5427  -17.2649   15.2134 C   0  0  0  0  0  0  0  0  0  0  0  0
    7.1113  -17.4141   16.4658 N   0  0  0  0  0  0  0  0  0  0  0  0
    9.1078  -15.6571   20.6939 C   0  0  0  0  0  0  0  0  0  0  0  0
    8.8448  -14.4289   20.6581 O   0  0  0  0  0  0  0  0  0  0  0  0
    7.1085  -12.1940   26.2635 C   0  0  0  0  0  0  0  0  0  0  0  0
    7.6994  -12.9574   24.7162 S   0  0  0  0  0  0  0  0  0  0  0  0
    7.0478  -14.6720   24.5797 C   0  0  0  0  0  0  0  0  0  0  0  0
    7.4718  -15.2894   23.2781 C   0  0  0  0  0  0  0  0  0  0  0  0
    8.9024  -15.6645   23.2035 C   0  0  2  0  0  0  0  0  0  0  0  0
    9.3714  -16.2376   21.9617 N   0  0  0  0  0  0  0  0  0  0  0  0
    9.3208  -16.4242   24.3701 C   0  0  0  0  0  0  0  0  0  0  0  0
    8.5342  -17.2000   24.9393 O   0  0  0  0  0  0  0  0  0  0  0  0
   10.6304  -16.3359   24.9464 N   0  0  0  0  0  0  0  0  0  0  0  0
   10.9888  -17.1205   26.0757 C   0  0  1  0  0  0  0  0  0  0  0  0
   10.2348  -16.8469   27.3146 C   0  0  0  0  0  0  0  0  0  0  0  0
   10.2511  -15.4428   27.7839 C   0  0  0  0  0  0  0  0  0  0  0  0
    9.1666  -14.9997   28.5549 C   0  0  0  0  0  0  0  0  0  0  0  0
    9.0919  -13.7028   29.0395 C   0  0  0  0  0  0  0  0  0  0  0  0
   10.1009  -12.8071   28.7630 C   0  0  0  0  0  0  0  0  0  0  0  0
   11.1696  -13.2217   28.0096 C   0  0  0  0  0  0  0  0  0  0  0  0
   11.2367  -14.5178   27.5326 C   0  0  0  0  0  0  0  0  0  0  0  0
   10.7263  -18.6008   25.7965 C   0  0  0  0  0  0  0  0  0  0  0  0
   11.2000  -19.5633   26.6309 O   0  0  0  0  0  0  0  0  0  0  0  0
   10.0651  -18.8468   24.7840 O   0  0  0  0  0  0  0  0  0  0  0  0
  2  1  1  1
  2  9  1  0
  3  2  1  0
  3  4  1  0
  4  5  2  0
  4  8  1  0
  5  6  1  0
  6  7  1  0
  8  7  2  0
  9 10  2  0
 11 12  1  0
 13 12  1  0
 13 14  1  0
 15 14  1  6
 15 17  1  0
 16  9  1  0
 16 15  1  0
 17 18  2  0
 19 20  1  0
 19 17  1  0
 20 21  1  1
 21 22  1  0
 22 23  2  0
 23 24  1  0
 25 24  2  0
 26 25  1  0
 27 26  2  0
 27 22  1  0
 28 20  1  0
 28 29  1  0
 30 28  2  0
M  END
$$$$
