HMF.pdb
     RDKit          3D

 30 31  0  0  1  0  0  0  0  0999 V2000
    8.5293  -17.0848   19.0283 N   0  0  0  0  0  0  0  0  0  0  0  0
    8.9491  -16.1287   20.0406 C   0  0  1  0  0  0  0  0  0  0  0  0
    8.0616  -14.9260   20.0654 C   0  0  0  0  0  0  0  0  0  0  0  0
    7.9606  -14.1898   18.7896 C   0  0  0  0  0  0  0  0  0  0  0  0
    8.5747  -12.9918   18.5535 C   0  0  0  0  0  0  0  0  0  0  0  0
    8.2617  -12.6152   17.3027 N   0  0  0  0  0  0  0  0  0  0  0  0
    7.4764  -13.5558   16.7879 C   0  0  0  0  0  0  0  0  0  0  0  0
    7.2892  -14.5214   17.6875 N   0  0  0  0  0  0  0  0  0  0  0  0
    9.1788  -16.7724   21.3435 C   0  0  0  0  0  0  0  0  0  0  0  0
    8.2138  -17.3662   21.8869 O   0  0  0  0  0  0  0  0  0  0  0  0
   14.7584  -19.2730   23.4003 C   0  0  0  0  0  0  0  0  0  0  0  0
   13.8906  -19.3416   25.0029 S   0  0  0  0  0  0  0  0  0  0  0  0
   12.1474  -18.7945   24.7906 C   0  0  0  0  0  0  0  0  0  0  0  0
   11.9979  -18.0103   23.5185 C   0  0  0  0  0  0  0  0  0  0  0  0
   10.6377  -17.4804   23.2698 C   0  0  2  0  0  0  0  0  0  0  0  0
   10.4215  -16.7710   22.0286 N   0  0  0  0  0  0  0  0  0  0  0  0
   10.1182  -16.7681   24.4257 C   0  0  0  0  0  0  0  0  0  0  0  0
   10.3909  -15.5695   24.6092 O   0  0  0  0  0  0  0  0  0  0  0  0
    9.2834  -17.3735   25.4213 N   0  0  0  0  0  0  0  0  0  0  0  0
    8.8234  -16.6313   26.5424 C   0  0  1  0  0  0  0  0  0  0  0  0
    7.4184  -16.1830   26.4846 C   0  0  0  0  0  0  0  0  0  0  0  0
    7.2110  -14.7229   26.3546 C   0  0  0  0  0  0  0  0  0  0  0  0
    6.8681  -14.0068   27.5107 C   0  0  0  0  0  0  0  0  0  0  0  0
    6.6537  -12.6372   27.4892 C   0  0  0  0  0  0  0  0  0  0  0  0
    6.7723  -11.9420   26.3061 C   0  0  0  0  0  0  0  0  0  0  0  0
    7.1060  -12.6252   25.1645 C   0  0  0  0  0  0  0  0  0  0  0  0
    7.3205  -13.9908   25.1960 C   0  0  0  0  0  0  0  0  0  0  0  0
    8.8920  -17.4868   27.8079 C   0  0  0  0  0  0  0  0  0  0  0  0
    8.7985  -16.9202   29.0396 O   0  0  0  0  0  0  0  0  0  0  0  0
    9.0309  -18.6999   27.6285 O   0  0  0  0  0  0  0  0  0  0  0  0
  2  1  1  6
  2  9  1  0
  3  2  1  0
  3  4  1  0
  4  5  2  0
  4  8  1  0
  5  6  1  0
  6  7  1  0
  8  7  2  0
  9 10  2  0
 11 12  1  0
 13 12  1  0
 13 14  1  0
 15 14  1  1
 15 17  1  0
 16  9  1  0
 16 15  1  0
 17 18  2  0
 19 20  1  0
 19 17  1  0
 20 21  1  6
 21 22  1  0
 22 23  2  0
 23 24  1  0
 25 24  2  0
 26 25  1  0
 27 26  2  0
 27 22  1  0
 28 20  1  0
 28 29  1  0
 30 28  2  0
M  END
$$$$
