HMF.pdb
     RDKit          3D

 30 31  0  0  1  0  0  0  0  0999 V2000
    8.9606  -16.3063   18.7294 N   0  0  0  0  0  0  0  0  0  0  0  0
    9.0730  -17.2474   19.8324 C   0  0  1  0  0  0  0  0  0  0  0  0
    9.9410  -18.4117   19.4780 C   0  0  0  0  0  0  0  0  0  0  0  0
    9.5507  -19.1406   18.2548 C   0  0  0  0  0  0  0  0  0  0  0  0
    8.6290  -20.1496   18.2336 C   0  0  0  0  0  0  0  0  0  0  0  0
    8.5303  -20.5821   16.9658 N   0  0  0  0  0  0  0  0  0  0  0  0
    9.3695  -19.8591   16.2314 C   0  0  0  0  0  0  0  0  0  0  0  0
    9.9947  -18.9756   17.0095 N   0  0  0  0  0  0  0  0  0  0  0  0
    9.4032  -16.5741   21.0983 C   0  0  0  0  0  0  0  0  0  0  0  0
   10.6044  -16.5669   21.4673 O   0  0  0  0  0  0  0  0  0  0  0  0
    5.6327  -13.3367   26.4008 C   0  0  0  0  0  0  0  0  0  0  0  0
    6.9932  -12.4487   25.5722 S   0  0  0  0  0  0  0  0  0  0  0  0
    8.2689  -13.6490   25.0108 C   0  0  0  0  0  0  0  0  0  0  0  0
    7.8566  -14.2793   23.7115 C   0  0  0  0  0  0  0  0  0  0  0  0
    8.8099  -15.2761   23.1728 C   0  0  2  0  0  0  0  0  0  0  0  0
    8.4542  -15.9273   21.9318 N   0  0  0  0  0  0  0  0  0  0  0  0
    9.2464  -16.2112   24.1967 C   0  0  0  0  0  0  0  0  0  0  0  0
    8.5837  -17.2316   24.4499 O   0  0  0  0  0  0  0  0  0  0  0  0
   10.4340  -16.0331   24.9793 N   0  0  0  0  0  0  0  0  0  0  0  0
   10.8978  -17.0552   25.8508 C   0  0  1  0  0  0  0  0  0  0  0  0
   11.8347  -16.6243   26.9067 C   0  0  0  0  0  0  0  0  0  0  0  0
   11.3294  -15.5871   27.8345 C   0  0  0  0  0  0  0  0  0  0  0  0
   11.1083  -14.3018   27.3188 C   0  0  0  0  0  0  0  0  0  0  0  0
   10.6366  -13.2649   28.1091 C   0  0  0  0  0  0  0  0  0  0  0  0
   10.3755  -13.4827   29.4438 C   0  0  0  0  0  0  0  0  0  0  0  0
   10.5865  -14.7331   29.9668 C   0  0  0  0  0  0  0  0  0  0  0  0
   11.0547  -15.7618   29.1703 C   0  0  0  0  0  0  0  0  0  0  0  0
    9.7258  -17.6691   26.6174 C   0  0  0  0  0  0  0  0  0  0  0  0
    9.8906  -18.7954   27.3599 O   0  0  0  0  0  0  0  0  0  0  0  0
    8.6485  -17.0759   26.5156 O   0  0  0  0  0  0  0  0  0  0  0  0
  2  1  1  6
  2  9  1  0
  3  2  1  0
  3  4  1  0
  4  5  2  0
  4  8  1  0
  5  6  1  0
  6  7  1  0
  8  7  2  0
  9 10  2  0
 11 12  1  0
 13 12  1  0
 13 14  1  0
 15 14  1  1
 15 17  1  0
 16  9  1  0
 16 15  1  0
 17 18  2  0
 19 20  1  0
 19 17  1  0
 20 21  1  1
 21 22  1  0
 22 23  2  0
 23 24  1  0
 25 24  2  0
 26 25  1  0
 27 26  2  0
 27 22  1  0
 28 20  1  0
 28 29  1  0
 30 28  2  0
M  END
$$$$
