HMF.pdb
     RDKit          3D

 30 31  0  0  1  0  0  0  0  0999 V2000
    9.4027  -16.6184   18.9333 N   0  0  0  0  0  0  0  0  0  0  0  0
    8.6500  -16.9774   20.1247 C   0  0  1  0  0  0  0  0  0  0  0  0
    8.4588  -18.4562   20.2318 C   0  0  0  0  0  0  0  0  0  0  0  0
    7.9207  -19.1121   19.0235 C   0  0  0  0  0  0  0  0  0  0  0  0
    7.0189  -18.5270   18.1796 C   0  0  0  0  0  0  0  0  0  0  0  0
    6.7496  -19.4065   17.2007 N   0  0  0  0  0  0  0  0  0  0  0  0
    7.4655  -20.5005   17.4396 C   0  0  0  0  0  0  0  0  0  0  0  0
    8.1848  -20.3288   18.5487 N   0  0  0  0  0  0  0  0  0  0  0  0
    9.1799  -16.3191   21.3291 C   0  0  0  0  0  0  0  0  0  0  0  0
   10.4190  -16.1210   21.3969 O   0  0  0  0  0  0  0  0  0  0  0  0
    7.2753  -11.7345   26.3034 C   0  0  0  0  0  0  0  0  0  0  0  0
    6.3016  -12.4486   24.9366 S   0  0  0  0  0  0  0  0  0  0  0  0
    7.4149  -13.3545   23.7865 C   0  0  0  0  0  0  0  0  0  0  0  0
    8.0500  -14.5218   24.4861 C   0  0  0  0  0  0  0  0  0  0  0  0
    8.9430  -15.3450   23.6390 C   0  0  2  0  0  0  0  0  0  0  0  0
    8.3832  -15.8882   22.4215 N   0  0  0  0  0  0  0  0  0  0  0  0
    9.6633  -16.3363   24.4211 C   0  0  0  0  0  0  0  0  0  0  0  0
    9.1815  -17.4652   24.6157 O   0  0  0  0  0  0  0  0  0  0  0  0
   10.9432  -16.0966   25.0206 N   0  0  0  0  0  0  0  0  0  0  0  0
   11.4642  -16.9723   26.0112 C   0  0  1  0  0  0  0  0  0  0  0  0
   10.6538  -17.1124   27.2367 C   0  0  0  0  0  0  0  0  0  0  0  0
   10.2397  -15.8476   27.8853 C   0  0  0  0  0  0  0  0  0  0  0  0
    8.8904  -15.4769   27.7909 C   0  0  0  0  0  0  0  0  0  0  0  0
    8.4076  -14.3110   28.3653 C   0  0  0  0  0  0  0  0  0  0  0  0
    9.2637  -13.4769   29.0497 C   0  0  0  0  0  0  0  0  0  0  0  0
   10.5873  -13.8221   29.1520 C   0  0  0  0  0  0  0  0  0  0  0  0
   11.0593  -14.9881   28.5780 C   0  0  0  0  0  0  0  0  0  0  0  0
   11.5610  -18.3957   25.4611 C   0  0  0  0  0  0  0  0  0  0  0  0
   12.2050  -19.3703   26.1558 O   0  0  0  0  0  0  0  0  0  0  0  0
   11.0198  -18.5867   24.3686 O   0  0  0  0  0  0  0  0  0  0  0  0
  2  1  1  6
  2  9  1  0
  3  2  1  0
  3  4  1  0
  4  5  2  0
  4  8  1  0
  5  6  1  0
  6  7  1  0
  8  7  2  0
  9 10  2  0
 11 12  1  0
 13 12  1  0
 13 14  1  0
 15 14  1  1
 15 17  1  0
 16  9  1  0
 16 15  1  0
 17 18  2  0
 19 20  1  0
 19 17  1  0
 20 21  1  1
 21 22  1  0
 22 23  2  0
 23 24  1  0
 25 24  2  0
 26 25  1  0
 27 26  2  0
 27 22  1  0
 28 20  1  0
 28 29  1  0
 30 28  2  0
M  END
$$$$
