HMF.pdb
     RDKit          3D

 30 31  0  0  1  0  0  0  0  0999 V2000
   10.0254  -18.4912   18.3059 N   0  0  0  0  0  0  0  0  0  0  0  0
    9.5300  -18.6359   19.6655 C   0  0  1  0  0  0  0  0  0  0  0  0
   10.0481  -19.8801   20.3120 C   0  0  0  0  0  0  0  0  0  0  0  0
    9.6304  -21.1441   19.6735 C   0  0  0  0  0  0  0  0  0  0  0  0
    8.5478  -21.2557   18.8468 C   0  0  0  0  0  0  0  0  0  0  0  0
    8.4648  -22.5388   18.4582 N   0  0  0  0  0  0  0  0  0  0  0  0
    9.4678  -23.1950   19.0326 C   0  0  0  0  0  0  0  0  0  0  0  0
   10.1855  -22.3512   19.7741 N   0  0  0  0  0  0  0  0  0  0  0  0
    9.6976  -17.4002   20.4463 C   0  0  0  0  0  0  0  0  0  0  0  0
   10.7656  -16.7532   20.3056 O   0  0  0  0  0  0  0  0  0  0  0  0
    7.8304  -11.3291   20.6476 C   0  0  0  0  0  0  0  0  0  0  0  0
    7.0265  -12.7977   19.9243 S   0  0  0  0  0  0  0  0  0  0  0  0
    8.0381  -14.2944   20.2695 C   0  0  0  0  0  0  0  0  0  0  0  0
    8.2146  -14.4750   21.7500 C   0  0  0  0  0  0  0  0  0  0  0  0
    8.9477  -15.6994   22.1450 C   0  0  2  0  0  0  0  0  0  0  0  0
    8.7300  -16.8861   21.3481 N   0  0  0  0  0  0  0  0  0  0  0  0
    8.8446  -15.9510   23.5731 C   0  0  0  0  0  0  0  0  0  0  0  0
    7.9795  -16.7222   24.0219 O   0  0  0  0  0  0  0  0  0  0  0  0
    9.6990  -15.3418   24.5496 N   0  0  0  0  0  0  0  0  0  0  0  0
    9.5390  -15.6136   25.9353 C   0  0  1  0  0  0  0  0  0  0  0  0
    8.1503  -15.6111   26.4352 C   0  0  0  0  0  0  0  0  0  0  0  0
    7.4850  -14.2895   26.4875 C   0  0  0  0  0  0  0  0  0  0  0  0
    8.2194  -13.2088   26.9970 C   0  0  0  0  0  0  0  0  0  0  0  0
    7.6827  -11.9335   27.0860 C   0  0  0  0  0  0  0  0  0  0  0  0
    6.3901  -11.7019   26.6705 C   0  0  0  0  0  0  0  0  0  0  0  0
    5.6556  -12.7467   26.1701 C   0  0  0  0  0  0  0  0  0  0  0  0
    6.2001  -14.0146   26.0828 C   0  0  0  0  0  0  0  0  0  0  0  0
   10.0525  -17.0163   26.2622 C   0  0  0  0  0  0  0  0  0  0  0  0
   10.4050  -17.8789   25.2730 O   0  0  0  0  0  0  0  0  0  0  0  0
   10.1241  -17.2951   27.4622 O   0  0  0  0  0  0  0  0  0  0  0  0
  2  1  1  6
  2  9  1  0
  3  2  1  0
  3  4  1  0
  4  5  2  0
  4  8  1  0
  5  6  1  0
  6  7  1  0
  8  7  2  0
  9 10  2  0
 11 12  1  0
 13 12  1  0
 13 14  1  0
 15 14  1  6
 15 17  1  0
 16  9  1  0
 16 15  1  0
 17 18  2  0
 19 20  1  0
 19 17  1  0
 20 21  1  6
 21 22  1  0
 22 23  2  0
 23 24  1  0
 25 24  2  0
 26 25  1  0
 27 26  2  0
 27 22  1  0
 28 20  1  0
 28 29  1  0
 30 28  2  0
M  END
$$$$
