GPN.pdb
     RDKit          3D

 20 20  0  0  1  0  0  0  0  0999 V2000
    6.9493  -13.6435   20.9171 N   0  0  0  0  0  0  0  0  0  0  0  0
    6.3455  -13.8636   22.2558 C   0  0  0  0  0  0  0  0  0  0  0  0
    7.4204  -13.9786   23.2457 C   0  0  0  0  0  0  0  0  0  0  0  0
    8.4024  -14.7264   22.8943 O   0  0  0  0  0  0  0  0  0  0  0  0
    7.4930  -13.3792   24.5094 N   0  0  0  0  0  0  0  0  0  0  0  0
    7.0087  -11.9562   24.6524 C   0  0  0  0  0  0  0  0  0  0  0  0
    6.0882  -12.1366   25.8325 C   0  0  0  0  0  0  0  0  0  0  0  0
    6.7313  -13.2103   26.6760 C   0  0  0  0  0  0  0  0  0  0  0  0
    7.9427  -13.6479   25.8120 C   0  0  1  0  0  0  0  0  0  0  0  0
    8.4006  -14.9452   26.2435 C   0  0  0  0  0  0  0  0  0  0  0  0
    7.5058  -15.7402   26.7208 O   0  0  0  0  0  0  0  0  0  0  0  0
   10.0665  -19.9859   24.8595 N   0  0  0  0  0  0  0  0  0  0  0  0
   10.8906  -18.9251   25.3743 C   0  0  0  0  0  0  0  0  0  0  0  0
   11.9138  -19.3196   26.0213 O   0  0  0  0  0  0  0  0  0  0  0  0
   10.5415  -17.5182   25.1478 C   0  0  0  0  0  0  0  0  0  0  0  0
    9.9716  -16.9117   26.4159 C   0  0  2  0  0  0  0  0  0  0  0  0
    9.6962  -15.4910   26.2160 N   0  0  0  0  0  0  0  0  0  0  0  0
   10.7609  -17.1718   27.6110 C   0  0  0  0  0  0  0  0  0  0  0  0
   10.5795  -18.3461   28.3358 O   0  0  0  0  0  0  0  0  0  0  0  0
   11.6250  -16.3770   28.0475 O   0  0  0  0  0  0  0  0  0  0  0  0
  2  1  1  0
  3  4  2  0
  3  2  1  0
  5  3  1  0
  6  5  1  0
  7  8  1  0
  7  6  1  0
  8  9  1  0
  9 10  1  6
  9  5  1  0
 10 11  2  0
 12 13  1  0
 13 14  2  0
 13 15  1  0
 16 15  1  6
 17 10  1  0
 17 16  1  0
 18 19  1  0
 18 16  1  0
 20 18  2  0
M  END
$$$$
