GPN.pdb
     RDKit          3D

 20 20  0  0  1  0  0  0  0  0999 V2000
    8.3462  -16.0823   15.4924 N   0  0  0  0  0  0  0  0  0  0  0  0
    7.7257  -15.6222   16.7606 C   0  0  0  0  0  0  0  0  0  0  0  0
    8.7870  -15.3511   17.7346 C   0  0  0  0  0  0  0  0  0  0  0  0
    9.7924  -16.1467   17.6754 O   0  0  0  0  0  0  0  0  0  0  0  0
    8.8248  -14.3438   18.7068 N   0  0  0  0  0  0  0  0  0  0  0  0
    8.3024  -12.9761   18.3370 C   0  0  0  0  0  0  0  0  0  0  0  0
    7.3685  -12.7567   19.4999 C   0  0  0  0  0  0  0  0  0  0  0  0
    8.0254  -13.4459   20.6709 C   0  0  0  0  0  0  0  0  0  0  0  0
    9.2608  -14.1239   20.0231 C   0  0  1  0  0  0  0  0  0  0  0  0
    9.7447  -15.1725   20.8863 C   0  0  0  0  0  0  0  0  0  0  0  0
    8.8630  -15.9960   21.3388 O   0  0  0  0  0  0  0  0  0  0  0  0
   11.9910  -19.0738   20.1152 N   0  0  0  0  0  0  0  0  0  0  0  0
   12.5413  -17.7603   20.3184 C   0  0  0  0  0  0  0  0  0  0  0  0
   12.8566  -17.1496   19.2465 O   0  0  0  0  0  0  0  0  0  0  0  0
   12.7075  -17.2104   21.6684 C   0  0  0  0  0  0  0  0  0  0  0  0
   11.4056  -16.5949   22.1446 C   0  0  2  0  0  0  0  0  0  0  0  0
   11.0566  -15.4461   21.3123 N   0  0  0  0  0  0  0  0  0  0  0  0
   11.3717  -16.2927   23.5682 C   0  0  0  0  0  0  0  0  0  0  0  0
   11.0375  -17.2786   24.4920 O   0  0  0  0  0  0  0  0  0  0  0  0
   11.6325  -15.1597   24.0341 O   0  0  0  0  0  0  0  0  0  0  0  0
  2  1  1  0
  3  4  2  0
  3  2  1  0
  5  3  1  0
  6  5  1  0
  7  8  1  0
  7  6  1  0
  8  9  1  0
  9 10  1  1
  9  5  1  0
 10 11  2  0
 12 13  1  0
 13 14  2  0
 13 15  1  0
 16 15  1  6
 17 10  1  0
 17 16  1  0
 18 19  1  0
 18 16  1  0
 20 18  2  0
M  END
$$$$
