GPN.pdb
     RDKit          3D

 20 20  0  0  1  0  0  0  0  0999 V2000
    9.1885  -16.0527   15.7851 N   0  0  0  0  0  0  0  0  0  0  0  0
    8.2512  -15.6817   16.8754 C   0  0  0  0  0  0  0  0  0  0  0  0
    9.0286  -15.3288   18.0669 C   0  0  0  0  0  0  0  0  0  0  0  0
   10.0510  -16.0730   18.2863 O   0  0  0  0  0  0  0  0  0  0  0  0
    8.7835  -14.2937   18.9779 N   0  0  0  0  0  0  0  0  0  0  0  0
    8.2787  -12.9759   18.4406 C   0  0  0  0  0  0  0  0  0  0  0  0
    7.0928  -12.7870   19.3520 C   0  0  0  0  0  0  0  0  0  0  0  0
    7.5050  -13.3961   20.6698 C   0  0  0  0  0  0  0  0  0  0  0  0
    8.8938  -14.0071   20.3478 C   0  0  1  0  0  0  0  0  0  0  0  0
    9.2295  -14.9952   21.3426 C   0  0  0  0  0  0  0  0  0  0  0  0
    8.4703  -16.0350   21.3979 O   0  0  0  0  0  0  0  0  0  0  0  0
   11.8062  -17.2575   21.1285 N   0  0  0  0  0  0  0  0  0  0  0  0
   12.5811  -16.9744   22.3070 C   0  0  0  0  0  0  0  0  0  0  0  0
   13.7934  -17.3590   22.2454 O   0  0  0  0  0  0  0  0  0  0  0  0
   11.9815  -16.2963   23.4616 C   0  0  0  0  0  0  0  0  0  0  0  0
   10.4970  -16.0877   23.2308 C   0  0  2  0  0  0  0  0  0  0  0  0
   10.2825  -15.0042   22.2745 N   0  0  0  0  0  0  0  0  0  0  0  0
    9.7182  -15.9278   24.4502 C   0  0  0  0  0  0  0  0  0  0  0  0
    9.5524  -16.9953   25.3277 O   0  0  0  0  0  0  0  0  0  0  0  0
    9.1651  -14.8515   24.7733 O   0  0  0  0  0  0  0  0  0  0  0  0
  2  1  1  0
  3  4  2  0
  3  2  1  0
  5  3  1  0
  6  5  1  0
  7  8  1  0
  7  6  1  0
  8  9  1  0
  9 10  1  1
  9  5  1  0
 10 11  2  0
 12 13  1  0
 13 14  2  0
 13 15  1  0
 16 15  1  1
 17 10  1  0
 17 16  1  0
 18 19  1  0
 18 16  1  0
 20 18  2  0
M  END
$$$$
