GPN.pdb
     RDKit          3D

 20 20  0  0  1  0  0  0  0  0999 V2000
    8.0762  -17.0957   16.6131 N   0  0  0  0  0  0  0  0  0  0  0  0
    7.3574  -16.5451   17.7900 C   0  0  0  0  0  0  0  0  0  0  0  0
    8.3421  -16.0367   18.7495 C   0  0  0  0  0  0  0  0  0  0  0  0
    9.3580  -16.7981   18.9375 O   0  0  0  0  0  0  0  0  0  0  0  0
    8.2977  -14.8388   19.4736 N   0  0  0  0  0  0  0  0  0  0  0  0
    7.8406  -13.5900   18.7583 C   0  0  0  0  0  0  0  0  0  0  0  0
    6.7963  -13.1233   19.7402 C   0  0  0  0  0  0  0  0  0  0  0  0
    7.3170  -13.5322   21.0965 C   0  0  0  0  0  0  0  0  0  0  0  0
    8.6001  -14.3303   20.7468 C   0  0  1  0  0  0  0  0  0  0  0  0
    8.9738  -15.1589   21.8660 C   0  0  0  0  0  0  0  0  0  0  0  0
    8.0380  -15.8745   22.3882 O   0  0  0  0  0  0  0  0  0  0  0  0
   12.3906  -19.1452   23.0869 N   0  0  0  0  0  0  0  0  0  0  0  0
   11.0304  -18.9579   22.6574 C   0  0  0  0  0  0  0  0  0  0  0  0
   10.2747  -19.9649   22.8472 O   0  0  0  0  0  0  0  0  0  0  0  0
   10.5948  -17.6931   22.0551 C   0  0  0  0  0  0  0  0  0  0  0  0
   10.6766  -16.5740   23.0757 C   0  0  2  0  0  0  0  0  0  0  0  0
   10.2277  -15.3166   22.4826 N   0  0  0  0  0  0  0  0  0  0  0  0
   11.9692  -16.4584   23.7350 C   0  0  0  0  0  0  0  0  0  0  0  0
   13.0543  -15.8963   23.0688 O   0  0  0  0  0  0  0  0  0  0  0  0
   12.1774  -16.8476   24.9072 O   0  0  0  0  0  0  0  0  0  0  0  0
  2  1  1  0
  3  4  2  0
  3  2  1  0
  5  3  1  0
  6  5  1  0
  7  8  1  0
  7  6  1  0
  8  9  1  0
  9 10  1  1
  9  5  1  0
 10 11  2  0
 12 13  1  0
 13 14  2  0
 13 15  1  0
 16 15  1  6
 17 10  1  0
 17 16  1  0
 18 19  1  0
 18 16  1  0
 20 18  2  0
M  END
$$$$
