GPN.pdb
     RDKit          3D

 20 20  0  0  1  0  0  0  0  0999 V2000
   10.1708  -16.3629   16.5318 N   0  0  0  0  0  0  0  0  0  0  0  0
    9.0106  -16.0279   17.3959 C   0  0  0  0  0  0  0  0  0  0  0  0
    9.4880  -15.2648   18.5528 C   0  0  0  0  0  0  0  0  0  0  0  0
   10.5572  -15.7199   19.0977 O   0  0  0  0  0  0  0  0  0  0  0  0
    8.9173  -14.1196   19.1222 N   0  0  0  0  0  0  0  0  0  0  0  0
    8.2523  -13.1226   18.2036 C   0  0  0  0  0  0  0  0  0  0  0  0
    6.9318  -12.9863   18.9180 C   0  0  0  0  0  0  0  0  0  0  0  0
    7.2561  -13.1438   20.3835 C   0  0  0  0  0  0  0  0  0  0  0  0
    8.7684  -13.4874   20.3668 C   0  0  1  0  0  0  0  0  0  0  0  0
    9.1389  -14.0990   21.6188 C   0  0  0  0  0  0  0  0  0  0  0  0
    8.9035  -13.4135   22.6843 O   0  0  0  0  0  0  0  0  0  0  0  0
    6.6391  -17.7856   24.7759 N   0  0  0  0  0  0  0  0  0  0  0  0
    7.7474  -16.8785   24.6403 C   0  0  0  0  0  0  0  0  0  0  0  0
    8.4689  -16.7687   25.6836 O   0  0  0  0  0  0  0  0  0  0  0  0
    7.9877  -16.1605   23.3836 C   0  0  0  0  0  0  0  0  0  0  0  0
    9.4725  -16.1321   23.0750 C   0  0  2  0  0  0  0  0  0  0  0  0
    9.7210  -15.3556   21.8627 N   0  0  0  0  0  0  0  0  0  0  0  0
   10.1030  -17.4438   23.0452 C   0  0  0  0  0  0  0  0  0  0  0  0
   10.6769  -17.9781   24.1950 O   0  0  0  0  0  0  0  0  0  0  0  0
   10.1663  -18.1499   22.0125 O   0  0  0  0  0  0  0  0  0  0  0  0
  2  1  1  0
  3  4  2  0
  3  2  1  0
  5  3  1  0
  6  5  1  0
  7  8  1  0
  7  6  1  0
  8  9  1  0
  9 10  1  1
  9  5  1  0
 10 11  2  0
 12 13  1  0
 13 14  2  0
 13 15  1  0
 16 15  1  6
 17 10  1  0
 17 16  1  0
 18 19  1  0
 18 16  1  0
 20 18  2  0
M  END
$$$$
