GPN.pdb
     RDKit          3D

 20 20  0  0  1  0  0  0  0  0999 V2000
    6.2440  -16.8332   22.8710 N   0  0  0  0  0  0  0  0  0  0  0  0
    5.9662  -16.2145   24.1920 C   0  0  0  0  0  0  0  0  0  0  0  0
    7.0993  -15.3613   24.5617 C   0  0  0  0  0  0  0  0  0  0  0  0
    8.2558  -15.8597   24.3140 O   0  0  0  0  0  0  0  0  0  0  0  0
    7.0629  -14.0898   25.1476 N   0  0  0  0  0  0  0  0  0  0  0  0
    5.7802  -13.2985   25.0545 C   0  0  0  0  0  0  0  0  0  0  0  0
    5.6178  -12.9382   26.5093 C   0  0  0  0  0  0  0  0  0  0  0  0
    7.0226  -12.7714   27.0352 C   0  0  0  0  0  0  0  0  0  0  0  0
    7.8962  -13.1829   25.8216 C   0  0  1  0  0  0  0  0  0  0  0  0
    9.2265  -13.5087   26.2720 C   0  0  0  0  0  0  0  0  0  0  0  0
    9.9096  -12.5459   26.7884 O   0  0  0  0  0  0  0  0  0  0  0  0
   10.1572  -17.1363   30.2645 N   0  0  0  0  0  0  0  0  0  0  0  0
   10.3387  -15.7879   29.7972 C   0  0  0  0  0  0  0  0  0  0  0  0
   11.1397  -15.0903   30.4993 O   0  0  0  0  0  0  0  0  0  0  0  0
    9.6373  -15.2999   28.6045 C   0  0  0  0  0  0  0  0  0  0  0  0
   10.5691  -15.3177   27.4079 C   0  0  2  0  0  0  0  0  0  0  0  0
    9.9041  -14.7405   26.2421 N   0  0  0  0  0  0  0  0  0  0  0  0
   11.1656  -16.6168   27.1328 C   0  0  0  0  0  0  0  0  0  0  0  0
   12.4335  -16.9284   27.6148 O   0  0  0  0  0  0  0  0  0  0  0  0
   10.5910  -17.5063   26.4639 O   0  0  0  0  0  0  0  0  0  0  0  0
  2  1  1  0
  3  4  2  0
  3  2  1  0
  5  3  1  0
  6  5  1  0
  7  8  1  0
  7  6  1  0
  8  9  1  0
  9 10  1  1
  9  5  1  0
 10 11  2  0
 12 13  1  0
 13 14  2  0
 13 15  1  0
 16 15  1  1
 17 10  1  0
 17 16  1  0
 18 19  1  0
 18 16  1  0
 20 18  2  0
M  END
$$$$
