GPN.pdb
     RDKit          3D

 20 20  0  0  1  0  0  0  0  0999 V2000
    9.2436  -15.1191   15.4390 N   0  0  0  0  0  0  0  0  0  0  0  0
    8.3617  -15.1255   16.6337 C   0  0  0  0  0  0  0  0  0  0  0  0
    9.1626  -14.7874   17.8139 C   0  0  0  0  0  0  0  0  0  0  0  0
   10.3454  -15.2855   17.8263 O   0  0  0  0  0  0  0  0  0  0  0  0
    8.7882  -14.0007   18.9104 N   0  0  0  0  0  0  0  0  0  0  0  0
    7.9413  -12.7772   18.6539 C   0  0  0  0  0  0  0  0  0  0  0  0
    6.8494  -13.0292   19.6623 C   0  0  0  0  0  0  0  0  0  0  0  0
    7.5299  -13.7206   20.8185 C   0  0  0  0  0  0  0  0  0  0  0  0
    8.9780  -13.9166   20.2989 C   0  0  1  0  0  0  0  0  0  0  0  0
    9.6358  -14.9382   21.0750 C   0  0  0  0  0  0  0  0  0  0  0  0
    9.1587  -16.1310   20.9756 O   0  0  0  0  0  0  0  0  0  0  0  0
   14.2665  -14.3517   21.3074 N   0  0  0  0  0  0  0  0  0  0  0  0
   13.4443  -15.5148   21.5087 C   0  0  0  0  0  0  0  0  0  0  0  0
   13.3219  -16.2575   20.4818 O   0  0  0  0  0  0  0  0  0  0  0  0
   12.8181  -15.7828   22.8082 C   0  0  0  0  0  0  0  0  0  0  0  0
   11.3235  -15.9763   22.6368 C   0  0  2  0  0  0  0  0  0  0  0  0
   10.7442  -14.8340   21.9341 N   0  0  0  0  0  0  0  0  0  0  0  0
   10.6168  -16.3006   23.8674 C   0  0  0  0  0  0  0  0  0  0  0  0
   10.9460  -17.4429   24.5912 O   0  0  0  0  0  0  0  0  0  0  0  0
    9.6957  -15.5923   24.3351 O   0  0  0  0  0  0  0  0  0  0  0  0
  2  1  1  0
  3  4  2  0
  3  2  1  0
  5  3  1  0
  6  5  1  0
  7  8  1  0
  7  6  1  0
  8  9  1  0
  9 10  1  1
  9  5  1  0
 10 11  2  0
 12 13  1  0
 13 14  2  0
 13 15  1  0
 16 15  1  1
 17 10  1  0
 17 16  1  0
 18 19  1  0
 18 16  1  0
 20 18  2  0
M  END
$$$$
