GPN.pdb
     RDKit          3D

 20 20  0  0  1  0  0  0  0  0999 V2000
    9.1721  -17.5203   17.9399 N   0  0  0  0  0  0  0  0  0  0  0  0
    8.1057  -16.7436   18.6215 C   0  0  0  0  0  0  0  0  0  0  0  0
    8.6918  -16.0407   19.7665 C   0  0  0  0  0  0  0  0  0  0  0  0
    9.5057  -16.7390   20.4717 O   0  0  0  0  0  0  0  0  0  0  0  0
    8.4646  -14.7198   20.1725 N   0  0  0  0  0  0  0  0  0  0  0  0
    8.4313  -13.6442   19.1133 C   0  0  0  0  0  0  0  0  0  0  0  0
    7.1268  -12.9861   19.4846 C   0  0  0  0  0  0  0  0  0  0  0  0
    7.0348  -13.1083   20.9860 C   0  0  0  0  0  0  0  0  0  0  0  0
    8.2812  -13.9610   21.3395 C   0  0  1  0  0  0  0  0  0  0  0  0
    8.1136  -14.5426   22.6481 C   0  0  0  0  0  0  0  0  0  0  0  0
    6.9468  -14.4268   23.1826 O   0  0  0  0  0  0  0  0  0  0  0  0
    6.3753  -17.3625   26.4378 N   0  0  0  0  0  0  0  0  0  0  0  0
    7.1939  -17.8526   25.3611 C   0  0  0  0  0  0  0  0  0  0  0  0
    7.5760  -19.0595   25.4971 O   0  0  0  0  0  0  0  0  0  0  0  0
    7.5351  -16.9959   24.2200 C   0  0  0  0  0  0  0  0  0  0  0  0
    8.6599  -16.0503   24.5958 C   0  0  2  0  0  0  0  0  0  0  0  0
    9.0419  -15.2376   23.4435 N   0  0  0  0  0  0  0  0  0  0  0  0
    9.7976  -16.6968   25.2336 C   0  0  0  0  0  0  0  0  0  0  0  0
   11.0124  -16.8105   24.5640 O   0  0  0  0  0  0  0  0  0  0  0  0
    9.7529  -17.1771   26.3895 O   0  0  0  0  0  0  0  0  0  0  0  0
  2  1  1  0
  3  4  2  0
  3  2  1  0
  5  3  1  0
  6  5  1  0
  7  8  1  0
  7  6  1  0
  8  9  1  0
  9 10  1  1
  9  5  1  0
 10 11  2  0
 12 13  1  0
 13 14  2  0
 13 15  1  0
 16 15  1  6
 17 10  1  0
 17 16  1  0
 18 19  1  0
 18 16  1  0
 20 18  2  0
M  END
$$$$
