GPN.pdb
     RDKit          3D

 20 20  0  0  1  0  0  0  0  0999 V2000
    6.6563  -14.0413   20.9035 N   0  0  0  0  0  0  0  0  0  0  0  0
    6.1435  -14.0198   22.2969 C   0  0  0  0  0  0  0  0  0  0  0  0
    7.2825  -13.9874   23.2190 C   0  0  0  0  0  0  0  0  0  0  0  0
    8.2813  -14.7146   22.8715 O   0  0  0  0  0  0  0  0  0  0  0  0
    7.3995  -13.2695   24.4158 N   0  0  0  0  0  0  0  0  0  0  0  0
    6.7554  -11.9060   24.4950 C   0  0  0  0  0  0  0  0  0  0  0  0
    5.9823  -12.0834   25.7770 C   0  0  0  0  0  0  0  0  0  0  0  0
    6.8335  -12.9915   26.6305 C   0  0  0  0  0  0  0  0  0  0  0  0
    8.0021  -13.3619   25.6805 C   0  0  1  0  0  0  0  0  0  0  0  0
    8.6592  -14.5510   26.1633 C   0  0  0  0  0  0  0  0  0  0  0  0
    7.9058  -15.4400   26.7133 O   0  0  0  0  0  0  0  0  0  0  0  0
   10.6046  -15.7200   30.9151 N   0  0  0  0  0  0  0  0  0  0  0  0
   11.1219  -15.7792   29.5741 C   0  0  0  0  0  0  0  0  0  0  0  0
   12.0952  -16.5855   29.4199 O   0  0  0  0  0  0  0  0  0  0  0  0
   10.5439  -14.9591   28.5036 C   0  0  0  0  0  0  0  0  0  0  0  0
   10.6854  -15.6675   27.1699 C   0  0  2  0  0  0  0  0  0  0  0  0
   10.0203  -14.9013   26.1187 N   0  0  0  0  0  0  0  0  0  0  0  0
   10.2840  -17.0667   27.1896 C   0  0  0  0  0  0  0  0  0  0  0  0
    9.0491  -17.4401   27.7115 O   0  0  0  0  0  0  0  0  0  0  0  0
   11.0055  -17.9923   26.7518 O   0  0  0  0  0  0  0  0  0  0  0  0
  2  1  1  0
  3  4  2  0
  3  2  1  0
  5  3  1  0
  6  5  1  0
  7  8  1  0
  7  6  1  0
  8  9  1  0
  9 10  1  1
  9  5  1  0
 10 11  2  0
 12 13  1  0
 13 14  2  0
 13 15  1  0
 16 15  1  1
 17 10  1  0
 17 16  1  0
 18 19  1  0
 18 16  1  0
 20 18  2  0
M  END
$$$$
