GPN.pdb
     RDKit          3D

 20 20  0  0  1  0  0  0  0  0999 V2000
    6.3942  -15.9779   22.2107 N   0  0  0  0  0  0  0  0  0  0  0  0
    6.0774  -15.4434   23.5595 C   0  0  0  0  0  0  0  0  0  0  0  0
    7.2132  -14.6450   24.0299 C   0  0  0  0  0  0  0  0  0  0  0  0
    8.3621  -15.0435   23.6194 O   0  0  0  0  0  0  0  0  0  0  0  0
    7.1866  -13.5206   24.8643 N   0  0  0  0  0  0  0  0  0  0  0  0
    5.9575  -12.6438   24.8401 C   0  0  0  0  0  0  0  0  0  0  0  0
    5.6838  -12.5786   26.3211 C   0  0  0  0  0  0  0  0  0  0  0  0
    7.0424  -12.6162   26.9771 C   0  0  0  0  0  0  0  0  0  0  0  0
    7.9997  -12.8277   25.7753 C   0  0  1  0  0  0  0  0  0  0  0  0
    9.2671  -13.3261   26.2488 C   0  0  0  0  0  0  0  0  0  0  0  0
   10.0193  -12.4839   26.8695 O   0  0  0  0  0  0  0  0  0  0  0  0
   11.5837  -16.5376   29.4280 N   0  0  0  0  0  0  0  0  0  0  0  0
   10.4117  -15.7348   29.6548 C   0  0  0  0  0  0  0  0  0  0  0  0
   10.0267  -15.6956   30.8678 O   0  0  0  0  0  0  0  0  0  0  0  0
    9.7475  -15.0366   28.5485 C   0  0  0  0  0  0  0  0  0  0  0  0
   10.4880  -15.2939   27.2500 C   0  0  2  0  0  0  0  0  0  0  0  0
    9.8165  -14.6162   26.1435 N   0  0  0  0  0  0  0  0  0  0  0  0
   10.7477  -16.7001   26.9774 C   0  0  0  0  0  0  0  0  0  0  0  0
   10.1353  -17.3361   25.9015 O   0  0  0  0  0  0  0  0  0  0  0  0
   11.5147  -17.4026   27.6753 O   0  0  0  0  0  0  0  0  0  0  0  0
  2  1  1  0
  3  4  2  0
  3  2  1  0
  5  3  1  0
  6  5  1  0
  7  8  1  0
  7  6  1  0
  8  9  1  0
  9 10  1  1
  9  5  1  0
 10 11  2  0
 12 13  1  0
 13 14  2  0
 13 15  1  0
 16 15  1  1
 17 10  1  0
 17 16  1  0
 18 19  1  0
 18 16  1  0
 20 18  2  0
M  END
$$$$
