GPN.pdb
     RDKit          3D

 20 20  0  0  1  0  0  0  0  0999 V2000
    5.6298  -17.3452   23.2820 N   0  0  0  0  0  0  0  0  0  0  0  0
    5.5543  -16.4870   24.4915 C   0  0  0  0  0  0  0  0  0  0  0  0
    6.7737  -15.6778   24.5734 C   0  0  0  0  0  0  0  0  0  0  0  0
    7.8511  -16.2860   24.2320 O   0  0  0  0  0  0  0  0  0  0  0  0
    6.8939  -14.3427   24.9788 N   0  0  0  0  0  0  0  0  0  0  0  0
    5.6878  -13.4446   24.8414 C   0  0  0  0  0  0  0  0  0  0  0  0
    5.6525  -12.8797   26.2386 C   0  0  0  0  0  0  0  0  0  0  0  0
    7.0973  -12.7880   26.6653 C   0  0  0  0  0  0  0  0  0  0  0  0
    7.8497  -13.4435   25.4780 C   0  0  1  0  0  0  0  0  0  0  0  0
    9.1694  -13.8400   25.9019 C   0  0  0  0  0  0  0  0  0  0  0  0
   10.0358  -12.8961   26.0398 O   0  0  0  0  0  0  0  0  0  0  0  0
   11.7560  -14.2471   30.2524 N   0  0  0  0  0  0  0  0  0  0  0  0
   10.6837  -15.0885   29.7925 C   0  0  0  0  0  0  0  0  0  0  0  0
   10.4918  -16.1306   30.4984 O   0  0  0  0  0  0  0  0  0  0  0  0
    9.9021  -14.7349   28.6022 C   0  0  0  0  0  0  0  0  0  0  0  0
   10.4876  -15.4075   27.3752 C   0  0  2  0  0  0  0  0  0  0  0  0
    9.6651  -15.1212   26.2022 N   0  0  0  0  0  0  0  0  0  0  0  0
   10.7581  -16.8280   27.5429 C   0  0  0  0  0  0  0  0  0  0  0  0
   11.9424  -17.2567   28.1351 O   0  0  0  0  0  0  0  0  0  0  0  0
    9.9649  -17.7244   27.1738 O   0  0  0  0  0  0  0  0  0  0  0  0
  2  1  1  0
  3  4  2  0
  3  2  1  0
  5  3  1  0
  6  5  1  0
  7  8  1  0
  7  6  1  0
  8  9  1  0
  9 10  1  1
  9  5  1  0
 10 11  2  0
 12 13  1  0
 13 14  2  0
 13 15  1  0
 16 15  1  1
 17 10  1  0
 17 16  1  0
 18 19  1  0
 18 16  1  0
 20 18  2  0
M  END
$$$$
