GPN.pdb
     RDKit          3D

 20 20  0  0  1  0  0  0  0  0999 V2000
    8.9467  -15.7148   15.4518 N   0  0  0  0  0  0  0  0  0  0  0  0
    8.0878  -15.5844   16.6561 C   0  0  0  0  0  0  0  0  0  0  0  0
    8.9349  -15.2607   17.8077 C   0  0  0  0  0  0  0  0  0  0  0  0
   10.0035  -15.9644   17.9085 O   0  0  0  0  0  0  0  0  0  0  0  0
    8.7117  -14.2917   18.7938 N   0  0  0  0  0  0  0  0  0  0  0  0
    8.1877  -12.9429   18.3621 C   0  0  0  0  0  0  0  0  0  0  0  0
    7.0269  -12.8231   19.3166 C   0  0  0  0  0  0  0  0  0  0  0  0
    7.4778  -13.5187   20.5778 C   0  0  0  0  0  0  0  0  0  0  0  0
    8.8591  -14.0988   20.1766 C   0  0  1  0  0  0  0  0  0  0  0  0
    9.2257  -15.1508   21.0918 C   0  0  0  0  0  0  0  0  0  0  0  0
    8.3443  -15.4781   21.9730 O   0  0  0  0  0  0  0  0  0  0  0  0
   10.0030  -18.9185   19.1792 N   0  0  0  0  0  0  0  0  0  0  0  0
    9.7742  -18.5910   20.5612 C   0  0  0  0  0  0  0  0  0  0  0  0
    8.5498  -18.6050   20.9102 O   0  0  0  0  0  0  0  0  0  0  0  0
   10.8910  -18.2735   21.4582 C   0  0  0  0  0  0  0  0  0  0  0  0
   10.6404  -16.9494   22.1543 C   0  0  2  0  0  0  0  0  0  0  0  0
   10.4162  -15.8953   21.1679 N   0  0  0  0  0  0  0  0  0  0  0  0
   11.6473  -16.5931   23.1434 C   0  0  0  0  0  0  0  0  0  0  0  0
   12.3461  -15.3939   23.0398 O   0  0  0  0  0  0  0  0  0  0  0  0
   11.9382  -17.3236   24.1184 O   0  0  0  0  0  0  0  0  0  0  0  0
  2  1  1  0
  3  4  2  0
  3  2  1  0
  5  3  1  0
  6  5  1  0
  7  8  1  0
  7  6  1  0
  8  9  1  0
  9 10  1  1
  9  5  1  0
 10 11  2  0
 12 13  1  0
 13 14  2  0
 13 15  1  0
 16 15  1  6
 17 10  1  0
 17 16  1  0
 18 19  1  0
 18 16  1  0
 20 18  2  0
M  END
$$$$
