GPN.pdb
     RDKit          3D

 20 20  0  0  1  0  0  0  0  0999 V2000
    8.6110  -15.1302   14.6194 N   0  0  0  0  0  0  0  0  0  0  0  0
    7.9490  -15.1074   15.9485 C   0  0  0  0  0  0  0  0  0  0  0  0
    8.9411  -14.7433   16.9642 C   0  0  0  0  0  0  0  0  0  0  0  0
   10.0979  -15.2766   16.8068 O   0  0  0  0  0  0  0  0  0  0  0  0
    8.7710  -13.8987   18.0683 N   0  0  0  0  0  0  0  0  0  0  0  0
    7.8763  -12.6923   17.9118 C   0  0  0  0  0  0  0  0  0  0  0  0
    6.9974  -12.8908   19.1204 C   0  0  0  0  0  0  0  0  0  0  0  0
    7.8918  -13.5171   20.1622 C   0  0  0  0  0  0  0  0  0  0  0  0
    9.2182  -13.7387   19.3895 C   0  0  1  0  0  0  0  0  0  0  0  0
   10.0227  -14.7155   20.0805 C   0  0  0  0  0  0  0  0  0  0  0  0
    9.5035  -15.8855   20.2289 O   0  0  0  0  0  0  0  0  0  0  0  0
   14.3506  -13.7781   19.3614 N   0  0  0  0  0  0  0  0  0  0  0  0
   13.8994  -15.1031   19.6937 C   0  0  0  0  0  0  0  0  0  0  0  0
   13.8362  -15.9017   18.7041 O   0  0  0  0  0  0  0  0  0  0  0  0
   13.5514  -15.4597   21.0737 C   0  0  0  0  0  0  0  0  0  0  0  0
   12.0598  -15.7111   21.1869 C   0  0  2  0  0  0  0  0  0  0  0  0
   11.3148  -14.5891   20.6208 N   0  0  0  0  0  0  0  0  0  0  0  0
   11.6129  -16.0685   22.5254 C   0  0  0  0  0  0  0  0  0  0  0  0
   10.6567  -15.2979   23.1803 O   0  0  0  0  0  0  0  0  0  0  0  0
   12.0502  -17.0616   23.1510 O   0  0  0  0  0  0  0  0  0  0  0  0
  2  1  1  0
  3  4  2  0
  3  2  1  0
  5  3  1  0
  6  5  1  0
  7  8  1  0
  7  6  1  0
  8  9  1  0
  9 10  1  1
  9  5  1  0
 10 11  2  0
 12 13  1  0
 13 14  2  0
 13 15  1  0
 16 15  1  1
 17 10  1  0
 17 16  1  0
 18 19  1  0
 18 16  1  0
 20 18  2  0
M  END
$$$$
