MNP.pdb
     RDKit          3D

 24 24  0  0  1  0  0  0  0  0999 V2000
   29.8602  -18.0974  -17.8186 C   0  0  0  0  0  0  0  0  0  0  0  0
   29.0396  -17.3499  -19.2739 S   0  0  0  0  0  0  0  0  0  0  0  0
   27.5305  -16.5302  -18.6890 C   0  0  0  0  0  0  0  0  0  0  0  0
   27.0484  -17.1133  -17.3902 C   0  0  0  0  0  0  0  0  0  0  0  0
   25.7218  -16.5066  -16.9521 C   0  0  2  0  0  0  0  0  0  0  0  0
   25.9348  -15.2012  -16.3807 N   0  0  0  0  0  0  0  0  0  0  0  0
   25.1714  -17.4251  -15.9092 C   0  0  0  0  0  0  0  0  0  0  0  0
   25.6813  -17.3446  -14.7630 O   0  0  0  0  0  0  0  0  0  0  0  0
   21.7551  -17.3272  -14.5542 N   0  0  0  0  0  0  0  0  0  0  0  0
   21.3006  -18.5481  -15.0969 C   0  0  0  0  0  0  0  0  0  0  0  0
   20.0689  -18.7401  -15.2287 O   0  0  0  0  0  0  0  0  0  0  0  0
   22.2471  -19.6135  -15.5167 C   0  0  0  0  0  0  0  0  0  0  0  0
   23.6678  -19.2182  -15.1706 C   0  0  2  0  0  0  0  0  0  0  0  0
   24.1308  -18.3346  -16.2054 N   0  0  0  0  0  0  0  0  0  0  0  0
   24.5928  -20.3406  -15.0006 C   0  0  0  0  0  0  0  0  0  0  0  0
   25.3633  -20.6322  -15.9541 O   0  0  0  0  0  0  0  0  0  0  0  0
   24.6777  -21.1309  -13.8134 N   0  0  0  0  0  0  0  0  0  0  0  0
   23.8868  -21.0919  -12.6020 C   0  0  0  0  0  0  0  0  0  0  0  0
   24.7734  -21.6159  -11.4921 C   0  0  0  0  0  0  0  0  0  0  0  0
   26.1130  -21.7670  -12.1773 C   0  0  0  0  0  0  0  0  0  0  0  0
   25.6404  -22.2000  -13.5633 C   0  0  1  0  0  0  0  0  0  0  0  0
   25.0087  -23.5257  -13.5551 C   0  0  0  0  0  0  0  0  0  0  0  0
   25.8250  -24.6379  -13.5886 O   0  0  0  0  0  0  0  0  0  0  0  0
   23.7684  -23.7254  -13.5195 O   0  0  0  0  0  0  0  0  0  0  0  0
  1  2  1  0
  2  3  1  0
  4  3  1  0
  5  4  1  0
  5  6  1  1
  7  8  2  0
  7  5  1  0
  9 10  1  0
 10 12  1  0
 11 10  2  0
 13 12  1  6
 13 14  1  0
 14  7  1  0
 15 17  1  0
 15 13  1  0
 16 15  2  0
 17 18  1  0
 18 19  1  0
 20 19  1  0
 21 17  1  0
 21 20  1  0
 21 22  1  1
 22 23  1  0
 24 22  2  0
M  END
$$$$
