MNP.pdb
     RDKit          3D

 24 24  0  0  1  0  0  0  0  0999 V2000
   21.6864  -15.5519  -20.7795 C   0  0  0  0  0  0  0  0  0  0  0  0
   21.6711  -13.9195  -19.9517 S   0  0  0  0  0  0  0  0  0  0  0  0
   20.7371  -14.0992  -18.4068 C   0  0  0  0  0  0  0  0  0  0  0  0
   20.5401  -12.7774  -17.7188 C   0  0  0  0  0  0  0  0  0  0  0  0
   21.4324  -11.6918  -18.3064 C   0  0  2  0  0  0  0  0  0  0  0  0
   22.7786  -11.8309  -17.8121 N   0  0  0  0  0  0  0  0  0  0  0  0
   20.8612  -10.3909  -17.8421 C   0  0  0  0  0  0  0  0  0  0  0  0
   19.7082  -10.1043  -18.2530 O   0  0  0  0  0  0  0  0  0  0  0  0
   19.3294   -9.2298  -14.6613 N   0  0  0  0  0  0  0  0  0  0  0  0
   20.4442   -8.4745  -14.2388 C   0  0  0  0  0  0  0  0  0  0  0  0
   20.5932   -8.2309  -13.0182 O   0  0  0  0  0  0  0  0  0  0  0  0
   21.4476   -7.9601  -15.2061 C   0  0  0  0  0  0  0  0  0  0  0  0
   21.0126   -8.2658  -16.6245 C   0  0  2  0  0  0  0  0  0  0  0  0
   21.5873   -9.5329  -16.9851 N   0  0  0  0  0  0  0  0  0  0  0  0
   21.3669   -7.2414  -17.6091 C   0  0  0  0  0  0  0  0  0  0  0  0
   22.4696   -7.3435  -18.2103 O   0  0  0  0  0  0  0  0  0  0  0  0
   20.5350   -6.1262  -17.9338 N   0  0  0  0  0  0  0  0  0  0  0  0
   19.2277   -5.7548  -17.4361 C   0  0  0  0  0  0  0  0  0  0  0  0
   18.5625   -4.9498  -18.5325 C   0  0  0  0  0  0  0  0  0  0  0  0
   19.5405   -5.0744  -19.6792 C   0  0  0  0  0  0  0  0  0  0  0  0
   20.8508   -5.0733  -18.8950 C   0  0  1  0  0  0  0  0  0  0  0  0
   21.1155   -3.7853  -18.2410 C   0  0  0  0  0  0  0  0  0  0  0  0
   21.5019   -2.7204  -19.0291 O   0  0  0  0  0  0  0  0  0  0  0  0
   21.0155   -3.5780  -17.0055 O   0  0  0  0  0  0  0  0  0  0  0  0
  1  2  1  0
  2  3  1  0
  4  3  1  0
  5  4  1  0
  5  6  1  1
  7  8  2  0
  7  5  1  0
  9 10  1  0
 10 12  1  0
 11 10  2  0
 13 12  1  1
 13 14  1  0
 14  7  1  0
 15 17  1  0
 15 13  1  0
 16 15  2  0
 17 18  1  0
 18 19  1  0
 20 19  1  0
 21 17  1  0
 21 20  1  0
 21 22  1  1
 22 23  1  0
 24 22  2  0
M  END
$$$$
