MNP.pdb
     RDKit          3D

 24 24  0  0  1  0  0  0  0  0999 V2000
   20.5317  -16.8020  -21.3847 C   0  0  0  0  0  0  0  0  0  0  0  0
   20.6878  -17.9188  -19.9430 S   0  0  0  0  0  0  0  0  0  0  0  0
   21.1285  -16.9000  -18.5080 C   0  0  0  0  0  0  0  0  0  0  0  0
   20.1839  -15.7435  -18.3357 C   0  0  0  0  0  0  0  0  0  0  0  0
   20.5871  -14.8486  -17.1710 C   0  0  2  0  0  0  0  0  0  0  0  0
   20.4868  -15.5713  -15.9286 N   0  0  0  0  0  0  0  0  0  0  0  0
   19.6166  -13.7118  -17.1679 C   0  0  0  0  0  0  0  0  0  0  0  0
   19.6063  -12.9781  -18.1886 O   0  0  0  0  0  0  0  0  0  0  0  0
   15.8900  -15.1004  -14.8149 N   0  0  0  0  0  0  0  0  0  0  0  0
   15.9589  -13.9472  -15.6255 C   0  0  0  0  0  0  0  0  0  0  0  0
   15.3965  -13.9503  -16.7458 O   0  0  0  0  0  0  0  0  0  0  0  0
   16.6828  -12.7274  -15.1836 C   0  0  0  0  0  0  0  0  0  0  0  0
   17.8061  -12.4067  -16.1478 C   0  0  2  0  0  0  0  0  0  0  0  0
   18.7579  -13.4808  -16.0692 N   0  0  0  0  0  0  0  0  0  0  0  0
   18.4637  -11.1188  -15.9171 C   0  0  0  0  0  0  0  0  0  0  0  0
   19.4906  -11.0921  -15.1873 O   0  0  0  0  0  0  0  0  0  0  0  0
   18.0115   -9.8822  -16.4716 N   0  0  0  0  0  0  0  0  0  0  0  0
   16.8832   -9.5968  -17.3319 C   0  0  0  0  0  0  0  0  0  0  0  0
   17.2463   -8.3564  -18.1206 C   0  0  0  0  0  0  0  0  0  0  0  0
   18.6894   -8.1241  -17.7330 C   0  0  0  0  0  0  0  0  0  0  0  0
   18.6355   -8.5766  -16.2756 C   0  0  1  0  0  0  0  0  0  0  0  0
   17.8165   -7.6895  -15.4395 C   0  0  0  0  0  0  0  0  0  0  0  0
   18.3513   -6.4762  -15.0567 O   0  0  0  0  0  0  0  0  0  0  0  0
   16.6540   -7.9547  -15.0426 O   0  0  0  0  0  0  0  0  0  0  0  0
  1  2  1  0
  2  3  1  0
  4  3  1  0
  5  4  1  0
  5  6  1  1
  7  8  2  0
  7  5  1  0
  9 10  1  0
 10 12  1  0
 11 10  2  0
 13 12  1  1
 13 14  1  0
 14  7  1  0
 15 17  1  0
 15 13  1  0
 16 15  2  0
 17 18  1  0
 18 19  1  0
 20 19  1  0
 21 17  1  0
 21 20  1  0
 21 22  1  1
 22 23  1  0
 24 22  2  0
M  END
$$$$
