MNP.pdb
     RDKit          3D

 24 24  0  0  1  0  0  0  0  0999 V2000
   15.5843  -27.3444   -0.6158 C   0  0  0  0  0  0  0  0  0  0  0  0
   14.5783  -27.5739   -2.1275 S   0  0  0  0  0  0  0  0  0  0  0  0
   14.1252  -25.9265   -2.7375 C   0  0  0  0  0  0  0  0  0  0  0  0
   14.5675  -24.8430   -1.7942 C   0  0  0  0  0  0  0  0  0  0  0  0
   14.1120  -23.4653   -2.2570 C   0  0  2  0  0  0  0  0  0  0  0  0
   14.5789  -23.2091   -3.5957 N   0  0  0  0  0  0  0  0  0  0  0  0
   14.7341  -22.4859   -1.3145 C   0  0  0  0  0  0  0  0  0  0  0  0
   15.8393  -21.9967   -1.6603 O   0  0  0  0  0  0  0  0  0  0  0  0
   12.2505  -21.9853    1.5966 N   0  0  0  0  0  0  0  0  0  0  0  0
   12.5428  -20.6048    1.5707 C   0  0  0  0  0  0  0  0  0  0  0  0
   11.6725  -19.7863    1.9503 O   0  0  0  0  0  0  0  0  0  0  0  0
   13.8585  -20.0965    1.1041 C   0  0  0  0  0  0  0  0  0  0  0  0
   14.7909  -21.2523    0.8060 C   0  0  2  0  0  0  0  0  0  0  0  0
   14.1050  -22.1336   -0.0989 N   0  0  0  0  0  0  0  0  0  0  0  0
   15.2555  -21.9858    1.9852 C   0  0  0  0  0  0  0  0  0  0  0  0
   14.9781  -23.2115    2.0766 O   0  0  0  0  0  0  0  0  0  0  0  0
   16.0091  -21.3951    3.0456 N   0  0  0  0  0  0  0  0  0  0  0  0
   16.5577  -20.0624    3.1772 C   0  0  0  0  0  0  0  0  0  0  0  0
   17.7568  -20.1791    4.0942 C   0  0  0  0  0  0  0  0  0  0  0  0
   17.8855  -21.6734    4.2878 C   0  0  0  0  0  0  0  0  0  0  0  0
   16.4075  -22.0567    4.2849 C   0  0  1  0  0  0  0  0  0  0  0  0
   15.6864  -21.5316    5.4515 C   0  0  0  0  0  0  0  0  0  0  0  0
   15.7520  -22.2414    6.6332 O   0  0  0  0  0  0  0  0  0  0  0  0
   15.0075  -20.4740    5.4547 O   0  0  0  0  0  0  0  0  0  0  0  0
  1  2  1  0
  2  3  1  0
  4  3  1  0
  5  4  1  0
  5  6  1  6
  7  8  2  0
  7  5  1  0
  9 10  1  0
 10 12  1  0
 11 10  2  0
 13 12  1  1
 13 14  1  0
 14  7  1  0
 15 17  1  0
 15 13  1  0
 16 15  2  0
 17 18  1  0
 18 19  1  0
 20 19  1  0
 21 17  1  0
 21 20  1  0
 21 22  1  1
 22 23  1  0
 24 22  2  0
M  END
$$$$
