MNP.pdb
     RDKit          3D

 24 24  0  0  1  0  0  0  0  0999 V2000
   27.0759  -17.8574   -6.7166 C   0  0  0  0  0  0  0  0  0  0  0  0
   27.3196  -19.5149   -5.9793 S   0  0  0  0  0  0  0  0  0  0  0  0
   27.3107  -20.7219   -7.3336 C   0  0  0  0  0  0  0  0  0  0  0  0
   26.5841  -20.1983   -8.5408 C   0  0  0  0  0  0  0  0  0  0  0  0
   26.5562  -21.2160   -9.6736 C   0  0  2  0  0  0  0  0  0  0  0  0
   27.8892  -21.6836   -9.9571 N   0  0  0  0  0  0  0  0  0  0  0  0
   26.0159  -20.4934  -10.8653 C   0  0  0  0  0  0  0  0  0  0  0  0
   26.0348  -19.2374  -10.8178 O   0  0  0  0  0  0  0  0  0  0  0  0
   27.8400  -19.2500  -13.9666 N   0  0  0  0  0  0  0  0  0  0  0  0
   27.3900  -20.5851  -14.0475 C   0  0  0  0  0  0  0  0  0  0  0  0
   28.2125  -21.5197  -13.9010 O   0  0  0  0  0  0  0  0  0  0  0  0
   25.9632  -20.9114  -14.3023 C   0  0  0  0  0  0  0  0  0  0  0  0
   25.1049  -20.4484  -13.1434 C   0  0  2  0  0  0  0  0  0  0  0  0
   25.5115  -21.1945  -11.9842 N   0  0  0  0  0  0  0  0  0  0  0  0
   23.6621  -20.5778  -13.3583 C   0  0  0  0  0  0  0  0  0  0  0  0
   22.9986  -21.2918  -12.5598 O   0  0  0  0  0  0  0  0  0  0  0  0
   22.9545  -19.9406  -14.4234 N   0  0  0  0  0  0  0  0  0  0  0  0
   23.4357  -19.0980  -15.4973 C   0  0  0  0  0  0  0  0  0  0  0  0
   22.2815  -18.2001  -15.8900 C   0  0  0  0  0  0  0  0  0  0  0  0
   21.2380  -18.5197  -14.8431 C   0  0  0  0  0  0  0  0  0  0  0  0
   21.5148  -20.0098  -14.6572 C   0  0  1  0  0  0  0  0  0  0  0  0
   21.1832  -20.7983  -15.8510 C   0  0  0  0  0  0  0  0  0  0  0  0
   19.8650  -21.1536  -16.0530 O   0  0  0  0  0  0  0  0  0  0  0  0
   22.0176  -21.1775  -16.7108 O   0  0  0  0  0  0  0  0  0  0  0  0
  1  2  1  0
  2  3  1  0
  4  3  1  0
  5  4  1  0
  5  6  1  6
  7  8  2  0
  7  5  1  0
  9 10  1  0
 10 12  1  0
 11 10  2  0
 13 12  1  6
 13 14  1  0
 14  7  1  0
 15 17  1  0
 15 13  1  0
 16 15  2  0
 17 18  1  0
 18 19  1  0
 20 19  1  0
 21 17  1  0
 21 20  1  0
 21 22  1  6
 22 23  1  0
 24 22  2  0
M  END
$$$$
