MNP.pdb
     RDKit          3D

 24 24  0  0  1  0  0  0  0  0999 V2000
   28.3368  -17.9594   -5.9038 C   0  0  0  0  0  0  0  0  0  0  0  0
   27.4192  -19.3836   -5.2111 S   0  0  0  0  0  0  0  0  0  0  0  0
   27.7462  -20.8147   -6.2772 C   0  0  0  0  0  0  0  0  0  0  0  0
   27.6144  -20.4654   -7.7332 C   0  0  0  0  0  0  0  0  0  0  0  0
   27.8460  -21.6737   -8.6311 C   0  0  2  0  0  0  0  0  0  0  0  0
   29.2362  -22.0513   -8.6106 N   0  0  0  0  0  0  0  0  0  0  0  0
   27.4653  -21.2426  -10.0108 C   0  0  0  0  0  0  0  0  0  0  0  0
   28.3715  -20.7174  -10.7061 O   0  0  0  0  0  0  0  0  0  0  0  0
   25.3864  -23.7508  -14.4104 N   0  0  0  0  0  0  0  0  0  0  0  0
   24.7340  -22.7620  -13.6433 C   0  0  0  0  0  0  0  0  0  0  0  0
   23.9291  -21.9820  -14.2046 O   0  0  0  0  0  0  0  0  0  0  0  0
   24.9778  -22.6222  -12.1845 C   0  0  0  0  0  0  0  0  0  0  0  0
   25.9450  -21.4866  -11.9215 C   0  0  2  0  0  0  0  0  0  0  0  0
   26.1515  -21.4201  -10.5006 N   0  0  0  0  0  0  0  0  0  0  0  0
   25.5193  -20.1853  -12.4408 C   0  0  0  0  0  0  0  0  0  0  0  0
   24.7456  -19.4827  -11.7368 O   0  0  0  0  0  0  0  0  0  0  0  0
   25.9292  -19.6582  -13.7039 N   0  0  0  0  0  0  0  0  0  0  0  0
   26.7260  -20.2540  -14.7550 C   0  0  0  0  0  0  0  0  0  0  0  0
   27.3889  -19.1103  -15.4933 C   0  0  0  0  0  0  0  0  0  0  0  0
   27.0155  -17.9092  -14.6538 C   0  0  0  0  0  0  0  0  0  0  0  0
   25.6128  -18.3297  -14.2210 C   0  0  1  0  0  0  0  0  0  0  0  0
   24.6678  -18.3813  -15.3439 C   0  0  0  0  0  0  0  0  0  0  0  0
   24.1506  -17.1924  -15.8167 O   0  0  0  0  0  0  0  0  0  0  0  0
   24.2910  -19.4370  -15.9122 O   0  0  0  0  0  0  0  0  0  0  0  0
  1  2  1  0
  2  3  1  0
  4  3  1  0
  5  4  1  0
  5  6  1  6
  7  8  2  0
  7  5  1  0
  9 10  1  0
 10 12  1  0
 11 10  2  0
 13 12  1  1
 13 14  1  0
 14  7  1  0
 15 17  1  0
 15 13  1  0
 16 15  2  0
 17 18  1  0
 18 19  1  0
 20 19  1  0
 21 17  1  0
 21 20  1  0
 21 22  1  6
 22 23  1  0
 24 22  2  0
M  END
$$$$
