MNP.pdb
     RDKit          3D

 24 24  0  0  1  0  0  0  0  0999 V2000
   18.2470  -17.9058  -14.4257 C   0  0  0  0  0  0  0  0  0  0  0  0
   18.6906  -16.2792  -15.1380 S   0  0  0  0  0  0  0  0  0  0  0  0
   20.4350  -16.3558  -15.6302 C   0  0  0  0  0  0  0  0  0  0  0  0
   20.9119  -15.0467  -16.1944 C   0  0  0  0  0  0  0  0  0  0  0  0
   20.2872  -14.7512  -17.5517 C   0  0  2  0  0  0  0  0  0  0  0  0
   20.8355  -15.6280  -18.5549 N   0  0  0  0  0  0  0  0  0  0  0  0
   20.6472  -13.3365  -17.8733 C   0  0  0  0  0  0  0  0  0  0  0  0
   21.7899  -13.1438  -18.3607 O   0  0  0  0  0  0  0  0  0  0  0  0
   19.9584  -11.2905  -21.1006 N   0  0  0  0  0  0  0  0  0  0  0  0
   19.0613  -11.2354  -20.0125 C   0  0  0  0  0  0  0  0  0  0  0  0
   18.0624  -11.9926  -20.0021 O   0  0  0  0  0  0  0  0  0  0  0  0
   19.2716  -10.3008  -18.8771 C   0  0  0  0  0  0  0  0  0  0  0  0
   20.1897  -10.9258  -17.8472 C   0  0  2  0  0  0  0  0  0  0  0  0
   19.7431  -12.2759  -17.6383 N   0  0  0  0  0  0  0  0  0  0  0  0
   20.2641  -10.2059  -16.5741 C   0  0  0  0  0  0  0  0  0  0  0  0
   19.6207  -10.6595  -15.5903 O   0  0  0  0  0  0  0  0  0  0  0  0
   21.0260   -9.0136  -16.3759 N   0  0  0  0  0  0  0  0  0  0  0  0
   21.8299   -8.2488  -17.3050 C   0  0  0  0  0  0  0  0  0  0  0  0
   22.8887   -7.5466  -16.4813 C   0  0  0  0  0  0  0  0  0  0  0  0
   22.6800   -8.1294  -15.1016 C   0  0  0  0  0  0  0  0  0  0  0  0
   21.1608   -8.2824  -15.1191 C   0  0  1  0  0  0  0  0  0  0  0  0
   20.4641   -6.9900  -15.1510 C   0  0  0  0  0  0  0  0  0  0  0  0
   20.4265   -6.2402  -13.9930 O   0  0  0  0  0  0  0  0  0  0  0  0
   19.8941   -6.5108  -16.1633 O   0  0  0  0  0  0  0  0  0  0  0  0
  1  2  1  0
  2  3  1  0
  4  3  1  0
  5  4  1  0
  5  6  1  6
  7  8  2  0
  7  5  1  0
  9 10  1  0
 10 12  1  0
 11 10  2  0
 13 12  1  6
 13 14  1  0
 14  7  1  0
 15 17  1  0
 15 13  1  0
 16 15  2  0
 17 18  1  0
 18 19  1  0
 20 19  1  0
 21 17  1  0
 21 20  1  0
 21 22  1  6
 22 23  1  0
 24 22  2  0
M  END
$$$$
