MNP.pdb
     RDKit          3D

 24 24  0  0  1  0  0  0  0  0999 V2000
   23.2810  -17.5899  -18.7217 C   0  0  0  0  0  0  0  0  0  0  0  0
   21.9438  -16.3602  -18.4985 S   0  0  0  0  0  0  0  0  0  0  0  0
   22.7122  -14.8112  -17.9493 C   0  0  0  0  0  0  0  0  0  0  0  0
   21.7274  -13.6758  -17.9359 C   0  0  0  0  0  0  0  0  0  0  0  0
   20.8513  -13.6975  -16.6901 C   0  0  2  0  0  0  0  0  0  0  0  0
   19.8716  -14.7494  -16.7874 N   0  0  0  0  0  0  0  0  0  0  0  0
   20.1601  -12.3728  -16.6476 C   0  0  0  0  0  0  0  0  0  0  0  0
   19.2571  -12.1820  -17.5011 O   0  0  0  0  0  0  0  0  0  0  0  0
   18.1615   -7.9268  -15.6926 N   0  0  0  0  0  0  0  0  0  0  0  0
   17.7096   -9.0745  -15.0067 C   0  0  0  0  0  0  0  0  0  0  0  0
   16.6006   -9.0434  -14.4230 O   0  0  0  0  0  0  0  0  0  0  0  0
   18.5167  -10.3208  -14.9590 C   0  0  0  0  0  0  0  0  0  0  0  0
   19.8184  -10.1311  -15.7099 C   0  0  2  0  0  0  0  0  0  0  0  0
   20.5102  -11.3908  -15.6933 N   0  0  0  0  0  0  0  0  0  0  0  0
   20.6775   -9.0656  -15.1891 C   0  0  0  0  0  0  0  0  0  0  0  0
   21.2317   -9.2353  -14.0702 O   0  0  0  0  0  0  0  0  0  0  0  0
   20.9290   -7.8376  -15.8746 N   0  0  0  0  0  0  0  0  0  0  0  0
   20.3563   -7.3100  -17.0946 C   0  0  0  0  0  0  0  0  0  0  0  0
   21.3952   -6.3853  -17.6929 C   0  0  0  0  0  0  0  0  0  0  0  0
   22.5924   -6.6016  -16.7947 C   0  0  0  0  0  0  0  0  0  0  0  0
   21.8751   -6.8047  -15.4621 C   0  0  1  0  0  0  0  0  0  0  0  0
   21.1996   -5.5876  -14.9940 C   0  0  0  0  0  0  0  0  0  0  0  0
   19.8246   -5.5248  -15.0941 O   0  0  0  0  0  0  0  0  0  0  0  0
   21.7852   -4.5892  -14.5044 O   0  0  0  0  0  0  0  0  0  0  0  0
  1  2  1  0
  2  3  1  0
  4  3  1  0
  5  4  1  0
  5  6  1  6
  7  8  2  0
  7  5  1  0
  9 10  1  0
 10 12  1  0
 11 10  2  0
 13 12  1  1
 13 14  1  0
 14  7  1  0
 15 17  1  0
 15 13  1  0
 16 15  2  0
 17 18  1  0
 18 19  1  0
 20 19  1  0
 21 17  1  0
 21 20  1  0
 21 22  1  6
 22 23  1  0
 24 22  2  0
M  END
$$$$
