DTD.pdb
     RDKit          3D

 24 23  0  0  1  0  0  0  0  0999 V2000
    7.5058  -17.2285   16.7038 N   0  0  0  0  0  0  0  0  0  0  0  0
    8.4273  -17.9047   17.5959 C   0  0  1  0  0  0  0  0  0  0  0  0
    9.4939  -18.6082   16.7855 C   0  0  0  0  0  0  0  0  0  0  0  0
    8.8786  -19.6326   15.9266 C   0  0  0  0  0  0  0  0  0  0  0  0
    8.3054  -20.6155   16.4309 O   0  0  0  0  0  0  0  0  0  0  0  0
    9.0202  -16.9632   18.5798 C   0  0  0  0  0  0  0  0  0  0  0  0
   10.0772  -16.3395   18.3062 O   0  0  0  0  0  0  0  0  0  0  0  0
    8.9380  -19.5020   14.5592 O   0  0  0  0  0  0  0  0  0  0  0  0
    7.0974  -14.2824   20.7795 C   0  0  0  0  0  0  0  0  0  0  0  0
    7.9499  -15.1741   21.6912 C   0  0  1  0  0  0  0  0  0  0  0  0
    7.1392  -16.1462   22.2872 O   0  0  0  0  0  0  0  0  0  0  0  0
    9.0058  -15.8126   20.8097 C   0  0  2  0  0  0  0  0  0  0  0  0
    8.4409  -16.7206   19.8533 N   0  0  0  0  0  0  0  0  0  0  0  0
    9.9784  -16.4795   21.7140 C   0  0  0  0  0  0  0  0  0  0  0  0
    9.9555  -17.7056   21.9828 O   0  0  0  0  0  0  0  0  0  0  0  0
   11.0395  -15.7534   22.3609 N   0  0  0  0  0  0  0  0  0  0  0  0
   11.9782  -16.3907   23.2606 C   0  0  1  0  0  0  0  0  0  0  0  0
   13.2748  -15.6276   23.3857 C   0  0  0  0  0  0  0  0  0  0  0  0
   14.3173  -16.3651   24.1034 C   0  0  0  0  0  0  0  0  0  0  0  0
   14.1763  -17.5276   24.5189 O   0  0  0  0  0  0  0  0  0  0  0  0
   11.3635  -16.4131   24.6077 C   0  0  0  0  0  0  0  0  0  0  0  0
   10.4111  -15.6399   24.8673 O   0  0  0  0  0  0  0  0  0  0  0  0
   15.5258  -15.7412   24.3346 O   0  0  0  0  0  0  0  0  0  0  0  0
   11.8094  -17.2736   25.6137 O   0  0  0  0  0  0  0  0  0  0  0  0
  2  1  1  6
  2  3  1  0
  3  4  1  0
  4  8  1  0
  5  4  2  0
  6  2  1  0
  7  6  2  0
 10  9  1  6
 10 12  1  0
 11 10  1  0
 12 14  1  0
 12 13  1  6
 13  6  1  0
 14 16  1  0
 15 14  2  0
 16 17  1  0
 17 18  1  1
 17 21  1  0
 18 19  1  0
 19 20  2  0
 19 23  1  0
 21 22  2  0
 21 24  1  0
M  END
$$$$
