DTD.pdb
     RDKit          3D

 24 23  0  0  1  0  0  0  0  0999 V2000
    7.5653  -17.7449   18.4018 N   0  0  0  0  0  0  0  0  0  0  0  0
    8.9848  -17.4794   18.2730 C   0  0  1  0  0  0  0  0  0  0  0  0
    9.2558  -16.8007   16.9480 C   0  0  0  0  0  0  0  0  0  0  0  0
    8.8559  -17.6831   15.8403 C   0  0  0  0  0  0  0  0  0  0  0  0
    9.1996  -17.4230   14.6726 O   0  0  0  0  0  0  0  0  0  0  0  0
    9.4925  -16.6747   19.4134 C   0  0  0  0  0  0  0  0  0  0  0  0
   10.6665  -16.2244   19.4015 O   0  0  0  0  0  0  0  0  0  0  0  0
    8.0983  -18.8012   16.0979 O   0  0  0  0  0  0  0  0  0  0  0  0
    7.4431  -13.9448   21.4890 C   0  0  0  0  0  0  0  0  0  0  0  0
    8.0876  -14.9505   22.4514 C   0  0  1  0  0  0  0  0  0  0  0  0
    7.1259  -15.8722   22.8794 O   0  0  0  0  0  0  0  0  0  0  0  0
    9.1963  -15.6401   21.6802 C   0  0  2  0  0  0  0  0  0  0  0  0
    8.7000  -16.3761   20.5532 N   0  0  0  0  0  0  0  0  0  0  0  0
    9.9197  -16.5078   22.6458 C   0  0  0  0  0  0  0  0  0  0  0  0
    9.6316  -17.7116   22.8554 O   0  0  0  0  0  0  0  0  0  0  0  0
   11.0261  -16.0213   23.4273 N   0  0  0  0  0  0  0  0  0  0  0  0
   11.7409  -16.8612   24.3656 C   0  0  1  0  0  0  0  0  0  0  0  0
   13.1326  -16.3545   24.6579 C   0  0  0  0  0  0  0  0  0  0  0  0
   13.9674  -16.2230   23.4614 C   0  0  0  0  0  0  0  0  0  0  0  0
   14.0034  -17.0678   22.5509 O   0  0  0  0  0  0  0  0  0  0  0  0
   10.9983  -16.8349   25.6466 C   0  0  0  0  0  0  0  0  0  0  0  0
   10.0297  -16.0508   25.7855 O   0  0  0  0  0  0  0  0  0  0  0  0
   14.7605  -15.1018   23.3309 O   0  0  0  0  0  0  0  0  0  0  0  0
   11.3397  -17.6606   26.7204 O   0  0  0  0  0  0  0  0  0  0  0  0
  2  1  1  1
  2  3  1  0
  3  4  1  0
  4  8  1  0
  5  4  2  0
  6  2  1  0
  7  6  2  0
 10  9  1  6
 10 12  1  0
 11 10  1  0
 12 14  1  0
 12 13  1  6
 13  6  1  0
 14 16  1  0
 15 14  2  0
 16 17  1  0
 17 18  1  1
 17 21  1  0
 18 19  1  0
 19 20  2  0
 19 23  1  0
 21 22  2  0
 21 24  1  0
M  END
$$$$
