DTD.pdb
     RDKit          3D

 24 23  0  0  1  0  0  0  0  0999 V2000
   10.9831  -16.1643   15.8809 N   0  0  0  0  0  0  0  0  0  0  0  0
   12.2092  -15.7124   16.5091 C   0  0  1  0  0  0  0  0  0  0  0  0
   12.9093  -14.7238   15.6025 C   0  0  0  0  0  0  0  0  0  0  0  0
   13.1461  -15.3319   14.2835 C   0  0  0  0  0  0  0  0  0  0  0  0
   14.2863  -15.7130   13.9614 O   0  0  0  0  0  0  0  0  0  0  0  0
   11.9500  -15.1339   17.8523 C   0  0  0  0  0  0  0  0  0  0  0  0
   12.8809  -14.5942   18.5028 O   0  0  0  0  0  0  0  0  0  0  0  0
   12.1008  -15.4795   13.4026 O   0  0  0  0  0  0  0  0  0  0  0  0
    8.9053  -12.9394   19.1193 C   0  0  0  0  0  0  0  0  0  0  0  0
    9.0283  -14.1861   20.0045 C   0  0  1  0  0  0  0  0  0  0  0  0
    8.0731  -15.1322   19.6171 O   0  0  0  0  0  0  0  0  0  0  0  0
   10.4337  -14.7207   19.8085 C   0  0  2  0  0  0  0  0  0  0  0  0
   10.6679  -15.1574   18.4621 N   0  0  0  0  0  0  0  0  0  0  0  0
   10.6220  -15.8146   20.7967 C   0  0  0  0  0  0  0  0  0  0  0  0
   10.2160  -16.9899   20.6239 O   0  0  0  0  0  0  0  0  0  0  0  0
   11.2975  -15.6019   22.0497 N   0  0  0  0  0  0  0  0  0  0  0  0
   11.4080  -16.6372   23.0560 C   0  0  1  0  0  0  0  0  0  0  0  0
   12.8046  -17.2011   23.1607 C   0  0  0  0  0  0  0  0  0  0  0  0
   13.8533  -16.2054   22.9262 C   0  0  0  0  0  0  0  0  0  0  0  0
   14.0755  -15.2477   23.6859 O   0  0  0  0  0  0  0  0  0  0  0  0
   11.0953  -16.0235   24.3669 C   0  0  0  0  0  0  0  0  0  0  0  0
   11.0527  -16.7423   25.3935 O   0  0  0  0  0  0  0  0  0  0  0  0
   14.6421  -16.3314   21.8015 O   0  0  0  0  0  0  0  0  0  0  0  0
   10.8425  -14.6567   24.5060 O   0  0  0  0  0  0  0  0  0  0  0  0
  2  1  1  6
  2  3  1  0
  3  4  1  0
  4  8  1  0
  5  4  2  0
  6  2  1  0
  7  6  2  0
 10  9  1  6
 10 12  1  0
 11 10  1  0
 12 14  1  0
 12 13  1  6
 13  6  1  0
 14 16  1  0
 15 14  2  0
 16 17  1  0
 17 18  1  1
 17 21  1  0
 18 19  1  0
 19 20  2  0
 19 23  1  0
 21 22  2  0
 21 24  1  0
M  END
$$$$
