DTD.pdb
     RDKit          3D

 24 23  0  0  1  0  0  0  0  0999 V2000
    8.0504  -15.9903   15.6800 N   0  0  0  0  0  0  0  0  0  0  0  0
    9.4215  -16.2921   16.0422 C   0  0  1  0  0  0  0  0  0  0  0  0
   10.3385  -15.9470   14.8891 C   0  0  0  0  0  0  0  0  0  0  0  0
    9.9004  -16.6477   13.6715 C   0  0  0  0  0  0  0  0  0  0  0  0
   10.3605  -16.3269   12.5604 O   0  0  0  0  0  0  0  0  0  0  0  0
    9.8214  -15.5893   17.2880 C   0  0  0  0  0  0  0  0  0  0  0  0
   11.0227  -15.2727   17.4821 O   0  0  0  0  0  0  0  0  0  0  0  0
    8.9773  -17.6626   13.7630 O   0  0  0  0  0  0  0  0  0  0  0  0
    7.7090  -12.7758   19.2887 C   0  0  0  0  0  0  0  0  0  0  0  0
    8.1248  -13.9209   20.2207 C   0  0  1  0  0  0  0  0  0  0  0  0
    7.0426  -14.7871   20.4108 O   0  0  0  0  0  0  0  0  0  0  0  0
    9.2795  -14.6338   19.5441 C   0  0  2  0  0  0  0  0  0  0  0  0
    8.8923  -15.2440   18.3048 N   0  0  0  0  0  0  0  0  0  0  0  0
    9.8076  -15.6235   20.5189 C   0  0  0  0  0  0  0  0  0  0  0  0
    9.5389  -16.8494   20.4852 O   0  0  0  0  0  0  0  0  0  0  0  0
   10.6835  -15.2409   21.5950 N   0  0  0  0  0  0  0  0  0  0  0  0
   11.1616  -16.1890   22.5795 C   0  0  1  0  0  0  0  0  0  0  0  0
   12.4237  -15.7276   23.2677 C   0  0  0  0  0  0  0  0  0  0  0  0
   13.6172  -15.8307   22.4246 C   0  0  0  0  0  0  0  0  0  0  0  0
   13.6240  -16.3664   21.3035 O   0  0  0  0  0  0  0  0  0  0  0  0
   10.1225  -16.3092   23.6277 C   0  0  0  0  0  0  0  0  0  0  0  0
   10.2179  -17.2101   24.4947 O   0  0  0  0  0  0  0  0  0  0  0  0
   14.8035  -15.3062   22.8946 O   0  0  0  0  0  0  0  0  0  0  0  0
    9.0255  -15.4465   23.6889 O   0  0  0  0  0  0  0  0  0  0  0  0
  2  1  1  6
  2  3  1  0
  3  4  1  0
  4  8  1  0
  5  4  2  0
  6  2  1  0
  7  6  2  0
 10  9  1  6
 10 12  1  0
 11 10  1  0
 12 14  1  0
 12 13  1  6
 13  6  1  0
 14 16  1  0
 15 14  2  0
 16 17  1  0
 17 18  1  1
 17 21  1  0
 18 19  1  0
 19 20  2  0
 19 23  1  0
 21 22  2  0
 21 24  1  0
M  END
$$$$
