DTD.pdb
     RDKit          3D

 24 23  0  0  1  0  0  0  0  0999 V2000
    8.1948  -16.8497   15.1486 N   0  0  0  0  0  0  0  0  0  0  0  0
    9.6074  -16.6713   15.4224 C   0  0  1  0  0  0  0  0  0  0  0  0
   10.2763  -16.0189   14.2323 C   0  0  0  0  0  0  0  0  0  0  0  0
    9.8934  -16.7176   12.9951 C   0  0  0  0  0  0  0  0  0  0  0  0
    9.9613  -17.9584   12.9260 O   0  0  0  0  0  0  0  0  0  0  0  0
    9.8250  -15.8913   16.6675 C   0  0  0  0  0  0  0  0  0  0  0  0
   10.9907  -15.6673   17.0822 O   0  0  0  0  0  0  0  0  0  0  0  0
    9.4583  -15.9943   11.9098 O   0  0  0  0  0  0  0  0  0  0  0  0
    8.0836  -13.0939   20.3443 C   0  0  0  0  0  0  0  0  0  0  0  0
    7.6915  -13.9431   19.1285 C   0  0  1  0  0  0  0  0  0  0  0  0
    7.1753  -13.1154   18.1255 O   0  0  0  0  0  0  0  0  0  0  0  0
    8.9540  -14.6412   18.6613 C   0  0  2  0  0  0  0  0  0  0  0  0
    8.7549  -15.3676   17.4403 N   0  0  0  0  0  0  0  0  0  0  0  0
    9.3992  -15.5200   19.7739 C   0  0  0  0  0  0  0  0  0  0  0  0
    9.0300  -16.7118   19.9137 O   0  0  0  0  0  0  0  0  0  0  0  0
   10.3049  -15.0595   20.7934 N   0  0  0  0  0  0  0  0  0  0  0  0
   10.7959  -15.9275   21.8433 C   0  0  1  0  0  0  0  0  0  0  0  0
   12.1198  -15.4694   22.4062 C   0  0  0  0  0  0  0  0  0  0  0  0
   12.6345  -16.3405   23.4655 C   0  0  0  0  0  0  0  0  0  0  0  0
   12.1103  -16.4439   24.5872 O   0  0  0  0  0  0  0  0  0  0  0  0
    9.8195  -15.8821   22.9558 C   0  0  0  0  0  0  0  0  0  0  0  0
    9.1414  -14.8442   23.1434 O   0  0  0  0  0  0  0  0  0  0  0  0
   13.7639  -17.0909   23.2111 O   0  0  0  0  0  0  0  0  0  0  0  0
    9.6221  -16.9651   23.8157 O   0  0  0  0  0  0  0  0  0  0  0  0
  2  1  1  6
  2  3  1  0
  3  4  1  0
  4  8  1  0
  5  4  2  0
  6  2  1  0
  7  6  2  0
 10  9  1  1
 10 12  1  0
 11 10  1  0
 12 14  1  0
 12 13  1  6
 13  6  1  0
 14 16  1  0
 15 14  2  0
 16 17  1  0
 17 18  1  1
 17 21  1  0
 18 19  1  0
 19 20  2  0
 19 23  1  0
 21 22  2  0
 21 24  1  0
M  END
$$$$
