DTD.pdb
     RDKit          3D

 24 23  0  0  1  0  0  0  0  0999 V2000
    7.5596  -16.2606   15.9120 N   0  0  0  0  0  0  0  0  0  0  0  0
    8.8218  -15.6542   15.5362 C   0  0  1  0  0  0  0  0  0  0  0  0
    8.6072  -14.7206   14.3649 C   0  0  0  0  0  0  0  0  0  0  0  0
    8.1932  -15.4882   13.1796 C   0  0  0  0  0  0  0  0  0  0  0  0
    7.9727  -16.7101   13.2663 O   0  0  0  0  0  0  0  0  0  0  0  0
    9.4515  -14.9543   16.6850 C   0  0  0  0  0  0  0  0  0  0  0  0
   10.5659  -14.3877   16.5513 O   0  0  0  0  0  0  0  0  0  0  0  0
    8.0494  -14.8508   11.9699 O   0  0  0  0  0  0  0  0  0  0  0  0
    7.8010  -12.4481   19.1445 C   0  0  0  0  0  0  0  0  0  0  0  0
    8.4495  -13.5545   19.9862 C   0  0  1  0  0  0  0  0  0  0  0  0
    7.4669  -14.4523   20.4174 O   0  0  0  0  0  0  0  0  0  0  0  0
    9.4612  -14.2440   19.0916 C   0  0  2  0  0  0  0  0  0  0  0  0
    8.8451  -14.8877   17.9672 N   0  0  0  0  0  0  0  0  0  0  0  0
   10.2133  -15.1996   19.9458 C   0  0  0  0  0  0  0  0  0  0  0  0
   10.0559  -16.4446   19.9074 O   0  0  0  0  0  0  0  0  0  0  0  0
   11.1974  -14.7585   20.8990 N   0  0  0  0  0  0  0  0  0  0  0  0
   12.0059  -15.6853   21.6633 C   0  0  1  0  0  0  0  0  0  0  0  0
   13.3772  -15.1384   21.9793 C   0  0  0  0  0  0  0  0  0  0  0  0
   14.2216  -14.9648   20.7950 C   0  0  0  0  0  0  0  0  0  0  0  0
   14.1667  -15.7019   19.7962 O   0  0  0  0  0  0  0  0  0  0  0  0
   11.3260  -15.9099   22.9595 C   0  0  0  0  0  0  0  0  0  0  0  0
   10.3583  -15.1825   23.2861 O   0  0  0  0  0  0  0  0  0  0  0  0
   15.1311  -13.9275   20.7802 O   0  0  0  0  0  0  0  0  0  0  0  0
   11.7262  -16.9142   23.8442 O   0  0  0  0  0  0  0  0  0  0  0  0
  2  1  1  1
  2  3  1  0
  3  4  1  0
  4  8  1  0
  5  4  2  0
  6  2  1  0
  7  6  2  0
 10  9  1  6
 10 12  1  0
 11 10  1  0
 12 14  1  0
 12 13  1  6
 13  6  1  0
 14 16  1  0
 15 14  2  0
 16 17  1  0
 17 18  1  1
 17 21  1  0
 18 19  1  0
 19 20  2  0
 19 23  1  0
 21 22  2  0
 21 24  1  0
M  END
$$$$
