DTD.pdb
     RDKit          3D

 24 23  0  0  1  0  0  0  0  0999 V2000
   11.1312  -19.1247   17.3842 N   0  0  0  0  0  0  0  0  0  0  0  0
   12.4925  -18.6810   17.6126 C   0  0  1  0  0  0  0  0  0  0  0  0
   12.9892  -17.9234   16.4006 C   0  0  0  0  0  0  0  0  0  0  0  0
   12.8317  -18.7489   15.1926 C   0  0  0  0  0  0  0  0  0  0  0  0
   13.1853  -19.9423   15.1950 O   0  0  0  0  0  0  0  0  0  0  0  0
   12.5975  -17.8644   18.8487 C   0  0  0  0  0  0  0  0  0  0  0  0
   13.7003  -17.3664   19.1903 O   0  0  0  0  0  0  0  0  0  0  0  0
   12.2906  -18.1976   14.0552 O   0  0  0  0  0  0  0  0  0  0  0  0
    9.4718  -17.7585   21.7233 C   0  0  0  0  0  0  0  0  0  0  0  0
   10.2192  -16.4483   21.4441 C   0  0  1  0  0  0  0  0  0  0  0  0
   10.3432  -15.7174   22.6307 O   0  0  0  0  0  0  0  0  0  0  0  0
   11.5804  -16.8330   20.8977 C   0  0  2  0  0  0  0  0  0  0  0  0
   11.4854  -17.6066   19.6933 N   0  0  0  0  0  0  0  0  0  0  0  0
   12.2911  -17.5613   21.9808 C   0  0  0  0  0  0  0  0  0  0  0  0
   11.9965  -18.7242   22.3510 O   0  0  0  0  0  0  0  0  0  0  0  0
   13.3916  -16.9745   22.6993 N   0  0  0  0  0  0  0  0  0  0  0  0
   14.1018  -17.6835   23.7431 C   0  0  1  0  0  0  0  0  0  0  0  0
   15.5970  -17.6827   23.5343 C   0  0  0  0  0  0  0  0  0  0  0  0
   16.1221  -16.3889   23.0912 C   0  0  0  0  0  0  0  0  0  0  0  0
   15.8895  -15.3158   23.6727 O   0  0  0  0  0  0  0  0  0  0  0  0
   13.8478  -16.9755   25.0187 C   0  0  0  0  0  0  0  0  0  0  0  0
   14.3787  -17.3924   26.0754 O   0  0  0  0  0  0  0  0  0  0  0  0
   16.9199  -16.3517   21.9663 O   0  0  0  0  0  0  0  0  0  0  0  0
   13.0286  -15.8463   25.0914 O   0  0  0  0  0  0  0  0  0  0  0  0
  2  1  1  6
  2  3  1  0
  3  4  1  0
  4  8  1  0
  5  4  2  0
  6  2  1  0
  7  6  2  0
 10  9  1  1
 10 12  1  0
 11 10  1  0
 12 14  1  0
 12 13  1  6
 13  6  1  0
 14 16  1  0
 15 14  2  0
 16 17  1  0
 17 18  1  6
 17 21  1  0
 18 19  1  0
 19 20  2  0
 19 23  1  0
 21 22  2  0
 21 24  1  0
M  END
$$$$
