DTD.pdb
     RDKit          3D

 24 23  0  0  1  0  0  0  0  0999 V2000
    8.8284  -16.4790   16.3297 N   0  0  0  0  0  0  0  0  0  0  0  0
   10.1920  -16.0096   16.4789 C   0  0  1  0  0  0  0  0  0  0  0  0
   10.5657  -15.1506   15.2907 C   0  0  0  0  0  0  0  0  0  0  0  0
   10.3065  -15.8821   14.0404 C   0  0  0  0  0  0  0  0  0  0  0  0
   10.9715  -16.8944   13.7538 O   0  0  0  0  0  0  0  0  0  0  0  0
   10.3787  -15.2817   17.7600 C   0  0  0  0  0  0  0  0  0  0  0  0
   11.5091  -14.8315   18.0770 O   0  0  0  0  0  0  0  0  0  0  0  0
    9.3237  -15.4438   13.1845 O   0  0  0  0  0  0  0  0  0  0  0  0
    7.8694  -12.7253   19.6357 C   0  0  0  0  0  0  0  0  0  0  0  0
    8.2454  -13.8977   20.5508 C   0  0  1  0  0  0  0  0  0  0  0  0
    7.2064  -14.8346   20.5631 O   0  0  0  0  0  0  0  0  0  0  0  0
    9.5154  -14.5014   19.9832 C   0  0  2  0  0  0  0  0  0  0  0  0
    9.3170  -15.0589   18.6763 N   0  0  0  0  0  0  0  0  0  0  0  0
    9.9877  -15.5146   20.9625 C   0  0  0  0  0  0  0  0  0  0  0  0
    9.8172  -16.7509   20.8261 O   0  0  0  0  0  0  0  0  0  0  0  0
   10.6896  -15.1448   22.1634 N   0  0  0  0  0  0  0  0  0  0  0  0
   11.2388  -16.1276   23.0739 C   0  0  1  0  0  0  0  0  0  0  0  0
   12.5420  -15.6836   23.6934 C   0  0  0  0  0  0  0  0  0  0  0  0
   13.6874  -15.8033   22.7881 C   0  0  0  0  0  0  0  0  0  0  0  0
   13.6133  -16.2809   21.6435 O   0  0  0  0  0  0  0  0  0  0  0  0
   10.2739  -16.2988   24.1841 C   0  0  0  0  0  0  0  0  0  0  0  0
    9.3476  -15.4670   24.3340 O   0  0  0  0  0  0  0  0  0  0  0  0
   14.9204  -15.3634   23.2234 O   0  0  0  0  0  0  0  0  0  0  0  0
   10.3567  -17.3651   25.0827 O   0  0  0  0  0  0  0  0  0  0  0  0
  2  1  1  6
  2  3  1  0
  3  4  1  0
  4  8  1  0
  5  4  2  0
  6  2  1  0
  7  6  2  0
 10  9  1  6
 10 12  1  0
 11 10  1  0
 12 14  1  0
 12 13  1  6
 13  6  1  0
 14 16  1  0
 15 14  2  0
 16 17  1  0
 17 18  1  1
 17 21  1  0
 18 19  1  0
 19 20  2  0
 19 23  1  0
 21 22  2  0
 21 24  1  0
M  END
$$$$
