DTD.pdb
     RDKit          3D

 24 23  0  0  1  0  0  0  0  0999 V2000
    7.5505  -17.6803   17.9142 N   0  0  0  0  0  0  0  0  0  0  0  0
    8.9959  -17.7027   18.0258 C   0  0  1  0  0  0  0  0  0  0  0  0
    9.6130  -17.2896   16.7075 C   0  0  0  0  0  0  0  0  0  0  0  0
    9.3947  -18.3394   15.6995 C   0  0  0  0  0  0  0  0  0  0  0  0
    9.4477  -19.5408   16.0202 O   0  0  0  0  0  0  0  0  0  0  0  0
    9.4677  -16.8450   19.1428 C   0  0  0  0  0  0  0  0  0  0  0  0
   10.6462  -16.4069   19.1544 O   0  0  0  0  0  0  0  0  0  0  0  0
    9.1306  -17.9897   14.3963 O   0  0  0  0  0  0  0  0  0  0  0  0
    7.2988  -14.0470   21.0441 C   0  0  0  0  0  0  0  0  0  0  0  0
    7.9531  -14.9929   22.0590 C   0  0  1  0  0  0  0  0  0  0  0  0
    7.0089  -15.9209   22.5113 O   0  0  0  0  0  0  0  0  0  0  0  0
    9.0924  -15.6846   21.3359 C   0  0  2  0  0  0  0  0  0  0  0  0
    8.6347  -16.4807   20.2336 N   0  0  0  0  0  0  0  0  0  0  0  0
    9.8215  -16.4911   22.3491 C   0  0  0  0  0  0  0  0  0  0  0  0
    9.5856  -17.7024   22.5797 O   0  0  0  0  0  0  0  0  0  0  0  0
   10.8728  -15.9306   23.1567 N   0  0  0  0  0  0  0  0  0  0  0  0
   11.5158  -16.6764   24.2184 C   0  0  1  0  0  0  0  0  0  0  0  0
   12.8561  -16.0998   24.6061 C   0  0  0  0  0  0  0  0  0  0  0  0
   13.8720  -16.2335   23.5591 C   0  0  0  0  0  0  0  0  0  0  0  0
   13.7032  -16.8862   22.5154 O   0  0  0  0  0  0  0  0  0  0  0  0
   10.6497  -16.5883   25.4163 C   0  0  0  0  0  0  0  0  0  0  0  0
   10.9161  -17.2822   26.4261 O   0  0  0  0  0  0  0  0  0  0  0  0
   15.0862  -15.6025   23.7345 O   0  0  0  0  0  0  0  0  0  0  0  0
    9.5326  -15.7510   25.4655 O   0  0  0  0  0  0  0  0  0  0  0  0
  2  1  1  6
  2  3  1  0
  3  4  1  0
  4  8  1  0
  5  4  2  0
  6  2  1  0
  7  6  2  0
 10  9  1  6
 10 12  1  0
 11 10  1  0
 12 14  1  0
 12 13  1  6
 13  6  1  0
 14 16  1  0
 15 14  2  0
 16 17  1  0
 17 18  1  1
 17 21  1  0
 18 19  1  0
 19 20  2  0
 19 23  1  0
 21 22  2  0
 21 24  1  0
M  END
$$$$
