DTD.pdb
     RDKit          3D

 24 23  0  0  1  0  0  0  0  0999 V2000
    7.2476  -18.1387   18.2427 N   0  0  0  0  0  0  0  0  0  0  0  0
    8.5445  -17.6080   17.8704 C   0  0  1  0  0  0  0  0  0  0  0  0
    8.4214  -16.8259   16.5809 C   0  0  0  0  0  0  0  0  0  0  0  0
    7.9381  -17.7049   15.5042 C   0  0  0  0  0  0  0  0  0  0  0  0
    8.5377  -17.7539   14.4146 O   0  0  0  0  0  0  0  0  0  0  0  0
    9.1253  -16.7804   18.9584 C   0  0  0  0  0  0  0  0  0  0  0  0
   10.2425  -16.2237   18.8069 O   0  0  0  0  0  0  0  0  0  0  0  0
    6.8176  -18.4761   15.7042 O   0  0  0  0  0  0  0  0  0  0  0  0
    7.2931  -14.0762   21.1190 C   0  0  0  0  0  0  0  0  0  0  0  0
    7.9665  -15.0731   22.0708 C   0  0  1  0  0  0  0  0  0  0  0  0
    7.0123  -15.9717   22.5602 O   0  0  0  0  0  0  0  0  0  0  0  0
    9.0287  -15.7940   21.2637 C   0  0  2  0  0  0  0  0  0  0  0  0
    8.4676  -16.5767   20.2003 N   0  0  0  0  0  0  0  0  0  0  0  0
    9.8113  -16.6203   22.2194 C   0  0  0  0  0  0  0  0  0  0  0  0
    9.6016  -17.8415   22.4219 O   0  0  0  0  0  0  0  0  0  0  0  0
   10.8888  -16.0696   22.9987 N   0  0  0  0  0  0  0  0  0  0  0  0
   11.6696  -16.8716   23.9172 C   0  0  1  0  0  0  0  0  0  0  0  0
   13.0699  -16.3407   24.1087 C   0  0  0  0  0  0  0  0  0  0  0  0
   13.8692  -16.3512   22.8812 C   0  0  0  0  0  0  0  0  0  0  0  0
   13.7741  -17.2273   22.0052 O   0  0  0  0  0  0  0  0  0  0  0  0
   11.0055  -16.8131   25.2395 C   0  0  0  0  0  0  0  0  0  0  0  0
   10.0748  -15.9947   25.4300 O   0  0  0  0  0  0  0  0  0  0  0  0
   14.7805  -15.3353   22.6793 O   0  0  0  0  0  0  0  0  0  0  0  0
   11.3807  -17.6452   26.2969 O   0  0  0  0  0  0  0  0  0  0  0  0
  2  1  1  1
  2  3  1  0
  3  4  1  0
  4  8  1  0
  5  4  2  0
  6  2  1  0
  7  6  2  0
 10  9  1  6
 10 12  1  0
 11 10  1  0
 12 14  1  0
 12 13  1  6
 13  6  1  0
 14 16  1  0
 15 14  2  0
 16 17  1  0
 17 18  1  1
 17 21  1  0
 18 19  1  0
 19 20  2  0
 19 23  1  0
 21 22  2  0
 21 24  1  0
M  END
$$$$
