DTD.pdb
     RDKit          3D

 24 23  0  0  1  0  0  0  0  0999 V2000
   13.9253  -18.8536   12.5949 N   0  0  0  0  0  0  0  0  0  0  0  0
   14.0150  -17.4293   12.8506 C   0  0  1  0  0  0  0  0  0  0  0  0
   12.8692  -16.7176   12.1648 C   0  0  0  0  0  0  0  0  0  0  0  0
   12.8863  -17.0111   10.7229 C   0  0  0  0  0  0  0  0  0  0  0  0
   13.7362  -17.7866   10.2482 O   0  0  0  0  0  0  0  0  0  0  0  0
   14.0451  -17.1397   14.3070 C   0  0  0  0  0  0  0  0  0  0  0  0
   14.1448  -15.9557   14.7182 O   0  0  0  0  0  0  0  0  0  0  0  0
   11.9573  -16.4245    9.8962 O   0  0  0  0  0  0  0  0  0  0  0  0
   12.9650  -20.0247   17.2317 C   0  0  0  0  0  0  0  0  0  0  0  0
   12.8888  -18.5109   17.4669 C   0  0  1  0  0  0  0  0  0  0  0  0
   12.9959  -18.2432   18.8360 O   0  0  0  0  0  0  0  0  0  0  0  0
   14.0425  -17.8938   16.7003 C   0  0  2  0  0  0  0  0  0  0  0  0
   13.9651  -18.1589   15.2925 N   0  0  0  0  0  0  0  0  0  0  0  0
   15.2940  -18.4198   17.3050 C   0  0  0  0  0  0  0  0  0  0  0  0
   15.7701  -19.5534   17.0510 O   0  0  0  0  0  0  0  0  0  0  0  0
   16.0674  -17.6523   18.2454 N   0  0  0  0  0  0  0  0  0  0  0  0
   17.3365  -18.1159   18.7662 C   0  0  1  0  0  0  0  0  0  0  0  0
   18.2899  -16.9852   19.0689 C   0  0  0  0  0  0  0  0  0  0  0  0
   18.7903  -16.3091   17.8697 C   0  0  0  0  0  0  0  0  0  0  0  0
   18.6908  -16.7775   16.7231 O   0  0  0  0  0  0  0  0  0  0  0  0
   17.0695  -18.8054   20.0493 C   0  0  0  0  0  0  0  0  0  0  0  0
   17.9666  -19.5064   20.5747 O   0  0  0  0  0  0  0  0  0  0  0  0
   19.4077  -15.0837   18.0130 O   0  0  0  0  0  0  0  0  0  0  0  0
   15.8407  -18.7036   20.7058 O   0  0  0  0  0  0  0  0  0  0  0  0
  2  1  1  1
  2  3  1  0
  3  4  1  0
  4  8  1  0
  5  4  2  0
  6  2  1  0
  7  6  2  0
 10  9  1  1
 10 12  1  0
 11 10  1  0
 12 14  1  0
 12 13  1  6
 13  6  1  0
 14 16  1  0
 15 14  2  0
 16 17  1  0
 17 18  1  1
 17 21  1  0
 18 19  1  0
 19 20  2  0
 19 23  1  0
 21 22  2  0
 21 24  1  0
M  END
$$$$
