SNM.pdb
     RDKit          3D

 23 22  0  0  1  0  0  0  0  0999 V2000
   14.2314   -9.0253  -15.9970 O   0  0  0  0  0  0  0  0  0  0  0  0
   15.2661   -8.6653  -15.1367 C   0  0  0  0  0  0  0  0  0  0  0  0
   16.2285   -9.8340  -14.9767 C   0  0  2  0  0  0  0  0  0  0  0  0
   15.7682  -10.5977  -13.8456 N   0  0  0  0  0  0  0  0  0  0  0  0
   17.6195   -9.3904  -14.7375 C   0  0  0  0  0  0  0  0  0  0  0  0
   18.0591   -9.3756  -13.5635 O   0  0  0  0  0  0  0  0  0  0  0  0
   22.9231   -9.9325  -15.0996 N   0  0  0  0  0  0  0  0  0  0  0  0
   22.2195   -9.2785  -16.1507 C   0  0  0  0  0  0  0  0  0  0  0  0
   22.8709   -8.5086  -16.8763 O   0  0  0  0  0  0  0  0  0  0  0  0
   20.7735   -9.5703  -16.2911 C   0  0  0  0  0  0  0  0  0  0  0  0
   19.8986   -8.6607  -15.4796 C   0  0  2  0  0  0  0  0  0  0  0  0
   18.5167   -8.9709  -15.7576 N   0  0  0  0  0  0  0  0  0  0  0  0
   20.2015   -7.2684  -15.9112 C   0  0  0  0  0  0  0  0  0  0  0  0
   19.7996   -6.8432  -17.0381 O   0  0  0  0  0  0  0  0  0  0  0  0
   20.9333    0.3326  -14.7288 C   0  0  0  0  0  0  0  0  0  0  0  0
   20.6017   -1.3046  -14.0116 S   0  0  0  0  0  0  0  0  0  0  0  0
   21.2303   -2.5984  -15.1428 C   0  0  0  0  0  0  0  0  0  0  0  0
   20.8280   -3.9628  -14.6720 C   0  0  0  0  0  0  0  0  0  0  0  0
   21.2804   -5.0144  -15.6128 C   0  0  2  0  0  0  0  0  0  0  0  0
   20.9336   -6.3508  -15.1234 N   0  0  0  0  0  0  0  0  0  0  0  0
   22.7542   -5.0100  -15.7302 C   0  0  0  0  0  0  0  0  0  0  0  0
   23.3956   -4.3316  -16.5736 O   0  0  0  0  0  0  0  0  0  0  0  0
   23.5198   -5.8041  -14.8576 O   0  0  0  0  0  0  0  0  0  0  0  0
  1  2  1  0
  3  2  1  0
  3  5  1  0
  3  4  1  1
  5  6  2  0
  7  8  1  0
  8 10  1  0
  9  8  2  0
 11 10  1  6
 11 13  1  0
 12 11  1  0
 12  5  1  0
 13 14  2  0
 13 20  1  0
 16 15  1  0
 17 16  1  0
 18 17  1  0
 19 18  1  1
 20 19  1  0
 21 23  1  0
 21 19  1  0
 22 21  2  0
M  END
$$$$
