SNM.pdb
     RDKit          3D

 23 22  0  0  1  0  0  0  0  0999 V2000
   16.0740  -13.1347  -17.4316 O   0  0  0  0  0  0  0  0  0  0  0  0
   16.6781  -13.7809  -16.3556 C   0  0  0  0  0  0  0  0  0  0  0  0
   17.1197  -12.7524  -15.3236 C   0  0  2  0  0  0  0  0  0  0  0  0
   15.9233  -12.1186  -14.8323 N   0  0  0  0  0  0  0  0  0  0  0  0
   18.0189  -11.7276  -15.8979 C   0  0  0  0  0  0  0  0  0  0  0  0
   19.1732  -12.0628  -16.2541 O   0  0  0  0  0  0  0  0  0  0  0  0
   18.4678   -5.7115  -17.1458 N   0  0  0  0  0  0  0  0  0  0  0  0
   18.7053   -7.0677  -17.5089 C   0  0  0  0  0  0  0  0  0  0  0  0
   19.5985   -7.2830  -18.3454 O   0  0  0  0  0  0  0  0  0  0  0  0
   17.8701   -8.1058  -16.8607 C   0  0  0  0  0  0  0  0  0  0  0  0
   18.5868   -9.4081  -16.6562 C   0  0  2  0  0  0  0  0  0  0  0  0
   17.6683  -10.3620  -16.0820 N   0  0  0  0  0  0  0  0  0  0  0  0
   19.7024   -9.1448  -15.7061 C   0  0  0  0  0  0  0  0  0  0  0  0
   19.4750   -9.0379  -14.4615 O   0  0  0  0  0  0  0  0  0  0  0  0
   26.7175  -10.2724  -16.2552 C   0  0  0  0  0  0  0  0  0  0  0  0
   25.7111  -10.8780  -14.8678 S   0  0  0  0  0  0  0  0  0  0  0  0
   24.3884   -9.6660  -14.5065 C   0  0  0  0  0  0  0  0  0  0  0  0
   23.2162   -9.8651  -15.4182 C   0  0  0  0  0  0  0  0  0  0  0  0
   22.1402   -8.8860  -15.1367 C   0  0  2  0  0  0  0  0  0  0  0  0
   21.0500   -8.9999  -16.1084 N   0  0  0  0  0  0  0  0  0  0  0  0
   22.6447   -7.5031  -15.2736 C   0  0  0  0  0  0  0  0  0  0  0  0
   22.8930   -6.7403  -14.3044 O   0  0  0  0  0  0  0  0  0  0  0  0
   22.8734   -6.9743  -16.5567 O   0  0  0  0  0  0  0  0  0  0  0  0
  1  2  1  0
  3  2  1  0
  3  5  1  0
  3  4  1  6
  5  6  2  0
  7  8  1  0
  8 10  1  0
  9  8  2  0
 11 10  1  1
 11 13  1  0
 12 11  1  0
 12  5  1  0
 13 14  2  0
 13 20  1  0
 16 15  1  0
 17 16  1  0
 18 17  1  0
 19 18  1  6
 20 19  1  0
 21 23  1  0
 21 19  1  0
 22 21  2  0
M  END
$$$$
