SNM.pdb
     RDKit          3D

 23 22  0  0  1  0  0  0  0  0999 V2000
   14.7191  -10.1205  -17.8891 O   0  0  0  0  0  0  0  0  0  0  0  0
   15.6800   -9.3848  -17.1995 C   0  0  0  0  0  0  0  0  0  0  0  0
   16.2647  -10.2315  -16.0774 C   0  0  2  0  0  0  0  0  0  0  0  0
   15.1980  -10.4697  -15.1394 N   0  0  0  0  0  0  0  0  0  0  0  0
   17.3853   -9.5563  -15.3867 C   0  0  0  0  0  0  0  0  0  0  0  0
   17.2151   -9.1391  -14.2168 O   0  0  0  0  0  0  0  0  0  0  0  0
   21.9918   -7.6596  -14.0612 N   0  0  0  0  0  0  0  0  0  0  0  0
   22.0833   -9.0199  -14.4722 C   0  0  0  0  0  0  0  0  0  0  0  0
   23.1312   -9.6271  -14.1950 O   0  0  0  0  0  0  0  0  0  0  0  0
   20.9243   -9.5960  -15.1938 C   0  0  0  0  0  0  0  0  0  0  0  0
   19.7303   -8.6881  -15.2285 C   0  0  2  0  0  0  0  0  0  0  0  0
   18.6690   -9.3393  -15.9584 N   0  0  0  0  0  0  0  0  0  0  0  0
   20.1478   -7.4490  -15.9406 C   0  0  0  0  0  0  0  0  0  0  0  0
   20.3562   -7.4668  -17.1930 O   0  0  0  0  0  0  0  0  0  0  0  0
   17.0367   -2.6962  -17.2930 C   0  0  0  0  0  0  0  0  0  0  0  0
   18.5377   -1.6927  -17.0820 S   0  0  0  0  0  0  0  0  0  0  0  0
   19.9778   -2.7993  -16.8571 C   0  0  0  0  0  0  0  0  0  0  0  0
   19.5891   -4.0390  -16.1106 C   0  0  0  0  0  0  0  0  0  0  0  0
   20.7152   -4.9989  -16.0336 C   0  0  2  0  0  0  0  0  0  0  0  0
   20.3358   -6.2056  -15.2948 N   0  0  0  0  0  0  0  0  0  0  0  0
   21.8459   -4.4167  -15.2796 C   0  0  0  0  0  0  0  0  0  0  0  0
   22.7536   -3.7139  -15.7943 O   0  0  0  0  0  0  0  0  0  0  0  0
   21.9435   -4.6434  -13.8949 O   0  0  0  0  0  0  0  0  0  0  0  0
  1  2  1  0
  3  2  1  0
  3  5  1  0
  3  4  1  1
  5  6  2  0
  7  8  1  0
  8 10  1  0
  9  8  2  0
 11 10  1  6
 11 13  1  0
 12 11  1  0
 12  5  1  0
 13 14  2  0
 13 20  1  0
 16 15  1  0
 17 16  1  0
 18 17  1  0
 19 18  1  1
 20 19  1  0
 21 23  1  0
 21 19  1  0
 22 21  2  0
M  END
$$$$
