SNM.pdb
     RDKit          3D

 23 22  0  0  1  0  0  0  0  0999 V2000
   21.1853  -20.9031  -16.2247 O   0  0  0  0  0  0  0  0  0  0  0  0
   21.1188  -19.7973  -17.0692 C   0  0  0  0  0  0  0  0  0  0  0  0
   21.1090  -18.5204  -16.2403 C   0  0  2  0  0  0  0  0  0  0  0  0
   19.9304  -18.5719  -15.4140 N   0  0  0  0  0  0  0  0  0  0  0  0
   21.0680  -17.3032  -17.0802 C   0  0  0  0  0  0  0  0  0  0  0  0
   21.9207  -17.1627  -17.9884 O   0  0  0  0  0  0  0  0  0  0  0  0
   17.0428  -14.4926  -19.6865 N   0  0  0  0  0  0  0  0  0  0  0  0
   17.9327  -15.2591  -18.8814 C   0  0  0  0  0  0  0  0  0  0  0  0
   17.9527  -16.4871  -19.0693 O   0  0  0  0  0  0  0  0  0  0  0  0
   18.7581  -14.5304  -17.8899 C   0  0  0  0  0  0  0  0  0  0  0  0
   20.1511  -15.0721  -17.7579 C   0  0  2  0  0  0  0  0  0  0  0  0
   20.1157  -16.2574  -16.9351 N   0  0  0  0  0  0  0  0  0  0  0  0
   20.9653  -14.0183  -17.0923 C   0  0  0  0  0  0  0  0  0  0  0  0
   20.7151  -13.6723  -15.8966 O   0  0  0  0  0  0  0  0  0  0  0  0
   27.7696  -11.3367  -14.8941 C   0  0  0  0  0  0  0  0  0  0  0  0
   26.7472  -12.6049  -15.7007 S   0  0  0  0  0  0  0  0  0  0  0  0
   25.0942  -11.9081  -16.0628 C   0  0  0  0  0  0  0  0  0  0  0  0
   24.2160  -12.9276  -16.7220 C   0  0  0  0  0  0  0  0  0  0  0  0
   22.8712  -12.3767  -17.0110 C   0  0  2  0  0  0  0  0  0  0  0  0
   22.0395  -13.3498  -17.7231 N   0  0  0  0  0  0  0  0  0  0  0  0
   22.9687  -11.2095  -17.9132 C   0  0  0  0  0  0  0  0  0  0  0  0
   22.9572  -11.2820  -19.1692 O   0  0  0  0  0  0  0  0  0  0  0  0
   23.0825   -9.9193  -17.3649 O   0  0  0  0  0  0  0  0  0  0  0  0
  1  2  1  0
  3  2  1  0
  3  5  1  0
  3  4  1  1
  5  6  2  0
  7  8  1  0
  8 10  1  0
  9  8  2  0
 11 10  1  1
 11 13  1  0
 12 11  1  0
 12  5  1  0
 13 14  2  0
 13 20  1  0
 16 15  1  0
 17 16  1  0
 18 17  1  0
 19 18  1  6
 20 19  1  0
 21 23  1  0
 21 19  1  0
 22 21  2  0
M  END
$$$$
