HCM.pdb
     RDKit          3D

 25 25  0  0  1  0  0  0  0  0999 V2000
   16.7849   -9.8812  -15.2912 N   0  0  0  0  0  0  0  0  0  0  0  0
   17.1497  -10.3415  -13.9642 C   0  0  1  0  0  0  0  0  0  0  0  0
   18.3538  -11.2292  -14.0906 C   0  0  0  0  0  0  0  0  0  0  0  0
   17.9493  -12.4379  -14.8385 C   0  0  0  0  0  0  0  0  0  0  0  0
   18.4865  -12.8335  -16.0443 C   0  0  0  0  0  0  0  0  0  0  0  0
   17.9064  -13.9715  -16.4563 N   0  0  0  0  0  0  0  0  0  0  0  0
   17.0050  -14.3084  -15.5287 C   0  0  0  0  0  0  0  0  0  0  0  0
   17.0309  -13.3703  -14.5386 N   0  0  0  0  0  0  0  0  0  0  0  0
   17.3902   -9.1387  -13.1299 C   0  0  0  0  0  0  0  0  0  0  0  0
   17.9080   -9.2259  -11.9909 O   0  0  0  0  0  0  0  0  0  0  0  0
   17.0451   -7.8397  -13.5842 N   0  0  0  0  0  0  0  0  0  0  0  0
   17.1335   -6.6315  -12.7965 C   0  0  1  0  0  0  0  0  0  0  0  0
   17.5184   -5.5025  -13.7255 C   0  0  0  0  0  0  0  0  0  0  0  0
   17.5716   -3.9042  -12.9120 S   0  0  0  0  0  0  0  0  0  0  0  0
   15.8786   -6.3277  -12.0845 C   0  0  0  0  0  0  0  0  0  0  0  0
   14.7710   -6.3450  -12.6497 O   0  0  0  0  0  0  0  0  0  0  0  0
   11.4819   -7.6758   -5.8526 C   0  0  0  0  0  0  0  0  0  0  0  0
   12.8220   -7.9171   -7.0025 S   0  0  0  0  0  0  0  0  0  0  0  0
   13.2859   -6.5254   -8.0028 C   0  0  0  0  0  0  0  0  0  0  0  0
   14.3783   -6.7118   -8.9687 C   0  0  0  0  0  0  0  0  0  0  0  0
   14.8008   -5.6510   -9.8865 C   0  0  2  0  0  0  0  0  0  0  0  0
   15.9363   -6.0038  -10.7037 N   0  0  0  0  0  0  0  0  0  0  0  0
   14.9598   -4.2934   -9.3696 C   0  0  0  0  0  0  0  0  0  0  0  0
   16.0632   -3.7118   -9.4352 O   0  0  0  0  0  0  0  0  0  0  0  0
   13.8927   -3.6321   -8.8001 O   0  0  0  0  0  0  0  0  0  0  0  0
  2  9  1  0
  2  1  1  6
  3  2  1  0
  4  3  1  0
  5  4  2  0
  6  7  1  0
  6  5  1  0
  7  8  2  0
  8  4  1  0
  9 10  2  0
 11 12  1  0
 11  9  1  0
 12 13  1  6
 14 13  1  0
 15 12  1  0
 15 16  2  0
 17 18  1  0
 19 18  1  0
 20 19  1  0
 21 22  1  0
 21 20  1  1
 22 15  1  0
 23 21  1  0
 24 23  2  0
 25 23  1  0
M  END
$$$$
