HCM.pdb
     RDKit          3D

 25 25  0  0  1  0  0  0  0  0999 V2000
   25.1547  -33.2882  -15.0378 N   0  0  0  0  0  0  0  0  0  0  0  0
   24.6631  -34.0990  -13.9393 C   0  0  1  0  0  0  0  0  0  0  0  0
   25.2363  -35.4792  -14.0824 C   0  0  0  0  0  0  0  0  0  0  0  0
   24.4113  -36.2130  -15.0646 C   0  0  0  0  0  0  0  0  0  0  0  0
   24.9080  -37.0508  -16.0396 C   0  0  0  0  0  0  0  0  0  0  0  0
   23.9010  -37.5629  -16.7642 N   0  0  0  0  0  0  0  0  0  0  0  0
   22.7667  -37.0628  -16.2644 C   0  0  0  0  0  0  0  0  0  0  0  0
   23.0784  -36.2368  -15.2245 N   0  0  0  0  0  0  0  0  0  0  0  0
   25.0608  -33.4241  -12.6795 C   0  0  0  0  0  0  0  0  0  0  0  0
   26.1992  -32.9165  -12.5410 O   0  0  0  0  0  0  0  0  0  0  0  0
   24.1714  -33.3244  -11.5787 N   0  0  0  0  0  0  0  0  0  0  0  0
   24.4923  -32.7326  -10.3001 C   0  0  1  0  0  0  0  0  0  0  0  0
   23.3939  -31.7520   -9.9572 C   0  0  0  0  0  0  0  0  0  0  0  0
   24.0077  -30.2208   -9.2516 S   0  0  0  0  0  0  0  0  0  0  0  0
   24.6551  -33.7398   -9.2356 C   0  0  0  0  0  0  0  0  0  0  0  0
   24.0250  -34.8120   -9.2311 O   0  0  0  0  0  0  0  0  0  0  0  0
   28.4602  -32.8549   -3.0000 C   0  0  0  0  0  0  0  0  0  0  0  0
   28.8238  -34.1410   -4.1791 S   0  0  0  0  0  0  0  0  0  0  0  0
   27.4620  -34.7741   -5.1264 C   0  0  0  0  0  0  0  0  0  0  0  0
   26.9957  -33.9767   -6.2700 C   0  0  0  0  0  0  0  0  0  0  0  0
   25.8412  -34.3719   -7.0806 C   0  0  2  0  0  0  0  0  0  0  0  0
   25.5640  -33.4766   -8.1776 N   0  0  0  0  0  0  0  0  0  0  0  0
   24.5970  -34.7352   -6.4057 C   0  0  0  0  0  0  0  0  0  0  0  0
   23.7031  -33.8838   -6.2156 O   0  0  0  0  0  0  0  0  0  0  0  0
   24.3901  -36.0256   -5.9670 O   0  0  0  0  0  0  0  0  0  0  0  0
  2  9  1  0
  2  1  1  6
  3  2  1  0
  4  3  1  0
  5  4  2  0
  6  7  1  0
  6  5  1  0
  7  8  2  0
  8  4  1  0
  9 10  2  0
 11 12  1  0
 11  9  1  0
 12 13  1  1
 14 13  1  0
 15 12  1  0
 15 16  2  0
 17 18  1  0
 19 18  1  0
 20 19  1  0
 21 22  1  0
 21 20  1  1
 22 15  1  0
 23 21  1  0
 24 23  2  0
 25 23  1  0
M  END
$$$$
