HCM.pdb
     RDKit          3D

 25 25  0  0  1  0  0  0  0  0999 V2000
   25.3948  -19.6001  -15.5072 N   0  0  0  0  0  0  0  0  0  0  0  0
   26.4080  -19.7687  -14.4820 C   0  0  1  0  0  0  0  0  0  0  0  0
   27.6250  -18.9920  -14.8936 C   0  0  0  0  0  0  0  0  0  0  0  0
   28.1984  -19.6471  -16.0877 C   0  0  0  0  0  0  0  0  0  0  0  0
   28.3264  -19.0542  -17.3252 C   0  0  0  0  0  0  0  0  0  0  0  0
   28.8861  -19.9125  -18.1920 N   0  0  0  0  0  0  0  0  0  0  0  0
   29.1176  -21.0467  -17.5239 C   0  0  0  0  0  0  0  0  0  0  0  0
   28.6970  -20.8849  -16.2364 N   0  0  0  0  0  0  0  0  0  0  0  0
   25.8208  -19.3071  -13.2003 C   0  0  0  0  0  0  0  0  0  0  0  0
   25.2313  -18.2038  -13.1110 O   0  0  0  0  0  0  0  0  0  0  0  0
   25.9009  -20.0933  -12.0220 N   0  0  0  0  0  0  0  0  0  0  0  0
   25.3159  -19.7449  -10.7474 C   0  0  1  0  0  0  0  0  0  0  0  0
   23.8127  -19.7977  -10.9002 C   0  0  0  0  0  0  0  0  0  0  0  0
   23.1962  -21.4426  -11.2647 S   0  0  0  0  0  0  0  0  0  0  0  0
   25.7693  -20.6277   -9.6569 C   0  0  0  0  0  0  0  0  0  0  0  0
   25.8764  -21.8587   -9.7974 O   0  0  0  0  0  0  0  0  0  0  0  0
   28.2824  -17.7955   -4.0634 C   0  0  0  0  0  0  0  0  0  0  0  0
   29.3318  -18.5415   -5.2956 S   0  0  0  0  0  0  0  0  0  0  0  0
   28.5443  -19.5738   -6.5068 C   0  0  0  0  0  0  0  0  0  0  0  0
   27.1823  -20.0469   -6.2199 C   0  0  0  0  0  0  0  0  0  0  0  0
   26.3912  -20.7948   -7.2001 C   0  0  2  0  0  0  0  0  0  0  0  0
   26.0956  -20.0520   -8.4012 N   0  0  0  0  0  0  0  0  0  0  0  0
   25.1984  -21.5076   -6.7473 C   0  0  0  0  0  0  0  0  0  0  0  0
   24.0684  -21.1979   -7.1801 O   0  0  0  0  0  0  0  0  0  0  0  0
   25.3017  -22.5345   -5.8335 O   0  0  0  0  0  0  0  0  0  0  0  0
  2  9  1  0
  2  1  1  6
  3  2  1  0
  4  3  1  0
  5  4  2  0
  6  7  1  0
  6  5  1  0
  7  8  2  0
  8  4  1  0
  9 10  2  0
 11 12  1  0
 11  9  1  0
 12 13  1  6
 14 13  1  0
 15 12  1  0
 15 16  2  0
 17 18  1  0
 19 18  1  0
 20 19  1  0
 21 22  1  0
 21 20  1  1
 22 15  1  0
 23 21  1  0
 24 23  2  0
 25 23  1  0
M  END
$$$$
