HCM.pdb
     RDKit          3D

 25 25  0  0  1  0  0  0  0  0999 V2000
   18.5903  -12.3655  -16.8843 N   0  0  0  0  0  0  0  0  0  0  0  0
   19.2277  -11.3185  -17.6612 C   0  0  1  0  0  0  0  0  0  0  0  0
   18.3385  -10.9918  -18.8259 C   0  0  0  0  0  0  0  0  0  0  0  0
   18.3724  -12.1383  -19.7577 C   0  0  0  0  0  0  0  0  0  0  0  0
   19.4762  -12.9294  -19.9919 C   0  0  0  0  0  0  0  0  0  0  0  0
   19.1779  -13.8838  -20.8871 N   0  0  0  0  0  0  0  0  0  0  0  0
   17.8969  -13.7126  -21.2281 C   0  0  0  0  0  0  0  0  0  0  0  0
   17.4036  -12.6448  -20.5373 N   0  0  0  0  0  0  0  0  0  0  0  0
   19.4530  -10.1683  -16.7519 C   0  0  0  0  0  0  0  0  0  0  0  0
   18.5040   -9.6242  -16.1385 O   0  0  0  0  0  0  0  0  0  0  0  0
   20.7502   -9.6352  -16.5375 N   0  0  0  0  0  0  0  0  0  0  0  0
   21.0540   -8.4941  -15.7046 C   0  0  1  0  0  0  0  0  0  0  0  0
   22.4233   -8.7141  -15.1027 C   0  0  0  0  0  0  0  0  0  0  0  0
   22.4136   -9.8620  -13.7239 S   0  0  0  0  0  0  0  0  0  0  0  0
   20.9996   -7.2215  -16.4473 C   0  0  0  0  0  0  0  0  0  0  0  0
   21.4980   -7.0888  -17.5790 O   0  0  0  0  0  0  0  0  0  0  0  0
   15.9223   -2.0024  -18.9580 C   0  0  0  0  0  0  0  0  0  0  0  0
   16.5144   -3.5012  -18.1968 S   0  0  0  0  0  0  0  0  0  0  0  0
   18.1970   -3.5067  -17.6299 C   0  0  0  0  0  0  0  0  0  0  0  0
   18.7039   -4.7374  -17.0057 C   0  0  0  0  0  0  0  0  0  0  0  0
   20.0780   -4.8557  -16.5119 C   0  0  2  0  0  0  0  0  0  0  0  0
   20.3549   -6.1072  -15.8495 N   0  0  0  0  0  0  0  0  0  0  0  0
   20.6506   -3.7490  -15.7483 C   0  0  0  0  0  0  0  0  0  0  0  0
   20.8245   -3.8482  -14.5154 O   0  0  0  0  0  0  0  0  0  0  0  0
   21.0080   -2.5758  -16.3777 O   0  0  0  0  0  0  0  0  0  0  0  0
  2  9  1  0
  2  1  1  1
  3  2  1  0
  4  3  1  0
  5  4  2  0
  6  7  1  0
  6  5  1  0
  7  8  2  0
  8  4  1  0
  9 10  2  0
 11 12  1  0
 11  9  1  0
 12 13  1  6
 14 13  1  0
 15 12  1  0
 15 16  2  0
 17 18  1  0
 19 18  1  0
 20 19  1  0
 21 22  1  0
 21 20  1  1
 22 15  1  0
 23 21  1  0
 24 23  2  0
 25 23  1  0
M  END
$$$$
