HCM.pdb
     RDKit          3D

 25 25  0  0  1  0  0  0  0  0999 V2000
   19.1846  -12.5221  -16.5918 N   0  0  0  0  0  0  0  0  0  0  0  0
   18.8397  -11.1363  -16.8497 C   0  0  1  0  0  0  0  0  0  0  0  0
   17.3432  -11.0278  -16.9021 C   0  0  0  0  0  0  0  0  0  0  0  0
   16.8805  -11.7259  -18.1196 C   0  0  0  0  0  0  0  0  0  0  0  0
   16.8320  -11.1652  -19.3776 C   0  0  0  0  0  0  0  0  0  0  0  0
   16.3687  -12.0604  -20.2638 N   0  0  0  0  0  0  0  0  0  0  0  0
   16.1204  -13.1864  -19.5879 C   0  0  0  0  0  0  0  0  0  0  0  0
   16.4334  -12.9823  -18.2759 N   0  0  0  0  0  0  0  0  0  0  0  0
   19.4516  -10.3207  -15.7722 C   0  0  0  0  0  0  0  0  0  0  0  0
   18.8578  -10.1216  -14.6857 O   0  0  0  0  0  0  0  0  0  0  0  0
   20.7333   -9.7317  -15.9247 N   0  0  0  0  0  0  0  0  0  0  0  0
   21.4098   -8.9395  -14.9234 C   0  0  1  0  0  0  0  0  0  0  0  0
   22.7799   -9.5411  -14.7076 C   0  0  0  0  0  0  0  0  0  0  0  0
   23.7325   -9.6915  -16.2205 S   0  0  0  0  0  0  0  0  0  0  0  0
   21.5086   -7.5172  -15.2994 C   0  0  0  0  0  0  0  0  0  0  0  0
   21.6767   -7.1492  -16.4754 O   0  0  0  0  0  0  0  0  0  0  0  0
   18.3460   -0.5793  -15.4311 C   0  0  0  0  0  0  0  0  0  0  0  0
   18.4732   -2.3432  -15.2101 S   0  0  0  0  0  0  0  0  0  0  0  0
   20.0916   -3.0007  -14.8915 C   0  0  0  0  0  0  0  0  0  0  0  0
   20.2283   -4.4609  -14.7906 C   0  0  0  0  0  0  0  0  0  0  0  0
   21.5087   -5.1082  -14.4946 C   0  0  2  0  0  0  0  0  0  0  0  0
   21.4081   -6.5319  -14.2826 N   0  0  0  0  0  0  0  0  0  0  0  0
   22.3829   -4.5135  -13.4858 C   0  0  0  0  0  0  0  0  0  0  0  0
   22.8880   -3.3854  -13.6655 O   0  0  0  0  0  0  0  0  0  0  0  0
   22.6646   -5.1895  -12.3179 O   0  0  0  0  0  0  0  0  0  0  0  0
  2  9  1  0
  2  1  1  1
  3  2  1  0
  4  3  1  0
  5  4  2  0
  6  7  1  0
  6  5  1  0
  7  8  2  0
  8  4  1  0
  9 10  2  0
 11 12  1  0
 11  9  1  0
 12 13  1  6
 14 13  1  0
 15 12  1  0
 15 16  2  0
 17 18  1  0
 19 18  1  0
 20 19  1  0
 21 22  1  0
 21 20  1  1
 22 15  1  0
 23 21  1  0
 24 23  2  0
 25 23  1  0
M  END
$$$$
