HCM.pdb
     RDKit          3D

 25 25  0  0  1  0  0  0  0  0999 V2000
   26.3723  -22.7308  -17.0062 N   0  0  0  0  0  0  0  0  0  0  0  0
   27.7130  -22.2396  -16.7471 C   0  0  1  0  0  0  0  0  0  0  0  0
   28.2473  -21.6434  -18.0171 C   0  0  0  0  0  0  0  0  0  0  0  0
   27.1033  -21.1023  -18.7802 C   0  0  0  0  0  0  0  0  0  0  0  0
   26.5660  -19.8451  -18.6070 C   0  0  0  0  0  0  0  0  0  0  0  0
   25.5414  -19.6610  -19.4541 N   0  0  0  0  0  0  0  0  0  0  0  0
   25.4170  -20.7849  -20.1667 C   0  0  0  0  0  0  0  0  0  0  0  0
   26.3724  -21.6671  -19.7548 N   0  0  0  0  0  0  0  0  0  0  0  0
   27.6186  -21.2644  -15.6332 C   0  0  0  0  0  0  0  0  0  0  0  0
   28.4840  -20.3713  -15.4711 O   0  0  0  0  0  0  0  0  0  0  0  0
   26.5466  -21.3005  -14.7045 N   0  0  0  0  0  0  0  0  0  0  0  0
   26.4323  -20.4634  -13.5322 C   0  0  1  0  0  0  0  0  0  0  0  0
   25.3706  -19.4235  -13.8099 C   0  0  0  0  0  0  0  0  0  0  0  0
   23.7223  -20.1170  -13.9555 S   0  0  0  0  0  0  0  0  0  0  0  0
   26.1143  -21.2341  -12.3160 C   0  0  0  0  0  0  0  0  0  0  0  0
   25.2857  -22.1614  -12.3126 O   0  0  0  0  0  0  0  0  0  0  0  0
   29.1557  -20.0252   -5.9955 C   0  0  0  0  0  0  0  0  0  0  0  0
   27.5649  -19.2582   -6.2340 S   0  0  0  0  0  0  0  0  0  0  0  0
   26.4680  -20.0240   -7.4016 C   0  0  0  0  0  0  0  0  0  0  0  0
   26.9557  -20.2125   -8.7755 C   0  0  0  0  0  0  0  0  0  0  0  0
   26.1656  -20.9019   -9.7985 C   0  0  2  0  0  0  0  0  0  0  0  0
   26.7781  -20.9061  -11.1049 N   0  0  0  0  0  0  0  0  0  0  0  0
   24.7416  -20.5949   -9.9154 C   0  0  0  0  0  0  0  0  0  0  0  0
   24.3472  -19.6763  -10.6642 O   0  0  0  0  0  0  0  0  0  0  0  0
   23.8095  -21.3153   -9.1994 O   0  0  0  0  0  0  0  0  0  0  0  0
  2  9  1  0
  2  1  1  6
  3  2  1  0
  4  3  1  0
  5  4  2  0
  6  7  1  0
  6  5  1  0
  7  8  2  0
  8  4  1  0
  9 10  2  0
 11 12  1  0
 11  9  1  0
 12 13  1  6
 14 13  1  0
 15 12  1  0
 15 16  2  0
 17 18  1  0
 19 18  1  0
 20 19  1  0
 21 22  1  0
 21 20  1  1
 22 15  1  0
 23 21  1  0
 24 23  2  0
 25 23  1  0
M  END
$$$$
