HCM.pdb
     RDKit          3D

 25 25  0  0  1  0  0  0  0  0999 V2000
   25.9419  -18.7130  -16.4408 N   0  0  0  0  0  0  0  0  0  0  0  0
   26.2756  -18.2588  -15.1035 C   0  0  1  0  0  0  0  0  0  0  0  0
   25.2067  -17.3062  -14.6518 C   0  0  0  0  0  0  0  0  0  0  0  0
   25.3524  -16.0590  -15.4309 C   0  0  0  0  0  0  0  0  0  0  0  0
   26.3408  -15.1191  -15.2337 C   0  0  0  0  0  0  0  0  0  0  0  0
   26.1959  -14.1081  -16.1044 N   0  0  0  0  0  0  0  0  0  0  0  0
   25.1271  -14.3900  -16.8558 C   0  0  0  0  0  0  0  0  0  0  0  0
   24.6106  -15.5836  -16.4441 N   0  0  0  0  0  0  0  0  0  0  0  0
   26.3928  -19.4624  -14.2444 C   0  0  0  0  0  0  0  0  0  0  0  0
   25.4620  -20.2988  -14.1604 O   0  0  0  0  0  0  0  0  0  0  0  0
   27.5614  -19.7185  -13.4818 N   0  0  0  0  0  0  0  0  0  0  0  0
   27.6902  -20.7482  -12.4762 C   0  0  1  0  0  0  0  0  0  0  0  0
   29.1650  -20.9609  -12.2202 C   0  0  0  0  0  0  0  0  0  0  0  0
   29.4929  -21.9908  -10.7882 S   0  0  0  0  0  0  0  0  0  0  0  0
   26.9786  -20.4129  -11.2291 C   0  0  0  0  0  0  0  0  0  0  0  0
   26.6808  -19.2441  -10.9257 O   0  0  0  0  0  0  0  0  0  0  0  0
   28.7960  -18.6192   -6.3232 C   0  0  0  0  0  0  0  0  0  0  0  0
   27.3786  -19.4352   -5.6152 S   0  0  0  0  0  0  0  0  0  0  0  0
   26.2688  -20.2440   -6.7408 C   0  0  0  0  0  0  0  0  0  0  0  0
   26.7947  -20.6341   -8.0570 C   0  0  0  0  0  0  0  0  0  0  0  0
   25.9610  -21.2841   -9.0713 C   0  0  2  0  0  0  0  0  0  0  0  0
   26.6200  -21.4617  -10.3425 N   0  0  0  0  0  0  0  0  0  0  0  0
   24.5975  -20.8009   -9.2787 C   0  0  0  0  0  0  0  0  0  0  0  0
   24.2813  -20.2213  -10.3389 O   0  0  0  0  0  0  0  0  0  0  0  0
   23.6372  -20.9771   -8.3055 O   0  0  0  0  0  0  0  0  0  0  0  0
  2  9  1  0
  2  1  1  6
  3  2  1  0
  4  3  1  0
  5  4  2  0
  6  7  1  0
  6  5  1  0
  7  8  2  0
  8  4  1  0
  9 10  2  0
 11 12  1  0
 11  9  1  0
 12 13  1  1
 14 13  1  0
 15 12  1  0
 15 16  2  0
 17 18  1  0
 19 18  1  0
 20 19  1  0
 21 22  1  0
 21 20  1  1
 22 15  1  0
 23 21  1  0
 24 23  2  0
 25 23  1  0
M  END
$$$$
