MAQ.pdb
     RDKit          3D

 23 22  0  0  1  0  0  0  0  0999 V2000
   27.8449  -19.5633   -7.3382 C   0  0  0  0  0  0  0  0  0  0  0  0
   26.2508  -20.3892   -7.0241 S   0  0  0  0  0  0  0  0  0  0  0  0
   25.5285  -20.9846   -8.5996 C   0  0  0  0  0  0  0  0  0  0  0  0
   25.9115  -20.0769   -9.7334 C   0  0  0  0  0  0  0  0  0  0  0  0
   25.4250  -20.5226  -11.0742 C   0  0  2  0  0  0  0  0  0  0  0  0
   25.9168  -21.8849  -11.2623 N   0  0  0  0  0  0  0  0  0  0  0  0
   25.7773  -19.6453  -12.1937 C   0  0  0  0  0  0  0  0  0  0  0  0
   25.1863  -18.5396  -12.3807 O   0  0  0  0  0  0  0  0  0  0  0  0
   28.5759  -19.1768  -14.5222 C   0  0  0  0  0  0  0  0  0  0  0  0
   27.0574  -19.1188  -14.2989 C   0  0  2  0  0  0  0  0  0  0  0  0
   26.7896  -19.9361  -13.1572 N   0  0  0  0  0  0  0  0  0  0  0  0
   26.3632  -19.5100  -15.5114 C   0  0  0  0  0  0  0  0  0  0  0  0
   26.1772  -20.7138  -15.7788 O   0  0  0  0  0  0  0  0  0  0  0  0
   20.6652  -18.1500  -15.6779 N   0  0  0  0  0  0  0  0  0  0  0  0
   21.5732  -17.9421  -16.7303 C   0  0  0  0  0  0  0  0  0  0  0  0
   21.2092  -17.6950  -17.8902 O   0  0  0  0  0  0  0  0  0  0  0  0
   23.0417  -18.0260  -16.4202 C   0  0  0  0  0  0  0  0  0  0  0  0
   23.6545  -19.1398  -17.2228 C   0  0  0  0  0  0  0  0  0  0  0  0
   25.0527  -18.8446  -17.5709 C   0  0  2  0  0  0  0  0  0  0  0  0
   25.8832  -18.5395  -16.4158 N   0  0  0  0  0  0  0  0  0  0  0  0
   25.2460  -17.8052  -18.5667 C   0  0  0  0  0  0  0  0  0  0  0  0
   25.9296  -16.7447  -18.2784 O   0  0  0  0  0  0  0  0  0  0  0  0
   24.7681  -17.7974  -19.8683 O   0  0  0  0  0  0  0  0  0  0  0  0
  2  1  1  0
  3  2  1  0
  4  3  1  0
  5  4  1  0
  5  6  1  6
  7 11  1  0
  7  5  1  0
  8  7  2  0
 10  9  1  6
 10 11  1  0
 10 12  1  0
 12 20  1  0
 13 12  2  0
 14 15  1  0
 15 17  1  0
 16 15  2  0
 17 18  1  0
 19 21  1  0
 19 18  1  1
 20 19  1  0
 21 23  1  0
 22 21  2  0
M  END
$$$$
