MAQ.pdb
     RDKit          3D

 23 22  0  0  1  0  0  0  0  0999 V2000
   16.1493  -13.7506  -20.7503 C   0  0  0  0  0  0  0  0  0  0  0  0
   16.9706  -12.4654  -19.7525 S   0  0  0  0  0  0  0  0  0  0  0  0
   18.4438  -13.1635  -18.9153 C   0  0  0  0  0  0  0  0  0  0  0  0
   19.1061  -12.1242  -18.0565 C   0  0  0  0  0  0  0  0  0  0  0  0
   20.3094  -12.6095  -17.3153 C   0  0  2  0  0  0  0  0  0  0  0  0
   19.9529  -13.9080  -16.7498 N   0  0  0  0  0  0  0  0  0  0  0  0
   20.8378  -11.6896  -16.3045 C   0  0  0  0  0  0  0  0  0  0  0  0
   20.1125  -11.2551  -15.3601 O   0  0  0  0  0  0  0  0  0  0  0  0
   24.1579  -10.1313  -15.5271 C   0  0  0  0  0  0  0  0  0  0  0  0
   22.6249  -10.1414  -15.4342 C   0  0  2  0  0  0  0  0  0  0  0  0
   22.1800  -11.2044  -16.2802 N   0  0  0  0  0  0  0  0  0  0  0  0
   22.0998   -8.8304  -15.7667 C   0  0  0  0  0  0  0  0  0  0  0  0
   21.4968   -8.6395  -16.8415 O   0  0  0  0  0  0  0  0  0  0  0  0
   17.5859   -6.4757  -15.7333 N   0  0  0  0  0  0  0  0  0  0  0  0
   18.1627   -5.1941  -15.7170 C   0  0  0  0  0  0  0  0  0  0  0  0
   17.4970   -4.1579  -15.8653 O   0  0  0  0  0  0  0  0  0  0  0  0
   19.6483   -5.0932  -15.5102 C   0  0  0  0  0  0  0  0  0  0  0  0
   20.2208   -6.4740  -15.3499 C   0  0  0  0  0  0  0  0  0  0  0  0
   21.6690   -6.4289  -15.0968 C   0  0  2  0  0  0  0  0  0  0  0  0
   22.2590   -7.7417  -14.8837 N   0  0  0  0  0  0  0  0  0  0  0  0
   22.0911   -5.5519  -14.0187 C   0  0  0  0  0  0  0  0  0  0  0  0
   22.2339   -6.0154  -12.8189 O   0  0  0  0  0  0  0  0  0  0  0  0
   22.3824   -4.1993  -14.1089 O   0  0  0  0  0  0  0  0  0  0  0  0
  2  1  1  0
  3  2  1  0
  4  3  1  0
  5  4  1  0
  5  6  1  1
  7 11  1  0
  7  5  1  0
  8  7  2  0
 10  9  1  6
 10 11  1  0
 10 12  1  0
 12 20  1  0
 13 12  2  0
 14 15  1  0
 15 17  1  0
 16 15  2  0
 17 18  1  0
 19 21  1  0
 19 18  1  1
 20 19  1  0
 21 23  1  0
 22 21  2  0
M  END
$$$$
