MAQ.pdb
     RDKit          3D

 23 22  0  0  1  0  0  0  0  0999 V2000
   27.2307  -19.7647  -15.0656 C   0  0  0  0  0  0  0  0  0  0  0  0
   26.5925  -18.1694  -14.4578 S   0  0  0  0  0  0  0  0  0  0  0  0
   26.4126  -16.9912  -15.8500 C   0  0  0  0  0  0  0  0  0  0  0  0
   26.0634  -15.6215  -15.3419 C   0  0  0  0  0  0  0  0  0  0  0  0
   25.7917  -14.6151  -16.4126 C   0  0  2  0  0  0  0  0  0  0  0  0
   26.6953  -14.9291  -17.5163 N   0  0  0  0  0  0  0  0  0  0  0  0
   25.8889  -13.2135  -15.9967 C   0  0  0  0  0  0  0  0  0  0  0  0
   25.1578  -12.7439  -15.0738 O   0  0  0  0  0  0  0  0  0  0  0  0
   27.9893  -10.2534  -16.9494 C   0  0  0  0  0  0  0  0  0  0  0  0
   26.7339  -10.8601  -16.3055 C   0  0  2  0  0  0  0  0  0  0  0  0
   26.7879  -12.2640  -16.5691 N   0  0  0  0  0  0  0  0  0  0  0  0
   25.5482  -10.1868  -16.8012 C   0  0  0  0  0  0  0  0  0  0  0  0
   24.9859  -10.5730  -17.8452 O   0  0  0  0  0  0  0  0  0  0  0  0
   20.4218  -10.1703  -14.7070 N   0  0  0  0  0  0  0  0  0  0  0  0
   20.1465   -9.0484  -15.5076 C   0  0  0  0  0  0  0  0  0  0  0  0
   19.0009   -8.5963  -15.6562 O   0  0  0  0  0  0  0  0  0  0  0  0
   21.2991   -8.3810  -16.2047 C   0  0  0  0  0  0  0  0  0  0  0  0
   22.5740   -9.0923  -15.8457 C   0  0  0  0  0  0  0  0  0  0  0  0
   23.7416   -8.4475  -16.4655 C   0  0  2  0  0  0  0  0  0  0  0  0
   25.0042   -9.0804  -16.1155 N   0  0  0  0  0  0  0  0  0  0  0  0
   23.8630   -7.0179  -16.2398 C   0  0  0  0  0  0  0  0  0  0  0  0
   24.8877   -6.5419  -15.6085 O   0  0  0  0  0  0  0  0  0  0  0  0
   22.9730   -6.0318  -16.6373 O   0  0  0  0  0  0  0  0  0  0  0  0
  2  1  1  0
  3  2  1  0
  4  3  1  0
  5  4  1  0
  5  6  1  6
  7 11  1  0
  7  5  1  0
  8  7  2  0
 10  9  1  6
 10 11  1  0
 10 12  1  0
 12 20  1  0
 13 12  2  0
 14 15  1  0
 15 17  1  0
 16 15  2  0
 17 18  1  0
 19 21  1  0
 19 18  1  1
 20 19  1  0
 21 23  1  0
 22 21  2  0
M  END
$$$$
