MAQ.pdb
     RDKit          3D

 23 22  0  0  1  0  0  0  0  0999 V2000
   19.8465  -15.8221  -18.3105 C   0  0  0  0  0  0  0  0  0  0  0  0
   19.3533  -16.6214  -16.7485 S   0  0  0  0  0  0  0  0  0  0  0  0
   18.1784  -15.5508  -15.8365 C   0  0  0  0  0  0  0  0  0  0  0  0
   18.4909  -14.1008  -16.0731 C   0  0  0  0  0  0  0  0  0  0  0  0
   17.6121  -13.1490  -15.3284 C   0  0  2  0  0  0  0  0  0  0  0  0
   16.2424  -13.6248  -15.5037 N   0  0  0  0  0  0  0  0  0  0  0  0
   17.7613  -11.7381  -15.6951 C   0  0  0  0  0  0  0  0  0  0  0  0
   18.8767  -11.1434  -15.6015 O   0  0  0  0  0  0  0  0  0  0  0  0
   15.5185   -9.1044  -17.1566 C   0  0  0  0  0  0  0  0  0  0  0  0
   16.8732   -9.5579  -16.5927 C   0  0  2  0  0  0  0  0  0  0  0  0
   16.7003  -10.9156  -16.1801 N   0  0  0  0  0  0  0  0  0  0  0  0
   17.3046   -8.6482  -15.5481 C   0  0  0  0  0  0  0  0  0  0  0  0
   16.8788   -8.7691  -14.3822 O   0  0  0  0  0  0  0  0  0  0  0  0
   22.8840   -6.3981  -14.8738 N   0  0  0  0  0  0  0  0  0  0  0  0
   22.2438   -5.5626  -13.9425 C   0  0  0  0  0  0  0  0  0  0  0  0
   22.8638   -4.7735  -13.2132 O   0  0  0  0  0  0  0  0  0  0  0  0
   20.7462   -5.6411  -13.8391 C   0  0  0  0  0  0  0  0  0  0  0  0
   20.2312   -6.6287  -14.8488 C   0  0  0  0  0  0  0  0  0  0  0  0
   18.7633   -6.7151  -14.8153 C   0  0  2  0  0  0  0  0  0  0  0  0
   18.2142   -7.6062  -15.8260 N   0  0  0  0  0  0  0  0  0  0  0  0
   18.0578   -5.4474  -14.8842 C   0  0  0  0  0  0  0  0  0  0  0  0
   17.6149   -5.0083  -16.0182 O   0  0  0  0  0  0  0  0  0  0  0  0
   17.7752   -4.5913  -13.8307 O   0  0  0  0  0  0  0  0  0  0  0  0
  2  1  1  0
  3  2  1  0
  4  3  1  0
  5  4  1  0
  5  6  1  6
  7 11  1  0
  7  5  1  0
  8  7  2  0
 10  9  1  1
 10 11  1  0
 10 12  1  0
 12 20  1  0
 13 12  2  0
 14 15  1  0
 15 17  1  0
 16 15  2  0
 17 18  1  0
 19 21  1  0
 19 18  1  6
 20 19  1  0
 21 23  1  0
 22 21  2  0
M  END
$$$$
