MAQ.pdb
     RDKit          3D

 23 22  0  0  1  0  0  0  0  0999 V2000
   24.0733  -15.9622    8.9814 C   0  0  0  0  0  0  0  0  0  0  0  0
   22.7085  -16.9899    8.3464 S   0  0  0  0  0  0  0  0  0  0  0  0
   21.1053  -16.1434    8.6142 C   0  0  0  0  0  0  0  0  0  0  0  0
   19.9711  -16.9846    8.1022 C   0  0  0  0  0  0  0  0  0  0  0  0
   18.6131  -16.4216    8.3703 C   0  0  2  0  0  0  0  0  0  0  0  0
   18.3873  -16.5492    9.8077 N   0  0  0  0  0  0  0  0  0  0  0  0
   17.5242  -17.0059    7.5830 C   0  0  0  0  0  0  0  0  0  0  0  0
   17.0189  -18.1292    7.8820 O   0  0  0  0  0  0  0  0  0  0  0  0
   15.2888  -15.9034    4.8018 C   0  0  0  0  0  0  0  0  0  0  0  0
   15.9674  -17.0251    5.6021 C   0  0  2  0  0  0  0  0  0  0  0  0
   16.9393  -16.3898    6.4358 N   0  0  0  0  0  0  0  0  0  0  0  0
   16.4954  -18.0292    4.6977 C   0  0  0  0  0  0  0  0  0  0  0  0
   17.6861  -17.9912    4.3288 O   0  0  0  0  0  0  0  0  0  0  0  0
   17.0856  -23.8719    6.6490 N   0  0  0  0  0  0  0  0  0  0  0  0
   17.5225  -22.9011    5.7314 C   0  0  0  0  0  0  0  0  0  0  0  0
   18.6916  -22.8462    5.3201 O   0  0  0  0  0  0  0  0  0  0  0  0
   16.5191  -21.8962    5.2384 C   0  0  0  0  0  0  0  0  0  0  0  0
   17.1709  -21.0053    4.2178 C   0  0  0  0  0  0  0  0  0  0  0  0
   16.1734  -20.2205    3.4746 C   0  0  2  0  0  0  0  0  0  0  0  0
   15.6757  -19.0706    4.2143 N   0  0  0  0  0  0  0  0  0  0  0  0
   15.0379  -20.9692    2.9652 C   0  0  0  0  0  0  0  0  0  0  0  0
   13.8586  -20.7869    3.4663 O   0  0  0  0  0  0  0  0  0  0  0  0
   15.0481  -21.9112    1.9477 O   0  0  0  0  0  0  0  0  0  0  0  0
  2  1  1  0
  3  2  1  0
  4  3  1  0
  5  4  1  0
  5  6  1  1
  7 11  1  0
  7  5  1  0
  8  7  2  0
 10  9  1  6
 10 11  1  0
 10 12  1  0
 12 20  1  0
 13 12  2  0
 14 15  1  0
 15 17  1  0
 16 15  2  0
 17 18  1  0
 19 21  1  0
 19 18  1  1
 20 19  1  0
 21 23  1  0
 22 21  2  0
M  END
$$$$
