MAQ.pdb
     RDKit          3D

 23 22  0  0  1  0  0  0  0  0999 V2000
   26.4809  -19.6737   -7.4230 C   0  0  0  0  0  0  0  0  0  0  0  0
   27.7047  -20.7247   -8.2712 S   0  0  0  0  0  0  0  0  0  0  0  0
   27.1282  -21.1215   -9.9650 C   0  0  0  0  0  0  0  0  0  0  0  0
   25.6424  -20.9316  -10.0760 C   0  0  0  0  0  0  0  0  0  0  0  0
   25.0618  -21.3482  -11.3884 C   0  0  2  0  0  0  0  0  0  0  0  0
   26.0068  -20.9180  -12.4156 N   0  0  0  0  0  0  0  0  0  0  0  0
   23.7007  -20.8738  -11.6521 C   0  0  0  0  0  0  0  0  0  0  0  0
   22.7584  -21.0724  -10.8279 O   0  0  0  0  0  0  0  0  0  0  0  0
   22.1443  -18.2077  -13.4996 C   0  0  0  0  0  0  0  0  0  0  0  0
   21.9867  -19.6681  -13.0507 C   0  0  2  0  0  0  0  0  0  0  0  0
   23.3091  -20.1622  -12.8259 N   0  0  0  0  0  0  0  0  0  0  0  0
   21.2128  -20.4068  -14.0308 C   0  0  0  0  0  0  0  0  0  0  0  0
   20.0074  -20.1471  -14.2176 O   0  0  0  0  0  0  0  0  0  0  0  0
   24.2302  -25.4008  -15.3016 N   0  0  0  0  0  0  0  0  0  0  0  0
   23.0201  -26.0368  -14.9752 C   0  0  0  0  0  0  0  0  0  0  0  0
   22.8477  -27.2579  -15.1090 O   0  0  0  0  0  0  0  0  0  0  0  0
   21.8994  -25.1874  -14.4436 C   0  0  0  0  0  0  0  0  0  0  0  0
   22.3718  -23.7656  -14.3192 C   0  0  0  0  0  0  0  0  0  0  0  0
   21.3496  -22.8172  -14.7873 C   0  0  2  0  0  0  0  0  0  0  0  0
   21.8043  -21.4351  -14.7942 N   0  0  0  0  0  0  0  0  0  0  0  0
   20.0723  -22.8801  -14.0987 C   0  0  0  0  0  0  0  0  0  0  0  0
   20.0189  -22.7617  -12.8111 O   0  0  0  0  0  0  0  0  0  0  0  0
   18.8228  -23.0590  -14.6727 O   0  0  0  0  0  0  0  0  0  0  0  0
  2  1  1  0
  3  2  1  0
  4  3  1  0
  5  4  1  0
  5  6  1  6
  7 11  1  0
  7  5  1  0
  8  7  2  0
 10  9  1  6
 10 11  1  0
 10 12  1  0
 12 20  1  0
 13 12  2  0
 14 15  1  0
 15 17  1  0
 16 15  2  0
 17 18  1  0
 19 21  1  0
 19 18  1  1
 20 19  1  0
 21 23  1  0
 22 21  2  0
M  END
$$$$
