MAQ.pdb
     RDKit          3D

 23 22  0  0  1  0  0  0  0  0999 V2000
   29.3959  -20.6298   -8.0214 C   0  0  0  0  0  0  0  0  0  0  0  0
   30.5807  -20.9409   -9.3709 S   0  0  0  0  0  0  0  0  0  0  0  0
   29.6994  -21.5649  -10.8516 C   0  0  0  0  0  0  0  0  0  0  0  0
   28.2597  -21.1371  -10.8297 C   0  0  0  0  0  0  0  0  0  0  0  0
   27.4480  -21.6373  -11.9803 C   0  0  2  0  0  0  0  0  0  0  0  0
   28.3967  -22.0127  -13.0254 N   0  0  0  0  0  0  0  0  0  0  0  0
   26.4181  -20.7170  -12.4696 C   0  0  0  0  0  0  0  0  0  0  0  0
   25.5051  -20.2784  -11.7075 O   0  0  0  0  0  0  0  0  0  0  0  0
   25.6060  -19.1117  -15.7679 C   0  0  0  0  0  0  0  0  0  0  0  0
   25.2651  -19.4329  -14.3052 C   0  0  2  0  0  0  0  0  0  0  0  0
   26.3399  -20.2353  -13.8110 N   0  0  0  0  0  0  0  0  0  0  0  0
   23.9528  -20.0467  -14.2257 C   0  0  0  0  0  0  0  0  0  0  0  0
   23.7973  -21.2547  -14.4939 O   0  0  0  0  0  0  0  0  0  0  0  0
   21.4792  -21.1692   -9.8904 N   0  0  0  0  0  0  0  0  0  0  0  0
   20.1671  -21.0115  -10.3688 C   0  0  0  0  0  0  0  0  0  0  0  0
   19.1962  -21.5990   -9.8677 O   0  0  0  0  0  0  0  0  0  0  0  0
   19.9493  -20.0893  -11.5358 C   0  0  0  0  0  0  0  0  0  0  0  0
   21.2707  -19.5176  -11.9685 C   0  0  0  0  0  0  0  0  0  0  0  0
   21.5813  -19.8768  -13.3606 C   0  0  2  0  0  0  0  0  0  0  0  0
   22.8231  -19.2927  -13.8443 N   0  0  0  0  0  0  0  0  0  0  0  0
   20.5337  -19.6026  -14.3286 C   0  0  0  0  0  0  0  0  0  0  0  0
   20.5829  -18.5347  -15.0580 O   0  0  0  0  0  0  0  0  0  0  0  0
   19.4185  -20.3824  -14.5946 O   0  0  0  0  0  0  0  0  0  0  0  0
  2  1  1  0
  3  2  1  0
  4  3  1  0
  5  4  1  0
  5  6  1  6
  7 11  1  0
  7  5  1  0
  8  7  2  0
 10  9  1  6
 10 11  1  0
 10 12  1  0
 12 20  1  0
 13 12  2  0
 14 15  1  0
 15 17  1  0
 16 15  2  0
 17 18  1  0
 19 21  1  0
 19 18  1  1
 20 19  1  0
 21 23  1  0
 22 21  2  0
M  END
$$$$
