MAQ.pdb
     RDKit          3D

 23 22  0  0  1  0  0  0  0  0999 V2000
   17.1051  -14.6332  -21.5650 C   0  0  0  0  0  0  0  0  0  0  0  0
   16.4959  -15.1236  -19.9187 S   0  0  0  0  0  0  0  0  0  0  0  0
   17.8801  -15.7557  -18.8974 C   0  0  0  0  0  0  0  0  0  0  0  0
   18.5791  -14.6260  -18.1965 C   0  0  0  0  0  0  0  0  0  0  0  0
   20.0693  -14.7356  -18.1803 C   0  0  2  0  0  0  0  0  0  0  0  0
   20.3867  -15.9747  -17.4752 N   0  0  0  0  0  0  0  0  0  0  0  0
   20.7781  -13.5813  -17.6214 C   0  0  0  0  0  0  0  0  0  0  0  0
   20.7371  -13.3145  -16.3829 O   0  0  0  0  0  0  0  0  0  0  0  0
   23.0792  -10.9346  -18.9572 C   0  0  0  0  0  0  0  0  0  0  0  0
   22.1905  -11.5068  -17.8428 C   0  0  2  0  0  0  0  0  0  0  0  0
   21.5622  -12.6686  -18.3893 N   0  0  0  0  0  0  0  0  0  0  0  0
   21.2803  -10.4847  -17.3612 C   0  0  0  0  0  0  0  0  0  0  0  0
   20.1412  -10.3626  -17.8542 O   0  0  0  0  0  0  0  0  0  0  0  0
   16.8450   -9.5658  -15.5222 N   0  0  0  0  0  0  0  0  0  0  0  0
   17.1875   -8.3942  -14.8255 C   0  0  0  0  0  0  0  0  0  0  0  0
   16.3382   -7.6246  -14.3507 O   0  0  0  0  0  0  0  0  0  0  0  0
   18.6471   -8.0758  -14.6581 C   0  0  0  0  0  0  0  0  0  0  0  0
   19.4659   -9.1192  -15.3659 C   0  0  0  0  0  0  0  0  0  0  0  0
   20.7849   -8.5957  -15.7526 C   0  0  2  0  0  0  0  0  0  0  0  0
   21.6615   -9.6057  -16.3258 N   0  0  0  0  0  0  0  0  0  0  0  0
   21.5109   -7.8908  -14.7107 C   0  0  0  0  0  0  0  0  0  0  0  0
   21.1165   -6.7228  -14.3168 O   0  0  0  0  0  0  0  0  0  0  0  0
   22.6402   -8.3306  -14.0369 O   0  0  0  0  0  0  0  0  0  0  0  0
  2  1  1  0
  3  2  1  0
  4  3  1  0
  5  4  1  0
  5  6  1  1
  7 11  1  0
  7  5  1  0
  8  7  2  0
 10  9  1  6
 10 11  1  0
 10 12  1  0
 12 20  1  0
 13 12  2  0
 14 15  1  0
 15 17  1  0
 16 15  2  0
 17 18  1  0
 19 21  1  0
 19 18  1  1
 20 19  1  0
 21 23  1  0
 22 21  2  0
M  END
$$$$
