MAQ.pdb
     RDKit          3D

 23 22  0  0  1  0  0  0  0  0999 V2000
   17.3808  -13.0234  -12.9105 C   0  0  0  0  0  0  0  0  0  0  0  0
   17.0425  -13.8223  -11.3077 S   0  0  0  0  0  0  0  0  0  0  0  0
   15.5838  -13.0480  -10.5133 C   0  0  0  0  0  0  0  0  0  0  0  0
   15.6051  -11.5585  -10.7058 C   0  0  0  0  0  0  0  0  0  0  0  0
   14.4144  -10.8459  -10.1514 C   0  0  2  0  0  0  0  0  0  0  0  0
   13.2555  -11.3342  -10.8941 N   0  0  0  0  0  0  0  0  0  0  0  0
   14.5001   -9.3830  -10.1545 C   0  0  0  0  0  0  0  0  0  0  0  0
   14.2597   -8.7073  -11.1996 O   0  0  0  0  0  0  0  0  0  0  0  0
   15.4517   -6.7569   -7.6416 C   0  0  0  0  0  0  0  0  0  0  0  0
   15.1408   -7.1960   -9.0802 C   0  0  2  0  0  0  0  0  0  0  0  0
   14.8514   -8.5945   -9.0177 N   0  0  0  0  0  0  0  0  0  0  0  0
   16.2387   -6.8340   -9.9569 C   0  0  0  0  0  0  0  0  0  0  0  0
   17.2446   -7.5649  -10.0531 O   0  0  0  0  0  0  0  0  0  0  0  0
   16.8245   -8.4681  -14.6980 N   0  0  0  0  0  0  0  0  0  0  0  0
   17.5353   -7.3301  -15.1164 C   0  0  0  0  0  0  0  0  0  0  0  0
   18.0695   -7.2470  -16.2329 O   0  0  0  0  0  0  0  0  0  0  0  0
   17.6427   -6.1758  -14.1595 C   0  0  0  0  0  0  0  0  0  0  0  0
   16.9202   -6.5189  -12.8865 C   0  0  0  0  0  0  0  0  0  0  0  0
   16.9955   -5.4190  -11.9130 C   0  0  2  0  0  0  0  0  0  0  0  0
   16.1949   -5.6482  -10.7199 N   0  0  0  0  0  0  0  0  0  0  0  0
   16.6842   -4.0986  -12.4319 C   0  0  0  0  0  0  0  0  0  0  0  0
   17.4820   -3.5237  -13.2733 O   0  0  0  0  0  0  0  0  0  0  0  0
   15.5752   -3.3233  -12.1294 O   0  0  0  0  0  0  0  0  0  0  0  0
  2  1  1  0
  3  2  1  0
  4  3  1  0
  5  4  1  0
  5  6  1  6
  7 11  1  0
  7  5  1  0
  8  7  2  0
 10  9  1  1
 10 11  1  0
 10 12  1  0
 12 20  1  0
 13 12  2  0
 14 15  1  0
 15 17  1  0
 16 15  2  0
 17 18  1  0
 19 21  1  0
 19 18  1  6
 20 19  1  0
 21 23  1  0
 22 21  2  0
M  END
$$$$
