LES.pdb
     RDKit          3D

 24 23  0  0  1  0  0  0  0  0999 V2000
   25.5552  -12.4666  -15.1470 C   0  0  0  0  0  0  0  0  0  0  0  0
   24.0864  -12.4961  -15.5400 C   0  0  2  0  0  0  0  0  0  0  0  0
   23.8075  -13.7140  -16.4030 C   0  0  0  0  0  0  0  0  0  0  0  0
   23.7872  -11.2268  -16.3069 C   0  0  0  0  0  0  0  0  0  0  0  0
   23.0315  -10.2993  -15.3517 C   0  0  2  0  0  0  0  0  0  0  0  0
   21.9294  -11.0185  -14.7834 N   0  0  0  0  0  0  0  0  0  0  0  0
   22.6068   -9.0512  -16.0489 C   0  0  0  0  0  0  0  0  0  0  0  0
   23.4158   -8.4860  -16.8039 O   0  0  0  0  0  0  0  0  0  0  0  0
   21.3079   -8.5384  -15.8421 N   0  0  0  0  0  0  0  0  0  0  0  0
   20.8138   -7.3579  -16.6086 C   0  0  1  0  0  0  0  0  0  0  0  0
   19.3449   -7.6100  -16.8902 C   0  0  0  0  0  0  0  0  0  0  0  0
   19.1927   -8.5356  -18.0562 C   0  0  0  0  0  0  0  0  0  0  0  0
   18.7950   -9.8953  -17.5657 C   0  0  0  0  0  0  0  0  0  0  0  0
   18.4063  -10.0587  -16.3949 O   0  0  0  0  0  0  0  0  0  0  0  0
   20.9880   -6.1859  -15.7416 C   0  0  0  0  0  0  0  0  0  0  0  0
   20.8051   -6.3315  -14.4830 O   0  0  0  0  0  0  0  0  0  0  0  0
   18.8675  -10.9577  -18.4319 O   0  0  0  0  0  0  0  0  0  0  0  0
   22.4364   -1.6223  -15.0980 O   0  0  0  0  0  0  0  0  0  0  0  0
   22.0966   -2.6160  -15.9938 C   0  0  0  0  0  0  0  0  0  0  0  0
   21.5344   -3.7911  -15.1852 C   0  0  2  0  0  0  0  0  0  0  0  0
   21.3488   -4.8828  -16.1477 N   0  0  0  0  0  0  0  0  0  0  0  0
   20.2667   -3.3740  -14.5820 C   0  0  0  0  0  0  0  0  0  0  0  0
   19.0732   -3.4634  -15.2679 O   0  0  0  0  0  0  0  0  0  0  0  0
   20.2293   -2.9198  -13.4150 O   0  0  0  0  0  0  0  0  0  0  0  0
  2  1  1  6
  2  3  1  0
  4  2  1  0
  4  5  1  0
  5  7  1  0
  5  6  1  6
  7  8  2  0
  9 10  1  0
  9  7  1  0
 10 11  1  1
 11 12  1  0
 12 13  1  0
 13 14  2  0
 13 17  1  0
 15 16  2  0
 15 10  1  0
 18 19  1  0
 20 19  1  6
 20 22  1  0
 20 21  1  0
 21 15  1  0
 22 23  1  0
 24 22  2  0
M  END
$$$$
