LES.pdb
     RDKit          3D

 24 23  0  0  1  0  0  0  0  0999 V2000
   27.2291  -13.5533  -17.1687 C   0  0  0  0  0  0  0  0  0  0  0  0
   27.6736  -12.2420  -16.5400 C   0  0  2  0  0  0  0  0  0  0  0  0
   27.6153  -12.3495  -15.0264 C   0  0  0  0  0  0  0  0  0  0  0  0
   26.7406  -11.1555  -17.0277 C   0  0  0  0  0  0  0  0  0  0  0  0
   25.3709  -11.4337  -16.4029 C   0  0  2  0  0  0  0  0  0  0  0  0
   24.9090  -12.7144  -16.8515 N   0  0  0  0  0  0  0  0  0  0  0  0
   24.4124  -10.3343  -16.7140 C   0  0  0  0  0  0  0  0  0  0  0  0
   24.7688   -9.4370  -17.4961 O   0  0  0  0  0  0  0  0  0  0  0  0
   23.1311  -10.3311  -16.1216 N   0  0  0  0  0  0  0  0  0  0  0  0
   22.1257   -9.2837  -16.4642 C   0  0  1  0  0  0  0  0  0  0  0  0
   20.7620   -9.8867  -16.1864 C   0  0  0  0  0  0  0  0  0  0  0  0
   19.6872   -8.8785  -16.4471 C   0  0  0  0  0  0  0  0  0  0  0  0
   18.3476   -9.4966  -16.1805 C   0  0  0  0  0  0  0  0  0  0  0  0
   17.8148   -9.3974  -15.0603 O   0  0  0  0  0  0  0  0  0  0  0  0
   22.3843   -8.1415  -15.5786 C   0  0  0  0  0  0  0  0  0  0  0  0
   22.7222   -8.3793  -14.3671 O   0  0  0  0  0  0  0  0  0  0  0  0
   17.7190  -10.1746  -17.1951 O   0  0  0  0  0  0  0  0  0  0  0  0
   23.3246   -3.4937  -14.8605 O   0  0  0  0  0  0  0  0  0  0  0  0
   22.9586   -4.4791  -15.7552 C   0  0  0  0  0  0  0  0  0  0  0  0
   22.5478   -5.7108  -14.9397 C   0  0  2  0  0  0  0  0  0  0  0  0
   22.3056   -6.7741  -15.9212 N   0  0  0  0  0  0  0  0  0  0  0  0
   21.3387   -5.3823  -14.1814 C   0  0  0  0  0  0  0  0  0  0  0  0
   21.4006   -4.9139  -12.8853 O   0  0  0  0  0  0  0  0  0  0  0  0
   20.2031   -5.5184  -14.6925 O   0  0  0  0  0  0  0  0  0  0  0  0
  2  1  1  6
  2  3  1  0
  4  2  1  0
  4  5  1  0
  5  7  1  0
  5  6  1  6
  7  8  2  0
  9 10  1  0
  9  7  1  0
 10 11  1  1
 11 12  1  0
 12 13  1  0
 13 14  2  0
 13 17  1  0
 15 16  2  0
 15 10  1  0
 18 19  1  0
 20 19  1  6
 20 22  1  0
 20 21  1  0
 21 15  1  0
 22 23  1  0
 24 22  2  0
M  END
$$$$
