LES.pdb
     RDKit          3D

 24 23  0  0  1  0  0  0  0  0999 V2000
   27.4365  -20.8172   -5.5831 C   0  0  0  0  0  0  0  0  0  0  0  0
   27.9241  -19.8820   -6.6787 C   0  0  2  0  0  0  0  0  0  0  0  0
   28.5301  -18.6345   -6.0604 C   0  0  0  0  0  0  0  0  0  0  0  0
   26.7348  -19.5191   -7.5403 C   0  0  0  0  0  0  0  0  0  0  0  0
   26.4637  -20.7198   -8.4506 C   0  0  2  0  0  0  0  0  0  0  0  0
   27.7088  -21.3641   -8.7498 N   0  0  0  0  0  0  0  0  0  0  0  0
   25.7230  -20.3008   -9.6754 C   0  0  0  0  0  0  0  0  0  0  0  0
   25.0270  -19.2726   -9.6279 O   0  0  0  0  0  0  0  0  0  0  0  0
   25.8236  -21.0702  -10.8546 N   0  0  0  0  0  0  0  0  0  0  0  0
   25.2272  -20.5970  -12.1374 C   0  0  1  0  0  0  0  0  0  0  0  0
   26.0254  -21.2479  -13.2508 C   0  0  0  0  0  0  0  0  0  0  0  0
   25.4676  -20.8581  -14.5838 C   0  0  0  0  0  0  0  0  0  0  0  0
   26.3143  -21.4485  -15.6711 C   0  0  0  0  0  0  0  0  0  0  0  0
   26.6361  -20.7702  -16.6635 O   0  0  0  0  0  0  0  0  0  0  0  0
   23.8333  -21.0579  -12.1528 C   0  0  0  0  0  0  0  0  0  0  0  0
   23.5934  -22.2715  -11.8236 O   0  0  0  0  0  0  0  0  0  0  0  0
   26.7285  -22.7517  -15.5522 O   0  0  0  0  0  0  0  0  0  0  0  0
   20.9426  -18.8138  -13.5544 O   0  0  0  0  0  0  0  0  0  0  0  0
   20.3918  -19.6646  -12.6173 C   0  0  0  0  0  0  0  0  0  0  0  0
   21.3421  -20.8581  -12.4652 C   0  0  2  0  0  0  0  0  0  0  0  0
   22.6961  -20.2936  -12.4936 N   0  0  0  0  0  0  0  0  0  0  0  0
   21.1114  -21.7792  -13.5802 C   0  0  0  0  0  0  0  0  0  0  0  0
   19.9566  -22.5279  -13.6752 O   0  0  0  0  0  0  0  0  0  0  0  0
   21.9637  -21.9149  -14.4882 O   0  0  0  0  0  0  0  0  0  0  0  0
  2  1  1  1
  2  3  1  0
  4  2  1  0
  4  5  1  0
  5  7  1  0
  5  6  1  6
  7  8  2  0
  9 10  1  0
  9  7  1  0
 10 11  1  6
 11 12  1  0
 12 13  1  0
 13 14  2  0
 13 17  1  0
 15 16  2  0
 15 10  1  0
 18 19  1  0
 20 19  1  6
 20 22  1  0
 20 21  1  0
 21 15  1  0
 22 23  1  0
 24 22  2  0
M  END
$$$$
