LES.pdb
     RDKit          3D

 24 23  0  0  1  0  0  0  0  0999 V2000
   23.4128  -13.7792  -14.4881 C   0  0  0  0  0  0  0  0  0  0  0  0
   23.7677  -13.8377  -15.9657 C   0  0  2  0  0  0  0  0  0  0  0  0
   25.2419  -14.1627  -16.1298 C   0  0  0  0  0  0  0  0  0  0  0  0
   23.4553  -12.4866  -16.5703 C   0  0  0  0  0  0  0  0  0  0  0  0
   21.9582  -12.2431  -16.3623 C   0  0  2  0  0  0  0  0  0  0  0  0
   21.2221  -13.2196  -17.1103 N   0  0  0  0  0  0  0  0  0  0  0  0
   21.5924  -10.8437  -16.7254 C   0  0  0  0  0  0  0  0  0  0  0  0
   22.0365  -10.3676  -17.7838 O   0  0  0  0  0  0  0  0  0  0  0  0
   20.7576  -10.0917  -15.8708 N   0  0  0  0  0  0  0  0  0  0  0  0
   20.3083   -8.7190  -16.2438 C   0  0  1  0  0  0  0  0  0  0  0  0
   18.8908   -8.5726  -15.7243 C   0  0  0  0  0  0  0  0  0  0  0  0
   18.3850   -7.1881  -15.9832 C   0  0  0  0  0  0  0  0  0  0  0  0
   16.9909   -7.0576  -15.4473 C   0  0  0  0  0  0  0  0  0  0  0  0
   16.3583   -5.9939  -15.5772 O   0  0  0  0  0  0  0  0  0  0  0  0
   21.2132   -7.7788  -15.5708 C   0  0  0  0  0  0  0  0  0  0  0  0
   21.6502   -8.0867  -14.4077 O   0  0  0  0  0  0  0  0  0  0  0  0
   16.4244   -8.1335  -14.8103 O   0  0  0  0  0  0  0  0  0  0  0  0
   23.9160   -3.7658  -15.6300 O   0  0  0  0  0  0  0  0  0  0  0  0
   23.0081   -4.5701  -16.2891 C   0  0  0  0  0  0  0  0  0  0  0  0
   22.6129   -5.6989  -15.3298 C   0  0  2  0  0  0  0  0  0  0  0  0
   21.6727   -6.5430  -16.0757 N   0  0  0  0  0  0  0  0  0  0  0  0
   21.9905   -5.1037  -14.1453 C   0  0  0  0  0  0  0  0  0  0  0  0
   22.6781   -4.9642  -12.9575 O   0  0  0  0  0  0  0  0  0  0  0  0
   20.8049   -4.7003  -14.1767 O   0  0  0  0  0  0  0  0  0  0  0  0
  2  1  1  1
  2  3  1  0
  4  2  1  0
  4  5  1  0
  5  7  1  0
  5  6  1  6
  7  8  2  0
  9 10  1  0
  9  7  1  0
 10 11  1  1
 11 12  1  0
 12 13  1  0
 13 14  2  0
 13 17  1  0
 15 16  2  0
 15 10  1  0
 18 19  1  0
 20 19  1  6
 20 22  1  0
 20 21  1  0
 21 15  1  0
 22 23  1  0
 24 22  2  0
M  END
$$$$
