LES.pdb
     RDKit          3D

 24 23  0  0  1  0  0  0  0  0999 V2000
   23.0824  -12.5550  -14.1445 C   0  0  0  0  0  0  0  0  0  0  0  0
   22.2259  -12.6095  -15.4000 C   0  0  2  0  0  0  0  0  0  0  0  0
   22.7929  -13.6333  -16.3675 C   0  0  0  0  0  0  0  0  0  0  0  0
   22.2339  -11.2320  -16.0255 C   0  0  0  0  0  0  0  0  0  0  0  0
   20.8723  -11.0430  -16.6994 C   0  0  2  0  0  0  0  0  0  0  0  0
   20.8117  -11.8785  -17.8626 N   0  0  0  0  0  0  0  0  0  0  0  0
   20.6287   -9.6048  -17.0098 C   0  0  0  0  0  0  0  0  0  0  0  0
   21.3284   -9.0561  -17.8777 O   0  0  0  0  0  0  0  0  0  0  0  0
   19.6191   -8.8988  -16.3206 N   0  0  0  0  0  0  0  0  0  0  0  0
   19.3689   -7.4529  -16.5887 C   0  0  1  0  0  0  0  0  0  0  0  0
   17.8692   -7.2977  -16.7545 C   0  0  0  0  0  0  0  0  0  0  0  0
   17.4625   -7.6584  -18.1489 C   0  0  0  0  0  0  0  0  0  0  0  0
   15.9794   -7.4942  -18.2945 C   0  0  0  0  0  0  0  0  0  0  0  0
   15.4141   -7.7615  -19.3704 O   0  0  0  0  0  0  0  0  0  0  0  0
   19.8457   -6.7145  -15.4127 C   0  0  0  0  0  0  0  0  0  0  0  0
   19.7601   -7.2798  -14.2674 O   0  0  0  0  0  0  0  0  0  0  0  0
   15.2557   -7.0433  -17.2187 O   0  0  0  0  0  0  0  0  0  0  0  0
   22.9188   -5.0424  -12.8582 O   0  0  0  0  0  0  0  0  0  0  0  0
   22.2494   -5.6619  -13.8944 C   0  0  0  0  0  0  0  0  0  0  0  0
   20.9919   -4.8355  -14.1884 C   0  0  2  0  0  0  0  0  0  0  0  0
   20.4075   -5.4193  -15.4010 N   0  0  0  0  0  0  0  0  0  0  0  0
   21.3909   -3.4411  -14.3916 C   0  0  0  0  0  0  0  0  0  0  0  0
   21.6351   -2.5947  -13.3300 O   0  0  0  0  0  0  0  0  0  0  0  0
   21.5230   -2.9724  -15.5458 O   0  0  0  0  0  0  0  0  0  0  0  0
  2  1  1  1
  2  3  1  0
  4  2  1  0
  4  5  1  0
  5  7  1  0
  5  6  1  6
  7  8  2  0
  9 10  1  0
  9  7  1  0
 10 11  1  1
 11 12  1  0
 12 13  1  0
 13 14  2  0
 13 17  1  0
 15 16  2  0
 15 10  1  0
 18 19  1  0
 20 19  1  6
 20 22  1  0
 20 21  1  0
 21 15  1  0
 22 23  1  0
 24 22  2  0
M  END
$$$$
