LES.pdb
     RDKit          3D

 24 23  0  0  1  0  0  0  0  0999 V2000
   21.5445  -24.0452  -16.9701 C   0  0  0  0  0  0  0  0  0  0  0  0
   22.3642  -22.7755  -17.1396 C   0  0  2  0  0  0  0  0  0  0  0  0
   21.6774  -21.8454  -18.1239 C   0  0  0  0  0  0  0  0  0  0  0  0
   23.7304  -23.1722  -17.6544 C   0  0  0  0  0  0  0  0  0  0  0  0
   24.2943  -24.1997  -16.6695 C   0  0  2  0  0  0  0  0  0  0  0  0
   24.5665  -23.5455  -15.4234 N   0  0  0  0  0  0  0  0  0  0  0  0
   25.4948  -24.8773  -17.2386 C   0  0  0  0  0  0  0  0  0  0  0  0
   25.4386  -25.3105  -18.4019 O   0  0  0  0  0  0  0  0  0  0  0  0
   26.6614  -25.0138  -16.4556 N   0  0  0  0  0  0  0  0  0  0  0  0
   27.8967  -25.6362  -17.0143 C   0  0  1  0  0  0  0  0  0  0  0  0
   29.0688  -24.9571  -16.3320 C   0  0  0  0  0  0  0  0  0  0  0  0
   30.3569  -25.5720  -16.7821 C   0  0  0  0  0  0  0  0  0  0  0  0
   30.9738  -24.7155  -17.8467 C   0  0  0  0  0  0  0  0  0  0  0  0
   30.6326  -23.5263  -17.9810 O   0  0  0  0  0  0  0  0  0  0  0  0
   27.8452  -27.0629  -16.6718 C   0  0  0  0  0  0  0  0  0  0  0  0
   27.8465  -27.3887  -15.4338 O   0  0  0  0  0  0  0  0  0  0  0  0
   31.9226  -25.2670  -18.6712 O   0  0  0  0  0  0  0  0  0  0  0  0
   26.3983  -31.4576  -17.5266 O   0  0  0  0  0  0  0  0  0  0  0  0
   26.6657  -30.2057  -18.0432 C   0  0  0  0  0  0  0  0  0  0  0  0
   27.6902  -29.5366  -17.1194 C   0  0  2  0  0  0  0  0  0  0  0  0
   27.7878  -28.1456  -17.5760 N   0  0  0  0  0  0  0  0  0  0  0  0
   28.9652  -30.2450  -17.2511 C   0  0  0  0  0  0  0  0  0  0  0  0
   29.2895  -31.3115  -16.4384 O   0  0  0  0  0  0  0  0  0  0  0  0
   29.8057  -29.8997  -18.1135 O   0  0  0  0  0  0  0  0  0  0  0  0
  2  1  1  6
  2  3  1  0
  4  2  1  0
  4  5  1  0
  5  7  1  0
  5  6  1  1
  7  8  2  0
  9 10  1  0
  9  7  1  0
 10 11  1  1
 11 12  1  0
 12 13  1  0
 13 14  2  0
 13 17  1  0
 15 16  2  0
 15 10  1  0
 18 19  1  0
 20 19  1  6
 20 22  1  0
 20 21  1  0
 21 15  1  0
 22 23  1  0
 24 22  2  0
M  END
$$$$
