LES.pdb
     RDKit          3D

 24 23  0  0  1  0  0  0  0  0999 V2000
   25.1919  -32.1884   -6.4283 C   0  0  0  0  0  0  0  0  0  0  0  0
   26.4490  -32.7555   -7.0690 C   0  0  2  0  0  0  0  0  0  0  0  0
   26.6788  -32.1027   -8.4207 C   0  0  0  0  0  0  0  0  0  0  0  0
   26.2536  -34.2470   -7.2303 C   0  0  0  0  0  0  0  0  0  0  0  0
   27.6277  -34.8967   -7.0465 C   0  0  2  0  0  0  0  0  0  0  0  0
   27.9505  -35.6391   -8.2295 N   0  0  0  0  0  0  0  0  0  0  0  0
   27.6576  -35.7356   -5.8139 C   0  0  0  0  0  0  0  0  0  0  0  0
   26.9292  -36.7409   -5.7598 O   0  0  0  0  0  0  0  0  0  0  0  0
   28.5030  -35.3781   -4.7414 N   0  0  0  0  0  0  0  0  0  0  0  0
   28.6237  -36.2441   -3.5328 C   0  0  1  0  0  0  0  0  0  0  0  0
   30.0572  -36.1192   -3.0534 C   0  0  0  0  0  0  0  0  0  0  0  0
   30.2762  -36.9767   -1.8466 C   0  0  0  0  0  0  0  0  0  0  0  0
   31.6966  -36.8387   -1.3873 C   0  0  0  0  0  0  0  0  0  0  0  0
   31.9553  -36.5129   -0.2145 O   0  0  0  0  0  0  0  0  0  0  0  0
   27.6884  -35.7116   -2.5341 C   0  0  0  0  0  0  0  0  0  0  0  0
   27.6756  -34.4480   -2.3299 O   0  0  0  0  0  0  0  0  0  0  0  0
   32.7075  -37.0786   -2.2844 O   0  0  0  0  0  0  0  0  0  0  0  0
   23.9702  -36.3099    0.4857 O   0  0  0  0  0  0  0  0  0  0  0  0
   24.9333  -36.9126   -0.2983 C   0  0  0  0  0  0  0  0  0  0  0  0
   25.8967  -35.8159   -0.7671 C   0  0  2  0  0  0  0  0  0  0  0  0
   26.7735  -36.4535   -1.7558 N   0  0  0  0  0  0  0  0  0  0  0  0
   26.6458  -35.3298    0.3937 C   0  0  0  0  0  0  0  0  0  0  0  0
   27.9564  -35.6979    0.6169 O   0  0  0  0  0  0  0  0  0  0  0  0
   26.1131  -34.5588    1.2250 O   0  0  0  0  0  0  0  0  0  0  0  0
  2  1  1  6
  2  3  1  0
  4  2  1  0
  4  5  1  0
  5  7  1  0
  5  6  1  6
  7  8  2  0
  9 10  1  0
  9  7  1  0
 10 11  1  1
 11 12  1  0
 12 13  1  0
 13 14  2  0
 13 17  1  0
 15 16  2  0
 15 10  1  0
 18 19  1  0
 20 19  1  1
 20 22  1  0
 20 21  1  0
 21 15  1  0
 22 23  1  0
 24 22  2  0
M  END
$$$$
