LES.pdb
     RDKit          3D

 24 23  0  0  1  0  0  0  0  0999 V2000
   14.4080  -11.8866  -16.7336 C   0  0  0  0  0  0  0  0  0  0  0  0
   14.7924  -12.3089  -15.3241 C   0  0  2  0  0  0  0  0  0  0  0  0
   13.7915  -11.7517  -14.3274 C   0  0  0  0  0  0  0  0  0  0  0  0
   16.1762  -11.7676  -15.0403 C   0  0  0  0  0  0  0  0  0  0  0  0
   17.1518  -12.5673  -15.9077 C   0  0  2  0  0  0  0  0  0  0  0  0
   17.1356  -13.9358  -15.4812 N   0  0  0  0  0  0  0  0  0  0  0  0
   18.5162  -11.9666  -15.8640 C   0  0  0  0  0  0  0  0  0  0  0  0
   19.2013  -12.1186  -14.8386 O   0  0  0  0  0  0  0  0  0  0  0  0
   19.0011  -11.2435  -16.9752 N   0  0  0  0  0  0  0  0  0  0  0  0
   20.3365  -10.5797  -16.9403 C   0  0  1  0  0  0  0  0  0  0  0  0
   20.7367  -10.3384  -18.3832 C   0  0  0  0  0  0  0  0  0  0  0  0
   22.0877   -9.6976  -18.4455 C   0  0  0  0  0  0  0  0  0  0  0  0
   22.4599   -9.4557  -19.8775 C   0  0  0  0  0  0  0  0  0  0  0  0
   21.7088   -8.8057  -20.6271 O   0  0  0  0  0  0  0  0  0  0  0  0
   20.1603   -9.3095  -16.2254 C   0  0  0  0  0  0  0  0  0  0  0  0
   19.0421   -8.6979  -16.3444 O   0  0  0  0  0  0  0  0  0  0  0  0
   23.6451   -9.9645  -20.3473 O   0  0  0  0  0  0  0  0  0  0  0  0
   21.4969   -6.1648  -12.8434 O   0  0  0  0  0  0  0  0  0  0  0  0
   21.7489   -7.3476  -13.5088 C   0  0  0  0  0  0  0  0  0  0  0  0
   20.8230   -7.3942  -14.7300 C   0  0  2  0  0  0  0  0  0  0  0  0
   21.1070   -8.6707  -15.3953 N   0  0  0  0  0  0  0  0  0  0  0  0
   21.1323   -6.2499  -15.5900 C   0  0  0  0  0  0  0  0  0  0  0  0
   20.3968   -5.0840  -15.5380 O   0  0  0  0  0  0  0  0  0  0  0  0
   22.0825   -6.2972  -16.4050 O   0  0  0  0  0  0  0  0  0  0  0  0
  2  1  1  6
  2  3  1  0
  4  2  1  0
  4  5  1  0
  5  7  1  0
  5  6  1  1
  7  8  2  0
  9 10  1  0
  9  7  1  0
 10 11  1  6
 11 12  1  0
 12 13  1  0
 13 14  2  0
 13 17  1  0
 15 16  2  0
 15 10  1  0
 18 19  1  0
 20 19  1  1
 20 22  1  0
 20 21  1  0
 21 15  1  0
 22 23  1  0
 24 22  2  0
M  END
$$$$
