LES.pdb
     RDKit          3D

 24 23  0  0  1  0  0  0  0  0999 V2000
   19.8231  -11.9137    4.7160 C   0  0  0  0  0  0  0  0  0  0  0  0
   19.6006  -11.6616    6.1991 C   0  0  2  0  0  0  0  0  0  0  0  0
   20.9172  -11.3018    6.8646 C   0  0  0  0  0  0  0  0  0  0  0  0
   19.0330  -12.9270    6.8034 C   0  0  0  0  0  0  0  0  0  0  0  0
   17.6846  -13.1774    6.1228 C   0  0  2  0  0  0  0  0  0  0  0  0
   16.8095  -12.0794    6.4116 N   0  0  0  0  0  0  0  0  0  0  0  0
   17.1161  -14.4920    6.5386 C   0  0  0  0  0  0  0  0  0  0  0  0
   16.6444  -14.6017    7.6829 O   0  0  0  0  0  0  0  0  0  0  0  0
   17.1233  -15.5773    5.6360 N   0  0  0  0  0  0  0  0  0  0  0  0
   16.5484  -16.9003    6.0162 C   0  0  1  0  0  0  0  0  0  0  0  0
   16.5626  -17.7536    4.7624 C   0  0  0  0  0  0  0  0  0  0  0  0
   15.9804  -19.1025    5.0475 C   0  0  0  0  0  0  0  0  0  0  0  0
   16.0568  -19.9503    3.8134 C   0  0  0  0  0  0  0  0  0  0  0  0
   16.5887  -19.5144    2.7763 O   0  0  0  0  0  0  0  0  0  0  0  0
   17.4296  -17.4658    7.0455 C   0  0  0  0  0  0  0  0  0  0  0  0
   18.6935  -17.4312    6.8459 O   0  0  0  0  0  0  0  0  0  0  0  0
   15.5291  -21.2170    3.8481 O   0  0  0  0  0  0  0  0  0  0  0  0
   16.2599  -18.4015   10.7551 O   0  0  0  0  0  0  0  0  0  0  0  0
   17.6054  -18.1436   10.5857 C   0  0  0  0  0  0  0  0  0  0  0  0
   17.9988  -18.6513    9.1935 C   0  0  2  0  0  0  0  0  0  0  0  0
   17.0316  -18.0548    8.2653 N   0  0  0  0  0  0  0  0  0  0  0  0
   17.9232  -20.1139    9.1952 C   0  0  0  0  0  0  0  0  0  0  0  0
   18.7401  -20.8813    9.9995 O   0  0  0  0  0  0  0  0  0  0  0  0
   17.1071  -20.7157    8.4595 O   0  0  0  0  0  0  0  0  0  0  0  0
  2  1  1  6
  2  3  1  0
  4  2  1  0
  4  5  1  0
  5  7  1  0
  5  6  1  1
  7  8  2  0
  9 10  1  0
  9  7  1  0
 10 11  1  6
 11 12  1  0
 12 13  1  0
 13 14  2  0
 13 17  1  0
 15 16  2  0
 15 10  1  0
 18 19  1  0
 20 19  1  1
 20 22  1  0
 20 21  1  0
 21 15  1  0
 22 23  1  0
 24 22  2  0
M  END
$$$$
