LES.pdb
     RDKit          3D

 24 23  0  0  1  0  0  0  0  0999 V2000
   34.0129  -20.3751    5.3550 C   0  0  0  0  0  0  0  0  0  0  0  0
   33.7279  -21.6425    4.5643 C   0  0  2  0  0  0  0  0  0  0  0  0
   32.4963  -21.4446    3.6984 C   0  0  0  0  0  0  0  0  0  0  0  0
   33.5018  -22.7641    5.5540 C   0  0  0  0  0  0  0  0  0  0  0  0
   34.8074  -22.9368    6.3346 C   0  0  2  0  0  0  0  0  0  0  0  0
   35.6575  -23.8433    5.6201 N   0  0  0  0  0  0  0  0  0  0  0  0
   34.5357  -23.3819    7.7318 C   0  0  0  0  0  0  0  0  0  0  0  0
   34.3155  -24.5868    7.9408 O   0  0  0  0  0  0  0  0  0  0  0  0
   34.5330  -22.4382    8.7816 N   0  0  0  0  0  0  0  0  0  0  0  0
   34.3795  -22.8656   10.2025 C   0  0  1  0  0  0  0  0  0  0  0  0
   35.4203  -22.1014   10.9982 C   0  0  0  0  0  0  0  0  0  0  0  0
   36.7689  -22.7254   10.8206 C   0  0  0  0  0  0  0  0  0  0  0  0
   36.8805  -23.9325   11.7028 C   0  0  0  0  0  0  0  0  0  0  0  0
   37.2949  -25.0143   11.2483 O   0  0  0  0  0  0  0  0  0  0  0  0
   33.0221  -22.4876   10.6151 C   0  0  0  0  0  0  0  0  0  0  0  0
   32.6092  -21.3096   10.3313 O   0  0  0  0  0  0  0  0  0  0  0  0
   36.5170  -23.8228   13.0219 O   0  0  0  0  0  0  0  0  0  0  0  0
   30.8043  -24.7434   13.0369 O   0  0  0  0  0  0  0  0  0  0  0  0
   29.9914  -24.0241   12.1840 C   0  0  0  0  0  0  0  0  0  0  0  0
   30.7819  -22.7933   11.7248 C   0  0  2  0  0  0  0  0  0  0  0  0
   32.0935  -23.2983   11.3033 N   0  0  0  0  0  0  0  0  0  0  0  0
   30.8911  -21.8654   12.8526 C   0  0  0  0  0  0  0  0  0  0  0  0
   29.7879  -21.2163   13.3670 O   0  0  0  0  0  0  0  0  0  0  0  0
   31.9997  -21.6322   13.3875 O   0  0  0  0  0  0  0  0  0  0  0  0
  2  1  1  1
  2  3  1  0
  4  2  1  0
  4  5  1  0
  5  7  1  0
  5  6  1  6
  7  8  2  0
  9 10  1  0
  9  7  1  0
 10 11  1  1
 11 12  1  0
 12 13  1  0
 13 14  2  0
 13 17  1  0
 15 16  2  0
 15 10  1  0
 18 19  1  0
 20 19  1  1
 20 22  1  0
 20 21  1  0
 21 15  1  0
 22 23  1  0
 24 22  2  0
M  END
$$$$
