LES.pdb
     RDKit          3D

 24 23  0  0  1  0  0  0  0  0999 V2000
   27.3554  -18.3338   -7.0529 C   0  0  0  0  0  0  0  0  0  0  0  0
   27.6449  -19.8225   -6.9416 C   0  0  2  0  0  0  0  0  0  0  0  0
   29.0755  -20.0370   -6.4799 C   0  0  0  0  0  0  0  0  0  0  0  0
   27.4337  -20.4382   -8.3073 C   0  0  0  0  0  0  0  0  0  0  0  0
   25.9377  -20.3327   -8.6148 C   0  0  2  0  0  0  0  0  0  0  0  0
   25.2005  -20.9177   -7.5335 N   0  0  0  0  0  0  0  0  0  0  0  0
   25.6212  -20.9567   -9.9318 C   0  0  0  0  0  0  0  0  0  0  0  0
   25.7825  -22.1816  -10.0646 O   0  0  0  0  0  0  0  0  0  0  0  0
   25.1492  -20.1550  -10.9936 N   0  0  0  0  0  0  0  0  0  0  0  0
   24.8257  -20.7486  -12.3233 C   0  0  1  0  0  0  0  0  0  0  0  0
   23.5006  -20.1487  -12.7531 C   0  0  0  0  0  0  0  0  0  0  0  0
   22.3655  -20.9107  -12.1444 C   0  0  0  0  0  0  0  0  0  0  0  0
   21.0656  -20.3302  -12.6144 C   0  0  0  0  0  0  0  0  0  0  0  0
   20.3817  -19.6136  -11.8612 O   0  0  0  0  0  0  0  0  0  0  0  0
   25.9027  -20.3515  -13.2386 C   0  0  0  0  0  0  0  0  0  0  0  0
   26.4048  -19.1809  -13.1109 O   0  0  0  0  0  0  0  0  0  0  0  0
   20.6431  -20.6036  -13.8914 O   0  0  0  0  0  0  0  0  0  0  0  0
   29.1096  -22.2425  -14.4806 O   0  0  0  0  0  0  0  0  0  0  0  0
   28.3436  -21.8583  -15.5628 C   0  0  0  0  0  0  0  0  0  0  0  0
   27.5330  -20.6281  -15.1384 C   0  0  2  0  0  0  0  0  0  0  0  0
   26.4666  -21.1361  -14.2681 N   0  0  0  0  0  0  0  0  0  0  0  0
   26.9970  -19.9886  -16.3420 C   0  0  0  0  0  0  0  0  0  0  0  0
   27.8190  -19.3748  -17.2643 O   0  0  0  0  0  0  0  0  0  0  0  0
   25.7653  -19.9805  -16.5708 O   0  0  0  0  0  0  0  0  0  0  0  0
  2  1  1  6
  2  3  1  0
  4  2  1  0
  4  5  1  0
  5  7  1  0
  5  6  1  1
  7  8  2  0
  9 10  1  0
  9  7  1  0
 10 11  1  6
 11 12  1  0
 12 13  1  0
 13 14  2  0
 13 17  1  0
 15 16  2  0
 15 10  1  0
 18 19  1  0
 20 19  1  6
 20 22  1  0
 20 21  1  0
 21 15  1  0
 22 23  1  0
 24 22  2  0
M  END
$$$$
