LES.pdb
     RDKit          3D

 24 23  0  0  1  0  0  0  0  0999 V2000
   26.1461  -13.4829  -16.3535 C   0  0  0  0  0  0  0  0  0  0  0  0
   25.1088  -13.7888  -17.4226 C   0  0  2  0  0  0  0  0  0  0  0  0
   25.7254  -14.6541  -18.5074 C   0  0  0  0  0  0  0  0  0  0  0  0
   24.6393  -12.4723  -18.0017 C   0  0  0  0  0  0  0  0  0  0  0  0
   24.0027  -11.6847  -16.8535 C   0  0  2  0  0  0  0  0  0  0  0  0
   23.0226  -12.5113  -16.2126 N   0  0  0  0  0  0  0  0  0  0  0  0
   23.4367  -10.3951  -17.3443 C   0  0  0  0  0  0  0  0  0  0  0  0
   24.1419   -9.6722  -18.0681 O   0  0  0  0  0  0  0  0  0  0  0  0
   22.1243  -10.0213  -16.9826 N   0  0  0  0  0  0  0  0  0  0  0  0
   21.5098   -8.7648  -17.5010 C   0  0  1  0  0  0  0  0  0  0  0  0
   20.0336   -9.0541  -17.6948 C   0  0  0  0  0  0  0  0  0  0  0  0
   19.8071   -9.7320  -19.0096 C   0  0  0  0  0  0  0  0  0  0  0  0
   18.3517  -10.0598  -19.1582 C   0  0  0  0  0  0  0  0  0  0  0  0
   17.5235   -9.1674  -19.4157 O   0  0  0  0  0  0  0  0  0  0  0  0
   21.7122   -7.7375  -16.4718 C   0  0  0  0  0  0  0  0  0  0  0  0
   21.6841   -8.0972  -15.2436 O   0  0  0  0  0  0  0  0  0  0  0  0
   17.9488  -11.3630  -19.0048 O   0  0  0  0  0  0  0  0  0  0  0  0
   23.2253   -3.3608  -15.1924 O   0  0  0  0  0  0  0  0  0  0  0  0
   22.7721   -4.1674  -16.2169 C   0  0  0  0  0  0  0  0  0  0  0  0
   22.1763   -5.4283  -15.5798 C   0  0  2  0  0  0  0  0  0  0  0  0
   21.9455   -6.3619  -16.6879 N   0  0  0  0  0  0  0  0  0  0  0  0
   20.9288   -5.0618  -14.9060 C   0  0  0  0  0  0  0  0  0  0  0  0
   20.8981   -4.7295  -13.5674 O   0  0  0  0  0  0  0  0  0  0  0  0
   19.8435   -5.0392  -15.5314 O   0  0  0  0  0  0  0  0  0  0  0  0
  2  1  1  1
  2  3  1  0
  4  2  1  0
  4  5  1  0
  5  7  1  0
  5  6  1  6
  7  8  2  0
  9 10  1  0
  9  7  1  0
 10 11  1  1
 11 12  1  0
 12 13  1  0
 13 14  2  0
 13 17  1  0
 15 16  2  0
 15 10  1  0
 18 19  1  0
 20 19  1  6
 20 22  1  0
 20 21  1  0
 21 15  1  0
 22 23  1  0
 24 22  2  0
M  END
$$$$
