VHF.pdb
     RDKit          3D

 29 30  0  0  1  0  0  0  0  0999 V2000
   25.6339  -23.6679  -17.8407 C   0  0  0  0  0  0  0  0  0  0  0  0
   25.1166  -22.5328  -18.6893 C   0  0  2  0  0  0  0  0  0  0  0  0
   24.8323  -22.9700  -20.1056 C   0  0  0  0  0  0  0  0  0  0  0  0
   25.9329  -21.2844  -18.6184 C   0  0  2  0  0  0  0  0  0  0  0  0
   27.2060  -21.6217  -19.2963 N   0  0  0  0  0  0  0  0  0  0  0  0
   26.2419  -20.7922  -17.2772 C   0  0  0  0  0  0  0  0  0  0  0  0
   27.4544  -20.7841  -16.8591 O   0  0  0  0  0  0  0  0  0  0  0  0
   25.2824  -20.3098  -16.3795 N   0  0  0  0  0  0  0  0  0  0  0  0
   25.6697  -19.6952  -15.0545 C   0  0  1  0  0  0  0  0  0  0  0  0
   25.1903  -18.3025  -15.1891 C   0  0  0  0  0  0  0  0  0  0  0  0
   25.8930  -17.3364  -16.0052 C   0  0  0  0  0  0  0  0  0  0  0  0
   25.6597  -16.6273  -17.1328 C   0  0  0  0  0  0  0  0  0  0  0  0
   26.6874  -15.7937  -17.4172 N   0  0  0  0  0  0  0  0  0  0  0  0
   27.5714  -15.9860  -16.4525 C   0  0  0  0  0  0  0  0  0  0  0  0
   27.1403  -16.8987  -15.5852 N   0  0  0  0  0  0  0  0  0  0  0  0
   24.8226  -20.4276  -14.0550 C   0  0  0  0  0  0  0  0  0  0  0  0
   23.6607  -20.8045  -14.4435 O   0  0  0  0  0  0  0  0  0  0  0  0
   25.2644  -20.7021  -12.7547 N   0  0  0  0  0  0  0  0  0  0  0  0
   24.4046  -21.5110  -11.8746 C   0  0  1  0  0  0  0  0  0  0  0  0
   25.2806  -22.0938  -10.7865 C   0  0  0  0  0  0  0  0  0  0  0  0
   25.7568  -21.0535   -9.8451 C   0  0  0  0  0  0  0  0  0  0  0  0
   26.9825  -20.4194  -10.0598 C   0  0  0  0  0  0  0  0  0  0  0  0
   27.3950  -19.4507   -9.1781 C   0  0  0  0  0  0  0  0  0  0  0  0
   26.6066  -19.1173   -8.1036 C   0  0  0  0  0  0  0  0  0  0  0  0
   25.3953  -19.7518   -7.9015 C   0  0  0  0  0  0  0  0  0  0  0  0
   24.9587  -20.7251   -8.7695 C   0  0  0  0  0  0  0  0  0  0  0  0
   23.3675  -20.6196  -11.3199 C   0  0  0  0  0  0  0  0  0  0  0  0
   22.2181  -21.1594  -10.7691 O   0  0  0  0  0  0  0  0  0  0  0  0
   23.4614  -19.3700  -11.3144 O   0  0  0  0  0  0  0  0  0  0  0  0
  2  1  1  1
  2  3  1  0
  4  2  1  0
  4  5  1  1
  6  4  1  0
  7  6  2  0
  8  6  1  0
  9  8  1  0
  9 10  1  6
 10 11  1  0
 11 15  1  0
 12 11  2  0
 12 13  1  0
 13 14  1  0
 15 14  2  0
 16 17  2  0
 16  9  1  0
 18 16  1  0
 19 18  1  0
 19 20  1  1
 21 22  2  0
 21 20  1  0
 23 22  1  0
 24 23  2  0
 25 24  1  0
 25 26  2  0
 26 21  1  0
 27 19  1  0
 28 27  1  0
 29 27  2  0
M  END
$$$$
