VHF.pdb
     RDKit          3D

 29 30  0  0  1  0  0  0  0  0999 V2000
   26.2990  -17.4661  -16.2168 C   0  0  0  0  0  0  0  0  0  0  0  0
   27.7453  -17.4427  -15.7884 C   0  0  2  0  0  0  0  0  0  0  0  0
   28.6851  -17.5332  -16.9659 C   0  0  0  0  0  0  0  0  0  0  0  0
   28.0842  -18.4052  -14.6981 C   0  0  2  0  0  0  0  0  0  0  0  0
   28.1345  -19.7295  -15.3598 N   0  0  0  0  0  0  0  0  0  0  0  0
   27.1361  -18.4809  -13.5882 C   0  0  0  0  0  0  0  0  0  0  0  0
   26.8550  -17.4291  -12.9102 O   0  0  0  0  0  0  0  0  0  0  0  0
   26.4853  -19.6553  -13.1925 N   0  0  0  0  0  0  0  0  0  0  0  0
   25.4960  -19.6713  -12.0506 C   0  0  1  0  0  0  0  0  0  0  0  0
   24.3034  -20.2972  -12.6617 C   0  0  0  0  0  0  0  0  0  0  0  0
   23.1106  -20.5665  -11.8886 C   0  0  0  0  0  0  0  0  0  0  0  0
   22.6701  -20.3503  -10.6285 C   0  0  0  0  0  0  0  0  0  0  0  0
   21.3959  -20.7771  -10.4673 N   0  0  0  0  0  0  0  0  0  0  0  0
   21.0384  -21.2643  -11.6437 C   0  0  0  0  0  0  0  0  0  0  0  0
   22.0303  -21.1598  -12.5248 N   0  0  0  0  0  0  0  0  0  0  0  0
   26.1080  -20.6133  -11.0552 C   0  0  0  0  0  0  0  0  0  0  0  0
   26.6477  -21.6792  -11.5197 O   0  0  0  0  0  0  0  0  0  0  0  0
   26.1057  -20.3560   -9.6786 N   0  0  0  0  0  0  0  0  0  0  0  0
   26.4792  -21.4430   -8.7581 C   0  0  1  0  0  0  0  0  0  0  0  0
   27.8934  -21.1802   -8.2871 C   0  0  0  0  0  0  0  0  0  0  0  0
   27.9190  -20.4556   -6.9950 C   0  0  0  0  0  0  0  0  0  0  0  0
   27.2436  -19.2411   -6.8568 C   0  0  0  0  0  0  0  0  0  0  0  0
   27.2742  -18.5957   -5.6450 C   0  0  0  0  0  0  0  0  0  0  0  0
   27.9618  -19.1448   -4.5900 C   0  0  0  0  0  0  0  0  0  0  0  0
   28.6265  -20.3477   -4.7388 C   0  0  0  0  0  0  0  0  0  0  0  0
   28.6116  -21.0144   -5.9415 C   0  0  0  0  0  0  0  0  0  0  0  0
   25.5201  -21.4288   -7.6365 C   0  0  0  0  0  0  0  0  0  0  0  0
   24.4727  -20.5241   -7.6372 O   0  0  0  0  0  0  0  0  0  0  0  0
   25.5937  -22.2044   -6.6549 O   0  0  0  0  0  0  0  0  0  0  0  0
  2  1  1  6
  2  3  1  0
  4  2  1  0
  4  5  1  6
  6  4  1  0
  7  6  2  0
  8  6  1  0
  9  8  1  0
  9 10  1  6
 10 11  1  0
 11 15  1  0
 12 11  2  0
 12 13  1  0
 13 14  1  0
 15 14  2  0
 16 17  2  0
 16  9  1  0
 18 16  1  0
 19 18  1  0
 19 20  1  1
 21 22  2  0
 21 20  1  0
 23 22  1  0
 24 23  2  0
 25 24  1  0
 25 26  2  0
 26 21  1  0
 27 19  1  0
 28 27  1  0
 29 27  2  0
M  END
$$$$
