VHF.pdb
     RDKit          3D

 29 30  0  0  1  0  0  0  0  0999 V2000
   19.5812  -20.6028  -14.3973 C   0  0  0  0  0  0  0  0  0  0  0  0
   19.5574  -19.4573  -15.3787 C   0  0  2  0  0  0  0  0  0  0  0  0
   18.1549  -18.9628  -15.6362 C   0  0  0  0  0  0  0  0  0  0  0  0
   20.3282  -19.7010  -16.6343 C   0  0  2  0  0  0  0  0  0  0  0  0
   19.5970  -20.7876  -17.3263 N   0  0  0  0  0  0  0  0  0  0  0  0
   21.7192  -20.1170  -16.4656 C   0  0  0  0  0  0  0  0  0  0  0  0
   22.0122  -21.3631  -16.3859 O   0  0  0  0  0  0  0  0  0  0  0  0
   22.7978  -19.2288  -16.3819 N   0  0  0  0  0  0  0  0  0  0  0  0
   24.2119  -19.7124  -16.1591 C   0  0  1  0  0  0  0  0  0  0  0  0
   25.0244  -18.6224  -16.7415 C   0  0  0  0  0  0  0  0  0  0  0  0
   26.4678  -18.6198  -16.6438 C   0  0  0  0  0  0  0  0  0  0  0  0
   27.4342  -19.4248  -16.1473 C   0  0  0  0  0  0  0  0  0  0  0  0
   28.6695  -18.9333  -16.4010 N   0  0  0  0  0  0  0  0  0  0  0  0
   28.4687  -17.8078  -17.0658 C   0  0  0  0  0  0  0  0  0  0  0  0
   27.1686  -17.5790  -17.2351 N   0  0  0  0  0  0  0  0  0  0  0  0
   24.3625  -19.7134  -14.6657 C   0  0  0  0  0  0  0  0  0  0  0  0
   23.4580  -19.1063  -13.9902 O   0  0  0  0  0  0  0  0  0  0  0  0
   25.4312  -20.3474  -14.0196 N   0  0  0  0  0  0  0  0  0  0  0  0
   25.3929  -20.4734  -12.5530 C   0  0  1  0  0  0  0  0  0  0  0  0
   24.2802  -21.4383  -12.2040 C   0  0  0  0  0  0  0  0  0  0  0  0
   23.3335  -20.8574  -11.2234 C   0  0  0  0  0  0  0  0  0  0  0  0
   23.7525  -20.5832   -9.9196 C   0  0  0  0  0  0  0  0  0  0  0  0
   22.8579  -20.0344   -9.0339 C   0  0  0  0  0  0  0  0  0  0  0  0
   21.5720  -19.7628   -9.4338 C   0  0  0  0  0  0  0  0  0  0  0  0
   21.1689  -20.0385  -10.7270 C   0  0  0  0  0  0  0  0  0  0  0  0
   22.0449  -20.5878  -11.6337 C   0  0  0  0  0  0  0  0  0  0  0  0
   26.7085  -20.9769  -12.1127 C   0  0  0  0  0  0  0  0  0  0  0  0
   27.1723  -20.6744  -10.8442 O   0  0  0  0  0  0  0  0  0  0  0  0
   27.4550  -21.6807  -12.8323 O   0  0  0  0  0  0  0  0  0  0  0  0
  2  1  1  6
  2  3  1  0
  4  2  1  0
  4  5  1  1
  6  4  1  0
  7  6  2  0
  8  6  1  0
  9  8  1  0
  9 10  1  6
 10 11  1  0
 11 15  1  0
 12 11  2  0
 12 13  1  0
 13 14  1  0
 15 14  2  0
 16 17  2  0
 16  9  1  0
 18 16  1  0
 19 18  1  0
 19 20  1  6
 21 22  2  0
 21 20  1  0
 23 22  1  0
 24 23  2  0
 25 24  1  0
 25 26  2  0
 26 21  1  0
 27 19  1  0
 28 27  1  0
 29 27  2  0
M  END
$$$$
