VHF.pdb
     RDKit          3D

 29 30  0  0  1  0  0  0  0  0999 V2000
   18.8051  -16.2474  -16.2723 C   0  0  0  0  0  0  0  0  0  0  0  0
   19.8880  -15.2406  -16.5720 C   0  0  2  0  0  0  0  0  0  0  0  0
   21.2617  -15.7742  -16.2462 C   0  0  0  0  0  0  0  0  0  0  0  0
   19.6429  -13.8803  -16.0066 C   0  0  2  0  0  0  0  0  0  0  0  0
   18.2322  -13.5765  -16.3407 N   0  0  0  0  0  0  0  0  0  0  0  0
   20.4821  -12.8044  -16.5306 C   0  0  0  0  0  0  0  0  0  0  0  0
   21.7520  -12.8354  -16.3532 O   0  0  0  0  0  0  0  0  0  0  0  0
   19.9906  -11.7015  -17.2385 N   0  0  0  0  0  0  0  0  0  0  0  0
   20.9022  -10.6038  -17.7356 C   0  0  1  0  0  0  0  0  0  0  0  0
   20.2899  -10.2332  -19.0299 C   0  0  0  0  0  0  0  0  0  0  0  0
   20.7833   -9.1180  -19.8083 C   0  0  0  0  0  0  0  0  0  0  0  0
   21.7960   -8.2246  -19.7381 C   0  0  0  0  0  0  0  0  0  0  0  0
   21.8156   -7.4096  -20.8185 N   0  0  0  0  0  0  0  0  0  0  0  0
   20.8020   -7.8023  -21.5717 C   0  0  0  0  0  0  0  0  0  0  0  0
   20.1559   -8.8208  -21.0090 N   0  0  0  0  0  0  0  0  0  0  0  0
   20.7041   -9.4933  -16.7455 C   0  0  0  0  0  0  0  0  0  0  0  0
   19.5516   -9.4083  -16.1907 O   0  0  0  0  0  0  0  0  0  0  0  0
   21.7199   -8.5845  -16.4238 N   0  0  0  0  0  0  0  0  0  0  0  0
   21.4295   -7.5191  -15.4498 C   0  0  1  0  0  0  0  0  0  0  0  0
   22.1896   -7.8379  -14.1803 C   0  0  0  0  0  0  0  0  0  0  0  0
   23.2816   -8.8101  -14.4204 C   0  0  0  0  0  0  0  0  0  0  0  0
   24.3131   -8.5027  -15.3104 C   0  0  0  0  0  0  0  0  0  0  0  0
   25.3188   -9.4171  -15.5061 C   0  0  0  0  0  0  0  0  0  0  0  0
   25.3018  -10.6139  -14.8317 C   0  0  0  0  0  0  0  0  0  0  0  0
   24.2755  -10.9068  -13.9532 C   0  0  0  0  0  0  0  0  0  0  0  0
   23.2563  -10.0087  -13.7390 C   0  0  0  0  0  0  0  0  0  0  0  0
   21.8689   -6.2403  -16.0411 C   0  0  0  0  0  0  0  0  0  0  0  0
   21.5330   -5.0462  -15.4272 O   0  0  0  0  0  0  0  0  0  0  0  0
   22.5458   -6.1619  -17.0929 O   0  0  0  0  0  0  0  0  0  0  0  0
  2  1  1  1
  2  3  1  0
  4  2  1  0
  4  5  1  6
  6  4  1  0
  7  6  2  0
  8  6  1  0
  9  8  1  0
  9 10  1  6
 10 11  1  0
 11 15  1  0
 12 11  2  0
 12 13  1  0
 13 14  1  0
 15 14  2  0
 16 17  2  0
 16  9  1  0
 18 16  1  0
 19 18  1  0
 19 20  1  1
 21 22  2  0
 21 20  1  0
 23 22  1  0
 24 23  2  0
 25 24  1  0
 25 26  2  0
 26 21  1  0
 27 19  1  0
 28 27  1  0
 29 27  2  0
M  END
$$$$
