VHF.pdb
     RDKit          3D

 29 30  0  0  1  0  0  0  0  0999 V2000
   29.7205  -19.6067  -17.0765 C   0  0  0  0  0  0  0  0  0  0  0  0
   28.7839  -19.2275  -15.9563 C   0  0  2  0  0  0  0  0  0  0  0  0
   29.3182  -19.6437  -14.6075 C   0  0  0  0  0  0  0  0  0  0  0  0
   27.3637  -19.6361  -16.1710 C   0  0  2  0  0  0  0  0  0  0  0  0
   26.9838  -19.0296  -17.4679 N   0  0  0  0  0  0  0  0  0  0  0  0
   26.4065  -19.1946  -15.1584 C   0  0  0  0  0  0  0  0  0  0  0  0
   26.3198  -17.9516  -14.8546 O   0  0  0  0  0  0  0  0  0  0  0  0
   25.5435  -20.0542  -14.4687 N   0  0  0  0  0  0  0  0  0  0  0  0
   24.5212  -19.5346  -13.4847 C   0  0  1  0  0  0  0  0  0  0  0  0
   23.2468  -19.7164  -14.2129 C   0  0  0  0  0  0  0  0  0  0  0  0
   22.7446  -18.7090  -15.1218 C   0  0  0  0  0  0  0  0  0  0  0  0
   23.1346  -17.4986  -15.5815 C   0  0  0  0  0  0  0  0  0  0  0  0
   22.2698  -17.0148  -16.5034 N   0  0  0  0  0  0  0  0  0  0  0  0
   21.3296  -17.9377  -16.6197 C   0  0  0  0  0  0  0  0  0  0  0  0
   21.5709  -18.9689  -15.8137 N   0  0  0  0  0  0  0  0  0  0  0  0
   24.5939  -20.5048  -12.3418 C   0  0  0  0  0  0  0  0  0  0  0  0
   24.6341  -21.7510  -12.6393 O   0  0  0  0  0  0  0  0  0  0  0  0
   24.6236  -20.0888  -11.0049 N   0  0  0  0  0  0  0  0  0  0  0  0
   24.5729  -21.1121   -9.9474 C   0  0  1  0  0  0  0  0  0  0  0  0
   25.0536  -20.4700   -8.6638 C   0  0  0  0  0  0  0  0  0  0  0  0
   26.5245  -20.2924   -8.6528 C   0  0  0  0  0  0  0  0  0  0  0  0
   27.1026  -19.2639   -7.9054 C   0  0  0  0  0  0  0  0  0  0  0  0
   28.4692  -19.1284   -7.9038 C   0  0  0  0  0  0  0  0  0  0  0  0
   29.2478  -19.9967   -8.6299 C   0  0  0  0  0  0  0  0  0  0  0  0
   28.6641  -21.0110   -9.3657 C   0  0  0  0  0  0  0  0  0  0  0  0
   27.2980  -21.1688   -9.3843 C   0  0  0  0  0  0  0  0  0  0  0  0
   23.1750  -21.5718   -9.8361 C   0  0  0  0  0  0  0  0  0  0  0  0
   22.1631  -20.8547  -10.4506 O   0  0  0  0  0  0  0  0  0  0  0  0
   22.8335  -22.5983   -9.2035 O   0  0  0  0  0  0  0  0  0  0  0  0
  2  1  1  6
  2  3  1  0
  4  2  1  0
  4  5  1  6
  6  4  1  0
  7  6  2  0
  8  6  1  0
  9  8  1  0
  9 10  1  6
 10 11  1  0
 11 15  1  0
 12 11  2  0
 12 13  1  0
 13 14  1  0
 15 14  2  0
 16 17  2  0
 16  9  1  0
 18 16  1  0
 19 18  1  0
 19 20  1  1
 21 22  2  0
 21 20  1  0
 23 22  1  0
 24 23  2  0
 25 24  1  0
 25 26  2  0
 26 21  1  0
 27 19  1  0
 28 27  1  0
 29 27  2  0
M  END
$$$$
