VHF.pdb
     RDKit          3D

 29 30  0  0  1  0  0  0  0  0999 V2000
   26.5706  -23.7953  -19.4817 C   0  0  0  0  0  0  0  0  0  0  0  0
   26.8120  -25.1489  -18.8609 C   0  0  2  0  0  0  0  0  0  0  0  0
   26.1633  -26.2578  -19.6530 C   0  0  0  0  0  0  0  0  0  0  0  0
   26.5100  -25.2235  -17.4004 C   0  0  2  0  0  0  0  0  0  0  0  0
   25.0375  -25.3635  -17.3217 N   0  0  0  0  0  0  0  0  0  0  0  0
   26.9057  -24.0656  -16.6010 C   0  0  0  0  0  0  0  0  0  0  0  0
   28.1359  -23.8959  -16.2805 O   0  0  0  0  0  0  0  0  0  0  0  0
   26.0140  -23.0895  -16.1410 N   0  0  0  0  0  0  0  0  0  0  0  0
   26.4612  -21.9663  -15.2347 C   0  0  1  0  0  0  0  0  0  0  0  0
   26.2935  -20.7714  -16.0900 C   0  0  0  0  0  0  0  0  0  0  0  0
   26.4479  -19.4341  -15.5599 C   0  0  0  0  0  0  0  0  0  0  0  0
   27.3360  -18.7631  -14.7921 C   0  0  0  0  0  0  0  0  0  0  0  0
   26.9950  -17.4599  -14.6613 N   0  0  0  0  0  0  0  0  0  0  0  0
   25.8802  -17.3180  -15.3585 C   0  0  0  0  0  0  0  0  0  0  0  0
   25.5148  -18.4709  -15.9139 N   0  0  0  0  0  0  0  0  0  0  0  0
   25.4338  -21.9538  -14.1406 C   0  0  0  0  0  0  0  0  0  0  0  0
   24.2176  -22.1694  -14.4832 O   0  0  0  0  0  0  0  0  0  0  0  0
   25.7679  -21.7250  -12.7999 N   0  0  0  0  0  0  0  0  0  0  0  0
   24.6894  -21.7122  -11.7975 C   0  0  1  0  0  0  0  0  0  0  0  0
   25.2912  -22.1217  -10.4704 C   0  0  0  0  0  0  0  0  0  0  0  0
   26.3030  -21.1473   -9.9992 C   0  0  0  0  0  0  0  0  0  0  0  0
   25.9328  -20.1093   -9.1412 C   0  0  0  0  0  0  0  0  0  0  0  0
   26.8926  -19.2265   -8.7105 C   0  0  0  0  0  0  0  0  0  0  0  0
   28.1950  -19.3706   -9.1232 C   0  0  0  0  0  0  0  0  0  0  0  0
   28.5494  -20.4020   -9.9725 C   0  0  0  0  0  0  0  0  0  0  0  0
   27.6078  -21.2998  -10.4184 C   0  0  0  0  0  0  0  0  0  0  0  0
   24.1412  -20.3429  -11.7475 C   0  0  0  0  0  0  0  0  0  0  0  0
   22.8926  -20.1207  -11.1931 O   0  0  0  0  0  0  0  0  0  0  0  0
   24.7491  -19.3389  -12.1865 O   0  0  0  0  0  0  0  0  0  0  0  0
  2  1  1  6
  2  3  1  0
  4  2  1  0
  4  5  1  6
  6  4  1  0
  7  6  2  0
  8  6  1  0
  9  8  1  0
  9 10  1  6
 10 11  1  0
 11 15  1  0
 12 11  2  0
 12 13  1  0
 13 14  1  0
 15 14  2  0
 16 17  2  0
 16  9  1  0
 18 16  1  0
 19 18  1  0
 19 20  1  1
 21 22  2  0
 21 20  1  0
 23 22  1  0
 24 23  2  0
 25 24  1  0
 25 26  2  0
 26 21  1  0
 27 19  1  0
 28 27  1  0
 29 27  2  0
M  END
$$$$
