VHF.pdb
     RDKit          3D

 29 30  0  0  1  0  0  0  0  0999 V2000
   24.2644  -14.3272  -18.2123 C   0  0  0  0  0  0  0  0  0  0  0  0
   22.7680  -14.3933  -18.3919 C   0  0  2  0  0  0  0  0  0  0  0  0
   22.3745  -15.3121  -19.5228 C   0  0  0  0  0  0  0  0  0  0  0  0
   22.0929  -13.0631  -18.4611 C   0  0  2  0  0  0  0  0  0  0  0  0
   22.4325  -12.5319  -19.8014 N   0  0  0  0  0  0  0  0  0  0  0  0
   22.5018  -12.0805  -17.4593 C   0  0  0  0  0  0  0  0  0  0  0  0
   22.3377  -12.3282  -16.2116 O   0  0  0  0  0  0  0  0  0  0  0  0
   23.0815  -10.8438  -17.7659 N   0  0  0  0  0  0  0  0  0  0  0  0
   23.5533   -9.8965  -16.6874 C   0  0  1  0  0  0  0  0  0  0  0  0
   24.9853   -9.7199  -17.0129 C   0  0  0  0  0  0  0  0  0  0  0  0
   25.9759  -10.6996  -16.6229 C   0  0  0  0  0  0  0  0  0  0  0  0
   25.9971  -11.9080  -16.0163 C   0  0  0  0  0  0  0  0  0  0  0  0
   27.2502  -12.4169  -15.9662 N   0  0  0  0  0  0  0  0  0  0  0  0
   28.0188  -11.5133  -16.5509 C   0  0  0  0  0  0  0  0  0  0  0  0
   27.3015  -10.4696  -16.9599 N   0  0  0  0  0  0  0  0  0  0  0  0
   22.8090   -8.6247  -16.9726 C   0  0  0  0  0  0  0  0  0  0  0  0
   22.6563   -8.3045  -18.2043 O   0  0  0  0  0  0  0  0  0  0  0  0
   22.2917   -7.8135  -15.9548 N   0  0  0  0  0  0  0  0  0  0  0  0
   21.5128   -6.6219  -16.3310 C   0  0  1  0  0  0  0  0  0  0  0  0
   20.3090   -7.0905  -17.1198 C   0  0  0  0  0  0  0  0  0  0  0  0
   19.3889   -5.9736  -17.4380 C   0  0  0  0  0  0  0  0  0  0  0  0
   18.1777   -5.8445  -16.7548 C   0  0  0  0  0  0  0  0  0  0  0  0
   17.3485   -4.7936  -17.0615 C   0  0  0  0  0  0  0  0  0  0  0  0
   17.7138   -3.8878  -18.0276 C   0  0  0  0  0  0  0  0  0  0  0  0
   18.9153   -4.0260  -18.6970 C   0  0  0  0  0  0  0  0  0  0  0  0
   19.7640   -5.0691  -18.4090 C   0  0  0  0  0  0  0  0  0  0  0  0
   21.1150   -5.9360  -15.0863 C   0  0  0  0  0  0  0  0  0  0  0  0
   20.8869   -4.5709  -15.0949 O   0  0  0  0  0  0  0  0  0  0  0  0
   20.9657   -6.5250  -13.9903 O   0  0  0  0  0  0  0  0  0  0  0  0
  2  1  1  6
  2  3  1  0
  4  2  1  0
  4  5  1  6
  6  4  1  0
  7  6  2  0
  8  6  1  0
  9  8  1  0
  9 10  1  6
 10 11  1  0
 11 15  1  0
 12 11  2  0
 12 13  1  0
 13 14  1  0
 15 14  2  0
 16 17  2  0
 16  9  1  0
 18 16  1  0
 19 18  1  0
 19 20  1  1
 21 22  2  0
 21 20  1  0
 23 22  1  0
 24 23  2  0
 25 24  1  0
 25 26  2  0
 26 21  1  0
 27 19  1  0
 28 27  1  0
 29 27  2  0
M  END
$$$$
