VHF.pdb
     RDKit          3D

 29 30  0  0  1  0  0  0  0  0999 V2000
   29.4872  -18.2545  -16.3892 C   0  0  0  0  0  0  0  0  0  0  0  0
   28.6963  -18.2751  -15.1047 C   0  0  2  0  0  0  0  0  0  0  0  0
   29.4740  -18.9000  -13.9721 C   0  0  0  0  0  0  0  0  0  0  0  0
   27.3151  -18.8273  -15.2364 C   0  0  2  0  0  0  0  0  0  0  0  0
   26.6822  -18.0216  -16.3061 N   0  0  0  0  0  0  0  0  0  0  0  0
   26.4742  -18.7500  -14.0433 C   0  0  0  0  0  0  0  0  0  0  0  0
   25.9869  -17.6231  -13.6724 O   0  0  0  0  0  0  0  0  0  0  0  0
   26.1456  -19.8510  -13.2438 N   0  0  0  0  0  0  0  0  0  0  0  0
   25.3183  -19.7044  -11.9880 C   0  0  1  0  0  0  0  0  0  0  0  0
   24.0390  -20.3441  -12.3643 C   0  0  0  0  0  0  0  0  0  0  0  0
   22.9644  -20.5056  -11.4092 C   0  0  0  0  0  0  0  0  0  0  0  0
   22.4326  -21.5032  -10.6671 C   0  0  0  0  0  0  0  0  0  0  0  0
   21.4369  -21.0522   -9.8688 N   0  0  0  0  0  0  0  0  0  0  0  0
   21.3491  -19.7561  -10.1168 C   0  0  0  0  0  0  0  0  0  0  0  0
   22.2423  -19.3836  -11.0305 N   0  0  0  0  0  0  0  0  0  0  0  0
   26.0341  -20.5576  -10.9819 C   0  0  0  0  0  0  0  0  0  0  0  0
   26.6461  -21.5920  -11.4277 O   0  0  0  0  0  0  0  0  0  0  0  0
   26.0503  -20.2526   -9.6151 N   0  0  0  0  0  0  0  0  0  0  0  0
   26.5480  -21.2684   -8.6724 C   0  0  1  0  0  0  0  0  0  0  0  0
   27.9513  -20.8709   -8.2678 C   0  0  0  0  0  0  0  0  0  0  0  0
   27.9843  -20.2601   -6.9183 C   0  0  0  0  0  0  0  0  0  0  0  0
   27.5191  -18.9575   -6.7250 C   0  0  0  0  0  0  0  0  0  0  0  0
   27.5506  -18.4193   -5.4619 C   0  0  0  0  0  0  0  0  0  0  0  0
   28.0344  -19.1593   -4.4104 C   0  0  0  0  0  0  0  0  0  0  0  0
   28.4920  -20.4476   -4.6141 C   0  0  0  0  0  0  0  0  0  0  0  0
   28.4714  -21.0103   -5.8688 C   0  0  0  0  0  0  0  0  0  0  0  0
   25.6331  -21.2909   -7.5147 C   0  0  0  0  0  0  0  0  0  0  0  0
   25.7750  -22.2669   -6.5435 O   0  0  0  0  0  0  0  0  0  0  0  0
   24.7093  -20.4607   -7.3479 O   0  0  0  0  0  0  0  0  0  0  0  0
  2  1  1  6
  2  3  1  0
  4  2  1  0
  4  5  1  6
  6  4  1  0
  7  6  2  0
  8  6  1  0
  9  8  1  0
  9 10  1  6
 10 11  1  0
 11 15  1  0
 12 11  2  0
 12 13  1  0
 13 14  1  0
 15 14  2  0
 16 17  2  0
 16  9  1  0
 18 16  1  0
 19 18  1  0
 19 20  1  1
 21 22  2  0
 21 20  1  0
 23 22  1  0
 24 23  2  0
 25 24  1  0
 25 26  2  0
 26 21  1  0
 27 19  1  0
 28 27  1  0
 29 27  2  0
M  END
$$$$
