VHF.pdb
     RDKit          3D

 29 30  0  0  1  0  0  0  0  0999 V2000
   26.4895  -16.0966  -18.4968 C   0  0  0  0  0  0  0  0  0  0  0  0
   26.4355  -14.5894  -18.4609 C   0  0  2  0  0  0  0  0  0  0  0  0
   27.7379  -13.9883  -17.9913 C   0  0  0  0  0  0  0  0  0  0  0  0
   25.2467  -14.0286  -17.7522 C   0  0  2  0  0  0  0  0  0  0  0  0
   24.0817  -14.7090  -18.3636 N   0  0  0  0  0  0  0  0  0  0  0  0
   25.0497  -12.5850  -17.8680 C   0  0  0  0  0  0  0  0  0  0  0  0
   25.9252  -11.7767  -17.3932 O   0  0  0  0  0  0  0  0  0  0  0  0
   23.9392  -11.9925  -18.4803 N   0  0  0  0  0  0  0  0  0  0  0  0
   23.8181  -10.4939  -18.6305 C   0  0  1  0  0  0  0  0  0  0  0  0
   23.1239  -10.3518  -19.9287 C   0  0  0  0  0  0  0  0  0  0  0  0
   22.6808   -9.0623  -20.4123 C   0  0  0  0  0  0  0  0  0  0  0  0
   22.7338   -7.7737  -20.0055 C   0  0  0  0  0  0  0  0  0  0  0  0
   22.1882   -6.9404  -20.9219 N   0  0  0  0  0  0  0  0  0  0  0  0
   21.7916   -7.7212  -21.9130 C   0  0  0  0  0  0  0  0  0  0  0  0
   22.0652   -8.9976  -21.6536 N   0  0  0  0  0  0  0  0  0  0  0  0
   22.8955  -10.0924  -17.5167 C   0  0  0  0  0  0  0  0  0  0  0  0
   21.9324  -10.8927  -17.2430 O   0  0  0  0  0  0  0  0  0  0  0  0
   23.0647   -8.9053  -16.7931 N   0  0  0  0  0  0  0  0  0  0  0  0
   22.0675   -8.5575  -15.7671 C   0  0  1  0  0  0  0  0  0  0  0  0
   22.3149   -9.4456  -14.5667 C   0  0  0  0  0  0  0  0  0  0  0  0
   23.7456   -9.8072  -14.4334 C   0  0  0  0  0  0  0  0  0  0  0  0
   24.1107  -11.0481  -13.9067 C   0  0  0  0  0  0  0  0  0  0  0  0
   25.4436  -11.3624  -13.8045 C   0  0  0  0  0  0  0  0  0  0  0  0
   26.3965  -10.4629  -14.2170 C   0  0  0  0  0  0  0  0  0  0  0  0
   26.0229   -9.2377  -14.7368 C   0  0  0  0  0  0  0  0  0  0  0  0
   24.6951   -8.8981  -14.8502 C   0  0  0  0  0  0  0  0  0  0  0  0
   22.2460   -7.1307  -15.4350 C   0  0  0  0  0  0  0  0  0  0  0  0
   21.4174   -6.5318  -14.5020 O   0  0  0  0  0  0  0  0  0  0  0  0
   23.1237   -6.4044  -15.9571 O   0  0  0  0  0  0  0  0  0  0  0  0
  2  1  1  1
  2  3  1  0
  4  2  1  0
  4  5  1  6
  6  4  1  0
  7  6  2  0
  8  6  1  0
  9  8  1  0
  9 10  1  6
 10 11  1  0
 11 15  1  0
 12 11  2  0
 12 13  1  0
 13 14  1  0
 15 14  2  0
 16 17  2  0
 16  9  1  0
 18 16  1  0
 19 18  1  0
 19 20  1  1
 21 22  2  0
 21 20  1  0
 23 22  1  0
 24 23  2  0
 25 24  1  0
 25 26  2  0
 26 21  1  0
 27 19  1  0
 28 27  1  0
 29 27  2  0
M  END
$$$$
