VHF.pdb
     RDKit          3D

 29 30  0  0  1  0  0  0  0  0999 V2000
   14.8443   -2.9049  -14.3894 C   0  0  0  0  0  0  0  0  0  0  0  0
   15.9927   -2.7405  -13.4250 C   0  0  2  0  0  0  0  0  0  0  0  0
   16.4544   -1.3063  -13.3352 C   0  0  0  0  0  0  0  0  0  0  0  0
   17.1168   -3.7019  -13.6304 C   0  0  2  0  0  0  0  0  0  0  0  0
   17.8575   -3.1787  -14.8015 N   0  0  0  0  0  0  0  0  0  0  0  0
   16.7378   -5.0863  -13.9063 C   0  0  0  0  0  0  0  0  0  0  0  0
   16.0999   -5.3761  -14.9807 O   0  0  0  0  0  0  0  0  0  0  0  0
   17.0280   -6.1618  -13.0588 N   0  0  0  0  0  0  0  0  0  0  0  0
   16.5160   -7.5558  -13.3376 C   0  0  1  0  0  0  0  0  0  0  0  0
   17.7562   -8.3048  -13.6347 C   0  0  0  0  0  0  0  0  0  0  0  0
   18.3384   -8.3089  -14.9592 C   0  0  0  0  0  0  0  0  0  0  0  0
   19.5304   -8.0118  -15.5244 C   0  0  0  0  0  0  0  0  0  0  0  0
   19.5292   -8.2720  -16.8526 N   0  0  0  0  0  0  0  0  0  0  0  0
   18.3203   -8.7385  -17.1169 C   0  0  0  0  0  0  0  0  0  0  0  0
   17.5733   -8.7791  -16.0162 N   0  0  0  0  0  0  0  0  0  0  0  0
   15.9565   -8.0058  -12.0195 C   0  0  0  0  0  0  0  0  0  0  0  0
   16.6932   -7.8302  -10.9853 O   0  0  0  0  0  0  0  0  0  0  0  0
   14.6880   -8.5875  -11.9018 N   0  0  0  0  0  0  0  0  0  0  0  0
   14.1876   -8.9205  -10.5577 C   0  0  1  0  0  0  0  0  0  0  0  0
   13.0358   -7.9872  -10.2523 C   0  0  0  0  0  0  0  0  0  0  0  0
   13.5080   -6.6546   -9.8090 C   0  0  0  0  0  0  0  0  0  0  0  0
   13.3749   -5.5467  -10.6488 C   0  0  0  0  0  0  0  0  0  0  0  0
   13.8106   -4.3209  -10.2088 C   0  0  0  0  0  0  0  0  0  0  0  0
   14.3679   -4.1965   -8.9593 C   0  0  0  0  0  0  0  0  0  0  0  0
   14.4942   -5.3003   -8.1369 C   0  0  0  0  0  0  0  0  0  0  0  0
   14.0658   -6.5391   -8.5531 C   0  0  0  0  0  0  0  0  0  0  0  0
   13.7547  -10.3312  -10.5781 C   0  0  0  0  0  0  0  0  0  0  0  0
   13.7563  -11.0349  -11.7699 O   0  0  0  0  0  0  0  0  0  0  0  0
   13.3748  -10.9521   -9.5580 O   0  0  0  0  0  0  0  0  0  0  0  0
  2  1  1  6
  2  3  1  0
  4  2  1  0
  4  5  1  6
  6  4  1  0
  7  6  2  0
  8  6  1  0
  9  8  1  0
  9 10  1  1
 10 11  1  0
 11 15  1  0
 12 11  2  0
 12 13  1  0
 13 14  1  0
 15 14  2  0
 16 17  2  0
 16  9  1  0
 18 16  1  0
 19 18  1  0
 19 20  1  6
 21 22  2  0
 21 20  1  0
 23 22  1  0
 24 23  2  0
 25 24  1  0
 25 26  2  0
 26 21  1  0
 27 19  1  0
 28 27  1  0
 29 27  2  0
M  END
$$$$
