LHF.pdb
     RDKit          3D

 30 31  0  0  1  0  0  0  0  0999 V2000
   27.1781  -16.0230  -17.0849 C   0  0  0  0  0  0  0  0  0  0  0  0
   27.5415  -17.3535  -16.4648 C   0  0  1  0  0  0  0  0  0  0  0  0
   29.0435  -17.5368  -16.5558 C   0  0  0  0  0  0  0  0  0  0  0  0
   27.0781  -17.3841  -15.0285 C   0  0  0  0  0  0  0  0  0  0  0  0
   27.5372  -18.5892  -14.2746 C   0  0  2  0  0  0  0  0  0  0  0  0
   27.6261  -19.7944  -15.0644 N   0  0  0  0  0  0  0  0  0  0  0  0
   26.6843  -18.7778  -13.0562 C   0  0  0  0  0  0  0  0  0  0  0  0
   26.1997  -17.7565  -12.5654 O   0  0  0  0  0  0  0  0  0  0  0  0
   26.4768  -20.0541  -12.5399 N   0  0  0  0  0  0  0  0  0  0  0  0
   25.6907  -20.4954  -11.4337 C   0  0  1  0  0  0  0  0  0  0  0  0
   24.5023  -21.3819  -11.7937 C   0  0  0  0  0  0  0  0  0  0  0  0
   23.4764  -20.6958  -12.5938 C   0  0  0  0  0  0  0  0  0  0  0  0
   23.3501  -20.6611  -13.9493 C   0  0  0  0  0  0  0  0  0  0  0  0
   22.3183  -19.8706  -14.2967 N   0  0  0  0  0  0  0  0  0  0  0  0
   21.8137  -19.4209  -13.1332 C   0  0  0  0  0  0  0  0  0  0  0  0
   22.5088  -19.9153  -12.0903 N   0  0  0  0  0  0  0  0  0  0  0  0
   26.4799  -21.0578  -10.3407 C   0  0  0  0  0  0  0  0  0  0  0  0
   27.3813  -21.9129  -10.6276 O   0  0  0  0  0  0  0  0  0  0  0  0
   26.3405  -20.7421   -8.9730 N   0  0  0  0  0  0  0  0  0  0  0  0
   27.0266  -21.4124   -7.8953 C   0  0  1  0  0  0  0  0  0  0  0  0
   28.3620  -20.7822   -7.5793 C   0  0  0  0  0  0  0  0  0  0  0  0
   28.3920  -20.0693   -6.3040 C   0  0  0  0  0  0  0  0  0  0  0  0
   28.8861  -20.6999   -5.1847 C   0  0  0  0  0  0  0  0  0  0  0  0
   28.9379  -20.0679   -3.9458 C   0  0  0  0  0  0  0  0  0  0  0  0
   28.4911  -18.7822   -3.8084 C   0  0  0  0  0  0  0  0  0  0  0  0
   27.9946  -18.1346   -4.9106 C   0  0  0  0  0  0  0  0  0  0  0  0
   27.9464  -18.7738   -6.1457 C   0  0  0  0  0  0  0  0  0  0  0  0
   26.1850  -21.2907   -6.6883 C   0  0  0  0  0  0  0  0  0  0  0  0
   26.4465  -21.9975   -5.5368 O   0  0  0  0  0  0  0  0  0  0  0  0
   25.2040  -20.5187   -6.7190 O   0  0  0  0  0  0  0  0  0  0  0  0
  2  1  1  1
  3  2  1  0
  4  2  1  0
  5  4  1  0
  5  6  1  6
  7  8  2  0
  7  5  1  0
  9  7  1  0
 10  9  1  0
 10 11  1  6
 12 16  1  0
 12 11  1  0
 13 12  2  0
 14 13  1  0
 14 15  1  0
 15 16  2  0
 17 10  1  0
 17 19  1  0
 18 17  2  0
 20 19  1  0
 20 28  1  0
 20 21  1  1
 22 21  1  0
 23 22  2  0
 24 23  1  0
 25 24  2  0
 25 26  1  0
 26 27  2  0
 27 22  1  0
 28 30  2  0
 28 29  1  0
M  END
$$$$
