LHF.pdb
     RDKit          3D

 30 31  0  0  1  0  0  0  0  0999 V2000
   12.3801  -24.5006   -1.6006 C   0  0  0  0  0  0  0  0  0  0  0  0
   13.5862  -23.5888   -1.6282 C   0  0  1  0  0  0  0  0  0  0  0  0
   13.3732  -22.5352   -2.6970 C   0  0  0  0  0  0  0  0  0  0  0  0
   13.7699  -22.9541   -0.2710 C   0  0  0  0  0  0  0  0  0  0  0  0
   14.9278  -22.0130   -0.1996 C   0  0  2  0  0  0  0  0  0  0  0  0
   16.1921  -22.5843   -0.5992 N   0  0  0  0  0  0  0  0  0  0  0  0
   14.9958  -21.3987    1.1662 C   0  0  0  0  0  0  0  0  0  0  0  0
   14.0011  -20.7700    1.5323 O   0  0  0  0  0  0  0  0  0  0  0  0
   16.1390  -21.5540    1.9455 N   0  0  0  0  0  0  0  0  0  0  0  0
   16.4174  -21.1438    3.2837 C   0  0  1  0  0  0  0  0  0  0  0  0
   17.0473  -22.2119    4.1729 C   0  0  0  0  0  0  0  0  0  0  0  0
   16.1070  -23.2653    4.5846 C   0  0  0  0  0  0  0  0  0  0  0  0
   14.7621  -23.3207    4.3781 C   0  0  0  0  0  0  0  0  0  0  0  0
   14.2495  -24.4169    4.9661 N   0  0  0  0  0  0  0  0  0  0  0  0
   15.3010  -25.0330    5.5366 C   0  0  0  0  0  0  0  0  0  0  0  0
   16.4362  -24.3430    5.3120 N   0  0  0  0  0  0  0  0  0  0  0  0
   17.1295  -19.8714    3.3711 C   0  0  0  0  0  0  0  0  0  0  0  0
   17.9590  -19.5816    2.4469 O   0  0  0  0  0  0  0  0  0  0  0  0
   16.9872  -18.9134    4.3965 N   0  0  0  0  0  0  0  0  0  0  0  0
   17.6843  -17.6515    4.4520 C   0  0  1  0  0  0  0  0  0  0  0  0
   16.9834  -16.5685    3.6670 C   0  0  0  0  0  0  0  0  0  0  0  0
   17.6474  -15.2683    3.7309 C   0  0  0  0  0  0  0  0  0  0  0  0
   17.1786  -14.3080    4.5985 C   0  0  0  0  0  0  0  0  0  0  0  0
   17.7730  -13.0536    4.6997 C   0  0  0  0  0  0  0  0  0  0  0  0
   18.8565  -12.7396    3.9257 C   0  0  0  0  0  0  0  0  0  0  0  0
   19.3404  -13.6814    3.0542 C   0  0  0  0  0  0  0  0  0  0  0  0
   18.7402  -14.9332    2.9592 C   0  0  0  0  0  0  0  0  0  0  0  0
   17.7156  -17.2222    5.8643 C   0  0  0  0  0  0  0  0  0  0  0  0
   18.6720  -16.3590    6.3481 O   0  0  0  0  0  0  0  0  0  0  0  0
   16.8423  -17.6605    6.6417 O   0  0  0  0  0  0  0  0  0  0  0  0
  2  1  1  1
  3  2  1  0
  4  2  1  0
  5  4  1  0
  5  6  1  1
  7  8  2  0
  7  5  1  0
  9  7  1  0
 10  9  1  0
 10 11  1  6
 12 16  1  0
 12 11  1  0
 13 12  2  0
 14 13  1  0
 14 15  1  0
 15 16  2  0
 17 10  1  0
 17 19  1  0
 18 17  2  0
 20 19  1  0
 20 28  1  0
 20 21  1  6
 22 21  1  0
 23 22  2  0
 24 23  1  0
 25 24  2  0
 25 26  1  0
 26 27  2  0
 27 22  1  0
 28 30  2  0
 28 29  1  0
M  END
$$$$
