LHF.pdb
     RDKit          3D

 30 31  0  0  1  0  0  0  0  0999 V2000
   27.9183  -16.3830  -16.8877 C   0  0  0  0  0  0  0  0  0  0  0  0
   27.9052  -17.8116  -16.3919 C   0  0  1  0  0  0  0  0  0  0  0  0
   29.3303  -18.3272  -16.3606 C   0  0  0  0  0  0  0  0  0  0  0  0
   27.2802  -17.8634  -15.0189 C   0  0  0  0  0  0  0  0  0  0  0  0
   27.3884  -19.1995  -14.3595 C   0  0  2  0  0  0  0  0  0  0  0  0
   26.9391  -20.3073  -15.1690 N   0  0  0  0  0  0  0  0  0  0  0  0
   26.7015  -19.1623  -13.0275 C   0  0  0  0  0  0  0  0  0  0  0  0
   26.7717  -18.1002  -12.4064 O   0  0  0  0  0  0  0  0  0  0  0  0
   26.0325  -20.2883  -12.5552 N   0  0  0  0  0  0  0  0  0  0  0  0
   25.2296  -20.4749  -11.3903 C   0  0  1  0  0  0  0  0  0  0  0  0
   23.8455  -21.0653  -11.6429 C   0  0  0  0  0  0  0  0  0  0  0  0
   23.0014  -20.2354  -12.5159 C   0  0  0  0  0  0  0  0  0  0  0  0
   22.8553  -20.3143  -13.8675 C   0  0  0  0  0  0  0  0  0  0  0  0
   22.0419  -19.3346  -14.3019 N   0  0  0  0  0  0  0  0  0  0  0  0
   21.6913  -18.6534  -13.1956 C   0  0  0  0  0  0  0  0  0  0  0  0
   22.2680  -19.1910  -12.1031 N   0  0  0  0  0  0  0  0  0  0  0  0
   25.9245  -21.1587  -10.3025 C   0  0  0  0  0  0  0  0  0  0  0  0
   26.3834  -22.3279  -10.5228 O   0  0  0  0  0  0  0  0  0  0  0  0
   26.1420  -20.6433   -9.0076 N   0  0  0  0  0  0  0  0  0  0  0  0
   26.8380  -21.3334   -7.9489 C   0  0  1  0  0  0  0  0  0  0  0  0
   28.2290  -20.7912   -7.7218 C   0  0  0  0  0  0  0  0  0  0  0  0
   28.3757  -20.0443   -6.4744 C   0  0  0  0  0  0  0  0  0  0  0  0
   28.0249  -18.7140   -6.4338 C   0  0  0  0  0  0  0  0  0  0  0  0
   28.1444  -17.9558   -5.2728 C   0  0  0  0  0  0  0  0  0  0  0  0
   28.6218  -18.5247   -4.1239 C   0  0  0  0  0  0  0  0  0  0  0  0
   28.9774  -19.8491   -4.1415 C   0  0  0  0  0  0  0  0  0  0  0  0
   28.8548  -20.6000   -5.3066 C   0  0  0  0  0  0  0  0  0  0  0  0
   26.0740  -21.1229   -6.7032 C   0  0  0  0  0  0  0  0  0  0  0  0
   25.0089  -20.2542   -6.6332 O   0  0  0  0  0  0  0  0  0  0  0  0
   26.4100  -21.7572   -5.6814 O   0  0  0  0  0  0  0  0  0  0  0  0
  2  1  1  1
  3  2  1  0
  4  2  1  0
  5  4  1  0
  5  6  1  6
  7  8  2  0
  7  5  1  0
  9  7  1  0
 10  9  1  0
 10 11  1  6
 12 16  1  0
 12 11  1  0
 13 12  2  0
 14 13  1  0
 14 15  1  0
 15 16  2  0
 17 10  1  0
 17 19  1  0
 18 17  2  0
 20 19  1  0
 20 28  1  0
 20 21  1  1
 22 21  1  0
 23 22  2  0
 24 23  1  0
 25 24  2  0
 25 26  1  0
 26 27  2  0
 27 22  1  0
 28 30  2  0
 28 29  1  0
M  END
$$$$
