LHF.pdb
     RDKit          3D

 30 31  0  0  1  0  0  0  0  0999 V2000
   27.8417  -15.0919  -15.8329 C   0  0  0  0  0  0  0  0  0  0  0  0
   27.6233  -16.5873  -15.8885 C   0  0  1  0  0  0  0  0  0  0  0  0
   28.9498  -17.2605  -16.1799 C   0  0  0  0  0  0  0  0  0  0  0  0
   27.0515  -17.0629  -14.5751 C   0  0  0  0  0  0  0  0  0  0  0  0
   26.9274  -18.5483  -14.4765 C   0  0  2  0  0  0  0  0  0  0  0  0
   26.3543  -19.1821  -15.6402 N   0  0  0  0  0  0  0  0  0  0  0  0
   26.1936  -18.9115  -13.2207 C   0  0  0  0  0  0  0  0  0  0  0  0
   25.4368  -18.0533  -12.7629 O   0  0  0  0  0  0  0  0  0  0  0  0
   26.3857  -20.1603  -12.6360 N   0  0  0  0  0  0  0  0  0  0  0  0
   25.7119  -20.7943  -11.5495 C   0  0  1  0  0  0  0  0  0  0  0  0
   25.0147  -22.1069  -11.8945 C   0  0  0  0  0  0  0  0  0  0  0  0
   23.9090  -21.9528  -12.8520 C   0  0  0  0  0  0  0  0  0  0  0  0
   22.6369  -21.5323  -12.6081 C   0  0  0  0  0  0  0  0  0  0  0  0
   21.9067  -21.5915  -13.7366 N   0  0  0  0  0  0  0  0  0  0  0  0
   22.7508  -22.0550  -14.6766 C   0  0  0  0  0  0  0  0  0  0  0  0
   23.9713  -22.2785  -14.1516 N   0  0  0  0  0  0  0  0  0  0  0  0
   26.5255  -20.9093  -10.3418 C   0  0  0  0  0  0  0  0  0  0  0  0
   27.6942  -21.4080  -10.4490 O   0  0  0  0  0  0  0  0  0  0  0  0
   26.1382  -20.5156   -9.0438 N   0  0  0  0  0  0  0  0  0  0  0  0
   26.9473  -20.6641   -7.8586 C   0  0  1  0  0  0  0  0  0  0  0  0
   27.4919  -19.3464   -7.3612 C   0  0  0  0  0  0  0  0  0  0  0  0
   28.2612  -19.4543   -6.1235 C   0  0  0  0  0  0  0  0  0  0  0  0
   29.5587  -19.9116   -6.1678 C   0  0  0  0  0  0  0  0  0  0  0  0
   30.3361  -20.0339   -5.0198 C   0  0  0  0  0  0  0  0  0  0  0  0
   29.8202  -19.6967   -3.7985 C   0  0  0  0  0  0  0  0  0  0  0  0
   28.5292  -19.2387   -3.7309 C   0  0  0  0  0  0  0  0  0  0  0  0
   27.7588  -19.1194   -4.8836 C   0  0  0  0  0  0  0  0  0  0  0  0
   26.0823  -21.2131   -6.7955 C   0  0  0  0  0  0  0  0  0  0  0  0
   26.5950  -21.8331   -5.6790 O   0  0  0  0  0  0  0  0  0  0  0  0
   24.8441  -21.1084   -6.9187 O   0  0  0  0  0  0  0  0  0  0  0  0
  2  1  1  1
  3  2  1  0
  4  2  1  0
  5  4  1  0
  5  6  1  6
  7  8  2  0
  7  5  1  0
  9  7  1  0
 10  9  1  0
 10 11  1  6
 12 16  1  0
 12 11  1  0
 13 12  2  0
 14 13  1  0
 14 15  1  0
 15 16  2  0
 17 10  1  0
 17 19  1  0
 18 17  2  0
 20 19  1  0
 20 28  1  0
 20 21  1  1
 22 21  1  0
 23 22  2  0
 24 23  1  0
 25 24  2  0
 25 26  1  0
 26 27  2  0
 27 22  1  0
 28 30  2  0
 28 29  1  0
M  END
$$$$
