CIM.pdb
     RDKit          3D

 23 22  0  0  1  0  0  0  0  0999 V2000
   25.8479  -19.0539  -17.7603 N   0  0  0  0  0  0  0  0  0  0  0  0
   25.6521  -17.7817  -17.0415 C   0  0  1  0  0  0  0  0  0  0  0  0
   26.6230  -16.7850  -17.6469 C   0  0  0  0  0  0  0  0  0  0  0  0
   26.4471  -15.1307  -16.9825 S   0  0  0  0  0  0  0  0  0  0  0  0
   24.2605  -17.3564  -17.2729 C   0  0  0  0  0  0  0  0  0  0  0  0
   23.7832  -17.5380  -18.4507 O   0  0  0  0  0  0  0  0  0  0  0  0
   19.6730  -18.5886  -14.7936 C   0  0  0  0  0  0  0  0  0  0  0  0
   20.8051  -18.2328  -15.7347 C   0  0  0  0  0  0  0  0  0  0  0  0
   21.0339  -16.7537  -15.7302 C   0  0  2  0  0  0  0  0  0  0  0  0
   19.7522  -16.0156  -16.0614 C   0  0  0  0  0  0  0  0  0  0  0  0
   22.1574  -16.2940  -16.6021 C   0  0  2  0  0  0  0  0  0  0  0  0
   23.4469  -16.7664  -16.2602 N   0  0  0  0  0  0  0  0  0  0  0  0
   22.1885  -14.7814  -16.5302 C   0  0  0  0  0  0  0  0  0  0  0  0
   22.5889  -14.2017  -15.4909 O   0  0  0  0  0  0  0  0  0  0  0  0
   23.4608   -8.3980  -20.7673 C   0  0  0  0  0  0  0  0  0  0  0  0
   23.3492  -10.1882  -20.5118 S   0  0  0  0  0  0  0  0  0  0  0  0
   22.5700  -10.5924  -18.9397 C   0  0  0  0  0  0  0  0  0  0  0  0
   22.4490  -12.0606  -18.7861 C   0  0  0  0  0  0  0  0  0  0  0  0
   21.8103  -12.5012  -17.5236 C   0  0  2  0  0  0  0  0  0  0  0  0
   21.7741  -13.9937  -17.6142 N   0  0  0  0  0  0  0  0  0  0  0  0
   20.4918  -12.0073  -17.1728 C   0  0  0  0  0  0  0  0  0  0  0  0
   19.4752  -12.6836  -17.5706 O   0  0  0  0  0  0  0  0  0  0  0  0
   20.1808  -10.8875  -16.4466 O   0  0  0  0  0  0  0  0  0  0  0  0
  2  3  1  0
  2  1  1  6
  4  3  1  0
  5  2  1  0
  6  5  2  0
  8  9  1  0
  8  7  1  0
  9 11  1  0
  9 10  1  6
 11 13  1  0
 11 12  1  1
 12  5  1  0
 13 20  1  0
 14 13  2  0
 16 17  1  0
 16 15  1  0
 19 18  1  6
 18 17  1  0
 19 21  1  0
 20 19  1  0
 21 22  2  0
 21 23  1  0
M  END
$$$$
