CIM.pdb
     RDKit          3D

 23 22  0  0  1  0  0  0  0  0999 V2000
   26.9149  -19.2600   -7.5023 N   0  0  0  0  0  0  0  0  0  0  0  0
   26.2699  -20.4580   -8.0698 C   0  0  1  0  0  0  0  0  0  0  0  0
   24.9740  -20.6587   -7.3061 C   0  0  0  0  0  0  0  0  0  0  0  0
   25.2194  -20.9332   -5.5530 S   0  0  0  0  0  0  0  0  0  0  0  0
   25.9968  -20.1784   -9.4904 C   0  0  0  0  0  0  0  0  0  0  0  0
   25.7289  -18.9629   -9.8046 O   0  0  0  0  0  0  0  0  0  0  0  0
   28.8913  -21.5984  -11.4227 C   0  0  0  0  0  0  0  0  0  0  0  0
   28.2684  -20.8704  -12.5958 C   0  0  0  0  0  0  0  0  0  0  0  0
   26.8680  -21.3509  -12.8161 C   0  0  2  0  0  0  0  0  0  0  0  0
   26.4401  -21.1049  -14.2492 C   0  0  0  0  0  0  0  0  0  0  0  0
   25.8627  -20.8033  -11.8554 C   0  0  2  0  0  0  0  0  0  0  0  0
   26.0202  -21.1846  -10.5016 N   0  0  0  0  0  0  0  0  0  0  0  0
   24.5007  -21.2834  -12.3122 C   0  0  0  0  0  0  0  0  0  0  0  0
   24.1406  -22.4681  -12.1040 O   0  0  0  0  0  0  0  0  0  0  0  0
   19.8134  -17.2249  -12.1234 C   0  0  0  0  0  0  0  0  0  0  0  0
   19.0590  -18.3143  -13.3590 S   0  0  0  0  0  0  0  0  0  0  0  0
   19.9600  -19.8646  -13.5232 C   0  0  0  0  0  0  0  0  0  0  0  0
   21.3803  -19.6786  -13.1464 C   0  0  0  0  0  0  0  0  0  0  0  0
   22.2292  -20.8812  -13.3162 C   0  0  2  0  0  0  0  0  0  0  0  0
   23.6119  -20.4242  -12.9749 N   0  0  0  0  0  0  0  0  0  0  0  0
   22.2512  -21.5731  -14.5915 C   0  0  0  0  0  0  0  0  0  0  0  0
   23.1875  -21.2734  -15.4177 O   0  0  0  0  0  0  0  0  0  0  0  0
   21.3848  -22.5358  -15.0390 O   0  0  0  0  0  0  0  0  0  0  0  0
  2  3  1  0
  2  1  1  1
  4  3  1  0
  5  2  1  0
  6  5  2  0
  8  9  1  0
  8  7  1  0
  9 11  1  0
  9 10  1  6
 11 13  1  0
 11 12  1  1
 12  5  1  0
 13 20  1  0
 14 13  2  0
 16 17  1  0
 16 15  1  0
 19 18  1  6
 18 17  1  0
 19 21  1  0
 20 19  1  0
 21 22  2  0
 21 23  1  0
M  END
$$$$
