CIM.pdb
     RDKit          3D

 23 22  0  0  1  0  0  0  0  0999 V2000
   35.6389  -29.5239  -19.7277 N   0  0  0  0  0  0  0  0  0  0  0  0
   34.4762  -29.1918  -18.8844 C   0  0  1  0  0  0  0  0  0  0  0  0
   33.7390  -28.0641  -19.5827 C   0  0  0  0  0  0  0  0  0  0  0  0
   32.4771  -27.3039  -18.5635 S   0  0  0  0  0  0  0  0  0  0  0  0
   33.6304  -30.3959  -18.8087 C   0  0  0  0  0  0  0  0  0  0  0  0
   33.4211  -31.0314  -19.9043 O   0  0  0  0  0  0  0  0  0  0  0  0
   34.3458  -34.9982  -16.5405 C   0  0  0  0  0  0  0  0  0  0  0  0
   33.9644  -33.7918  -17.3729 C   0  0  0  0  0  0  0  0  0  0  0  0
   32.6851  -33.2009  -16.8685 C   0  0  2  0  0  0  0  0  0  0  0  0
   31.6035  -34.2599  -16.7911 C   0  0  0  0  0  0  0  0  0  0  0  0
   32.2096  -32.0039  -17.6268 C   0  0  2  0  0  0  0  0  0  0  0  0
   33.0525  -30.8676  -17.5926 N   0  0  0  0  0  0  0  0  0  0  0  0
   30.8738  -31.6027  -17.0362 C   0  0  0  0  0  0  0  0  0  0  0  0
   30.8212  -30.9657  -15.9555 O   0  0  0  0  0  0  0  0  0  0  0  0
   24.2958  -30.9605  -20.0155 C   0  0  0  0  0  0  0  0  0  0  0  0
   25.4893  -29.7423  -19.4038 S   0  0  0  0  0  0  0  0  0  0  0  0
   26.3126  -30.3064  -17.9050 C   0  0  0  0  0  0  0  0  0  0  0  0
   27.6829  -30.7758  -18.2143 C   0  0  0  0  0  0  0  0  0  0  0  0
   28.3617  -31.4823  -17.1026 C   0  0  2  0  0  0  0  0  0  0  0  0
   29.6689  -31.9295  -17.6757 N   0  0  0  0  0  0  0  0  0  0  0  0
   27.7085  -32.6060  -16.4577 C   0  0  0  0  0  0  0  0  0  0  0  0
   28.0055  -33.7859  -16.8685 O   0  0  0  0  0  0  0  0  0  0  0  0
   26.7969  -32.5729  -15.4350 O   0  0  0  0  0  0  0  0  0  0  0  0
  2  3  1  0
  2  1  1  6
  4  3  1  0
  5  2  1  0
  6  5  2  0
  8  9  1  0
  8  7  1  0
  9 11  1  0
  9 10  1  6
 11 13  1  0
 11 12  1  1
 12  5  1  0
 13 20  1  0
 14 13  2  0
 16 17  1  0
 16 15  1  0
 19 18  1  6
 18 17  1  0
 19 21  1  0
 20 19  1  0
 21 22  2  0
 21 23  1  0
M  END
$$$$
