CIM.pdb
     RDKit          3D

 23 22  0  0  1  0  0  0  0  0999 V2000
   13.8599  -12.7304  -11.9711 N   0  0  0  0  0  0  0  0  0  0  0  0
   15.0478  -12.1793  -11.2940 C   0  0  1  0  0  0  0  0  0  0  0  0
   16.2465  -12.5456  -12.1494 C   0  0  0  0  0  0  0  0  0  0  0  0
   16.7303  -14.2632  -11.9936 S   0  0  0  0  0  0  0  0  0  0  0  0
   14.8803  -10.7166  -11.2348 C   0  0  0  0  0  0  0  0  0  0  0  0
   14.3061  -10.1542  -12.2358 O   0  0  0  0  0  0  0  0  0  0  0  0
   12.3651   -8.0357   -7.3993 C   0  0  0  0  0  0  0  0  0  0  0  0
   12.9456   -8.5646   -8.6944 C   0  0  0  0  0  0  0  0  0  0  0  0
   14.3296   -8.0310   -8.8950 C   0  0  2  0  0  0  0  0  0  0  0  0
   14.3253   -6.5156   -8.8665 C   0  0  0  0  0  0  0  0  0  0  0  0
   15.0237   -8.5419  -10.1161 C   0  0  2  0  0  0  0  0  0  0  0  0
   15.3213   -9.9253  -10.1326 N   0  0  0  0  0  0  0  0  0  0  0  0
   16.3327   -7.7891  -10.2336 C   0  0  0  0  0  0  0  0  0  0  0  0
   17.3273   -8.1308   -9.5475 O   0  0  0  0  0  0  0  0  0  0  0  0
   22.6010   -7.6699  -13.4585 C   0  0  0  0  0  0  0  0  0  0  0  0
   20.8820   -8.1019  -13.0832 S   0  0  0  0  0  0  0  0  0  0  0  0
   19.9849   -6.7153  -12.3658 C   0  0  0  0  0  0  0  0  0  0  0  0
   18.6141   -7.1284  -11.9860 C   0  0  0  0  0  0  0  0  0  0  0  0
   17.8073   -6.0717  -11.3316 C   0  0  2  0  0  0  0  0  0  0  0  0
   16.4682   -6.6985  -11.1052 N   0  0  0  0  0  0  0  0  0  0  0  0
   17.6343   -4.7883  -11.9862 C   0  0  0  0  0  0  0  0  0  0  0  0
   16.6449   -4.6584  -12.7944 O   0  0  0  0  0  0  0  0  0  0  0  0
   18.4048   -3.6638  -11.8455 O   0  0  0  0  0  0  0  0  0  0  0  0
  2  3  1  0
  2  1  1  6
  4  3  1  0
  5  2  1  0
  6  5  2  0
  8  9  1  0
  8  7  1  0
  9 11  1  0
  9 10  1  6
 11 13  1  0
 11 12  1  1
 12  5  1  0
 13 20  1  0
 14 13  2  0
 16 17  1  0
 16 15  1  0
 19 18  1  6
 18 17  1  0
 19 21  1  0
 20 19  1  0
 21 22  2  0
 21 23  1  0
M  END
$$$$
