CIM.pdb
     RDKit          3D

 23 22  0  0  1  0  0  0  0  0999 V2000
   18.3606  -12.3214  -17.4702 N   0  0  0  0  0  0  0  0  0  0  0  0
   19.1238  -11.2058  -18.0587 C   0  0  1  0  0  0  0  0  0  0  0  0
   18.1071  -10.2384  -18.6358 C   0  0  0  0  0  0  0  0  0  0  0  0
   17.4416  -10.7664  -20.2129 S   0  0  0  0  0  0  0  0  0  0  0  0
   19.8839  -10.5702  -16.9682 C   0  0  0  0  0  0  0  0  0  0  0  0
   19.3041  -10.4844  -15.8261 O   0  0  0  0  0  0  0  0  0  0  0  0
   24.8518  -12.0425  -15.6558 C   0  0  0  0  0  0  0  0  0  0  0  0
   23.4014  -11.6199  -15.7635 C   0  0  0  0  0  0  0  0  0  0  0  0
   23.3022  -10.1278  -15.8265 C   0  0  2  0  0  0  0  0  0  0  0  0
   23.9783   -9.4980  -14.6250 C   0  0  0  0  0  0  0  0  0  0  0  0
   21.9136   -9.6019  -15.9966 C   0  0  2  0  0  0  0  0  0  0  0  0
   21.2066  -10.0615  -17.1331 N   0  0  0  0  0  0  0  0  0  0  0  0
   22.0164   -8.0942  -16.0984 C   0  0  0  0  0  0  0  0  0  0  0  0
   22.5951   -7.5602  -17.0765 O   0  0  0  0  0  0  0  0  0  0  0  0
   18.0979   -4.2236  -17.8870 C   0  0  0  0  0  0  0  0  0  0  0  0
   18.4758   -3.3973  -16.3196 S   0  0  0  0  0  0  0  0  0  0  0  0
   20.1129   -3.8346  -15.7105 C   0  0  0  0  0  0  0  0  0  0  0  0
   20.2666   -5.3067  -15.6544 C   0  0  0  0  0  0  0  0  0  0  0  0
   21.6031   -5.7742  -15.2174 C   0  0  2  0  0  0  0  0  0  0  0  0
   21.4720   -7.2603  -15.1107 N   0  0  0  0  0  0  0  0  0  0  0  0
   22.1843   -5.2524  -13.9946 C   0  0  0  0  0  0  0  0  0  0  0  0
   22.6807   -4.0685  -14.0268 O   0  0  0  0  0  0  0  0  0  0  0  0
   22.2687   -5.8712  -12.7748 O   0  0  0  0  0  0  0  0  0  0  0  0
  2  3  1  0
  2  1  1  1
  4  3  1  0
  5  2  1  0
  6  5  2  0
  8  9  1  0
  8  7  1  0
  9 11  1  0
  9 10  1  1
 11 13  1  0
 11 12  1  6
 12  5  1  0
 13 20  1  0
 14 13  2  0
 16 17  1  0
 16 15  1  0
 19 18  1  1
 18 17  1  0
 19 21  1  0
 20 19  1  0
 21 22  2  0
 21 23  1  0
M  END
$$$$
