CIM.pdb
     RDKit          3D

 23 22  0  0  1  0  0  0  0  0999 V2000
   21.4982  -21.0426  -15.4707 N   0  0  0  0  0  0  0  0  0  0  0  0
   22.2822  -19.8847  -15.0040 C   0  0  1  0  0  0  0  0  0  0  0  0
   21.3493  -19.0393  -14.1568 C   0  0  0  0  0  0  0  0  0  0  0  0
   20.0559  -18.2427  -15.1062 S   0  0  0  0  0  0  0  0  0  0  0  0
   23.3932  -20.4065  -14.1889 C   0  0  0  0  0  0  0  0  0  0  0  0
   23.1664  -21.4696  -13.5059 O   0  0  0  0  0  0  0  0  0  0  0  0
   28.8498  -19.8218  -15.4313 C   0  0  0  0  0  0  0  0  0  0  0  0
   27.4618  -20.3441  -15.1235 C   0  0  0  0  0  0  0  0  0  0  0  0
   27.0980  -20.0364  -13.7046 C   0  0  2  0  0  0  0  0  0  0  0  0
   28.0796  -20.6868  -12.7502 C   0  0  0  0  0  0  0  0  0  0  0  0
   25.6892  -20.3723  -13.3354 C   0  0  2  0  0  0  0  0  0  0  0  0
   24.6779  -19.7884  -14.1348 N   0  0  0  0  0  0  0  0  0  0  0  0
   25.4768  -19.9029  -11.9111 C   0  0  0  0  0  0  0  0  0  0  0  0
   25.2491  -18.6925  -11.6669 O   0  0  0  0  0  0  0  0  0  0  0  0
   20.9673  -21.2986   -8.4465 C   0  0  0  0  0  0  0  0  0  0  0  0
   22.1894  -21.3838   -7.1117 S   0  0  0  0  0  0  0  0  0  0  0  0
   23.7336  -20.5765   -7.5658 C   0  0  0  0  0  0  0  0  0  0  0  0
   24.0848  -20.8875   -8.9707 C   0  0  0  0  0  0  0  0  0  0  0  0
   25.3697  -20.3101   -9.4307 C   0  0  2  0  0  0  0  0  0  0  0  0
   25.5282  -20.8009  -10.8347 N   0  0  0  0  0  0  0  0  0  0  0  0
   26.5865  -20.5767   -8.6866 C   0  0  0  0  0  0  0  0  0  0  0  0
   26.7830  -19.9127   -7.6051 O   0  0  0  0  0  0  0  0  0  0  0  0
   27.5769  -21.4737   -8.9908 O   0  0  0  0  0  0  0  0  0  0  0  0
  2  3  1  0
  2  1  1  1
  4  3  1  0
  5  2  1  0
  6  5  2  0
  8  9  1  0
  8  7  1  0
  9 11  1  0
  9 10  1  1
 11 13  1  0
 11 12  1  6
 12  5  1  0
 13 20  1  0
 14 13  2  0
 16 17  1  0
 16 15  1  0
 19 18  1  1
 18 17  1  0
 19 21  1  0
 20 19  1  0
 21 22  2  0
 21 23  1  0
M  END
$$$$
