CIM.pdb
     RDKit          3D

 23 22  0  0  1  0  0  0  0  0999 V2000
   22.4899  -18.7712  -17.5929 N   0  0  0  0  0  0  0  0  0  0  0  0
   22.7797  -18.6128  -16.1561 C   0  0  1  0  0  0  0  0  0  0  0  0
   21.5284  -19.0369  -15.4096 C   0  0  0  0  0  0  0  0  0  0  0  0
   20.1402  -17.9349  -15.6692 S   0  0  0  0  0  0  0  0  0  0  0  0
   23.9045  -19.5082  -15.8337 C   0  0  0  0  0  0  0  0  0  0  0  0
   24.0063  -20.5877  -16.5210 O   0  0  0  0  0  0  0  0  0  0  0  0
   28.8559  -17.6456  -15.7002 C   0  0  0  0  0  0  0  0  0  0  0  0
   27.5539  -18.4010  -15.8682 C   0  0  0  0  0  0  0  0  0  0  0  0
   27.3258  -19.3027  -14.6955 C   0  0  2  0  0  0  0  0  0  0  0  0
   28.4822  -20.2692  -14.5343 C   0  0  0  0  0  0  0  0  0  0  0  0
   26.0194  -20.0284  -14.7120 C   0  0  2  0  0  0  0  0  0  0  0  0
   24.8593  -19.2240  -14.8124 N   0  0  0  0  0  0  0  0  0  0  0  0
   25.9260  -20.8094  -13.4176 C   0  0  0  0  0  0  0  0  0  0  0  0
   26.2155  -22.0309  -13.3889 O   0  0  0  0  0  0  0  0  0  0  0  0
   26.6199  -18.6869   -7.5171 C   0  0  0  0  0  0  0  0  0  0  0  0
   26.2371  -20.4376   -7.2506 S   0  0  0  0  0  0  0  0  0  0  0  0
   25.2936  -21.1319   -8.6180 C   0  0  0  0  0  0  0  0  0  0  0  0
   25.7368  -20.5426   -9.9026 C   0  0  0  0  0  0  0  0  0  0  0  0
   24.9892  -21.0148  -11.0918 C   0  0  2  0  0  0  0  0  0  0  0  0
   25.5168  -20.1941  -12.2255 N   0  0  0  0  0  0  0  0  0  0  0  0
   23.5390  -20.9676  -11.0964 C   0  0  0  0  0  0  0  0  0  0  0  0
   22.9751  -19.9858  -11.7023 O   0  0  0  0  0  0  0  0  0  0  0  0
   22.6684  -21.8615  -10.5300 O   0  0  0  0  0  0  0  0  0  0  0  0
  2  3  1  0
  2  1  1  6
  4  3  1  0
  5  2  1  0
  6  5  2  0
  8  9  1  0
  8  7  1  0
  9 11  1  0
  9 10  1  6
 11 13  1  0
 11 12  1  1
 12  5  1  0
 13 20  1  0
 14 13  2  0
 16 17  1  0
 16 15  1  0
 19 18  1  1
 18 17  1  0
 19 21  1  0
 20 19  1  0
 21 22  2  0
 21 23  1  0
M  END
$$$$
