CIM.pdb
     RDKit          3D

 23 22  0  0  1  0  0  0  0  0999 V2000
   22.8062  -22.0450  -13.3222 N   0  0  0  0  0  0  0  0  0  0  0  0
   23.1852  -20.8534  -12.5413 C   0  0  1  0  0  0  0  0  0  0  0  0
   21.9671  -20.4607  -11.7260 C   0  0  0  0  0  0  0  0  0  0  0  0
   20.6079  -19.8602  -12.7264 S   0  0  0  0  0  0  0  0  0  0  0  0
   24.2975  -21.2434  -11.6571 C   0  0  0  0  0  0  0  0  0  0  0  0
   24.2104  -22.3868  -11.0800 O   0  0  0  0  0  0  0  0  0  0  0  0
   29.4500  -21.1486  -13.0607 C   0  0  0  0  0  0  0  0  0  0  0  0
   28.0548  -21.4216  -12.5384 C   0  0  0  0  0  0  0  0  0  0  0  0
   27.8706  -20.7792  -11.1991 C   0  0  2  0  0  0  0  0  0  0  0  0
   28.9154  -21.2783  -10.2210 C   0  0  0  0  0  0  0  0  0  0  0  0
   26.4957  -20.9112  -10.6282 C   0  0  2  0  0  0  0  0  0  0  0  0
   25.4375  -20.4169  -11.4273 N   0  0  0  0  0  0  0  0  0  0  0  0
   26.4797  -20.1466   -9.3208 C   0  0  0  0  0  0  0  0  0  0  0  0
   26.1370  -18.9390   -9.2938 O   0  0  0  0  0  0  0  0  0  0  0  0
   28.6454  -23.1398   -4.1994 C   0  0  0  0  0  0  0  0  0  0  0  0
   28.2087  -21.6054   -3.3407 S   0  0  0  0  0  0  0  0  0  0  0  0
   27.6136  -20.3461   -4.4819 C   0  0  0  0  0  0  0  0  0  0  0  0
   27.4266  -20.9216   -5.8338 C   0  0  0  0  0  0  0  0  0  0  0  0
   26.9596  -19.9583   -6.8583 C   0  0  2  0  0  0  0  0  0  0  0  0
   26.8445  -20.7622   -8.1144 N   0  0  0  0  0  0  0  0  0  0  0  0
   27.7309  -18.7581   -7.1231 C   0  0  0  0  0  0  0  0  0  0  0  0
   28.6872  -18.8387   -7.9764 O   0  0  0  0  0  0  0  0  0  0  0  0
   27.5635  -17.5143   -6.5727 O   0  0  0  0  0  0  0  0  0  0  0  0
  2  3  1  0
  2  1  1  6
  4  3  1  0
  5  2  1  0
  6  5  2  0
  8  9  1  0
  8  7  1  0
  9 11  1  0
  9 10  1  1
 11 13  1  0
 11 12  1  6
 12  5  1  0
 13 20  1  0
 14 13  2  0
 16 17  1  0
 16 15  1  0
 19 18  1  1
 18 17  1  0
 19 21  1  0
 20 19  1  0
 21 22  2  0
 21 23  1  0
M  END
$$$$
