CIM.pdb
     RDKit          3D

 23 22  0  0  1  0  0  0  0  0999 V2000
   28.2311  -21.4541  -17.3075 N   0  0  0  0  0  0  0  0  0  0  0  0
   28.1034  -22.2383  -16.0658 C   0  0  1  0  0  0  0  0  0  0  0  0
   29.5025  -22.6888  -15.6886 C   0  0  0  0  0  0  0  0  0  0  0  0
   30.1097  -24.0373  -16.6994 S   0  0  0  0  0  0  0  0  0  0  0  0
   27.5516  -21.3417  -15.0350 C   0  0  0  0  0  0  0  0  0  0  0  0
   27.9989  -20.1386  -15.0083 O   0  0  0  0  0  0  0  0  0  0  0  0
   23.0840  -19.4162  -15.5965 C   0  0  0  0  0  0  0  0  0  0  0  0
   24.5058  -19.7386  -15.1860 C   0  0  0  0  0  0  0  0  0  0  0  0
   24.5185  -20.3900  -13.8385 C   0  0  2  0  0  0  0  0  0  0  0  0
   23.7895  -19.5306  -12.8249 C   0  0  0  0  0  0  0  0  0  0  0  0
   25.8763  -20.7688  -13.3419 C   0  0  2  0  0  0  0  0  0  0  0  0
   26.5634  -21.7529  -14.0917 N   0  0  0  0  0  0  0  0  0  0  0  0
   25.7046  -21.3008  -11.9343 C   0  0  0  0  0  0  0  0  0  0  0  0
   25.2038  -22.4357  -11.7393 O   0  0  0  0  0  0  0  0  0  0  0  0
   28.4552  -18.1661   -7.2271 C   0  0  0  0  0  0  0  0  0  0  0  0
   27.7142  -19.4507   -6.1864 S   0  0  0  0  0  0  0  0  0  0  0  0
   26.5883  -20.5012   -7.1199 C   0  0  0  0  0  0  0  0  0  0  0  0
   26.7802  -20.2988   -8.5746 C   0  0  0  0  0  0  0  0  0  0  0  0
   25.8330  -21.0464   -9.4346 C   0  0  2  0  0  0  0  0  0  0  0  0
   26.0974  -20.5461  -10.8191 N   0  0  0  0  0  0  0  0  0  0  0  0
   24.4091  -20.9826   -9.1627 C   0  0  0  0  0  0  0  0  0  0  0  0
   23.9660  -21.6267   -8.1439 O   0  0  0  0  0  0  0  0  0  0  0  0
   23.4502  -20.3008   -9.8653 O   0  0  0  0  0  0  0  0  0  0  0  0
  2  3  1  0
  2  1  1  6
  4  3  1  0
  5  2  1  0
  6  5  2  0
  8  9  1  0
  8  7  1  0
  9 11  1  0
  9 10  1  1
 11 13  1  0
 11 12  1  6
 12  5  1  0
 13 20  1  0
 14 13  2  0
 16 17  1  0
 16 15  1  0
 19 18  1  1
 18 17  1  0
 19 21  1  0
 20 19  1  0
 21 22  2  0
 21 23  1  0
M  END
$$$$
