CIM.pdb
     RDKit          3D

 23 22  0  0  1  0  0  0  0  0999 V2000
   15.3529  -24.1938   -5.2809 N   0  0  0  0  0  0  0  0  0  0  0  0
   15.2374  -25.0033   -4.0542 C   0  0  1  0  0  0  0  0  0  0  0  0
   16.2924  -26.0900   -4.1481 C   0  0  0  0  0  0  0  0  0  0  0  0
   15.9507  -27.5022   -3.1004 S   0  0  0  0  0  0  0  0  0  0  0  0
   15.5105  -24.1124   -2.9129 C   0  0  0  0  0  0  0  0  0  0  0  0
   16.4563  -23.2560   -3.0547 O   0  0  0  0  0  0  0  0  0  0  0  0
   12.0840  -20.9823   -0.0970 C   0  0  0  0  0  0  0  0  0  0  0  0
   13.1715  -21.6828   -0.8847 C   0  0  0  0  0  0  0  0  0  0  0  0
   13.9686  -22.5734    0.0163 C   0  0  2  0  0  0  0  0  0  0  0  0
   14.4324  -21.8127    1.2425 C   0  0  0  0  0  0  0  0  0  0  0  0
   15.1131  -23.2684   -0.6477 C   0  0  2  0  0  0  0  0  0  0  0  0
   14.7792  -24.1666   -1.6891 N   0  0  0  0  0  0  0  0  0  0  0  0
   15.8391  -24.0562    0.4230 C   0  0  0  0  0  0  0  0  0  0  0  0
   15.3845  -25.1565    0.8222 O   0  0  0  0  0  0  0  0  0  0  0  0
   22.4275  -24.7618    2.2079 C   0  0  0  0  0  0  0  0  0  0  0  0
   21.5494  -25.0045    0.6419 S   0  0  0  0  0  0  0  0  0  0  0  0
   19.7933  -25.3076    0.8995 C   0  0  0  0  0  0  0  0  0  0  0  0
   19.1917  -24.2124    1.6949 C   0  0  0  0  0  0  0  0  0  0  0  0
   17.7567  -24.3955    2.0159 C   0  0  2  0  0  0  0  0  0  0  0  0
   17.0296  -23.5816    0.9931 N   0  0  0  0  0  0  0  0  0  0  0  0
   17.2658  -24.0576    3.3388 C   0  0  0  0  0  0  0  0  0  0  0  0
   16.8443  -22.8600    3.5318 O   0  0  0  0  0  0  0  0  0  0  0  0
   17.1837  -24.8730    4.4371 O   0  0  0  0  0  0  0  0  0  0  0  0
  2  3  1  0
  2  1  1  6
  4  3  1  0
  5  2  1  0
  6  5  2  0
  8  9  1  0
  8  7  1  0
  9 11  1  0
  9 10  1  1
 11 13  1  0
 11 12  1  6
 12  5  1  0
 13 20  1  0
 14 13  2  0
 16 17  1  0
 16 15  1  0
 19 18  1  1
 18 17  1  0
 19 21  1  0
 20 19  1  0
 21 22  2  0
 21 23  1  0
M  END
$$$$
