GWV.pdb
     RDKit          3D

 26 27  0  0  1  0  0  0  0  0999 V2000
   29.7869  -21.2615  -13.9715 N   0  0  0  0  0  0  0  0  0  0  0  0
   29.1231  -20.2973  -13.1490 C   0  0  0  0  0  0  0  0  0  0  0  0
   28.0588  -20.9163  -12.3160 C   0  0  0  0  0  0  0  0  0  0  0  0
   27.5109  -21.9803  -12.6756 O   0  0  0  0  0  0  0  0  0  0  0  0
   27.6668  -20.2947  -11.1110 N   0  0  0  0  0  0  0  0  0  0  0  0
   26.5151  -20.7044  -10.3365 C   0  0  1  0  0  0  0  0  0  0  0  0
   26.5396  -20.1301   -8.9414 C   0  0  0  0  0  0  0  0  0  0  0  0
   27.7724  -20.4456   -8.2137 C   0  0  0  0  0  0  0  0  0  0  0  0
   28.8009  -21.2248   -8.6900 C   0  0  0  0  0  0  0  0  0  0  0  0
   29.7612  -21.2912   -7.7459 N   0  0  0  0  0  0  0  0  0  0  0  0
   29.3966  -20.5730   -6.6486 C   0  0  0  0  0  0  0  0  0  0  0  0
   29.9872  -20.3126   -5.4359 C   0  0  0  0  0  0  0  0  0  0  0  0
   29.3560  -19.5250   -4.4950 C   0  0  0  0  0  0  0  0  0  0  0  0
   28.1160  -18.9985   -4.7882 C   0  0  0  0  0  0  0  0  0  0  0  0
   27.5401  -19.2669   -6.0009 C   0  0  0  0  0  0  0  0  0  0  0  0
   28.1580  -20.0525   -6.9528 C   0  0  0  0  0  0  0  0  0  0  0  0
   25.2413  -20.2809  -10.9741 C   0  0  0  0  0  0  0  0  0  0  0  0
   25.0561  -19.0527  -11.1420 O   0  0  0  0  0  0  0  0  0  0  0  0
   22.9765  -23.2558  -13.1606 C   0  0  0  0  0  0  0  0  0  0  0  0
   23.2191  -21.8187  -13.5184 C   0  0  1  0  0  0  0  0  0  0  0  0
   22.1829  -21.4035  -14.5389 C   0  0  0  0  0  0  0  0  0  0  0  0
   23.1987  -20.8937  -12.3094 C   0  0  2  0  0  0  0  0  0  0  0  0
   24.2619  -21.2271  -11.3823 N   0  0  0  0  0  0  0  0  0  0  0  0
   21.8799  -20.8464  -11.6585 C   0  0  0  0  0  0  0  0  0  0  0  0
   21.6352  -21.3440  -10.5325 O   0  0  0  0  0  0  0  0  0  0  0  0
   20.8398  -20.2145  -12.3250 O   0  0  0  0  0  0  0  0  0  0  0  0
  1  2  1  0
  3  2  1  0
  3  4  2  0
  5  3  1  0
  6  5  1  0
  6  7  1  1
  7  8  1  0
  8  9  2  0
  8 16  1  0
  9 10  1  0
 10 11  1  0
 11 12  2  0
 12 13  1  0
 14 13  2  0
 15 14  1  0
 16 15  2  0
 16 11  1  0
 17  6  1  0
 18 17  2  0
 20 21  1  6
 20 19  1  0
 22 20  1  0
 22 23  1  1
 23 17  1  0
 24 22  1  0
 25 24  2  0
 26 24  1  0
M  END
$$$$
