GWV.pdb
     RDKit          3D

 26 27  0  0  1  0  0  0  0  0999 V2000
   29.4269  -21.2361  -14.0073 N   0  0  0  0  0  0  0  0  0  0  0  0
   28.7699  -20.2478  -13.2083 C   0  0  0  0  0  0  0  0  0  0  0  0
   27.7068  -20.8403  -12.3547 C   0  0  0  0  0  0  0  0  0  0  0  0
   27.0570  -21.8322  -12.7487 O   0  0  0  0  0  0  0  0  0  0  0  0
   27.4323  -20.2754  -11.0907 N   0  0  0  0  0  0  0  0  0  0  0  0
   26.3357  -20.6979  -10.2460 C   0  0  1  0  0  0  0  0  0  0  0  0
   26.4446  -20.1290   -8.8528 C   0  0  0  0  0  0  0  0  0  0  0  0
   27.7134  -20.4589   -8.1969 C   0  0  0  0  0  0  0  0  0  0  0  0
   28.7366  -21.1840   -8.7616 C   0  0  0  0  0  0  0  0  0  0  0  0
   29.7372  -21.2848   -7.8635 N   0  0  0  0  0  0  0  0  0  0  0  0
   29.4047  -20.6424   -6.7105 C   0  0  0  0  0  0  0  0  0  0  0  0
   30.0407  -20.4417   -5.5094 C   0  0  0  0  0  0  0  0  0  0  0  0
   29.4337  -19.7269   -4.4971 C   0  0  0  0  0  0  0  0  0  0  0  0
   28.1718  -19.2126   -4.7065 C   0  0  0  0  0  0  0  0  0  0  0  0
   27.5507  -19.4210   -5.9087 C   0  0  0  0  0  0  0  0  0  0  0  0
   28.1438  -20.1334   -6.9313 C   0  0  0  0  0  0  0  0  0  0  0  0
   25.0203  -20.2826  -10.7992 C   0  0  0  0  0  0  0  0  0  0  0  0
   24.8044  -19.0542  -10.9237 O   0  0  0  0  0  0  0  0  0  0  0  0
   23.0143  -23.2192  -13.1339 C   0  0  0  0  0  0  0  0  0  0  0  0
   23.0836  -21.7399  -13.3762 C   0  0  1  0  0  0  0  0  0  0  0  0
   21.9992  -21.3705  -14.3636 C   0  0  0  0  0  0  0  0  0  0  0  0
   22.9624  -20.9220  -12.0979 C   0  0  2  0  0  0  0  0  0  0  0  0
   24.0360  -21.2366  -11.1762 N   0  0  0  0  0  0  0  0  0  0  0  0
   21.6344  -21.0426  -11.4758 C   0  0  0  0  0  0  0  0  0  0  0  0
   20.5829  -20.5670  -11.9693 O   0  0  0  0  0  0  0  0  0  0  0  0
   21.5320  -21.7225  -10.2706 O   0  0  0  0  0  0  0  0  0  0  0  0
  1  2  1  0
  3  2  1  0
  3  4  2  0
  5  3  1  0
  6  5  1  0
  6  7  1  1
  7  8  1  0
  8  9  2  0
  8 16  1  0
  9 10  1  0
 10 11  1  0
 11 12  2  0
 12 13  1  0
 14 13  2  0
 15 14  1  0
 16 15  2  0
 16 11  1  0
 17  6  1  0
 18 17  2  0
 20 21  1  6
 20 19  1  0
 22 20  1  0
 22 23  1  1
 23 17  1  0
 24 22  1  0
 25 24  2  0
 26 24  1  0
M  END
$$$$
