GWV.pdb
     RDKit          3D

 26 27  0  0  1  0  0  0  0  0999 V2000
   28.3476  -18.7576  -18.8787 N   0  0  0  0  0  0  0  0  0  0  0  0
   28.0172  -18.0726  -17.6669 C   0  0  0  0  0  0  0  0  0  0  0  0
   27.4577  -18.9936  -16.6430 C   0  0  0  0  0  0  0  0  0  0  0  0
   26.9707  -20.0942  -16.9789 O   0  0  0  0  0  0  0  0  0  0  0  0
   27.4783  -18.6185  -15.2824 N   0  0  0  0  0  0  0  0  0  0  0  0
   26.9662  -19.4504  -14.2147 C   0  0  1  0  0  0  0  0  0  0  0  0
   27.6772  -19.1941  -12.9088 C   0  0  0  0  0  0  0  0  0  0  0  0
   27.3502  -20.1809  -11.8753 C   0  0  0  0  0  0  0  0  0  0  0  0
   27.6194  -21.5279  -11.9470 C   0  0  0  0  0  0  0  0  0  0  0  0
   27.1758  -22.1145  -10.8170 N   0  0  0  0  0  0  0  0  0  0  0  0
   26.6158  -21.1885   -9.9914 C   0  0  0  0  0  0  0  0  0  0  0  0
   26.0269  -21.2437   -8.7514 C   0  0  0  0  0  0  0  0  0  0  0  0
   25.5375  -20.1033   -8.1482 C   0  0  0  0  0  0  0  0  0  0  0  0
   25.6470  -18.8984   -8.8093 C   0  0  0  0  0  0  0  0  0  0  0  0
   26.2363  -18.8593  -10.0444 C   0  0  0  0  0  0  0  0  0  0  0  0
   26.7308  -19.9905  -10.6616 C   0  0  0  0  0  0  0  0  0  0  0  0
   25.5147  -19.2263  -13.9873 C   0  0  0  0  0  0  0  0  0  0  0  0
   25.1283  -18.0454  -13.8225 O   0  0  0  0  0  0  0  0  0  0  0  0
   22.6689  -19.7619  -16.1025 C   0  0  0  0  0  0  0  0  0  0  0  0
   22.3186  -20.5099  -14.8496 C   0  0  1  0  0  0  0  0  0  0  0  0
   22.4289  -21.9909  -15.1358 C   0  0  0  0  0  0  0  0  0  0  0  0
   23.1839  -20.1157  -13.6607 C   0  0  2  0  0  0  0  0  0  0  0  0
   24.5902  -20.3059  -13.9560 N   0  0  0  0  0  0  0  0  0  0  0  0
   22.7747  -20.7894  -12.4182 C   0  0  0  0  0  0  0  0  0  0  0  0
   23.4626  -21.6616  -11.8339 O   0  0  0  0  0  0  0  0  0  0  0  0
   21.5554  -20.4435  -11.8533 O   0  0  0  0  0  0  0  0  0  0  0  0
  1  2  1  0
  3  2  1  0
  3  4  2  0
  5  3  1  0
  6  5  1  0
  6  7  1  1
  7  8  1  0
  8  9  2  0
  8 16  1  0
  9 10  1  0
 10 11  1  0
 11 12  2  0
 12 13  1  0
 14 13  2  0
 15 14  1  0
 16 15  2  0
 16 11  1  0
 17  6  1  0
 18 17  2  0
 20 21  1  6
 20 19  1  0
 22 20  1  0
 22 23  1  6
 23 17  1  0
 24 22  1  0
 25 24  2  0
 26 24  1  0
M  END
$$$$
