GWV.pdb
     RDKit          3D

 26 27  0  0  1  0  0  0  0  0999 V2000
   28.5339  -21.5774  -15.3405 N   0  0  0  0  0  0  0  0  0  0  0  0
   28.0462  -20.5959  -14.4209 C   0  0  0  0  0  0  0  0  0  0  0  0
   26.9512  -21.1290  -13.5684 C   0  0  0  0  0  0  0  0  0  0  0  0
   26.2901  -22.1241  -13.9346 O   0  0  0  0  0  0  0  0  0  0  0  0
   26.6591  -20.5036  -12.3372 N   0  0  0  0  0  0  0  0  0  0  0  0
   25.6050  -20.9411  -11.4473 C   0  0  1  0  0  0  0  0  0  0  0  0
   25.8183  -20.4517  -10.0361 C   0  0  0  0  0  0  0  0  0  0  0  0
   27.1617  -20.7417   -9.5261 C   0  0  0  0  0  0  0  0  0  0  0  0
   28.0936  -21.5405  -10.1468 C   0  0  0  0  0  0  0  0  0  0  0  0
   29.2059  -21.5729   -9.3853 N   0  0  0  0  0  0  0  0  0  0  0  0
   29.0373  -20.8126   -8.2689 C   0  0  0  0  0  0  0  0  0  0  0  0
   29.8316  -20.5073   -7.1904 C   0  0  0  0  0  0  0  0  0  0  0  0
   29.3727  -19.6833   -6.1833 C   0  0  0  0  0  0  0  0  0  0  0  0
   28.0980  -19.1658   -6.2725 C   0  0  0  0  0  0  0  0  0  0  0  0
   27.3182  -19.4791   -7.3534 C   0  0  0  0  0  0  0  0  0  0  0  0
   27.7621  -20.3016   -8.3690 C   0  0  0  0  0  0  0  0  0  0  0  0
   24.2710  -20.4605  -11.8925 C   0  0  0  0  0  0  0  0  0  0  0  0
   24.0926  -19.2216  -11.9591 O   0  0  0  0  0  0  0  0  0  0  0  0
   22.8611  -21.1289  -15.1607 C   0  0  0  0  0  0  0  0  0  0  0  0
   21.7756  -21.5147  -14.1990 C   0  0  1  0  0  0  0  0  0  0  0  0
   21.7069  -23.0245  -14.1435 C   0  0  0  0  0  0  0  0  0  0  0  0
   21.9745  -20.9239  -12.8101 C   0  0  2  0  0  0  0  0  0  0  0  0
   23.2286  -21.3654  -12.2326 N   0  0  0  0  0  0  0  0  0  0  0  0
   20.8282  -21.1738  -11.9221 C   0  0  0  0  0  0  0  0  0  0  0  0
   20.8825  -21.8863  -10.8903 O   0  0  0  0  0  0  0  0  0  0  0  0
   19.6106  -20.5887  -12.2394 O   0  0  0  0  0  0  0  0  0  0  0  0
  1  2  1  0
  3  2  1  0
  3  4  2  0
  5  3  1  0
  6  5  1  0
  6  7  1  1
  7  8  1  0
  8  9  2  0
  8 16  1  0
  9 10  1  0
 10 11  1  0
 11 12  2  0
 12 13  1  0
 14 13  2  0
 15 14  1  0
 16 15  2  0
 16 11  1  0
 17  6  1  0
 18 17  2  0
 20 21  1  1
 20 19  1  0
 22 20  1  0
 22 23  1  1
 23 17  1  0
 24 22  1  0
 25 24  2  0
 26 24  1  0
M  END
$$$$
