GWV.pdb
     RDKit          3D

 26 27  0  0  1  0  0  0  0  0999 V2000
   31.3523  -21.7609  -10.3873 N   0  0  0  0  0  0  0  0  0  0  0  0
   30.3932  -20.7095  -10.5346 C   0  0  0  0  0  0  0  0  0  0  0  0
   29.0273  -21.1443  -10.1406 C   0  0  0  0  0  0  0  0  0  0  0  0
   28.7816  -22.3519   -9.9338 O   0  0  0  0  0  0  0  0  0  0  0  0
   28.0033  -20.1831  -10.0003 N   0  0  0  0  0  0  0  0  0  0  0  0
   26.6428  -20.5107   -9.6314 C   0  0  1  0  0  0  0  0  0  0  0  0
   26.1517  -19.6683   -8.4799 C   0  0  0  0  0  0  0  0  0  0  0  0
   27.1768  -19.4435   -7.4565 C   0  0  0  0  0  0  0  0  0  0  0  0
   28.0215  -18.3594   -7.4003 C   0  0  0  0  0  0  0  0  0  0  0  0
   28.8240  -18.4965   -6.3256 N   0  0  0  0  0  0  0  0  0  0  0  0
   28.5339  -19.6490   -5.6622 C   0  0  0  0  0  0  0  0  0  0  0  0
   29.0335  -20.2563   -4.5357 C   0  0  0  0  0  0  0  0  0  0  0  0
   28.5212  -21.4584   -4.0925 C   0  0  0  0  0  0  0  0  0  0  0  0
   27.4941  -22.0476   -4.7987 C   0  0  0  0  0  0  0  0  0  0  0  0
   27.0068  -21.4305   -5.9194 C   0  0  0  0  0  0  0  0  0  0  0  0
   27.5079  -20.2282   -6.3759 C   0  0  0  0  0  0  0  0  0  0  0  0
   25.7009  -20.3158  -10.7642 C   0  0  0  0  0  0  0  0  0  0  0  0
   25.7856  -19.2465  -11.4126 O   0  0  0  0  0  0  0  0  0  0  0  0
   25.4122  -22.3532  -13.7821 C   0  0  0  0  0  0  0  0  0  0  0  0
   24.0160  -22.2740  -13.2377 C   0  0  1  0  0  0  0  0  0  0  0  0
   23.6709  -23.6119  -12.6228 C   0  0  0  0  0  0  0  0  0  0  0  0
   23.8334  -21.1455  -12.2323 C   0  0  2  0  0  0  0  0  0  0  0  0
   24.7349  -21.3008  -11.1078 N   0  0  0  0  0  0  0  0  0  0  0  0
   22.4324  -20.9871  -11.8114 C   0  0  0  0  0  0  0  0  0  0  0  0
   22.0225  -21.1987  -10.6441 O   0  0  0  0  0  0  0  0  0  0  0  0
   21.5034  -20.5791  -12.7580 O   0  0  0  0  0  0  0  0  0  0  0  0
  1  2  1  0
  3  2  1  0
  3  4  2  0
  5  3  1  0
  6  5  1  0
  6  7  1  1
  7  8  1  0
  8  9  2  0
  8 16  1  0
  9 10  1  0
 10 11  1  0
 11 12  2  0
 12 13  1  0
 14 13  2  0
 15 14  1  0
 16 15  2  0
 16 11  1  0
 17  6  1  0
 18 17  2  0
 20 21  1  1
 20 19  1  0
 22 20  1  0
 22 23  1  1
 23 17  1  0
 24 22  1  0
 25 24  2  0
 26 24  1  0
M  END
$$$$
