GWV.pdb
     RDKit          3D

 26 27  0  0  1  0  0  0  0  0999 V2000
   28.2697  -22.2832  -15.4002 N   0  0  0  0  0  0  0  0  0  0  0  0
   28.4526  -21.2649  -14.4121 C   0  0  0  0  0  0  0  0  0  0  0  0
   27.6424  -21.5222  -13.1926 C   0  0  0  0  0  0  0  0  0  0  0  0
   26.6391  -22.2653  -13.2434 O   0  0  0  0  0  0  0  0  0  0  0  0
   28.0122  -20.9208  -11.9704 N   0  0  0  0  0  0  0  0  0  0  0  0
   27.2025  -20.9788  -10.7723 C   0  0  1  0  0  0  0  0  0  0  0  0
   27.9198  -20.4001   -9.5776 C   0  0  0  0  0  0  0  0  0  0  0  0
   27.1752  -20.5676   -8.3260 C   0  0  0  0  0  0  0  0  0  0  0  0
   25.9217  -21.1225   -8.2135 C   0  0  0  0  0  0  0  0  0  0  0  0
   25.5615  -21.1082   -6.9143 N   0  0  0  0  0  0  0  0  0  0  0  0
   26.5475  -20.5555   -6.1559 C   0  0  0  0  0  0  0  0  0  0  0  0
   26.6951  -20.3046   -4.8133 C   0  0  0  0  0  0  0  0  0  0  0  0
   27.8432  -19.7157   -4.3246 C   0  0  0  0  0  0  0  0  0  0  0  0
   28.8485  -19.3793   -5.2061 C   0  0  0  0  0  0  0  0  0  0  0  0
   28.6869  -19.6354   -6.5412 C   0  0  0  0  0  0  0  0  0  0  0  0
   27.5450  -20.2238   -7.0462 C   0  0  0  0  0  0  0  0  0  0  0  0
   25.9251  -20.2363  -10.9321 C   0  0  0  0  0  0  0  0  0  0  0  0
   25.9879  -18.9891  -11.0403 O   0  0  0  0  0  0  0  0  0  0  0  0
   23.0934  -22.1565  -13.1972 C   0  0  0  0  0  0  0  0  0  0  0  0
   23.3250  -20.6875  -12.9963 C   0  0  1  0  0  0  0  0  0  0  0  0
   22.1783  -19.9358  -13.6345 C   0  0  0  0  0  0  0  0  0  0  0  0
   23.4823  -20.3057  -11.5310 C   0  0  2  0  0  0  0  0  0  0  0  0
   24.6721  -20.9073  -10.9622 N   0  0  0  0  0  0  0  0  0  0  0  0
   22.2747  -20.5935  -10.7410 C   0  0  0  0  0  0  0  0  0  0  0  0
   22.1990  -21.5061   -9.8827 O   0  0  0  0  0  0  0  0  0  0  0  0
   21.1481  -19.8117  -10.9533 O   0  0  0  0  0  0  0  0  0  0  0  0
  1  2  1  0
  3  2  1  0
  3  4  2  0
  5  3  1  0
  6  5  1  0
  6  7  1  1
  7  8  1  0
  8  9  2  0
  8 16  1  0
  9 10  1  0
 10 11  1  0
 11 12  2  0
 12 13  1  0
 14 13  2  0
 15 14  1  0
 16 15  2  0
 16 11  1  0
 17  6  1  0
 18 17  2  0
 20 21  1  1
 20 19  1  0
 22 20  1  0
 22 23  1  1
 23 17  1  0
 24 22  1  0
 25 24  2  0
 26 24  1  0
M  END
$$$$
