GWV.pdb
     RDKit          3D

 26 27  0  0  1  0  0  0  0  0999 V2000
   28.6667  -23.3679  -17.3075 N   0  0  0  0  0  0  0  0  0  0  0  0
   28.2807  -22.0488  -16.9100 C   0  0  0  0  0  0  0  0  0  0  0  0
   27.4563  -22.0602  -15.6731 C   0  0  0  0  0  0  0  0  0  0  0  0
   26.9549  -23.1259  -15.2554 O   0  0  0  0  0  0  0  0  0  0  0  0
   27.2405  -20.8566  -14.9682 N   0  0  0  0  0  0  0  0  0  0  0  0
   26.4525  -20.7680  -13.7576 C   0  0  1  0  0  0  0  0  0  0  0  0
   26.9496  -19.6792  -12.8388 C   0  0  0  0  0  0  0  0  0  0  0  0
   27.6527  -20.1992  -11.6623 C   0  0  0  0  0  0  0  0  0  0  0  0
   28.9258  -20.7199  -11.6613 C   0  0  0  0  0  0  0  0  0  0  0  0
   29.2346  -21.0951  -10.4036 N   0  0  0  0  0  0  0  0  0  0  0  0
   28.1951  -20.8362   -9.5639 C   0  0  0  0  0  0  0  0  0  0  0  0
   27.9845  -21.0160   -8.2182 C   0  0  0  0  0  0  0  0  0  0  0  0
   26.7922  -20.6440   -7.6318 C   0  0  0  0  0  0  0  0  0  0  0  0
   25.8069  -20.0855   -8.4180 C   0  0  0  0  0  0  0  0  0  0  0  0
   26.0314  -19.9127   -9.7574 C   0  0  0  0  0  0  0  0  0  0  0  0
   27.2181  -20.2793  -10.3594 C   0  0  0  0  0  0  0  0  0  0  0  0
   25.0216  -20.4915  -14.0486 C   0  0  0  0  0  0  0  0  0  0  0  0
   24.7530  -19.4693  -14.7223 O   0  0  0  0  0  0  0  0  0  0  0  0
   20.4340  -22.1855  -14.6104 C   0  0  0  0  0  0  0  0  0  0  0  0
   21.8997  -22.3758  -14.3504 C   0  0  1  0  0  0  0  0  0  0  0  0
   22.5413  -22.8979  -15.6164 C   0  0  0  0  0  0  0  0  0  0  0  0
   22.5880  -21.1052  -13.8712 C   0  0  2  0  0  0  0  0  0  0  0  0
   23.9876  -21.3494  -13.5838 N   0  0  0  0  0  0  0  0  0  0  0  0
   21.8845  -20.4745  -12.7431 C   0  0  0  0  0  0  0  0  0  0  0  0
   20.9807  -19.6134  -12.8733 O   0  0  0  0  0  0  0  0  0  0  0  0
   22.2372  -20.8507  -11.4549 O   0  0  0  0  0  0  0  0  0  0  0  0
  1  2  1  0
  3  2  1  0
  3  4  2  0
  5  3  1  0
  6  5  1  0
  6  7  1  1
  7  8  1  0
  8  9  2  0
  8 16  1  0
  9 10  1  0
 10 11  1  0
 11 12  2  0
 12 13  1  0
 14 13  2  0
 15 14  1  0
 16 15  2  0
 16 11  1  0
 17  6  1  0
 18 17  2  0
 20 21  1  6
 20 19  1  0
 22 20  1  0
 22 23  1  1
 23 17  1  0
 24 22  1  0
 25 24  2  0
 26 24  1  0
M  END
$$$$
