RVY.pdb
     RDKit          3D

 31 31  0  0  1  0  0  0  0  0999 V2000
   15.3227  -17.7479   17.0772 N   0  0  0  0  0  0  0  0  0  0  0  0
   14.9497  -18.5391   15.9576 C   0  0  0  0  0  0  0  0  0  0  0  0
   15.7452  -19.4544   15.5761 N   0  0  0  0  0  0  0  0  0  0  0  0
   13.7230  -18.3279   15.2688 N   0  0  0  0  0  0  0  0  0  0  0  0
   12.8030  -17.3233   15.7181 C   0  0  0  0  0  0  0  0  0  0  0  0
   12.3424  -17.6123   17.1236 C   0  0  0  0  0  0  0  0  0  0  0  0
   11.5438  -16.4550   17.7027 C   0  0  0  0  0  0  0  0  0  0  0  0
   10.2482  -17.0198   18.2251 C   0  0  2  0  0  0  0  0  0  0  0  0
    9.2571  -16.9089   17.1708 N   0  0  0  0  0  0  0  0  0  0  0  0
    9.7486  -16.2195   19.3783 C   0  0  0  0  0  0  0  0  0  0  0  0
    9.8592  -14.9687   19.3033 O   0  0  0  0  0  0  0  0  0  0  0  0
   15.5615  -20.1164   14.7910 C   0  0  0  0  0  0  0  0  0  0  0  0
    6.2988  -15.8311   20.6058 C   0  0  2  0  0  0  0  0  0  0  0  0
    7.1698  -16.2870   21.7382 C   0  0  0  0  0  0  0  0  0  0  0  0
    6.9074  -17.7146   22.0816 C   0  0  2  0  0  0  0  0  0  0  0  0
    8.6256  -15.9437   21.5646 N   0  0  0  0  0  0  0  0  0  0  0  0
    9.1670  -16.8087   20.5285 C   0  0  0  0  0  0  0  0  0  0  0  0
    9.3594  -16.0668   22.8237 O   0  0  0  0  0  0  0  0  0  0  0  0
    9.8491  -17.2124   23.1359 O   0  0  0  0  0  0  0  0  0  0  0  0
   10.4293  -15.6138   31.3946 C   0  0  0  0  0  0  0  0  0  0  0  0
   10.3864  -15.2408   30.0522 C   0  0  0  0  0  0  0  0  0  0  0  0
    9.2489  -14.6861   29.5264 C   0  0  0  0  0  0  0  0  0  0  0  0
    9.2220  -14.3244   28.2041 C   0  0  0  0  0  0  0  0  0  0  0  0
   10.3026  -14.4937   27.3596 C   0  0  0  0  0  0  0  0  0  0  0  0
   10.2175  -14.0817   25.9395 C   0  0  1  0  0  0  0  0  0  0  0  0
   10.2865  -15.3063   25.0412 N   0  0  0  0  0  0  0  0  0  0  0  0
    9.6164  -15.0651   23.7791 C   0  0  0  0  0  0  0  0  0  0  0  0
    9.6281  -16.4648   25.6810 O   0  0  0  0  0  0  0  0  0  0  0  0
    8.2499  -16.6745   25.6443 C   0  0  0  0  0  0  0  0  0  0  0  0
   11.4362  -15.0459   27.8815 C   0  0  0  0  0  0  0  0  0  0  0  0
   11.4812  -15.4186   29.2201 O   0  0  0  0  0  0  0  0  0  0  0  0
  1  2  1  0
  2  4  1  0
  2  3  2  0
  4  5  1  0
  6  5  1  0
  7  6  1  0
  8  7  1  0
  8  9  1  6
 10  8  1  0
 10 16  1  0
 11 10  2  0
 13 12  1  1
 13 14  1  0
 13 15  1  0
 15 17  1  0
 15 16  1  1
 17 18  2  0
 19 20  1  0
 20 30  2  0
 21 22  2  0
 21 20  1  0
 22 23  1  0
 23 24  1  0
 23 29  2  0
 25 24  1  6
 26 25  1  0
 26 17  1  0
 27 25  1  0
 28 27  1  0
 30 29  1  0
 31 27  2  0
M  END
$$$$
