RVY.pdb
     RDKit          3D

 31 31  0  0  1  0  0  0  0  0999 V2000
    6.9376  -19.4492   19.0601 N   0  0  0  0  0  0  0  0  0  0  0  0
    6.9950  -18.7779   17.8093 C   0  0  0  0  0  0  0  0  0  0  0  0
    6.7714  -19.4513   16.7544 N   0  0  0  0  0  0  0  0  0  0  0  0
    7.2933  -17.3898   17.7192 N   0  0  0  0  0  0  0  0  0  0  0  0
    7.9234  -16.7112   18.8146 C   0  0  0  0  0  0  0  0  0  0  0  0
    6.9230  -15.8749   19.5703 C   0  0  0  0  0  0  0  0  0  0  0  0
    7.5945  -14.7320   20.3153 C   0  0  0  0  0  0  0  0  0  0  0  0
    7.9583  -15.2412   21.6861 C   0  0  2  0  0  0  0  0  0  0  0  0
    6.8454  -16.0328   22.1767 N   0  0  0  0  0  0  0  0  0  0  0  0
    8.1423  -14.1108   22.6392 C   0  0  0  0  0  0  0  0  0  0  0  0
    9.1494  -13.3754   22.4741 O   0  0  0  0  0  0  0  0  0  0  0  0
    6.8838  -19.0920   15.7814 C   0  0  0  0  0  0  0  0  0  0  0  0
    5.8177  -13.7255   26.2540 C   0  0  2  0  0  0  0  0  0  0  0  0
    6.3797  -12.5472   25.5160 C   0  0  0  0  0  0  0  0  0  0  0  0
    6.5161  -11.3626   26.4121 C   0  0  1  0  0  0  0  0  0  0  0  0
    7.6099  -12.8639   24.7077 N   0  0  0  0  0  0  0  0  0  0  0  0
    7.2407  -13.8448   23.6996 C   0  0  0  0  0  0  0  0  0  0  0  0
    8.7040  -13.3326   25.5575 O   0  0  0  0  0  0  0  0  0  0  0  0
    8.9868  -12.6611   26.6152 O   0  0  0  0  0  0  0  0  0  0  0  0
   12.2249  -18.1614   31.6606 C   0  0  0  0  0  0  0  0  0  0  0  0
   11.5085  -17.5348   30.6421 C   0  0  0  0  0  0  0  0  0  0  0  0
   10.9089  -18.2804   29.6610 C   0  0  0  0  0  0  0  0  0  0  0  0
   10.2077  -17.6495   28.6659 C   0  0  0  0  0  0  0  0  0  0  0  0
   10.0724  -16.2759   28.6007 C   0  0  0  0  0  0  0  0  0  0  0  0
    9.3004  -15.6486   27.5032 C   0  0  2  0  0  0  0  0  0  0  0  0
   10.2501  -15.1166   26.4419 N   0  0  0  0  0  0  0  0  0  0  0  0
    9.5227  -14.4631   25.3724 C   0  0  0  0  0  0  0  0  0  0  0  0
   11.0346  -16.2157   25.8405 O   0  0  0  0  0  0  0  0  0  0  0  0
   12.3491  -16.5031   26.2069 C   0  0  0  0  0  0  0  0  0  0  0  0
   10.6688  -15.5318   29.5769 C   0  0  0  0  0  0  0  0  0  0  0  0
   11.3838  -16.1547   30.5936 O   0  0  0  0  0  0  0  0  0  0  0  0
  1  2  1  0
  2  4  1  0
  2  3  2  0
  4  5  1  0
  6  5  1  0
  7  6  1  0
  8  7  1  0
  8  9  1  1
 10  8  1  0
 10 16  1  0
 11 10  2  0
 13 12  1  6
 13 14  1  0
 13 15  1  0
 15 17  1  0
 15 16  1  6
 17 18  2  0
 19 20  1  0
 20 30  2  0
 21 22  2  0
 21 20  1  0
 22 23  1  0
 23 24  1  0
 23 29  2  0
 25 24  1  1
 26 25  1  0
 26 17  1  0
 27 25  1  0
 28 27  1  0
 30 29  1  0
 31 27  2  0
M  END
$$$$
