RVY.pdb
     RDKit          3D

 31 31  0  0  1  0  0  0  0  0999 V2000
    9.2512  -20.9716   14.8256 N   0  0  0  0  0  0  0  0  0  0  0  0
    7.8412  -20.8046   14.8736 C   0  0  0  0  0  0  0  0  0  0  0  0
    7.1072  -21.8115   14.6209 N   0  0  0  0  0  0  0  0  0  0  0  0
    7.2475  -19.5522   15.1940 N   0  0  0  0  0  0  0  0  0  0  0  0
    7.6626  -18.8309   16.3623 C   0  0  0  0  0  0  0  0  0  0  0  0
    7.5762  -19.7046   17.5872 C   0  0  0  0  0  0  0  0  0  0  0  0
    8.0022  -18.9580   18.8415 C   0  0  0  0  0  0  0  0  0  0  0  0
    8.6633  -17.6779   18.4000 C   0  0  2  0  0  0  0  0  0  0  0  0
    9.9460  -18.0189   17.8133 N   0  0  0  0  0  0  0  0  0  0  0  0
    8.9396  -16.7946   19.5676 C   0  0  0  0  0  0  0  0  0  0  0  0
    9.9491  -17.0637   20.2682 O   0  0  0  0  0  0  0  0  0  0  0  0
    6.0643  -21.8126   14.6494 C   0  0  0  0  0  0  0  0  0  0  0  0
    7.7804  -12.7595   22.2319 C   0  0  1  0  0  0  0  0  0  0  0  0
    7.6601  -13.6143   21.0057 C   0  0  0  0  0  0  0  0  0  0  0  0
    7.8561  -12.8105   19.7646 C   0  0  1  0  0  0  0  0  0  0  0  0
    8.4711  -14.8817   21.0636 N   0  0  0  0  0  0  0  0  0  0  0  0
    8.1210  -15.6882   19.9053 C   0  0  0  0  0  0  0  0  0  0  0  0
    8.2557  -15.5992   22.3197 O   0  0  0  0  0  0  0  0  0  0  0  0
    7.3496  -16.5088   22.3560 O   0  0  0  0  0  0  0  0  0  0  0  0
    8.5396  -21.2098   28.7174 C   0  0  0  0  0  0  0  0  0  0  0  0
    8.7151  -20.3578   27.6282 C   0  0  0  0  0  0  0  0  0  0  0  0
    7.6500  -20.0287   26.8311 C   0  0  0  0  0  0  0  0  0  0  0  0
    7.8385  -19.1895   25.7634 C   0  0  0  0  0  0  0  0  0  0  0  0
    9.0695  -18.6489   25.4443 C   0  0  0  0  0  0  0  0  0  0  0  0
    9.2137  -17.7453   24.2797 C   0  0  2  0  0  0  0  0  0  0  0  0
    8.8062  -16.3330   24.6679 N   0  0  0  0  0  0  0  0  0  0  0  0
    8.9304  -15.4273   23.5434 C   0  0  0  0  0  0  0  0  0  0  0  0
    9.6675  -15.8172   25.7528 O   0  0  0  0  0  0  0  0  0  0  0  0
    9.3720  -15.9844   27.1054 C   0  0  0  0  0  0  0  0  0  0  0  0
   10.1313  -18.9755   26.2370 C   0  0  0  0  0  0  0  0  0  0  0  0
    9.9586  -19.8250   27.3238 O   0  0  0  0  0  0  0  0  0  0  0  0
  1  2  1  0
  2  4  1  0
  2  3  2  0
  4  5  1  0
  6  5  1  0
  7  6  1  0
  8  7  1  0
  8  9  1  1
 10  8  1  0
 10 16  1  0
 11 10  2  0
 13 12  1  6
 13 14  1  0
 13 15  1  0
 15 17  1  0
 15 16  1  6
 17 18  2  0
 19 20  1  0
 20 30  2  0
 21 22  2  0
 21 20  1  0
 22 23  1  0
 23 24  1  0
 23 29  2  0
 25 24  1  6
 26 25  1  0
 26 17  1  0
 27 25  1  0
 28 27  1  0
 30 29  1  0
 31 27  2  0
M  END
$$$$
