RVY.pdb
     RDKit          3D

 31 31  0  0  1  0  0  0  0  0999 V2000
    5.1751  -21.1643   22.8105 N   0  0  0  0  0  0  0  0  0  0  0  0
    5.9401  -21.1509   24.0076 C   0  0  0  0  0  0  0  0  0  0  0  0
    5.4213  -21.6439   25.0584 N   0  0  0  0  0  0  0  0  0  0  0  0
    7.2531  -20.6051   24.0493 N   0  0  0  0  0  0  0  0  0  0  0  0
    7.8080  -19.9625   22.8932 C   0  0  0  0  0  0  0  0  0  0  0  0
    8.2064  -18.5442   23.2111 C   0  0  0  0  0  0  0  0  0  0  0  0
    7.0245  -17.5926   23.1121 C   0  0  0  0  0  0  0  0  0  0  0  0
    7.5375  -16.2969   22.5388 C   0  0  2  0  0  0  0  0  0  0  0  0
    8.6361  -16.6101   21.6439 N   0  0  0  0  0  0  0  0  0  0  0  0
    8.0867  -15.4231   23.6134 C   0  0  0  0  0  0  0  0  0  0  0  0
    9.3384  -15.3335   23.7002 O   0  0  0  0  0  0  0  0  0  0  0  0
    5.9099  -21.7453   25.9746 C   0  0  0  0  0  0  0  0  0  0  0  0
    7.3039  -12.2660   27.3734 C   0  0  1  0  0  0  0  0  0  0  0  0
    6.8429  -13.0216   26.1628 C   0  0  0  0  0  0  0  0  0  0  0  0
    6.1857  -12.1152   25.1773 C   0  0  1  0  0  0  0  0  0  0  0  0
    7.8905  -13.9293   25.5747 N   0  0  0  0  0  0  0  0  0  0  0  0
    7.2637  -14.7076   24.5183 C   0  0  0  0  0  0  0  0  0  0  0  0
    8.4992  -14.7791   26.5976 O   0  0  0  0  0  0  0  0  0  0  0  0
    7.8314  -15.7870   27.0311 O   0  0  0  0  0  0  0  0  0  0  0  0
   12.1240  -18.7474   22.9967 C   0  0  0  0  0  0  0  0  0  0  0  0
   12.0332  -18.0389   24.1937 C   0  0  0  0  0  0  0  0  0  0  0  0
   11.8032  -18.7009   25.3714 C   0  0  0  0  0  0  0  0  0  0  0  0
   11.7165  -17.9900   26.5406 C   0  0  0  0  0  0  0  0  0  0  0  0
   11.8515  -16.6158   26.5930 C   0  0  0  0  0  0  0  0  0  0  0  0
   11.7510  -15.9002   27.8859 C   0  0  2  0  0  0  0  0  0  0  0  0
   10.2973  -15.5657   28.1797 N   0  0  0  0  0  0  0  0  0  0  0  0
    9.7660  -14.6430   27.1967 C   0  0  0  0  0  0  0  0  0  0  0  0
   10.1627  -14.9291   29.5070 O   0  0  0  0  0  0  0  0  0  0  0  0
   10.4024  -15.6036   30.7038 C   0  0  0  0  0  0  0  0  0  0  0  0
   12.0806  -15.9550   25.4212 C   0  0  0  0  0  0  0  0  0  0  0  0
   12.1715  -16.6596   24.2262 O   0  0  0  0  0  0  0  0  0  0  0  0
  1  2  1  0
  2  4  1  0
  2  3  2  0
  4  5  1  0
  6  5  1  0
  7  6  1  0
  8  7  1  0
  8  9  1  6
 10  8  1  0
 10 16  1  0
 11 10  2  0
 13 12  1  1
 13 14  1  0
 13 15  1  0
 15 17  1  0
 15 16  1  1
 17 18  2  0
 19 20  1  0
 20 30  2  0
 21 22  2  0
 21 20  1  0
 22 23  1  0
 23 24  1  0
 23 29  2  0
 25 24  1  6
 26 25  1  0
 26 17  1  0
 27 25  1  0
 28 27  1  0
 30 29  1  0
 31 27  2  0
M  END
$$$$
