RVY.pdb
     RDKit          3D

 31 31  0  0  1  0  0  0  0  0999 V2000
   12.8096  -22.1289   16.0433 N   0  0  0  0  0  0  0  0  0  0  0  0
   11.7543  -21.4909   15.3378 C   0  0  0  0  0  0  0  0  0  0  0  0
   11.8003  -21.4801   14.0673 N   0  0  0  0  0  0  0  0  0  0  0  0
   10.6666  -20.8750   16.0169 N   0  0  0  0  0  0  0  0  0  0  0  0
   10.6234  -20.8580   17.4506 C   0  0  0  0  0  0  0  0  0  0  0  0
    9.3727  -20.1733   17.9385 C   0  0  0  0  0  0  0  0  0  0  0  0
    9.6802  -19.1341   19.0051 C   0  0  0  0  0  0  0  0  0  0  0  0
    9.4791  -17.7771   18.3818 C   0  0  2  0  0  0  0  0  0  0  0  0
   10.4908  -17.6041   17.3560 N   0  0  0  0  0  0  0  0  0  0  0  0
    9.6884  -16.6968   19.3863 C   0  0  0  0  0  0  0  0  0  0  0  0
   10.8058  -16.6535   19.9623 O   0  0  0  0  0  0  0  0  0  0  0  0
   11.1045  -21.0098   13.4484 C   0  0  0  0  0  0  0  0  0  0  0  0
    8.2135  -12.4248   21.4133 C   0  0  2  0  0  0  0  0  0  0  0  0
    8.0373  -13.5647   20.4551 C   0  0  0  0  0  0  0  0  0  0  0  0
    7.9629  -13.0805   19.0462 C   0  0  1  0  0  0  0  0  0  0  0  0
    9.0004  -14.7010   20.6750 N   0  0  0  0  0  0  0  0  0  0  0  0
    8.6927  -15.7401   19.7053 C   0  0  0  0  0  0  0  0  0  0  0  0
    8.9411  -15.1958   22.0500 O   0  0  0  0  0  0  0  0  0  0  0  0
    7.9624  -15.9579   22.3832 O   0  0  0  0  0  0  0  0  0  0  0  0
    6.3766  -10.4596   27.4118 C   0  0  0  0  0  0  0  0  0  0  0  0
    6.7922  -11.6187   26.7585 C   0  0  0  0  0  0  0  0  0  0  0  0
    5.9520  -12.2564   25.8836 C   0  0  0  0  0  0  0  0  0  0  0  0
    6.3752  -13.3955   25.2486 C   0  0  0  0  0  0  0  0  0  0  0  0
    7.6279  -13.9431   25.4493 C   0  0  0  0  0  0  0  0  0  0  0  0
    8.0325  -15.1750   24.7334 C   0  0  2  0  0  0  0  0  0  0  0  0
    9.5347  -15.1672   24.4999 N   0  0  0  0  0  0  0  0  0  0  0  0
    9.8433  -14.9455   23.1014 C   0  0  0  0  0  0  0  0  0  0  0  0
   10.1334  -16.4616   24.8885 O   0  0  0  0  0  0  0  0  0  0  0  0
   11.4751  -16.6058   25.2404 C   0  0  0  0  0  0  0  0  0  0  0  0
    8.4660  -13.3094   26.3202 C   0  0  0  0  0  0  0  0  0  0  0  0
    8.0536  -12.1532   26.9729 O   0  0  0  0  0  0  0  0  0  0  0  0
  1  2  1  0
  2  4  1  0
  2  3  2  0
  4  5  1  0
  6  5  1  0
  7  6  1  0
  8  7  1  0
  8  9  1  6
 10  8  1  0
 10 16  1  0
 11 10  2  0
 13 12  1  1
 13 14  1  0
 13 15  1  0
 15 17  1  0
 15 16  1  1
 17 18  2  0
 19 20  1  0
 20 30  2  0
 21 22  2  0
 21 20  1  0
 22 23  1  0
 23 24  1  0
 23 29  2  0
 25 24  1  1
 26 25  1  0
 26 17  1  0
 27 25  1  0
 28 27  1  0
 30 29  1  0
 31 27  2  0
M  END
$$$$
