RVY.pdb
     RDKit          3D

 31 31  0  0  1  0  0  0  0  0999 V2000
    6.6271  -18.0839   17.5276 N   0  0  0  0  0  0  0  0  0  0  0  0
    6.8672  -19.3619   18.0999 C   0  0  0  0  0  0  0  0  0  0  0  0
    7.0651  -20.3439   17.3171 N   0  0  0  0  0  0  0  0  0  0  0  0
    6.8895  -19.5575   19.5088 N   0  0  0  0  0  0  0  0  0  0  0  0
    7.9772  -19.0497   20.2940 C   0  0  0  0  0  0  0  0  0  0  0  0
    7.9519  -17.5433   20.3292 C   0  0  0  0  0  0  0  0  0  0  0  0
    8.2195  -17.0091   21.7275 C   0  0  0  0  0  0  0  0  0  0  0  0
    8.0793  -15.5098   21.6703 C   0  0  2  0  0  0  0  0  0  0  0  0
    9.0282  -15.0110   20.6923 N   0  0  0  0  0  0  0  0  0  0  0  0
    8.4384  -14.8942   22.9788 C   0  0  0  0  0  0  0  0  0  0  0  0
    9.6248  -15.0306   23.3740 O   0  0  0  0  0  0  0  0  0  0  0  0
    7.2204  -21.3293   17.6226 C   0  0  0  0  0  0  0  0  0  0  0  0
    7.0710  -12.3128   27.0045 C   0  0  2  0  0  0  0  0  0  0  0  0
    6.8578  -12.7656   25.5909 C   0  0  0  0  0  0  0  0  0  0  0  0
    6.5713  -11.6114   24.6906 C   0  0  1  0  0  0  0  0  0  0  0  0
    7.9204  -13.7044   25.0842 N   0  0  0  0  0  0  0  0  0  0  0  0
    7.5084  -14.1776   23.7723 C   0  0  0  0  0  0  0  0  0  0  0  0
    8.1534  -14.8052   26.0185 O   0  0  0  0  0  0  0  0  0  0  0  0
    7.7489  -15.9796   25.6918 O   0  0  0  0  0  0  0  0  0  0  0  0
   13.7049  -20.4484   29.2829 C   0  0  0  0  0  0  0  0  0  0  0  0
   12.9460  -19.4341   28.7014 C   0  0  0  0  0  0  0  0  0  0  0  0
   13.5389  -18.2562   28.3285 C   0  0  0  0  0  0  0  0  0  0  0  0
   12.7790  -17.2678   27.7578 C   0  0  0  0  0  0  0  0  0  0  0  0
   11.4218  -17.4013   27.5354 C   0  0  0  0  0  0  0  0  0  0  0  0
   10.6512  -16.3005   26.9123 C   0  0  1  0  0  0  0  0  0  0  0  0
    9.5351  -15.8585   27.8452 N   0  0  0  0  0  0  0  0  0  0  0  0
    8.7858  -14.7566   27.2756 C   0  0  0  0  0  0  0  0  0  0  0  0
   10.0827  -15.4026   29.1403 O   0  0  0  0  0  0  0  0  0  0  0  0
   10.5675  -14.1121   29.3511 C   0  0  0  0  0  0  0  0  0  0  0  0
   10.8297  -18.5736   27.9060 C   0  0  0  0  0  0  0  0  0  0  0  0
   11.5847  -19.5866   28.4861 O   0  0  0  0  0  0  0  0  0  0  0  0
  1  2  1  0
  2  4  1  0
  2  3  2  0
  4  5  1  0
  6  5  1  0
  7  6  1  0
  8  7  1  0
  8  9  1  6
 10  8  1  0
 10 16  1  0
 11 10  2  0
 13 12  1  1
 13 14  1  0
 13 15  1  0
 15 17  1  0
 15 16  1  1
 17 18  2  0
 19 20  1  0
 20 30  2  0
 21 22  2  0
 21 20  1  0
 22 23  1  0
 23 24  1  0
 23 29  2  0
 25 24  1  6
 26 25  1  0
 26 17  1  0
 27 25  1  0
 28 27  1  0
 30 29  1  0
 31 27  2  0
M  END
$$$$
