RVY.pdb
     RDKit          3D

 31 31  0  0  1  0  0  0  0  0999 V2000
    5.6746  -20.9604   21.1167 N   0  0  0  0  0  0  0  0  0  0  0  0
    6.3837  -20.8062   19.8954 C   0  0  0  0  0  0  0  0  0  0  0  0
    5.9018  -21.3424   18.8482 N   0  0  0  0  0  0  0  0  0  0  0  0
    7.6021  -20.0751   19.8258 N   0  0  0  0  0  0  0  0  0  0  0  0
    8.1350  -19.4413   20.9971 C   0  0  0  0  0  0  0  0  0  0  0  0
    8.0492  -17.9414   20.8776 C   0  0  0  0  0  0  0  0  0  0  0  0
    8.5796  -17.2471   22.1221 C   0  0  0  0  0  0  0  0  0  0  0  0
    8.4025  -15.7645   21.9197 C   0  0  2  0  0  0  0  0  0  0  0  0
    9.3545  -15.3361   20.9116 N   0  0  0  0  0  0  0  0  0  0  0  0
    8.7245  -15.0174   23.1680 C   0  0  0  0  0  0  0  0  0  0  0  0
    9.9353  -14.9462   23.5014 O   0  0  0  0  0  0  0  0  0  0  0  0
    6.3365  -21.2989   17.9008 C   0  0  0  0  0  0  0  0  0  0  0  0
    7.2307  -12.5819   27.2244 C   0  0  2  0  0  0  0  0  0  0  0  0
    7.0115  -13.0673   25.8226 C   0  0  0  0  0  0  0  0  0  0  0  0
    6.7256  -11.9339   24.8961 C   0  0  1  0  0  0  0  0  0  0  0  0
    8.0695  -14.0211   25.3348 N   0  0  0  0  0  0  0  0  0  0  0  0
    7.7339  -14.3999   23.9715 C   0  0  0  0  0  0  0  0  0  0  0  0
    8.1913  -15.1828   26.2150 O   0  0  0  0  0  0  0  0  0  0  0  0
    7.8115  -16.3271   25.7723 O   0  0  0  0  0  0  0  0  0  0  0  0
   12.6191  -19.7504   23.6148 C   0  0  0  0  0  0  0  0  0  0  0  0
   12.2418  -18.7223   24.4771 C   0  0  0  0  0  0  0  0  0  0  0  0
   11.8502  -17.5090   23.9745 C   0  0  0  0  0  0  0  0  0  0  0  0
   11.4820  -16.5076   24.8355 C   0  0  0  0  0  0  0  0  0  0  0  0
   11.4856  -16.6620   26.2087 C   0  0  0  0  0  0  0  0  0  0  0  0
   11.0750  -15.5454   27.0909 C   0  0  2  0  0  0  0  0  0  0  0  0
    9.8731  -15.9605   27.9244 N   0  0  0  0  0  0  0  0  0  0  0  0
    8.6879  -15.2249   27.5318 C   0  0  0  0  0  0  0  0  0  0  0  0
   10.1101  -15.6914   29.3583 O   0  0  0  0  0  0  0  0  0  0  0  0
    9.9261  -14.4369   29.9390 C   0  0  0  0  0  0  0  0  0  0  0  0
   11.8752  -17.8695   26.7110 C   0  0  0  0  0  0  0  0  0  0  0  0
   12.2520  -18.8963   25.8527 O   0  0  0  0  0  0  0  0  0  0  0  0
  1  2  1  0
  2  4  1  0
  2  3  2  0
  4  5  1  0
  6  5  1  0
  7  6  1  0
  8  7  1  0
  8  9  1  6
 10  8  1  0
 10 16  1  0
 11 10  2  0
 13 12  1  1
 13 14  1  0
 13 15  1  0
 15 17  1  0
 15 16  1  1
 17 18  2  0
 19 20  1  0
 20 30  2  0
 21 22  2  0
 21 20  1  0
 22 23  1  0
 23 24  1  0
 23 29  2  0
 25 24  1  6
 26 25  1  0
 26 17  1  0
 27 25  1  0
 28 27  1  0
 30 29  1  0
 31 27  2  0
M  END
$$$$
