LLI.pdb
     RDKit          3D

 25 24  0  0  1  0  0  0  0  0999 V2000
   20.9557  -18.1785  -14.3706 C   0  0  0  0  0  0  0  0  0  0  0  0
   20.7341  -19.6629  -14.4803 C   0  0  2  0  0  0  0  0  0  0  0  0
   19.6143  -20.1297  -13.6099 C   0  0  0  0  0  0  0  0  0  0  0  0
   22.0371  -20.4041  -14.1927 C   0  0  0  0  0  0  0  0  0  0  0  0
   23.0789  -19.8186  -15.1216 C   0  0  2  0  0  0  0  0  0  0  0  0
   22.6172  -20.1061  -16.4816 N   0  0  0  0  0  0  0  0  0  0  0  0
   24.4079  -20.4444  -14.9039 C   0  0  0  0  0  0  0  0  0  0  0  0
   24.5686  -21.6281  -15.2367 O   0  0  0  0  0  0  0  0  0  0  0  0
   28.3631  -19.7813  -16.5901 C   0  0  0  0  0  0  0  0  0  0  0  0
   27.9078  -18.6218  -15.6661 C   0  0  2  0  0  0  0  0  0  0  0  0
   28.9528  -17.5639  -15.8357 C   0  0  0  0  0  0  0  0  0  0  0  0
   27.8288  -19.2181  -14.3227 C   0  0  0  0  0  0  0  0  0  0  0  0
   26.8018  -20.2912  -14.0871 C   0  0  2  0  0  0  0  0  0  0  0  0
   25.4556  -19.6900  -14.3278 N   0  0  0  0  0  0  0  0  0  0  0  0
   26.7683  -20.8643  -12.7517 C   0  0  0  0  0  0  0  0  0  0  0  0
   27.5629  -21.7712  -12.4039 O   0  0  0  0  0  0  0  0  0  0  0  0
   27.5706  -19.9682   -7.2976 C   0  0  0  0  0  0  0  0  0  0  0  0
   26.6376  -20.8179   -8.1475 C   0  0  0  0  0  0  0  0  0  0  0  0
   26.5547  -20.1699   -9.5103 C   0  0  2  0  0  0  0  0  0  0  0  0
   25.9794  -18.7965   -9.3622 C   0  0  0  0  0  0  0  0  0  0  0  0
   25.7418  -21.0329  -10.4629 C   0  0  2  0  0  0  0  0  0  0  0  0
   25.8389  -20.4221  -11.7823 N   0  0  0  0  0  0  0  0  0  0  0  0
   24.3575  -21.1964  -10.0213 C   0  0  0  0  0  0  0  0  0  0  0  0
   24.0123  -21.9601   -8.8947 O   0  0  0  0  0  0  0  0  0  0  0  0
   23.4096  -20.6520  -10.6418 O   0  0  0  0  0  0  0  0  0  0  0  0
  2  1  1  1
  2  3  1  0
  4  5  1  0
  4  2  1  0
  5  6  1  6
  7  5  1  0
  7  8  2  0
 10  9  1  6
 11 10  1  0
 12 10  1  0
 13 12  1  1
 13 14  1  0
 14  7  1  0
 15 13  1  0
 16 15  2  0
 17 18  1  0
 18 19  1  0
 19 21  1  0
 19 20  1  1
 21 22  1  6
 21 23  1  0
 22 15  1  0
 23 24  1  0
 25 23  2  0
M  END
$$$$
