LLI.pdb
     RDKit          3D

 25 24  0  0  1  0  0  0  0  0999 V2000
   26.9199  -16.6168  -17.1145 C   0  0  0  0  0  0  0  0  0  0  0  0
   28.1658  -16.9453  -16.3369 C   0  0  2  0  0  0  0  0  0  0  0  0
   29.3404  -17.1764  -17.2293 C   0  0  0  0  0  0  0  0  0  0  0  0
   27.9017  -18.1296  -15.4110 C   0  0  0  0  0  0  0  0  0  0  0  0
   26.6292  -17.8101  -14.6562 C   0  0  2  0  0  0  0  0  0  0  0  0
   26.9073  -16.5937  -13.8891 N   0  0  0  0  0  0  0  0  0  0  0  0
   26.2613  -18.9104  -13.7295 C   0  0  0  0  0  0  0  0  0  0  0  0
   26.0921  -20.0472  -14.1950 O   0  0  0  0  0  0  0  0  0  0  0  0
   26.3068  -19.3932   -7.6350 C   0  0  0  0  0  0  0  0  0  0  0  0
   25.8274  -20.1753   -8.8856 C   0  0  2  0  0  0  0  0  0  0  0  0
   26.5299  -21.4944   -8.8052 C   0  0  0  0  0  0  0  0  0  0  0  0
   26.2071  -19.3293  -10.0287 C   0  0  0  0  0  0  0  0  0  0  0  0
   25.7139  -19.7250  -11.3932 C   0  0  2  0  0  0  0  0  0  0  0  0
   26.1118  -18.6476  -12.3484 N   0  0  0  0  0  0  0  0  0  0  0  0
   24.2768  -19.8931  -11.5315 C   0  0  0  0  0  0  0  0  0  0  0  0
   23.4953  -18.9112  -11.5292 O   0  0  0  0  0  0  0  0  0  0  0  0
   22.1041  -21.8938  -15.5139 C   0  0  0  0  0  0  0  0  0  0  0  0
   22.3348  -21.1220  -14.2231 C   0  0  0  0  0  0  0  0  0  0  0  0
   21.9523  -22.0328  -13.0794 C   0  0  2  0  0  0  0  0  0  0  0  0
   20.5088  -22.4035  -13.2140 C   0  0  0  0  0  0  0  0  0  0  0  0
   22.2520  -21.3681  -11.7448 C   0  0  2  0  0  0  0  0  0  0  0  0
   23.6945  -21.1732  -11.6783 N   0  0  0  0  0  0  0  0  0  0  0  0
   21.7374  -22.1372  -10.6126 C   0  0  0  0  0  0  0  0  0  0  0  0
   20.5519  -21.7910   -9.9444 O   0  0  0  0  0  0  0  0  0  0  0  0
   22.3450  -23.1522  -10.1876 O   0  0  0  0  0  0  0  0  0  0  0  0
  2  1  1  6
  2  3  1  0
  4  5  1  0
  4  2  1  0
  5  6  1  1
  7  5  1  0
  7  8  2  0
 10  9  1  1
 11 10  1  0
 12 10  1  0
 13 12  1  1
 13 14  1  0
 14  7  1  0
 15 13  1  0
 16 15  2  0
 17 18  1  0
 18 19  1  0
 19 21  1  0
 19 20  1  1
 21 22  1  1
 21 23  1  0
 22 15  1  0
 23 24  1  0
 25 23  2  0
M  END
$$$$
