LLI.pdb
     RDKit          3D

 25 24  0  0  1  0  0  0  0  0999 V2000
   19.2899  -13.3395  -19.0498 C   0  0  0  0  0  0  0  0  0  0  0  0
   20.5650  -14.0439  -18.6722 C   0  0  2  0  0  0  0  0  0  0  0  0
   20.3793  -15.5214  -18.5625 C   0  0  0  0  0  0  0  0  0  0  0  0
   21.1334  -13.4364  -17.3926 C   0  0  0  0  0  0  0  0  0  0  0  0
   21.3212  -11.9593  -17.6643 C   0  0  2  0  0  0  0  0  0  0  0  0
   22.3149  -11.8672  -18.7364 N   0  0  0  0  0  0  0  0  0  0  0  0
   21.8205  -11.2487  -16.4598 C   0  0  0  0  0  0  0  0  0  0  0  0
   21.1325  -11.2726  -15.4284 O   0  0  0  0  0  0  0  0  0  0  0  0
   27.2249  -10.9053  -15.6827 C   0  0  0  0  0  0  0  0  0  0  0  0
   25.9141  -10.2838  -16.2316 C   0  0  2  0  0  0  0  0  0  0  0  0
   26.3143   -8.9355  -16.7431 C   0  0  0  0  0  0  0  0  0  0  0  0
   24.9920  -10.2729  -15.0844 C   0  0  0  0  0  0  0  0  0  0  0  0
   23.5773   -9.8208  -15.3214 C   0  0  2  0  0  0  0  0  0  0  0  0
   23.0570  -10.5649  -16.5076 N   0  0  0  0  0  0  0  0  0  0  0  0
   23.3953   -8.4069  -15.6051 C   0  0  0  0  0  0  0  0  0  0  0  0
   23.8915   -7.5183  -14.8708 O   0  0  0  0  0  0  0  0  0  0  0  0
   22.5032   -4.6440  -20.2350 C   0  0  0  0  0  0  0  0  0  0  0  0
   22.2007   -4.8559  -18.7590 C   0  0  0  0  0  0  0  0  0  0  0  0
   22.5285   -6.2952  -18.4344 C   0  0  2  0  0  0  0  0  0  0  0  0
   21.6816   -7.1907  -19.2829 C   0  0  0  0  0  0  0  0  0  0  0  0
   22.3389   -6.5637  -16.9495 C   0  0  2  0  0  0  0  0  0  0  0  0
   22.6521   -7.9690  -16.7254 N   0  0  0  0  0  0  0  0  0  0  0  0
   20.9983   -6.2075  -16.4868 C   0  0  0  0  0  0  0  0  0  0  0  0
   20.0335   -7.1739  -16.1600 O   0  0  0  0  0  0  0  0  0  0  0  0
   20.6528   -5.0053  -16.3620 O   0  0  0  0  0  0  0  0  0  0  0  0
  2  1  1  1
  2  3  1  0
  4  5  1  0
  4  2  1  0
  5  6  1  6
  7  5  1  0
  7  8  2  0
 10  9  1  1
 11 10  1  0
 12 10  1  0
 13 12  1  6
 13 14  1  0
 14  7  1  0
 15 13  1  0
 16 15  2  0
 17 18  1  0
 18 19  1  0
 19 21  1  0
 19 20  1  6
 21 22  1  6
 21 23  1  0
 22 15  1  0
 23 24  1  0
 25 23  2  0
M  END
$$$$
