LLI.pdb
     RDKit          3D

 25 24  0  0  1  0  0  0  0  0999 V2000
   16.7144  -11.7747  -21.7115 C   0  0  0  0  0  0  0  0  0  0  0  0
   17.8027  -12.3101  -20.8206 C   0  0  2  0  0  0  0  0  0  0  0  0
   18.1538  -13.7235  -21.1498 C   0  0  0  0  0  0  0  0  0  0  0  0
   17.4051  -12.1395  -19.3568 C   0  0  0  0  0  0  0  0  0  0  0  0
   18.5505  -12.6880  -18.5333 C   0  0  2  0  0  0  0  0  0  0  0  0
   18.0767  -13.9556  -17.9730 N   0  0  0  0  0  0  0  0  0  0  0  0
   18.9145  -11.7613  -17.4315 C   0  0  0  0  0  0  0  0  0  0  0  0
   18.0660  -11.5089  -16.5632 O   0  0  0  0  0  0  0  0  0  0  0  0
   24.0683  -10.4853  -14.6556 C   0  0  0  0  0  0  0  0  0  0  0  0
   22.6609   -9.8544  -14.8199 C   0  0  2  0  0  0  0  0  0  0  0  0
   22.0491   -9.9220  -13.4557 C   0  0  0  0  0  0  0  0  0  0  0  0
   21.9978  -10.6730  -15.8478 C   0  0  0  0  0  0  0  0  0  0  0  0
   20.6142  -10.2743  -16.2821 C   0  0  2  0  0  0  0  0  0  0  0  0
   20.2066  -11.1889  -17.3907 N   0  0  0  0  0  0  0  0  0  0  0  0
   20.4662   -8.9189  -16.7859 C   0  0  0  0  0  0  0  0  0  0  0  0
   20.9759   -8.5617  -17.8756 O   0  0  0  0  0  0  0  0  0  0  0  0
   16.0469   -6.4614  -17.5393 C   0  0  0  0  0  0  0  0  0  0  0  0
   17.5253   -6.7984  -17.6656 C   0  0  0  0  0  0  0  0  0  0  0  0
   18.2402   -6.1253  -16.5167 C   0  0  2  0  0  0  0  0  0  0  0  0
   18.0799   -4.6431  -16.6449 C   0  0  0  0  0  0  0  0  0  0  0  0
   19.7020   -6.5434  -16.4796 C   0  0  2  0  0  0  0  0  0  0  0  0
   19.7369   -7.9415  -16.0704 N   0  0  0  0  0  0  0  0  0  0  0  0
   20.5041   -5.6844  -15.6096 C   0  0  0  0  0  0  0  0  0  0  0  0
   20.6745   -5.9487  -14.2411 O   0  0  0  0  0  0  0  0  0  0  0  0
   21.0802   -4.6618  -16.0595 O   0  0  0  0  0  0  0  0  0  0  0  0
  2  1  1  6
  2  3  1  0
  4  5  1  0
  4  2  1  0
  5  6  1  1
  7  5  1  0
  7  8  2  0
 10  9  1  1
 11 10  1  0
 12 10  1  0
 13 12  1  6
 13 14  1  0
 14  7  1  0
 15 13  1  0
 16 15  2  0
 17 18  1  0
 18 19  1  0
 19 21  1  0
 19 20  1  6
 21 22  1  1
 21 23  1  0
 22 15  1  0
 23 24  1  0
 25 23  2  0
M  END
$$$$
