LLI.pdb
     RDKit          3D

 25 24  0  0  1  0  0  0  0  0999 V2000
   27.4962  -18.0858  -18.6842 C   0  0  0  0  0  0  0  0  0  0  0  0
   28.6597  -18.9769  -18.3420 C   0  0  2  0  0  0  0  0  0  0  0  0
   29.2331  -19.6411  -19.5501 C   0  0  0  0  0  0  0  0  0  0  0  0
   28.2447  -19.9830  -17.2718 C   0  0  0  0  0  0  0  0  0  0  0  0
   27.6984  -19.1772  -16.1128 C   0  0  2  0  0  0  0  0  0  0  0  0
   28.8067  -18.3448  -15.6394 N   0  0  0  0  0  0  0  0  0  0  0  0
   27.2340  -20.0608  -15.0134 C   0  0  0  0  0  0  0  0  0  0  0  0
   26.5214  -21.0356  -15.2957 O   0  0  0  0  0  0  0  0  0  0  0  0
   29.4833  -22.4026  -11.7937 C   0  0  0  0  0  0  0  0  0  0  0  0
   29.4944  -20.8557  -11.6828 C   0  0  2  0  0  0  0  0  0  0  0  0
   30.4561  -20.5579  -10.5754 C   0  0  0  0  0  0  0  0  0  0  0  0
   28.0947  -20.4861  -11.4165 C   0  0  0  0  0  0  0  0  0  0  0  0
   27.1061  -20.6109  -12.5430 C   0  0  2  0  0  0  0  0  0  0  0  0
   27.6070  -19.7799  -13.6789 N   0  0  0  0  0  0  0  0  0  0  0  0
   25.7536  -20.1587  -12.2620 C   0  0  0  0  0  0  0  0  0  0  0  0
   25.4812  -18.9415  -12.1239 O   0  0  0  0  0  0  0  0  0  0  0  0
   22.0126  -21.4745  -15.3175 C   0  0  0  0  0  0  0  0  0  0  0  0
   22.8723  -20.7543  -14.2892 C   0  0  0  0  0  0  0  0  0  0  0  0
   22.4247  -21.2198  -12.9228 C   0  0  2  0  0  0  0  0  0  0  0  0
   20.9892  -20.8453  -12.7269 C   0  0  0  0  0  0  0  0  0  0  0  0
   23.3220  -20.6390  -11.8409 C   0  0  2  0  0  0  0  0  0  0  0  0
   24.6819  -21.0721  -12.1349 N   0  0  0  0  0  0  0  0  0  0  0  0
   22.8904  -21.0200  -10.4968 C   0  0  0  0  0  0  0  0  0  0  0  0
   21.9264  -20.2918   -9.7813 O   0  0  0  0  0  0  0  0  0  0  0  0
   23.3726  -22.0284   -9.9217 O   0  0  0  0  0  0  0  0  0  0  0  0
  2  1  1  6
  2  3  1  0
  4  5  1  0
  4  2  1  0
  5  6  1  1
  7  5  1  0
  7  8  2  0
 10  9  1  1
 11 10  1  0
 12 10  1  0
 13 12  1  1
 13 14  1  0
 14  7  1  0
 15 13  1  0
 16 15  2  0
 17 18  1  0
 18 19  1  0
 19 21  1  0
 19 20  1  1
 21 22  1  6
 21 23  1  0
 22 15  1  0
 23 24  1  0
 25 23  2  0
M  END
$$$$
