LLI.pdb
     RDKit          3D

 25 24  0  0  1  0  0  0  0  0999 V2000
   20.4756  -19.2749  -18.4668 C   0  0  0  0  0  0  0  0  0  0  0  0
   21.6203  -18.4654  -19.0137 C   0  0  2  0  0  0  0  0  0  0  0  0
   21.5808  -18.3715  -20.5033 C   0  0  0  0  0  0  0  0  0  0  0  0
   22.9440  -19.0302  -18.5052 C   0  0  0  0  0  0  0  0  0  0  0  0
   22.7724  -19.2559  -17.0184 C   0  0  2  0  0  0  0  0  0  0  0  0
   22.4178  -17.9540  -16.4487 N   0  0  0  0  0  0  0  0  0  0  0  0
   24.0301  -19.7451  -16.3987 C   0  0  0  0  0  0  0  0  0  0  0  0
   24.4875  -20.8375  -16.7663 O   0  0  0  0  0  0  0  0  0  0  0  0
   27.6200  -17.5333  -16.6911 C   0  0  0  0  0  0  0  0  0  0  0  0
   26.7471  -17.0182  -15.5172 C   0  0  2  0  0  0  0  0  0  0  0  0
   27.4067  -15.7487  -15.0775 C   0  0  0  0  0  0  0  0  0  0  0  0
   26.7611  -18.1091  -14.5291 C   0  0  0  0  0  0  0  0  0  0  0  0
   26.0061  -19.3676  -14.8578 C   0  0  2  0  0  0  0  0  0  0  0  0
   24.6779  -18.9670  -15.4119 N   0  0  0  0  0  0  0  0  0  0  0  0
   25.7391  -20.2640  -13.7452 C   0  0  0  0  0  0  0  0  0  0  0  0
   26.6462  -20.9594  -13.2270 O   0  0  0  0  0  0  0  0  0  0  0  0
   26.5640  -20.6197   -9.2061 C   0  0  0  0  0  0  0  0  0  0  0  0
   26.0709  -21.2751  -10.4875 C   0  0  0  0  0  0  0  0  0  0  0  0
   24.7399  -20.6469  -10.8311 C   0  0  2  0  0  0  0  0  0  0  0  0
   23.8249  -20.7700   -9.6534 C   0  0  0  0  0  0  0  0  0  0  0  0
   24.1553  -21.2857  -12.0813 C   0  0  2  0  0  0  0  0  0  0  0  0
   24.4431  -20.3900  -13.1941 N   0  0  0  0  0  0  0  0  0  0  0  0
   22.7274  -21.5695  -11.9450 C   0  0  0  0  0  0  0  0  0  0  0  0
   22.2285  -22.4842  -11.0036 O   0  0  0  0  0  0  0  0  0  0  0  0
   21.8792  -20.9978  -12.6756 O   0  0  0  0  0  0  0  0  0  0  0  0
  2  1  1  6
  2  3  1  0
  4  5  1  0
  4  2  1  0
  5  6  1  1
  7  5  1  0
  7  8  2  0
 10  9  1  6
 11 10  1  0
 12 10  1  0
 13 12  1  1
 13 14  1  0
 14  7  1  0
 15 13  1  0
 16 15  2  0
 17 18  1  0
 18 19  1  0
 19 21  1  0
 19 20  1  1
 21 22  1  6
 21 23  1  0
 22 15  1  0
 23 24  1  0
 25 23  2  0
M  END
$$$$
