LLI.pdb
     RDKit          3D

 25 24  0  0  1  0  0  0  0  0999 V2000
   28.0430  -16.8808  -17.3675 C   0  0  0  0  0  0  0  0  0  0  0  0
   27.2437  -15.9046  -16.5471 C   0  0  2  0  0  0  0  0  0  0  0  0
   28.0664  -14.7423  -16.0980 C   0  0  0  0  0  0  0  0  0  0  0  0
   26.5816  -16.6298  -15.3786 C   0  0  0  0  0  0  0  0  0  0  0  0
   25.8839  -17.8393  -15.9628 C   0  0  2  0  0  0  0  0  0  0  0  0
   24.8456  -17.3173  -16.8544 N   0  0  0  0  0  0  0  0  0  0  0  0
   25.2582  -18.6663  -14.8999 C   0  0  0  0  0  0  0  0  0  0  0  0
   24.2501  -18.2303  -14.3244 O   0  0  0  0  0  0  0  0  0  0  0  0
   24.7994  -24.5809  -14.1854 C   0  0  0  0  0  0  0  0  0  0  0  0
   24.4428  -23.2753  -13.4277 C   0  0  2  0  0  0  0  0  0  0  0  0
   22.9468  -23.2342  -13.4185 C   0  0  0  0  0  0  0  0  0  0  0  0
   25.0967  -22.2028  -14.1950 C   0  0  0  0  0  0  0  0  0  0  0  0
   25.1471  -20.8293  -13.5844 C   0  0  2  0  0  0  0  0  0  0  0  0
   25.8150  -19.9221  -14.5654 N   0  0  0  0  0  0  0  0  0  0  0  0
   25.8847  -20.7087  -12.3377 C   0  0  0  0  0  0  0  0  0  0  0  0
   27.1054  -20.9905  -12.2645 O   0  0  0  0  0  0  0  0  0  0  0  0
   27.3371  -17.6033   -8.7574 C   0  0  0  0  0  0  0  0  0  0  0  0
   27.1553  -18.8809   -9.5635 C   0  0  0  0  0  0  0  0  0  0  0  0
   25.9920  -19.6329   -8.9591 C   0  0  2  0  0  0  0  0  0  0  0  0
   26.3585  -20.0651   -7.5741 C   0  0  0  0  0  0  0  0  0  0  0  0
   25.5995  -20.8075   -9.8418 C   0  0  2  0  0  0  0  0  0  0  0  0
   25.2588  -20.2643  -11.1503 N   0  0  0  0  0  0  0  0  0  0  0  0
   24.5146  -21.5994   -9.2637 C   0  0  0  0  0  0  0  0  0  0  0  0
   23.1950  -21.5275   -9.7384 O   0  0  0  0  0  0  0  0  0  0  0  0
   24.7242  -22.3860   -8.3060 O   0  0  0  0  0  0  0  0  0  0  0  0
  2  1  1  1
  2  3  1  0
  4  5  1  0
  4  2  1  0
  5  6  1  6
  7  5  1  0
  7  8  2  0
 10  9  1  6
 11 10  1  0
 12 10  1  0
 13 12  1  6
 13 14  1  0
 14  7  1  0
 15 13  1  0
 16 15  2  0
 17 18  1  0
 18 19  1  0
 19 21  1  0
 19 20  1  1
 21 22  1  6
 21 23  1  0
 22 15  1  0
 23 24  1  0
 25 23  2  0
M  END
$$$$
