LLI.pdb
     RDKit          3D

 25 24  0  0  1  0  0  0  0  0999 V2000
   21.0653  -18.9557  -12.4274 C   0  0  0  0  0  0  0  0  0  0  0  0
   20.6352  -20.3237  -11.9710 C   0  0  2  0  0  0  0  0  0  0  0  0
   19.4229  -20.2703  -11.1010 C   0  0  0  0  0  0  0  0  0  0  0  0
   21.8028  -21.0345  -11.2920 C   0  0  0  0  0  0  0  0  0  0  0  0
   22.9984  -20.8660  -12.2048 C   0  0  2  0  0  0  0  0  0  0  0  0
   22.7935  -21.7964  -13.3174 N   0  0  0  0  0  0  0  0  0  0  0  0
   24.2638  -21.1996  -11.5029 C   0  0  0  0  0  0  0  0  0  0  0  0
   24.4527  -22.3713  -11.1439 O   0  0  0  0  0  0  0  0  0  0  0  0
   28.3400  -21.7346  -12.6401 C   0  0  0  0  0  0  0  0  0  0  0  0
   27.8127  -20.2800  -12.7484 C   0  0  2  0  0  0  0  0  0  0  0  0
   28.8742  -19.5429  -13.5032 C   0  0  0  0  0  0  0  0  0  0  0  0
   27.6144  -19.8455  -11.3561 C   0  0  0  0  0  0  0  0  0  0  0  0
   26.5097  -20.4921  -10.5665 C   0  0  2  0  0  0  0  0  0  0  0  0
   25.2211  -20.1883  -11.2584 N   0  0  0  0  0  0  0  0  0  0  0  0
   26.3585  -20.0457   -9.1915 C   0  0  0  0  0  0  0  0  0  0  0  0
   25.5406  -19.1475   -8.8766 O   0  0  0  0  0  0  0  0  0  0  0  0
   29.2104  -21.1959   -3.8196 C   0  0  0  0  0  0  0  0  0  0  0  0
   28.1443  -20.3951   -4.5525 C   0  0  0  0  0  0  0  0  0  0  0  0
   28.1513  -20.8495   -5.9939 C   0  0  2  0  0  0  0  0  0  0  0  0
   29.5569  -20.8216   -6.5063 C   0  0  0  0  0  0  0  0  0  0  0  0
   27.2185  -19.9868   -6.8298 C   0  0  2  0  0  0  0  0  0  0  0  0
   27.1258  -20.6072   -8.1450 N   0  0  0  0  0  0  0  0  0  0  0  0
   27.6595  -18.5943   -6.8965 C   0  0  0  0  0  0  0  0  0  0  0  0
   27.2970  -17.6430   -5.9294 O   0  0  0  0  0  0  0  0  0  0  0  0
   28.3905  -18.1892   -7.8355 O   0  0  0  0  0  0  0  0  0  0  0  0
  2  1  1  1
  2  3  1  0
  4  5  1  0
  4  2  1  0
  5  6  1  6
  7  5  1  0
  7  8  2  0
 10  9  1  1
 11 10  1  0
 12 10  1  0
 13 12  1  6
 13 14  1  0
 14  7  1  0
 15 13  1  0
 16 15  2  0
 17 18  1  0
 18 19  1  0
 19 21  1  0
 19 20  1  6
 21 22  1  6
 21 23  1  0
 22 15  1  0
 23 24  1  0
 25 23  2  0
M  END
$$$$
