LLI.pdb
     RDKit          3D

 25 24  0  0  1  0  0  0  0  0999 V2000
   25.4423  -17.7471  -17.0977 C   0  0  0  0  0  0  0  0  0  0  0  0
   24.1930  -18.5698  -16.9323 C   0  0  2  0  0  0  0  0  0  0  0  0
   22.9642  -17.7227  -16.8886 C   0  0  0  0  0  0  0  0  0  0  0  0
   24.3213  -19.4656  -15.7032 C   0  0  0  0  0  0  0  0  0  0  0  0
   25.5599  -20.3097  -15.9135 C   0  0  2  0  0  0  0  0  0  0  0  0
   25.1717  -21.3758  -16.8399 N   0  0  0  0  0  0  0  0  0  0  0  0
   26.0295  -20.9054  -14.6369 C   0  0  0  0  0  0  0  0  0  0  0  0
   25.3195  -21.7575  -14.0826 O   0  0  0  0  0  0  0  0  0  0  0  0
   31.3090  -20.5432  -11.5277 C   0  0  0  0  0  0  0  0  0  0  0  0
   29.8479  -21.0326  -11.3514 C   0  0  2  0  0  0  0  0  0  0  0  0
   29.9670  -22.4939  -11.0509 C   0  0  0  0  0  0  0  0  0  0  0  0
   29.1835  -20.7042  -12.6232 C   0  0  0  0  0  0  0  0  0  0  0  0
   27.7115  -20.9882  -12.7434 C   0  0  2  0  0  0  0  0  0  0  0  0
   27.2635  -20.4965  -14.0809 N   0  0  0  0  0  0  0  0  0  0  0  0
   26.8533  -20.3520  -11.7578 C   0  0  0  0  0  0  0  0  0  0  0  0
   26.6529  -19.1131  -11.7604 O   0  0  0  0  0  0  0  0  0  0  0  0
   22.0392  -20.7360  -11.2646 C   0  0  0  0  0  0  0  0  0  0  0  0
   23.4712  -20.2450  -11.1117 C   0  0  0  0  0  0  0  0  0  0  0  0
   24.0111  -20.8254   -9.8249 C   0  0  2  0  0  0  0  0  0  0  0  0
   23.1769  -20.3367   -8.6827 C   0  0  0  0  0  0  0  0  0  0  0  0
   25.4804  -20.4714   -9.6551 C   0  0  2  0  0  0  0  0  0  0  0  0
   26.2022  -21.1028  -10.7522 N   0  0  0  0  0  0  0  0  0  0  0  0
   25.9986  -20.8619   -8.3447 C   0  0  0  0  0  0  0  0  0  0  0  0
   26.6554  -22.0841   -8.1291 O   0  0  0  0  0  0  0  0  0  0  0  0
   25.8743  -20.1081   -7.3466 O   0  0  0  0  0  0  0  0  0  0  0  0
  2  1  1  1
  2  3  1  0
  4  5  1  0
  4  2  1  0
  5  6  1  6
  7  5  1  0
  7  8  2  0
 10  9  1  6
 11 10  1  0
 12 10  1  0
 13 12  1  1
 13 14  1  0
 14  7  1  0
 15 13  1  0
 16 15  2  0
 17 18  1  0
 18 19  1  0
 19 21  1  0
 19 20  1  1
 21 22  1  6
 21 23  1  0
 22 15  1  0
 23 24  1  0
 25 23  2  0
M  END
$$$$
