PLF.pdb
     RDKit          3D

 27 28  0  0  1  0  0  0  0  0999 V2000
   11.6824  -17.3510   18.7602 N   0  0  0  0  0  0  0  0  0  0  0  0
   12.8480  -18.1948   18.8531 C   0  0  0  0  0  0  0  0  0  0  0  0
   12.6466  -19.1423   19.9872 C   0  0  0  0  0  0  0  0  0  0  0  0
   11.1757  -19.1258   20.2388 C   0  0  0  0  0  0  0  0  0  0  0  0
   10.7018  -17.8404   19.6775 C   0  0  1  0  0  0  0  0  0  0  0  0
   10.3171  -16.8411   20.7002 C   0  0  0  0  0  0  0  0  0  0  0  0
   11.2416  -16.3300   21.3875 O   0  0  0  0  0  0  0  0  0  0  0  0
    6.3206  -13.3299   19.6523 C   0  0  0  0  0  0  0  0  0  0  0  0
    7.6348  -13.9011   20.1455 C   0  0  1  0  0  0  0  0  0  0  0  0
    8.4852  -12.6702   20.5262 C   0  0  0  0  0  0  0  0  0  0  0  0
    7.4892  -14.6925   21.3780 C   0  0  0  0  0  0  0  0  0  0  0  0
    8.6583  -15.3858   21.9486 C   0  0  2  0  0  0  0  0  0  0  0  0
    9.0042  -16.4325   20.9492 N   0  0  0  0  0  0  0  0  0  0  0  0
    8.4921  -16.1156   23.1978 C   0  0  0  0  0  0  0  0  0  0  0  0
    8.2392  -17.3439   23.2974 O   0  0  0  0  0  0  0  0  0  0  0  0
    8.6201  -15.4182   24.4270 N   0  0  0  0  0  0  0  0  0  0  0  0
    8.4607  -16.1049   25.7104 C   0  0  1  0  0  0  0  0  0  0  0  0
    8.7752  -15.1572   26.8214 C   0  0  0  0  0  0  0  0  0  0  0  0
    7.9262  -13.9456   26.7875 C   0  0  0  0  0  0  0  0  0  0  0  0
    6.6077  -14.0623   27.1659 C   0  0  0  0  0  0  0  0  0  0  0  0
    5.7951  -12.9360   27.1413 C   0  0  0  0  0  0  0  0  0  0  0  0
    6.2693  -11.6951   26.7470 C   0  0  0  0  0  0  0  0  0  0  0  0
    7.5847  -11.5901   26.3718 C   0  0  0  0  0  0  0  0  0  0  0  0
    8.4014  -12.7134   26.3948 C   0  0  0  0  0  0  0  0  0  0  0  0
    7.1436  -16.7431   25.7863 C   0  0  0  0  0  0  0  0  0  0  0  0
    6.1766  -16.4831   25.0470 O   0  0  0  0  0  0  0  0  0  0  0  0
    6.9338  -17.7266   26.7606 O   0  0  0  0  0  0  0  0  0  0  0  0
  1  2  1  0
  3  2  1  0
  4  5  1  0
  4  3  1  0
  5  1  1  0
  5  6  1  1
  6  7  2  0
  9 10  1  1
  9  8  1  0
 11  9  1  0
 12 11  1  6
 12 13  1  0
 13  6  1  0
 14 15  2  0
 14 12  1  0
 16 14  1  0
 17 16  1  0
 17 18  1  1
 19 18  1  0
 19 20  2  0
 21 20  1  0
 22 21  2  0
 23 24  2  0
 23 22  1  0
 24 19  1  0
 25 17  1  0
 26 25  2  0
 27 25  1  0
M  END
$$$$
