PLF.pdb
     RDKit          3D

 27 28  0  0  1  0  0  0  0  0999 V2000
    7.6401  -17.7865   20.1354 N   0  0  0  0  0  0  0  0  0  0  0  0
    8.5703  -18.7641   19.6273 C   0  0  0  0  0  0  0  0  0  0  0  0
    9.3357  -19.3204   20.7803 C   0  0  0  0  0  0  0  0  0  0  0  0
    8.5156  -18.9801   21.9797 C   0  0  0  0  0  0  0  0  0  0  0  0
    7.6796  -17.8314   21.5633 C   0  0  1  0  0  0  0  0  0  0  0  0
    8.0803  -16.5421   22.1715 C   0  0  0  0  0  0  0  0  0  0  0  0
    8.8073  -15.7775   21.4823 O   0  0  0  0  0  0  0  0  0  0  0  0
    6.2404  -12.8486   26.6898 C   0  0  0  0  0  0  0  0  0  0  0  0
    6.6770  -13.0659   25.2550 C   0  0  1  0  0  0  0  0  0  0  0  0
    8.0029  -12.2867   25.1206 C   0  0  0  0  0  0  0  0  0  0  0  0
    6.9992  -14.4716   24.9605 C   0  0  0  0  0  0  0  0  0  0  0  0
    8.0773  -14.7947   24.0085 C   0  0  2  0  0  0  0  0  0  0  0  0
    7.7061  -16.1234   23.4511 N   0  0  0  0  0  0  0  0  0  0  0  0
    9.4268  -14.9798   24.5234 C   0  0  0  0  0  0  0  0  0  0  0  0
   10.2254  -14.0564   24.8267 O   0  0  0  0  0  0  0  0  0  0  0  0
    9.9181  -16.2974   24.7142 N   0  0  0  0  0  0  0  0  0  0  0  0
   11.2020  -16.5414   25.3747 C   0  0  1  0  0  0  0  0  0  0  0  0
   10.9585  -17.0709   26.7500 C   0  0  0  0  0  0  0  0  0  0  0  0
   10.3862  -16.0496   27.6551 C   0  0  0  0  0  0  0  0  0  0  0  0
    9.0319  -16.0805   27.9001 C   0  0  0  0  0  0  0  0  0  0  0  0
    8.4762  -15.1303   28.7474 C   0  0  0  0  0  0  0  0  0  0  0  0
    9.2425  -14.1494   29.3561 C   0  0  0  0  0  0  0  0  0  0  0  0
   10.5911  -14.1277   29.1051 C   0  0  0  0  0  0  0  0  0  0  0  0
   11.1515  -15.0757   28.2586 C   0  0  0  0  0  0  0  0  0  0  0  0
   12.0608  -17.3729   24.5268 C   0  0  0  0  0  0  0  0  0  0  0  0
   13.2034  -17.7644   24.8277 O   0  0  0  0  0  0  0  0  0  0  0  0
   11.5779  -17.7704   23.2741 O   0  0  0  0  0  0  0  0  0  0  0  0
  1  2  1  0
  3  2  1  0
  4  5  1  0
  4  3  1  0
  5  1  1  0
  5  6  1  6
  6  7  2  0
  9 10  1  1
  9  8  1  0
 11  9  1  0
 12 11  1  1
 12 13  1  0
 13  6  1  0
 14 15  2  0
 14 12  1  0
 16 14  1  0
 17 16  1  0
 17 18  1  1
 19 18  1  0
 19 20  2  0
 21 20  1  0
 22 21  2  0
 23 24  2  0
 23 22  1  0
 24 19  1  0
 25 17  1  0
 26 25  2  0
 27 25  1  0
M  END
$$$$
