PLF.pdb
     RDKit          3D

 27 28  0  0  1  0  0  0  0  0999 V2000
    7.0030  -18.7175   21.2504 N   0  0  0  0  0  0  0  0  0  0  0  0
    5.9160  -18.8332   20.3101 C   0  0  0  0  0  0  0  0  0  0  0  0
    6.4474  -18.5408   18.9474 C   0  0  0  0  0  0  0  0  0  0  0  0
    7.9251  -18.7068   19.0728 C   0  0  0  0  0  0  0  0  0  0  0  0
    8.2133  -18.5294   20.5141 C   0  0  1  0  0  0  0  0  0  0  0  0
    8.8967  -17.2570   20.8403 C   0  0  0  0  0  0  0  0  0  0  0  0
   10.0607  -17.0915   20.3865 O   0  0  0  0  0  0  0  0  0  0  0  0
    6.6605  -12.6992   19.9337 C   0  0  0  0  0  0  0  0  0  0  0  0
    7.6718  -13.8075   20.1469 C   0  0  1  0  0  0  0  0  0  0  0  0
    8.9020  -13.3887   19.3135 C   0  0  0  0  0  0  0  0  0  0  0  0
    8.1362  -13.8995   21.5406 C   0  0  0  0  0  0  0  0  0  0  0  0
    9.0601  -14.9773   21.9378 C   0  0  2  0  0  0  0  0  0  0  0  0
    8.3366  -16.2364   21.6133 N   0  0  0  0  0  0  0  0  0  0  0  0
    9.4089  -15.1100   23.3455 C   0  0  0  0  0  0  0  0  0  0  0  0
   10.2052  -14.3657   23.9734 O   0  0  0  0  0  0  0  0  0  0  0  0
    8.8210  -16.1533   24.1069 N   0  0  0  0  0  0  0  0  0  0  0  0
    9.0034  -16.2308   25.5577 C   0  0  1  0  0  0  0  0  0  0  0  0
    7.6941  -15.9890   26.2349 C   0  0  0  0  0  0  0  0  0  0  0  0
    7.3914  -14.5477   26.3802 C   0  0  0  0  0  0  0  0  0  0  0  0
    6.1515  -14.0986   25.9853 C   0  0  0  0  0  0  0  0  0  0  0  0
    5.8485  -12.7492   26.1145 C   0  0  0  0  0  0  0  0  0  0  0  0
    6.7560  -11.8374   26.6294 C   0  0  0  0  0  0  0  0  0  0  0  0
    7.9887  -12.2956   27.0199 C   0  0  0  0  0  0  0  0  0  0  0  0
    8.2965  -13.6441   26.8927 C   0  0  0  0  0  0  0  0  0  0  0  0
    9.6739  -17.4825   25.9204 C   0  0  0  0  0  0  0  0  0  0  0  0
    9.9713  -18.3935   25.1261 O   0  0  0  0  0  0  0  0  0  0  0  0
   10.0164  -17.6915   27.2619 O   0  0  0  0  0  0  0  0  0  0  0  0
  1  2  1  0
  3  2  1  0
  4  5  1  0
  4  3  1  0
  5  1  1  0
  5  6  1  6
  6  7  2  0
  9 10  1  6
  9  8  1  0
 11  9  1  0
 12 11  1  1
 12 13  1  0
 13  6  1  0
 14 15  2  0
 14 12  1  0
 16 14  1  0
 17 16  1  0
 17 18  1  1
 19 18  1  0
 19 20  2  0
 21 20  1  0
 22 21  2  0
 23 24  2  0
 23 22  1  0
 24 19  1  0
 25 17  1  0
 26 25  2  0
 27 25  1  0
M  END
$$$$
