PLF.pdb
     RDKit          3D

 27 28  0  0  1  0  0  0  0  0999 V2000
    7.2408  -15.0861   19.6740 N   0  0  0  0  0  0  0  0  0  0  0  0
    6.5184  -14.1303   18.8718 C   0  0  0  0  0  0  0  0  0  0  0  0
    7.3639  -12.9098   18.7292 C   0  0  0  0  0  0  0  0  0  0  0  0
    8.7439  -13.3621   19.0729 C   0  0  0  0  0  0  0  0  0  0  0  0
    8.5584  -14.5788   19.8957 C   0  0  1  0  0  0  0  0  0  0  0  0
    8.8713  -14.3899   21.3306 C   0  0  0  0  0  0  0  0  0  0  0  0
   10.0536  -14.0709   21.6287 O   0  0  0  0  0  0  0  0  0  0  0  0
    5.7487  -12.0798   25.8012 C   0  0  0  0  0  0  0  0  0  0  0  0
    7.1089  -12.5769   25.3550 C   0  0  1  0  0  0  0  0  0  0  0  0
    7.7106  -13.2609   26.6013 C   0  0  0  0  0  0  0  0  0  0  0  0
    7.0268  -13.6187   24.3184 C   0  0  0  0  0  0  0  0  0  0  0  0
    8.2606  -14.2244   23.7858 C   0  0  2  0  0  0  0  0  0  0  0  0
    7.9458  -14.5417   22.3666 N   0  0  0  0  0  0  0  0  0  0  0  0
    8.7140  -15.4883   24.3496 C   0  0  0  0  0  0  0  0  0  0  0  0
    8.2483  -16.6223   24.0674 O   0  0  0  0  0  0  0  0  0  0  0  0
    9.7684  -15.4817   25.2993 N   0  0  0  0  0  0  0  0  0  0  0  0
   10.4313  -16.7220   25.7073 C   0  0  1  0  0  0  0  0  0  0  0  0
   11.6276  -16.3934   26.5393 C   0  0  0  0  0  0  0  0  0  0  0  0
   11.2693  -15.6869   27.7892 C   0  0  0  0  0  0  0  0  0  0  0  0
   11.1837  -16.4200   28.9513 C   0  0  0  0  0  0  0  0  0  0  0  0
   10.8491  -15.7744   30.1348 C   0  0  0  0  0  0  0  0  0  0  0  0
   10.5980  -14.4126   30.1845 C   0  0  0  0  0  0  0  0  0  0  0  0
   10.6860  -13.6916   29.0207 C   0  0  0  0  0  0  0  0  0  0  0  0
   11.0202  -14.3326   27.8346 C   0  0  0  0  0  0  0  0  0  0  0  0
    9.4673  -17.6336   26.3298 C   0  0  0  0  0  0  0  0  0  0  0  0
    8.2921  -17.3453   26.6214 O   0  0  0  0  0  0  0  0  0  0  0  0
    9.8796  -18.9378   26.6292 O   0  0  0  0  0  0  0  0  0  0  0  0
  1  2  1  0
  3  2  1  0
  4  5  1  0
  4  3  1  0
  5  1  1  0
  5  6  1  1
  6  7  2  0
  9 10  1  1
  9  8  1  0
 11  9  1  0
 12 11  1  1
 12 13  1  0
 13  6  1  0
 14 15  2  0
 14 12  1  0
 16 14  1  0
 17 16  1  0
 17 18  1  1
 19 18  1  0
 19 20  2  0
 21 20  1  0
 22 21  2  0
 23 24  2  0
 23 22  1  0
 24 19  1  0
 25 17  1  0
 26 25  2  0
 27 25  1  0
M  END
$$$$
