PLF.pdb
     RDKit          3D

 27 28  0  0  1  0  0  0  0  0999 V2000
    7.4698  -18.3908   21.2373 N   0  0  0  0  0  0  0  0  0  0  0  0
    6.3516  -18.4332   20.3279 C   0  0  0  0  0  0  0  0  0  0  0  0
    6.6187  -17.4733   19.2179 C   0  0  0  0  0  0  0  0  0  0  0  0
    8.0901  -17.2305   19.2721 C   0  0  0  0  0  0  0  0  0  0  0  0
    8.4878  -17.5730   20.6565 C   0  0  1  0  0  0  0  0  0  0  0  0
    8.8342  -16.4005   21.4919 C   0  0  0  0  0  0  0  0  0  0  0  0
    9.7746  -15.6624   21.0931 O   0  0  0  0  0  0  0  0  0  0  0  0
    7.4352  -12.0139   24.4331 C   0  0  0  0  0  0  0  0  0  0  0  0
    7.3637  -13.3521   25.1407 C   0  0  1  0  0  0  0  0  0  0  0  0
    5.9909  -13.3554   25.8468 C   0  0  0  0  0  0  0  0  0  0  0  0
    7.3458  -14.4923   24.2100 C   0  0  0  0  0  0  0  0  0  0  0  0
    8.5824  -14.8931   23.5149 C   0  0  2  0  0  0  0  0  0  0  0  0
    8.1891  -16.0637   22.6849 N   0  0  0  0  0  0  0  0  0  0  0  0
    9.7036  -15.3716   24.3115 C   0  0  0  0  0  0  0  0  0  0  0  0
   10.7798  -14.7496   24.5048 O   0  0  0  0  0  0  0  0  0  0  0  0
    9.6122  -16.6408   24.9397 N   0  0  0  0  0  0  0  0  0  0  0  0
   10.6441  -17.1047   25.8692 C   0  0  1  0  0  0  0  0  0  0  0  0
   10.0505  -17.2586   27.2313 C   0  0  0  0  0  0  0  0  0  0  0  0
    9.8466  -15.9587   27.9085 C   0  0  0  0  0  0  0  0  0  0  0  0
   10.9329  -15.3531   28.4986 C   0  0  0  0  0  0  0  0  0  0  0  0
   10.7614  -14.1323   29.1386 C   0  0  0  0  0  0  0  0  0  0  0  0
    9.5291  -13.5020   29.2030 C   0  0  0  0  0  0  0  0  0  0  0  0
    8.4531  -14.1143   28.6117 C   0  0  0  0  0  0  0  0  0  0  0  0
    8.6195  -15.3352   27.9704 C   0  0  0  0  0  0  0  0  0  0  0  0
   11.3090  -18.2977   25.3378 C   0  0  0  0  0  0  0  0  0  0  0  0
   12.2034  -18.9394   25.9186 O   0  0  0  0  0  0  0  0  0  0  0  0
   10.9232  -18.7711   24.0778 O   0  0  0  0  0  0  0  0  0  0  0  0
  1  2  1  0
  3  2  1  0
  4  5  1  0
  4  3  1  0
  5  1  1  0
  5  6  1  1
  6  7  2  0
  9 10  1  6
  9  8  1  0
 11  9  1  0
 12 11  1  1
 12 13  1  0
 13  6  1  0
 14 15  2  0
 14 12  1  0
 16 14  1  0
 17 16  1  0
 17 18  1  1
 19 18  1  0
 19 20  2  0
 21 20  1  0
 22 21  2  0
 23 24  2  0
 23 22  1  0
 24 19  1  0
 25 17  1  0
 26 25  2  0
 27 25  1  0
M  END
$$$$
