PLF.pdb
     RDKit          3D

 27 28  0  0  1  0  0  0  0  0999 V2000
    5.2306  -18.1922   22.2248 N   0  0  0  0  0  0  0  0  0  0  0  0
    3.9048  -17.8629   21.7633 C   0  0  0  0  0  0  0  0  0  0  0  0
    3.9595  -17.6812   20.2839 C   0  0  0  0  0  0  0  0  0  0  0  0
    5.2240  -18.3542   19.8654 C   0  0  0  0  0  0  0  0  0  0  0  0
    6.0672  -18.3838   21.0820 C   0  0  1  0  0  0  0  0  0  0  0  0
    7.2154  -17.4497   21.0428 C   0  0  0  0  0  0  0  0  0  0  0  0
    8.1967  -17.7678   20.3189 O   0  0  0  0  0  0  0  0  0  0  0  0
    6.8239  -12.3016   19.9175 C   0  0  0  0  0  0  0  0  0  0  0  0
    7.4179  -13.6909   20.0335 C   0  0  1  0  0  0  0  0  0  0  0  0
    8.6859  -13.6557   19.1536 C   0  0  0  0  0  0  0  0  0  0  0  0
    7.8765  -14.0063   21.3961 C   0  0  0  0  0  0  0  0  0  0  0  0
    8.4502  -15.3320   21.6901 C   0  0  2  0  0  0  0  0  0  0  0  0
    7.2788  -16.2474   21.7523 N   0  0  0  0  0  0  0  0  0  0  0  0
    9.1330  -15.5274   22.9615 C   0  0  0  0  0  0  0  0  0  0  0  0
   10.3280  -15.2176   23.2034 O   0  0  0  0  0  0  0  0  0  0  0  0
    8.4242  -16.1121   24.0430 N   0  0  0  0  0  0  0  0  0  0  0  0
    9.0498  -16.2874   25.3552 C   0  0  1  0  0  0  0  0  0  0  0  0
    9.5594  -14.9699   25.8407 C   0  0  0  0  0  0  0  0  0  0  0  0
    8.4897  -13.9519   25.9380 C   0  0  0  0  0  0  0  0  0  0  0  0
    8.4490  -12.9556   24.9889 C   0  0  0  0  0  0  0  0  0  0  0  0
    7.4520  -11.9914   25.0632 C   0  0  0  0  0  0  0  0  0  0  0  0
    6.4940  -11.9991   26.0643 C   0  0  0  0  0  0  0  0  0  0  0  0
    6.5438  -12.9965   27.0051 C   0  0  0  0  0  0  0  0  0  0  0  0
    7.5389  -13.9631   26.9351 C   0  0  0  0  0  0  0  0  0  0  0  0
    8.1347  -16.9792   26.2672 C   0  0  0  0  0  0  0  0  0  0  0  0
    6.9494  -17.2636   26.0153 O   0  0  0  0  0  0  0  0  0  0  0  0
    8.6103  -17.3597   27.5280 O   0  0  0  0  0  0  0  0  0  0  0  0
  1  2  1  0
  3  2  1  0
  4  5  1  0
  4  3  1  0
  5  1  1  0
  5  6  1  6
  6  7  2  0
  9 10  1  6
  9  8  1  0
 11  9  1  0
 12 11  1  1
 12 13  1  0
 13  6  1  0
 14 15  2  0
 14 12  1  0
 16 14  1  0
 17 16  1  0
 17 18  1  1
 19 18  1  0
 19 20  2  0
 21 20  1  0
 22 21  2  0
 23 24  2  0
 23 22  1  0
 24 19  1  0
 25 17  1  0
 26 25  2  0
 27 25  1  0
M  END
$$$$
