PLF.pdb
     RDKit          3D

 27 28  0  0  1  0  0  0  0  0999 V2000
    7.1585  -17.9562   21.3137 N   0  0  0  0  0  0  0  0  0  0  0  0
    6.0268  -17.7873   20.4363 C   0  0  0  0  0  0  0  0  0  0  0  0
    6.3900  -16.7799   19.3981 C   0  0  0  0  0  0  0  0  0  0  0  0
    7.8809  -16.7238   19.4289 C   0  0  0  0  0  0  0  0  0  0  0  0
    8.2590  -17.2241   20.7701 C   0  0  1  0  0  0  0  0  0  0  0  0
    8.7637  -16.1749   21.6849 C   0  0  0  0  0  0  0  0  0  0  0  0
    9.7664  -15.5110   21.3080 O   0  0  0  0  0  0  0  0  0  0  0  0
    7.5030  -11.8074   24.6502 C   0  0  0  0  0  0  0  0  0  0  0  0
    7.4042  -13.1397   25.3656 C   0  0  1  0  0  0  0  0  0  0  0  0
    6.0262  -13.1159   26.0612 C   0  0  0  0  0  0  0  0  0  0  0  0
    7.3745  -14.2854   24.4421 C   0  0  0  0  0  0  0  0  0  0  0  0
    8.6023  -14.6908   23.7342 C   0  0  2  0  0  0  0  0  0  0  0  0
    8.2027  -15.8769   22.9296 N   0  0  0  0  0  0  0  0  0  0  0  0
    9.7385  -15.1502   24.5208 C   0  0  0  0  0  0  0  0  0  0  0  0
   10.5553  -14.4088   25.1254 O   0  0  0  0  0  0  0  0  0  0  0  0
    9.9770  -16.5440   24.6402 N   0  0  0  0  0  0  0  0  0  0  0  0
   10.8881  -17.0747   25.6562 C   0  0  1  0  0  0  0  0  0  0  0  0
   10.1595  -17.2086   26.9533 C   0  0  0  0  0  0  0  0  0  0  0  0
   10.1314  -15.9422   27.7184 C   0  0  0  0  0  0  0  0  0  0  0  0
    8.9826  -15.1845   27.6838 C   0  0  0  0  0  0  0  0  0  0  0  0
    8.9369  -13.9929   28.3961 C   0  0  0  0  0  0  0  0  0  0  0  0
   10.0129  -13.5402   29.1426 C   0  0  0  0  0  0  0  0  0  0  0  0
   11.1529  -14.3030   29.1701 C   0  0  0  0  0  0  0  0  0  0  0  0
   11.2035  -15.4954   28.4595 C   0  0  0  0  0  0  0  0  0  0  0  0
   11.5339  -18.2980   25.1720 C   0  0  0  0  0  0  0  0  0  0  0  0
   12.4039  -18.9417   25.7867 O   0  0  0  0  0  0  0  0  0  0  0  0
   11.1575  -18.8007   23.9205 O   0  0  0  0  0  0  0  0  0  0  0  0
  1  2  1  0
  3  2  1  0
  4  5  1  0
  4  3  1  0
  5  1  1  0
  5  6  1  1
  6  7  2  0
  9 10  1  6
  9  8  1  0
 11  9  1  0
 12 11  1  1
 12 13  1  0
 13  6  1  0
 14 15  2  0
 14 12  1  0
 16 14  1  0
 17 16  1  0
 17 18  1  1
 19 18  1  0
 19 20  2  0
 21 20  1  0
 22 21  2  0
 23 24  2  0
 23 22  1  0
 24 19  1  0
 25 17  1  0
 26 25  2  0
 27 25  1  0
M  END
$$$$
