PLF.pdb
     RDKit          3D

 27 28  0  0  1  0  0  0  0  0999 V2000
    7.2189  -20.2091   20.9067 N   0  0  0  0  0  0  0  0  0  0  0  0
    7.3572  -21.3316   21.8012 C   0  0  0  0  0  0  0  0  0  0  0  0
    7.1508  -20.8430   23.1953 C   0  0  0  0  0  0  0  0  0  0  0  0
    6.4497  -19.5350   23.0390 C   0  0  0  0  0  0  0  0  0  0  0  0
    6.7748  -19.0834   21.6671 C   0  0  1  0  0  0  0  0  0  0  0  0
    7.7173  -17.9425   21.6152 C   0  0  0  0  0  0  0  0  0  0  0  0
    8.9089  -18.1898   21.2879 O   0  0  0  0  0  0  0  0  0  0  0  0
    8.7137  -13.2668   19.1027 C   0  0  0  0  0  0  0  0  0  0  0  0
    8.2044  -13.2316   20.5296 C   0  0  1  0  0  0  0  0  0  0  0  0
    7.0927  -12.1605   20.5284 C   0  0  0  0  0  0  0  0  0  0  0  0
    7.5579  -14.4891   20.9386 C   0  0  0  0  0  0  0  0  0  0  0  0
    8.3119  -15.4804   21.7273 C   0  0  2  0  0  0  0  0  0  0  0  0
    7.3713  -16.6197   21.9040 N   0  0  0  0  0  0  0  0  0  0  0  0
    8.7167  -15.1289   23.0812 C   0  0  0  0  0  0  0  0  0  0  0  0
    8.7131  -13.9681   23.5660 O   0  0  0  0  0  0  0  0  0  0  0  0
    9.1570  -16.1540   23.9582 N   0  0  0  0  0  0  0  0  0  0  0  0
    9.0440  -16.0116   25.4111 C   0  0  1  0  0  0  0  0  0  0  0  0
    7.6331  -15.6743   25.7672 C   0  0  0  0  0  0  0  0  0  0  0  0
    7.4474  -14.2303   26.0322 C   0  0  0  0  0  0  0  0  0  0  0  0
    6.1723  -13.7148   25.9724 C   0  0  0  0  0  0  0  0  0  0  0  0
    5.9779  -12.3617   26.2187 C   0  0  0  0  0  0  0  0  0  0  0  0
    7.0283  -11.5109   26.5234 C   0  0  0  0  0  0  0  0  0  0  0  0
    8.2949  -12.0350   26.5804 C   0  0  0  0  0  0  0  0  0  0  0  0
    8.4945  -13.3875   26.3349 C   0  0  0  0  0  0  0  0  0  0  0  0
    9.5939  -17.1923   26.0828 C   0  0  0  0  0  0  0  0  0  0  0  0
    9.7764  -18.3017   25.5488 O   0  0  0  0  0  0  0  0  0  0  0  0
    9.9492  -17.0869   27.4331 O   0  0  0  0  0  0  0  0  0  0  0  0
  1  2  1  0
  3  2  1  0
  4  5  1  0
  4  3  1  0
  5  1  1  0
  5  6  1  1
  6  7  2  0
  9 10  1  6
  9  8  1  0
 11  9  1  0
 12 11  1  1
 12 13  1  0
 13  6  1  0
 14 15  2  0
 14 12  1  0
 16 14  1  0
 17 16  1  0
 17 18  1  6
 19 18  1  0
 19 20  2  0
 21 20  1  0
 22 21  2  0
 23 24  2  0
 23 22  1  0
 24 19  1  0
 25 17  1  0
 26 25  2  0
 27 25  1  0
M  END
$$$$
