PLF.pdb
     RDKit          3D

 27 28  0  0  1  0  0  0  0  0999 V2000
    7.0508  -17.6659   21.6970 N   0  0  0  0  0  0  0  0  0  0  0  0
    5.8166  -17.4709   20.9773 C   0  0  0  0  0  0  0  0  0  0  0  0
    6.0392  -16.4112   19.9516 C   0  0  0  0  0  0  0  0  0  0  0  0
    7.5217  -16.3370   19.7983 C   0  0  0  0  0  0  0  0  0  0  0  0
    8.0689  -16.8947   21.0558 C   0  0  1  0  0  0  0  0  0  0  0  0
    8.6771  -15.8830   21.9498 C   0  0  0  0  0  0  0  0  0  0  0  0
    9.6413  -15.2117   21.4939 O   0  0  0  0  0  0  0  0  0  0  0  0
    5.5659  -13.0876   25.4449 C   0  0  0  0  0  0  0  0  0  0  0  0
    6.5614  -13.5593   24.4042 C   0  0  1  0  0  0  0  0  0  0  0  0
    6.9978  -12.2779   23.6620 C   0  0  0  0  0  0  0  0  0  0  0  0
    7.7852  -14.1238   24.9961 C   0  0  0  0  0  0  0  0  0  0  0  0
    8.8765  -14.5907   24.1220 C   0  0  2  0  0  0  0  0  0  0  0  0
    8.2525  -15.6278   23.2565 N   0  0  0  0  0  0  0  0  0  0  0  0
   10.0160  -15.2624   24.7314 C   0  0  0  0  0  0  0  0  0  0  0  0
   11.1496  -14.7507   24.9199 O   0  0  0  0  0  0  0  0  0  0  0  0
    9.8749  -16.6068   25.1630 N   0  0  0  0  0  0  0  0  0  0  0  0
   10.8588  -17.2263   26.0532 C   0  0  1  0  0  0  0  0  0  0  0  0
   10.2481  -17.4296   27.4011 C   0  0  0  0  0  0  0  0  0  0  0  0
   10.1225  -16.1656   28.1605 C   0  0  0  0  0  0  0  0  0  0  0  0
   11.1150  -15.8424   29.0580 C   0  0  0  0  0  0  0  0  0  0  0  0
   11.0150  -14.6598   29.7797 C   0  0  0  0  0  0  0  0  0  0  0  0
    9.9458  -13.7921   29.6257 C   0  0  0  0  0  0  0  0  0  0  0  0
    8.9622  -14.1238   28.7287 C   0  0  0  0  0  0  0  0  0  0  0  0
    9.0576  -15.3053   28.0045 C   0  0  0  0  0  0  0  0  0  0  0  0
   11.4204  -18.4294   25.4327 C   0  0  0  0  0  0  0  0  0  0  0  0
   12.2885  -19.1612   25.9426 O   0  0  0  0  0  0  0  0  0  0  0  0
   10.9584  -18.8041   24.1651 O   0  0  0  0  0  0  0  0  0  0  0  0
  1  2  1  0
  3  2  1  0
  4  5  1  0
  4  3  1  0
  5  1  1  0
  5  6  1  1
  6  7  2  0
  9 10  1  6
  9  8  1  0
 11  9  1  0
 12 11  1  1
 12 13  1  0
 13  6  1  0
 14 15  2  0
 14 12  1  0
 16 14  1  0
 17 16  1  0
 17 18  1  1
 19 18  1  0
 19 20  2  0
 21 20  1  0
 22 21  2  0
 23 24  2  0
 23 22  1  0
 24 19  1  0
 25 17  1  0
 26 25  2  0
 27 25  1  0
M  END
$$$$
