LAA.pdb
     RDKit          3D

 19 18  0  0  1  0  0  0  0  0999 V2000
   17.5770  -10.6470  -19.9523 C   0  0  0  0  0  0  0  0  0  0  0  0
   17.8883  -11.8348  -19.0394 C   0  0  2  0  0  0  0  0  0  0  0  0
   16.6384  -12.6500  -18.7814 C   0  0  0  0  0  0  0  0  0  0  0  0
   18.3630  -11.2926  -17.7356 C   0  0  0  0  0  0  0  0  0  0  0  0
   19.5784  -10.3936  -17.8872 C   0  0  2  0  0  0  0  0  0  0  0  0
   20.6712  -11.1376  -18.4293 N   0  0  0  0  0  0  0  0  0  0  0  0
   19.8928   -9.7856  -16.5682 C   0  0  0  0  0  0  0  0  0  0  0  0
   18.9801   -9.2842  -15.8628 O   0  0  0  0  0  0  0  0  0  0  0  0
   22.8492   -9.6370  -14.2944 C   0  0  0  0  0  0  0  0  0  0  0  0
   21.5232   -9.0868  -14.7681 C   0  0  2  0  0  0  0  0  0  0  0  0
   21.2136   -9.7365  -16.0388 N   0  0  0  0  0  0  0  0  0  0  0  0
   21.5335   -7.6113  -14.9041 C   0  0  0  0  0  0  0  0  0  0  0  0
   22.0508   -7.0898  -15.9265 O   0  0  0  0  0  0  0  0  0  0  0  0
   19.7530   -4.7975  -13.3622 C   0  0  0  0  0  0  0  0  0  0  0  0
   21.0396   -5.2983  -14.0237 C   0  0  2  0  0  0  0  0  0  0  0  0
   20.9854   -6.7549  -13.9316 N   0  0  0  0  0  0  0  0  0  0  0  0
   22.2288   -4.7491  -13.3461 C   0  0  0  0  0  0  0  0  0  0  0  0
   22.7093   -3.5181  -13.7788 O   0  0  0  0  0  0  0  0  0  0  0  0
   22.7466   -5.3995  -12.4284 O   0  0  0  0  0  0  0  0  0  0  0  0
  2  4  1  0
  2  1  1  6
  3  2  1  0
  4  5  1  0
  5  7  1  0
  5  6  1  1
  7  8  2  0
 10  9  1  6
 10 12  1  0
 11 10  1  0
 11  7  1  0
 12 13  2  0
 12 16  1  0
 15 14  1  1
 15 17  1  0
 16 15  1  0
 17 19  2  0
 17 18  1  0
M  END
$$$$
