LAA.pdb
     RDKit          3D

 19 18  0  0  1  0  0  0  0  0999 V2000
   24.6587  -20.3631  -18.4519 C   0  0  0  0  0  0  0  0  0  0  0  0
   23.2024  -20.4090  -17.9846 C   0  0  2  0  0  0  0  0  0  0  0  0
   22.2649  -20.4938  -19.1710 C   0  0  0  0  0  0  0  0  0  0  0  0
   22.9178  -19.1382  -17.2614 C   0  0  0  0  0  0  0  0  0  0  0  0
   23.8878  -18.8892  -16.1188 C   0  0  2  0  0  0  0  0  0  0  0  0
   23.6009  -19.7733  -15.0335 N   0  0  0  0  0  0  0  0  0  0  0  0
   23.8141  -17.4567  -15.7305 C   0  0  0  0  0  0  0  0  0  0  0  0
   22.7306  -16.9590  -15.3300 O   0  0  0  0  0  0  0  0  0  0  0  0
   26.2608  -14.6822  -15.1893 C   0  0  0  0  0  0  0  0  0  0  0  0
   24.8512  -15.1716  -15.4317 C   0  0  2  0  0  0  0  0  0  0  0  0
   24.9385  -16.5852  -15.7877 N   0  0  0  0  0  0  0  0  0  0  0  0
   24.1491  -14.3930  -16.4789 C   0  0  0  0  0  0  0  0  0  0  0  0
   24.3851  -14.6370  -17.6912 O   0  0  0  0  0  0  0  0  0  0  0  0
   21.4665  -11.7877  -16.4308 C   0  0  0  0  0  0  0  0  0  0  0  0
   22.4754  -12.6465  -17.1980 C   0  0  2  0  0  0  0  0  0  0  0  0
   23.2192  -13.3810  -16.1780 N   0  0  0  0  0  0  0  0  0  0  0  0
   23.3612  -11.8063  -18.0252 C   0  0  0  0  0  0  0  0  0  0  0  0
   24.6632  -11.6055  -17.5804 O   0  0  0  0  0  0  0  0  0  0  0  0
   22.9147  -11.3183  -19.0721 O   0  0  0  0  0  0  0  0  0  0  0  0
  2  4  1  0
  2  1  1  6
  3  2  1  0
  4  5  1  0
  5  7  1  0
  5  6  1  1
  7  8  2  0
 10  9  1  6
 10 12  1  0
 11 10  1  0
 11  7  1  0
 12 13  2  0
 12 16  1  0
 15 14  1  1
 15 17  1  0
 16 15  1  0
 17 19  2  0
 17 18  1  0
M  END
$$$$
