LAA.pdb
     RDKit          3D

 19 18  0  0  1  0  0  0  0  0999 V2000
   13.1255   -5.4732   -9.2103 C   0  0  0  0  0  0  0  0  0  0  0  0
   14.2428   -5.6430   -8.1787 C   0  0  2  0  0  0  0  0  0  0  0  0
   14.4910   -4.3423   -7.4438 C   0  0  0  0  0  0  0  0  0  0  0  0
   15.4876   -6.0028   -8.9135 C   0  0  0  0  0  0  0  0  0  0  0  0
   15.3809   -7.3455   -9.6164 C   0  0  2  0  0  0  0  0  0  0  0  0
   15.2806   -8.3948   -8.6517 N   0  0  0  0  0  0  0  0  0  0  0  0
   16.5467   -7.5060  -10.5238 C   0  0  0  0  0  0  0  0  0  0  0  0
   17.6823   -7.7852  -10.0605 O   0  0  0  0  0  0  0  0  0  0  0  0
   17.0508   -7.7997  -14.2099 C   0  0  0  0  0  0  0  0  0  0  0  0
   17.5942   -7.5393  -12.8234 C   0  0  2  0  0  0  0  0  0  0  0  0
   16.4487   -7.3566  -11.9363 N   0  0  0  0  0  0  0  0  0  0  0  0
   18.5048   -6.3712  -12.7776 C   0  0  0  0  0  0  0  0  0  0  0  0
   18.0319   -5.2297  -12.5362 O   0  0  0  0  0  0  0  0  0  0  0  0
   22.2003   -5.9120  -13.1306 C   0  0  0  0  0  0  0  0  0  0  0  0
   20.7884   -5.3279  -13.0340 C   0  0  2  0  0  0  0  0  0  0  0  0
   19.8908   -6.4794  -12.9940 N   0  0  0  0  0  0  0  0  0  0  0  0
   20.5023   -4.4483  -14.1827 C   0  0  0  0  0  0  0  0  0  0  0  0
   20.7983   -3.0961  -14.0515 O   0  0  0  0  0  0  0  0  0  0  0  0
   20.0149   -4.9441  -15.2074 O   0  0  0  0  0  0  0  0  0  0  0  0
  2  4  1  0
  2  1  1  6
  3  2  1  0
  4  5  1  0
  5  7  1  0
  5  6  1  1
  7  8  2  0
 10  9  1  6
 10 12  1  0
 11 10  1  0
 11  7  1  0
 12 13  2  0
 12 16  1  0
 15 14  1  6
 15 17  1  0
 16 15  1  0
 17 19  2  0
 17 18  1  0
M  END
$$$$
