LAA.pdb
     RDKit          3D

 19 18  0  0  1  0  0  0  0  0999 V2000
   21.1884  -16.1037  -17.0607 C   0  0  0  0  0  0  0  0  0  0  0  0
   19.8352  -16.1861  -17.7701 C   0  0  2  0  0  0  0  0  0  0  0  0
   19.9791  -16.8699  -19.1137 C   0  0  0  0  0  0  0  0  0  0  0  0
   19.3630  -14.7936  -18.0092 C   0  0  0  0  0  0  0  0  0  0  0  0
   19.1018  -14.0379  -16.7173 C   0  0  2  0  0  0  0  0  0  0  0  0
   18.2701  -14.8173  -15.8555 N   0  0  0  0  0  0  0  0  0  0  0  0
   18.5112  -12.7147  -17.0466 C   0  0  0  0  0  0  0  0  0  0  0  0
   19.1062  -11.9261  -17.8252 O   0  0  0  0  0  0  0  0  0  0  0  0
   15.2668  -10.9679  -16.3616 C   0  0  0  0  0  0  0  0  0  0  0  0
   16.7083  -10.9586  -16.8171 C   0  0  2  0  0  0  0  0  0  0  0  0
   17.2673  -12.2730  -16.5128 N   0  0  0  0  0  0  0  0  0  0  0  0
   17.4990   -9.8759  -16.1862 C   0  0  0  0  0  0  0  0  0  0  0  0
   18.0088  -10.0657  -15.0508 O   0  0  0  0  0  0  0  0  0  0  0  0
   18.7916   -6.5776  -17.3450 C   0  0  0  0  0  0  0  0  0  0  0  0
   18.5112   -7.5642  -16.2084 C   0  0  2  0  0  0  0  0  0  0  0  0
   17.7095   -8.6297  -16.8044 N   0  0  0  0  0  0  0  0  0  0  0  0
   17.8040   -6.9009  -15.0973 C   0  0  0  0  0  0  0  0  0  0  0  0
   18.5473   -6.0825  -14.2540 O   0  0  0  0  0  0  0  0  0  0  0  0
   16.5889   -7.0973  -14.9611 O   0  0  0  0  0  0  0  0  0  0  0  0
  2  4  1  0
  2  1  1  6
  3  2  1  0
  4  5  1  0
  5  7  1  0
  5  6  1  1
  7  8  2  0
 10  9  1  1
 10 12  1  0
 11 10  1  0
 11  7  1  0
 12 13  2  0
 12 16  1  0
 15 14  1  6
 15 17  1  0
 16 15  1  0
 17 19  2  0
 17 18  1  0
M  END
$$$$
