LAA.pdb
     RDKit          3D

 19 18  0  0  1  0  0  0  0  0999 V2000
   25.1065  -21.0123   -8.0474 C   0  0  0  0  0  0  0  0  0  0  0  0
   26.4509  -20.3396   -8.3325 C   0  0  2  0  0  0  0  0  0  0  0  0
   26.6042  -19.0828   -7.5016 C   0  0  0  0  0  0  0  0  0  0  0  0
   26.4661  -19.9476   -9.7696 C   0  0  0  0  0  0  0  0  0  0  0  0
   26.3702  -21.1447  -10.7003 C   0  0  2  0  0  0  0  0  0  0  0  0
   27.6160  -21.8438  -10.7262 N   0  0  0  0  0  0  0  0  0  0  0  0
   25.9449  -20.6744  -12.0443 C   0  0  0  0  0  0  0  0  0  0  0  0
   26.6052  -19.7918  -12.6501 O   0  0  0  0  0  0  0  0  0  0  0  0
   24.4118  -22.1349  -14.8712 C   0  0  0  0  0  0  0  0  0  0  0  0
   24.4727  -20.8411  -14.0917 C   0  0  2  0  0  0  0  0  0  0  0  0
   24.7929  -21.1833  -12.7085 N   0  0  0  0  0  0  0  0  0  0  0  0
   23.2147  -20.0630  -14.1784 C   0  0  0  0  0  0  0  0  0  0  0  0
   22.2887  -20.2941  -13.3574 O   0  0  0  0  0  0  0  0  0  0  0  0
   22.0116  -17.2761  -16.3679 C   0  0  0  0  0  0  0  0  0  0  0  0
   21.7772  -18.2771  -15.2335 C   0  0  2  0  0  0  0  0  0  0  0  0
   23.0039  -19.0652  -15.1476 N   0  0  0  0  0  0  0  0  0  0  0  0
   20.6003  -19.1216  -15.5107 C   0  0  0  0  0  0  0  0  0  0  0  0
   19.3758  -18.7152  -14.9922 O   0  0  0  0  0  0  0  0  0  0  0  0
   20.7482  -20.1483  -16.1871 O   0  0  0  0  0  0  0  0  0  0  0  0
  2  4  1  0
  2  1  1  1
  3  2  1  0
  4  5  1  0
  5  7  1  0
  5  6  1  6
  7  8  2  0
 10  9  1  6
 10 12  1  0
 11 10  1  0
 11  7  1  0
 12 13  2  0
 12 16  1  0
 15 14  1  6
 15 17  1  0
 16 15  1  0
 17 19  2  0
 17 18  1  0
M  END
$$$$
