LAA.pdb
     RDKit          3D

 19 18  0  0  1  0  0  0  0  0999 V2000
   16.8129  -11.9202  -16.7024 C   0  0  0  0  0  0  0  0  0  0  0  0
   17.7536  -12.6535  -15.7439 C   0  0  2  0  0  0  0  0  0  0  0  0
   17.0606  -12.9311  -14.4263 C   0  0  0  0  0  0  0  0  0  0  0  0
   18.9146  -11.7596  -15.4754 C   0  0  0  0  0  0  0  0  0  0  0  0
   19.7764  -11.5393  -16.7071 C   0  0  2  0  0  0  0  0  0  0  0  0
   20.6114  -12.6775  -16.9285 N   0  0  0  0  0  0  0  0  0  0  0  0
   20.5495  -10.2822  -16.5331 C   0  0  0  0  0  0  0  0  0  0  0  0
   21.4251  -10.1907  -15.6347 O   0  0  0  0  0  0  0  0  0  0  0  0
   20.9354   -7.0756  -18.4208 C   0  0  0  0  0  0  0  0  0  0  0  0
   21.0978   -7.8967  -17.1619 C   0  0  2  0  0  0  0  0  0  0  0  0
   20.3490   -9.1358  -17.3533 N   0  0  0  0  0  0  0  0  0  0  0  0
   20.6480   -7.1755  -15.9482 C   0  0  0  0  0  0  0  0  0  0  0  0
   19.4487   -7.2775  -15.5792 O   0  0  0  0  0  0  0  0  0  0  0  0
   22.3168   -5.0849  -13.3443 C   0  0  0  0  0  0  0  0  0  0  0  0
   21.0493   -5.5259  -14.0809 C   0  0  2  0  0  0  0  0  0  0  0  0
   21.5094   -6.3717  -15.1791 N   0  0  0  0  0  0  0  0  0  0  0  0
   20.2896   -4.3593  -14.5673 C   0  0  0  0  0  0  0  0  0  0  0  0
   19.4759   -3.6922  -13.6583 O   0  0  0  0  0  0  0  0  0  0  0  0
   20.4056   -4.0238  -15.7537 O   0  0  0  0  0  0  0  0  0  0  0  0
  2  4  1  0
  2  1  1  6
  3  2  1  0
  4  5  1  0
  5  7  1  0
  5  6  1  1
  7  8  2  0
 10  9  1  6
 10 12  1  0
 11 10  1  0
 11  7  1  0
 12 13  2  0
 12 16  1  0
 15 14  1  6
 15 17  1  0
 16 15  1  0
 17 19  2  0
 17 18  1  0
M  END
$$$$
