ATN.pdb
     RDKit          3D

 21 20  0  0  1  0  0  0  0  0999 V2000
   16.9076  -11.7395  -16.4961 C   0  0  0  0  0  0  0  0  0  0  0  0
   18.4165  -11.6556  -16.7493 C   0  0  2  0  0  0  0  0  0  0  0  0
   18.9582  -12.9757  -16.9828 N   0  0  0  0  0  0  0  0  0  0  0  0
   19.0120  -11.0377  -15.5407 C   0  0  0  0  0  0  0  0  0  0  0  0
   19.0961  -11.7387  -14.5030 O   0  0  0  0  0  0  0  0  0  0  0  0
   22.4415   -9.6262  -15.1272 C   0  0  0  0  0  0  0  0  0  0  0  0
   21.4414   -8.5560  -14.7635 C   0  0  1  0  0  0  0  0  0  0  0  0
   21.2526   -7.7146  -15.8551 O   0  0  0  0  0  0  0  0  0  0  0  0
   20.1203   -9.1237  -14.3150 C   0  0  2  0  0  0  0  0  0  0  0  0
   19.4844   -9.7133  -15.4998 N   0  0  0  0  0  0  0  0  0  0  0  0
   19.2231   -8.1452  -13.6962 C   0  0  0  0  0  0  0  0  0  0  0  0
   18.3825   -7.5415  -14.4199 O   0  0  0  0  0  0  0  0  0  0  0  0
   16.6744   -5.0710  -10.3911 N   0  0  0  0  0  0  0  0  0  0  0  0
   17.4108   -5.9853   -9.5965 C   0  0  0  0  0  0  0  0  0  0  0  0
   17.3214   -5.9712   -8.3461 O   0  0  0  0  0  0  0  0  0  0  0  0
   18.2960   -6.9694  -10.2385 C   0  0  0  0  0  0  0  0  0  0  0  0
   18.2988   -6.8450  -11.7467 C   0  0  2  0  0  0  0  0  0  0  0  0
   19.2199   -7.8124  -12.3216 N   0  0  0  0  0  0  0  0  0  0  0  0
   18.5725   -5.4764  -12.2173 C   0  0  0  0  0  0  0  0  0  0  0  0
   17.5693   -4.5440  -12.4305 O   0  0  0  0  0  0  0  0  0  0  0  0
   19.7527   -5.1017  -12.4459 O   0  0  0  0  0  0  0  0  0  0  0  0
  2  1  1  1
  2  4  1  0
  3  2  1  0
  4  5  2  0
  7  6  1  6
  7  9  1  0
  8  7  1  0
  9 11  1  0
 10  4  1  0
  9 10  1  6
 11 12  2  0
 13 14  1  0
 14 16  1  0
 14 15  2  0
 17 16  1  1
 17 19  1  0
 18 17  1  0
 18 11  1  0
 19 21  2  0
 19 20  1  0
M  END
$$$$
