ATN.pdb
     RDKit          3D

 21 20  0  0  1  0  0  0  0  0999 V2000
   17.4002  -10.9694  -17.0075 C   0  0  0  0  0  0  0  0  0  0  0  0
   18.7762  -11.6080  -16.7908 C   0  0  2  0  0  0  0  0  0  0  0  0
   18.6280  -12.9620  -16.3057 N   0  0  0  0  0  0  0  0  0  0  0  0
   19.4830  -10.7588  -15.8027 C   0  0  0  0  0  0  0  0  0  0  0  0
   19.0210  -10.7048  -14.6369 O   0  0  0  0  0  0  0  0  0  0  0  0
   22.9656  -11.1152  -14.6900 C   0  0  0  0  0  0  0  0  0  0  0  0
   22.8018   -9.6855  -15.1450 C   0  0  1  0  0  0  0  0  0  0  0  0
   23.3110   -9.5526  -16.4327 O   0  0  0  0  0  0  0  0  0  0  0  0
   21.3684   -9.2242  -15.1067 C   0  0  2  0  0  0  0  0  0  0  0  0
   20.6383  -10.0154  -16.1051 N   0  0  0  0  0  0  0  0  0  0  0  0
   21.1886   -7.7942  -15.3677 C   0  0  0  0  0  0  0  0  0  0  0  0
   20.8474   -7.4210  -16.5249 O   0  0  0  0  0  0  0  0  0  0  0  0
   19.2207   -2.9755  -16.0323 N   0  0  0  0  0  0  0  0  0  0  0  0
   19.6888   -3.4448  -14.7792 C   0  0  0  0  0  0  0  0  0  0  0  0
   19.9792   -2.6452  -13.8582 O   0  0  0  0  0  0  0  0  0  0  0  0
   19.8396   -4.8893  -14.5454 C   0  0  0  0  0  0  0  0  0  0  0  0
   21.2663   -5.3579  -14.7323 C   0  0  2  0  0  0  0  0  0  0  0  0
   21.3697   -6.7717  -14.4075 N   0  0  0  0  0  0  0  0  0  0  0  0
   22.2468   -4.5485  -13.9886 C   0  0  0  0  0  0  0  0  0  0  0  0
   22.7666   -3.3625  -14.4830 O   0  0  0  0  0  0  0  0  0  0  0  0
   22.6530   -4.9166  -12.8550 O   0  0  0  0  0  0  0  0  0  0  0  0
  2  1  1  1
  2  4  1  0
  3  2  1  0
  4  5  2  0
  7  6  1  6
  7  9  1  0
  8  7  1  0
  9 11  1  0
 10  4  1  0
  9 10  1  6
 11 12  2  0
 13 14  1  0
 14 16  1  0
 14 15  2  0
 17 16  1  1
 17 19  1  0
 18 17  1  0
 18 11  1  0
 19 21  2  0
 19 20  1  0
M  END
$$$$
