ATN.pdb
     RDKit          3D

 21 20  0  0  1  0  0  0  0  0999 V2000
   21.1463  -19.1918  -16.2281 C   0  0  0  0  0  0  0  0  0  0  0  0
   22.6106  -19.2965  -15.7889 C   0  0  2  0  0  0  0  0  0  0  0  0
   22.7374  -20.2270  -14.6895 N   0  0  0  0  0  0  0  0  0  0  0  0
   23.0278  -17.9320  -15.3873 C   0  0  0  0  0  0  0  0  0  0  0  0
   22.5823  -17.4756  -14.3063 O   0  0  0  0  0  0  0  0  0  0  0  0
   26.3000  -16.5083  -14.4227 C   0  0  0  0  0  0  0  0  0  0  0  0
   25.8023  -15.7833  -15.6492 C   0  0  1  0  0  0  0  0  0  0  0  0
   26.3538  -16.3693  -16.7840 O   0  0  0  0  0  0  0  0  0  0  0  0
   24.2995  -15.7768  -15.7504 C   0  0  2  0  0  0  0  0  0  0  0  0
   23.8926  -17.1289  -16.1528 N   0  0  0  0  0  0  0  0  0  0  0  0
   23.7632  -14.7889  -16.6895 C   0  0  0  0  0  0  0  0  0  0  0  0
   23.4750  -15.1536  -17.8637 O   0  0  0  0  0  0  0  0  0  0  0  0
   21.8171  -10.5440  -18.9240 N   0  0  0  0  0  0  0  0  0  0  0  0
   21.6852  -10.3751  -17.5226 C   0  0  0  0  0  0  0  0  0  0  0  0
   21.0756   -9.3886  -17.0462 O   0  0  0  0  0  0  0  0  0  0  0  0
   22.2684  -11.3660  -16.6051 C   0  0  0  0  0  0  0  0  0  0  0  0
   22.9722  -12.4871  -17.3386 C   0  0  2  0  0  0  0  0  0  0  0  0
   23.5357  -13.4272  -16.3828 N   0  0  0  0  0  0  0  0  0  0  0  0
   23.9794  -12.0102  -18.3018 C   0  0  0  0  0  0  0  0  0  0  0  0
   23.6554  -11.6216  -19.5921 O   0  0  0  0  0  0  0  0  0  0  0  0
   25.1936  -11.9390  -17.9762 O   0  0  0  0  0  0  0  0  0  0  0  0
  2  1  1  1
  2  4  1  0
  3  2  1  0
  4  5  2  0
  7  6  1  1
  7  9  1  0
  8  7  1  0
  9 11  1  0
 10  4  1  0
  9 10  1  6
 11 12  2  0
 13 14  1  0
 14 16  1  0
 14 15  2  0
 17 16  1  1
 17 19  1  0
 18 17  1  0
 18 11  1  0
 19 21  2  0
 19 20  1  0
M  END
$$$$
