ATN.pdb
     RDKit          3D

 21 20  0  0  1  0  0  0  0  0999 V2000
   16.1453  -13.0981  -16.4978 C   0  0  0  0  0  0  0  0  0  0  0  0
   17.6347  -13.3552  -16.7499 C   0  0  2  0  0  0  0  0  0  0  0  0
   17.9951  -14.6828  -16.3045 N   0  0  0  0  0  0  0  0  0  0  0  0
   18.3746  -12.3168  -15.9939 C   0  0  0  0  0  0  0  0  0  0  0  0
   18.1538  -12.2171  -14.7624 O   0  0  0  0  0  0  0  0  0  0  0  0
   21.7897  -10.5529  -17.6344 C   0  0  0  0  0  0  0  0  0  0  0  0
   21.5106  -10.6291  -16.1532 C   0  0  1  0  0  0  0  0  0  0  0  0
   22.2796   -9.6770  -15.4919 O   0  0  0  0  0  0  0  0  0  0  0  0
   20.0535  -10.4335  -15.8256 C   0  0  2  0  0  0  0  0  0  0  0  0
   19.3057  -11.4435  -16.5848 N   0  0  0  0  0  0  0  0  0  0  0  0
   19.5423   -9.0948  -16.1290 C   0  0  0  0  0  0  0  0  0  0  0  0
   19.1908   -8.8270  -17.3120 O   0  0  0  0  0  0  0  0  0  0  0  0
   16.4936   -4.7296  -16.3917 N   0  0  0  0  0  0  0  0  0  0  0  0
   17.1996   -5.0246  -15.1983 C   0  0  0  0  0  0  0  0  0  0  0  0
   17.4567   -4.1266  -14.3619 O   0  0  0  0  0  0  0  0  0  0  0  0
   17.6416   -6.4012  -14.9273 C   0  0  0  0  0  0  0  0  0  0  0  0
   18.9875   -6.7074  -15.5476 C   0  0  2  0  0  0  0  0  0  0  0  0
   19.4062   -8.0517  -15.1836 N   0  0  0  0  0  0  0  0  0  0  0  0
   20.0174   -5.7040  -15.2280 C   0  0  0  0  0  0  0  0  0  0  0  0
   20.0084   -4.4259  -15.7640 O   0  0  0  0  0  0  0  0  0  0  0  0
   20.9596   -5.9818  -14.4402 O   0  0  0  0  0  0  0  0  0  0  0  0
  2  1  1  1
  2  4  1  0
  3  2  1  0
  4  5  2  0
  7  6  1  6
  7  9  1  0
  8  7  1  0
  9 11  1  0
 10  4  1  0
  9 10  1  6
 11 12  2  0
 13 14  1  0
 14 16  1  0
 14 15  2  0
 17 16  1  1
 17 19  1  0
 18 17  1  0
 18 11  1  0
 19 21  2  0
 19 20  1  0
M  END
$$$$
