ATN.pdb
     RDKit          3D

 21 20  0  0  1  0  0  0  0  0999 V2000
   27.6580  -11.8257  -15.6261 C   0  0  0  0  0  0  0  0  0  0  0  0
   26.3656  -12.3003  -16.2987 C   0  0  2  0  0  0  0  0  0  0  0  0
   26.6637  -13.2833  -17.3163 N   0  0  0  0  0  0  0  0  0  0  0  0
   25.7305  -11.0965  -16.8858 C   0  0  0  0  0  0  0  0  0  0  0  0
   26.3757  -10.4535  -17.7492 O   0  0  0  0  0  0  0  0  0  0  0  0
   23.1231  -10.8544  -19.1814 C   0  0  0  0  0  0  0  0  0  0  0  0
   22.6508  -10.0604  -17.9880 C   0  0  1  0  0  0  0  0  0  0  0  0
   21.8447  -10.8663  -17.1906 O   0  0  0  0  0  0  0  0  0  0  0  0
   23.7888   -9.5026  -17.1740 C   0  0  2  0  0  0  0  0  0  0  0  0
   24.4488  -10.6424  -16.5253 N   0  0  0  0  0  0  0  0  0  0  0  0
   23.3842   -8.5163  -16.1695 C   0  0  0  0  0  0  0  0  0  0  0  0
   23.1322   -8.9063  -14.9951 O   0  0  0  0  0  0  0  0  0  0  0  0
   22.1958   -4.1780  -13.5993 N   0  0  0  0  0  0  0  0  0  0  0  0
   22.6853   -3.7647  -14.8639 C   0  0  0  0  0  0  0  0  0  0  0  0
   22.8417   -2.5495  -15.1296 O   0  0  0  0  0  0  0  0  0  0  0  0
   23.0178   -4.7684  -15.8867 C   0  0  0  0  0  0  0  0  0  0  0  0
   22.8464   -6.1847  -15.3820 C   0  0  2  0  0  0  0  0  0  0  0  0
   23.2492   -7.1294  -16.4117 N   0  0  0  0  0  0  0  0  0  0  0  0
   21.4904   -6.4632  -14.8787 C   0  0  0  0  0  0  0  0  0  0  0  0
   21.2051   -6.5901  -13.5283 O   0  0  0  0  0  0  0  0  0  0  0  0
   20.5260   -6.5977  -15.6770 O   0  0  0  0  0  0  0  0  0  0  0  0
  2  1  1  6
  2  4  1  0
  3  2  1  0
  4  5  2  0
  7  6  1  6
  7  9  1  0
  8  7  1  0
  9 11  1  0
 10  4  1  0
  9 10  1  1
 11 12  2  0
 13 14  1  0
 14 16  1  0
 14 15  2  0
 17 16  1  6
 17 19  1  0
 18 17  1  0
 18 11  1  0
 19 21  2  0
 19 20  1  0
M  END
$$$$
