ATN.pdb
     RDKit          3D

 21 20  0  0  1  0  0  0  0  0999 V2000
   15.9102  -10.9925  -14.9749 C   0  0  0  0  0  0  0  0  0  0  0  0
   17.1816  -11.2702  -15.7839 C   0  0  2  0  0  0  0  0  0  0  0  0
   17.3248  -12.6898  -16.0182 N   0  0  0  0  0  0  0  0  0  0  0  0
   18.3125  -10.7419  -14.9845 C   0  0  0  0  0  0  0  0  0  0  0  0
   18.5636  -11.2937  -13.8854 O   0  0  0  0  0  0  0  0  0  0  0  0
   21.9299  -10.2378  -16.1345 C   0  0  0  0  0  0  0  0  0  0  0  0
   21.3858   -8.9450  -15.5773 C   0  0  1  0  0  0  0  0  0  0  0  0
   20.9705   -8.1319  -16.6269 O   0  0  0  0  0  0  0  0  0  0  0  0
   20.2503   -9.1610  -14.6114 C   0  0  2  0  0  0  0  0  0  0  0  0
   19.1128   -9.6600  -15.3941 N   0  0  0  0  0  0  0  0  0  0  0  0
   19.8603   -7.9639  -13.8629 C   0  0  0  0  0  0  0  0  0  0  0  0
   18.9039   -7.2587  -14.2906 O   0  0  0  0  0  0  0  0  0  0  0  0
   19.0880   -4.2507  -10.4184 N   0  0  0  0  0  0  0  0  0  0  0  0
   19.1469   -5.5235   -9.7970 C   0  0  0  0  0  0  0  0  0  0  0  0
   18.7829   -5.6783   -8.6073 O   0  0  0  0  0  0  0  0  0  0  0  0
   19.6409   -6.6866  -10.5501 C   0  0  0  0  0  0  0  0  0  0  0  0
   20.0586   -6.3261  -11.9592 C   0  0  2  0  0  0  0  0  0  0  0  0
   20.4811   -7.5215  -12.6716 N   0  0  0  0  0  0  0  0  0  0  0  0
   21.0786   -5.2647  -12.0104 C   0  0  0  0  0  0  0  0  0  0  0  0
   22.3746   -5.4930  -12.4458 O   0  0  0  0  0  0  0  0  0  0  0  0
   20.7994   -4.0904  -11.6523 O   0  0  0  0  0  0  0  0  0  0  0  0
  2  1  1  1
  2  4  1  0
  3  2  1  0
  4  5  2  0
  7  6  1  6
  7  9  1  0
  8  7  1  0
  9 11  1  0
 10  4  1  0
  9 10  1  6
 11 12  2  0
 13 14  1  0
 14 16  1  0
 14 15  2  0
 17 16  1  1
 17 19  1  0
 18 17  1  0
 18 11  1  0
 19 21  2  0
 19 20  1  0
M  END
$$$$
