DSA.pdb
     RDKit          3D

 20 19  0  0  1  0  0  0  0  0999 V2000
   10.8248  -16.8444   20.1162 N   0  0  0  0  0  0  0  0  0  0  0  0
   11.5272  -17.0096   21.3696 C   0  0  1  0  0  0  0  0  0  0  0  0
   12.8380  -16.2516   21.2552 C   0  0  0  0  0  0  0  0  0  0  0  0
   13.8420  -16.9692   20.4311 C   0  0  0  0  0  0  0  0  0  0  0  0
   14.4766  -16.4425   19.4800 O   0  0  0  0  0  0  0  0  0  0  0  0
   10.7190  -16.4054   22.4412 C   0  0  0  0  0  0  0  0  0  0  0  0
   10.1985  -15.2819   22.2092 O   0  0  0  0  0  0  0  0  0  0  0  0
   14.1528  -18.3156   20.6689 O   0  0  0  0  0  0  0  0  0  0  0  0
    8.9978  -18.5012   25.6540 O   0  0  0  0  0  0  0  0  0  0  0  0
    8.4735  -17.3595   25.0748 C   0  0  0  0  0  0  0  0  0  0  0  0
    9.5571  -16.3896   24.6025 C   0  0  2  0  0  0  0  0  0  0  0  0
   10.4818  -16.9862   23.7079 N   0  0  0  0  0  0  0  0  0  0  0  0
   10.1643  -15.7968   25.8061 C   0  0  0  0  0  0  0  0  0  0  0  0
   11.3124  -16.2077   26.1290 O   0  0  0  0  0  0  0  0  0  0  0  0
    9.4768  -13.2293   28.4829 C   0  0  0  0  0  0  0  0  0  0  0  0
   10.1615  -14.4092   27.8327 C   0  0  2  0  0  0  0  0  0  0  0  0
    9.5464  -14.8097   26.6091 N   0  0  0  0  0  0  0  0  0  0  0  0
   10.0920  -15.5668   28.7887 C   0  0  0  0  0  0  0  0  0  0  0  0
   10.6561  -15.5166   29.9190 O   0  0  0  0  0  0  0  0  0  0  0  0
    9.4135  -16.7356   28.4832 O   0  0  0  0  0  0  0  0  0  0  0  0
  2  1  1  6
  3  2  1  0
  3  4  1  0
  4  5  2  0
  6  2  1  0
  6  7  2  0
  8  4  1  0
 10  9  1  0
 11 10  1  1
 11 12  1  0
 12  6  1  0
 13 11  1  0
 14 13  2  0
 16 15  1  1
 16 17  1  0
 16 18  1  0
 17 13  1  0
 18 20  1  0
 19 18  2  0
M  END
$$$$
