DSA.pdb
     RDKit          3D

 20 19  0  0  1  0  0  0  0  0999 V2000
   13.2527  -17.8537   16.6626 N   0  0  0  0  0  0  0  0  0  0  0  0
   13.3161  -18.4712   17.9688 C   0  0  1  0  0  0  0  0  0  0  0  0
   14.7481  -18.3450   18.4581 C   0  0  0  0  0  0  0  0  0  0  0  0
   15.6727  -19.2740   17.7623 C   0  0  0  0  0  0  0  0  0  0  0  0
   15.4774  -20.5132   17.6584 O   0  0  0  0  0  0  0  0  0  0  0  0
   12.4333  -17.7263   18.8810 C   0  0  0  0  0  0  0  0  0  0  0  0
   12.7560  -16.5406   19.1581 O   0  0  0  0  0  0  0  0  0  0  0  0
   16.8533  -18.8140   17.1617 O   0  0  0  0  0  0  0  0  0  0  0  0
    8.8016  -19.1414   20.6728 O   0  0  0  0  0  0  0  0  0  0  0  0
    8.9676  -17.8272   20.2740 C   0  0  0  0  0  0  0  0  0  0  0  0
   10.4347  -17.3964   20.2661 C   0  0  2  0  0  0  0  0  0  0  0  0
   11.2536  -18.2367   19.4694 N   0  0  0  0  0  0  0  0  0  0  0  0
   10.8606  -17.2791   21.6709 C   0  0  0  0  0  0  0  0  0  0  0  0
   11.6904  -18.1317   22.0901 O   0  0  0  0  0  0  0  0  0  0  0  0
   10.3923  -15.0643   24.6923 C   0  0  0  0  0  0  0  0  0  0  0  0
   10.9296  -16.2258   23.8887 C   0  0  2  0  0  0  0  0  0  0  0  0
   10.4018  -16.2828   22.5642 N   0  0  0  0  0  0  0  0  0  0  0  0
   10.5447  -17.4940   24.5976 C   0  0  0  0  0  0  0  0  0  0  0  0
    9.5332  -18.1625   24.2395 O   0  0  0  0  0  0  0  0  0  0  0  0
   11.2711  -17.9897   25.6683 O   0  0  0  0  0  0  0  0  0  0  0  0
  2  1  1  6
  3  2  1  0
  3  4  1  0
  4  5  2  0
  6  2  1  0
  6  7  2  0
  8  4  1  0
 10  9  1  0
 11 10  1  1
 11 12  1  0
 12  6  1  0
 13 11  1  0
 14 13  2  0
 16 15  1  1
 16 17  1  0
 16 18  1  0
 17 13  1  0
 18 20  1  0
 19 18  2  0
M  END
$$$$
