DSA.pdb
     RDKit          3D

 20 19  0  0  1  0  0  0  0  0999 V2000
   -3.3837  -24.9525   29.3812 N   0  0  0  0  0  0  0  0  0  0  0  0
   -3.9731  -26.2647   29.2322 C   0  0  1  0  0  0  0  0  0  0  0  0
   -2.8964  -27.2829   29.5639 C   0  0  0  0  0  0  0  0  0  0  0  0
   -1.7563  -27.2373   28.6151 C   0  0  0  0  0  0  0  0  0  0  0  0
   -1.8848  -27.2010   27.3633 O   0  0  0  0  0  0  0  0  0  0  0  0
   -5.0702  -26.3972   30.2044 C   0  0  0  0  0  0  0  0  0  0  0  0
   -5.6901  -27.4935   30.2307 O   0  0  0  0  0  0  0  0  0  0  0  0
   -0.4297  -27.2319   29.0688 O   0  0  0  0  0  0  0  0  0  0  0  0
   -5.1621  -25.8480   33.9916 O   0  0  0  0  0  0  0  0  0  0  0  0
   -6.2397  -25.1802   33.4378 C   0  0  0  0  0  0  0  0  0  0  0  0
   -6.5467  -25.6404   32.0124 C   0  0  2  0  0  0  0  0  0  0  0  0
   -5.4817  -25.3923   31.1094 N   0  0  0  0  0  0  0  0  0  0  0  0
   -7.8313  -25.0324   31.6268 C   0  0  0  0  0  0  0  0  0  0  0  0
   -7.7848  -23.8986   31.0756 O   0  0  0  0  0  0  0  0  0  0  0  0
  -11.4865  -25.9038   31.3664 C   0  0  0  0  0  0  0  0  0  0  0  0
  -10.2667  -25.0137   31.3083 C   0  0  2  0  0  0  0  0  0  0  0  0
   -9.0944  -25.6344   31.8343 N   0  0  0  0  0  0  0  0  0  0  0  0
  -10.5514  -23.7872   32.1289 C   0  0  0  0  0  0  0  0  0  0  0  0
  -11.4627  -22.9758   31.7982 O   0  0  0  0  0  0  0  0  0  0  0  0
   -9.8371  -23.4864   33.2774 O   0  0  0  0  0  0  0  0  0  0  0  0
  2  1  1  1
  3  2  1  0
  3  4  1  0
  4  5  2  0
  6  2  1  0
  6  7  2  0
  8  4  1  0
 10  9  1  0
 11 10  1  1
 11 12  1  0
 12  6  1  0
 13 11  1  0
 14 13  2  0
 16 15  1  1
 16 17  1  0
 16 18  1  0
 17 13  1  0
 18 20  1  0
 19 18  2  0
M  END
$$$$
