DSA.pdb
     RDKit          3D

 20 19  0  0  1  0  0  0  0  0999 V2000
   11.4584  -17.2688   16.5336 N   0  0  0  0  0  0  0  0  0  0  0  0
   10.9295  -17.8131   17.7646 C   0  0  1  0  0  0  0  0  0  0  0  0
   11.3444  -19.2725   17.8273 C   0  0  0  0  0  0  0  0  0  0  0  0
   10.7295  -20.0872   16.7501 C   0  0  0  0  0  0  0  0  0  0  0  0
   11.3864  -20.7937   15.9413 O   0  0  0  0  0  0  0  0  0  0  0  0
   11.5414  -17.0947   18.8941 C   0  0  0  0  0  0  0  0  0  0  0  0
   12.6909  -16.6107   18.7169 O   0  0  0  0  0  0  0  0  0  0  0  0
    9.3403  -20.1197   16.5629 O   0  0  0  0  0  0  0  0  0  0  0  0
    9.7819  -16.2986   22.7527 O   0  0  0  0  0  0  0  0  0  0  0  0
   10.5818  -15.4003   22.0694 C   0  0  0  0  0  0  0  0  0  0  0  0
   11.5740  -16.0911   21.1332 C   0  0  2  0  0  0  0  0  0  0  0  0
   10.9410  -16.9055   20.1598 N   0  0  0  0  0  0  0  0  0  0  0  0
   12.5517  -16.7955   21.9796 C   0  0  0  0  0  0  0  0  0  0  0  0
   12.2936  -17.9944   22.2751 O   0  0  0  0  0  0  0  0  0  0  0  0
   15.6832  -17.7185   22.4608 C   0  0  0  0  0  0  0  0  0  0  0  0
   14.6302  -16.9999   23.2723 C   0  0  2  0  0  0  0  0  0  0  0  0
   13.7444  -16.2169   22.4733 N   0  0  0  0  0  0  0  0  0  0  0  0
   15.3341  -16.0769   24.2269 C   0  0  0  0  0  0  0  0  0  0  0  0
   15.2051  -14.8224   24.1390 O   0  0  0  0  0  0  0  0  0  0  0  0
   16.1517  -16.5488   25.2411 O   0  0  0  0  0  0  0  0  0  0  0  0
  2  1  1  6
  3  2  1  0
  3  4  1  0
  4  5  2  0
  6  2  1  0
  6  7  2  0
  8  4  1  0
 10  9  1  0
 11 10  1  1
 11 12  1  0
 12  6  1  0
 13 11  1  0
 14 13  2  0
 16 15  1  6
 16 17  1  0
 16 18  1  0
 17 13  1  0
 18 20  1  0
 19 18  2  0
M  END
$$$$
