DSA.pdb
     RDKit          3D

 20 19  0  0  1  0  0  0  0  0999 V2000
   11.0575  -17.0251   20.3673 N   0  0  0  0  0  0  0  0  0  0  0  0
   11.5042  -17.4581   21.6729 C   0  0  1  0  0  0  0  0  0  0  0  0
   12.9709  -17.0841   21.7946 C   0  0  0  0  0  0  0  0  0  0  0  0
   13.8721  -18.1166   21.2255 C   0  0  0  0  0  0  0  0  0  0  0  0
   13.6860  -19.3558   21.3463 O   0  0  0  0  0  0  0  0  0  0  0  0
   10.7391  -16.7260   22.6951 C   0  0  0  0  0  0  0  0  0  0  0  0
   10.5221  -15.5024   22.4886 O   0  0  0  0  0  0  0  0  0  0  0  0
   15.0180  -17.7639   20.4985 O   0  0  0  0  0  0  0  0  0  0  0  0
    8.3915  -18.4800   25.7023 O   0  0  0  0  0  0  0  0  0  0  0  0
    8.1510  -17.2146   25.1976 C   0  0  0  0  0  0  0  0  0  0  0  0
    9.4318  -16.5034   24.7598 C   0  0  2  0  0  0  0  0  0  0  0  0
   10.2297  -17.2875   23.8881 N   0  0  0  0  0  0  0  0  0  0  0  0
   10.1193  -16.0548   25.9824 C   0  0  0  0  0  0  0  0  0  0  0  0
   11.1737  -16.6683   26.3036 O   0  0  0  0  0  0  0  0  0  0  0  0
    9.9171  -13.3863   28.6415 C   0  0  0  0  0  0  0  0  0  0  0  0
   10.4244  -14.6396   27.9666 C   0  0  2  0  0  0  0  0  0  0  0  0
    9.6746  -14.9935   26.8053 N   0  0  0  0  0  0  0  0  0  0  0  0
   10.3167  -15.7695   28.9518 C   0  0  0  0  0  0  0  0  0  0  0  0
    9.4482  -16.6776   28.8133 O   0  0  0  0  0  0  0  0  0  0  0  0
   11.1549  -15.8722   30.0503 O   0  0  0  0  0  0  0  0  0  0  0  0
  2  1  1  6
  3  2  1  0
  3  4  1  0
  4  5  2  0
  6  2  1  0
  6  7  2  0
  8  4  1  0
 10  9  1  0
 11 10  1  1
 11 12  1  0
 12  6  1  0
 13 11  1  0
 14 13  2  0
 16 15  1  1
 16 17  1  0
 16 18  1  0
 17 13  1  0
 18 20  1  0
 19 18  2  0
M  END
$$$$
