DSA.pdb
     RDKit          3D

 20 19  0  0  1  0  0  0  0  0999 V2000
   10.4950  -16.4695   20.4648 N   0  0  0  0  0  0  0  0  0  0  0  0
    9.7289  -17.1206   21.5044 C   0  0  1  0  0  0  0  0  0  0  0  0
   10.4881  -18.3726   21.9070 C   0  0  0  0  0  0  0  0  0  0  0  0
   10.5328  -19.3858   20.8237 C   0  0  0  0  0  0  0  0  0  0  0  0
    9.5275  -19.7477   20.1579 O   0  0  0  0  0  0  0  0  0  0  0  0
    9.6514  -16.2167   22.6634 C   0  0  0  0  0  0  0  0  0  0  0  0
   10.6081  -15.4157   22.8368 O   0  0  0  0  0  0  0  0  0  0  0  0
   11.7317  -20.0192   20.4665 O   0  0  0  0  0  0  0  0  0  0  0  0
    6.5410  -16.0566   25.6121 O   0  0  0  0  0  0  0  0  0  0  0  0
    7.1552  -14.9110   25.1385 C   0  0  0  0  0  0  0  0  0  0  0  0
    8.5617  -15.1777   24.6011 C   0  0  2  0  0  0  0  0  0  0  0  0
    8.5892  -16.1772   23.5953 N   0  0  0  0  0  0  0  0  0  0  0  0
    9.4254  -15.4524   25.7618 C   0  0  0  0  0  0  0  0  0  0  0  0
    9.8583  -16.6307   25.8865 O   0  0  0  0  0  0  0  0  0  0  0  0
   10.9509  -13.7219   28.7510 C   0  0  0  0  0  0  0  0  0  0  0  0
   10.6189  -14.8719   27.8285 C   0  0  2  0  0  0  0  0  0  0  0  0
    9.7927  -14.4887   26.7300 N   0  0  0  0  0  0  0  0  0  0  0  0
    9.8781  -15.9060   28.6290 C   0  0  0  0  0  0  0  0  0  0  0  0
    8.6225  -16.0245   28.5421 O   0  0  0  0  0  0  0  0  0  0  0  0
   10.5267  -16.7727   29.4938 O   0  0  0  0  0  0  0  0  0  0  0  0
  2  1  1  6
  3  2  1  0
  3  4  1  0
  4  5  2  0
  6  2  1  0
  6  7  2  0
  8  4  1  0
 10  9  1  0
 11 10  1  1
 11 12  1  0
 12  6  1  0
 13 11  1  0
 14 13  2  0
 16 15  1  1
 16 17  1  0
 16 18  1  0
 17 13  1  0
 18 20  1  0
 19 18  2  0
M  END
$$$$
