DSA.pdb
     RDKit          3D

 20 19  0  0  1  0  0  0  0  0999 V2000
   11.1560  -17.1942   20.3611 N   0  0  0  0  0  0  0  0  0  0  0  0
   11.8864  -17.2058   21.6093 C   0  0  1  0  0  0  0  0  0  0  0  0
   13.0655  -16.2621   21.4506 C   0  0  0  0  0  0  0  0  0  0  0  0
   14.1072  -16.7987   20.5401 C   0  0  0  0  0  0  0  0  0  0  0  0
   14.6180  -17.9436   20.6538 O   0  0  0  0  0  0  0  0  0  0  0  0
   11.0053  -16.6934   22.6711 C   0  0  0  0  0  0  0  0  0  0  0  0
   10.4348  -15.5890   22.4661 O   0  0  0  0  0  0  0  0  0  0  0  0
   14.5994  -16.0409   19.4679 O   0  0  0  0  0  0  0  0  0  0  0  0
    9.4861  -18.9508   25.8762 O   0  0  0  0  0  0  0  0  0  0  0  0
    8.8382  -17.8415   25.3629 C   0  0  0  0  0  0  0  0  0  0  0  0
    9.8089  -16.7970   24.8111 C   0  0  2  0  0  0  0  0  0  0  0  0
   10.7495  -17.3425   23.9005 N   0  0  0  0  0  0  0  0  0  0  0  0
   10.4048  -16.1046   25.9661 C   0  0  0  0  0  0  0  0  0  0  0  0
   11.5776  -16.4378   26.2901 O   0  0  0  0  0  0  0  0  0  0  0  0
    9.7129  -13.3039   28.3872 C   0  0  0  0  0  0  0  0  0  0  0  0
   10.4012  -14.5420   27.8612 C   0  0  2  0  0  0  0  0  0  0  0  0
    9.7507  -15.1038   26.7222 N   0  0  0  0  0  0  0  0  0  0  0  0
   10.3956  -15.5726   28.9551 C   0  0  0  0  0  0  0  0  0  0  0  0
    9.6527  -16.5933   28.8886 O   0  0  0  0  0  0  0  0  0  0  0  0
   11.1959  -15.4576   30.0804 O   0  0  0  0  0  0  0  0  0  0  0  0
  2  1  1  6
  3  2  1  0
  3  4  1  0
  4  5  2  0
  6  2  1  0
  6  7  2  0
  8  4  1  0
 10  9  1  0
 11 10  1  1
 11 12  1  0
 12  6  1  0
 13 11  1  0
 14 13  2  0
 16 15  1  1
 16 17  1  0
 16 18  1  0
 17 13  1  0
 18 20  1  0
 19 18  2  0
M  END
$$$$
