EYV.pdb
     RDKit          3D

 29 29  0  0  1  0  0  0  0  0999 V2000
   21.6929  -10.9657  -20.8468 N   0  0  0  0  0  0  0  0  0  0  0  0
   22.3779   -9.8951  -20.1393 C   0  0  1  0  0  0  0  0  0  0  0  0
   22.4082   -8.7057  -21.0617 C   0  0  0  0  0  0  0  0  0  0  0  0
   23.4366   -8.7796  -22.1418 C   0  0  0  0  0  0  0  0  0  0  0  0
   24.8202   -8.7990  -21.6495 C   0  0  0  0  0  0  0  0  0  0  0  0
   25.5821   -9.7981  -21.6322 O   0  0  0  0  0  0  0  0  0  0  0  0
   21.6691   -9.5408  -18.8916 C   0  0  0  0  0  0  0  0  0  0  0  0
   20.4338   -9.5714  -18.8268 O   0  0  0  0  0  0  0  0  0  0  0  0
   25.3565   -7.6153  -21.1527 O   0  0  0  0  0  0  0  0  0  0  0  0
   19.1813  -14.7870  -16.8352 O   0  0  0  0  0  0  0  0  0  0  0  0
   19.8167  -13.5966  -16.4925 C   0  0  0  0  0  0  0  0  0  0  0  0
   21.1839  -13.4476  -16.6813 C   0  0  0  0  0  0  0  0  0  0  0  0
   21.8492  -12.2798  -16.3527 C   0  0  0  0  0  0  0  0  0  0  0  0
   21.1711  -11.2127  -15.8210 C   0  0  0  0  0  0  0  0  0  0  0  0
   21.8369   -9.9584  -15.4599 C   0  0  0  0  0  0  0  0  0  0  0  0
   21.7141   -8.8692  -16.4709 C   0  0  2  0  0  0  0  0  0  0  0  0
   22.3771   -9.1475  -17.7052 N   0  0  0  0  0  0  0  0  0  0  0  0
   22.2605   -7.6179  -15.8303 C   0  0  0  0  0  0  0  0  0  0  0  0
   23.4960   -7.3886  -15.8138 O   0  0  0  0  0  0  0  0  0  0  0  0
   19.8021  -11.3419  -15.6242 C   0  0  0  0  0  0  0  0  0  0  0  0
   19.1402  -12.5210  -15.9578 C   0  0  0  0  0  0  0  0  0  0  0  0
   19.6383   -4.4645  -14.7162 C   0  0  0  0  0  0  0  0  0  0  0  0
   21.0840   -4.2271  -15.0945 C   0  0  1  0  0  0  0  0  0  0  0  0
   21.5965   -3.0188  -14.3402 C   0  0  0  0  0  0  0  0  0  0  0  0
   21.8767   -5.4182  -14.6364 C   0  0  2  0  0  0  0  0  0  0  0  0
   21.4059   -6.6561  -15.2248 N   0  0  0  0  0  0  0  0  0  0  0  0
   21.9642   -5.5294  -13.1672 C   0  0  0  0  0  0  0  0  0  0  0  0
   21.2500   -6.4113  -12.5884 O   0  0  0  0  0  0  0  0  0  0  0  0
   22.7573   -4.7550  -12.3700 O   0  0  0  0  0  0  0  0  0  0  0  0
  2  7  1  0
  2  1  1  6
  3  2  1  0
  4  3  1  0
  4  5  1  0
  5  6  2  0
  7  8  2  0
  9  5  1  0
 10 11  1  0
 11 21  2  0
 11 12  1  0
 12 13  2  0
 13 14  1  0
 14 15  1  0
 16 15  1  1
 17 16  1  0
 17  7  1  0
 18 19  2  0
 18 16  1  0
 20 14  2  0
 21 20  1  0
 23 22  1  1
 23 25  1  0
 24 23  1  0
 25 27  1  0
 25 26  1  1
 26 18  1  0
 27 29  1  0
 28 27  2  0
M  END
$$$$
