EYV.pdb
     RDKit          3D

 29 29  0  0  1  0  0  0  0  0999 V2000
   28.7254  -23.9472  -17.4766 N   0  0  0  0  0  0  0  0  0  0  0  0
   28.2642  -22.5859  -17.2528 C   0  0  1  0  0  0  0  0  0  0  0  0
   27.5641  -22.1451  -18.5105 C   0  0  0  0  0  0  0  0  0  0  0  0
   28.4736  -21.8129  -19.6473 C   0  0  0  0  0  0  0  0  0  0  0  0
   29.0772  -22.9861  -20.2924 C   0  0  0  0  0  0  0  0  0  0  0  0
   28.4567  -23.9889  -20.7265 O   0  0  0  0  0  0  0  0  0  0  0  0
   27.3275  -22.5206  -16.1113 C   0  0  0  0  0  0  0  0  0  0  0  0
   26.5499  -23.4517  -15.8678 O   0  0  0  0  0  0  0  0  0  0  0  0
   30.4595  -23.0111  -20.4475 O   0  0  0  0  0  0  0  0  0  0  0  0
   23.6683  -20.4751   -8.3315 O   0  0  0  0  0  0  0  0  0  0  0  0
   24.4505  -20.4554   -9.4832 C   0  0  0  0  0  0  0  0  0  0  0  0
   25.4423  -21.4069   -9.6781 C   0  0  0  0  0  0  0  0  0  0  0  0
   26.2387  -21.4186  -10.8095 C   0  0  0  0  0  0  0  0  0  0  0  0
   26.0736  -20.4764  -11.7926 C   0  0  0  0  0  0  0  0  0  0  0  0
   26.8947  -20.4534  -13.0059 C   0  0  0  0  0  0  0  0  0  0  0  0
   26.3917  -21.3072  -14.1202 C   0  0  2  0  0  0  0  0  0  0  0  0
   27.2774  -21.3808  -15.2385 N   0  0  0  0  0  0  0  0  0  0  0  0
   25.0506  -20.7482  -14.5247 C   0  0  0  0  0  0  0  0  0  0  0  0
   24.9654  -19.6487  -15.1274 O   0  0  0  0  0  0  0  0  0  0  0  0
   25.0861  -19.5154  -11.6163 C   0  0  0  0  0  0  0  0  0  0  0  0
   24.2889  -19.5109  -10.4743 C   0  0  0  0  0  0  0  0  0  0  0  0
   22.7757  -21.8110  -16.8217 C   0  0  0  0  0  0  0  0  0  0  0  0
   21.8405  -21.7305  -15.6350 C   0  0  1  0  0  0  0  0  0  0  0  0
   21.6246  -23.1242  -15.0850 C   0  0  0  0  0  0  0  0  0  0  0  0
   22.5249  -20.9227  -14.5692 C   0  0  2  0  0  0  0  0  0  0  0  0
   23.8395  -21.4378  -14.2425 N   0  0  0  0  0  0  0  0  0  0  0  0
   21.7061  -20.7503  -13.3533 C   0  0  0  0  0  0  0  0  0  0  0  0
   22.0772  -21.3460  -12.2902 O   0  0  0  0  0  0  0  0  0  0  0  0
   20.5707  -19.9958  -13.2753 O   0  0  0  0  0  0  0  0  0  0  0  0
  2  7  1  0
  2  1  1  6
  3  2  1  0
  4  3  1  0
  4  5  1  0
  5  6  2  0
  7  8  2  0
  9  5  1  0
 10 11  1  0
 11 21  2  0
 11 12  1  0
 12 13  2  0
 13 14  1  0
 14 15  1  0
 16 15  1  1
 17 16  1  0
 17  7  1  0
 18 19  2  0
 18 16  1  0
 20 14  2  0
 21 20  1  0
 23 22  1  6
 23 25  1  0
 24 23  1  0
 25 27  1  0
 25 26  1  1
 26 18  1  0
 27 29  1  0
 28 27  2  0
M  END
$$$$
