EYV.pdb
     RDKit          3D

 29 29  0  0  1  0  0  0  0  0999 V2000
   28.5048  -20.4523  -18.9149 N   0  0  0  0  0  0  0  0  0  0  0  0
   27.8858  -19.4132  -18.1068 C   0  0  1  0  0  0  0  0  0  0  0  0
   26.8604  -18.7326  -18.9737 C   0  0  0  0  0  0  0  0  0  0  0  0
   27.4227  -17.9987  -20.1464 C   0  0  0  0  0  0  0  0  0  0  0  0
   26.4971  -17.8865  -21.2811 C   0  0  0  0  0  0  0  0  0  0  0  0
   26.4884  -18.6217  -22.3002 O   0  0  0  0  0  0  0  0  0  0  0  0
   27.2289  -19.9858  -16.9129 C   0  0  0  0  0  0  0  0  0  0  0  0
   26.4988  -20.9809  -16.9999 O   0  0  0  0  0  0  0  0  0  0  0  0
   25.5346  -16.8826  -21.2461 O   0  0  0  0  0  0  0  0  0  0  0  0
   24.9579  -21.5113   -8.4479 O   0  0  0  0  0  0  0  0  0  0  0  0
   25.5640  -21.0209   -9.6014 C   0  0  0  0  0  0  0  0  0  0  0  0
   26.3983  -21.8318  -10.3587 C   0  0  0  0  0  0  0  0  0  0  0  0
   27.0175  -21.3791  -11.5102 C   0  0  0  0  0  0  0  0  0  0  0  0
   26.8259  -20.0942  -11.9503 C   0  0  0  0  0  0  0  0  0  0  0  0
   27.4618  -19.5754  -13.1640 C   0  0  0  0  0  0  0  0  0  0  0  0
   26.7933  -19.9658  -14.4385 C   0  0  2  0  0  0  0  0  0  0  0  0
   27.4068  -19.4169  -15.6059 N   0  0  0  0  0  0  0  0  0  0  0  0
   25.3537  -19.5307  -14.3252 C   0  0  0  0  0  0  0  0  0  0  0  0
   25.0460  -18.3122  -14.3301 O   0  0  0  0  0  0  0  0  0  0  0  0
   25.9944  -19.2667  -11.2063 C   0  0  0  0  0  0  0  0  0  0  0  0
   25.3749  -19.7305  -10.0483 C   0  0  0  0  0  0  0  0  0  0  0  0
   22.5376  -19.7315  -16.2966 C   0  0  0  0  0  0  0  0  0  0  0  0
   21.9973  -20.4250  -15.0652 C   0  0  1  0  0  0  0  0  0  0  0  0
   22.0349  -21.9217  -15.2888 C   0  0  0  0  0  0  0  0  0  0  0  0
   22.9225  -20.1131  -13.9234 C   0  0  2  0  0  0  0  0  0  0  0  0
   24.2964  -20.4745  -14.2094 N   0  0  0  0  0  0  0  0  0  0  0  0
   22.4787  -20.6910  -12.6398 C   0  0  0  0  0  0  0  0  0  0  0  0
   23.1083  -21.7015  -12.1868 O   0  0  0  0  0  0  0  0  0  0  0  0
   21.4367  -20.2247  -11.8907 O   0  0  0  0  0  0  0  0  0  0  0  0
  2  7  1  0
  2  1  1  6
  3  2  1  0
  4  3  1  0
  4  5  1  0
  5  6  2  0
  7  8  2  0
  9  5  1  0
 10 11  1  0
 11 21  2  0
 11 12  1  0
 12 13  2  0
 13 14  1  0
 14 15  1  0
 16 15  1  1
 17 16  1  0
 17  7  1  0
 18 19  2  0
 18 16  1  0
 20 14  2  0
 21 20  1  0
 23 22  1  6
 23 25  1  0
 24 23  1  0
 25 27  1  0
 25 26  1  6
 26 18  1  0
 27 29  1  0
 28 27  2  0
M  END
$$$$
