EYV.pdb
     RDKit          3D

 29 29  0  0  1  0  0  0  0  0999 V2000
   28.3134  -21.5048  -15.0615 N   0  0  0  0  0  0  0  0  0  0  0  0
   27.2902  -20.5094  -14.7818 C   0  0  1  0  0  0  0  0  0  0  0  0
   26.7684  -20.0283  -16.1095 C   0  0  0  0  0  0  0  0  0  0  0  0
   27.7217  -19.1791  -16.8840 C   0  0  0  0  0  0  0  0  0  0  0  0
   28.0806  -17.9215  -16.2159 C   0  0  0  0  0  0  0  0  0  0  0  0
   27.2770  -17.0321  -15.8388 O   0  0  0  0  0  0  0  0  0  0  0  0
   26.1838  -21.0888  -13.9913 C   0  0  0  0  0  0  0  0  0  0  0  0
   25.7396  -22.2159  -14.2430 O   0  0  0  0  0  0  0  0  0  0  0  0
   29.4265  -17.6710  -15.9679 O   0  0  0  0  0  0  0  0  0  0  0  0
   29.6200  -21.1193   -8.0292 O   0  0  0  0  0  0  0  0  0  0  0  0
   28.3891  -20.9550   -8.6587 C   0  0  0  0  0  0  0  0  0  0  0  0
   28.1374  -21.5586   -9.8832 C   0  0  0  0  0  0  0  0  0  0  0  0
   26.9268  -21.4177  -10.5381 C   0  0  0  0  0  0  0  0  0  0  0  0
   25.9180  -20.6655   -9.9922 C   0  0  0  0  0  0  0  0  0  0  0  0
   24.6214  -20.4912  -10.6520 C   0  0  0  0  0  0  0  0  0  0  0  0
   24.5715  -20.9527  -12.0691 C   0  0  2  0  0  0  0  0  0  0  0  0
   25.5779  -20.3747  -12.9020 N   0  0  0  0  0  0  0  0  0  0  0  0
   23.1903  -20.6311  -12.5826 C   0  0  0  0  0  0  0  0  0  0  0  0
   22.8306  -19.4406  -12.7636 O   0  0  0  0  0  0  0  0  0  0  0  0
   26.1501  -20.0532   -8.7671 C   0  0  0  0  0  0  0  0  0  0  0  0
   27.3718  -20.2002   -8.1147 C   0  0  0  0  0  0  0  0  0  0  0  0
   21.7632  -22.0665  -15.6265 C   0  0  0  0  0  0  0  0  0  0  0  0
   20.6415  -22.2646  -14.6306 C   0  0  1  0  0  0  0  0  0  0  0  0
   20.6464  -23.7054  -14.1663 C   0  0  0  0  0  0  0  0  0  0  0  0
   20.9344  -21.4016  -13.4363 C   0  0  2  0  0  0  0  0  0  0  0  0
   22.2484  -21.6542  -12.8797 N   0  0  0  0  0  0  0  0  0  0  0  0
   19.8933  -21.4784  -12.3929 C   0  0  0  0  0  0  0  0  0  0  0  0
   18.7353  -21.0230  -12.6657 O   0  0  0  0  0  0  0  0  0  0  0  0
   20.0732  -22.0038  -11.1455 O   0  0  0  0  0  0  0  0  0  0  0  0
  2  7  1  0
  2  1  1  6
  3  2  1  0
  4  3  1  0
  4  5  1  0
  5  6  2  0
  7  8  2  0
  9  5  1  0
 10 11  1  0
 11 21  2  0
 11 12  1  0
 12 13  2  0
 13 14  1  0
 14 15  1  0
 16 15  1  1
 17 16  1  0
 17  7  1  0
 18 19  2  0
 18 16  1  0
 20 14  2  0
 21 20  1  0
 23 22  1  6
 23 25  1  0
 24 23  1  0
 25 27  1  0
 25 26  1  1
 26 18  1  0
 27 29  1  0
 28 27  2  0
M  END
$$$$
