EYV.pdb
     RDKit          3D

 29 29  0  0  1  0  0  0  0  0999 V2000
   23.7418  -17.0591  -19.0301 N   0  0  0  0  0  0  0  0  0  0  0  0
   24.3953  -18.0839  -18.2308 C   0  0  1  0  0  0  0  0  0  0  0  0
   25.8346  -17.6708  -18.0754 C   0  0  0  0  0  0  0  0  0  0  0  0
   26.7308  -18.0998  -19.1901 C   0  0  0  0  0  0  0  0  0  0  0  0
   26.8253  -17.1294  -20.2884 C   0  0  0  0  0  0  0  0  0  0  0  0
   26.4747  -17.3275  -21.4787 O   0  0  0  0  0  0  0  0  0  0  0  0
   23.7646  -18.2054  -16.8996 C   0  0  0  0  0  0  0  0  0  0  0  0
   23.6576  -17.2263  -16.1506 O   0  0  0  0  0  0  0  0  0  0  0  0
   27.3472  -15.8705  -20.0086 O   0  0  0  0  0  0  0  0  0  0  0  0
   18.9922  -21.0438  -10.0168 O   0  0  0  0  0  0  0  0  0  0  0  0
   19.5637  -20.8570  -11.2725 C   0  0  0  0  0  0  0  0  0  0  0  0
   19.5601  -19.6036  -11.8692 C   0  0  0  0  0  0  0  0  0  0  0  0
   20.1183  -19.3802  -13.1153 C   0  0  0  0  0  0  0  0  0  0  0  0
   20.7034  -20.4047  -13.8150 C   0  0  0  0  0  0  0  0  0  0  0  0
   21.3062  -20.2111  -15.1364 C   0  0  0  0  0  0  0  0  0  0  0  0
   22.6668  -19.6010  -15.1220 C   0  0  2  0  0  0  0  0  0  0  0  0
   23.2507  -19.4573  -16.4178 N   0  0  0  0  0  0  0  0  0  0  0  0
   23.5227  -20.4684  -14.2333 C   0  0  0  0  0  0  0  0  0  0  0  0
   23.7536  -21.6673  -14.5313 O   0  0  0  0  0  0  0  0  0  0  0  0
   20.7172  -21.6668  -13.2350 C   0  0  0  0  0  0  0  0  0  0  0  0
   20.1530  -21.8829  -11.9801 C   0  0  0  0  0  0  0  0  0  0  0  0
   25.7479  -18.8672  -10.8932 C   0  0  0  0  0  0  0  0  0  0  0  0
   26.1250  -20.1166  -11.6589 C   0  0  1  0  0  0  0  0  0  0  0  0
   26.8378  -21.0693  -10.7231 C   0  0  0  0  0  0  0  0  0  0  0  0
   24.8527  -20.7816  -12.1014 C   0  0  2  0  0  0  0  0  0  0  0  0
   24.0975  -19.9677  -13.0328 N   0  0  0  0  0  0  0  0  0  0  0  0
   24.0054  -21.2244  -10.9769 C   0  0  0  0  0  0  0  0  0  0  0  0
   22.9720  -20.5345  -10.6960 O   0  0  0  0  0  0  0  0  0  0  0  0
   24.2426  -22.3255  -10.2051 O   0  0  0  0  0  0  0  0  0  0  0  0
  2  7  1  0
  2  1  1  6
  3  2  1  0
  4  3  1  0
  4  5  1  0
  5  6  2  0
  7  8  2  0
  9  5  1  0
 10 11  1  0
 11 21  2  0
 11 12  1  0
 12 13  2  0
 13 14  1  0
 14 15  1  0
 16 15  1  6
 17 16  1  0
 17  7  1  0
 18 19  2  0
 18 16  1  0
 20 14  2  0
 21 20  1  0
 23 22  1  1
 23 25  1  0
 24 23  1  0
 25 27  1  0
 25 26  1  6
 26 18  1  0
 27 29  1  0
 28 27  2  0
M  END
$$$$
