EYV.pdb
     RDKit          3D

 29 29  0  0  1  0  0  0  0  0999 V2000
   37.5814   -3.2417  -11.0890 N   0  0  0  0  0  0  0  0  0  0  0  0
   37.4234   -4.6803  -11.2363 C   0  0  1  0  0  0  0  0  0  0  0  0
   37.8152   -5.0246  -12.6485 C   0  0  0  0  0  0  0  0  0  0  0  0
   36.8779   -4.5217  -13.6965 C   0  0  0  0  0  0  0  0  0  0  0  0
   37.1903   -4.9905  -15.0527 C   0  0  0  0  0  0  0  0  0  0  0  0
   37.0983   -6.1749  -15.4623 O   0  0  0  0  0  0  0  0  0  0  0  0
   38.2874   -5.4121  -10.2863 C   0  0  0  0  0  0  0  0  0  0  0  0
   39.4056   -4.9822   -9.9767 O   0  0  0  0  0  0  0  0  0  0  0  0
   37.6299   -4.0560  -15.9850 O   0  0  0  0  0  0  0  0  0  0  0  0
   37.5946   -2.6986   -4.2651 O   0  0  0  0  0  0  0  0  0  0  0  0
   37.6570   -3.8616   -5.0279 C   0  0  0  0  0  0  0  0  0  0  0  0
   38.8785   -4.4648   -5.2949 C   0  0  0  0  0  0  0  0  0  0  0  0
   38.9793   -5.6206   -6.0488 C   0  0  0  0  0  0  0  0  0  0  0  0
   37.8592   -6.2196   -6.5665 C   0  0  0  0  0  0  0  0  0  0  0  0
   37.9216   -7.4438   -7.3691 C   0  0  0  0  0  0  0  0  0  0  0  0
   38.6356   -7.3048   -8.6709 C   0  0  2  0  0  0  0  0  0  0  0  0
   37.8713   -6.6477   -9.6831 N   0  0  0  0  0  0  0  0  0  0  0  0
   39.0273   -8.6958   -9.1025 C   0  0  0  0  0  0  0  0  0  0  0  0
   38.1533   -9.5544   -9.3821 O   0  0  0  0  0  0  0  0  0  0  0  0
   36.6271   -5.6313   -6.3105 C   0  0  0  0  0  0  0  0  0  0  0  0
   36.5347   -4.4678   -5.5506 C   0  0  0  0  0  0  0  0  0  0  0  0
   42.1521  -11.8198  -11.0743 C   0  0  0  0  0  0  0  0  0  0  0  0
   41.8636  -10.3883  -10.6778 C   0  0  1  0  0  0  0  0  0  0  0  0
   41.2758   -9.6587  -11.8668 C   0  0  0  0  0  0  0  0  0  0  0  0
   40.8180  -10.4158   -9.5995 C   0  0  2  0  0  0  0  0  0  0  0  0
   40.3902   -9.0873   -9.2092 N   0  0  0  0  0  0  0  0  0  0  0  0
   41.2164  -11.2116   -8.4220 C   0  0  0  0  0  0  0  0  0  0  0  0
   41.9452  -10.6533   -7.5389 O   0  0  0  0  0  0  0  0  0  0  0  0
   40.8631  -12.5118   -8.2008 O   0  0  0  0  0  0  0  0  0  0  0  0
  2  7  1  0
  2  1  1  6
  3  2  1  0
  4  3  1  0
  4  5  1  0
  5  6  2  0
  7  8  2  0
  9  5  1  0
 10 11  1  0
 11 21  2  0
 11 12  1  0
 12 13  2  0
 13 14  1  0
 14 15  1  0
 16 15  1  1
 17 16  1  0
 17  7  1  0
 18 19  2  0
 18 16  1  0
 20 14  2  0
 21 20  1  0
 23 22  1  6
 23 25  1  0
 24 23  1  0
 25 27  1  0
 25 26  1  1
 26 18  1  0
 27 29  1  0
 28 27  2  0
M  END
$$$$
