EYV.pdb
     RDKit          3D

 29 29  0  0  1  0  0  0  0  0999 V2000
   40.1892   -9.2639  -11.5948 N   0  0  0  0  0  0  0  0  0  0  0  0
   40.1066   -8.4533  -12.7998 C   0  0  1  0  0  0  0  0  0  0  0  0
   41.3422   -8.7409  -13.6102 C   0  0  0  0  0  0  0  0  0  0  0  0
   42.6189   -8.2836  -12.9853 C   0  0  0  0  0  0  0  0  0  0  0  0
   43.7956   -8.4336  -13.8512 C   0  0  0  0  0  0  0  0  0  0  0  0
   44.3590   -7.5129  -14.4945 O   0  0  0  0  0  0  0  0  0  0  0  0
   38.9029   -8.7906  -13.5885 C   0  0  0  0  0  0  0  0  0  0  0  0
   38.5444   -9.9654  -13.7379 O   0  0  0  0  0  0  0  0  0  0  0  0
   44.3538   -9.7008  -13.9862 O   0  0  0  0  0  0  0  0  0  0  0  0
   30.9266   -8.2959  -17.3446 O   0  0  0  0  0  0  0  0  0  0  0  0
   32.0827   -8.1654  -16.5798 C   0  0  0  0  0  0  0  0  0  0  0  0
   32.8320   -9.2831  -16.2384 C   0  0  0  0  0  0  0  0  0  0  0  0
   33.9858   -9.1920  -15.4803 C   0  0  0  0  0  0  0  0  0  0  0  0
   34.4363   -7.9761  -15.0328 C   0  0  0  0  0  0  0  0  0  0  0  0
   35.6528   -7.8356  -14.2284 C   0  0  0  0  0  0  0  0  0  0  0  0
   36.9249   -8.0823  -14.9664 C   0  0  2  0  0  0  0  0  0  0  0  0
   38.0997   -7.7767  -14.2134 N   0  0  0  0  0  0  0  0  0  0  0  0
   36.8604   -7.2618  -16.2302 C   0  0  0  0  0  0  0  0  0  0  0  0
   36.9596   -6.0095  -16.1918 O   0  0  0  0  0  0  0  0  0  0  0  0
   33.7004   -6.8454  -15.3639 C   0  0  0  0  0  0  0  0  0  0  0  0
   32.5400   -6.9461  -16.1275 C   0  0  0  0  0  0  0  0  0  0  0  0
   39.0052   -7.5050  -19.0510 C   0  0  0  0  0  0  0  0  0  0  0  0
   37.6584   -7.5692  -19.7377 C   0  0  1  0  0  0  0  0  0  0  0  0
   37.3600   -9.0086  -20.0990 C   0  0  0  0  0  0  0  0  0  0  0  0
   36.6200   -7.1250  -18.7472 C   0  0  2  0  0  0  0  0  0  0  0  0
   36.6863   -7.8680  -17.5047 N   0  0  0  0  0  0  0  0  0  0  0  0
   35.2501   -7.1326  -19.2967 C   0  0  0  0  0  0  0  0  0  0  0  0
   34.9369   -6.2315  -20.1408 O   0  0  0  0  0  0  0  0  0  0  0  0
   34.2812   -8.0374  -18.9696 O   0  0  0  0  0  0  0  0  0  0  0  0
  2  7  1  0
  2  1  1  1
  3  2  1  0
  4  3  1  0
  4  5  1  0
  5  6  2  0
  7  8  2  0
  9  5  1  0
 10 11  1  0
 11 21  2  0
 11 12  1  0
 12 13  2  0
 13 14  1  0
 14 15  1  0
 16 15  1  1
 17 16  1  0
 17  7  1  0
 18 19  2  0
 18 16  1  0
 20 14  2  0
 21 20  1  0
 23 22  1  1
 23 25  1  0
 24 23  1  0
 25 27  1  0
 25 26  1  1
 26 18  1  0
 27 29  1  0
 28 27  2  0
M  END
$$$$
