EYV.pdb
     RDKit          3D

 29 29  0  0  1  0  0  0  0  0999 V2000
   23.5788  -11.8857  -20.3363 N   0  0  0  0  0  0  0  0  0  0  0  0
   22.2979  -11.1981  -20.2856 C   0  0  1  0  0  0  0  0  0  0  0  0
   21.2535  -12.2345  -19.9671 C   0  0  0  0  0  0  0  0  0  0  0  0
   21.3751  -12.8466  -18.6104 C   0  0  0  0  0  0  0  0  0  0  0  0
   20.3438  -13.8487  -18.3121 C   0  0  0  0  0  0  0  0  0  0  0  0
   19.7748  -14.0128  -17.2039 O   0  0  0  0  0  0  0  0  0  0  0  0
   22.2955  -10.1504  -19.2430 C   0  0  0  0  0  0  0  0  0  0  0  0
   23.2894   -9.9517  -18.5334 O   0  0  0  0  0  0  0  0  0  0  0  0
   19.9453  -14.7044  -19.3341 O   0  0  0  0  0  0  0  0  0  0  0  0
   23.1717   -4.4130  -22.9049 O   0  0  0  0  0  0  0  0  0  0  0  0
   22.5246   -5.0385  -21.8426 C   0  0  0  0  0  0  0  0  0  0  0  0
   21.4383   -5.8720  -22.0711 C   0  0  0  0  0  0  0  0  0  0  0  0
   20.7708   -6.5101  -21.0408 C   0  0  0  0  0  0  0  0  0  0  0  0
   21.1650   -6.3389  -19.7382 C   0  0  0  0  0  0  0  0  0  0  0  0
   20.4864   -6.9961  -18.6182 C   0  0  0  0  0  0  0  0  0  0  0  0
   21.1685   -8.2171  -18.1007 C   0  0  2  0  0  0  0  0  0  0  0  0
   21.1468   -9.3207  -19.0075 N   0  0  0  0  0  0  0  0  0  0  0  0
   20.4966   -8.5709  -16.7976 C   0  0  0  0  0  0  0  0  0  0  0  0
   19.3322   -9.0433  -16.7798 O   0  0  0  0  0  0  0  0  0  0  0  0
   22.2502   -5.5085  -19.4885 C   0  0  0  0  0  0  0  0  0  0  0  0
   22.9165   -4.8699  -20.5317 C   0  0  0  0  0  0  0  0  0  0  0  0
   21.7937  -10.7441  -14.1415 C   0  0  0  0  0  0  0  0  0  0  0  0
   21.4103   -9.4966  -13.3758 C   0  0  1  0  0  0  0  0  0  0  0  0
   22.6607   -8.6929  -13.0894 C   0  0  0  0  0  0  0  0  0  0  0  0
   20.5312   -8.6665  -14.2675 C   0  0  2  0  0  0  0  0  0  0  0  0
   21.1492   -8.3854  -15.5478 N   0  0  0  0  0  0  0  0  0  0  0  0
   20.0557   -7.4257  -13.6248 C   0  0  0  0  0  0  0  0  0  0  0  0
   19.2709   -7.5293  -12.6268 O   0  0  0  0  0  0  0  0  0  0  0  0
   20.3929   -6.1624  -14.0181 O   0  0  0  0  0  0  0  0  0  0  0  0
  2  7  1  0
  2  1  1  1
  3  2  1  0
  4  3  1  0
  4  5  1  0
  5  6  2  0
  7  8  2  0
  9  5  1  0
 10 11  1  0
 11 21  2  0
 11 12  1  0
 12 13  2  0
 13 14  1  0
 14 15  1  0
 16 15  1  6
 17 16  1  0
 17  7  1  0
 18 19  2  0
 18 16  1  0
 20 14  2  0
 21 20  1  0
 23 22  1  6
 23 25  1  0
 24 23  1  0
 25 27  1  0
 25 26  1  6
 26 18  1  0
 27 29  1  0
 28 27  2  0
M  END
$$$$
