KGM.pdb
     RDKit          3D

 22 21  0  0  1  0  0  0  0  0999 V2000
   20.5580  -13.0419  -17.0194 N   0  0  0  0  0  0  0  0  0  0  0  0
   19.2610  -12.5263  -17.3367 C   0  0  1  0  0  0  0  0  0  0  0  0
   18.1376  -13.4800  -17.0638 C   0  0  0  0  0  0  0  0  0  0  0  0
   18.4433  -14.8769  -17.5831 C   0  0  0  0  0  0  0  0  0  0  0  0
   18.2652  -15.9137  -16.5057 C   0  0  0  0  0  0  0  0  0  0  0  0
   18.4333  -17.3221  -17.0360 C   0  0  0  0  0  0  0  0  0  0  0  0
   18.2077  -18.3157  -16.0251 N   0  0  0  0  0  0  0  0  0  0  0  0
   19.0268  -11.2272  -16.6773 C   0  0  0  0  0  0  0  0  0  0  0  0
   17.8437  -10.8360  -16.5402 O   0  0  0  0  0  0  0  0  0  0  0  0
   20.1265  -10.4542  -16.2167 N   0  0  0  0  0  0  0  0  0  0  0  0
   19.8572   -9.2450  -15.5293 C   0  0  0  0  0  0  0  0  0  0  0  0
   21.0220   -8.4970  -15.0278 C   0  0  0  0  0  0  0  0  0  0  0  0
   22.2062   -8.9861  -15.1337 O   0  0  0  0  0  0  0  0  0  0  0  0
   25.3290   -6.4529  -18.0929 C   0  0  0  0  0  0  0  0  0  0  0  0
   24.4812   -4.9515  -17.5319 S   0  0  0  0  0  0  0  0  0  0  0  0
   23.8101   -5.1699  -15.8666 C   0  0  0  0  0  0  0  0  0  0  0  0
   22.5932   -6.0694  -15.8529 C   0  0  0  0  0  0  0  0  0  0  0  0
   22.1105   -6.3116  -14.4383 C   0  0  2  0  0  0  0  0  0  0  0  0
   20.9886   -7.2244  -14.4046 N   0  0  0  0  0  0  0  0  0  0  0  0
   21.8289   -5.0427  -13.7452 C   0  0  0  0  0  0  0  0  0  0  0  0
   22.7968   -4.3913  -13.0143 O   0  0  0  0  0  0  0  0  0  0  0  0
   20.6902   -4.5441  -13.8195 O   0  0  0  0  0  0  0  0  0  0  0  0
  2  1  1  1
  3  2  1  0
  4  3  1  0
  5  4  1  0
  6  5  1  0
  7  6  1  0
  8  2  1  0
  8 10  1  0
  9  8  2  0
 11 10  1  0
 11 12  1  0
 12 13  2  0
 15 14  1  0
 16 15  1  0
 17 16  1  0
 18 17  1  6
 19 12  1  0
 19 18  1  0
 20 21  1  0
 20 18  1  0
 22 20  2  0
M  END
$$$$
