KGM.pdb
     RDKit          3D

 22 21  0  0  1  0  0  0  0  0999 V2000
   24.8200  -26.3543  -15.8993 N   0  0  0  0  0  0  0  0  0  0  0  0
   24.3902  -25.2009  -15.1689 C   0  0  1  0  0  0  0  0  0  0  0  0
   24.7057  -23.8976  -15.8382 C   0  0  0  0  0  0  0  0  0  0  0  0
   26.2008  -23.7228  -16.0585 C   0  0  0  0  0  0  0  0  0  0  0  0
   26.5183  -22.3576  -16.6088 C   0  0  0  0  0  0  0  0  0  0  0  0
   27.9899  -22.1998  -16.9293 C   0  0  0  0  0  0  0  0  0  0  0  0
   28.3071  -20.8808  -17.3980 N   0  0  0  0  0  0  0  0  0  0  0  0
   22.9576  -25.2889  -14.8265 C   0  0  0  0  0  0  0  0  0  0  0  0
   22.1168  -25.0565  -15.7270 O   0  0  0  0  0  0  0  0  0  0  0  0
   22.5611  -25.6295  -13.5052 N   0  0  0  0  0  0  0  0  0  0  0  0
   21.1895  -25.5233  -13.1666 C   0  0  0  0  0  0  0  0  0  0  0  0
   20.7900  -26.0585  -11.8544 C   0  0  0  0  0  0  0  0  0  0  0  0
   21.5614  -26.8654  -11.2167 O   0  0  0  0  0  0  0  0  0  0  0  0
   16.8116  -23.2924   -7.5190 C   0  0  0  0  0  0  0  0  0  0  0  0
   17.0210  -24.9036   -6.7142 S   0  0  0  0  0  0  0  0  0  0  0  0
   18.0536  -25.9994   -7.7162 C   0  0  0  0  0  0  0  0  0  0  0  0
   18.3777  -25.4028   -9.0686 C   0  0  0  0  0  0  0  0  0  0  0  0
   19.2733  -26.3237   -9.8701 C   0  0  2  0  0  0  0  0  0  0  0  0
   19.5820  -25.7711  -11.1710 N   0  0  0  0  0  0  0  0  0  0  0  0
   18.7080  -27.6814   -9.9514 C   0  0  0  0  0  0  0  0  0  0  0  0
   19.0965  -28.6764   -9.0827 O   0  0  0  0  0  0  0  0  0  0  0  0
   17.8585  -27.9396  -10.8246 O   0  0  0  0  0  0  0  0  0  0  0  0
  2  1  1  6
  3  2  1  0
  4  3  1  0
  5  4  1  0
  6  5  1  0
  7  6  1  0
  8  2  1  0
  8 10  1  0
  9  8  2  0
 11 10  1  0
 11 12  1  0
 12 13  2  0
 15 14  1  0
 16 15  1  0
 17 16  1  0
 18 17  1  6
 19 12  1  0
 19 18  1  0
 20 21  1  0
 20 18  1  0
 22 20  2  0
M  END
$$$$
