KGM.pdb
     RDKit          3D

 22 21  0  0  1  0  0  0  0  0999 V2000
   24.8084  -17.9407  -14.6484 N   0  0  0  0  0  0  0  0  0  0  0  0
   25.0791  -19.2128  -15.2461 C   0  0  1  0  0  0  0  0  0  0  0  0
   25.3736  -19.1511  -16.7143 C   0  0  0  0  0  0  0  0  0  0  0  0
   25.7290  -17.7409  -17.1607 C   0  0  0  0  0  0  0  0  0  0  0  0
   27.0848  -17.6978  -17.8144 C   0  0  0  0  0  0  0  0  0  0  0  0
   27.4217  -16.3177  -18.3389 C   0  0  0  0  0  0  0  0  0  0  0  0
   28.7257  -16.2651  -18.9363 N   0  0  0  0  0  0  0  0  0  0  0  0
   26.1463  -19.9277  -14.5199 C   0  0  0  0  0  0  0  0  0  0  0  0
   26.2850  -21.1563  -14.7274 O   0  0  0  0  0  0  0  0  0  0  0  0
   26.9846  -19.2247  -13.6133 N   0  0  0  0  0  0  0  0  0  0  0  0
   28.0058  -19.9449  -12.9457 C   0  0  0  0  0  0  0  0  0  0  0  0
   27.5698  -20.9515  -11.9635 C   0  0  0  0  0  0  0  0  0  0  0  0
   28.4243  -21.7384  -11.4129 O   0  0  0  0  0  0  0  0  0  0  0  0
   28.6699  -19.9095   -6.0171 C   0  0  0  0  0  0  0  0  0  0  0  0
   27.3258  -19.0580   -6.8868 S   0  0  0  0  0  0  0  0  0  0  0  0
   26.3470  -20.2223   -7.8654 C   0  0  0  0  0  0  0  0  0  0  0  0
   26.7052  -20.1780   -9.3350 C   0  0  0  0  0  0  0  0  0  0  0  0
   25.8650  -21.1547  -10.1303 C   0  0  2  0  0  0  0  0  0  0  0  0
   26.2384  -21.1673  -11.5281 N   0  0  0  0  0  0  0  0  0  0  0  0
   24.4266  -20.9081   -9.9309 C   0  0  0  0  0  0  0  0  0  0  0  0
   23.7717  -21.3415   -8.8002 O   0  0  0  0  0  0  0  0  0  0  0  0
   23.7841  -20.2935  -10.8029 O   0  0  0  0  0  0  0  0  0  0  0  0
  2  1  1  1
  3  2  1  0
  4  3  1  0
  5  4  1  0
  6  5  1  0
  7  6  1  0
  8  2  1  0
  8 10  1  0
  9  8  2  0
 11 10  1  0
 11 12  1  0
 12 13  2  0
 15 14  1  0
 16 15  1  0
 17 16  1  0
 18 17  1  1
 19 12  1  0
 19 18  1  0
 20 21  1  0
 20 18  1  0
 22 20  2  0
M  END
$$$$
