KGM.pdb
     RDKit          3D

 22 21  0  0  1  0  0  0  0  0999 V2000
   18.7556  -12.4841  -15.0371 N   0  0  0  0  0  0  0  0  0  0  0  0
   18.6675  -12.1378  -16.4231 C   0  0  1  0  0  0  0  0  0  0  0  0
   17.4222  -12.6253  -17.0997 C   0  0  0  0  0  0  0  0  0  0  0  0
   17.3874  -14.1433  -17.1939 C   0  0  0  0  0  0  0  0  0  0  0  0
   16.0882  -14.6267  -17.7821 C   0  0  0  0  0  0  0  0  0  0  0  0
   16.0541  -16.1335  -17.9288 C   0  0  0  0  0  0  0  0  0  0  0  0
   14.7616  -16.6130  -18.3282 N   0  0  0  0  0  0  0  0  0  0  0  0
   18.8478  -10.6871  -16.6236 C   0  0  0  0  0  0  0  0  0  0  0  0
   19.2480  -10.2879  -17.7426 O   0  0  0  0  0  0  0  0  0  0  0  0
   18.5698   -9.7821  -15.5641 N   0  0  0  0  0  0  0  0  0  0  0  0
   18.8266   -8.4044  -15.7721 C   0  0  0  0  0  0  0  0  0  0  0  0
   20.0794   -7.8739  -15.2090 C   0  0  0  0  0  0  0  0  0  0  0  0
   20.5453   -8.3368  -14.1038 O   0  0  0  0  0  0  0  0  0  0  0  0
   26.1375   -6.5165  -17.8443 C   0  0  0  0  0  0  0  0  0  0  0  0
   25.6810   -5.1013  -16.8067 S   0  0  0  0  0  0  0  0  0  0  0  0
   24.4358   -5.5705  -15.5818 C   0  0  0  0  0  0  0  0  0  0  0  0
   23.1485   -6.0397  -16.2243 C   0  0  0  0  0  0  0  0  0  0  0  0
   22.1201   -6.4101  -15.1766 C   0  0  2  0  0  0  0  0  0  0  0  0
   20.8798   -6.8513  -15.7768 N   0  0  0  0  0  0  0  0  0  0  0  0
   21.9235   -5.3158  -14.2104 C   0  0  0  0  0  0  0  0  0  0  0  0
   22.6830   -5.2205  -13.0661 O   0  0  0  0  0  0  0  0  0  0  0  0
   21.0511   -4.4546  -14.4298 O   0  0  0  0  0  0  0  0  0  0  0  0
  2  1  1  1
  3  2  1  0
  4  3  1  0
  5  4  1  0
  6  5  1  0
  7  6  1  0
  8  2  1  0
  8 10  1  0
  9  8  2  0
 11 10  1  0
 11 12  1  0
 12 13  2  0
 15 14  1  0
 16 15  1  0
 17 16  1  0
 18 17  1  6
 19 12  1  0
 19 18  1  0
 20 21  1  0
 20 18  1  0
 22 20  2  0
M  END
$$$$
