KGM.pdb
     RDKit          3D

 22 21  0  0  1  0  0  0  0  0999 V2000
   23.3169  -21.3925  -15.8567 N   0  0  0  0  0  0  0  0  0  0  0  0
   24.2882  -20.3876  -16.1655 C   0  0  1  0  0  0  0  0  0  0  0  0
   23.7917  -19.3171  -17.0894 C   0  0  0  0  0  0  0  0  0  0  0  0
   23.2621  -19.8963  -18.3926 C   0  0  0  0  0  0  0  0  0  0  0  0
   21.8329  -20.3488  -18.2510 C   0  0  0  0  0  0  0  0  0  0  0  0
   21.2776  -20.8993  -19.5478 C   0  0  0  0  0  0  0  0  0  0  0  0
   20.0065  -21.5410  -19.3675 N   0  0  0  0  0  0  0  0  0  0  0  0
   24.8627  -19.8049  -14.9375 C   0  0  0  0  0  0  0  0  0  0  0  0
   25.8750  -19.0733  -15.0451 O   0  0  0  0  0  0  0  0  0  0  0  0
   24.2698  -20.0777  -13.6753 N   0  0  0  0  0  0  0  0  0  0  0  0
   24.8417  -19.4858  -12.5222 C   0  0  0  0  0  0  0  0  0  0  0  0
   25.3007  -20.4046  -11.4671 C   0  0  0  0  0  0  0  0  0  0  0  0
   25.0863  -21.6685  -11.5641 O   0  0  0  0  0  0  0  0  0  0  0  0
   29.5194  -19.2837   -6.6782 C   0  0  0  0  0  0  0  0  0  0  0  0
   27.8852  -19.0129   -5.9406 S   0  0  0  0  0  0  0  0  0  0  0  0
   26.5855  -19.7605   -6.9520 C   0  0  0  0  0  0  0  0  0  0  0  0
   27.1423  -20.4719   -8.1660 C   0  0  0  0  0  0  0  0  0  0  0  0
   26.0345  -20.8822   -9.1130 C   0  0  2  0  0  0  0  0  0  0  0  0
   25.9928  -20.0366  -10.2863 N   0  0  0  0  0  0  0  0  0  0  0  0
   24.7370  -20.9520   -8.4192 C   0  0  0  0  0  0  0  0  0  0  0  0
   24.4925  -21.8904   -7.4420 O   0  0  0  0  0  0  0  0  0  0  0  0
   23.8374  -20.1452   -8.7205 O   0  0  0  0  0  0  0  0  0  0  0  0
  2  1  1  1
  3  2  1  0
  4  3  1  0
  5  4  1  0
  6  5  1  0
  7  6  1  0
  8  2  1  0
  8 10  1  0
  9  8  2  0
 11 10  1  0
 11 12  1  0
 12 13  2  0
 15 14  1  0
 16 15  1  0
 17 16  1  0
 18 17  1  1
 19 12  1  0
 19 18  1  0
 20 21  1  0
 20 18  1  0
 22 20  2  0
M  END
$$$$
