KGM.pdb
     RDKit          3D

 22 21  0  0  1  0  0  0  0  0999 V2000
   25.7779  -20.6212  -10.8730 N   0  0  0  0  0  0  0  0  0  0  0  0
   25.8553  -21.2960  -12.1329 C   0  0  1  0  0  0  0  0  0  0  0  0
   24.5260  -21.5453  -12.7786 C   0  0  0  0  0  0  0  0  0  0  0  0
   23.3749  -21.0755  -11.9018 C   0  0  0  0  0  0  0  0  0  0  0  0
   22.0490  -21.2622  -12.5908 C   0  0  0  0  0  0  0  0  0  0  0  0
   20.9124  -20.6181  -11.8249 C   0  0  0  0  0  0  0  0  0  0  0  0
   19.6484  -20.7834  -12.4843 N   0  0  0  0  0  0  0  0  0  0  0  0
   26.7719  -20.5998  -13.0561 C   0  0  0  0  0  0  0  0  0  0  0  0
   27.3201  -21.2679  -13.9643 O   0  0  0  0  0  0  0  0  0  0  0  0
   27.0142  -19.2080  -12.9037 N   0  0  0  0  0  0  0  0  0  0  0  0
   27.9167  -18.5810  -13.7979 C   0  0  0  0  0  0  0  0  0  0  0  0
   27.5659  -18.6224  -15.2273 C   0  0  0  0  0  0  0  0  0  0  0  0
   28.3023  -18.0279  -16.0972 O   0  0  0  0  0  0  0  0  0  0  0  0
   25.9661  -23.6406  -16.8686 C   0  0  0  0  0  0  0  0  0  0  0  0
   27.5740  -23.0840  -17.4951 S   0  0  0  0  0  0  0  0  0  0  0  0
   27.5801  -21.2959  -17.7669 C   0  0  0  0  0  0  0  0  0  0  0  0
   26.1844  -20.7112  -17.7629 C   0  0  0  0  0  0  0  0  0  0  0  0
   26.1863  -19.3002  -17.2136 C   0  0  2  0  0  0  0  0  0  0  0  0
   26.4438  -19.2806  -15.7901 N   0  0  0  0  0  0  0  0  0  0  0  0
   24.9509  -18.5843  -17.5752 C   0  0  0  0  0  0  0  0  0  0  0  0
   23.7951  -18.7260  -16.8406 O   0  0  0  0  0  0  0  0  0  0  0  0
   24.9472  -17.8322  -18.5678 O   0  0  0  0  0  0  0  0  0  0  0  0
  2  1  1  1
  3  2  1  0
  4  3  1  0
  5  4  1  0
  6  5  1  0
  7  6  1  0
  8  2  1  0
  8 10  1  0
  9  8  2  0
 11 10  1  0
 11 12  1  0
 12 13  2  0
 15 14  1  0
 16 15  1  0
 17 16  1  0
 18 17  1  1
 19 12  1  0
 19 18  1  0
 20 21  1  0
 20 18  1  0
 22 20  2  0
M  END
$$$$
