KGM.pdb
     RDKit          3D

 22 21  0  0  1  0  0  0  0  0999 V2000
   22.1914  -21.2998  -14.2352 N   0  0  0  0  0  0  0  0  0  0  0  0
   23.5099  -20.9955  -14.7019 C   0  0  1  0  0  0  0  0  0  0  0  0
   23.5453  -20.0808  -15.8885 C   0  0  0  0  0  0  0  0  0  0  0  0
   23.9070  -20.8250  -17.1651 C   0  0  0  0  0  0  0  0  0  0  0  0
   22.6755  -21.2439  -17.9236 C   0  0  0  0  0  0  0  0  0  0  0  0
   23.0150  -21.8965  -19.2472 C   0  0  0  0  0  0  0  0  0  0  0  0
   21.8529  -22.4074  -19.9170 N   0  0  0  0  0  0  0  0  0  0  0  0
   24.3575  -20.4809  -13.6092 C   0  0  0  0  0  0  0  0  0  0  0  0
   23.8611  -19.6472  -12.8153 O   0  0  0  0  0  0  0  0  0  0  0  0
   25.6989  -20.9304  -13.4767 N   0  0  0  0  0  0  0  0  0  0  0  0
   26.5174  -20.3229  -12.4928 C   0  0  0  0  0  0  0  0  0  0  0  0
   26.3371  -20.7853  -11.1066 C   0  0  0  0  0  0  0  0  0  0  0  0
   25.5676  -21.7817  -10.8462 O   0  0  0  0  0  0  0  0  0  0  0  0
   29.6551  -18.9935   -5.6179 C   0  0  0  0  0  0  0  0  0  0  0  0
   28.0830  -19.5596   -4.9137 S   0  0  0  0  0  0  0  0  0  0  0  0
   27.0539  -20.3473   -6.1753 C   0  0  0  0  0  0  0  0  0  0  0  0
   27.4165  -19.8965   -7.5737 C   0  0  0  0  0  0  0  0  0  0  0  0
   26.6081  -20.6431   -8.6137 C   0  0  2  0  0  0  0  0  0  0  0  0
   26.9493  -20.2271   -9.9567 N   0  0  0  0  0  0  0  0  0  0  0  0
   25.1641  -20.5443   -8.3402 C   0  0  0  0  0  0  0  0  0  0  0  0
   24.5486  -21.3594   -7.4170 O   0  0  0  0  0  0  0  0  0  0  0  0
   24.4803  -19.7053   -8.9561 O   0  0  0  0  0  0  0  0  0  0  0  0
  2  1  1  1
  3  2  1  0
  4  3  1  0
  5  4  1  0
  6  5  1  0
  7  6  1  0
  8  2  1  0
  8 10  1  0
  9  8  2  0
 11 10  1  0
 11 12  1  0
 12 13  2  0
 15 14  1  0
 16 15  1  0
 17 16  1  0
 18 17  1  1
 19 12  1  0
 19 18  1  0
 20 21  1  0
 20 18  1  0
 22 20  2  0
M  END
$$$$
