KGM.pdb
     RDKit          3D

 22 21  0  0  1  0  0  0  0  0999 V2000
   16.8457  -13.2323  -19.2121 N   0  0  0  0  0  0  0  0  0  0  0  0
   18.0591  -13.2662  -18.4537 C   0  0  1  0  0  0  0  0  0  0  0  0
   18.9632  -14.4124  -18.7927 C   0  0  0  0  0  0  0  0  0  0  0  0
   18.2491  -15.7503  -18.6723 C   0  0  0  0  0  0  0  0  0  0  0  0
   19.1582  -16.8925  -19.0414 C   0  0  0  0  0  0  0  0  0  0  0  0
   18.4724  -18.2354  -18.9020 C   0  0  0  0  0  0  0  0  0  0  0  0
   19.2962  -19.3181  -19.3594 N   0  0  0  0  0  0  0  0  0  0  0  0
   18.7776  -11.9801  -18.5380 C   0  0  0  0  0  0  0  0  0  0  0  0
   18.7157  -11.3349  -19.6111 O   0  0  0  0  0  0  0  0  0  0  0  0
   19.5151  -11.5022  -17.4214 N   0  0  0  0  0  0  0  0  0  0  0  0
   20.2206  -10.2809  -17.5547 C   0  0  0  0  0  0  0  0  0  0  0  0
   20.8948   -9.7727  -16.3484 C   0  0  0  0  0  0  0  0  0  0  0  0
   20.5918  -10.2356  -15.1879 O   0  0  0  0  0  0  0  0  0  0  0  0
   26.6283  -11.8766  -15.5400 C   0  0  0  0  0  0  0  0  0  0  0  0
   26.1910  -10.1325  -15.3063 S   0  0  0  0  0  0  0  0  0  0  0  0
   24.3961   -9.9119  -15.2816 C   0  0  0  0  0  0  0  0  0  0  0  0
   23.9995   -8.4640  -15.0909 C   0  0  0  0  0  0  0  0  0  0  0  0
   22.4935   -8.3083  -15.0804 C   0  0  2  0  0  0  0  0  0  0  0  0
   21.8989   -8.7730  -16.3148 N   0  0  0  0  0  0  0  0  0  0  0  0
   22.1012   -6.9281  -14.7476 C   0  0  0  0  0  0  0  0  0  0  0  0
   21.4535   -6.1241  -15.6584 O   0  0  0  0  0  0  0  0  0  0  0  0
   22.3594   -6.4738  -13.6172 O   0  0  0  0  0  0  0  0  0  0  0  0
  2  1  1  6
  3  2  1  0
  4  3  1  0
  5  4  1  0
  6  5  1  0
  7  6  1  0
  8  2  1  0
  8 10  1  0
  9  8  2  0
 11 10  1  0
 11 12  1  0
 12 13  2  0
 15 14  1  0
 16 15  1  0
 17 16  1  0
 18 17  1  6
 19 12  1  0
 19 18  1  0
 20 21  1  0
 20 18  1  0
 22 20  2  0
M  END
$$$$
