VKH.pdb
     RDKit          3D

 27 27  0  0  1  0  0  0  0  0999 V2000
   26.6852  -14.8178  -15.1308 C   0  0  0  0  0  0  0  0  0  0  0  0
   26.3969  -16.2481  -15.5466 C   0  0  1  0  0  0  0  0  0  0  0  0
   25.0042  -16.2677  -16.1260 C   0  0  0  0  0  0  0  0  0  0  0  0
   27.4435  -16.6432  -16.5565 C   0  0  2  0  0  0  0  0  0  0  0  0
   27.4473  -15.7071  -17.6868 N   0  0  0  0  0  0  0  0  0  0  0  0
   27.2998  -18.0241  -17.0384 C   0  0  0  0  0  0  0  0  0  0  0  0
   26.7776  -18.2791  -18.1628 O   0  0  0  0  0  0  0  0  0  0  0  0
   27.7552  -19.0918  -16.2276 N   0  0  0  0  0  0  0  0  0  0  0  0
   27.5267  -20.5134  -16.5685 C   0  0  1  0  0  0  0  0  0  0  0  0
   28.7290  -21.2873  -16.0557 C   0  0  0  0  0  0  0  0  0  0  0  0
   28.5714  -22.7503  -16.1746 C   0  0  0  0  0  0  0  0  0  0  0  0
   29.7241  -23.3024  -17.0232 C   0  0  0  0  0  0  0  0  0  0  0  0
   29.5475  -24.7479  -17.3671 C   0  0  0  0  0  0  0  0  0  0  0  0
   30.6416  -25.1186  -18.2616 N   0  0  0  0  0  0  0  0  0  0  0  0
   26.2357  -20.9675  -16.0536 C   0  0  0  0  0  0  0  0  0  0  0  0
   25.9315  -20.6901  -14.8551 O   0  0  0  0  0  0  0  0  0  0  0  0
   25.2535  -21.7019  -16.7648 N   0  0  0  0  0  0  0  0  0  0  0  0
   23.8713  -21.7900  -16.3065 C   0  0  1  0  0  0  0  0  0  0  0  0
   23.3540  -20.3488  -16.2046 C   0  0  0  0  0  0  0  0  0  0  0  0
   21.9139  -20.3303  -15.8799 C   0  0  0  0  0  0  0  0  0  0  0  0
   21.1220  -21.4463  -15.7049 C   0  0  0  0  0  0  0  0  0  0  0  0
   19.9008  -20.9874  -15.4283 N   0  0  0  0  0  0  0  0  0  0  0  0
   19.9309  -19.6419  -15.4309 C   0  0  0  0  0  0  0  0  0  0  0  0
   21.1881  -19.2143  -15.7129 N   0  0  0  0  0  0  0  0  0  0  0  0
   23.0233  -22.5226  -17.2774 C   0  0  0  0  0  0  0  0  0  0  0  0
   23.3049  -22.4963  -18.5013 O   0  0  0  0  0  0  0  0  0  0  0  0
   21.9020  -23.2620  -16.9266 O   0  0  0  0  0  0  0  0  0  0  0  0
  2  1  1  6
  2  4  1  0
  3  2  1  0
  4  5  1  6
  6  7  2  0
  6  4  1  0
  8  6  1  0
  9 15  1  0
  9  8  1  0
  9 10  1  1
 11 12  1  0
 11 10  1  0
 13 14  1  0
 13 12  1  0
 15 17  1  0
 16 15  2  0
 17 18  1  0
 18 25  1  0
 18 19  1  6
 20 19  1  0
 20 21  2  0
 22 21  1  0
 23 22  1  0
 24 23  2  0
 24 20  1  0
 25 26  2  0
 25 27  1  0
M  END
$$$$
