VKH.pdb
     RDKit          3D

 27 27  0  0  1  0  0  0  0  0999 V2000
   26.0089  -13.9314  -18.0690 C   0  0  0  0  0  0  0  0  0  0  0  0
   24.7405  -13.1430  -18.3357 C   0  0  1  0  0  0  0  0  0  0  0  0
   23.6340  -14.1457  -18.5506 C   0  0  0  0  0  0  0  0  0  0  0  0
   24.4943  -12.2662  -17.1349 C   0  0  2  0  0  0  0  0  0  0  0  0
   24.5004  -13.0656  -15.9041 N   0  0  0  0  0  0  0  0  0  0  0  0
   23.2550  -11.4816  -17.2273 C   0  0  0  0  0  0  0  0  0  0  0  0
   23.0800  -10.6318  -18.1487 O   0  0  0  0  0  0  0  0  0  0  0  0
   22.2356  -11.6809  -16.2652 N   0  0  0  0  0  0  0  0  0  0  0  0
   20.9645  -10.9235  -16.2733 C   0  0  1  0  0  0  0  0  0  0  0  0
   19.8816  -11.8766  -15.7974 C   0  0  0  0  0  0  0  0  0  0  0  0
   19.3789  -12.7637  -16.8649 C   0  0  0  0  0  0  0  0  0  0  0  0
   18.2996  -13.6809  -16.2755 C   0  0  0  0  0  0  0  0  0  0  0  0
   17.7718  -14.6657  -17.2707 C   0  0  0  0  0  0  0  0  0  0  0  0
   16.8807  -15.5740  -16.5527 N   0  0  0  0  0  0  0  0  0  0  0  0
   21.0904   -9.6938  -15.4922 C   0  0  0  0  0  0  0  0  0  0  0  0
   22.1429   -9.5168  -14.8090 O   0  0  0  0  0  0  0  0  0  0  0  0
   20.1423   -8.6429  -15.4123 N   0  0  0  0  0  0  0  0  0  0  0  0
   20.4793   -7.3380  -14.8537 C   0  0  1  0  0  0  0  0  0  0  0  0
   21.5721   -6.7480  -15.7553 C   0  0  0  0  0  0  0  0  0  0  0  0
   21.9351   -5.3859  -15.3164 C   0  0  0  0  0  0  0  0  0  0  0  0
   21.4409   -4.7515  -14.1955 C   0  0  0  0  0  0  0  0  0  0  0  0
   22.0217   -3.5513  -14.1696 N   0  0  0  0  0  0  0  0  0  0  0  0
   22.8432   -3.4428  -15.2301 C   0  0  0  0  0  0  0  0  0  0  0  0
   22.7997   -4.5867  -15.9598 N   0  0  0  0  0  0  0  0  0  0  0  0
   19.3136   -6.4220  -14.8729 C   0  0  0  0  0  0  0  0  0  0  0  0
   18.4923   -6.4714  -15.8221 O   0  0  0  0  0  0  0  0  0  0  0  0
   19.0495   -5.4800  -13.8880 O   0  0  0  0  0  0  0  0  0  0  0  0
  2  1  1  1
  2  4  1  0
  3  2  1  0
  4  5  1  1
  6  7  2  0
  6  4  1  0
  8  6  1  0
  9 15  1  0
  9  8  1  0
  9 10  1  1
 11 12  1  0
 11 10  1  0
 13 14  1  0
 13 12  1  0
 15 17  1  0
 16 15  2  0
 17 18  1  0
 18 25  1  0
 18 19  1  6
 20 19  1  0
 20 21  2  0
 22 21  1  0
 23 22  1  0
 24 23  2  0
 24 20  1  0
 25 26  2  0
 25 27  1  0
M  END
$$$$
