VKH.pdb
     RDKit          3D

 27 27  0  0  1  0  0  0  0  0999 V2000
   17.0692  -12.6618  -17.0527 C   0  0  0  0  0  0  0  0  0  0  0  0
   18.1017  -11.9072  -16.2365 C   0  0  1  0  0  0  0  0  0  0  0  0
   17.9643  -12.3750  -14.8088 C   0  0  0  0  0  0  0  0  0  0  0  0
   19.4555  -12.2268  -16.8165 C   0  0  2  0  0  0  0  0  0  0  0  0
   19.6554  -13.6790  -16.8871 N   0  0  0  0  0  0  0  0  0  0  0  0
   20.5667  -11.5936  -16.0925 C   0  0  0  0  0  0  0  0  0  0  0  0
   20.5617  -11.4979  -14.8305 O   0  0  0  0  0  0  0  0  0  0  0  0
   21.6658  -11.0799  -16.8223 N   0  0  0  0  0  0  0  0  0  0  0  0
   22.7326  -10.2648  -16.2002 C   0  0  1  0  0  0  0  0  0  0  0  0
   24.0294  -10.6271  -16.9034 C   0  0  0  0  0  0  0  0  0  0  0  0
   25.2149   -9.9852  -16.3019 C   0  0  0  0  0  0  0  0  0  0  0  0
   26.4693  -10.4910  -17.0257 C   0  0  0  0  0  0  0  0  0  0  0  0
   27.7287   -9.8856  -16.4907 C   0  0  0  0  0  0  0  0  0  0  0  0
   28.8333  -10.3925  -17.3016 N   0  0  0  0  0  0  0  0  0  0  0  0
   22.3865   -8.8446  -16.2380 C   0  0  0  0  0  0  0  0  0  0  0  0
   22.0942   -8.3232  -17.3553 O   0  0  0  0  0  0  0  0  0  0  0  0
   22.3354   -7.9579  -15.1330 N   0  0  0  0  0  0  0  0  0  0  0  0
   22.1365   -6.5225  -15.3019 C   0  0  1  0  0  0  0  0  0  0  0  0
   20.8877   -6.1576  -14.4881 C   0  0  0  0  0  0  0  0  0  0  0  0
   19.6591   -6.5176  -15.2234 C   0  0  0  0  0  0  0  0  0  0  0  0
   19.6188   -7.0547  -16.4934 C   0  0  0  0  0  0  0  0  0  0  0  0
   18.3269   -7.2262  -16.7762 N   0  0  0  0  0  0  0  0  0  0  0  0
   17.5933   -6.8133  -15.7262 C   0  0  0  0  0  0  0  0  0  0  0  0
   18.4155   -6.3655  -14.7432 N   0  0  0  0  0  0  0  0  0  0  0  0
   23.2836   -5.7493  -14.7683 C   0  0  0  0  0  0  0  0  0  0  0  0
   23.2662   -4.4939  -14.8068 O   0  0  0  0  0  0  0  0  0  0  0  0
   24.4162   -6.3254  -14.2094 O   0  0  0  0  0  0  0  0  0  0  0  0
  2  1  1  6
  2  4  1  0
  3  2  1  0
  4  5  1  1
  6  7  2  0
  6  4  1  0
  8  6  1  0
  9 15  1  0
  9  8  1  0
  9 10  1  6
 11 12  1  0
 11 10  1  0
 13 14  1  0
 13 12  1  0
 15 17  1  0
 16 15  2  0
 17 18  1  0
 18 25  1  0
 18 19  1  1
 20 19  1  0
 20 21  2  0
 22 21  1  0
 23 22  1  0
 24 23  2  0
 24 20  1  0
 25 26  2  0
 25 27  1  0
M  END
$$$$
