VKH.pdb
     RDKit          3D

 27 27  0  0  1  0  0  0  0  0999 V2000
   24.3956  -12.4043  -17.6123 C   0  0  0  0  0  0  0  0  0  0  0  0
   23.3284  -12.6255  -18.6677 C   0  0  1  0  0  0  0  0  0  0  0  0
   23.3426  -14.0949  -19.0093 C   0  0  0  0  0  0  0  0  0  0  0  0
   22.0130  -12.1871  -18.0770 C   0  0  2  0  0  0  0  0  0  0  0  0
   20.9135  -12.4596  -19.0101 N   0  0  0  0  0  0  0  0  0  0  0  0
   21.9968  -10.7756  -17.6680 C   0  0  0  0  0  0  0  0  0  0  0  0
   22.8601  -10.3112  -16.8675 O   0  0  0  0  0  0  0  0  0  0  0  0
   20.9940   -9.9173  -18.1803 N   0  0  0  0  0  0  0  0  0  0  0  0
   20.8977   -8.4867  -17.8150 C   0  0  1  0  0  0  0  0  0  0  0  0
   20.4609   -7.7421  -19.0649 C   0  0  0  0  0  0  0  0  0  0  0  0
   21.5694   -7.4872  -20.0060 C   0  0  0  0  0  0  0  0  0  0  0  0
   21.0173   -6.7391  -21.2263 C   0  0  0  0  0  0  0  0  0  0  0  0
   22.0670   -6.4570  -22.2546 C   0  0  0  0  0  0  0  0  0  0  0  0
   21.3913   -5.8989  -23.4236 N   0  0  0  0  0  0  0  0  0  0  0  0
   20.0269   -8.3070  -16.6542 C   0  0  0  0  0  0  0  0  0  0  0  0
   18.9751   -9.0091  -16.5732 O   0  0  0  0  0  0  0  0  0  0  0  0
   20.2329   -7.4123  -15.5740 N   0  0  0  0  0  0  0  0  0  0  0  0
   19.2947   -7.3145  -14.4611 C   0  0  1  0  0  0  0  0  0  0  0  0
   19.2882   -8.6876  -13.7757 C   0  0  0  0  0  0  0  0  0  0  0  0
   18.3604   -8.6959  -12.6273 C   0  0  0  0  0  0  0  0  0  0  0  0
   17.5640   -7.6387  -12.2384 C   0  0  0  0  0  0  0  0  0  0  0  0
   16.8900   -8.0637  -11.1690 N   0  0  0  0  0  0  0  0  0  0  0  0
   17.2515   -9.3325  -10.9031 C   0  0  0  0  0  0  0  0  0  0  0  0
   18.1741   -9.7436  -11.8101 N   0  0  0  0  0  0  0  0  0  0  0  0
   19.7310   -6.3008  -13.4710 C   0  0  0  0  0  0  0  0  0  0  0  0
   20.9255   -5.9125  -13.4553 O   0  0  0  0  0  0  0  0  0  0  0  0
   18.8919   -5.7265  -12.5259 O   0  0  0  0  0  0  0  0  0  0  0  0
  2  1  1  1
  2  4  1  0
  3  2  1  0
  4  5  1  6
  6  7  2  0
  6  4  1  0
  8  6  1  0
  9 15  1  0
  9  8  1  0
  9 10  1  6
 11 12  1  0
 11 10  1  0
 13 14  1  0
 13 12  1  0
 15 17  1  0
 16 15  2  0
 17 18  1  0
 18 25  1  0
 18 19  1  1
 20 19  1  0
 20 21  2  0
 22 21  1  0
 23 22  1  0
 24 23  2  0
 24 20  1  0
 25 26  2  0
 25 27  1  0
M  END
$$$$
