FFS.pdb
     RDKit          3D

 29 30  0  0  1  0  0  0  0  0999 V2000
   24.4257  -20.6238   -7.7237 N   0  0  0  0  0  0  0  0  0  0  0  0
   25.7322  -20.2290   -8.2121 C   0  0  1  0  0  0  0  0  0  0  0  0
   26.8219  -21.1088   -7.6987 C   0  0  0  0  0  0  0  0  0  0  0  0
   27.4029  -20.4886   -6.4706 C   0  0  0  0  0  0  0  0  0  0  0  0
   27.9530  -19.2448   -6.4534 C   0  0  0  0  0  0  0  0  0  0  0  0
   28.4688  -18.7604   -5.2664 C   0  0  0  0  0  0  0  0  0  0  0  0
   28.4249  -19.5255   -4.1235 C   0  0  0  0  0  0  0  0  0  0  0  0
   27.8689  -20.7854   -4.1353 C   0  0  0  0  0  0  0  0  0  0  0  0
   27.3584  -21.2650   -5.3101 C   0  0  0  0  0  0  0  0  0  0  0  0
   25.7069  -20.2801   -9.6942 C   0  0  0  0  0  0  0  0  0  0  0  0
   24.6982  -20.7735  -10.2949 O   0  0  0  0  0  0  0  0  0  0  0  0
   26.7646  -19.8007  -10.4925 N   0  0  0  0  0  0  0  0  0  0  0  0
   26.5230  -19.5012  -11.8927 C   0  0  1  0  0  0  0  0  0  0  0  0
   27.6750  -18.6395  -12.3474 C   0  0  0  0  0  0  0  0  0  0  0  0
   27.5583  -18.3715  -13.7901 C   0  0  0  0  0  0  0  0  0  0  0  0
   28.1954  -19.1587  -14.6989 C   0  0  0  0  0  0  0  0  0  0  0  0
   28.0790  -18.9089  -16.0519 C   0  0  0  0  0  0  0  0  0  0  0  0
   27.3060  -17.8477  -16.4583 C   0  0  0  0  0  0  0  0  0  0  0  0
   26.6443  -17.0256  -15.5705 C   0  0  0  0  0  0  0  0  0  0  0  0
   26.7902  -17.3146  -14.2268 C   0  0  0  0  0  0  0  0  0  0  0  0
   26.4458  -20.7718  -12.6289 C   0  0  0  0  0  0  0  0  0  0  0  0
   27.2605  -21.7039  -12.4259 O   0  0  0  0  0  0  0  0  0  0  0  0
   23.1079  -22.3378  -13.8380 O   0  0  0  0  0  0  0  0  0  0  0  0
   24.2762  -23.1051  -13.9012 C   0  0  0  0  0  0  0  0  0  0  0  0
   25.3813  -22.1856  -14.3615 C   0  0  2  0  0  0  0  0  0  0  0  0
   25.4302  -20.9594  -13.5942 N   0  0  0  0  0  0  0  0  0  0  0  0
   25.1181  -21.8605  -15.7867 C   0  0  0  0  0  0  0  0  0  0  0  0
   24.7859  -20.6938  -16.1161 O   0  0  0  0  0  0  0  0  0  0  0  0
   25.2188  -22.7920  -16.8096 O   0  0  0  0  0  0  0  0  0  0  0  0
  2 10  1  0
  2  1  1  1
  2  3  1  0
  4  3  1  0
  4  9  1  0
  5  4  2  0
  6  5  1  0
  6  7  2  0
  7  8  1  0
  8  9  2  0
 10 11  2  0
 12 13  1  0
 12 10  1  0
 13 21  1  0
 14 15  1  0
 13 14  1  6
 15 16  2  0
 16 17  1  0
 18 17  2  0
 19 18  1  0
 20 15  1  0
 20 19  2  0
 21 22  2  0
 21 26  1  0
 25 24  1  1
 24 23  1  0
 25 27  1  0
 26 25  1  0
 27 28  2  0
 27 29  1  0
M  END
$$$$
