FFS.pdb
     RDKit          3D

 29 30  0  0  1  0  0  0  0  0999 V2000
   26.4845  -40.6497   -7.1282 N   0  0  0  0  0  0  0  0  0  0  0  0
   26.1299  -39.3465   -6.6016 C   0  0  1  0  0  0  0  0  0  0  0  0
   25.0667  -39.4240   -5.5581 C   0  0  0  0  0  0  0  0  0  0  0  0
   23.7947  -39.8725   -6.1995 C   0  0  0  0  0  0  0  0  0  0  0  0
   23.2663  -41.1126   -6.0185 C   0  0  0  0  0  0  0  0  0  0  0  0
   22.0850  -41.4339   -6.6597 C   0  0  0  0  0  0  0  0  0  0  0  0
   21.4568  -40.5130   -7.4664 C   0  0  0  0  0  0  0  0  0  0  0  0
   21.9874  -39.2559   -7.6530 C   0  0  0  0  0  0  0  0  0  0  0  0
   23.1566  -38.9377   -7.0185 C   0  0  0  0  0  0  0  0  0  0  0  0
   27.3507  -38.7329   -6.0246 C   0  0  0  0  0  0  0  0  0  0  0  0
   28.2762  -39.4753   -5.5620 O   0  0  0  0  0  0  0  0  0  0  0  0
   27.5462  -37.3389   -5.9592 N   0  0  0  0  0  0  0  0  0  0  0  0
   28.8231  -36.8177   -5.5046 C   0  0  1  0  0  0  0  0  0  0  0  0
   28.9372  -35.4228   -6.0680 C   0  0  0  0  0  0  0  0  0  0  0  0
   30.1912  -34.8015   -5.6117 C   0  0  0  0  0  0  0  0  0  0  0  0
   31.3282  -34.9012   -6.3526 C   0  0  0  0  0  0  0  0  0  0  0  0
   32.5015  -34.3120   -5.9253 C   0  0  0  0  0  0  0  0  0  0  0  0
   32.4940  -33.6236   -4.7358 C   0  0  0  0  0  0  0  0  0  0  0  0
   31.3641  -33.4990   -3.9551 C   0  0  0  0  0  0  0  0  0  0  0  0
   30.2136  -34.1052   -4.4233 C   0  0  0  0  0  0  0  0  0  0  0  0
   28.8298  -36.8330   -4.0342 C   0  0  0  0  0  0  0  0  0  0  0  0
   27.8812  -36.3589   -3.3638 O   0  0  0  0  0  0  0  0  0  0  0  0
   32.2109  -37.9537   -2.0410 O   0  0  0  0  0  0  0  0  0  0  0  0
   31.0425  -38.2916   -1.3495 C   0  0  0  0  0  0  0  0  0  0  0  0
   29.9392  -37.4203   -1.8992 C   0  0  2  0  0  0  0  0  0  0  0  0
   29.9297  -37.3945   -3.3462 N   0  0  0  0  0  0  0  0  0  0  0  0
   30.1681  -36.0450   -1.3869 C   0  0  0  0  0  0  0  0  0  0  0  0
   30.2858  -35.8440   -0.1517 O   0  0  0  0  0  0  0  0  0  0  0  0
   30.2631  -34.9334   -2.2111 O   0  0  0  0  0  0  0  0  0  0  0  0
  2 10  1  0
  2  1  1  1
  2  3  1  0
  4  3  1  0
  4  9  1  0
  5  4  2  0
  6  5  1  0
  6  7  2  0
  7  8  1  0
  8  9  2  0
 10 11  2  0
 12 13  1  0
 12 10  1  0
 13 21  1  0
 14 15  1  0
 13 14  1  1
 15 16  2  0
 16 17  1  0
 18 17  2  0
 19 18  1  0
 20 15  1  0
 20 19  2  0
 21 22  2  0
 21 26  1  0
 25 24  1  6
 24 23  1  0
 25 27  1  0
 26 25  1  0
 27 28  2  0
 27 29  1  0
M  END
$$$$
