FFS.pdb
     RDKit          3D

 29 30  0  0  1  0  0  0  0  0999 V2000
   21.0871  -20.2566  -11.9918 N   0  0  0  0  0  0  0  0  0  0  0  0
   21.9213  -21.0964  -12.8285 C   0  0  1  0  0  0  0  0  0  0  0  0
   21.4176  -21.1837  -14.2299 C   0  0  0  0  0  0  0  0  0  0  0  0
   20.1761  -22.0138  -14.2442 C   0  0  0  0  0  0  0  0  0  0  0  0
   20.1839  -23.3677  -14.1152 C   0  0  0  0  0  0  0  0  0  0  0  0
   18.9809  -24.0471  -14.1450 C   0  0  0  0  0  0  0  0  0  0  0  0
   17.7975  -23.3628  -14.3024 C   0  0  0  0  0  0  0  0  0  0  0  0
   17.7839  -21.9920  -14.4332 C   0  0  0  0  0  0  0  0  0  0  0  0
   18.9744  -21.3194  -14.4038 C   0  0  0  0  0  0  0  0  0  0  0  0
   23.2937  -20.5339  -12.8264 C   0  0  0  0  0  0  0  0  0  0  0  0
   23.4622  -19.2719  -12.7991 O   0  0  0  0  0  0  0  0  0  0  0  0
   24.4490  -21.3403  -12.8538 N   0  0  0  0  0  0  0  0  0  0  0  0
   25.7576  -20.7117  -12.8853 C   0  0  1  0  0  0  0  0  0  0  0  0
   26.6047  -21.4438  -11.8739 C   0  0  0  0  0  0  0  0  0  0  0  0
   26.2454  -21.0092  -10.5142 C   0  0  0  0  0  0  0  0  0  0  0  0
   25.4395  -21.7738   -9.7284 C   0  0  0  0  0  0  0  0  0  0  0  0
   25.1093  -21.3669   -8.4510 C   0  0  0  0  0  0  0  0  0  0  0  0
   25.6129  -20.1731   -7.9926 C   0  0  0  0  0  0  0  0  0  0  0  0
   26.4323  -19.3686   -8.7563 C   0  0  0  0  0  0  0  0  0  0  0  0
   26.7355  -19.8171  -10.0281 C   0  0  0  0  0  0  0  0  0  0  0  0
   26.2898  -20.8237  -14.2515 C   0  0  0  0  0  0  0  0  0  0  0  0
   26.1870  -21.8827  -14.9162 O   0  0  0  0  0  0  0  0  0  0  0  0
   28.5318  -17.8076  -15.8372 O   0  0  0  0  0  0  0  0  0  0  0  0
   27.6715  -18.3892  -16.7748 C   0  0  0  0  0  0  0  0  0  0  0  0
   27.2990  -19.7519  -16.2432 C   0  0  2  0  0  0  0  0  0  0  0  0
   26.9369  -19.7144  -14.8425 N   0  0  0  0  0  0  0  0  0  0  0  0
   28.4830  -20.6315  -16.4188 C   0  0  0  0  0  0  0  0  0  0  0  0
   29.0814  -21.0910  -15.4135 O   0  0  0  0  0  0  0  0  0  0  0  0
   28.9862  -20.9891  -17.6610 O   0  0  0  0  0  0  0  0  0  0  0  0
  2 10  1  0
  2  1  1  1
  2  3  1  0
  4  3  1  0
  4  9  1  0
  5  4  2  0
  6  5  1  0
  6  7  2  0
  7  8  1  0
  8  9  2  0
 10 11  2  0
 12 13  1  0
 12 10  1  0
 13 21  1  0
 14 15  1  0
 13 14  1  1
 15 16  2  0
 16 17  1  0
 18 17  2  0
 19 18  1  0
 20 15  1  0
 20 19  2  0
 21 22  2  0
 21 26  1  0
 25 24  1  1
 24 23  1  0
 25 27  1  0
 26 25  1  0
 27 28  2  0
 27 29  1  0
M  END
$$$$
