FFS.pdb
     RDKit          3D

 29 30  0  0  1  0  0  0  0  0999 V2000
   18.8023  -11.2846    7.9032 N   0  0  0  0  0  0  0  0  0  0  0  0
   19.1602  -12.6513    8.2278 C   0  0  1  0  0  0  0  0  0  0  0  0
   19.1168  -12.9184    9.6947 C   0  0  0  0  0  0  0  0  0  0  0  0
   20.5070  -12.8557   10.2367 C   0  0  0  0  0  0  0  0  0  0  0  0
   21.3428  -13.9282   10.2690 C   0  0  0  0  0  0  0  0  0  0  0  0
   22.6110  -13.7694   10.7947 C   0  0  0  0  0  0  0  0  0  0  0  0
   23.0179  -12.5463   11.2761 C   0  0  0  0  0  0  0  0  0  0  0  0
   22.1758  -11.4571   11.2456 C   0  0  0  0  0  0  0  0  0  0  0  0
   20.9206  -11.6141   10.7254 C   0  0  0  0  0  0  0  0  0  0  0  0
   18.2152  -13.5556    7.5284 C   0  0  0  0  0  0  0  0  0  0  0  0
   16.9641  -13.3217    7.5707 O   0  0  0  0  0  0  0  0  0  0  0  0
   18.6375  -14.6869    6.8021 N   0  0  0  0  0  0  0  0  0  0  0  0
   17.6502  -15.5143    6.1318 C   0  0  1  0  0  0  0  0  0  0  0  0
   18.0247  -15.5223    4.6703 C   0  0  0  0  0  0  0  0  0  0  0  0
   17.7347  -14.2081    4.0737 C   0  0  0  0  0  0  0  0  0  0  0  0
   16.4960  -13.9207    3.5895 C   0  0  0  0  0  0  0  0  0  0  0  0
   16.2250  -12.6850    3.0364 C   0  0  0  0  0  0  0  0  0  0  0  0
   17.2345  -11.7537    2.9862 C   0  0  0  0  0  0  0  0  0  0  0  0
   18.5031  -12.0046    3.4652 C   0  0  0  0  0  0  0  0  0  0  0  0
   18.7272  -13.2549    4.0100 C   0  0  0  0  0  0  0  0  0  0  0  0
   17.6910  -16.8568    6.7305 C   0  0  0  0  0  0  0  0  0  0  0  0
   18.7500  -17.3401    7.1982 O   0  0  0  0  0  0  0  0  0  0  0  0
   14.9384  -18.3332    9.0429 O   0  0  0  0  0  0  0  0  0  0  0  0
   15.1927  -19.2793    8.0440 C   0  0  0  0  0  0  0  0  0  0  0  0
   16.5280  -18.9269    7.4348 C   0  0  2  0  0  0  0  0  0  0  0  0
   16.5110  -17.6332    6.7861 N   0  0  0  0  0  0  0  0  0  0  0  0
   16.8431  -19.9740    6.4296 C   0  0  0  0  0  0  0  0  0  0  0  0
   16.8537  -19.6895    5.2053 O   0  0  0  0  0  0  0  0  0  0  0  0
   17.1358  -21.2873    6.7668 O   0  0  0  0  0  0  0  0  0  0  0  0
  2 10  1  0
  2  1  1  1
  2  3  1  0
  4  3  1  0
  4  9  1  0
  5  4  2  0
  6  5  1  0
  6  7  2  0
  7  8  1  0
  8  9  2  0
 10 11  2  0
 12 13  1  0
 12 10  1  0
 13 21  1  0
 14 15  1  0
 13 14  1  6
 15 16  2  0
 16 17  1  0
 18 17  2  0
 19 18  1  0
 20 15  1  0
 20 19  2  0
 21 22  2  0
 21 26  1  0
 25 24  1  6
 24 23  1  0
 25 27  1  0
 26 25  1  0
 27 28  2  0
 27 29  1  0
M  END
$$$$
