FFS.pdb
     RDKit          3D

 29 30  0  0  1  0  0  0  0  0999 V2000
   25.8816   -7.8236  -19.5143 N   0  0  0  0  0  0  0  0  0  0  0  0
   25.5853   -7.0054  -18.3550 C   0  0  1  0  0  0  0  0  0  0  0  0
   25.2258   -5.6052  -18.7229 C   0  0  0  0  0  0  0  0  0  0  0  0
   26.4512   -4.9072  -19.2147 C   0  0  0  0  0  0  0  0  0  0  0  0
   27.5841   -4.7799  -18.4729 C   0  0  0  0  0  0  0  0  0  0  0  0
   28.6650   -4.1120  -19.0162 C   0  0  0  0  0  0  0  0  0  0  0  0
   28.5933   -3.5862  -20.2857 C   0  0  0  0  0  0  0  0  0  0  0  0
   27.4486   -3.7123  -21.0411 C   0  0  0  0  0  0  0  0  0  0  0  0
   26.3787   -4.3732  -20.5036 C   0  0  0  0  0  0  0  0  0  0  0  0
   24.4590   -7.6327  -17.6217 C   0  0  0  0  0  0  0  0  0  0  0  0
   23.5863   -8.3087  -18.2567 O   0  0  0  0  0  0  0  0  0  0  0  0
   24.2987   -7.5182  -16.2263 N   0  0  0  0  0  0  0  0  0  0  0  0
   23.1700   -8.1658  -15.5819 C   0  0  1  0  0  0  0  0  0  0  0  0
   23.7336   -8.9395  -14.4157 C   0  0  0  0  0  0  0  0  0  0  0  0
   24.4696  -10.1160  -14.9065 C   0  0  0  0  0  0  0  0  0  0  0  0
   25.8263  -10.0964  -15.0089 C   0  0  0  0  0  0  0  0  0  0  0  0
   26.5147  -11.2036  -15.4636 C   0  0  0  0  0  0  0  0  0  0  0  0
   25.7983  -12.3242  -15.8099 C   0  0  0  0  0  0  0  0  0  0  0  0
   24.4234  -12.3855  -15.7213 C   0  0  0  0  0  0  0  0  0  0  0  0
   23.7778  -11.2533  -15.2610 C   0  0  0  0  0  0  0  0  0  0  0  0
   22.2207   -7.1249  -15.1605 C   0  0  0  0  0  0  0  0  0  0  0  0
   22.5923   -5.9528  -14.9116 O   0  0  0  0  0  0  0  0  0  0  0  0
   19.0103   -4.9735  -16.9685 O   0  0  0  0  0  0  0  0  0  0  0  0
   19.9549   -5.9912  -16.7966 C   0  0  0  0  0  0  0  0  0  0  0  0
   19.8449   -6.4554  -15.3645 C   0  0  2  0  0  0  0  0  0  0  0  0
   20.8493   -7.4418  -15.0287 N   0  0  0  0  0  0  0  0  0  0  0  0
   18.4960   -7.0548  -15.1986 C   0  0  0  0  0  0  0  0  0  0  0  0
   17.5970   -6.4241  -14.5869 O   0  0  0  0  0  0  0  0  0  0  0  0
   18.1547   -8.3056  -15.6913 O   0  0  0  0  0  0  0  0  0  0  0  0
  2 10  1  0
  2  1  1  6
  2  3  1  0
  4  3  1  0
  4  9  1  0
  5  4  2  0
  6  5  1  0
  6  7  2  0
  7  8  1  0
  8  9  2  0
 10 11  2  0
 12 13  1  0
 12 10  1  0
 13 21  1  0
 14 15  1  0
 13 14  1  1
 15 16  2  0
 16 17  1  0
 18 17  2  0
 19 18  1  0
 20 15  1  0
 20 19  2  0
 21 22  2  0
 21 26  1  0
 25 24  1  6
 24 23  1  0
 25 27  1  0
 26 25  1  0
 27 28  2  0
 27 29  1  0
M  END
$$$$
