GRL.pdb
     RDKit          3D

 24 23  0  0  1  0  0  0  0  0999 V2000
   28.1844  -19.0143  -15.7675 N   0  0  0  0  0  0  0  0  0  0  0  0
   28.6009  -19.3793  -14.4529 C   0  0  0  0  0  0  0  0  0  0  0  0
   27.5212  -19.2424  -13.4414 C   0  0  0  0  0  0  0  0  0  0  0  0
   27.0830  -18.0988  -13.1518 O   0  0  0  0  0  0  0  0  0  0  0  0
   20.1634  -19.5772  -11.2123 N   0  0  0  0  0  0  0  0  0  0  0  0
   20.1430  -19.9241  -12.6047 C   0  0  0  0  0  0  0  0  0  0  0  0
   19.3102  -19.2482  -13.3336 N   0  0  0  0  0  0  0  0  0  0  0  0
   20.9632  -20.9230  -13.1468 N   0  0  0  0  0  0  0  0  0  0  0  0
   22.1784  -21.2881  -12.4424 C   0  0  0  0  0  0  0  0  0  0  0  0
   23.2934  -20.2822  -12.7392 C   0  0  0  0  0  0  0  0  0  0  0  0
   24.5908  -21.0532  -12.7079 C   0  0  0  0  0  0  0  0  0  0  0  0
   25.7016  -20.2905  -12.0438 C   0  0  2  0  0  0  0  0  0  0  0  0
   26.9443  -20.3468  -12.7702 N   0  0  0  0  0  0  0  0  0  0  0  0
   25.9480  -20.9668  -10.7198 C   0  0  0  0  0  0  0  0  0  0  0  0
   26.4215  -22.1214  -10.7679 O   0  0  0  0  0  0  0  0  0  0  0  0
   19.1408  -19.4502  -14.3244 C   0  0  0  0  0  0  0  0  0  0  0  0
   28.1407  -18.5430   -6.4971 C   0  0  1  0  0  0  0  0  0  0  0  0
   27.6936  -19.5714   -7.4590 C   0  0  0  0  0  0  0  0  0  0  0  0
   28.6795  -20.7499   -7.4564 C   0  0  0  0  0  0  0  0  0  0  0  0
   26.3401  -20.1458   -7.2126 C   0  0  2  0  0  0  0  0  0  0  0  0
   25.8162  -21.0766   -8.2469 N   0  0  0  0  0  0  0  0  0  0  0  0
   25.6698  -20.3555   -9.4923 C   0  0  0  0  0  0  0  0  0  0  0  0
   24.5181  -21.6964   -7.9080 O   0  0  0  0  0  0  0  0  0  0  0  0
   24.4351  -22.4462   -6.9124 O   0  0  0  0  0  0  0  0  0  0  0  0
  1  2  1  0
  2  3  1  0
  3  4  2  0
  3 13  1  0
  6  7  2  0
  6  5  1  0
  8  6  1  0
  9  8  1  0
 10  9  1  0
 11 10  1  0
 12 11  1  6
 12 14  1  0
 13 12  1  0
 14 15  2  0
 17 16  1  6
 17 19  1  0
 18 17  1  0
 20 19  1  6
 20 22  1  0
 21 14  1  0
 21 20  1  0
 22 24  1  0
 23 22  2  0
M  END
$$$$
