GRL.pdb
     RDKit          3D

 24 23  0  0  1  0  0  0  0  0999 V2000
   28.2841  -18.8029  -17.2006 N   0  0  0  0  0  0  0  0  0  0  0  0
   27.3090  -18.2173  -16.3398 C   0  0  0  0  0  0  0  0  0  0  0  0
   26.3471  -19.2080  -15.7912 C   0  0  0  0  0  0  0  0  0  0  0  0
   25.6580  -19.9066  -16.5791 O   0  0  0  0  0  0  0  0  0  0  0  0
   28.7926  -21.2178   -9.5226 N   0  0  0  0  0  0  0  0  0  0  0  0
   29.5103  -21.4812  -10.7372 C   0  0  0  0  0  0  0  0  0  0  0  0
   30.4718  -22.3456  -10.6382 N   0  0  0  0  0  0  0  0  0  0  0  0
   29.1994  -20.8517  -11.9503 N   0  0  0  0  0  0  0  0  0  0  0  0
   27.8790  -20.2738  -12.1196 C   0  0  0  0  0  0  0  0  0  0  0  0
   26.8167  -21.3737  -12.1880 C   0  0  0  0  0  0  0  0  0  0  0  0
   25.4922  -20.6827  -12.4050 C   0  0  0  0  0  0  0  0  0  0  0  0
   25.2314  -20.3722  -13.8514 C   0  0  2  0  0  0  0  0  0  0  0  0
   26.1566  -19.4165  -14.4043 N   0  0  0  0  0  0  0  0  0  0  0  0
   23.8684  -19.7317  -13.9085 C   0  0  0  0  0  0  0  0  0  0  0  0
   23.7295  -18.6682  -13.2688 O   0  0  0  0  0  0  0  0  0  0  0  0
   31.0988  -22.5779  -11.4154 C   0  0  0  0  0  0  0  0  0  0  0  0
   20.0150  -17.0352  -16.1660 C   0  0  2  0  0  0  0  0  0  0  0  0
   20.0580  -18.4798  -16.4729 C   0  0  0  0  0  0  0  0  0  0  0  0
   19.7958  -18.7016  -17.9705 C   0  0  0  0  0  0  0  0  0  0  0  0
   21.3395  -19.1726  -16.1560 C   0  0  1  0  0  0  0  0  0  0  0  0
   21.5383  -19.5852  -14.7415 N   0  0  0  0  0  0  0  0  0  0  0  0
   22.8026  -20.2792  -14.6311 C   0  0  0  0  0  0  0  0  0  0  0  0
   20.4743  -20.4602  -14.2063 O   0  0  0  0  0  0  0  0  0  0  0  0
   20.5807  -21.6995  -14.3207 O   0  0  0  0  0  0  0  0  0  0  0  0
  1  2  1  0
  2  3  1  0
  3  4  2  0
  3 13  1  0
  6  7  2  0
  6  5  1  0
  8  6  1  0
  9  8  1  0
 10  9  1  0
 11 10  1  0
 12 11  1  1
 12 14  1  0
 13 12  1  0
 14 15  2  0
 17 16  1  1
 17 19  1  0
 18 17  1  0
 20 19  1  1
 20 22  1  0
 21 14  1  0
 21 20  1  0
 22 24  1  0
 23 22  2  0
M  END
$$$$
