GRL.pdb
     RDKit          3D

 24 23  0  0  1  0  0  0  0  0999 V2000
   23.7553  -20.2792   -7.8638 N   0  0  0  0  0  0  0  0  0  0  0  0
   23.7960  -21.2396   -8.9178 C   0  0  0  0  0  0  0  0  0  0  0  0
   24.0479  -20.6313  -10.2498 C   0  0  0  0  0  0  0  0  0  0  0  0
   24.1440  -19.3808  -10.3533 O   0  0  0  0  0  0  0  0  0  0  0  0
   29.0073  -21.9418  -16.1068 N   0  0  0  0  0  0  0  0  0  0  0  0
   27.7036  -22.3373  -16.5582 C   0  0  0  0  0  0  0  0  0  0  0  0
   27.6686  -23.4136  -17.2807 N   0  0  0  0  0  0  0  0  0  0  0  0
   26.5439  -21.6156  -16.2440 N   0  0  0  0  0  0  0  0  0  0  0  0
   26.6353  -20.5277  -15.2879 C   0  0  0  0  0  0  0  0  0  0  0  0
   26.7072  -21.0732  -13.8595 C   0  0  0  0  0  0  0  0  0  0  0  0
   25.3668  -21.7040  -13.5696 C   0  0  0  0  0  0  0  0  0  0  0  0
   24.4848  -20.8278  -12.7264 C   0  0  2  0  0  0  0  0  0  0  0  0
   24.1892  -21.3926  -11.4346 N   0  0  0  0  0  0  0  0  0  0  0  0
   23.1715  -20.7193  -13.4573 C   0  0  0  0  0  0  0  0  0  0  0  0
   22.4317  -21.7247  -13.4182 O   0  0  0  0  0  0  0  0  0  0  0  0
   26.8022  -23.7986  -17.6709 C   0  0  0  0  0  0  0  0  0  0  0  0
   20.0063  -16.1425  -13.4552 C   0  0  2  0  0  0  0  0  0  0  0  0
   20.4914  -17.5380  -13.4438 C   0  0  0  0  0  0  0  0  0  0  0  0
   19.3462  -18.4837  -13.0501 C   0  0  0  0  0  0  0  0  0  0  0  0
   21.0400  -18.0449  -14.7341 C   0  0  2  0  0  0  0  0  0  0  0  0
   21.4727  -19.4671  -14.7578 N   0  0  0  0  0  0  0  0  0  0  0  0
   22.7808  -19.5670  -14.1484 C   0  0  0  0  0  0  0  0  0  0  0  0
   21.5377  -20.0622  -16.1090 O   0  0  0  0  0  0  0  0  0  0  0  0
   22.6139  -20.0352  -16.7425 O   0  0  0  0  0  0  0  0  0  0  0  0
  1  2  1  0
  2  3  1  0
  3  4  2  0
  3 13  1  0
  6  7  2  0
  6  5  1  0
  8  6  1  0
  9  8  1  0
 10  9  1  0
 11 10  1  0
 12 11  1  6
 12 14  1  0
 13 12  1  0
 14 15  2  0
 17 16  1  1
 17 19  1  0
 18 17  1  0
 20 19  1  1
 20 22  1  0
 21 14  1  0
 21 20  1  0
 22 24  1  0
 23 22  2  0
M  END
$$$$
