GRL.pdb
     RDKit          3D

 24 23  0  0  1  0  0  0  0  0999 V2000
   20.2754  -20.4758  -10.2926 N   0  0  0  0  0  0  0  0  0  0  0  0
   21.4243  -19.6661  -10.5361 C   0  0  0  0  0  0  0  0  0  0  0  0
   22.6941  -20.3193  -10.1254 C   0  0  0  0  0  0  0  0  0  0  0  0
   22.7317  -20.9896   -9.0610 O   0  0  0  0  0  0  0  0  0  0  0  0
   25.8610  -24.3748  -14.4438 N   0  0  0  0  0  0  0  0  0  0  0  0
   25.5487  -23.3164  -15.3612 C   0  0  0  0  0  0  0  0  0  0  0  0
   24.7396  -23.6355  -16.3231 N   0  0  0  0  0  0  0  0  0  0  0  0
   26.0775  -22.0248  -15.2333 N   0  0  0  0  0  0  0  0  0  0  0  0
   26.6332  -21.6206  -13.9551 C   0  0  0  0  0  0  0  0  0  0  0  0
   25.5866  -21.7595  -12.8468 C   0  0  0  0  0  0  0  0  0  0  0  0
   26.0973  -20.9669  -11.6680 C   0  0  0  0  0  0  0  0  0  0  0  0
   25.1112  -20.9124  -10.5360 C   0  0  2  0  0  0  0  0  0  0  0  0
   23.8896  -20.2297  -10.8776 N   0  0  0  0  0  0  0  0  0  0  0  0
   25.7632  -20.1039   -9.4442 C   0  0  0  0  0  0  0  0  0  0  0  0
   25.6586  -18.8629   -9.5370 O   0  0  0  0  0  0  0  0  0  0  0  0
   24.4198  -22.9669  -17.0315 C   0  0  0  0  0  0  0  0  0  0  0  0
   27.5954  -19.7098   -3.7163 C   0  0  2  0  0  0  0  0  0  0  0  0
   27.9330  -19.4775   -5.1358 C   0  0  0  0  0  0  0  0  0  0  0  0
   29.3519  -19.9917   -5.4239 C   0  0  0  0  0  0  0  0  0  0  0  0
   27.0328  -20.1264   -6.1314 C   0  0  1  0  0  0  0  0  0  0  0  0
   27.3685  -19.9168   -7.5646 N   0  0  0  0  0  0  0  0  0  0  0  0
   26.4526  -20.6883   -8.3760 C   0  0  0  0  0  0  0  0  0  0  0  0
   28.7502  -20.2941   -7.9287 O   0  0  0  0  0  0  0  0  0  0  0  0
   28.9756  -21.4312   -8.3940 O   0  0  0  0  0  0  0  0  0  0  0  0
  1  2  1  0
  2  3  1  0
  3  4  2  0
  3 13  1  0
  6  7  2  0
  6  5  1  0
  8  6  1  0
  9  8  1  0
 10  9  1  0
 11 10  1  0
 12 11  1  6
 12 14  1  0
 13 12  1  0
 14 15  2  0
 17 16  1  1
 17 19  1  0
 18 17  1  0
 20 19  1  6
 20 22  1  0
 21 14  1  0
 21 20  1  0
 22 24  1  0
 23 22  2  0
M  END
$$$$
