GRL.pdb
     RDKit          3D

 24 23  0  0  1  0  0  0  0  0999 V2000
   20.3105  -12.7231  -17.1924 N   0  0  0  0  0  0  0  0  0  0  0  0
   20.3439  -12.0190  -15.9523 C   0  0  0  0  0  0  0  0  0  0  0  0
   19.5367  -10.7717  -15.9695 C   0  0  0  0  0  0  0  0  0  0  0  0
   19.9187   -9.7942  -16.6640 O   0  0  0  0  0  0  0  0  0  0  0  0
   11.8458   -9.7367  -12.4549 N   0  0  0  0  0  0  0  0  0  0  0  0
   12.0046   -9.1446  -13.7525 C   0  0  0  0  0  0  0  0  0  0  0  0
   10.9643   -8.5191  -14.2089 N   0  0  0  0  0  0  0  0  0  0  0  0
   13.1980   -9.2319  -14.4822 N   0  0  0  0  0  0  0  0  0  0  0  0
   13.9546  -10.4696  -14.4391 C   0  0  0  0  0  0  0  0  0  0  0  0
   15.2045  -10.3652  -15.3165 C   0  0  0  0  0  0  0  0  0  0  0  0
   16.2233   -9.5802  -14.5263 C   0  0  0  0  0  0  0  0  0  0  0  0
   17.5270   -9.4243  -15.2560 C   0  0  2  0  0  0  0  0  0  0  0  0
   18.3373  -10.6152  -15.2346 N   0  0  0  0  0  0  0  0  0  0  0  0
   18.3028   -8.3649  -14.5166 C   0  0  0  0  0  0  0  0  0  0  0  0
   18.8397   -8.7181  -13.4459 O   0  0  0  0  0  0  0  0  0  0  0  0
   10.9323   -8.0894  -15.1392 C   0  0  0  0  0  0  0  0  0  0  0  0
   22.0141   -5.0288  -13.2255 C   0  0  2  0  0  0  0  0  0  0  0  0
   21.3966   -4.7836  -14.5451 C   0  0  0  0  0  0  0  0  0  0  0  0
   22.4924   -4.5979  -15.6060 C   0  0  0  0  0  0  0  0  0  0  0  0
   20.4923   -5.8570  -15.0479 C   0  0  1  0  0  0  0  0  0  0  0  0
   19.2388   -6.0816  -14.2805 N   0  0  0  0  0  0  0  0  0  0  0  0
   18.4287   -7.0519  -14.9838 C   0  0  0  0  0  0  0  0  0  0  0  0
   18.4301   -4.8638  -14.0637 O   0  0  0  0  0  0  0  0  0  0  0  0
   17.4791   -4.6112  -14.8332 O   0  0  0  0  0  0  0  0  0  0  0  0
  1  2  1  0
  2  3  1  0
  3  4  2  0
  3 13  1  0
  6  7  2  0
  6  5  1  0
  8  6  1  0
  9  8  1  0
 10  9  1  0
 11 10  1  0
 12 11  1  1
 12 14  1  0
 13 12  1  0
 14 15  2  0
 17 16  1  1
 17 19  1  0
 18 17  1  0
 20 19  1  1
 20 22  1  0
 21 14  1  0
 21 20  1  0
 22 24  1  0
 23 22  2  0
M  END
$$$$
