GRL.pdb
     RDKit          3D

 24 23  0  0  1  0  0  0  0  0999 V2000
   26.3898  -26.3953  -16.4961 N   0  0  0  0  0  0  0  0  0  0  0  0
   25.8780  -25.0997  -16.8033 C   0  0  0  0  0  0  0  0  0  0  0  0
   25.1724  -24.4667  -15.6592 C   0  0  0  0  0  0  0  0  0  0  0  0
   24.4971  -25.1812  -14.8737 O   0  0  0  0  0  0  0  0  0  0  0  0
   24.1783  -19.4311   -9.5674 N   0  0  0  0  0  0  0  0  0  0  0  0
   23.9186  -20.8405   -9.4916 C   0  0  0  0  0  0  0  0  0  0  0  0
   23.0897  -21.2036   -8.5628 N   0  0  0  0  0  0  0  0  0  0  0  0
   24.5156  -21.7666  -10.3579 N   0  0  0  0  0  0  0  0  0  0  0  0
   25.4569  -21.2869  -11.3528 C   0  0  0  0  0  0  0  0  0  0  0  0
   24.7152  -20.6430  -12.5268 C   0  0  0  0  0  0  0  0  0  0  0  0
   25.3136  -21.2215  -13.7860 C   0  0  0  0  0  0  0  0  0  0  0  0
   24.5911  -22.4508  -14.2587 C   0  0  2  0  0  0  0  0  0  0  0  0
   25.2163  -23.0768  -15.3955 N   0  0  0  0  0  0  0  0  0  0  0  0
   23.2301  -21.9932  -14.7161 C   0  0  0  0  0  0  0  0  0  0  0  0
   23.2077  -21.2078  -15.6868 O   0  0  0  0  0  0  0  0  0  0  0  0
   22.5585  -20.5366   -7.9937 C   0  0  0  0  0  0  0  0  0  0  0  0
   18.6579  -25.1153  -14.5198 C   0  0  2  0  0  0  0  0  0  0  0  0
   19.6919  -24.1375  -14.9170 C   0  0  0  0  0  0  0  0  0  0  0  0
   19.5165  -23.7675  -16.3979 C   0  0  0  0  0  0  0  0  0  0  0  0
   19.7006  -22.8565  -14.1544 C   0  0  2  0  0  0  0  0  0  0  0  0
   20.7623  -21.8789  -14.5121 N   0  0  0  0  0  0  0  0  0  0  0  0
   22.0436  -22.4111  -14.1033 C   0  0  0  0  0  0  0  0  0  0  0  0
   20.5923  -20.5437  -13.9019 O   0  0  0  0  0  0  0  0  0  0  0  0
   21.1700  -20.2804  -12.8261 O   0  0  0  0  0  0  0  0  0  0  0  0
  1  2  1  0
  2  3  1  0
  3  4  2  0
  3 13  1  0
  6  7  2  0
  6  5  1  0
  8  6  1  0
  9  8  1  0
 10  9  1  0
 11 10  1  0
 12 11  1  6
 12 14  1  0
 13 12  1  0
 14 15  2  0
 17 16  1  6
 17 19  1  0
 18 17  1  0
 20 19  1  6
 20 22  1  0
 21 14  1  0
 21 20  1  0
 22 24  1  0
 23 22  2  0
M  END
$$$$
