GRL.pdb
     RDKit          3D

 24 23  0  0  1  0  0  0  0  0999 V2000
   25.4449  -25.6436  -15.8228 N   0  0  0  0  0  0  0  0  0  0  0  0
   25.6996  -24.2602  -15.5857 C   0  0  0  0  0  0  0  0  0  0  0  0
   24.8331  -23.6824  -14.5261 C   0  0  0  0  0  0  0  0  0  0  0  0
   23.7133  -24.2043  -14.2863 O   0  0  0  0  0  0  0  0  0  0  0  0
   21.6162  -22.2158   -7.6869 N   0  0  0  0  0  0  0  0  0  0  0  0
   21.7829  -21.1761   -8.6621 C   0  0  0  0  0  0  0  0  0  0  0  0
   20.7281  -20.8975   -9.3631 N   0  0  0  0  0  0  0  0  0  0  0  0
   22.9983  -20.5038   -8.8498 N   0  0  0  0  0  0  0  0  0  0  0  0
   23.9655  -21.0552   -9.7807 C   0  0  0  0  0  0  0  0  0  0  0  0
   24.0820  -20.1672  -11.0220 C   0  0  0  0  0  0  0  0  0  0  0  0
   25.0204  -20.8721  -11.9714 C   0  0  0  0  0  0  0  0  0  0  0  0
   24.3207  -21.8864  -12.8306 C   0  0  2  0  0  0  0  0  0  0  0  0
   25.2014  -22.5549  -13.7539 N   0  0  0  0  0  0  0  0  0  0  0  0
   23.3258  -21.1214  -13.6648 C   0  0  0  0  0  0  0  0  0  0  0  0
   23.7991  -20.2828  -14.4600 O   0  0  0  0  0  0  0  0  0  0  0  0
   20.7274  -20.2138  -10.1270 C   0  0  0  0  0  0  0  0  0  0  0  0
   18.3933  -20.6687  -16.1011 C   0  0  2  0  0  0  0  0  0  0  0  0
   19.7190  -21.0906  -16.5982 C   0  0  0  0  0  0  0  0  0  0  0  0
   20.4158  -19.9086  -17.2896 C   0  0  0  0  0  0  0  0  0  0  0  0
   20.6665  -21.6013  -15.5665 C   0  0  2  0  0  0  0  0  0  0  0  0
   21.0289  -20.6594  -14.4746 N   0  0  0  0  0  0  0  0  0  0  0  0
   21.9441  -21.3220  -13.5715 C   0  0  0  0  0  0  0  0  0  0  0  0
   19.8781  -20.1596  -13.6936 O   0  0  0  0  0  0  0  0  0  0  0  0
   19.4064  -20.8616  -12.7744 O   0  0  0  0  0  0  0  0  0  0  0  0
  1  2  1  0
  2  3  1  0
  3  4  2  0
  3 13  1  0
  6  7  2  0
  6  5  1  0
  8  6  1  0
  9  8  1  0
 10  9  1  0
 11 10  1  0
 12 11  1  1
 12 14  1  0
 13 12  1  0
 14 15  2  0
 17 16  1  6
 17 19  1  0
 18 17  1  0
 20 19  1  6
 20 22  1  0
 21 14  1  0
 21 20  1  0
 22 24  1  0
 23 22  2  0
M  END
$$$$
