GRL.pdb
     RDKit          3D

 24 23  0  0  1  0  0  0  0  0999 V2000
   18.5273  -33.9924   -6.2468 N   0  0  0  0  0  0  0  0  0  0  0  0
   17.6478  -32.9431   -6.6470 C   0  0  0  0  0  0  0  0  0  0  0  0
   18.2337  -31.5904   -6.4615 C   0  0  0  0  0  0  0  0  0  0  0  0
   19.3912  -31.4754   -5.9813 O   0  0  0  0  0  0  0  0  0  0  0  0
   16.3703  -23.5184  -10.0569 N   0  0  0  0  0  0  0  0  0  0  0  0
   17.7801  -23.7414   -9.9078 C   0  0  0  0  0  0  0  0  0  0  0  0
   18.5412  -23.0084  -10.6595 N   0  0  0  0  0  0  0  0  0  0  0  0
   18.3057  -24.6842   -9.0137 N   0  0  0  0  0  0  0  0  0  0  0  0
   17.6842  -25.9930   -8.9328 C   0  0  0  0  0  0  0  0  0  0  0  0
   18.3544  -26.8392   -7.8476 C   0  0  0  0  0  0  0  0  0  0  0  0
   17.6388  -28.1682   -7.8320 C   0  0  0  0  0  0  0  0  0  0  0  0
   18.1468  -29.0868   -6.7574 C   0  0  2  0  0  0  0  0  0  0  0  0
   17.5512  -30.3977   -6.8006 N   0  0  0  0  0  0  0  0  0  0  0  0
   17.7351  -28.4721   -5.4445 C   0  0  0  0  0  0  0  0  0  0  0  0
   16.5183  -28.5211   -5.1679 O   0  0  0  0  0  0  0  0  0  0  0  0
   19.5643  -23.0746  -10.6550 C   0  0  0  0  0  0  0  0  0  0  0  0
   18.7299  -27.5011    0.0187 C   0  0  2  0  0  0  0  0  0  0  0  0
   19.1126  -26.5745   -1.0666 C   0  0  0  0  0  0  0  0  0  0  0  0
   20.3963  -25.8234   -0.6808 C   0  0  0  0  0  0  0  0  0  0  0  0
   19.3668  -27.2011   -2.3953 C   0  0  1  0  0  0  0  0  0  0  0  0
   18.2092  -27.2767   -3.3253 N   0  0  0  0  0  0  0  0  0  0  0  0
   18.6471  -27.8741   -4.5677 C   0  0  0  0  0  0  0  0  0  0  0  0
   17.5830  -25.9724   -3.6266 O   0  0  0  0  0  0  0  0  0  0  0  0
   18.0188  -25.2844   -4.5737 O   0  0  0  0  0  0  0  0  0  0  0  0
  1  2  1  0
  2  3  1  0
  3  4  2  0
  3 13  1  0
  6  7  2  0
  6  5  1  0
  8  6  1  0
  9  8  1  0
 10  9  1  0
 11 10  1  0
 12 11  1  6
 12 14  1  0
 13 12  1  0
 14 15  2  0
 17 16  1  1
 17 19  1  0
 18 17  1  0
 20 19  1  1
 20 22  1  0
 21 14  1  0
 21 20  1  0
 22 24  1  0
 23 22  2  0
M  END
$$$$
