GRL.pdb
     RDKit          3D

 24 23  0  0  1  0  0  0  0  0999 V2000
   20.1967  -20.2142  -10.9332 N   0  0  0  0  0  0  0  0  0  0  0  0
   21.3883  -19.4430  -10.7905 C   0  0  0  0  0  0  0  0  0  0  0  0
   22.5949  -20.2758  -10.5495 C   0  0  0  0  0  0  0  0  0  0  0  0
   22.6306  -21.0439   -9.5533 O   0  0  0  0  0  0  0  0  0  0  0  0
   25.4981  -25.3353  -14.3396 N   0  0  0  0  0  0  0  0  0  0  0  0
   24.4621  -24.5709  -14.9737 C   0  0  0  0  0  0  0  0  0  0  0  0
   23.3716  -25.2223  -15.2347 N   0  0  0  0  0  0  0  0  0  0  0  0
   24.6112  -23.2141  -15.2921 N   0  0  0  0  0  0  0  0  0  0  0  0
   25.5881  -22.4280  -14.5615 C   0  0  0  0  0  0  0  0  0  0  0  0
   24.8904  -21.3834  -13.6868 C   0  0  0  0  0  0  0  0  0  0  0  0
   25.7279  -21.2348  -12.4397 C   0  0  0  0  0  0  0  0  0  0  0  0
   24.8960  -21.0802  -11.1986 C   0  0  2  0  0  0  0  0  0  0  0  0
   23.7312  -20.2552  -11.3931 N   0  0  0  0  0  0  0  0  0  0  0  0
   25.7629  -20.3674  -10.1929 C   0  0  0  0  0  0  0  0  0  0  0  0
   25.8569  -19.1288  -10.3226 O   0  0  0  0  0  0  0  0  0  0  0  0
   22.6050  -24.8311  -15.7919 C   0  0  0  0  0  0  0  0  0  0  0  0
   27.5880  -20.7352   -4.7711 C   0  0  2  0  0  0  0  0  0  0  0  0
   27.3551  -20.2106   -6.1325 C   0  0  0  0  0  0  0  0  0  0  0  0
   28.0274  -18.8372   -6.2829 C   0  0  0  0  0  0  0  0  0  0  0  0
   27.8602  -21.0585   -7.2499 C   0  0  2  0  0  0  0  0  0  0  0  0
   27.6763  -20.5226   -8.6246 N   0  0  0  0  0  0  0  0  0  0  0  0
   26.4350  -21.0343   -9.1627 C   0  0  0  0  0  0  0  0  0  0  0  0
   28.7683  -20.8596   -9.5616 O   0  0  0  0  0  0  0  0  0  0  0  0
   28.6769  -21.8838  -10.2709 O   0  0  0  0  0  0  0  0  0  0  0  0
  1  2  1  0
  2  3  1  0
  3  4  2  0
  3 13  1  0
  6  7  2  0
  6  5  1  0
  8  6  1  0
  9  8  1  0
 10  9  1  0
 11 10  1  0
 12 11  1  6
 12 14  1  0
 13 12  1  0
 14 15  2  0
 17 16  1  1
 17 19  1  0
 18 17  1  0
 20 19  1  1
 20 22  1  0
 21 14  1  0
 21 20  1  0
 22 24  1  0
 23 22  2  0
M  END
$$$$
