MEY.pdb
     RDKit          3D

 30 30  0  0  1  0  0  0  0  0999 V2000
    8.0209  -11.7136   21.5547 C   0  0  0  0  0  0  0  0  0  0  0  0
    7.5369  -13.3200   20.8858 S   0  0  0  0  0  0  0  0  0  0  0  0
    6.7346  -14.3202   22.1890 C   0  0  0  0  0  0  0  0  0  0  0  0
    6.2531  -15.5845   21.5612 C   0  0  0  0  0  0  0  0  0  0  0  0
    7.3795  -16.3300   20.8881 C   0  0  2  0  0  0  0  0  0  0  0  0
    6.7353  -17.5537   20.3439 N   0  0  0  0  0  0  0  0  0  0  0  0
    8.3535  -16.8012   21.9008 C   0  0  0  0  0  0  0  0  0  0  0  0
    7.9657  -17.5709   22.8036 O   0  0  0  0  0  0  0  0  0  0  0  0
    9.7220  -16.4154   21.8940 N   0  0  0  0  0  0  0  0  0  0  0  0
   10.6935  -16.8268   22.9056 C   0  0  1  0  0  0  0  0  0  0  0  0
   12.0787  -16.8413   22.3737 C   0  0  0  0  0  0  0  0  0  0  0  0
   13.1637  -17.3177   23.2519 C   0  0  0  0  0  0  0  0  0  0  0  0
   14.5359  -17.3382   22.7610 C   0  0  0  0  0  0  0  0  0  0  0  0
   14.9542  -17.9771   21.7838 O   0  0  0  0  0  0  0  0  0  0  0  0
   10.5119  -16.2497   24.2175 C   0  0  0  0  0  0  0  0  0  0  0  0
   10.9068  -15.1096   24.5814 O   0  0  0  0  0  0  0  0  0  0  0  0
   15.4525  -16.5358   23.5004 O   0  0  0  0  0  0  0  0  0  0  0  0
    6.6308  -11.1014   25.3903 O   0  0  0  0  0  0  0  0  0  0  0  0
    7.0297  -12.3883   25.7617 C   0  0  0  0  0  0  0  0  0  0  0  0
    8.1436  -12.6007   26.5444 C   0  0  0  0  0  0  0  0  0  0  0  0
    8.5320  -13.8664   26.9068 C   0  0  0  0  0  0  0  0  0  0  0  0
    7.8137  -14.9961   26.4968 C   0  0  0  0  0  0  0  0  0  0  0  0
    8.2516  -16.3576   26.9045 C   0  0  0  0  0  0  0  0  0  0  0  0
    9.7377  -16.5883   26.5880 C   0  0  2  0  0  0  0  0  0  0  0  0
    9.8146  -17.0275   25.2120 N   0  0  0  0  0  0  0  0  0  0  0  0
   10.2095  -17.6876   27.4623 C   0  0  0  0  0  0  0  0  0  0  0  0
   10.2716  -17.5866   28.7159 O   0  0  0  0  0  0  0  0  0  0  0  0
    6.6992  -14.7962   25.7149 C   0  0  0  0  0  0  0  0  0  0  0  0
    6.3337  -13.4992   25.3660 C   0  0  0  0  0  0  0  0  0  0  0  0
   10.6118  -18.9032   26.9275 O   0  0  0  0  0  0  0  0  0  0  0  0
  2  1  1  0
  2  3  1  0
  4  3  1  0
  5  4  1  0
  5  6  1  1
  7  8  2  0
  7  5  1  0
  9  7  1  0
 10  9  1  0
 10 11  1  6
 11 12  1  0
 13 17  1  0
 13 12  1  0
 14 13  2  0
 15 16  2  0
 15 10  1  0
 18 19  1  0
 19 20  2  0
 20 21  1  0
 22 23  1  0
 22 21  2  0
 24 23  1  1
 24 25  1  0
 25 15  1  0
 26 24  1  0
 27 26  2  0
 28 22  1  0
 29 28  2  0
 29 19  1  0
 30 26  1  0
M  END
$$$$
