MEY.pdb
     RDKit          3D

 30 30  0  0  1  0  0  0  0  0999 V2000
    8.2545  -11.7578   19.6877 C   0  0  0  0  0  0  0  0  0  0  0  0
    7.2391  -12.8168   18.6344 S   0  0  0  0  0  0  0  0  0  0  0  0
    8.0543  -14.4380   18.4120 C   0  0  0  0  0  0  0  0  0  0  0  0
    8.2591  -15.0342   19.7637 C   0  0  0  0  0  0  0  0  0  0  0  0
    9.6213  -15.6726   19.8843 C   0  0  2  0  0  0  0  0  0  0  0  0
    9.6265  -16.7256   18.8356 N   0  0  0  0  0  0  0  0  0  0  0  0
    9.7345  -16.3880   21.1772 C   0  0  0  0  0  0  0  0  0  0  0  0
    9.3299  -15.8291   22.2173 O   0  0  0  0  0  0  0  0  0  0  0  0
   10.2868  -17.6931   21.2916 N   0  0  0  0  0  0  0  0  0  0  0  0
   10.6150  -18.3345   22.5634 C   0  0  1  0  0  0  0  0  0  0  0  0
   11.6600  -19.3765   22.4079 C   0  0  0  0  0  0  0  0  0  0  0  0
   12.9501  -18.9933   21.8045 C   0  0  0  0  0  0  0  0  0  0  0  0
   14.1113  -19.8588   21.9685 C   0  0  0  0  0  0  0  0  0  0  0  0
   14.4545  -20.7754   21.2068 O   0  0  0  0  0  0  0  0  0  0  0  0
   10.7527  -17.4460   23.6942 C   0  0  0  0  0  0  0  0  0  0  0  0
   11.5698  -16.4908   23.7846 O   0  0  0  0  0  0  0  0  0  0  0  0
   14.9009  -19.5950   23.1251 O   0  0  0  0  0  0  0  0  0  0  0  0
    6.1270  -11.2850   27.4019 O   0  0  0  0  0  0  0  0  0  0  0  0
    6.7052  -12.3677   26.7336 C   0  0  0  0  0  0  0  0  0  0  0  0
    5.9766  -13.4941   26.4195 C   0  0  0  0  0  0  0  0  0  0  0  0
    6.5483  -14.5555   25.7631 C   0  0  0  0  0  0  0  0  0  0  0  0
    7.8962  -14.5397   25.3846 C   0  0  0  0  0  0  0  0  0  0  0  0
    8.4932  -15.6999   24.6712 C   0  0  0  0  0  0  0  0  0  0  0  0
    9.3903  -16.5310   25.6020 C   0  0  2  0  0  0  0  0  0  0  0  0
    9.8843  -17.6484   24.8279 N   0  0  0  0  0  0  0  0  0  0  0  0
    8.5322  -17.0529   26.6913 C   0  0  0  0  0  0  0  0  0  0  0  0
    8.3858  -16.4589   27.7919 O   0  0  0  0  0  0  0  0  0  0  0  0
    8.6337  -13.4197   25.6929 C   0  0  0  0  0  0  0  0  0  0  0  0
    8.0223  -12.3616   26.3591 C   0  0  0  0  0  0  0  0  0  0  0  0
    7.8362  -18.2445   26.5439 O   0  0  0  0  0  0  0  0  0  0  0  0
  2  1  1  0
  2  3  1  0
  4  3  1  0
  5  4  1  0
  5  6  1  6
  7  8  2  0
  7  5  1  0
  9  7  1  0
 10  9  1  0
 10 11  1  6
 11 12  1  0
 13 17  1  0
 13 12  1  0
 14 13  2  0
 15 16  2  0
 15 10  1  0
 18 19  1  0
 19 20  2  0
 20 21  1  0
 22 23  1  0
 22 21  2  0
 24 23  1  6
 24 25  1  0
 25 15  1  0
 26 24  1  0
 27 26  2  0
 28 22  1  0
 29 28  2  0
 29 19  1  0
 30 26  1  0
M  END
$$$$
