MEY.pdb
     RDKit          3D

 30 30  0  0  1  0  0  0  0  0999 V2000
    6.7211  -12.4502   20.3815 C   0  0  0  0  0  0  0  0  0  0  0  0
    7.1138  -12.2917   18.6258 S   0  0  0  0  0  0  0  0  0  0  0  0
    8.1065  -13.7262   18.0786 C   0  0  0  0  0  0  0  0  0  0  0  0
    8.5152  -14.4877   19.2941 C   0  0  0  0  0  0  0  0  0  0  0  0
    9.9977  -14.7706   19.2952 C   0  0  2  0  0  0  0  0  0  0  0  0
   10.2191  -15.5685   18.0610 N   0  0  0  0  0  0  0  0  0  0  0  0
   10.3431  -15.6664   20.4240 C   0  0  0  0  0  0  0  0  0  0  0  0
   10.1392  -15.2768   21.5922 O   0  0  0  0  0  0  0  0  0  0  0  0
   10.9009  -16.9612   20.2394 N   0  0  0  0  0  0  0  0  0  0  0  0
   11.2918  -17.8478   21.3338 C   0  0  1  0  0  0  0  0  0  0  0  0
   12.1721  -18.9489   20.8708 C   0  0  0  0  0  0  0  0  0  0  0  0
   12.5602  -19.9924   21.8382 C   0  0  0  0  0  0  0  0  0  0  0  0
   13.4293  -21.0836   21.4160 C   0  0  0  0  0  0  0  0  0  0  0  0
   13.2121  -22.2946   21.5719 O   0  0  0  0  0  0  0  0  0  0  0  0
   11.6709  -17.1922   22.5641 C   0  0  0  0  0  0  0  0  0  0  0  0
   12.7381  -16.5503   22.7577 O   0  0  0  0  0  0  0  0  0  0  0  0
   14.6318  -20.6795   20.7668 O   0  0  0  0  0  0  0  0  0  0  0  0
   10.6203  -14.0612   30.8130 O   0  0  0  0  0  0  0  0  0  0  0  0
   10.4080  -14.6134   29.5469 C   0  0  0  0  0  0  0  0  0  0  0  0
   10.3147  -13.8236   28.4217 C   0  0  0  0  0  0  0  0  0  0  0  0
   10.1061  -14.3700   27.1799 C   0  0  0  0  0  0  0  0  0  0  0  0
    9.9787  -15.7530   27.0027 C   0  0  0  0  0  0  0  0  0  0  0  0
    9.7564  -16.3227   25.6471 C   0  0  0  0  0  0  0  0  0  0  0  0
   11.0863  -16.6547   24.9521 C   0  0  2  0  0  0  0  0  0  0  0  0
   10.7598  -17.2609   23.6801 N   0  0  0  0  0  0  0  0  0  0  0  0
   11.7831  -17.6589   25.7896 C   0  0  0  0  0  0  0  0  0  0  0  0
   12.7063  -17.3594   26.5918 O   0  0  0  0  0  0  0  0  0  0  0  0
   10.0704  -16.5518   28.1194 C   0  0  0  0  0  0  0  0  0  0  0  0
   10.2825  -15.9645   29.3634 C   0  0  0  0  0  0  0  0  0  0  0  0
   11.4417  -19.0025   25.7264 O   0  0  0  0  0  0  0  0  0  0  0  0
  2  1  1  0
  2  3  1  0
  4  3  1  0
  5  4  1  0
  5  6  1  6
  7  8  2  0
  7  5  1  0
  9  7  1  0
 10  9  1  0
 10 11  1  6
 11 12  1  0
 13 17  1  0
 13 12  1  0
 14 13  2  0
 15 16  2  0
 15 10  1  0
 18 19  1  0
 19 20  2  0
 20 21  1  0
 22 23  1  0
 22 21  2  0
 24 23  1  1
 24 25  1  0
 25 15  1  0
 26 24  1  0
 27 26  2  0
 28 22  1  0
 29 28  2  0
 29 19  1  0
 30 26  1  0
M  END
$$$$
