MEY.pdb
     RDKit          3D

 30 30  0  0  1  0  0  0  0  0999 V2000
    8.1686  -11.4208   20.8974 C   0  0  0  0  0  0  0  0  0  0  0  0
    6.7090  -12.3438   20.3686 S   0  0  0  0  0  0  0  0  0  0  0  0
    7.1620  -14.0820   20.0281 C   0  0  0  0  0  0  0  0  0  0  0  0
    7.8273  -14.6265   21.2468 C   0  0  0  0  0  0  0  0  0  0  0  0
    8.2108  -16.0749   21.0653 C   0  0  2  0  0  0  0  0  0  0  0  0
    6.9136  -16.7775   20.8857 N   0  0  0  0  0  0  0  0  0  0  0  0
    8.7899  -16.6083   22.3208 C   0  0  0  0  0  0  0  0  0  0  0  0
    8.0466  -17.2058   23.1260 O   0  0  0  0  0  0  0  0  0  0  0  0
   10.1648  -16.4712   22.6562 N   0  0  0  0  0  0  0  0  0  0  0  0
   10.8008  -17.1367   23.7916 C   0  0  1  0  0  0  0  0  0  0  0  0
   12.0537  -17.8290   23.4007 C   0  0  0  0  0  0  0  0  0  0  0  0
   12.0813  -18.5628   22.1216 C   0  0  0  0  0  0  0  0  0  0  0  0
   13.2553  -18.4755   21.2623 C   0  0  0  0  0  0  0  0  0  0  0  0
   14.3612  -18.0119   21.5789 O   0  0  0  0  0  0  0  0  0  0  0  0
   10.8394  -16.3769   25.0197 C   0  0  0  0  0  0  0  0  0  0  0  0
   11.3826  -15.2498   25.1713 O   0  0  0  0  0  0  0  0  0  0  0  0
   13.0748  -18.9808   19.9421 O   0  0  0  0  0  0  0  0  0  0  0  0
    6.5182  -11.7223   25.0919 O   0  0  0  0  0  0  0  0  0  0  0  0
    7.1042  -12.7745   25.8008 C   0  0  0  0  0  0  0  0  0  0  0  0
    8.1833  -12.5712   26.6330 C   0  0  0  0  0  0  0  0  0  0  0  0
    8.7559  -13.6076   27.3275 C   0  0  0  0  0  0  0  0  0  0  0  0
    8.2687  -14.9158   27.2202 C   0  0  0  0  0  0  0  0  0  0  0  0
    8.9031  -16.0223   27.9850 C   0  0  0  0  0  0  0  0  0  0  0  0
   10.3271  -16.3081   27.4827 C   0  0  2  0  0  0  0  0  0  0  0  0
   10.2009  -16.9361   26.1858 N   0  0  0  0  0  0  0  0  0  0  0  0
   10.9392  -17.2784   28.4204 C   0  0  0  0  0  0  0  0  0  0  0  0
   11.1953  -18.4696   28.1024 O   0  0  0  0  0  0  0  0  0  0  0  0
    7.1910  -15.1308   26.3922 C   0  0  0  0  0  0  0  0  0  0  0  0
    6.6347  -14.0571   25.7028 C   0  0  0  0  0  0  0  0  0  0  0  0
   11.2650  -16.9099   29.7180 O   0  0  0  0  0  0  0  0  0  0  0  0
  2  1  1  0
  2  3  1  0
  4  3  1  0
  5  4  1  0
  5  6  1  1
  7  8  2  0
  7  5  1  0
  9  7  1  0
 10  9  1  0
 10 11  1  6
 11 12  1  0
 13 17  1  0
 13 12  1  0
 14 13  2  0
 15 16  2  0
 15 10  1  0
 18 19  1  0
 19 20  2  0
 20 21  1  0
 22 23  1  0
 22 21  2  0
 24 23  1  1
 24 25  1  0
 25 15  1  0
 26 24  1  0
 27 26  2  0
 28 22  1  0
 29 28  2  0
 29 19  1  0
 30 26  1  0
M  END
$$$$
