MEY.pdb
     RDKit          3D

 30 30  0  0  1  0  0  0  0  0999 V2000
    8.6277  -11.4925   20.3916 C   0  0  0  0  0  0  0  0  0  0  0  0
    7.0589  -12.2251   19.8775 S   0  0  0  0  0  0  0  0  0  0  0  0
    7.2835  -14.0098   19.5505 C   0  0  0  0  0  0  0  0  0  0  0  0
    7.8147  -14.6377   20.7947 C   0  0  0  0  0  0  0  0  0  0  0  0
    8.2868  -16.0487   20.5423 C   0  0  2  0  0  0  0  0  0  0  0  0
    7.0485  -16.7919   20.1911 N   0  0  0  0  0  0  0  0  0  0  0  0
    8.7782  -16.6533   21.8029 C   0  0  0  0  0  0  0  0  0  0  0  0
    7.9504  -17.0605   22.6436 O   0  0  0  0  0  0  0  0  0  0  0  0
   10.1606  -16.7935   22.1043 N   0  0  0  0  0  0  0  0  0  0  0  0
   10.6747  -17.4763   23.2901 C   0  0  1  0  0  0  0  0  0  0  0  0
   11.9382  -18.2024   23.0102 C   0  0  0  0  0  0  0  0  0  0  0  0
   12.5399  -19.0075   24.0897 C   0  0  0  0  0  0  0  0  0  0  0  0
   13.7847  -19.7263   23.8486 C   0  0  0  0  0  0  0  0  0  0  0  0
   14.7993  -19.6923   24.5610 O   0  0  0  0  0  0  0  0  0  0  0  0
   10.6245  -16.7181   24.5188 C   0  0  0  0  0  0  0  0  0  0  0  0
   11.2436  -15.6444   24.7470 O   0  0  0  0  0  0  0  0  0  0  0  0
   13.7970  -20.5331   22.6740 O   0  0  0  0  0  0  0  0  0  0  0  0
    6.8735  -11.1746   25.5797 O   0  0  0  0  0  0  0  0  0  0  0  0
    7.2679  -12.4393   26.0250 C   0  0  0  0  0  0  0  0  0  0  0  0
    8.2396  -12.5940   26.9894 C   0  0  0  0  0  0  0  0  0  0  0  0
    8.6240  -13.8380   27.4240 C   0  0  0  0  0  0  0  0  0  0  0  0
    8.0460  -15.0033   26.9061 C   0  0  0  0  0  0  0  0  0  0  0  0
    8.4761  -16.3405   27.3946 C   0  0  0  0  0  0  0  0  0  0  0  0
    9.9015  -16.6770   26.9289 C   0  0  2  0  0  0  0  0  0  0  0  0
    9.7943  -17.2125   25.5896 N   0  0  0  0  0  0  0  0  0  0  0  0
   10.4184  -17.7394   27.8230 C   0  0  0  0  0  0  0  0  0  0  0  0
   10.6609  -18.9098   27.4267 O   0  0  0  0  0  0  0  0  0  0  0  0
    7.0740  -14.8610   25.9424 C   0  0  0  0  0  0  0  0  0  0  0  0
    6.7082  -13.5846   25.5249 C   0  0  0  0  0  0  0  0  0  0  0  0
   10.6642  -17.4867   29.1652 O   0  0  0  0  0  0  0  0  0  0  0  0
  2  1  1  0
  2  3  1  0
  4  3  1  0
  5  4  1  0
  5  6  1  1
  7  8  2  0
  7  5  1  0
  9  7  1  0
 10  9  1  0
 10 11  1  6
 11 12  1  0
 13 17  1  0
 13 12  1  0
 14 13  2  0
 15 16  2  0
 15 10  1  0
 18 19  1  0
 19 20  2  0
 20 21  1  0
 22 23  1  0
 22 21  2  0
 24 23  1  1
 24 25  1  0
 25 15  1  0
 26 24  1  0
 27 26  2  0
 28 22  1  0
 29 28  2  0
 29 19  1  0
 30 26  1  0
M  END
$$$$
