MEY.pdb
     RDKit          3D

 30 30  0  0  1  0  0  0  0  0999 V2000
    6.9224  -12.0454   17.9631 C   0  0  0  0  0  0  0  0  0  0  0  0
    7.5157  -13.3748   19.0321 S   0  0  0  0  0  0  0  0  0  0  0  0
    6.2134  -13.8393   20.2282 C   0  0  0  0  0  0  0  0  0  0  0  0
    6.7767  -14.8828   21.1327 C   0  0  0  0  0  0  0  0  0  0  0  0
    8.1472  -14.4971   21.6334 C   0  0  2  0  0  0  0  0  0  0  0  0
    9.0255  -14.6395   20.4430 N   0  0  0  0  0  0  0  0  0  0  0  0
    8.6297  -15.4975   22.6146 C   0  0  0  0  0  0  0  0  0  0  0  0
    7.9787  -15.6816   23.6634 O   0  0  0  0  0  0  0  0  0  0  0  0
    9.8099  -16.2655   22.4173 N   0  0  0  0  0  0  0  0  0  0  0  0
   10.3463  -17.2083   23.3970 C   0  0  1  0  0  0  0  0  0  0  0  0
   11.4570  -18.0189   22.8393 C   0  0  0  0  0  0  0  0  0  0  0  0
   12.0848  -19.0380   23.7011 C   0  0  0  0  0  0  0  0  0  0  0  0
   13.2311  -19.7934   23.2114 C   0  0  0  0  0  0  0  0  0  0  0  0
   14.2599  -19.3180   22.7078 O   0  0  0  0  0  0  0  0  0  0  0  0
   10.5358  -16.6842   24.7299 C   0  0  0  0  0  0  0  0  0  0  0  0
   11.2890  -15.7235   25.0430 O   0  0  0  0  0  0  0  0  0  0  0  0
   13.1205  -21.2082   23.3413 O   0  0  0  0  0  0  0  0  0  0  0  0
    6.3206  -11.7394   25.6350 O   0  0  0  0  0  0  0  0  0  0  0  0
    6.8605  -12.9239   26.1436 C   0  0  0  0  0  0  0  0  0  0  0  0
    6.2736  -14.1467   25.9014 C   0  0  0  0  0  0  0  0  0  0  0  0
    6.8071  -15.3078   26.4029 C   0  0  0  0  0  0  0  0  0  0  0  0
    7.9701  -15.2999   27.1824 C   0  0  0  0  0  0  0  0  0  0  0  0
    8.5319  -16.5708   27.7124 C   0  0  0  0  0  0  0  0  0  0  0  0
    9.9477  -16.8276   27.1726 C   0  0  2  0  0  0  0  0  0  0  0  0
    9.8037  -17.2958   25.8116 N   0  0  0  0  0  0  0  0  0  0  0  0
   10.5396  -17.9150   27.9866 C   0  0  0  0  0  0  0  0  0  0  0  0
   10.8107  -17.7849   29.2094 O   0  0  0  0  0  0  0  0  0  0  0  0
    8.5652  -14.0843   27.4308 C   0  0  0  0  0  0  0  0  0  0  0  0
    7.9975  -12.9265   26.9066 C   0  0  0  0  0  0  0  0  0  0  0  0
   10.8273  -19.1515   27.4262 O   0  0  0  0  0  0  0  0  0  0  0  0
  2  1  1  0
  2  3  1  0
  4  3  1  0
  5  4  1  0
  5  6  1  6
  7  8  2  0
  7  5  1  0
  9  7  1  0
 10  9  1  0
 10 11  1  6
 11 12  1  0
 13 17  1  0
 13 12  1  0
 14 13  2  0
 15 16  2  0
 15 10  1  0
 18 19  1  0
 19 20  2  0
 20 21  1  0
 22 23  1  0
 22 21  2  0
 24 23  1  1
 24 25  1  0
 25 15  1  0
 26 24  1  0
 27 26  2  0
 28 22  1  0
 29 28  2  0
 29 19  1  0
 30 26  1  0
M  END
$$$$
