MEY.pdb
     RDKit          3D

 30 30  0  0  1  0  0  0  0  0999 V2000
    6.6815  -12.0271   26.2120 C   0  0  0  0  0  0  0  0  0  0  0  0
    6.5456  -12.6509   24.5225 S   0  0  0  0  0  0  0  0  0  0  0  0
    7.2706  -14.3260   24.4178 C   0  0  0  0  0  0  0  0  0  0  0  0
    6.1758  -15.2751   24.0641 C   0  0  0  0  0  0  0  0  0  0  0  0
    6.4165  -15.9187   22.7204 C   0  0  2  0  0  0  0  0  0  0  0  0
    5.4099  -17.0099   22.6514 N   0  0  0  0  0  0  0  0  0  0  0  0
    7.7394  -16.5866   22.7067 C   0  0  0  0  0  0  0  0  0  0  0  0
    7.9389  -17.5534   23.4705 O   0  0  0  0  0  0  0  0  0  0  0  0
    8.8030  -16.1756   21.8573 N   0  0  0  0  0  0  0  0  0  0  0  0
   10.1723  -16.6766   21.9592 C   0  0  1  0  0  0  0  0  0  0  0  0
   10.8713  -16.6564   20.6504 C   0  0  0  0  0  0  0  0  0  0  0  0
   12.2661  -17.1320   20.5913 C   0  0  0  0  0  0  0  0  0  0  0  0
   12.9671  -17.1620   19.3138 C   0  0  0  0  0  0  0  0  0  0  0  0
   12.5127  -16.7918   18.2208 O   0  0  0  0  0  0  0  0  0  0  0  0
   10.9252  -16.2097   23.1003 C   0  0  0  0  0  0  0  0  0  0  0  0
   11.1470  -15.0040   23.3927 O   0  0  0  0  0  0  0  0  0  0  0  0
   14.2969  -17.6712   19.3678 O   0  0  0  0  0  0  0  0  0  0  0  0
   11.4445  -15.1798   31.5561 O   0  0  0  0  0  0  0  0  0  0  0  0
   11.2268  -15.4619   30.2047 C   0  0  0  0  0  0  0  0  0  0  0  0
   10.9358  -16.7372   29.7717 C   0  0  0  0  0  0  0  0  0  0  0  0
   10.7227  -17.0101   28.4434 C   0  0  0  0  0  0  0  0  0  0  0  0
   10.7921  -16.0049   27.4712 C   0  0  0  0  0  0  0  0  0  0  0  0
   10.5543  -16.3235   26.0382 C   0  0  0  0  0  0  0  0  0  0  0  0
   11.8295  -16.8489   25.3602 C   0  0  2  0  0  0  0  0  0  0  0  0
   11.4755  -17.1930   24.0006 N   0  0  0  0  0  0  0  0  0  0  0  0
   12.2301  -18.0852   26.0718 C   0  0  0  0  0  0  0  0  0  0  0  0
   11.6463  -19.1889   25.9085 O   0  0  0  0  0  0  0  0  0  0  0  0
   11.0818  -14.7273   27.8920 C   0  0  0  0  0  0  0  0  0  0  0  0
   11.2921  -14.4858   29.2466 C   0  0  0  0  0  0  0  0  0  0  0  0
   13.2893  -18.0822   26.9685 O   0  0  0  0  0  0  0  0  0  0  0  0
  2  1  1  0
  2  3  1  0
  4  3  1  0
  5  4  1  0
  5  6  1  1
  7  8  2  0
  7  5  1  0
  9  7  1  0
 10  9  1  0
 10 11  1  6
 11 12  1  0
 13 17  1  0
 13 12  1  0
 14 13  2  0
 15 16  2  0
 15 10  1  0
 18 19  1  0
 19 20  2  0
 20 21  1  0
 22 23  1  0
 22 21  2  0
 24 23  1  1
 24 25  1  0
 25 15  1  0
 26 24  1  0
 27 26  2  0
 28 22  1  0
 29 28  2  0
 29 19  1  0
 30 26  1  0
M  END
$$$$
