MEY.pdb
     RDKit          3D

 30 30  0  0  1  0  0  0  0  0999 V2000
    7.3527  -11.0159   25.4377 C   0  0  0  0  0  0  0  0  0  0  0  0
    6.2106  -12.4150   25.4511 S   0  0  0  0  0  0  0  0  0  0  0  0
    7.1491  -13.9840   25.4600 C   0  0  0  0  0  0  0  0  0  0  0  0
    6.1644  -15.1040   25.4435 C   0  0  0  0  0  0  0  0  0  0  0  0
    6.0670  -15.7326   24.0749 C   0  0  2  0  0  0  0  0  0  0  0  0
    5.0936  -16.8419   24.2497 N   0  0  0  0  0  0  0  0  0  0  0  0
    7.3538  -16.3753   23.7182 C   0  0  0  0  0  0  0  0  0  0  0  0
    7.7762  -17.3176   24.4193 O   0  0  0  0  0  0  0  0  0  0  0  0
    8.1384  -15.9669   22.6050 N   0  0  0  0  0  0  0  0  0  0  0  0
    9.4340  -16.5486   22.2592 C   0  0  1  0  0  0  0  0  0  0  0  0
    9.8014  -16.2883   20.8453 C   0  0  0  0  0  0  0  0  0  0  0  0
   11.1351  -16.7094   20.3769 C   0  0  0  0  0  0  0  0  0  0  0  0
   11.5223  -16.4765   18.9912 C   0  0  0  0  0  0  0  0  0  0  0  0
   11.6033  -17.3349   18.0997 O   0  0  0  0  0  0  0  0  0  0  0  0
   10.4796  -16.3734   23.2406 C   0  0  0  0  0  0  0  0  0  0  0  0
   11.4531  -15.5788   23.1452 O   0  0  0  0  0  0  0  0  0  0  0  0
   11.8289  -15.1223   18.6706 O   0  0  0  0  0  0  0  0  0  0  0  0
   12.1941  -15.6326   31.8950 O   0  0  0  0  0  0  0  0  0  0  0  0
   11.6534  -15.8419   30.6234 C   0  0  0  0  0  0  0  0  0  0  0  0
   11.3150  -17.1024   30.1818 C   0  0  0  0  0  0  0  0  0  0  0  0
   10.7842  -17.3036   28.9320 C   0  0  0  0  0  0  0  0  0  0  0  0
   10.5639  -16.2373   28.0519 C   0  0  0  0  0  0  0  0  0  0  0  0
    9.9845  -16.4789   26.7037 C   0  0  0  0  0  0  0  0  0  0  0  0
   11.0816  -16.7317   25.6577 C   0  0  2  0  0  0  0  0  0  0  0  0
   10.4203  -17.1633   24.4459 N   0  0  0  0  0  0  0  0  0  0  0  0
   11.9219  -17.8441   26.1597 C   0  0  0  0  0  0  0  0  0  0  0  0
   13.0693  -17.6689   26.6479 O   0  0  0  0  0  0  0  0  0  0  0  0
   10.8978  -14.9736   28.4823 C   0  0  0  0  0  0  0  0  0  0  0  0
   11.4339  -14.8055   29.7557 C   0  0  0  0  0  0  0  0  0  0  0  0
   11.4722  -19.1561   26.1140 O   0  0  0  0  0  0  0  0  0  0  0  0
  2  1  1  0
  2  3  1  0
  4  3  1  0
  5  4  1  0
  5  6  1  1
  7  8  2  0
  7  5  1  0
  9  7  1  0
 10  9  1  0
 10 11  1  6
 11 12  1  0
 13 17  1  0
 13 12  1  0
 14 13  2  0
 15 16  2  0
 15 10  1  0
 18 19  1  0
 19 20  2  0
 20 21  1  0
 22 23  1  0
 22 21  2  0
 24 23  1  1
 24 25  1  0
 25 15  1  0
 26 24  1  0
 27 26  2  0
 28 22  1  0
 29 28  2  0
 29 19  1  0
 30 26  1  0
M  END
$$$$
