YKH.pdb
     RDKit          3D

 32 33  0  0  1  0  0  0  0  0999 V2000
   29.9921  -11.2500  -16.5076 O   0  0  0  0  0  0  0  0  0  0  0  0
   28.7389  -10.6621  -16.3907 C   0  0  0  0  0  0  0  0  0  0  0  0
   27.9125  -10.9026  -15.3113 C   0  0  0  0  0  0  0  0  0  0  0  0
   26.6642  -10.2917  -15.2352 C   0  0  0  0  0  0  0  0  0  0  0  0
   26.2220   -9.4446  -16.2144 C   0  0  0  0  0  0  0  0  0  0  0  0
   24.8847   -8.8053  -16.1078 C   0  0  0  0  0  0  0  0  0  0  0  0
   23.8435   -9.8682  -16.3908 C   0  0  2  0  0  0  0  0  0  0  0  0
   24.2811  -10.5986  -17.5560 N   0  0  0  0  0  0  0  0  0  0  0  0
   22.5110   -9.2911  -16.6727 C   0  0  0  0  0  0  0  0  0  0  0  0
   22.2421   -8.8527  -17.8060 O   0  0  0  0  0  0  0  0  0  0  0  0
   27.0513   -9.2089  -17.2887 C   0  0  0  0  0  0  0  0  0  0  0  0
   28.2982   -9.8112  -17.3773 C   0  0  0  0  0  0  0  0  0  0  0  0
   21.4778   -9.2094  -15.6686 N   0  0  0  0  0  0  0  0  0  0  0  0
   20.1729   -8.7391  -15.9255 C   0  0  1  0  0  0  0  0  0  0  0  0
   19.0867   -9.5804  -15.3796 C   0  0  0  0  0  0  0  0  0  0  0  0
   17.7044   -9.1489  -15.6161 C   0  0  0  0  0  0  0  0  0  0  0  0
   16.6123  -10.0099  -15.0861 C   0  0  0  0  0  0  0  0  0  0  0  0
   15.2384   -9.3768  -15.3874 C   0  0  0  0  0  0  0  0  0  0  0  0
   14.1888  -10.3357  -15.1274 N   0  0  0  0  0  0  0  0  0  0  0  0
   19.9675   -7.3206  -15.5235 C   0  0  0  0  0  0  0  0  0  0  0  0
   20.3949   -6.9393  -14.3961 O   0  0  0  0  0  0  0  0  0  0  0  0
   19.3261   -6.3470  -16.3037 N   0  0  0  0  0  0  0  0  0  0  0  0
   19.1363   -4.9488  -15.9109 C   0  0  1  0  0  0  0  0  0  0  0  0
   19.7112   -4.0099  -16.8900 C   0  0  0  0  0  0  0  0  0  0  0  0
   19.4161   -2.6132  -16.5284 C   0  0  0  0  0  0  0  0  0  0  0  0
   18.9099   -2.1721  -15.2818 C   0  0  0  0  0  0  0  0  0  0  0  0
   18.7578   -0.8506  -15.2894 N   0  0  0  0  0  0  0  0  0  0  0  0
   19.1473   -0.4106  -16.4990 C   0  0  0  0  0  0  0  0  0  0  0  0
   19.5298   -1.4654  -17.2091 N   0  0  0  0  0  0  0  0  0  0  0  0
   17.6640   -4.7757  -15.8513 C   0  0  0  0  0  0  0  0  0  0  0  0
   16.9476   -5.4260  -16.6606 O   0  0  0  0  0  0  0  0  0  0  0  0
   17.0658   -3.9414  -14.9541 O   0  0  0  0  0  0  0  0  0  0  0  0
  1  2  1  0
  2  3  2  0
  3  4  1  0
  5  6  1  0
  5  4  2  0
  6  7  1  0
  7  8  1  6
  9  7  1  0
 10  9  2  0
 11  5  1  0
 12 11  2  0
 12  2  1  0
 13  9  1  0
 14 20  1  0
 14 13  1  0
 14 15  1  1
 16 15  1  0
 17 16  1  0
 18 17  1  0
 19 18  1  0
 20 22  1  0
 21 20  2  0
 22 23  1  0
 23 30  1  0
 23 24  1  6
 25 24  1  0
 26 25  2  0
 27 26  1  0
 28 27  1  0
 28 29  2  0
 29 25  1  0
 30 31  2  0
 30 32  1  0
M  END
$$$$
