YKH.pdb
     RDKit          3D

 32 33  0  0  1  0  0  0  0  0999 V2000
   21.7860   -4.2455  -13.6583 O   0  0  0  0  0  0  0  0  0  0  0  0
   22.7967   -4.1644  -14.6079 C   0  0  0  0  0  0  0  0  0  0  0  0
   23.6028   -5.2417  -14.9168 C   0  0  0  0  0  0  0  0  0  0  0  0
   24.6039   -5.1153  -15.8754 C   0  0  0  0  0  0  0  0  0  0  0  0
   24.8184   -3.9352  -16.5337 C   0  0  0  0  0  0  0  0  0  0  0  0
   25.8943   -3.8281  -17.5532 C   0  0  0  0  0  0  0  0  0  0  0  0
   25.2506   -3.9690  -18.9169 C   0  0  2  0  0  0  0  0  0  0  0  0
   24.4360   -2.7971  -19.1306 N   0  0  0  0  0  0  0  0  0  0  0  0
   24.3851   -5.1649  -19.0109 C   0  0  0  0  0  0  0  0  0  0  0  0
   23.1544   -5.0646  -18.8553 O   0  0  0  0  0  0  0  0  0  0  0  0
   24.0107   -2.8641  -16.2209 C   0  0  0  0  0  0  0  0  0  0  0  0
   23.0090   -2.9762  -15.2673 C   0  0  0  0  0  0  0  0  0  0  0  0
   24.9135   -6.4800  -19.2820 N   0  0  0  0  0  0  0  0  0  0  0  0
   24.1089   -7.6255  -19.4565 C   0  0  1  0  0  0  0  0  0  0  0  0
   24.7628   -8.7464  -20.1649 C   0  0  0  0  0  0  0  0  0  0  0  0
   23.9250   -9.8824  -20.5655 C   0  0  0  0  0  0  0  0  0  0  0  0
   24.5742  -10.9842  -21.3266 C   0  0  0  0  0  0  0  0  0  0  0  0
   23.5281  -12.0432  -21.7311 C   0  0  0  0  0  0  0  0  0  0  0  0
   24.1881  -13.1805  -22.3309 N   0  0  0  0  0  0  0  0  0  0  0  0
   23.4952   -8.1135  -18.1912 C   0  0  0  0  0  0  0  0  0  0  0  0
   24.1630   -8.0336  -17.1203 O   0  0  0  0  0  0  0  0  0  0  0  0
   22.2111   -8.6672  -18.0798 N   0  0  0  0  0  0  0  0  0  0  0  0
   21.5555   -9.0180  -16.8179 C   0  0  1  0  0  0  0  0  0  0  0  0
   21.4716   -7.8731  -15.8942 C   0  0  0  0  0  0  0  0  0  0  0  0
   20.7009   -8.2156  -14.6871 C   0  0  0  0  0  0  0  0  0  0  0  0
   20.2570   -9.5121  -14.3307 C   0  0  0  0  0  0  0  0  0  0  0  0
   19.5893   -9.4691  -13.1810 N   0  0  0  0  0  0  0  0  0  0  0  0
   19.5804   -8.1882  -12.7718 C   0  0  0  0  0  0  0  0  0  0  0  0
   20.2401   -7.4709  -13.6737 N   0  0  0  0  0  0  0  0  0  0  0  0
   20.1915   -9.4468  -17.2139 C   0  0  0  0  0  0  0  0  0  0  0  0
   19.9207   -9.5352  -18.4426 O   0  0  0  0  0  0  0  0  0  0  0  0
   19.2288   -9.7469  -16.2964 O   0  0  0  0  0  0  0  0  0  0  0  0
  1  2  1  0
  2  3  2  0
  3  4  1  0
  5  6  1  0
  5  4  2  0
  6  7  1  0
  7  8  1  1
  9  7  1  0
 10  9  2  0
 11  5  1  0
 12 11  2  0
 12  2  1  0
 13  9  1  0
 14 20  1  0
 14 13  1  0
 14 15  1  1
 16 15  1  0
 17 16  1  0
 18 17  1  0
 19 18  1  0
 20 22  1  0
 21 20  2  0
 22 23  1  0
 23 30  1  0
 23 24  1  1
 25 24  1  0
 26 25  2  0
 27 26  1  0
 28 27  1  0
 28 29  2  0
 29 25  1  0
 30 31  2  0
 30 32  1  0
M  END
$$$$
