YKH.pdb
     RDKit          3D

 32 33  0  0  1  0  0  0  0  0999 V2000
   24.7008  -31.2935  -10.1240 O   0  0  0  0  0  0  0  0  0  0  0  0
   25.3786  -31.8388   -9.0409 C   0  0  0  0  0  0  0  0  0  0  0  0
   24.7808  -32.0038   -7.8076 C   0  0  0  0  0  0  0  0  0  0  0  0
   25.4981  -32.5548   -6.7497 C   0  0  0  0  0  0  0  0  0  0  0  0
   26.8011  -32.9453   -6.8961 C   0  0  0  0  0  0  0  0  0  0  0  0
   27.5436  -33.5311   -5.7498 C   0  0  0  0  0  0  0  0  0  0  0  0
   27.9534  -34.9365   -6.1379 C   0  0  2  0  0  0  0  0  0  0  0  0
   26.7468  -35.7202   -6.2504 N   0  0  0  0  0  0  0  0  0  0  0  0
   28.8296  -35.5677   -5.1269 C   0  0  0  0  0  0  0  0  0  0  0  0
   28.3414  -36.2615   -4.2164 O   0  0  0  0  0  0  0  0  0  0  0  0
   27.3918  -32.7779   -8.1292 C   0  0  0  0  0  0  0  0  0  0  0  0
   26.6884  -32.2300   -9.1924 C   0  0  0  0  0  0  0  0  0  0  0  0
   30.2643  -35.4136   -5.1457 N   0  0  0  0  0  0  0  0  0  0  0  0
   31.1299  -36.0369   -4.2225 C   0  0  1  0  0  0  0  0  0  0  0  0
   32.5590  -36.0273   -4.6013 C   0  0  0  0  0  0  0  0  0  0  0  0
   33.0316  -37.0783   -5.5095 C   0  0  0  0  0  0  0  0  0  0  0  0
   34.4519  -37.0221   -5.9506 C   0  0  0  0  0  0  0  0  0  0  0  0
   34.7759  -38.2222   -6.8639 C   0  0  0  0  0  0  0  0  0  0  0  0
   36.1608  -38.1669   -7.2735 N   0  0  0  0  0  0  0  0  0  0  0  0
   30.9700  -35.5327   -2.8311 C   0  0  0  0  0  0  0  0  0  0  0  0
   30.8827  -34.2855   -2.6417 O   0  0  0  0  0  0  0  0  0  0  0  0
   30.9063  -36.3387   -1.6846 N   0  0  0  0  0  0  0  0  0  0  0  0
   30.6909  -35.8443   -0.3228 C   0  0  1  0  0  0  0  0  0  0  0  0
   29.4804  -36.4143    0.2941 C   0  0  0  0  0  0  0  0  0  0  0  0
   28.2669  -35.7212   -0.1701 C   0  0  0  0  0  0  0  0  0  0  0  0
   28.2367  -34.5796   -1.0071 C   0  0  0  0  0  0  0  0  0  0  0  0
   26.9794  -34.2086   -1.2328 N   0  0  0  0  0  0  0  0  0  0  0  0
   26.1843  -35.0685   -0.5719 C   0  0  0  0  0  0  0  0  0  0  0  0
   26.9645  -35.9481    0.0450 N   0  0  0  0  0  0  0  0  0  0  0  0
   31.8933  -36.2839    0.4271 C   0  0  0  0  0  0  0  0  0  0  0  0
   31.9779  -35.9960    1.6522 O   0  0  0  0  0  0  0  0  0  0  0  0
   32.9022  -36.9854   -0.1635 O   0  0  0  0  0  0  0  0  0  0  0  0
  1  2  1  0
  2  3  2  0
  3  4  1  0
  5  6  1  0
  5  4  2  0
  6  7  1  0
  7  8  1  1
  9  7  1  0
 10  9  2  0
 11  5  1  0
 12 11  2  0
 12  2  1  0
 13  9  1  0
 14 20  1  0
 14 13  1  0
 14 15  1  6
 16 15  1  0
 17 16  1  0
 18 17  1  0
 19 18  1  0
 20 22  1  0
 21 20  2  0
 22 23  1  0
 23 30  1  0
 23 24  1  1
 25 24  1  0
 26 25  2  0
 27 26  1  0
 28 27  1  0
 28 29  2  0
 29 25  1  0
 30 31  2  0
 30 32  1  0
M  END
$$$$
