YKH.pdb
     RDKit          3D

 32 33  0  0  1  0  0  0  0  0999 V2000
   24.6470  -11.6107  -29.4592 O   0  0  0  0  0  0  0  0  0  0  0  0
   23.8543  -11.5871  -28.3187 C   0  0  0  0  0  0  0  0  0  0  0  0
   24.3942  -11.5128  -27.0503 C   0  0  0  0  0  0  0  0  0  0  0  0
   23.5618  -11.4917  -25.9350 C   0  0  0  0  0  0  0  0  0  0  0  0
   22.2001  -11.5431  -26.0582 C   0  0  0  0  0  0  0  0  0  0  0  0
   21.3347  -11.5186  -24.8504 C   0  0  0  0  0  0  0  0  0  0  0  0
   21.2243  -12.9385  -24.3354 C   0  0  2  0  0  0  0  0  0  0  0  0
   20.4091  -13.6732  -25.2725 N   0  0  0  0  0  0  0  0  0  0  0  0
   20.5845  -13.0070  -23.0034 C   0  0  0  0  0  0  0  0  0  0  0  0
   19.3539  -12.8616  -22.8883 O   0  0  0  0  0  0  0  0  0  0  0  0
   21.6678  -11.6172  -27.3264 C   0  0  0  0  0  0  0  0  0  0  0  0
   22.4859  -11.6390  -28.4470 C   0  0  0  0  0  0  0  0  0  0  0  0
   21.3396  -13.2410  -21.7962 N   0  0  0  0  0  0  0  0  0  0  0  0
   20.7650  -13.2733  -20.5082 C   0  0  1  0  0  0  0  0  0  0  0  0
   21.5499  -14.0062  -19.4921 C   0  0  0  0  0  0  0  0  0  0  0  0
   21.8418  -15.4217  -19.7452 C   0  0  0  0  0  0  0  0  0  0  0  0
   22.6355  -16.1564  -18.7229 C   0  0  0  0  0  0  0  0  0  0  0  0
   22.7772  -17.6399  -19.1208 C   0  0  0  0  0  0  0  0  0  0  0  0
   23.6142  -18.3267  -18.1635 N   0  0  0  0  0  0  0  0  0  0  0  0
   20.3984  -11.9261  -19.9921 C   0  0  0  0  0  0  0  0  0  0  0  0
   21.1604  -10.9491  -20.2451 O   0  0  0  0  0  0  0  0  0  0  0  0
   19.2552  -11.6384  -19.2317 N   0  0  0  0  0  0  0  0  0  0  0  0
   18.9355  -10.3280  -18.6607 C   0  0  1  0  0  0  0  0  0  0  0  0
   18.0277   -9.5495  -19.5213 C   0  0  0  0  0  0  0  0  0  0  0  0
   17.7633   -8.2173  -18.9522 C   0  0  0  0  0  0  0  0  0  0  0  0
   16.9604   -7.9483  -17.8173 C   0  0  0  0  0  0  0  0  0  0  0  0
   16.9320   -6.6409  -17.5741 N   0  0  0  0  0  0  0  0  0  0  0  0
   17.6892   -6.0436  -18.5113 C   0  0  0  0  0  0  0  0  0  0  0  0
   18.1667   -6.9912  -19.3096 N   0  0  0  0  0  0  0  0  0  0  0  0
   18.2673  -10.6365  -17.3725 C   0  0  0  0  0  0  0  0  0  0  0  0
   18.3379   -9.7907  -16.4394 O   0  0  0  0  0  0  0  0  0  0  0  0
   17.5833  -11.7981  -17.1682 O   0  0  0  0  0  0  0  0  0  0  0  0
  1  2  1  0
  2  3  2  0
  3  4  1  0
  5  6  1  0
  5  4  2  0
  6  7  1  0
  7  8  1  6
  9  7  1  0
 10  9  2  0
 11  5  1  0
 12 11  2  0
 12  2  1  0
 13  9  1  0
 14 20  1  0
 14 13  1  0
 14 15  1  1
 16 15  1  0
 17 16  1  0
 18 17  1  0
 19 18  1  0
 20 22  1  0
 21 20  2  0
 22 23  1  0
 23 30  1  0
 23 24  1  6
 25 24  1  0
 26 25  2  0
 27 26  1  0
 28 27  1  0
 28 29  2  0
 29 25  1  0
 30 31  2  0
 30 32  1  0
M  END
$$$$
