YKH.pdb
     RDKit          3D

 32 33  0  0  1  0  0  0  0  0999 V2000
   19.4418   -9.6079  -15.6521 O   0  0  0  0  0  0  0  0  0  0  0  0
   19.6733  -10.9586  -15.8797 C   0  0  0  0  0  0  0  0  0  0  0  0
   20.6793  -11.6503  -15.2354 C   0  0  0  0  0  0  0  0  0  0  0  0
   20.8755  -13.0038  -15.4941 C   0  0  0  0  0  0  0  0  0  0  0  0
   20.0882  -13.6831  -16.3833 C   0  0  0  0  0  0  0  0  0  0  0  0
   20.3193  -15.1283  -16.6404 C   0  0  0  0  0  0  0  0  0  0  0  0
   21.5806  -15.2515  -17.4696 C   0  0  2  0  0  0  0  0  0  0  0  0
   21.2942  -14.6992  -18.7718 N   0  0  0  0  0  0  0  0  0  0  0  0
   22.0080  -16.6573  -17.6405 C   0  0  0  0  0  0  0  0  0  0  0  0
   21.3725  -17.4215  -18.3893 O   0  0  0  0  0  0  0  0  0  0  0  0
   19.0861  -12.9871  -17.0228 C   0  0  0  0  0  0  0  0  0  0  0  0
   18.8795  -11.6377  -16.7744 C   0  0  0  0  0  0  0  0  0  0  0  0
   23.1593  -17.2013  -16.9614 N   0  0  0  0  0  0  0  0  0  0  0  0
   23.4381  -18.5816  -16.8781 C   0  0  1  0  0  0  0  0  0  0  0  0
   24.8542  -18.9185  -16.6193 C   0  0  0  0  0  0  0  0  0  0  0  0
   25.2323  -20.3362  -16.6329 C   0  0  0  0  0  0  0  0  0  0  0  0
   26.6606  -20.6721  -16.3841 C   0  0  0  0  0  0  0  0  0  0  0  0
   26.8817  -22.1935  -16.5098 C   0  0  0  0  0  0  0  0  0  0  0  0
   28.2520  -22.5184  -16.1854 N   0  0  0  0  0  0  0  0  0  0  0  0
   22.5605  -19.3036  -15.9166 C   0  0  0  0  0  0  0  0  0  0  0  0
   22.4825  -18.8803  -14.7275 O   0  0  0  0  0  0  0  0  0  0  0  0
   21.7948  -20.4389  -16.2208 N   0  0  0  0  0  0  0  0  0  0  0  0
   20.8477  -21.0813  -15.3067 C   0  0  1  0  0  0  0  0  0  0  0  0
   19.5476  -20.3889  -15.2709 C   0  0  0  0  0  0  0  0  0  0  0  0
   19.4111  -19.5706  -14.0543 C   0  0  0  0  0  0  0  0  0  0  0  0
   20.3463  -19.5061  -12.9930 C   0  0  0  0  0  0  0  0  0  0  0  0
   19.9148  -18.6723  -12.0507 N   0  0  0  0  0  0  0  0  0  0  0  0
   18.7284  -18.1880  -12.4584 C   0  0  0  0  0  0  0  0  0  0  0  0
   18.4540  -18.7310  -13.6386 N   0  0  0  0  0  0  0  0  0  0  0  0
   20.6745  -22.4502  -15.8521 C   0  0  0  0  0  0  0  0  0  0  0  0
   21.2907  -22.7605  -16.9080 O   0  0  0  0  0  0  0  0  0  0  0  0
   19.8757  -23.3768  -15.2504 O   0  0  0  0  0  0  0  0  0  0  0  0
  1  2  1  0
  2  3  2  0
  3  4  1  0
  5  6  1  0
  5  4  2  0
  6  7  1  0
  7  8  1  6
  9  7  1  0
 10  9  2  0
 11  5  1  0
 12 11  2  0
 12  2  1  0
 13  9  1  0
 14 20  1  0
 14 13  1  0
 14 15  1  1
 16 15  1  0
 17 16  1  0
 18 17  1  0
 19 18  1  0
 20 22  1  0
 21 20  2  0
 22 23  1  0
 23 30  1  0
 23 24  1  6
 25 24  1  0
 26 25  2  0
 27 26  1  0
 28 27  1  0
 28 29  2  0
 29 25  1  0
 30 31  2  0
 30 32  1  0
M  END
$$$$
