YKH.pdb
     RDKit          3D

 32 33  0  0  1  0  0  0  0  0999 V2000
   24.7024  -21.4095   -9.2198 O   0  0  0  0  0  0  0  0  0  0  0  0
   25.0049  -20.7048  -10.3781 C   0  0  0  0  0  0  0  0  0  0  0  0
   26.0059  -19.7550  -10.4198 C   0  0  0  0  0  0  0  0  0  0  0  0
   26.2750  -19.0725  -11.6026 C   0  0  0  0  0  0  0  0  0  0  0  0
   25.5657  -19.3178  -12.7466 C   0  0  0  0  0  0  0  0  0  0  0  0
   25.8742  -18.5748  -13.9961 C   0  0  0  0  0  0  0  0  0  0  0  0
   26.3928  -19.5744  -15.0088 C   0  0  2  0  0  0  0  0  0  0  0  0
   27.7046  -19.9875  -14.5718 N   0  0  0  0  0  0  0  0  0  0  0  0
   26.5116  -18.9937  -16.3642 C   0  0  0  0  0  0  0  0  0  0  0  0
   27.3642  -18.1188  -16.6013 O   0  0  0  0  0  0  0  0  0  0  0  0
   24.5683  -20.2666  -12.6983 C   0  0  0  0  0  0  0  0  0  0  0  0
   24.2895  -20.9544  -11.5259 C   0  0  0  0  0  0  0  0  0  0  0  0
   25.6624  -19.4043  -17.4563 N   0  0  0  0  0  0  0  0  0  0  0  0
   25.7387  -18.8577  -18.7545 C   0  0  1  0  0  0  0  0  0  0  0  0
   26.5465  -19.6391  -19.7150 C   0  0  0  0  0  0  0  0  0  0  0  0
   27.9498  -19.2525  -19.9000 C   0  0  0  0  0  0  0  0  0  0  0  0
   28.7710  -20.0633  -20.8397 C   0  0  0  0  0  0  0  0  0  0  0  0
   30.2179  -19.5304  -20.8819 C   0  0  0  0  0  0  0  0  0  0  0  0
   31.0508  -20.4324  -21.6443 N   0  0  0  0  0  0  0  0  0  0  0  0
   24.4069  -18.5494  -19.3438 C   0  0  0  0  0  0  0  0  0  0  0  0
   23.4302  -19.3042  -19.0692 O   0  0  0  0  0  0  0  0  0  0  0  0
   24.1340  -17.4700  -20.1972 N   0  0  0  0  0  0  0  0  0  0  0  0
   22.8083  -17.1253  -20.7158 C   0  0  1  0  0  0  0  0  0  0  0  0
   22.6219  -15.6701  -20.8517 C   0  0  0  0  0  0  0  0  0  0  0  0
   22.3714  -15.0390  -19.5450 C   0  0  0  0  0  0  0  0  0  0  0  0
   21.8339  -15.6847  -18.4053 C   0  0  0  0  0  0  0  0  0  0  0  0
   21.7381  -14.8264  -17.3936 N   0  0  0  0  0  0  0  0  0  0  0  0
   22.1945  -13.6398  -17.8316 C   0  0  0  0  0  0  0  0  0  0  0  0
   22.5608  -13.7903  -19.0990 N   0  0  0  0  0  0  0  0  0  0  0  0
   22.7532  -17.7672  -22.0523 C   0  0  0  0  0  0  0  0  0  0  0  0
   23.8353  -17.9725  -22.6671 O   0  0  0  0  0  0  0  0  0  0  0  0
   21.5768  -18.1399  -22.6318 O   0  0  0  0  0  0  0  0  0  0  0  0
  1  2  1  0
  2  3  2  0
  3  4  1  0
  5  6  1  0
  5  4  2  0
  6  7  1  0
  7  8  1  1
  9  7  1  0
 10  9  2  0
 11  5  1  0
 12 11  2  0
 12  2  1  0
 13  9  1  0
 14 20  1  0
 14 13  1  0
 14 15  1  6
 16 15  1  0
 17 16  1  0
 18 17  1  0
 19 18  1  0
 20 22  1  0
 21 20  2  0
 22 23  1  0
 23 30  1  0
 23 24  1  6
 25 24  1  0
 26 25  2  0
 27 26  1  0
 28 27  1  0
 28 29  2  0
 29 25  1  0
 30 31  2  0
 30 32  1  0
M  END
$$$$
