YKH.pdb
     RDKit          3D

 32 33  0  0  1  0  0  0  0  0999 V2000
   23.2490  -23.9849  -13.9552 O   0  0  0  0  0  0  0  0  0  0  0  0
   23.9402  -24.6649  -14.9500 C   0  0  0  0  0  0  0  0  0  0  0  0
   23.5974  -24.5634  -16.2834 C   0  0  0  0  0  0  0  0  0  0  0  0
   24.3180  -25.2629  -17.2471 C   0  0  0  0  0  0  0  0  0  0  0  0
   25.3750  -26.0628  -16.9084 C   0  0  0  0  0  0  0  0  0  0  0  0
   26.1275  -26.7983  -17.9578 C   0  0  0  0  0  0  0  0  0  0  0  0
   27.4522  -26.0910  -18.1543 C   0  0  2  0  0  0  0  0  0  0  0  0
   27.1707  -24.8129  -18.7625 N   0  0  0  0  0  0  0  0  0  0  0  0
   28.3658  -26.8418  -19.0430 C   0  0  0  0  0  0  0  0  0  0  0  0
   28.1387  -26.9119  -20.2645 O   0  0  0  0  0  0  0  0  0  0  0  0
   25.7119  -26.1598  -15.5763 C   0  0  0  0  0  0  0  0  0  0  0  0
   25.0022  -25.4680  -14.6052 C   0  0  0  0  0  0  0  0  0  0  0  0
   29.5416  -27.5163  -18.5480 N   0  0  0  0  0  0  0  0  0  0  0  0
   30.3030  -28.4241  -19.3136 C   0  0  1  0  0  0  0  0  0  0  0  0
   31.6304  -28.7546  -18.7529 C   0  0  0  0  0  0  0  0  0  0  0  0
   32.7642  -27.9059  -19.1364 C   0  0  0  0  0  0  0  0  0  0  0  0
   33.0257  -26.6916  -18.3168 C   0  0  0  0  0  0  0  0  0  0  0  0
   34.1524  -26.9656  -17.2996 C   0  0  0  0  0  0  0  0  0  0  0  0
   34.4425  -25.7626  -16.5530 N   0  0  0  0  0  0  0  0  0  0  0  0
   29.5678  -29.6742  -19.6490 C   0  0  0  0  0  0  0  0  0  0  0  0
   28.6206  -30.0438  -18.8972 O   0  0  0  0  0  0  0  0  0  0  0  0
   29.8400  -30.4977  -20.7516 N   0  0  0  0  0  0  0  0  0  0  0  0
   28.8327  -31.2399  -21.5130 C   0  0  1  0  0  0  0  0  0  0  0  0
   27.7903  -30.3592  -22.0684 C   0  0  0  0  0  0  0  0  0  0  0  0
   26.8186  -31.1210  -22.8708 C   0  0  0  0  0  0  0  0  0  0  0  0
   26.7374  -32.5324  -22.9484 C   0  0  0  0  0  0  0  0  0  0  0  0
   25.7485  -32.8917  -23.7623 N   0  0  0  0  0  0  0  0  0  0  0  0
   25.1787  -31.7633  -24.2209 C   0  0  0  0  0  0  0  0  0  0  0  0
   25.8252  -30.7360  -23.6826 N   0  0  0  0  0  0  0  0  0  0  0  0
   29.5943  -31.8765  -22.6157 C   0  0  0  0  0  0  0  0  0  0  0  0
   28.9869  -32.6645  -23.3911 O   0  0  0  0  0  0  0  0  0  0  0  0
   30.9215  -31.6368  -22.8156 O   0  0  0  0  0  0  0  0  0  0  0  0
  1  2  1  0
  2  3  2  0
  3  4  1  0
  5  6  1  0
  5  4  2  0
  6  7  1  0
  7  8  1  6
  9  7  1  0
 10  9  2  0
 11  5  1  0
 12 11  2  0
 12  2  1  0
 13  9  1  0
 14 20  1  0
 14 13  1  0
 14 15  1  1
 16 15  1  0
 17 16  1  0
 18 17  1  0
 19 18  1  0
 20 22  1  0
 21 20  2  0
 22 23  1  0
 23 30  1  0
 23 24  1  6
 25 24  1  0
 26 25  2  0
 27 26  1  0
 28 27  1  0
 28 29  2  0
 29 25  1  0
 30 31  2  0
 30 32  1  0
M  END
$$$$
