YKH.pdb
     RDKit          3D

 32 33  0  0  1  0  0  0  0  0999 V2000
   17.9221  -15.7979    0.0195 O   0  0  0  0  0  0  0  0  0  0  0  0
   17.8176  -15.5027    1.3730 C   0  0  0  0  0  0  0  0  0  0  0  0
   18.6598  -14.6037    1.9960 C   0  0  0  0  0  0  0  0  0  0  0  0
   18.5189  -14.3380    3.3549 C   0  0  0  0  0  0  0  0  0  0  0  0
   17.5542  -14.9509    4.1069 C   0  0  0  0  0  0  0  0  0  0  0  0
   17.4257  -14.6484    5.5562 C   0  0  0  0  0  0  0  0  0  0  0  0
   18.1599  -15.7317    6.3185 C   0  0  2  0  0  0  0  0  0  0  0  0
   17.2648  -16.8578    6.4337 N   0  0  0  0  0  0  0  0  0  0  0  0
   18.5473  -15.2998    7.6792 C   0  0  0  0  0  0  0  0  0  0  0  0
   17.8243  -15.5712    8.6551 O   0  0  0  0  0  0  0  0  0  0  0  0
   16.7171  -15.8469    3.4793 C   0  0  0  0  0  0  0  0  0  0  0  0
   16.8463  -16.1211    2.1252 C   0  0  0  0  0  0  0  0  0  0  0  0
   19.7576  -14.5576    7.9375 N   0  0  0  0  0  0  0  0  0  0  0  0
   20.1418  -14.1095    9.2187 C   0  0  1  0  0  0  0  0  0  0  0  0
   21.5750  -13.7749    9.3599 C   0  0  0  0  0  0  0  0  0  0  0  0
   22.0604  -13.3998   10.6927 C   0  0  0  0  0  0  0  0  0  0  0  0
   23.5299  -13.2513   10.8756 C   0  0  0  0  0  0  0  0  0  0  0  0
   23.8544  -12.9148   12.3455 C   0  0  0  0  0  0  0  0  0  0  0  0
   25.2836  -12.7825   12.5144 N   0  0  0  0  0  0  0  0  0  0  0  0
   19.3060  -12.9871    9.7261 C   0  0  0  0  0  0  0  0  0  0  0  0
   18.8465  -12.1480    8.8992 O   0  0  0  0  0  0  0  0  0  0  0  0
   18.9757  -12.7735   11.0727 N   0  0  0  0  0  0  0  0  0  0  0  0
   18.1178  -11.6930   11.5646 C   0  0  1  0  0  0  0  0  0  0  0  0
   16.7588  -11.7564   10.9989 C   0  0  0  0  0  0  0  0  0  0  0  0
   15.8977  -10.7003   11.5571 C   0  0  0  0  0  0  0  0  0  0  0  0
   16.2350   -9.3291   11.6624 C   0  0  0  0  0  0  0  0  0  0  0  0
   15.2322   -8.6503   12.2129 N   0  0  0  0  0  0  0  0  0  0  0  0
   14.2489   -9.5303   12.4721 C   0  0  0  0  0  0  0  0  0  0  0  0
   14.6640  -10.7283   12.0777 N   0  0  0  0  0  0  0  0  0  0  0  0
   18.0626  -11.9008   13.0326 C   0  0  0  0  0  0  0  0  0  0  0  0
   18.1731  -13.0751   13.4794 O   0  0  0  0  0  0  0  0  0  0  0  0
   17.8980  -10.8680   13.9073 O   0  0  0  0  0  0  0  0  0  0  0  0
  1  2  1  0
  2  3  2  0
  3  4  1  0
  5  6  1  0
  5  4  2  0
  6  7  1  0
  7  8  1  1
  9  7  1  0
 10  9  2  0
 11  5  1  0
 12 11  2  0
 12  2  1  0
 13  9  1  0
 14 20  1  0
 14 13  1  0
 14 15  1  6
 16 15  1  0
 17 16  1  0
 18 17  1  0
 19 18  1  0
 20 22  1  0
 21 20  2  0
 22 23  1  0
 23 30  1  0
 23 24  1  6
 25 24  1  0
 26 25  2  0
 27 26  1  0
 28 27  1  0
 28 29  2  0
 29 25  1  0
 30 31  2  0
 30 32  1  0
M  END
$$$$
