YKH.pdb
     RDKit          3D

 32 33  0  0  1  0  0  0  0  0999 V2000
   18.9544  -24.4946   -7.2315 O   0  0  0  0  0  0  0  0  0  0  0  0
   19.4813  -23.4714   -8.0096 C   0  0  0  0  0  0  0  0  0  0  0  0
   20.3212  -22.5087   -7.4865 C   0  0  0  0  0  0  0  0  0  0  0  0
   20.8262  -21.5012   -8.3033 C   0  0  0  0  0  0  0  0  0  0  0  0
   20.5107  -21.4334   -9.6329 C   0  0  0  0  0  0  0  0  0  0  0  0
   21.0643  -20.3469  -10.4823 C   0  0  0  0  0  0  0  0  0  0  0  0
   22.0296  -20.9780  -11.4640 C   0  0  2  0  0  0  0  0  0  0  0  0
   23.1915  -21.3947  -10.7164 N   0  0  0  0  0  0  0  0  0  0  0  0
   22.4633  -20.0320  -12.5153 C   0  0  0  0  0  0  0  0  0  0  0  0
   22.6792  -18.8383  -12.2375 O   0  0  0  0  0  0  0  0  0  0  0  0
   19.6722  -22.3969  -10.1486 C   0  0  0  0  0  0  0  0  0  0  0  0
   19.1616  -23.4069   -9.3457 C   0  0  0  0  0  0  0  0  0  0  0  0
   22.6537  -20.4378  -13.8870 N   0  0  0  0  0  0  0  0  0  0  0  0
   22.9644  -19.5421  -14.9316 C   0  0  1  0  0  0  0  0  0  0  0  0
   23.6537  -20.1486  -16.0904 C   0  0  0  0  0  0  0  0  0  0  0  0
   24.0356  -19.2642  -17.1971 C   0  0  0  0  0  0  0  0  0  0  0  0
   24.8019  -19.8610  -18.3247 C   0  0  0  0  0  0  0  0  0  0  0  0
   26.1540  -19.1381  -18.4941 C   0  0  0  0  0  0  0  0  0  0  0  0
   26.9289  -19.7834  -19.5293 N   0  0  0  0  0  0  0  0  0  0  0  0
   21.7938  -18.7482  -15.3956 C   0  0  0  0  0  0  0  0  0  0  0  0
   20.6813  -19.3318  -15.5403 O   0  0  0  0  0  0  0  0  0  0  0  0
   21.8170  -17.3776  -15.6936 N   0  0  0  0  0  0  0  0  0  0  0  0
   20.6462  -16.5804  -16.0661 C   0  0  1  0  0  0  0  0  0  0  0  0
   20.8907  -15.1332  -15.9365 C   0  0  0  0  0  0  0  0  0  0  0  0
   19.7163  -14.3525  -16.3605 C   0  0  0  0  0  0  0  0  0  0  0  0
   18.4750  -14.8894  -16.7797 C   0  0  0  0  0  0  0  0  0  0  0  0
   17.6327  -13.9088  -17.0932 N   0  0  0  0  0  0  0  0  0  0  0  0
   18.2800  -12.7471  -16.8937 C   0  0  0  0  0  0  0  0  0  0  0  0
   19.5028  -13.0343  -16.4631 N   0  0  0  0  0  0  0  0  0  0  0  0
   20.3991  -16.9241  -17.4881 C   0  0  0  0  0  0  0  0  0  0  0  0
   19.2198  -16.8506  -17.9296 O   0  0  0  0  0  0  0  0  0  0  0  0
   21.4011  -17.3136  -18.3265 O   0  0  0  0  0  0  0  0  0  0  0  0
  1  2  1  0
  2  3  2  0
  3  4  1  0
  5  6  1  0
  5  4  2  0
  6  7  1  0
  7  8  1  1
  9  7  1  0
 10  9  2  0
 11  5  1  0
 12 11  2  0
 12  2  1  0
 13  9  1  0
 14 20  1  0
 14 13  1  0
 14 15  1  6
 16 15  1  0
 17 16  1  0
 18 17  1  0
 19 18  1  0
 20 22  1  0
 21 20  2  0
 22 23  1  0
 23 30  1  0
 23 24  1  6
 25 24  1  0
 26 25  2  0
 27 26  1  0
 28 27  1  0
 28 29  2  0
 29 25  1  0
 30 31  2  0
 30 32  1  0
M  END
$$$$
