YKH.pdb
     RDKit          3D

 32 33  0  0  1  0  0  0  0  0999 V2000
   18.9248   -9.2133  -16.5843 O   0  0  0  0  0  0  0  0  0  0  0  0
   18.9907  -10.6008  -16.5991 C   0  0  0  0  0  0  0  0  0  0  0  0
   19.5110  -11.3229  -15.5438 C   0  0  0  0  0  0  0  0  0  0  0  0
   19.5574  -12.7127  -15.6015 C   0  0  0  0  0  0  0  0  0  0  0  0
   19.0950  -13.3988  -16.6911 C   0  0  0  0  0  0  0  0  0  0  0  0
   19.1562  -14.8832  -16.7262 C   0  0  0  0  0  0  0  0  0  0  0  0
   20.5622  -15.2756  -17.1297 C   0  0  2  0  0  0  0  0  0  0  0  0
   20.7330  -14.8997  -18.5125 N   0  0  0  0  0  0  0  0  0  0  0  0
   20.7986  -16.7307  -17.0070 C   0  0  0  0  0  0  0  0  0  0  0  0
   20.0977  -17.5379  -17.6442 O   0  0  0  0  0  0  0  0  0  0  0  0
   18.5770  -12.6725  -17.7407 C   0  0  0  0  0  0  0  0  0  0  0  0
   18.5247  -11.2866  -17.6965 C   0  0  0  0  0  0  0  0  0  0  0  0
   21.8322  -17.2754  -16.1600 N   0  0  0  0  0  0  0  0  0  0  0  0
   21.9886  -18.6540  -15.9051 C   0  0  1  0  0  0  0  0  0  0  0  0
   23.3751  -19.0843  -15.6252 C   0  0  0  0  0  0  0  0  0  0  0  0
   23.6101  -20.5112  -15.3766 C   0  0  0  0  0  0  0  0  0  0  0  0
   25.0111  -20.9467  -15.1270 C   0  0  0  0  0  0  0  0  0  0  0  0
   25.0893  -22.4860  -15.0644 C   0  0  0  0  0  0  0  0  0  0  0  0
   26.4249  -22.8945  -14.6929 N   0  0  0  0  0  0  0  0  0  0  0  0
   21.0748  -19.1656  -14.8471 C   0  0  0  0  0  0  0  0  0  0  0  0
   20.9159  -18.4802  -13.7964 O   0  0  0  0  0  0  0  0  0  0  0  0
   20.3579  -20.3694  -14.9150 N   0  0  0  0  0  0  0  0  0  0  0  0
   18.9612  -20.5379  -14.5074 C   0  0  1  0  0  0  0  0  0  0  0  0
   18.0422  -19.7045  -15.3022 C   0  0  0  0  0  0  0  0  0  0  0  0
   16.6382  -19.9638  -14.9418 C   0  0  0  0  0  0  0  0  0  0  0  0
   16.1954  -20.8468  -13.9273 C   0  0  0  0  0  0  0  0  0  0  0  0
   14.8667  -20.8451  -13.8646 N   0  0  0  0  0  0  0  0  0  0  0  0
   14.4235  -19.9908  -14.8038 C   0  0  0  0  0  0  0  0  0  0  0  0
   15.4836  -19.4856  -15.4235 N   0  0  0  0  0  0  0  0  0  0  0  0
   18.6742  -21.9736  -14.7473 C   0  0  0  0  0  0  0  0  0  0  0  0
   17.6803  -22.4939  -14.1708 O   0  0  0  0  0  0  0  0  0  0  0  0
   19.4464  -22.7423  -15.5668 O   0  0  0  0  0  0  0  0  0  0  0  0
  1  2  1  0
  2  3  2  0
  3  4  1  0
  5  6  1  0
  5  4  2  0
  6  7  1  0
  7  8  1  6
  9  7  1  0
 10  9  2  0
 11  5  1  0
 12 11  2  0
 12  2  1  0
 13  9  1  0
 14 20  1  0
 14 13  1  0
 14 15  1  1
 16 15  1  0
 17 16  1  0
 18 17  1  0
 19 18  1  0
 20 22  1  0
 21 20  2  0
 22 23  1  0
 23 30  1  0
 23 24  1  6
 25 24  1  0
 26 25  2  0
 27 26  1  0
 28 27  1  0
 28 29  2  0
 29 25  1  0
 30 31  2  0
 30 32  1  0
M  END
$$$$
