KGQ.pdb
     RDKit          3D

 23 22  0  0  1  0  0  0  0  0999 V2000
    9.1283  -12.8777   18.9760 N   0  0  0  0  0  0  0  0  0  0  0  0
    7.7790  -13.2990   18.7598 C   0  0  1  0  0  0  0  0  0  0  0  0
    7.5595  -13.9367   17.4063 C   0  0  0  0  0  0  0  0  0  0  0  0
    8.8637  -14.4262   16.8073 C   0  0  0  0  0  0  0  0  0  0  0  0
    8.6595  -15.0862   15.4817 C   0  0  0  0  0  0  0  0  0  0  0  0
    9.9577  -15.5240   14.8408 C   0  0  0  0  0  0  0  0  0  0  0  0
    9.7777  -16.2328   13.6117 N   0  0  0  0  0  0  0  0  0  0  0  0
    7.2488  -14.1427   19.8515 C   0  0  0  0  0  0  0  0  0  0  0  0
    6.1378  -14.7048   19.6721 O   0  0  0  0  0  0  0  0  0  0  0  0
    8.0148  -14.2768   21.0421 N   0  0  0  0  0  0  0  0  0  0  0  0
    7.5782  -15.2163   22.0532 C   0  0  0  0  0  0  0  0  0  0  0  0
    8.5321  -15.1700   23.1794 C   0  0  0  0  0  0  0  0  0  0  0  0
    9.6594  -14.6486   23.0447 O   0  0  0  0  0  0  0  0  0  0  0  0
    5.9420  -11.7426   26.6286 N   0  0  0  0  0  0  0  0  0  0  0  0
    6.8684  -12.7330   27.1761 C   0  0  0  0  0  0  0  0  0  0  0  0
    7.0980  -12.6837   28.3938 O   0  0  0  0  0  0  0  0  0  0  0  0
    7.4131  -13.6721   26.1872 C   0  0  0  0  0  0  0  0  0  0  0  0
    8.3695  -14.6992   26.6388 C   0  0  0  0  0  0  0  0  0  0  0  0
    8.9968  -15.5755   25.6079 C   0  0  2  0  0  0  0  0  0  0  0  0
    8.1812  -15.7168   24.4284 N   0  0  0  0  0  0  0  0  0  0  0  0
    9.6373  -16.8005   26.0862 C   0  0  0  0  0  0  0  0  0  0  0  0
   10.4827  -16.7470   27.0018 O   0  0  0  0  0  0  0  0  0  0  0  0
    9.3167  -18.0165   25.5351 O   0  0  0  0  0  0  0  0  0  0  0  0
  2  1  1  1
  3  2  1  0
  4  3  1  0
  5  4  1  0
  6  5  1  0
  7  6  1  0
  8  2  1  0
  8 10  1  0
  9  8  2  0
 11 10  1  0
 12 11  1  0
 13 12  2  0
 15 14  1  0
 16 15  2  0
 17 15  1  0
 18 17  1  0
 19 18  1  1
 19 20  1  0
 20 12  1  0
 21 23  1  0
 21 19  1  0
 22 21  2  0
M  END
$$$$
