KGQ.pdb
     RDKit          3D

 23 22  0  0  1  0  0  0  0  0999 V2000
    6.2558  -16.9063   20.4348 N   0  0  0  0  0  0  0  0  0  0  0  0
    6.9852  -16.1360   21.3937 C   0  0  1  0  0  0  0  0  0  0  0  0
    6.6053  -14.6723   21.4011 C   0  0  0  0  0  0  0  0  0  0  0  0
    7.0537  -13.9779   20.1298 C   0  0  0  0  0  0  0  0  0  0  0  0
    8.4451  -13.4437   20.2431 C   0  0  0  0  0  0  0  0  0  0  0  0
    8.8659  -12.6470   19.0282 C   0  0  0  0  0  0  0  0  0  0  0  0
   10.1648  -12.0611   19.1508 N   0  0  0  0  0  0  0  0  0  0  0  0
    6.9521  -16.7139   22.7537 C   0  0  0  0  0  0  0  0  0  0  0  0
    5.8483  -16.7323   23.3568 O   0  0  0  0  0  0  0  0  0  0  0  0
    8.1604  -17.2169   23.3096 N   0  0  0  0  0  0  0  0  0  0  0  0
    8.2180  -17.4871   24.7306 C   0  0  0  0  0  0  0  0  0  0  0  0
    9.2133  -16.5825   25.3400 C   0  0  0  0  0  0  0  0  0  0  0  0
    9.8498  -15.7650   24.6420 O   0  0  0  0  0  0  0  0  0  0  0  0
    6.1045  -13.0641   25.7995 N   0  0  0  0  0  0  0  0  0  0  0  0
    7.1797  -12.9993   26.7888 C   0  0  0  0  0  0  0  0  0  0  0  0
    7.3865  -11.9037   27.3318 O   0  0  0  0  0  0  0  0  0  0  0  0
    7.8842  -14.2688   27.0092 C   0  0  0  0  0  0  0  0  0  0  0  0
    9.3440  -14.2415   27.2136 C   0  0  0  0  0  0  0  0  0  0  0  0
   10.0423  -15.5359   27.4603 C   0  0  2  0  0  0  0  0  0  0  0  0
    9.4598  -16.6300   26.7254 N   0  0  0  0  0  0  0  0  0  0  0  0
   10.4163  -15.8294   28.8437 C   0  0  0  0  0  0  0  0  0  0  0  0
   10.9847  -14.9606   29.5350 O   0  0  0  0  0  0  0  0  0  0  0  0
   10.1471  -17.0583   29.3936 O   0  0  0  0  0  0  0  0  0  0  0  0
  2  1  1  6
  3  2  1  0
  4  3  1  0
  5  4  1  0
  6  5  1  0
  7  6  1  0
  8  2  1  0
  8 10  1  0
  9  8  2  0
 11 10  1  0
 12 11  1  0
 13 12  2  0
 15 14  1  0
 16 15  2  0
 17 15  1  0
 18 17  1  0
 19 18  1  1
 19 20  1  0
 20 12  1  0
 21 23  1  0
 21 19  1  0
 22 21  2  0
M  END
$$$$
