KGQ.pdb
     RDKit          3D

 23 22  0  0  1  0  0  0  0  0999 V2000
    8.2092  -15.6160   19.0383 N   0  0  0  0  0  0  0  0  0  0  0  0
    8.3822  -14.4192   19.8016 C   0  0  1  0  0  0  0  0  0  0  0  0
    7.6668  -13.2240   19.2131 C   0  0  0  0  0  0  0  0  0  0  0  0
    7.3609  -13.4312   17.7424 C   0  0  0  0  0  0  0  0  0  0  0  0
    8.6021  -13.6305   16.9338 C   0  0  0  0  0  0  0  0  0  0  0  0
    8.3226  -13.7378   15.4512 C   0  0  0  0  0  0  0  0  0  0  0  0
    9.5016  -13.8975   14.6574 N   0  0  0  0  0  0  0  0  0  0  0  0
    8.0672  -14.5905   21.2355 C   0  0  0  0  0  0  0  0  0  0  0  0
    8.1733  -13.5851   21.9839 O   0  0  0  0  0  0  0  0  0  0  0  0
    7.6626  -15.8739   21.6953 N   0  0  0  0  0  0  0  0  0  0  0  0
    7.3348  -16.0447   23.0949 C   0  0  0  0  0  0  0  0  0  0  0  0
    8.5906  -16.2107   23.8537 C   0  0  0  0  0  0  0  0  0  0  0  0
    9.6964  -16.2108   23.2725 O   0  0  0  0  0  0  0  0  0  0  0  0
    9.4327  -13.7577   29.4554 N   0  0  0  0  0  0  0  0  0  0  0  0
   10.5904  -14.6515   29.4488 C   0  0  0  0  0  0  0  0  0  0  0  0
   11.3237  -14.6381   30.4487 O   0  0  0  0  0  0  0  0  0  0  0  0
   10.7301  -15.4610   28.2315 C   0  0  0  0  0  0  0  0  0  0  0  0
    9.6058  -15.5058   27.2788 C   0  0  0  0  0  0  0  0  0  0  0  0
    9.7418  -16.3731   26.0733 C   0  0  2  0  0  0  0  0  0  0  0  0
    8.5578  -16.3720   25.2520 N   0  0  0  0  0  0  0  0  0  0  0  0
   10.3772  -17.6762   26.2677 C   0  0  0  0  0  0  0  0  0  0  0  0
    9.6769  -18.6904   26.4603 O   0  0  0  0  0  0  0  0  0  0  0  0
   11.7447  -17.7968   26.2405 O   0  0  0  0  0  0  0  0  0  0  0  0
  2  1  1  6
  3  2  1  0
  4  3  1  0
  5  4  1  0
  6  5  1  0
  7  6  1  0
  8  2  1  0
  8 10  1  0
  9  8  2  0
 11 10  1  0
 12 11  1  0
 13 12  2  0
 15 14  1  0
 16 15  2  0
 17 15  1  0
 18 17  1  0
 19 18  1  1
 19 20  1  0
 20 12  1  0
 21 23  1  0
 21 19  1  0
 22 21  2  0
M  END
$$$$
