KGQ.pdb
     RDKit          3D

 23 22  0  0  1  0  0  0  0  0999 V2000
    6.7709  -19.3782   21.1016 N   0  0  0  0  0  0  0  0  0  0  0  0
    5.9530  -18.3336   21.6353 C   0  0  1  0  0  0  0  0  0  0  0  0
    5.3781  -18.6578   22.9958 C   0  0  0  0  0  0  0  0  0  0  0  0
    4.5281  -19.9128   22.9525 C   0  0  0  0  0  0  0  0  0  0  0  0
    5.2749  -21.1133   23.4375 C   0  0  0  0  0  0  0  0  0  0  0  0
    4.4186  -22.3597   23.4719 C   0  0  0  0  0  0  0  0  0  0  0  0
    5.1476  -23.5451   23.8019 N   0  0  0  0  0  0  0  0  0  0  0  0
    6.6139  -17.0115   21.6245 C   0  0  0  0  0  0  0  0  0  0  0  0
    5.9727  -16.0312   22.0831 O   0  0  0  0  0  0  0  0  0  0  0  0
    7.9321  -16.9132   21.1003 N   0  0  0  0  0  0  0  0  0  0  0  0
    8.6028  -15.6307   21.1286 C   0  0  0  0  0  0  0  0  0  0  0  0
    9.3120  -15.5008   22.4172 C   0  0  0  0  0  0  0  0  0  0  0  0
   10.5245  -15.2023   22.4553 O   0  0  0  0  0  0  0  0  0  0  0  0
    8.8626  -13.5772   29.4854 N   0  0  0  0  0  0  0  0  0  0  0  0
    8.2464  -13.7213   28.1669 C   0  0  0  0  0  0  0  0  0  0  0  0
    7.1499  -13.1700   27.9892 O   0  0  0  0  0  0  0  0  0  0  0  0
    9.0273  -14.5174   27.2114 C   0  0  0  0  0  0  0  0  0  0  0  0
    8.4896  -14.7204   25.8538 C   0  0  0  0  0  0  0  0  0  0  0  0
    9.2537  -15.5973   24.9203 C   0  0  2  0  0  0  0  0  0  0  0  0
    8.6262  -15.7132   23.6284 N   0  0  0  0  0  0  0  0  0  0  0  0
    9.7945  -16.8376   25.4759 C   0  0  0  0  0  0  0  0  0  0  0  0
    9.2295  -17.9251   25.2432 O   0  0  0  0  0  0  0  0  0  0  0  0
   10.9244  -16.8186   26.2557 O   0  0  0  0  0  0  0  0  0  0  0  0
  2  1  1  1
  3  2  1  0
  4  3  1  0
  5  4  1  0
  6  5  1  0
  7  6  1  0
  8  2  1  0
  8 10  1  0
  9  8  2  0
 11 10  1  0
 12 11  1  0
 13 12  2  0
 15 14  1  0
 16 15  2  0
 17 15  1  0
 18 17  1  0
 19 18  1  1
 19 20  1  0
 20 12  1  0
 21 23  1  0
 21 19  1  0
 22 21  2  0
M  END
$$$$
