KGQ.pdb
     RDKit          3D

 23 22  0  0  1  0  0  0  0  0999 V2000
    9.6562  -15.0531   18.5152 N   0  0  0  0  0  0  0  0  0  0  0  0
    8.5958  -14.2677   19.0660 C   0  0  1  0  0  0  0  0  0  0  0  0
    7.6485  -13.7220   18.0211 C   0  0  0  0  0  0  0  0  0  0  0  0
    8.3391  -13.5553   16.6814 C   0  0  0  0  0  0  0  0  0  0  0  0
    7.5419  -14.1435   15.5622 C   0  0  0  0  0  0  0  0  0  0  0  0
    8.2242  -13.9992   14.2200 C   0  0  0  0  0  0  0  0  0  0  0  0
    7.4703  -14.5449   13.1340 N   0  0  0  0  0  0  0  0  0  0  0  0
    7.8684  -14.9513   20.1561 C   0  0  0  0  0  0  0  0  0  0  0  0
    6.8082  -15.5610   19.8621 O   0  0  0  0  0  0  0  0  0  0  0  0
    8.3989  -14.8867   21.4740 N   0  0  0  0  0  0  0  0  0  0  0  0
    7.7284  -15.6087   22.5345 C   0  0  0  0  0  0  0  0  0  0  0  0
    8.5213  -15.4672   23.7721 C   0  0  0  0  0  0  0  0  0  0  0  0
    9.6514  -14.9351   23.7531 O   0  0  0  0  0  0  0  0  0  0  0  0
    6.1235  -11.0556   26.0694 N   0  0  0  0  0  0  0  0  0  0  0  0
    6.5405  -12.1795   26.9073 C   0  0  0  0  0  0  0  0  0  0  0  0
    6.6477  -11.9708   28.1250 O   0  0  0  0  0  0  0  0  0  0  0  0
    6.7813  -13.4300   26.1761 C   0  0  0  0  0  0  0  0  0  0  0  0
    7.3167  -14.5889   26.9137 C   0  0  0  0  0  0  0  0  0  0  0  0
    8.4011  -15.3878   26.2736 C   0  0  2  0  0  0  0  0  0  0  0  0
    8.0103  -15.9333   24.9985 N   0  0  0  0  0  0  0  0  0  0  0  0
    9.1567  -16.2888   27.1438 C   0  0  0  0  0  0  0  0  0  0  0  0
    9.0416  -17.5241   27.0150 O   0  0  0  0  0  0  0  0  0  0  0  0
    9.9967  -15.7870   28.1070 O   0  0  0  0  0  0  0  0  0  0  0  0
  2  1  1  6
  3  2  1  0
  4  3  1  0
  5  4  1  0
  6  5  1  0
  7  6  1  0
  8  2  1  0
  8 10  1  0
  9  8  2  0
 11 10  1  0
 12 11  1  0
 13 12  2  0
 15 14  1  0
 16 15  2  0
 17 15  1  0
 18 17  1  0
 19 18  1  1
 19 20  1  0
 20 12  1  0
 21 23  1  0
 21 19  1  0
 22 21  2  0
M  END
$$$$
