KGQ.pdb
     RDKit          3D

 23 22  0  0  1  0  0  0  0  0999 V2000
    6.3390  -18.9793   21.7611 N   0  0  0  0  0  0  0  0  0  0  0  0
    5.6047  -17.8894   22.3248 C   0  0  1  0  0  0  0  0  0  0  0  0
    4.1056  -18.0606   22.2245 C   0  0  0  0  0  0  0  0  0  0  0  0
    3.7425  -19.3285   21.4761 C   0  0  0  0  0  0  0  0  0  0  0  0
    2.2632  -19.5251   21.3902 C   0  0  0  0  0  0  0  0  0  0  0  0
    1.8818  -20.7429   20.5781 C   0  0  0  0  0  0  0  0  0  0  0  0
    0.4698  -20.9541   20.4934 N   0  0  0  0  0  0  0  0  0  0  0  0
    6.0233  -17.5538   23.7021 C   0  0  0  0  0  0  0  0  0  0  0  0
    5.3387  -16.7085   24.3340 O   0  0  0  0  0  0  0  0  0  0  0  0
    7.1706  -18.1979   24.2413 N   0  0  0  0  0  0  0  0  0  0  0  0
    7.5962  -17.8616   25.5835 C   0  0  0  0  0  0  0  0  0  0  0  0
    8.8298  -17.0549   25.4960 C   0  0  0  0  0  0  0  0  0  0  0  0
    9.3185  -16.7476   24.3881 O   0  0  0  0  0  0  0  0  0  0  0  0
    6.1991  -12.7043   27.5400 N   0  0  0  0  0  0  0  0  0  0  0  0
    7.1469  -12.2842   26.5084 C   0  0  0  0  0  0  0  0  0  0  0  0
    7.0220  -11.1364   26.0560 O   0  0  0  0  0  0  0  0  0  0  0  0
    8.1396  -13.3018   26.1402 C   0  0  0  0  0  0  0  0  0  0  0  0
    8.1265  -14.5930   26.8517 C   0  0  0  0  0  0  0  0  0  0  0  0
    9.4340  -15.2540   27.1300 C   0  0  2  0  0  0  0  0  0  0  0  0
    9.4759  -16.6183   26.6683 N   0  0  0  0  0  0  0  0  0  0  0  0
   10.0282  -15.0111   28.4444 C   0  0  0  0  0  0  0  0  0  0  0  0
    9.6700  -15.6904   29.4273 O   0  0  0  0  0  0  0  0  0  0  0  0
   10.9821  -14.0375   28.6098 O   0  0  0  0  0  0  0  0  0  0  0  0
  2  1  1  1
  3  2  1  0
  4  3  1  0
  5  4  1  0
  6  5  1  0
  7  6  1  0
  8  2  1  0
  8 10  1  0
  9  8  2  0
 11 10  1  0
 12 11  1  0
 13 12  2  0
 15 14  1  0
 16 15  2  0
 17 15  1  0
 18 17  1  0
 19 18  1  1
 19 20  1  0
 20 12  1  0
 21 23  1  0
 21 19  1  0
 22 21  2  0
M  END
$$$$
