KGQ.pdb
     RDKit          3D

 23 22  0  0  1  0  0  0  0  0999 V2000
    5.7030  -18.8958   23.1291 N   0  0  0  0  0  0  0  0  0  0  0  0
    5.6032  -18.5941   21.7349 C   0  0  1  0  0  0  0  0  0  0  0  0
    4.2055  -18.2118   21.3026 C   0  0  0  0  0  0  0  0  0  0  0  0
    3.2109  -19.3152   21.6072 C   0  0  0  0  0  0  0  0  0  0  0  0
    1.8141  -18.9281   21.2421 C   0  0  0  0  0  0  0  0  0  0  0  0
    0.7974  -19.9812   21.6231 C   0  0  0  0  0  0  0  0  0  0  0  0
   -0.5544  -19.5883   21.3705 N   0  0  0  0  0  0  0  0  0  0  0  0
    6.6035  -17.6065   21.2782 C   0  0  0  0  0  0  0  0  0  0  0  0
    6.5708  -17.2530   20.0714 O   0  0  0  0  0  0  0  0  0  0  0  0
    7.5469  -17.1080   22.2183 N   0  0  0  0  0  0  0  0  0  0  0  0
    8.5010  -16.1074   21.7891 C   0  0  0  0  0  0  0  0  0  0  0  0
    8.8876  -15.2953   22.9601 C   0  0  0  0  0  0  0  0  0  0  0  0
    9.6944  -14.3483   22.8463 O   0  0  0  0  0  0  0  0  0  0  0  0
    6.9227  -11.5702   26.8328 N   0  0  0  0  0  0  0  0  0  0  0  0
    6.1480  -12.7468   26.4399 C   0  0  0  0  0  0  0  0  0  0  0  0
    4.9504  -12.7713   26.7610 O   0  0  0  0  0  0  0  0  0  0  0  0
    6.9109  -13.7621   25.7025 C   0  0  0  0  0  0  0  0  0  0  0  0
    8.2438  -14.1464   26.2018 C   0  0  0  0  0  0  0  0  0  0  0  0
    8.9924  -15.2028   25.4619 C   0  0  2  0  0  0  0  0  0  0  0  0
    8.3484  -15.5798   24.2292 N   0  0  0  0  0  0  0  0  0  0  0  0
    9.5349  -16.3047   26.2564 C   0  0  0  0  0  0  0  0  0  0  0  0
   10.2014  -16.0655   27.2833 O   0  0  0  0  0  0  0  0  0  0  0  0
    9.3176  -17.6078   25.8823 O   0  0  0  0  0  0  0  0  0  0  0  0
  2  1  1  1
  3  2  1  0
  4  3  1  0
  5  4  1  0
  6  5  1  0
  7  6  1  0
  8  2  1  0
  8 10  1  0
  9  8  2  0
 11 10  1  0
 12 11  1  0
 13 12  2  0
 15 14  1  0
 16 15  2  0
 17 15  1  0
 18 17  1  0
 19 18  1  1
 19 20  1  0
 20 12  1  0
 21 23  1  0
 21 19  1  0
 22 21  2  0
M  END
$$$$
