KGQ.pdb
     RDKit          3D

 23 22  0  0  1  0  0  0  0  0999 V2000
    6.9457  -17.5415   19.8643 N   0  0  0  0  0  0  0  0  0  0  0  0
    8.1529  -17.1634   20.5311 C   0  0  1  0  0  0  0  0  0  0  0  0
    8.5178  -15.7095   20.3320 C   0  0  0  0  0  0  0  0  0  0  0  0
    8.0157  -15.1907   18.9985 C   0  0  0  0  0  0  0  0  0  0  0  0
    8.3010  -13.7344   18.8196 C   0  0  0  0  0  0  0  0  0  0  0  0
    7.7381  -13.1829   17.5286 C   0  0  0  0  0  0  0  0  0  0  0  0
    8.0113  -11.7926   17.3337 N   0  0  0  0  0  0  0  0  0  0  0  0
    8.1724  -17.5386   21.9607 C   0  0  0  0  0  0  0  0  0  0  0  0
    7.0994  -17.4358   22.6091 O   0  0  0  0  0  0  0  0  0  0  0  0
    9.3939  -17.9941   22.5287 N   0  0  0  0  0  0  0  0  0  0  0  0
    9.4161  -18.3801   23.9237 C   0  0  0  0  0  0  0  0  0  0  0  0
   10.3541  -17.4934   24.6407 C   0  0  0  0  0  0  0  0  0  0  0  0
   10.8954  -16.5283   24.0608 O   0  0  0  0  0  0  0  0  0  0  0  0
    9.5748  -12.0756   27.6617 N   0  0  0  0  0  0  0  0  0  0  0  0
    8.8964  -13.2924   27.2164 C   0  0  0  0  0  0  0  0  0  0  0  0
    7.9055  -13.1542   26.4837 O   0  0  0  0  0  0  0  0  0  0  0  0
    9.4941  -14.5400   27.7090 C   0  0  0  0  0  0  0  0  0  0  0  0
    9.5523  -15.7022   26.8036 C   0  0  0  0  0  0  0  0  0  0  0  0
   10.6590  -16.6838   26.9923 C   0  0  2  0  0  0  0  0  0  0  0  0
   10.6529  -17.7256   25.9969 N   0  0  0  0  0  0  0  0  0  0  0  0
   10.9275  -17.1183   28.3630 C   0  0  0  0  0  0  0  0  0  0  0  0
   10.5769  -18.2551   28.7381 O   0  0  0  0  0  0  0  0  0  0  0  0
   11.5651  -16.2837   29.2473 O   0  0  0  0  0  0  0  0  0  0  0  0
  2  1  1  1
  3  2  1  0
  4  3  1  0
  5  4  1  0
  6  5  1  0
  7  6  1  0
  8  2  1  0
  8 10  1  0
  9  8  2  0
 11 10  1  0
 12 11  1  0
 13 12  2  0
 15 14  1  0
 16 15  2  0
 17 15  1  0
 18 17  1  0
 19 18  1  1
 19 20  1  0
 20 12  1  0
 21 23  1  0
 21 19  1  0
 22 21  2  0
M  END
$$$$
