TPD.pdb
     RDKit          3D

 23 23  0  0  1  0  0  0  0  0999 V2000
   16.0222  -10.0886  -17.5501 C   0  0  0  0  0  0  0  0  0  0  0  0
   15.6264  -11.0989  -16.5230 C   0  0  1  0  0  0  0  0  0  0  0  0
   14.5030  -11.8546  -16.8896 O   0  0  0  0  0  0  0  0  0  0  0  0
   16.8051  -12.0424  -16.2242 C   0  0  2  0  0  0  0  0  0  0  0  0
   16.2838  -13.0129  -15.2685 N   0  0  0  0  0  0  0  0  0  0  0  0
   17.9190  -11.2648  -15.6095 C   0  0  0  0  0  0  0  0  0  0  0  0
   17.5369  -10.4452  -14.7307 O   0  0  0  0  0  0  0  0  0  0  0  0
   19.2638  -11.4342  -15.9786 N   0  0  0  0  0  0  0  0  0  0  0  0
   19.8422  -12.7717  -16.2627 C   0  0  0  0  0  0  0  0  0  0  0  0
   20.4457  -12.4866  -17.6169 C   0  0  0  0  0  0  0  0  0  0  0  0
   20.7450  -10.9924  -17.6254 C   0  0  0  0  0  0  0  0  0  0  0  0
   20.4130  -10.6279  -16.1781 C   0  0  1  0  0  0  0  0  0  0  0  0
   20.3585   -9.2110  -15.9497 C   0  0  0  0  0  0  0  0  0  0  0  0
   19.4812   -8.4553  -16.3956 O   0  0  0  0  0  0  0  0  0  0  0  0
   21.3683   -8.5742  -15.1547 N   0  0  0  0  0  0  0  0  0  0  0  0
   21.3843   -7.1108  -15.0014 C   0  0  1  0  0  0  0  0  0  0  0  0
   21.9533   -6.8477  -13.6273 C   0  0  0  0  0  0  0  0  0  0  0  0
   22.1205   -5.4090  -13.3297 C   0  0  0  0  0  0  0  0  0  0  0  0
   21.2247   -4.5357  -13.4691 O   0  0  0  0  0  0  0  0  0  0  0  0
   22.2239   -6.4707  -16.0142 C   0  0  0  0  0  0  0  0  0  0  0  0
   21.8218   -5.2428  -16.5188 O   0  0  0  0  0  0  0  0  0  0  0  0
   23.3492   -4.9157  -12.8516 O   0  0  0  0  0  0  0  0  0  0  0  0
   23.2971   -6.9754  -16.4570 O   0  0  0  0  0  0  0  0  0  0  0  0
  2  1  1  6
  3  2  1  0
  4  6  1  0
  4  2  1  0
  4  5  1  1
  6  7  2  0
  8 12  1  0
  8  6  1  0
  9  8  1  0
 10  9  1  0
 10 11  1  0
 11 12  1  0
 13 14  2  0
 12 13  1  6
 15 13  1  0
 16 15  1  0
 16 20  1  0
 16 17  1  1
 18 17  1  0
 18 22  1  0
 19 18  2  0
 20 21  1  0
 23 20  2  0
M  END
$$$$
