TPD.pdb
     RDKit          3D

 23 23  0  0  1  0  0  0  0  0999 V2000
   23.5033  -12.2452  -19.2263 C   0  0  0  0  0  0  0  0  0  0  0  0
   23.4875  -13.3783  -18.2527 C   0  0  1  0  0  0  0  0  0  0  0  0
   23.7216  -14.6268  -18.8477 O   0  0  0  0  0  0  0  0  0  0  0  0
   24.5233  -13.1371  -17.1401 C   0  0  2  0  0  0  0  0  0  0  0  0
   24.5511  -14.3754  -16.3701 N   0  0  0  0  0  0  0  0  0  0  0  0
   24.0712  -12.0074  -16.2783 C   0  0  0  0  0  0  0  0  0  0  0  0
   22.8239  -11.9803  -16.0956 O   0  0  0  0  0  0  0  0  0  0  0  0
   24.9558  -11.0664  -15.7256 N   0  0  0  0  0  0  0  0  0  0  0  0
   26.2598  -11.4605  -15.1351 C   0  0  0  0  0  0  0  0  0  0  0  0
   27.1598  -10.5170  -15.8962 C   0  0  0  0  0  0  0  0  0  0  0  0
   26.2871   -9.3215  -16.2585 C   0  0  0  0  0  0  0  0  0  0  0  0
   25.0038   -9.6671  -15.5025 C   0  0  1  0  0  0  0  0  0  0  0  0
   23.8921   -8.8324  -15.8636 C   0  0  0  0  0  0  0  0  0  0  0  0
   23.2220   -8.9553  -16.9006 O   0  0  0  0  0  0  0  0  0  0  0  0
   23.4867   -7.7644  -14.9961 N   0  0  0  0  0  0  0  0  0  0  0  0
   22.3571   -6.8950  -15.3611 C   0  0  1  0  0  0  0  0  0  0  0  0
   21.1115   -7.7082  -15.0995 C   0  0  0  0  0  0  0  0  0  0  0  0
   19.8631   -6.9871  -15.4282 C   0  0  0  0  0  0  0  0  0  0  0  0
   19.1057   -6.4374  -14.5863 O   0  0  0  0  0  0  0  0  0  0  0  0
   22.3299   -5.6764  -14.5520 C   0  0  0  0  0  0  0  0  0  0  0  0
   23.2276   -5.5673  -13.5002 O   0  0  0  0  0  0  0  0  0  0  0  0
   19.4347   -6.8715  -16.7641 O   0  0  0  0  0  0  0  0  0  0  0  0
   21.5318   -4.7156  -14.7574 O   0  0  0  0  0  0  0  0  0  0  0  0
  2  1  1  6
  3  2  1  0
  4  6  1  0
  4  2  1  0
  4  5  1  1
  6  7  2  0
  8 12  1  0
  8  6  1  0
  9  8  1  0
 10  9  1  0
 10 11  1  0
 11 12  1  0
 13 14  2  0
 12 13  1  6
 15 13  1  0
 16 15  1  0
 16 20  1  0
 16 17  1  1
 18 17  1  0
 18 22  1  0
 19 18  2  0
 20 21  1  0
 23 20  2  0
M  END
$$$$
