TPD.pdb
     RDKit          3D

 23 23  0  0  1  0  0  0  0  0999 V2000
   23.7141   -9.7511  -19.6859 C   0  0  0  0  0  0  0  0  0  0  0  0
   22.4156  -10.4733  -19.8420 C   0  0  1  0  0  0  0  0  0  0  0  0
   22.4015  -11.3656  -20.9242 O   0  0  0  0  0  0  0  0  0  0  0  0
   22.0699  -11.2304  -18.5473 C   0  0  2  0  0  0  0  0  0  0  0  0
   20.9169  -12.0571  -18.8853 N   0  0  0  0  0  0  0  0  0  0  0  0
   21.7048  -10.2517  -17.4832 C   0  0  0  0  0  0  0  0  0  0  0  0
   21.1223   -9.2233  -17.9222 O   0  0  0  0  0  0  0  0  0  0  0  0
   21.9860  -10.4618  -16.1229 N   0  0  0  0  0  0  0  0  0  0  0  0
   21.6906  -11.7494  -15.4453 C   0  0  0  0  0  0  0  0  0  0  0  0
   23.0471  -12.0145  -14.8379 C   0  0  0  0  0  0  0  0  0  0  0  0
   23.6848  -10.6439  -14.6458 C   0  0  0  0  0  0  0  0  0  0  0  0
   22.5195   -9.7319  -15.0306 C   0  0  1  0  0  0  0  0  0  0  0  0
   22.9052   -8.3577  -15.1905 C   0  0  0  0  0  0  0  0  0  0  0  0
   23.8477   -7.9643  -15.8951 O   0  0  0  0  0  0  0  0  0  0  0  0
   22.1801   -7.3260  -14.5070 N   0  0  0  0  0  0  0  0  0  0  0  0
   22.5359   -5.9113  -14.6997 C   0  0  1  0  0  0  0  0  0  0  0  0
   22.2598   -5.6125  -16.1543 C   0  0  0  0  0  0  0  0  0  0  0  0
   22.5658   -4.2162  -16.5324 C   0  0  0  0  0  0  0  0  0  0  0  0
   23.1781   -3.3907  -15.8056 O   0  0  0  0  0  0  0  0  0  0  0  0
   21.7297   -5.0314  -13.8535 C   0  0  0  0  0  0  0  0  0  0  0  0
   22.2404   -3.7824  -13.5318 O   0  0  0  0  0  0  0  0  0  0  0  0
   22.1698   -3.7115  -17.7854 O   0  0  0  0  0  0  0  0  0  0  0  0
   20.5917   -5.3463  -13.3971 O   0  0  0  0  0  0  0  0  0  0  0  0
  2  1  1  1
  3  2  1  0
  4  6  1  0
  4  2  1  0
  4  5  1  6
  6  7  2  0
  8 12  1  0
  8  6  1  0
  9  8  1  0
 10  9  1  0
 10 11  1  0
 11 12  1  0
 13 14  2  0
 12 13  1  6
 15 13  1  0
 16 15  1  0
 16 20  1  0
 16 17  1  6
 18 17  1  0
 18 22  1  0
 19 18  2  0
 20 21  1  0
 23 20  2  0
M  END
$$$$
