TPD.pdb
     RDKit          3D

 23 23  0  0  1  0  0  0  0  0999 V2000
   22.6588  -10.4910  -20.1095 C   0  0  0  0  0  0  0  0  0  0  0  0
   22.0433  -11.8139  -19.7884 C   0  0  1  0  0  0  0  0  0  0  0  0
   22.5559  -12.8680  -20.5589 O   0  0  0  0  0  0  0  0  0  0  0  0
   22.2237  -12.1349  -18.2940 C   0  0  2  0  0  0  0  0  0  0  0  0
   21.7097  -13.4899  -18.1302 N   0  0  0  0  0  0  0  0  0  0  0  0
   21.4183  -11.1792  -17.4809 C   0  0  0  0  0  0  0  0  0  0  0  0
   20.3830  -10.7645  -18.0692 O   0  0  0  0  0  0  0  0  0  0  0  0
   21.7835  -10.7829  -16.1835 N   0  0  0  0  0  0  0  0  0  0  0  0
   22.3218  -11.7428  -15.1869 C   0  0  0  0  0  0  0  0  0  0  0  0
   23.5750  -10.9985  -14.7934 C   0  0  0  0  0  0  0  0  0  0  0  0
   23.2711   -9.5258  -15.0400 C   0  0  0  0  0  0  0  0  0  0  0  0
   21.7879   -9.5988  -15.4037 C   0  0  1  0  0  0  0  0  0  0  0  0
   21.2759   -8.3694  -15.9416 C   0  0  0  0  0  0  0  0  0  0  0  0
   21.6629   -7.8427  -16.9963 O   0  0  0  0  0  0  0  0  0  0  0  0
   20.2411   -7.6595  -15.2470 N   0  0  0  0  0  0  0  0  0  0  0  0
   19.7577   -6.3642  -15.7506 C   0  0  1  0  0  0  0  0  0  0  0  0
   18.2570   -6.3919  -15.5824 C   0  0  0  0  0  0  0  0  0  0  0  0
   17.6020   -5.1242  -15.9701 C   0  0  0  0  0  0  0  0  0  0  0  0
   18.0587   -4.3047  -16.8094 O   0  0  0  0  0  0  0  0  0  0  0  0
   20.3189   -5.2462  -14.9921 C   0  0  0  0  0  0  0  0  0  0  0  0
   20.2622   -3.9788  -15.5531 O   0  0  0  0  0  0  0  0  0  0  0  0
   16.3739   -4.7484  -15.3937 O   0  0  0  0  0  0  0  0  0  0  0  0
   20.8546   -5.3705  -13.8519 O   0  0  0  0  0  0  0  0  0  0  0  0
  2  1  1  6
  3  2  1  0
  4  6  1  0
  4  2  1  0
  4  5  1  6
  6  7  2  0
  8 12  1  0
  8  6  1  0
  9  8  1  0
 10  9  1  0
 10 11  1  0
 11 12  1  0
 13 14  2  0
 12 13  1  6
 15 13  1  0
 16 15  1  0
 16 20  1  0
 16 17  1  1
 18 17  1  0
 18 22  1  0
 19 18  2  0
 20 21  1  0
 23 20  2  0
M  END
$$$$
