TPD.pdb
     RDKit          3D

 23 23  0  0  1  0  0  0  0  0999 V2000
   22.5042  -10.2080  -20.5798 C   0  0  0  0  0  0  0  0  0  0  0  0
   21.6685  -11.3391  -20.0753 C   0  0  1  0  0  0  0  0  0  0  0  0
   21.4978  -12.3670  -21.0143 O   0  0  0  0  0  0  0  0  0  0  0  0
   22.2793  -11.9170  -18.7862 C   0  0  2  0  0  0  0  0  0  0  0  0
   21.4442  -13.0643  -18.4496 N   0  0  0  0  0  0  0  0  0  0  0  0
   22.2080  -10.8953  -17.7025 C   0  0  0  0  0  0  0  0  0  0  0  0
   21.3221  -10.0187  -17.8934 O   0  0  0  0  0  0  0  0  0  0  0  0
   23.0504  -10.9136  -16.5784 N   0  0  0  0  0  0  0  0  0  0  0  0
   23.4191  -12.1755  -15.8885 C   0  0  0  0  0  0  0  0  0  0  0  0
   24.9203  -12.0154  -15.8872 C   0  0  0  0  0  0  0  0  0  0  0  0
   25.1719  -10.5128  -15.9155 C   0  0  0  0  0  0  0  0  0  0  0  0
   23.7456   -9.9830  -15.7654 C   0  0  1  0  0  0  0  0  0  0  0  0
   23.6366   -8.5727  -16.0145 C   0  0  0  0  0  0  0  0  0  0  0  0
   24.0057   -8.0070  -17.0554 O   0  0  0  0  0  0  0  0  0  0  0  0
   23.0666   -7.7113  -15.0192 N   0  0  0  0  0  0  0  0  0  0  0  0
   22.8820   -6.2771  -15.2912 C   0  0  1  0  0  0  0  0  0  0  0  0
   21.9431   -6.2003  -16.4719 C   0  0  0  0  0  0  0  0  0  0  0  0
   21.6014   -4.8143  -16.8576 C   0  0  0  0  0  0  0  0  0  0  0  0
   22.1574   -3.7815  -16.4008 O   0  0  0  0  0  0  0  0  0  0  0  0
   22.2934   -5.5816  -14.1466 C   0  0  0  0  0  0  0  0  0  0  0  0
   21.7884   -6.3448  -13.1041 O   0  0  0  0  0  0  0  0  0  0  0  0
   20.5874   -4.5642  -17.8014 O   0  0  0  0  0  0  0  0  0  0  0  0
   22.2179   -4.3213  -14.0544 O   0  0  0  0  0  0  0  0  0  0  0  0
  2  1  1  6
  3  2  1  0
  4  6  1  0
  4  2  1  0
  4  5  1  1
  6  7  2  0
  8 12  1  0
  8  6  1  0
  9  8  1  0
 10  9  1  0
 10 11  1  0
 11 12  1  0
 13 14  2  0
 12 13  1  6
 15 13  1  0
 16 15  1  0
 16 20  1  0
 16 17  1  6
 18 17  1  0
 18 22  1  0
 19 18  2  0
 20 21  1  0
 23 20  2  0
M  END
$$$$
