TPD.pdb
     RDKit          3D

 23 23  0  0  1  0  0  0  0  0999 V2000
   23.3998  -11.3686  -19.8075 C   0  0  0  0  0  0  0  0  0  0  0  0
   22.9162  -12.5007  -18.9610 C   0  0  1  0  0  0  0  0  0  0  0  0
   22.9494  -13.7400  -19.6171 O   0  0  0  0  0  0  0  0  0  0  0  0
   23.7405  -12.5838  -17.6638 C   0  0  2  0  0  0  0  0  0  0  0  0
   23.3157  -13.8220  -17.0208 N   0  0  0  0  0  0  0  0  0  0  0  0
   23.4156  -11.4168  -16.7944 C   0  0  0  0  0  0  0  0  0  0  0  0
   22.2017  -11.0783  -16.8375 O   0  0  0  0  0  0  0  0  0  0  0  0
   24.3751  -10.7615  -16.0049 N   0  0  0  0  0  0  0  0  0  0  0  0
   25.4219  -11.5027  -15.2571 C   0  0  0  0  0  0  0  0  0  0  0  0
   26.6389  -10.7596  -15.7530 C   0  0  0  0  0  0  0  0  0  0  0  0
   26.1463   -9.3647  -16.1186 C   0  0  0  0  0  0  0  0  0  0  0  0
   24.7012   -9.4352  -15.6242 C   0  0  1  0  0  0  0  0  0  0  0  0
   23.8970   -8.3307  -16.0672 C   0  0  0  0  0  0  0  0  0  0  0  0
   23.6711   -8.0509  -17.2548 O   0  0  0  0  0  0  0  0  0  0  0  0
   23.2881   -7.4570  -15.1063 N   0  0  0  0  0  0  0  0  0  0  0  0
   22.5431   -6.2671  -15.5469 C   0  0  1  0  0  0  0  0  0  0  0  0
   21.0869   -6.5757  -15.2905 C   0  0  0  0  0  0  0  0  0  0  0  0
   20.1778   -5.4815  -15.6938 C   0  0  0  0  0  0  0  0  0  0  0  0
   20.3546   -4.7267  -16.6855 O   0  0  0  0  0  0  0  0  0  0  0  0
   22.9349   -5.0752  -14.7944 C   0  0  0  0  0  0  0  0  0  0  0  0
   22.4742   -3.8423  -15.2324 O   0  0  0  0  0  0  0  0  0  0  0  0
   19.0103   -5.2128  -14.9547 O   0  0  0  0  0  0  0  0  0  0  0  0
   23.6721   -5.1057  -13.7658 O   0  0  0  0  0  0  0  0  0  0  0  0
  2  1  1  6
  3  2  1  0
  4  6  1  0
  4  2  1  0
  4  5  1  1
  6  7  2  0
  8 12  1  0
  8  6  1  0
  9  8  1  0
 10  9  1  0
 10 11  1  0
 11 12  1  0
 13 14  2  0
 12 13  1  6
 15 13  1  0
 16 15  1  0
 16 20  1  0
 16 17  1  1
 18 17  1  0
 18 22  1  0
 19 18  2  0
 20 21  1  0
 23 20  2  0
M  END
$$$$
