TPD.pdb
     RDKit          3D

 23 23  0  0  1  0  0  0  0  0999 V2000
   20.3232  -10.4798  -19.3768 C   0  0  0  0  0  0  0  0  0  0  0  0
   19.6411  -11.5641  -18.6080 C   0  0  1  0  0  0  0  0  0  0  0  0
   19.4104  -12.7224  -19.3647 O   0  0  0  0  0  0  0  0  0  0  0  0
   20.4605  -11.9234  -17.3556 C   0  0  2  0  0  0  0  0  0  0  0  0
   19.7529  -13.0432  -16.7453 N   0  0  0  0  0  0  0  0  0  0  0  0
   20.4784  -10.7592  -16.4241 C   0  0  0  0  0  0  0  0  0  0  0  0
   19.4810   -9.9980  -16.5492 O   0  0  0  0  0  0  0  0  0  0  0  0
   21.5110  -10.5376  -15.4977 N   0  0  0  0  0  0  0  0  0  0  0  0
   22.1141  -11.6413  -14.7087 C   0  0  0  0  0  0  0  0  0  0  0  0
   23.5690  -11.3924  -15.0263 C   0  0  0  0  0  0  0  0  0  0  0  0
   23.6723   -9.9033  -15.3329 C   0  0  0  0  0  0  0  0  0  0  0  0
   22.2553   -9.4434  -14.9888 C   0  0  1  0  0  0  0  0  0  0  0  0
   21.9737   -8.1041  -15.4245 C   0  0  0  0  0  0  0  0  0  0  0  0
   22.0938   -7.6992  -16.5912 O   0  0  0  0  0  0  0  0  0  0  0  0
   21.5175   -7.1249  -14.4808 N   0  0  0  0  0  0  0  0  0  0  0  0
   21.3361   -5.7231  -14.8895 C   0  0  1  0  0  0  0  0  0  0  0  0
   19.8643   -5.4315  -14.7160 C   0  0  0  0  0  0  0  0  0  0  0  0
   19.5066   -4.0291  -15.0190 C   0  0  0  0  0  0  0  0  0  0  0  0
   20.2188   -3.2313  -15.6829 O   0  0  0  0  0  0  0  0  0  0  0  0
   22.1212   -4.8117  -14.0569 C   0  0  0  0  0  0  0  0  0  0  0  0
   22.6685   -5.3044  -12.8813 O   0  0  0  0  0  0  0  0  0  0  0  0
   18.2923   -3.4855  -14.5589 O   0  0  0  0  0  0  0  0  0  0  0  0
   22.3286   -3.5975  -14.3486 O   0  0  0  0  0  0  0  0  0  0  0  0
  2  1  1  6
  3  2  1  0
  4  6  1  0
  4  2  1  0
  4  5  1  1
  6  7  2  0
  8 12  1  0
  8  6  1  0
  9  8  1  0
 10  9  1  0
 10 11  1  0
 11 12  1  0
 13 14  2  0
 12 13  1  6
 15 13  1  0
 16 15  1  0
 16 20  1  0
 16 17  1  1
 18 17  1  0
 18 22  1  0
 19 18  2  0
 20 21  1  0
 23 20  2  0
M  END
$$$$
