TPD.pdb
     RDKit          3D

 23 23  0  0  1  0  0  0  0  0999 V2000
   25.3173  -10.3533  -20.4852 C   0  0  0  0  0  0  0  0  0  0  0  0
   24.5677  -11.6129  -20.1962 C   0  0  1  0  0  0  0  0  0  0  0  0
   24.7784  -12.6178  -21.1519 O   0  0  0  0  0  0  0  0  0  0  0  0
   24.9407  -12.1447  -18.8008 C   0  0  2  0  0  0  0  0  0  0  0  0
   24.3376  -13.4704  -18.7242 N   0  0  0  0  0  0  0  0  0  0  0  0
   24.3553  -11.2540  -17.7581 C   0  0  0  0  0  0  0  0  0  0  0  0
   23.1838  -10.8700  -18.0227 O   0  0  0  0  0  0  0  0  0  0  0  0
   25.0482  -10.8821  -16.5940 N   0  0  0  0  0  0  0  0  0  0  0  0
   25.8409  -11.8561  -15.8019 C   0  0  0  0  0  0  0  0  0  0  0  0
   27.1465  -11.1010  -15.7351 C   0  0  0  0  0  0  0  0  0  0  0  0
   26.7742   -9.6280  -15.8529 C   0  0  0  0  0  0  0  0  0  0  0  0
   25.2483   -9.7165  -15.8119 C   0  0  1  0  0  0  0  0  0  0  0  0
   24.6004   -8.4834  -16.1617 C   0  0  0  0  0  0  0  0  0  0  0  0
   24.5650   -8.0016  -17.3046 O   0  0  0  0  0  0  0  0  0  0  0  0
   23.9309   -7.7146  -15.1526 N   0  0  0  0  0  0  0  0  0  0  0  0
   23.2667   -6.4479  -15.4982 C   0  0  1  0  0  0  0  0  0  0  0  0
   22.1623   -6.8124  -16.4618 C   0  0  0  0  0  0  0  0  0  0  0  0
   21.3908   -5.6434  -16.9358 C   0  0  0  0  0  0  0  0  0  0  0  0
   21.8955   -4.5726  -17.3639 O   0  0  0  0  0  0  0  0  0  0  0  0
   22.6972   -5.7971  -14.3181 C   0  0  0  0  0  0  0  0  0  0  0  0
   22.6913   -4.4107  -14.2725 O   0  0  0  0  0  0  0  0  0  0  0  0
   19.9833   -5.6668  -16.9333 O   0  0  0  0  0  0  0  0  0  0  0  0
   22.2101   -6.4286  -13.3351 O   0  0  0  0  0  0  0  0  0  0  0  0
  2  1  1  6
  3  2  1  0
  4  6  1  0
  4  2  1  0
  4  5  1  1
  6  7  2  0
  8 12  1  0
  8  6  1  0
  9  8  1  0
 10  9  1  0
 10 11  1  0
 11 12  1  0
 13 14  2  0
 12 13  1  6
 15 13  1  0
 16 15  1  0
 16 20  1  0
 16 17  1  6
 18 17  1  0
 18 22  1  0
 19 18  2  0
 20 21  1  0
 23 20  2  0
M  END
$$$$
