TPD.pdb
     RDKit          3D

 23 23  0  0  1  0  0  0  0  0999 V2000
   24.8035  -13.7177  -19.2391 C   0  0  0  0  0  0  0  0  0  0  0  0
   24.5166  -14.8819  -18.3478 C   0  0  1  0  0  0  0  0  0  0  0  0
   24.9813  -16.1024  -18.8594 O   0  0  0  0  0  0  0  0  0  0  0  0
   25.1229  -14.6452  -16.9531 C   0  0  2  0  0  0  0  0  0  0  0  0
   24.9228  -15.8974  -16.2327 N   0  0  0  0  0  0  0  0  0  0  0  0
   24.3878  -13.5399  -16.2740 C   0  0  0  0  0  0  0  0  0  0  0  0
   23.1365  -13.6048  -16.4156 O   0  0  0  0  0  0  0  0  0  0  0  0
   25.0337  -12.5261  -15.5470 N   0  0  0  0  0  0  0  0  0  0  0  0
   26.2531  -12.7868  -14.7412 C   0  0  0  0  0  0  0  0  0  0  0  0
   27.1446  -11.7057  -15.3032 C   0  0  0  0  0  0  0  0  0  0  0  0
   26.2035  -10.6090  -15.7865 C   0  0  0  0  0  0  0  0  0  0  0  0
   24.8623  -11.1435  -15.2834 C   0  0  1  0  0  0  0  0  0  0  0  0
   23.7338  -10.4336  -15.8178 C   0  0  0  0  0  0  0  0  0  0  0  0
   23.4438  -10.3690  -17.0225 O   0  0  0  0  0  0  0  0  0  0  0  0
   22.8464   -9.7315  -14.9364 N   0  0  0  0  0  0  0  0  0  0  0  0
   21.7031   -8.9775  -15.4744 C   0  0  1  0  0  0  0  0  0  0  0  0
   20.4708   -9.7399  -15.0483 C   0  0  0  0  0  0  0  0  0  0  0  0
   19.2122   -9.1354  -15.5351 C   0  0  0  0  0  0  0  0  0  0  0  0
   19.1232   -8.3425  -16.5086 O   0  0  0  0  0  0  0  0  0  0  0  0
   21.6522   -7.6174  -14.9377 C   0  0  0  0  0  0  0  0  0  0  0  0
   20.8814   -6.6772  -15.6055 O   0  0  0  0  0  0  0  0  0  0  0  0
   17.9878   -9.4287  -14.9054 O   0  0  0  0  0  0  0  0  0  0  0  0
   22.2733   -7.2499  -13.8977 O   0  0  0  0  0  0  0  0  0  0  0  0
  2  1  1  6
  3  2  1  0
  4  6  1  0
  4  2  1  0
  4  5  1  1
  6  7  2  0
  8 12  1  0
  8  6  1  0
  9  8  1  0
 10  9  1  0
 10 11  1  0
 11 12  1  0
 13 14  2  0
 12 13  1  6
 15 13  1  0
 16 15  1  0
 16 20  1  0
 16 17  1  1
 18 17  1  0
 18 22  1  0
 19 18  2  0
 20 21  1  0
 23 20  2  0
M  END
$$$$
