TPD.pdb
     RDKit          3D

 23 23  0  0  1  0  0  0  0  0999 V2000
   28.5079  -18.2413  -14.7806 C   0  0  0  0  0  0  0  0  0  0  0  0
   27.1931  -18.9162  -14.5617 C   0  0  1  0  0  0  0  0  0  0  0  0
   26.3274  -18.8184  -15.6610 O   0  0  0  0  0  0  0  0  0  0  0  0
   27.4093  -20.3985  -14.2083 C   0  0  2  0  0  0  0  0  0  0  0  0
   27.9464  -21.0052  -15.4209 N   0  0  0  0  0  0  0  0  0  0  0  0
   26.0999  -21.0212  -13.8601 C   0  0  0  0  0  0  0  0  0  0  0  0
   25.3974  -21.3136  -14.8654 O   0  0  0  0  0  0  0  0  0  0  0  0
   25.6939  -21.2568  -12.5360 N   0  0  0  0  0  0  0  0  0  0  0  0
   26.5775  -21.9227  -11.5459 C   0  0  0  0  0  0  0  0  0  0  0  0
   26.4988  -20.9038  -10.4346 C   0  0  0  0  0  0  0  0  0  0  0  0
   25.1528  -20.2109  -10.6087 C   0  0  0  0  0  0  0  0  0  0  0  0
   24.5442  -21.0507  -11.7322 C   0  0  1  0  0  0  0  0  0  0  0  0
   23.3566  -20.4697  -12.2932 C   0  0  0  0  0  0  0  0  0  0  0  0
   23.1706  -19.2533  -12.4521 O   0  0  0  0  0  0  0  0  0  0  0  0
   22.2772  -21.3142  -12.7166 N   0  0  0  0  0  0  0  0  0  0  0  0
   21.0951  -20.7388  -13.3774 C   0  0  1  0  0  0  0  0  0  0  0  0
   21.2430  -21.0681  -14.8440 C   0  0  0  0  0  0  0  0  0  0  0  0
   20.1131  -20.5873  -15.6677 C   0  0  0  0  0  0  0  0  0  0  0  0
   19.3758  -19.6089  -15.3785 O   0  0  0  0  0  0  0  0  0  0  0  0
   19.8537  -21.3184  -12.8641 C   0  0  0  0  0  0  0  0  0  0  0  0
   18.6939  -20.5618  -12.9453 O   0  0  0  0  0  0  0  0  0  0  0  0
   19.7862  -21.2290  -16.8773 O   0  0  0  0  0  0  0  0  0  0  0  0
   19.7786  -22.4722  -12.3488 O   0  0  0  0  0  0  0  0  0  0  0  0
  2  1  1  6
  3  2  1  0
  4  6  1  0
  4  2  1  0
  4  5  1  6
  6  7  2  0
  8 12  1  0
  8  6  1  0
  9  8  1  0
 10  9  1  0
 10 11  1  0
 11 12  1  0
 13 14  2  0
 12 13  1  6
 15 13  1  0
 16 15  1  0
 16 20  1  0
 16 17  1  6
 18 17  1  0
 18 22  1  0
 19 18  2  0
 20 21  1  0
 23 20  2  0
M  END
$$$$
