TPD.pdb
     RDKit          3D

 23 23  0  0  1  0  0  0  0  0999 V2000
   18.3599   -9.6601  -18.6897 C   0  0  0  0  0  0  0  0  0  0  0  0
   17.9792  -10.8720  -17.9033 C   0  0  1  0  0  0  0  0  0  0  0  0
   17.2754  -11.8246  -18.6547 O   0  0  0  0  0  0  0  0  0  0  0  0
   19.2323  -11.5236  -17.2918 C   0  0  2  0  0  0  0  0  0  0  0  0
   18.7581  -12.7571  -16.6748 N   0  0  0  0  0  0  0  0  0  0  0  0
   19.8054  -10.6188  -16.2544 C   0  0  0  0  0  0  0  0  0  0  0  0
   18.9632   -9.8213  -15.7598 O   0  0  0  0  0  0  0  0  0  0  0  0
   21.1559  -10.6565  -15.8693 N   0  0  0  0  0  0  0  0  0  0  0  0
   21.8603  -11.9320  -15.5842 C   0  0  0  0  0  0  0  0  0  0  0  0
   23.0577  -11.7483  -16.4852 C   0  0  0  0  0  0  0  0  0  0  0  0
   23.2486  -10.2417  -16.6106 C   0  0  0  0  0  0  0  0  0  0  0  0
   22.2059   -9.7391  -15.6117 C   0  0  1  0  0  0  0  0  0  0  0  0
   21.9755   -8.3241  -15.6979 C   0  0  0  0  0  0  0  0  0  0  0  0
   21.6244   -7.7253  -16.7264 O   0  0  0  0  0  0  0  0  0  0  0  0
   22.1505   -7.4978  -14.5385 N   0  0  0  0  0  0  0  0  0  0  0  0
   21.9725   -6.0399  -14.6278 C   0  0  1  0  0  0  0  0  0  0  0  0
   20.5143   -5.8233  -14.9565 C   0  0  0  0  0  0  0  0  0  0  0  0
   20.1419   -4.3952  -15.0483 C   0  0  0  0  0  0  0  0  0  0  0  0
   19.4967   -3.7613  -14.1729 O   0  0  0  0  0  0  0  0  0  0  0  0
   22.2974   -5.3777  -13.3644 C   0  0  0  0  0  0  0  0  0  0  0  0
   22.4773   -6.1665  -12.2377 O   0  0  0  0  0  0  0  0  0  0  0  0
   20.5066   -3.6321  -16.1736 O   0  0  0  0  0  0  0  0  0  0  0  0
   22.4227   -4.1240  -13.2414 O   0  0  0  0  0  0  0  0  0  0  0  0
  2  1  1  6
  3  2  1  0
  4  6  1  0
  4  2  1  0
  4  5  1  1
  6  7  2  0
  8 12  1  0
  8  6  1  0
  9  8  1  0
 10  9  1  0
 10 11  1  0
 11 12  1  0
 13 14  2  0
 12 13  1  6
 15 13  1  0
 16 15  1  0
 16 20  1  0
 16 17  1  1
 18 17  1  0
 18 22  1  0
 19 18  2  0
 20 21  1  0
 23 20  2  0
M  END
$$$$
