GDD.pdb
     RDKit          3D

 21 20  0  0  1  0  0  0  0  0999 V2000
   18.6399  -12.3532  -16.4361 N   0  0  0  0  0  0  0  0  0  0  0  0
   17.5298  -11.7803  -15.7251 C   0  0  0  0  0  0  0  0  0  0  0  0
   17.5621  -10.2935  -15.8567 C   0  0  0  0  0  0  0  0  0  0  0  0
   18.3447   -9.7762  -16.6719 O   0  0  0  0  0  0  0  0  0  0  0  0
   16.7343   -9.4440  -15.0878 N   0  0  0  0  0  0  0  0  0  0  0  0
   16.7731   -8.0228  -15.2893 C   0  0  1  0  0  0  0  0  0  0  0  0
   15.4984   -7.3289  -14.8499 C   0  0  0  0  0  0  0  0  0  0  0  0
   14.3000   -7.7979  -15.5457 C   0  0  0  0  0  0  0  0  0  0  0  0
   14.2383   -7.9757  -16.7854 O   0  0  0  0  0  0  0  0  0  0  0  0
   17.9559   -7.4826  -14.5797 C   0  0  0  0  0  0  0  0  0  0  0  0
   18.2934   -7.9631  -13.4917 O   0  0  0  0  0  0  0  0  0  0  0  0
   13.1710   -8.0607  -14.7979 O   0  0  0  0  0  0  0  0  0  0  0  0
   18.7497   -6.4139  -15.0888 N   0  0  0  0  0  0  0  0  0  0  0  0
   19.9992   -6.0394  -14.5374 C   0  0  1  0  0  0  0  0  0  0  0  0
   21.0611   -7.0920  -14.5534 C   0  0  0  0  0  0  0  0  0  0  0  0
   22.3547   -6.6342  -14.0041 C   0  0  0  0  0  0  0  0  0  0  0  0
   22.4131   -5.6359  -13.2544 O   0  0  0  0  0  0  0  0  0  0  0  0
   20.5487   -4.8508  -15.2456 C   0  0  0  0  0  0  0  0  0  0  0  0
   21.5459   -4.0808  -14.6861 O   0  0  0  0  0  0  0  0  0  0  0  0
   23.5269   -7.2989  -14.3067 O   0  0  0  0  0  0  0  0  0  0  0  0
   20.0895   -4.5507  -16.3741 O   0  0  0  0  0  0  0  0  0  0  0  0
  1  2  1  0
  3  2  1  0
  3  4  2  0
  5  3  1  0
  6  5  1  0
  6 10  1  0
  6  7  1  1
  8 12  1  0
  8  7  1  0
  9  8  2  0
 10 13  1  0
 11 10  2  0
 13 14  1  0
 14 18  1  0
 14 15  1  6
 16 15  1  0
 17 16  2  0
 18 21  2  0
 18 19  1  0
 20 16  1  0
M  END
$$$$
