GDD.pdb
     RDKit          3D

 21 20  0  0  1  0  0  0  0  0999 V2000
   16.4770   -9.3143  -16.8926 N   0  0  0  0  0  0  0  0  0  0  0  0
   16.5185   -9.1307  -15.4677 C   0  0  0  0  0  0  0  0  0  0  0  0
   17.9079   -8.7832  -15.0460 C   0  0  0  0  0  0  0  0  0  0  0  0
   18.2196   -8.8888  -13.8475 O   0  0  0  0  0  0  0  0  0  0  0  0
   18.8902   -8.3360  -15.9589 N   0  0  0  0  0  0  0  0  0  0  0  0
   20.2037   -7.9894  -15.4933 C   0  0  1  0  0  0  0  0  0  0  0  0
   21.3010   -8.7809  -16.1782 C   0  0  0  0  0  0  0  0  0  0  0  0
   21.2712  -10.2129  -15.8802 C   0  0  0  0  0  0  0  0  0  0  0  0
   21.6945  -10.7112  -14.8103 O   0  0  0  0  0  0  0  0  0  0  0  0
   20.3938   -6.5315  -15.6745 C   0  0  0  0  0  0  0  0  0  0  0  0
   20.1148   -6.0044  -16.7575 O   0  0  0  0  0  0  0  0  0  0  0  0
   20.7479  -11.0669  -16.8286 O   0  0  0  0  0  0  0  0  0  0  0  0
   20.8922   -5.6769  -14.6485 N   0  0  0  0  0  0  0  0  0  0  0  0
   21.0466   -4.2780  -14.8056 C   0  0  1  0  0  0  0  0  0  0  0  0
   20.1037   -3.4251  -14.0185 C   0  0  0  0  0  0  0  0  0  0  0  0
   18.7022   -3.5135  -14.4799 C   0  0  0  0  0  0  0  0  0  0  0  0
   18.4287   -3.4968  -15.6992 O   0  0  0  0  0  0  0  0  0  0  0  0
   22.4273   -3.8593  -14.4391 C   0  0  0  0  0  0  0  0  0  0  0  0
   22.8826   -2.5845  -14.6996 O   0  0  0  0  0  0  0  0  0  0  0  0
   17.6644   -3.6165  -13.5744 O   0  0  0  0  0  0  0  0  0  0  0  0
   23.1855   -4.6895  -13.8821 O   0  0  0  0  0  0  0  0  0  0  0  0
  1  2  1  0
  3  2  1  0
  3  4  2  0
  5  3  1  0
  6  5  1  0
  6 10  1  0
  6  7  1  6
  8 12  1  0
  8  7  1  0
  9  8  2  0
 10 13  1  0
 11 10  2  0
 13 14  1  0
 14 18  1  0
 14 15  1  1
 16 15  1  0
 17 16  2  0
 18 21  2  0
 18 19  1  0
 20 16  1  0
M  END
$$$$
