GDD.pdb
     RDKit          3D

 21 20  0  0  1  0  0  0  0  0999 V2000
   16.6008   -9.9250  -17.3224 N   0  0  0  0  0  0  0  0  0  0  0  0
   17.5744  -10.9820  -17.2987 C   0  0  0  0  0  0  0  0  0  0  0  0
   18.8726  -10.4581  -16.7801 C   0  0  0  0  0  0  0  0  0  0  0  0
   19.0997  -10.5084  -15.5592 O   0  0  0  0  0  0  0  0  0  0  0  0
   19.8608   -9.9037  -17.6252 N   0  0  0  0  0  0  0  0  0  0  0  0
   21.0550   -9.3367  -17.0641 C   0  0  1  0  0  0  0  0  0  0  0  0
   22.2957   -9.6480  -17.8785 C   0  0  0  0  0  0  0  0  0  0  0  0
   23.5381   -9.1758  -17.2672 C   0  0  0  0  0  0  0  0  0  0  0  0
   23.5803   -8.3721  -16.3057 O   0  0  0  0  0  0  0  0  0  0  0  0
   20.8549   -7.8762  -16.9189 C   0  0  0  0  0  0  0  0  0  0  0  0
   20.5122   -7.2017  -17.8967 O   0  0  0  0  0  0  0  0  0  0  0  0
   24.7337   -9.6396  -17.7752 O   0  0  0  0  0  0  0  0  0  0  0  0
   21.0385   -7.1828  -15.6872 N   0  0  0  0  0  0  0  0  0  0  0  0
   20.7972   -5.7963  -15.5294 C   0  0  1  0  0  0  0  0  0  0  0  0
   19.4694   -5.4272  -14.9493 C   0  0  0  0  0  0  0  0  0  0  0  0
   19.2538   -3.9683  -14.8492 C   0  0  0  0  0  0  0  0  0  0  0  0
   19.5069   -3.3563  -13.7893 O   0  0  0  0  0  0  0  0  0  0  0  0
   21.8405   -5.1783  -14.6658 C   0  0  0  0  0  0  0  0  0  0  0  0
   21.9301   -3.8108  -14.5171 O   0  0  0  0  0  0  0  0  0  0  0  0
   18.7682   -3.2495  -15.9238 O   0  0  0  0  0  0  0  0  0  0  0  0
   22.6509   -5.9244  -14.0648 O   0  0  0  0  0  0  0  0  0  0  0  0
  1  2  1  0
  3  2  1  0
  3  4  2  0
  5  3  1  0
  6  5  1  0
  6 10  1  0
  6  7  1  6
  8 12  1  0
  8  7  1  0
  9  8  2  0
 10 13  1  0
 11 10  2  0
 13 14  1  0
 14 18  1  0
 14 15  1  1
 16 15  1  0
 17 16  2  0
 18 21  2  0
 18 19  1  0
 20 16  1  0
M  END
$$$$
