GDD.pdb
     RDKit          3D

 21 20  0  0  1  0  0  0  0  0999 V2000
   20.6088  -13.5728  -17.0920 N   0  0  0  0  0  0  0  0  0  0  0  0
   20.2932  -12.3636  -17.8021 C   0  0  0  0  0  0  0  0  0  0  0  0
   20.3959  -11.1962  -16.8772 C   0  0  0  0  0  0  0  0  0  0  0  0
   20.0509  -11.3332  -15.6910 O   0  0  0  0  0  0  0  0  0  0  0  0
   20.8723   -9.9333  -17.2968 N   0  0  0  0  0  0  0  0  0  0  0  0
   20.9912   -8.8569  -16.3537 C   0  0  1  0  0  0  0  0  0  0  0  0
   22.4077   -8.3285  -16.2361 C   0  0  0  0  0  0  0  0  0  0  0  0
   23.3570   -9.2984  -15.6898 C   0  0  0  0  0  0  0  0  0  0  0  0
   24.2839   -9.8177  -16.3558 O   0  0  0  0  0  0  0  0  0  0  0  0
   20.0447   -7.7866  -16.7448 C   0  0  0  0  0  0  0  0  0  0  0  0
   19.6377   -7.7206  -17.9103 O   0  0  0  0  0  0  0  0  0  0  0  0
   23.2280   -9.6650  -14.3663 O   0  0  0  0  0  0  0  0  0  0  0  0
   19.5619   -6.8020  -15.8344 N   0  0  0  0  0  0  0  0  0  0  0  0
   18.5975   -5.8248  -16.1819 C   0  0  1  0  0  0  0  0  0  0  0  0
   17.1735   -6.2811  -16.1716 C   0  0  0  0  0  0  0  0  0  0  0  0
   16.2131   -5.2272  -16.5609 C   0  0  0  0  0  0  0  0  0  0  0  0
   16.5423   -4.3274  -17.3634 O   0  0  0  0  0  0  0  0  0  0  0  0
   18.6891   -4.6515  -15.2703 C   0  0  0  0  0  0  0  0  0  0  0  0
   17.9739   -3.4982  -15.5124 O   0  0  0  0  0  0  0  0  0  0  0  0
   14.9312   -5.2134  -16.0471 O   0  0  0  0  0  0  0  0  0  0  0  0
   19.4346   -4.7221  -14.2634 O   0  0  0  0  0  0  0  0  0  0  0  0
  1  2  1  0
  3  2  1  0
  3  4  2  0
  5  3  1  0
  6  5  1  0
  6 10  1  0
  6  7  1  6
  8 12  1  0
  8  7  1  0
  9  8  2  0
 10 13  1  0
 11 10  2  0
 13 14  1  0
 14 18  1  0
 14 15  1  1
 16 15  1  0
 17 16  2  0
 18 21  2  0
 18 19  1  0
 20 16  1  0
M  END
$$$$
