GDD.pdb
     RDKit          3D

 21 20  0  0  1  0  0  0  0  0999 V2000
   28.2197  -19.6423  -16.0610 N   0  0  0  0  0  0  0  0  0  0  0  0
   27.8872  -19.4280  -14.6792 C   0  0  0  0  0  0  0  0  0  0  0  0
   26.8018  -20.3686  -14.2717 C   0  0  0  0  0  0  0  0  0  0  0  0
   26.2046  -21.0176  -15.1474 O   0  0  0  0  0  0  0  0  0  0  0  0
   26.4223  -20.5530  -12.9225 N   0  0  0  0  0  0  0  0  0  0  0  0
   25.2943  -21.3797  -12.5966 C   0  0  1  0  0  0  0  0  0  0  0  0
   25.3801  -21.9738  -11.2041 C   0  0  0  0  0  0  0  0  0  0  0  0
   25.8534  -21.0334  -10.1882 C   0  0  0  0  0  0  0  0  0  0  0  0
   26.8448  -20.2814  -10.3425 O   0  0  0  0  0  0  0  0  0  0  0  0
   24.0615  -20.5762  -12.7675 C   0  0  0  0  0  0  0  0  0  0  0  0
   24.0817  -19.3617  -12.5371 O   0  0  0  0  0  0  0  0  0  0  0  0
   25.1722  -20.9678   -8.9906 O   0  0  0  0  0  0  0  0  0  0  0  0
   22.8205  -21.1333  -13.1928 N   0  0  0  0  0  0  0  0  0  0  0  0
   21.7369  -20.3536  -13.6653 C   0  0  1  0  0  0  0  0  0  0  0  0
   22.0420  -19.4361  -14.8060 C   0  0  0  0  0  0  0  0  0  0  0  0
   20.8975  -18.5907  -15.2062 C   0  0  0  0  0  0  0  0  0  0  0  0
   20.0600  -18.2075  -14.3614 O   0  0  0  0  0  0  0  0  0  0  0  0
   20.6108  -21.2277  -14.0943 C   0  0  0  0  0  0  0  0  0  0  0  0
   19.3269  -21.0178  -13.6386 O   0  0  0  0  0  0  0  0  0  0  0  0
   20.7282  -18.2057  -16.5217 O   0  0  0  0  0  0  0  0  0  0  0  0
   20.8436  -22.1723  -14.8867 O   0  0  0  0  0  0  0  0  0  0  0  0
  1  2  1  0
  3  2  1  0
  3  4  2  0
  5  3  1  0
  6  5  1  0
  6 10  1  0
  6  7  1  1
  8 12  1  0
  8  7  1  0
  9  8  2  0
 10 13  1  0
 11 10  2  0
 13 14  1  0
 14 18  1  0
 14 15  1  6
 16 15  1  0
 17 16  2  0
 18 21  2  0
 18 19  1  0
 20 16  1  0
M  END
$$$$
