LII.pdb
     RDKit          3D

 25 24  0  0  1  0  0  0  0  0999 V2000
    4.8055  -16.4062   20.3707 C   0  0  0  0  0  0  0  0  0  0  0  0
    6.0555  -17.2341   20.2834 C   0  0  2  0  0  0  0  0  0  0  0  0
    5.7679  -18.7095   20.1880 C   0  0  0  0  0  0  0  0  0  0  0  0
    6.9983  -16.9324   21.4541 C   0  0  0  0  0  0  0  0  0  0  0  0
    7.1830  -15.4236   21.4451 C   0  0  2  0  0  0  0  0  0  0  0  0
    7.6901  -15.0576   20.1471 N   0  0  0  0  0  0  0  0  0  0  0  0
    8.1018  -15.0014   22.5561 C   0  0  0  0  0  0  0  0  0  0  0  0
    9.2988  -14.9343   22.2571 O   0  0  0  0  0  0  0  0  0  0  0  0
    6.0786  -11.6280   26.3629 C   0  0  0  0  0  0  0  0  0  0  0  0
    7.0785  -12.3300   25.4764 C   0  0  0  0  0  0  0  0  0  0  0  0
    7.3852  -13.7247   26.0007 C   0  0  2  0  0  0  0  0  0  0  0  0
    8.0982  -13.5541   27.3505 C   0  0  0  0  0  0  0  0  0  0  0  0
    8.2404  -14.4955   25.0328 C   0  0  2  0  0  0  0  0  0  0  0  0
    7.5288  -14.7345   23.7808 N   0  0  0  0  0  0  0  0  0  0  0  0
    8.7850  -15.7353   25.5695 C   0  0  0  0  0  0  0  0  0  0  0  0
    7.9716  -16.6886   25.9231 O   0  0  0  0  0  0  0  0  0  0  0  0
   13.0683  -17.6690   23.3307 C   0  0  0  0  0  0  0  0  0  0  0  0
   11.7358  -17.4973   24.0092 C   0  0  0  0  0  0  0  0  0  0  0  0
   11.8773  -17.7206   25.4917 C   0  0  2  0  0  0  0  0  0  0  0  0
   12.3706  -19.1027   25.7708 C   0  0  0  0  0  0  0  0  0  0  0  0
   10.5690  -17.4155   26.1889 C   0  0  2  0  0  0  0  0  0  0  0  0
   10.1461  -16.0733   25.7667 N   0  0  0  0  0  0  0  0  0  0  0  0
   10.6722  -17.5320   27.6508 C   0  0  0  0  0  0  0  0  0  0  0  0
   10.4441  -18.7332   28.3078 O   0  0  0  0  0  0  0  0  0  0  0  0
   10.9709  -16.5571   28.3875 O   0  0  0  0  0  0  0  0  0  0  0  0
  2  1  1  1
  2  3  1  0
  4  5  1  0
  4  2  1  0
  5  6  1  6
  7  5  1  0
  7  8  2  0
 10  9  1  0
 11 10  1  0
 11 13  1  0
 11 12  1  1
 13 14  1  6
 14  7  1  0
 15 13  1  0
 16 15  2  0
 17 18  1  0
 18 19  1  0
 19 21  1  0
 19 20  1  6
 21 22  1  1
 21 23  1  0
 22 15  1  0
 23 24  1  0
 25 23  2  0
M  END
$$$$
