LII.pdb
     RDKit          3D

 25 24  0  0  1  0  0  0  0  0999 V2000
   11.9146  -21.2199   22.1515 C   0  0  0  0  0  0  0  0  0  0  0  0
   12.0913  -20.2091   21.0548 C   0  0  2  0  0  0  0  0  0  0  0  0
   12.9754  -20.7093   19.9428 C   0  0  0  0  0  0  0  0  0  0  0  0
   12.6085  -18.8777   21.6117 C   0  0  0  0  0  0  0  0  0  0  0  0
   11.8947  -17.8006   20.8110 C   0  0  2  0  0  0  0  0  0  0  0  0
   12.7913  -17.3713   19.7681 N   0  0  0  0  0  0  0  0  0  0  0  0
   11.4798  -16.6691   21.7078 C   0  0  0  0  0  0  0  0  0  0  0  0
   12.3673  -15.8519   21.9750 O   0  0  0  0  0  0  0  0  0  0  0  0
    6.7537  -14.2058   21.0806 C   0  0  0  0  0  0  0  0  0  0  0  0
    8.1714  -14.5071   21.5025 C   0  0  0  0  0  0  0  0  0  0  0  0
    8.1944  -15.3597   22.7622 C   0  0  2  0  0  0  0  0  0  0  0  0
    7.5400  -14.5337   23.8796 C   0  0  0  0  0  0  0  0  0  0  0  0
    9.5995  -15.7491   23.1316 C   0  0  2  0  0  0  0  0  0  0  0  0
   10.1706  -16.6534   22.1381 N   0  0  0  0  0  0  0  0  0  0  0  0
    9.7369  -16.2947   24.4752 C   0  0  0  0  0  0  0  0  0  0  0  0
    9.4235  -17.5395   24.6930 O   0  0  0  0  0  0  0  0  0  0  0  0
    9.9887  -13.3423   29.2653 C   0  0  0  0  0  0  0  0  0  0  0  0
    9.5948  -14.3718   28.2404 C   0  0  0  0  0  0  0  0  0  0  0  0
   10.7557  -15.2871   27.9535 C   0  0  2  0  0  0  0  0  0  0  0  0
   11.9568  -14.5000   27.5421 C   0  0  0  0  0  0  0  0  0  0  0  0
   10.3566  -16.3238   26.9256 C   0  0  2  0  0  0  0  0  0  0  0  0
   10.1929  -15.6311   25.6403 N   0  0  0  0  0  0  0  0  0  0  0  0
    9.1481  -17.0645   27.3162 C   0  0  0  0  0  0  0  0  0  0  0  0
    9.1964  -18.1271   28.2079 O   0  0  0  0  0  0  0  0  0  0  0  0
    8.0071  -16.7813   26.8685 O   0  0  0  0  0  0  0  0  0  0  0  0
  2  1  1  1
  2  3  1  0
  4  5  1  0
  4  2  1  0
  5  6  1  6
  7  5  1  0
  7  8  2  0
 10  9  1  0
 11 10  1  0
 11 13  1  0
 11 12  1  1
 13 14  1  6
 14  7  1  0
 15 13  1  0
 16 15  2  0
 17 18  1  0
 18 19  1  0
 19 21  1  0
 19 20  1  6
 21 22  1  6
 21 23  1  0
 22 15  1  0
 23 24  1  0
 25 23  2  0
M  END
$$$$
