LII.pdb
     RDKit          3D

 25 24  0  0  1  0  0  0  0  0999 V2000
    5.8253  -20.0684   22.0335 C   0  0  0  0  0  0  0  0  0  0  0  0
    7.3144  -20.2455   21.9501 C   0  0  2  0  0  0  0  0  0  0  0  0
    7.7671  -21.5907   22.4538 C   0  0  0  0  0  0  0  0  0  0  0  0
    8.0450  -19.1114   22.6784 C   0  0  0  0  0  0  0  0  0  0  0  0
    7.5619  -17.8303   22.0180 C   0  0  2  0  0  0  0  0  0  0  0  0
    7.6862  -18.0047   20.5933 N   0  0  0  0  0  0  0  0  0  0  0  0
    8.3491  -16.6531   22.5193 C   0  0  0  0  0  0  0  0  0  0  0  0
    9.4042  -16.4263   21.9176 O   0  0  0  0  0  0  0  0  0  0  0  0
    5.2488  -13.1433   25.4455 C   0  0  0  0  0  0  0  0  0  0  0  0
    6.2970  -13.6502   24.4848 C   0  0  0  0  0  0  0  0  0  0  0  0
    7.5116  -14.1776   25.2337 C   0  0  2  0  0  0  0  0  0  0  0  0
    8.1722  -12.9769   25.9272 C   0  0  0  0  0  0  0  0  0  0  0  0
    8.4748  -14.8581   24.3001 C   0  0  2  0  0  0  0  0  0  0  0  0
    7.8257  -15.9524   23.5845 N   0  0  0  0  0  0  0  0  0  0  0  0
    9.7080  -15.3062   24.9330 C   0  0  0  0  0  0  0  0  0  0  0  0
   10.8330  -14.7338   24.6136 O   0  0  0  0  0  0  0  0  0  0  0  0
   11.1140  -13.4814   29.6532 C   0  0  0  0  0  0  0  0  0  0  0  0
   11.4683  -14.7254   28.8835 C   0  0  0  0  0  0  0  0  0  0  0  0
   10.4393  -14.9835   27.8148 C   0  0  2  0  0  0  0  0  0  0  0  0
    9.0741  -15.0848   28.4126 C   0  0  0  0  0  0  0  0  0  0  0  0
   10.8193  -16.2111   27.0151 C   0  0  2  0  0  0  0  0  0  0  0  0
    9.8664  -16.3260   25.9028 N   0  0  0  0  0  0  0  0  0  0  0  0
   10.8604  -17.4272   27.8402 C   0  0  0  0  0  0  0  0  0  0  0  0
    9.9200  -18.4387   27.7015 O   0  0  0  0  0  0  0  0  0  0  0  0
   11.7438  -17.6218   28.7145 O   0  0  0  0  0  0  0  0  0  0  0  0
  2  1  1  1
  2  3  1  0
  4  5  1  0
  4  2  1  0
  5  6  1  6
  7  5  1  0
  7  8  2  0
 10  9  1  0
 11 10  1  0
 11 13  1  0
 11 12  1  6
 13 14  1  1
 14  7  1  0
 15 13  1  0
 16 15  2  0
 17 18  1  0
 18 19  1  0
 19 21  1  0
 19 20  1  1
 21 22  1  6
 21 23  1  0
 22 15  1  0
 23 24  1  0
 25 23  2  0
M  END
$$$$
