LII.pdb
     RDKit          3D

 25 24  0  0  1  0  0  0  0  0999 V2000
   12.8594  -21.2550   21.1619 C   0  0  0  0  0  0  0  0  0  0  0  0
   12.5270  -19.9967   20.4123 C   0  0  2  0  0  0  0  0  0  0  0  0
   13.5107  -19.7016   19.3106 C   0  0  0  0  0  0  0  0  0  0  0  0
   12.3980  -18.8048   21.3678 C   0  0  0  0  0  0  0  0  0  0  0  0
   11.6158  -17.7531   20.5979 C   0  0  2  0  0  0  0  0  0  0  0  0
   12.4455  -17.3096   19.5068 N   0  0  0  0  0  0  0  0  0  0  0  0
   11.2186  -16.6252   21.5073 C   0  0  0  0  0  0  0  0  0  0  0  0
   12.0604  -15.7305   21.6406 O   0  0  0  0  0  0  0  0  0  0  0  0
    6.5469  -14.2207   21.0150 C   0  0  0  0  0  0  0  0  0  0  0  0
    7.9678  -14.5493   21.4048 C   0  0  0  0  0  0  0  0  0  0  0  0
    8.0042  -15.3767   22.6809 C   0  0  2  0  0  0  0  0  0  0  0  0
    7.3483  -14.5343   23.7852 C   0  0  0  0  0  0  0  0  0  0  0  0
    9.4143  -15.7469   23.0507 C   0  0  2  0  0  0  0  0  0  0  0  0
    9.9739  -16.6976   22.0947 N   0  0  0  0  0  0  0  0  0  0  0  0
    9.5693  -16.2272   24.4172 C   0  0  0  0  0  0  0  0  0  0  0  0
    9.5507  -17.5084   24.6486 O   0  0  0  0  0  0  0  0  0  0  0  0
   10.0171  -12.6418   28.5369 C   0  0  0  0  0  0  0  0  0  0  0  0
   10.3735  -13.7004   27.5280 C   0  0  0  0  0  0  0  0  0  0  0  0
    9.8210  -15.0333   27.9592 C   0  0  2  0  0  0  0  0  0  0  0  0
   10.3758  -15.4273   29.2890 C   0  0  0  0  0  0  0  0  0  0  0  0
   10.0775  -16.0716   26.8883 C   0  0  2  0  0  0  0  0  0  0  0  0
    9.7534  -15.4593   25.5928 N   0  0  0  0  0  0  0  0  0  0  0  0
    9.3260  -17.3137   27.1201 C   0  0  0  0  0  0  0  0  0  0  0  0
    9.9123  -18.4257   27.7087 O   0  0  0  0  0  0  0  0  0  0  0  0
    8.1159  -17.4416   26.8009 O   0  0  0  0  0  0  0  0  0  0  0  0
  2  1  1  1
  2  3  1  0
  4  5  1  0
  4  2  1  0
  5  6  1  6
  7  5  1  0
  7  8  2  0
 10  9  1  0
 11 10  1  0
 11 13  1  0
 11 12  1  1
 13 14  1  6
 14  7  1  0
 15 13  1  0
 16 15  2  0
 17 18  1  0
 18 19  1  0
 19 21  1  0
 19 20  1  1
 21 22  1  6
 21 23  1  0
 22 15  1  0
 23 24  1  0
 25 23  2  0
M  END
$$$$
