LII.pdb
     RDKit          3D

 25 24  0  0  1  0  0  0  0  0999 V2000
    8.1544  -14.5883   18.4264 C   0  0  0  0  0  0  0  0  0  0  0  0
    7.4051  -13.5028   19.1446 C   0  0  2  0  0  0  0  0  0  0  0  0
    7.3540  -12.2178   18.3608 C   0  0  0  0  0  0  0  0  0  0  0  0
    7.9826  -13.2697   20.5455 C   0  0  0  0  0  0  0  0  0  0  0  0
    7.9995  -14.6377   21.2080 C   0  0  2  0  0  0  0  0  0  0  0  0
    6.6342  -15.0872   21.3070 N   0  0  0  0  0  0  0  0  0  0  0  0
    8.6738  -14.5627   22.5484 C   0  0  0  0  0  0  0  0  0  0  0  0
    9.9009  -14.4218   22.5171 O   0  0  0  0  0  0  0  0  0  0  0  0
    5.8179  -11.8745   26.1276 C   0  0  0  0  0  0  0  0  0  0  0  0
    6.9687  -12.4948   25.3731 C   0  0  0  0  0  0  0  0  0  0  0  0
    7.2822  -13.8848   25.9061 C   0  0  2  0  0  0  0  0  0  0  0  0
    7.7861  -13.7139   27.3470 C   0  0  0  0  0  0  0  0  0  0  0  0
    8.3104  -14.5767   25.0537 C   0  0  2  0  0  0  0  0  0  0  0  0
    7.8703  -14.6570   23.6642 N   0  0  0  0  0  0  0  0  0  0  0  0
    8.7183  -15.8843   25.5493 C   0  0  0  0  0  0  0  0  0  0  0  0
    7.8148  -16.7999   25.7512 O   0  0  0  0  0  0  0  0  0  0  0  0
   12.7070  -18.4546   23.4780 C   0  0  0  0  0  0  0  0  0  0  0  0
   11.4175  -18.0741   24.1546 C   0  0  0  0  0  0  0  0  0  0  0  0
   11.5718  -18.1622   25.6499 C   0  0  2  0  0  0  0  0  0  0  0  0
   11.9647  -19.5445   26.0576 C   0  0  0  0  0  0  0  0  0  0  0  0
   10.3048  -17.6905   26.3304 C   0  0  2  0  0  0  0  0  0  0  0  0
   10.0282  -16.3287   25.8535 N   0  0  0  0  0  0  0  0  0  0  0  0
   10.3967  -17.7587   27.7961 C   0  0  0  0  0  0  0  0  0  0  0  0
   10.9015  -16.7068   28.5481 O   0  0  0  0  0  0  0  0  0  0  0  0
   10.0263  -18.7670   28.4508 O   0  0  0  0  0  0  0  0  0  0  0  0
  2  1  1  6
  2  3  1  0
  4  5  1  0
  4  2  1  0
  5  6  1  1
  7  5  1  0
  7  8  2  0
 10  9  1  0
 11 10  1  0
 11 13  1  0
 11 12  1  1
 13 14  1  6
 14  7  1  0
 15 13  1  0
 16 15  2  0
 17 18  1  0
 18 19  1  0
 19 21  1  0
 19 20  1  6
 21 22  1  1
 21 23  1  0
 22 15  1  0
 23 24  1  0
 25 23  2  0
M  END
$$$$
