LII.pdb
     RDKit          3D

 25 24  0  0  1  0  0  0  0  0999 V2000
    5.4810  -18.3541   20.1586 C   0  0  0  0  0  0  0  0  0  0  0  0
    6.3845  -17.1619   20.0241 C   0  0  2  0  0  0  0  0  0  0  0  0
    7.2685  -17.2392   18.8072 C   0  0  0  0  0  0  0  0  0  0  0  0
    7.2160  -16.9555   21.2955 C   0  0  0  0  0  0  0  0  0  0  0  0
    7.5757  -15.4786   21.3072 C   0  0  2  0  0  0  0  0  0  0  0  0
    8.2818  -15.1957   20.0836 N   0  0  0  0  0  0  0  0  0  0  0  0
    8.3902  -15.1472   22.5253 C   0  0  0  0  0  0  0  0  0  0  0  0
    9.6153  -15.2056   22.3755 O   0  0  0  0  0  0  0  0  0  0  0  0
    5.8210  -11.7684   25.9410 C   0  0  0  0  0  0  0  0  0  0  0  0
    6.9214  -12.4521   25.1662 C   0  0  0  0  0  0  0  0  0  0  0  0
    7.3351  -13.7514   25.8407 C   0  0  2  0  0  0  0  0  0  0  0  0
    7.9843  -13.3783   27.1818 C   0  0  0  0  0  0  0  0  0  0  0  0
    8.2883  -14.5337   24.9793 C   0  0  2  0  0  0  0  0  0  0  0  0
    7.7020  -14.8156   23.6725 N   0  0  0  0  0  0  0  0  0  0  0  0
    8.7950  -15.7509   25.5986 C   0  0  0  0  0  0  0  0  0  0  0  0
    7.9607  -16.6970   25.9213 O   0  0  0  0  0  0  0  0  0  0  0  0
   13.0551  -17.9963   23.6889 C   0  0  0  0  0  0  0  0  0  0  0  0
   11.7273  -17.6836   24.3251 C   0  0  0  0  0  0  0  0  0  0  0  0
   11.8378  -17.7728   25.8242 C   0  0  2  0  0  0  0  0  0  0  0  0
   12.2946  -19.1335   26.2380 C   0  0  0  0  0  0  0  0  0  0  0  0
   10.5249  -17.3775   26.4651 C   0  0  2  0  0  0  0  0  0  0  0  0
   10.1383  -16.0728   25.9112 N   0  0  0  0  0  0  0  0  0  0  0  0
   10.6009  -17.3580   27.9332 C   0  0  0  0  0  0  0  0  0  0  0  0
   10.3749  -18.4971   28.6936 O   0  0  0  0  0  0  0  0  0  0  0  0
   10.8732  -16.3156   28.5826 O   0  0  0  0  0  0  0  0  0  0  0  0
  2  1  1  1
  2  3  1  0
  4  5  1  0
  4  2  1  0
  5  6  1  6
  7  5  1  0
  7  8  2  0
 10  9  1  0
 11 10  1  0
 11 13  1  0
 11 12  1  1
 13 14  1  6
 14  7  1  0
 15 13  1  0
 16 15  2  0
 17 18  1  0
 18 19  1  0
 19 21  1  0
 19 20  1  6
 21 22  1  6
 21 23  1  0
 22 15  1  0
 23 24  1  0
 25 23  2  0
M  END
$$$$
