LII.pdb
     RDKit          3D

 25 24  0  0  1  0  0  0  0  0999 V2000
    8.1831  -12.4552   20.2432 C   0  0  0  0  0  0  0  0  0  0  0  0
    8.3428  -13.8857   19.8144 C   0  0  2  0  0  0  0  0  0  0  0  0
    9.1563  -14.0256   18.5547 C   0  0  0  0  0  0  0  0  0  0  0  0
    6.9795  -14.5715   19.6674 C   0  0  0  0  0  0  0  0  0  0  0  0
    7.2347  -16.0424   19.9538 C   0  0  2  0  0  0  0  0  0  0  0  0
    6.3361  -16.8063   19.1262 N   0  0  0  0  0  0  0  0  0  0  0  0
    7.0482  -16.3317   21.4161 C   0  0  0  0  0  0  0  0  0  0  0  0
    5.9086  -16.1393   21.8532 O   0  0  0  0  0  0  0  0  0  0  0  0
    8.8741  -20.9362   23.0703 C   0  0  0  0  0  0  0  0  0  0  0  0
    8.1365  -19.6251   22.9452 C   0  0  0  0  0  0  0  0  0  0  0  0
    8.8770  -18.5129   23.6726 C   0  0  2  0  0  0  0  0  0  0  0  0
    8.9623  -18.9181   25.1517 C   0  0  0  0  0  0  0  0  0  0  0  0
    8.1715  -17.1939   23.5146 C   0  0  2  0  0  0  0  0  0  0  0  0
    8.1491  -16.7764   22.1160 N   0  0  0  0  0  0  0  0  0  0  0  0
    8.6867  -16.1324   24.3688 C   0  0  0  0  0  0  0  0  0  0  0  0
    9.8394  -15.5939   24.0916 O   0  0  0  0  0  0  0  0  0  0  0  0
    5.5316  -12.4887   26.5354 C   0  0  0  0  0  0  0  0  0  0  0  0
    6.6972  -13.1947   25.8962 C   0  0  0  0  0  0  0  0  0  0  0  0
    7.6471  -13.6887   26.9551 C   0  0  2  0  0  0  0  0  0  0  0  0
    8.1904  -12.5459   27.7489 C   0  0  0  0  0  0  0  0  0  0  0  0
    8.7348  -14.5306   26.3235 C   0  0  2  0  0  0  0  0  0  0  0  0
    8.0780  -15.5673   25.5159 N   0  0  0  0  0  0  0  0  0  0  0  0
    9.6528  -15.1005   27.3205 C   0  0  0  0  0  0  0  0  0  0  0  0
   10.8487  -14.4801   27.6543 O   0  0  0  0  0  0  0  0  0  0  0  0
    9.4107  -16.1765   27.9256 O   0  0  0  0  0  0  0  0  0  0  0  0
  2  1  1  6
  2  3  1  0
  4  5  1  0
  4  2  1  0
  5  6  1  6
  7  5  1  0
  7  8  2  0
 10  9  1  0
 11 10  1  0
 11 13  1  0
 11 12  1  1
 13 14  1  6
 14  7  1  0
 15 13  1  0
 16 15  2  0
 17 18  1  0
 18 19  1  0
 19 21  1  0
 19 20  1  6
 21 22  1  1
 21 23  1  0
 22 15  1  0
 23 24  1  0
 25 23  2  0
M  END
$$$$
