LII.pdb
     RDKit          3D

 25 24  0  0  1  0  0  0  0  0999 V2000
    6.9162  -19.8425   25.6412 C   0  0  0  0  0  0  0  0  0  0  0  0
    6.4425  -19.4211   24.2797 C   0  0  2  0  0  0  0  0  0  0  0  0
    5.0854  -19.9791   23.9401 C   0  0  0  0  0  0  0  0  0  0  0  0
    7.4713  -19.7838   23.2025 C   0  0  0  0  0  0  0  0  0  0  0  0
    7.1032  -18.9405   21.9925 C   0  0  2  0  0  0  0  0  0  0  0  0
    7.1522  -19.7986   20.8362 N   0  0  0  0  0  0  0  0  0  0  0  0
    8.0315  -17.7657   21.8705 C   0  0  0  0  0  0  0  0  0  0  0  0
    9.1872  -18.0369   21.5276 O   0  0  0  0  0  0  0  0  0  0  0  0
    6.3744  -13.5465   19.1476 C   0  0  0  0  0  0  0  0  0  0  0  0
    7.3169  -14.5027   19.8374 C   0  0  0  0  0  0  0  0  0  0  0  0
    7.3800  -14.2216   21.3312 C   0  0  2  0  0  0  0  0  0  0  0  0
    7.9690  -12.8134   21.5021 C   0  0  0  0  0  0  0  0  0  0  0  0
    8.2182  -15.2469   22.0442 C   0  0  2  0  0  0  0  0  0  0  0  0
    7.5115  -16.5200   22.1487 N   0  0  0  0  0  0  0  0  0  0  0  0
    8.7147  -14.8165   23.3442 C   0  0  0  0  0  0  0  0  0  0  0  0
    9.7763  -14.0649   23.4043 O   0  0  0  0  0  0  0  0  0  0  0  0
    5.6325  -12.4373   26.3122 C   0  0  0  0  0  0  0  0  0  0  0  0
    6.8758  -12.9623   25.6456 C   0  0  0  0  0  0  0  0  0  0  0  0
    7.6391  -13.8459   26.5964 C   0  0  2  0  0  0  0  0  0  0  0  0
    8.1384  -13.0566   27.7622 C   0  0  0  0  0  0  0  0  0  0  0  0
    8.7487  -14.5640   25.8590 C   0  0  2  0  0  0  0  0  0  0  0  0
    8.1757  -15.1088   24.6208 N   0  0  0  0  0  0  0  0  0  0  0  0
    9.3874  -15.6027   26.6805 C   0  0  0  0  0  0  0  0  0  0  0  0
    9.1406  -16.9532   26.4757 O   0  0  0  0  0  0  0  0  0  0  0  0
   10.1892  -15.3311   27.6109 O   0  0  0  0  0  0  0  0  0  0  0  0
  2  1  1  1
  2  3  1  0
  4  5  1  0
  4  2  1  0
  5  6  1  6
  7  5  1  0
  7  8  2  0
 10  9  1  0
 11 10  1  0
 11 13  1  0
 11 12  1  6
 13 14  1  1
 14  7  1  0
 15 13  1  0
 16 15  2  0
 17 18  1  0
 18 19  1  0
 19 21  1  0
 19 20  1  1
 21 22  1  6
 21 23  1  0
 22 15  1  0
 23 24  1  0
 25 23  2  0
M  END
$$$$
