LII.pdb
     RDKit          3D

 25 24  0  0  1  0  0  0  0  0999 V2000
    5.9041  -20.9000   22.6402 C   0  0  0  0  0  0  0  0  0  0  0  0
    4.9369  -19.7754   22.4051 C   0  0  2  0  0  0  0  0  0  0  0  0
    4.0656  -20.0032   21.1979 C   0  0  0  0  0  0  0  0  0  0  0  0
    5.6684  -18.4314   22.3093 C   0  0  0  0  0  0  0  0  0  0  0  0
    6.5203  -18.3451   23.5653 C   0  0  2  0  0  0  0  0  0  0  0  0
    5.6255  -18.3284   24.6945 N   0  0  0  0  0  0  0  0  0  0  0  0
    7.4018  -17.1296   23.5182 C   0  0  0  0  0  0  0  0  0  0  0  0
    8.1657  -17.0662   22.5492 O   0  0  0  0  0  0  0  0  0  0  0  0
    5.1686  -12.8260   25.8943 C   0  0  0  0  0  0  0  0  0  0  0  0
    6.0283  -13.6045   24.9281 C   0  0  0  0  0  0  0  0  0  0  0  0
    7.3468  -14.0038   25.5733 C   0  0  2  0  0  0  0  0  0  0  0  0
    8.1763  -12.7217   25.7384 C   0  0  0  0  0  0  0  0  0  0  0  0
    8.0794  -15.0159   24.7358 C   0  0  2  0  0  0  0  0  0  0  0  0
    7.2741  -16.2184   24.5444 N   0  0  0  0  0  0  0  0  0  0  0  0
    9.4096  -15.3502   25.2266 C   0  0  0  0  0  0  0  0  0  0  0  0
   10.3701  -14.4790   25.1089 O   0  0  0  0  0  0  0  0  0  0  0  0
   10.0983  -13.5536   29.1954 C   0  0  0  0  0  0  0  0  0  0  0  0
   10.6797  -14.3419   28.0526 C   0  0  0  0  0  0  0  0  0  0  0  0
   10.1829  -15.7627   28.0982 C   0  0  2  0  0  0  0  0  0  0  0  0
   10.4483  -16.3700   29.4369 C   0  0  0  0  0  0  0  0  0  0  0  0
   10.7898  -16.5605   26.9642 C   0  0  2  0  0  0  0  0  0  0  0  0
    9.8291  -16.5492   25.8527 N   0  0  0  0  0  0  0  0  0  0  0  0
   11.1538  -17.9256   27.3709 C   0  0  0  0  0  0  0  0  0  0  0  0
   10.3908  -19.0265   27.0068 O   0  0  0  0  0  0  0  0  0  0  0  0
   12.1707  -18.1751   28.0681 O   0  0  0  0  0  0  0  0  0  0  0  0
  2  1  1  6
  2  3  1  0
  4  5  1  0
  4  2  1  0
  5  6  1  1
  7  5  1  0
  7  8  2  0
 10  9  1  0
 11 10  1  0
 11 13  1  0
 11 12  1  6
 13 14  1  1
 14  7  1  0
 15 13  1  0
 16 15  2  0
 17 18  1  0
 18 19  1  0
 19 21  1  0
 19 20  1  1
 21 22  1  6
 21 23  1  0
 22 15  1  0
 23 24  1  0
 25 23  2  0
M  END
$$$$
