NLH.pdb
     RDKit          3D

 27 27  0  0  1  0  0  0  0  0999 V2000
   10.0219  -16.9613   14.6175 N   0  0  0  0  0  0  0  0  0  0  0  0
   11.0591  -17.1264   15.5661 C   0  0  0  0  0  0  0  0  0  0  0  0
   11.9133  -18.0025   15.3421 O   0  0  0  0  0  0  0  0  0  0  0  0
   11.0744  -16.2679   16.7494 C   0  0  0  0  0  0  0  0  0  0  0  0
   11.0465  -16.9622   18.0790 C   0  0  2  0  0  0  0  0  0  0  0  0
    9.8124  -17.7774   18.0586 N   0  0  0  0  0  0  0  0  0  0  0  0
   10.9762  -15.9608   19.1645 C   0  0  0  0  0  0  0  0  0  0  0  0
   11.9207  -15.2225   19.4624 O   0  0  0  0  0  0  0  0  0  0  0  0
    8.6877  -12.4693   19.2015 C   0  0  0  0  0  0  0  0  0  0  0  0
    7.8319  -13.5550   19.7980 C   0  0  2  0  0  0  0  0  0  0  0  0
    6.3732  -13.1672   19.8484 C   0  0  0  0  0  0  0  0  0  0  0  0
    8.3462  -14.1375   21.0584 C   0  0  0  0  0  0  0  0  0  0  0  0
    9.6357  -14.8632   21.0212 C   0  0  2  0  0  0  0  0  0  0  0  0
    9.7580  -15.8056   19.9414 N   0  0  0  0  0  0  0  0  0  0  0  0
   10.0754  -15.4213   22.3217 C   0  0  0  0  0  0  0  0  0  0  0  0
   10.0582  -14.6760   23.3247 O   0  0  0  0  0  0  0  0  0  0  0  0
   10.5022  -16.7485   22.4380 N   0  0  0  0  0  0  0  0  0  0  0  0
   10.8586  -17.2552   23.7625 C   0  0  1  0  0  0  0  0  0  0  0  0
   10.1576  -18.5887   23.9678 C   0  0  0  0  0  0  0  0  0  0  0  0
    8.7005  -18.4256   23.9004 C   0  0  0  0  0  0  0  0  0  0  0  0
    7.9520  -17.6331   24.7400 C   0  0  0  0  0  0  0  0  0  0  0  0
    6.6724  -17.7355   24.3783 N   0  0  0  0  0  0  0  0  0  0  0  0
    6.6114  -18.5808   23.3247 C   0  0  0  0  0  0  0  0  0  0  0  0
    7.8589  -18.9903   23.0492 N   0  0  0  0  0  0  0  0  0  0  0  0
   12.3279  -17.4073   23.8000 C   0  0  0  0  0  0  0  0  0  0  0  0
   13.0117  -17.1214   22.7977 O   0  0  0  0  0  0  0  0  0  0  0  0
   12.9474  -17.8651   24.9431 O   0  0  0  0  0  0  0  0  0  0  0  0
  1  2  1  0
  2  3  2  0
  4  2  1  0
  5  7  1  0
  5  4  1  0
  5  6  1  6
  7  8  2  0
 10  9  1  1
 10 11  1  0
 13 12  1  1
 12 10  1  0
 14 13  1  0
 14  7  1  0
 15 16  2  0
 15 13  1  0
 17 15  1  0
 18 25  1  0
 18 17  1  0
 18 19  1  6
 20 19  1  0
 21 20  2  0
 22 23  1  0
 22 21  1  0
 23 24  2  0
 24 20  1  0
 25 27  1  0
 26 25  2  0
M  END
$$$$
