NLH.pdb
     RDKit          3D

 27 27  0  0  1  0  0  0  0  0999 V2000
    8.2724  -18.0665   18.7149 N   0  0  0  0  0  0  0  0  0  0  0  0
    7.4922  -17.5670   19.7848 C   0  0  0  0  0  0  0  0  0  0  0  0
    6.2574  -17.5410   19.6369 O   0  0  0  0  0  0  0  0  0  0  0  0
    8.1697  -17.1114   20.9976 C   0  0  0  0  0  0  0  0  0  0  0  0
    7.9179  -15.6911   21.4102 C   0  0  2  0  0  0  0  0  0  0  0  0
    8.5453  -14.8691   20.3526 N   0  0  0  0  0  0  0  0  0  0  0  0
    8.5668  -15.4261   22.7120 C   0  0  0  0  0  0  0  0  0  0  0  0
    9.7895  -15.4827   22.8793 O   0  0  0  0  0  0  0  0  0  0  0  0
    8.4082  -11.8571   25.6423 C   0  0  0  0  0  0  0  0  0  0  0  0
    7.2008  -12.7455   25.7839 C   0  0  2  0  0  0  0  0  0  0  0  0
    6.1255  -12.1135   26.6352 C   0  0  0  0  0  0  0  0  0  0  0  0
    7.4962  -14.1544   26.1309 C   0  0  0  0  0  0  0  0  0  0  0  0
    8.3214  -14.9496   25.1942 C   0  0  2  0  0  0  0  0  0  0  0  0
    7.7657  -15.0796   23.8738 N   0  0  0  0  0  0  0  0  0  0  0  0
    8.8164  -16.2366   25.7370 C   0  0  0  0  0  0  0  0  0  0  0  0
    7.9905  -17.1509   25.9456 O   0  0  0  0  0  0  0  0  0  0  0  0
   10.1730  -16.4366   26.0144 N   0  0  0  0  0  0  0  0  0  0  0  0
   10.5891  -17.7172   26.5842 C   0  0  1  0  0  0  0  0  0  0  0  0
   12.0268  -17.9812   26.1659 C   0  0  0  0  0  0  0  0  0  0  0  0
   12.1012  -18.3026   24.7357 C   0  0  0  0  0  0  0  0  0  0  0  0
   11.0215  -18.5755   23.9275 C   0  0  0  0  0  0  0  0  0  0  0  0
   11.4738  -18.8209   22.6971 N   0  0  0  0  0  0  0  0  0  0  0  0
   12.8207  -18.7050   22.7257 C   0  0  0  0  0  0  0  0  0  0  0  0
   13.1829  -18.3886   23.9780 N   0  0  0  0  0  0  0  0  0  0  0  0
   10.4659  -17.6117   28.0529 C   0  0  0  0  0  0  0  0  0  0  0  0
   10.0896  -16.5434   28.5733 O   0  0  0  0  0  0  0  0  0  0  0  0
   10.7660  -18.6938   28.8523 O   0  0  0  0  0  0  0  0  0  0  0  0
  1  2  1  0
  2  3  2  0
  4  2  1  0
  5  7  1  0
  5  4  1  0
  5  6  1  6
  7  8  2  0
 10  9  1  1
 10 11  1  0
 13 12  1  1
 12 10  1  0
 14 13  1  0
 14  7  1  0
 15 16  2  0
 15 13  1  0
 17 15  1  0
 18 25  1  0
 18 17  1  0
 18 19  1  1
 20 19  1  0
 21 20  2  0
 22 23  1  0
 22 21  1  0
 23 24  2  0
 24 20  1  0
 25 27  1  0
 26 25  2  0
M  END
$$$$
