NLH.pdb
     RDKit          3D

 27 27  0  0  1  0  0  0  0  0999 V2000
    7.0396  -17.2394   19.4213 N   0  0  0  0  0  0  0  0  0  0  0  0
    7.6231  -15.9508   19.3782 C   0  0  0  0  0  0  0  0  0  0  0  0
    7.6502  -15.3648   18.2813 O   0  0  0  0  0  0  0  0  0  0  0  0
    8.1592  -15.3790   20.6124 C   0  0  0  0  0  0  0  0  0  0  0  0
    8.0839  -16.2428   21.8368 C   0  0  2  0  0  0  0  0  0  0  0  0
    6.6410  -16.5028   22.0327 N   0  0  0  0  0  0  0  0  0  0  0  0
    8.6309  -15.5110   22.9992 C   0  0  0  0  0  0  0  0  0  0  0  0
    9.7793  -15.0569   23.0300 O   0  0  0  0  0  0  0  0  0  0  0  0
    7.7197  -11.7540   25.0698 C   0  0  0  0  0  0  0  0  0  0  0  0
    6.7852  -12.8381   25.5373 C   0  0  2  0  0  0  0  0  0  0  0  0
    5.5912  -12.2814   26.2756 C   0  0  0  0  0  0  0  0  0  0  0  0
    7.4390  -13.9788   26.2185 C   0  0  0  0  0  0  0  0  0  0  0  0
    8.3545  -14.8351   25.4313 C   0  0  2  0  0  0  0  0  0  0  0  0
    7.8127  -15.2940   24.1804 N   0  0  0  0  0  0  0  0  0  0  0  0
    9.0144  -15.9157   26.2013 C   0  0  0  0  0  0  0  0  0  0  0  0
    8.5659  -16.1986   27.3329 O   0  0  0  0  0  0  0  0  0  0  0  0
   10.1140  -16.6103   25.6859 N   0  0  0  0  0  0  0  0  0  0  0  0
   10.5550  -17.8266   26.3673 C   0  0  1  0  0  0  0  0  0  0  0  0
    9.8318  -19.0108   25.7456 C   0  0  0  0  0  0  0  0  0  0  0  0
    8.7164  -19.4432   26.5962 C   0  0  0  0  0  0  0  0  0  0  0  0
    8.4750  -18.9959   27.8748 C   0  0  0  0  0  0  0  0  0  0  0  0
    7.3810  -19.6077   28.3304 N   0  0  0  0  0  0  0  0  0  0  0  0
    6.9361  -20.4308   27.3542 C   0  0  0  0  0  0  0  0  0  0  0  0
    7.7645  -20.3155   26.3053 N   0  0  0  0  0  0  0  0  0  0  0  0
   12.0176  -17.9327   26.1859 C   0  0  0  0  0  0  0  0  0  0  0  0
   12.6838  -18.6952   26.9131 O   0  0  0  0  0  0  0  0  0  0  0  0
   12.6501  -17.1900   25.2122 O   0  0  0  0  0  0  0  0  0  0  0  0
  1  2  1  0
  2  3  2  0
  4  2  1  0
  5  7  1  0
  5  4  1  0
  5  6  1  1
  7  8  2  0
 10  9  1  1
 10 11  1  0
 13 12  1  1
 12 10  1  0
 14 13  1  0
 14  7  1  0
 15 16  2  0
 15 13  1  0
 17 15  1  0
 18 25  1  0
 18 17  1  0
 18 19  1  6
 20 19  1  0
 21 20  2  0
 22 23  1  0
 22 21  1  0
 23 24  2  0
 24 20  1  0
 25 27  1  0
 26 25  2  0
M  END
$$$$
