NLH.pdb
     RDKit          3D

 27 27  0  0  1  0  0  0  0  0999 V2000
    7.8435  -12.2448   18.5154 N   0  0  0  0  0  0  0  0  0  0  0  0
    8.3156  -13.4933   18.9856 C   0  0  0  0  0  0  0  0  0  0  0  0
    8.3953  -14.4267   18.1673 O   0  0  0  0  0  0  0  0  0  0  0  0
    8.6821  -13.6219   20.3951 C   0  0  0  0  0  0  0  0  0  0  0  0
    8.3894  -14.9427   21.0438 C   0  0  2  0  0  0  0  0  0  0  0  0
    6.9215  -15.0981   20.9486 N   0  0  0  0  0  0  0  0  0  0  0  0
    8.8057  -14.9063   22.4620 C   0  0  0  0  0  0  0  0  0  0  0  0
    9.9885  -14.9255   22.8178 O   0  0  0  0  0  0  0  0  0  0  0  0
    8.3653  -11.9873   26.0479 C   0  0  0  0  0  0  0  0  0  0  0  0
    7.0855  -12.7171   25.7369 C   0  0  2  0  0  0  0  0  0  0  0  0
    5.9054  -12.1402   26.4820 C   0  0  0  0  0  0  0  0  0  0  0  0
    7.1751  -14.1939   25.7975 C   0  0  0  0  0  0  0  0  0  0  0  0
    8.1490  -14.8746   24.9148 C   0  0  2  0  0  0  0  0  0  0  0  0
    7.8088  -14.8448   23.5176 N   0  0  0  0  0  0  0  0  0  0  0  0
    8.5732  -16.2185   25.3731 C   0  0  0  0  0  0  0  0  0  0  0  0
    7.7741  -17.1705   25.2434 O   0  0  0  0  0  0  0  0  0  0  0  0
    9.8348  -16.4305   25.9394 N   0  0  0  0  0  0  0  0  0  0  0  0
   10.2372  -17.7995   26.2586 C   0  0  1  0  0  0  0  0  0  0  0  0
   11.4701  -18.1386   25.4359 C   0  0  0  0  0  0  0  0  0  0  0  0
   11.9458  -19.4920   25.7463 C   0  0  0  0  0  0  0  0  0  0  0  0
   11.3446  -20.3606   26.6280 C   0  0  0  0  0  0  0  0  0  0  0  0
   12.0553  -21.4888   26.6510 N   0  0  0  0  0  0  0  0  0  0  0  0
   13.0918  -21.3369   25.7960 C   0  0  0  0  0  0  0  0  0  0  0  0
   13.0066  -20.1123   25.2549 N   0  0  0  0  0  0  0  0  0  0  0  0
   10.5247  -17.8525   27.7071 C   0  0  0  0  0  0  0  0  0  0  0  0
   10.8139  -16.8095   28.3254 O   0  0  0  0  0  0  0  0  0  0  0  0
   10.4734  -19.0547   28.3794 O   0  0  0  0  0  0  0  0  0  0  0  0
  1  2  1  0
  2  3  2  0
  4  2  1  0
  5  7  1  0
  5  4  1  0
  5  6  1  1
  7  8  2  0
 10  9  1  1
 10 11  1  0
 13 12  1  1
 12 10  1  0
 14 13  1  0
 14  7  1  0
 15 16  2  0
 15 13  1  0
 17 15  1  0
 18 25  1  0
 18 17  1  0
 18 19  1  6
 20 19  1  0
 21 20  2  0
 22 23  1  0
 22 21  1  0
 23 24  2  0
 24 20  1  0
 25 27  1  0
 26 25  2  0
M  END
$$$$
