NLH.pdb
     RDKit          3D

 27 27  0  0  1  0  0  0  0  0999 V2000
   11.2627  -18.2726   14.5174 N   0  0  0  0  0  0  0  0  0  0  0  0
   11.6755  -18.8756   15.7294 C   0  0  0  0  0  0  0  0  0  0  0  0
   11.9653  -20.0850   15.7040 O   0  0  0  0  0  0  0  0  0  0  0  0
   11.7400  -18.0551   16.9378 C   0  0  0  0  0  0  0  0  0  0  0  0
   11.2458  -16.6440   16.8144 C   0  0  2  0  0  0  0  0  0  0  0  0
   12.2356  -15.9669   15.9486 N   0  0  0  0  0  0  0  0  0  0  0  0
   11.2166  -16.0061   18.1479 C   0  0  0  0  0  0  0  0  0  0  0  0
   12.2321  -15.6039   18.7249 O   0  0  0  0  0  0  0  0  0  0  0  0
    8.5855  -12.5545   19.1601 C   0  0  0  0  0  0  0  0  0  0  0  0
    7.8283  -13.8060   19.5174 C   0  0  2  0  0  0  0  0  0  0  0  0
    6.3851  -13.5205   19.8583 C   0  0  0  0  0  0  0  0  0  0  0  0
    8.5117  -14.6987   20.4810 C   0  0  0  0  0  0  0  0  0  0  0  0
    9.8620  -15.1988   20.1384 C   0  0  2  0  0  0  0  0  0  0  0  0
    9.9554  -15.8247   18.8467 N   0  0  0  0  0  0  0  0  0  0  0  0
   10.5257  -15.9843   21.2054 C   0  0  0  0  0  0  0  0  0  0  0  0
   10.3303  -17.2180   21.2445 O   0  0  0  0  0  0  0  0  0  0  0  0
   11.3532  -15.3723   22.1530 N   0  0  0  0  0  0  0  0  0  0  0  0
   11.8646  -16.1788   23.2602 C   0  0  1  0  0  0  0  0  0  0  0  0
   13.1772  -15.5703   23.7275 C   0  0  0  0  0  0  0  0  0  0  0  0
   14.2597  -15.8852   22.7876 C   0  0  0  0  0  0  0  0  0  0  0  0
   14.1402  -16.7001   21.6854 C   0  0  0  0  0  0  0  0  0  0  0  0
   15.3247  -16.7509   21.0747 N   0  0  0  0  0  0  0  0  0  0  0  0
   16.1821  -15.9791   21.7801 C   0  0  0  0  0  0  0  0  0  0  0  0
   15.5127  -15.4605   22.8206 N   0  0  0  0  0  0  0  0  0  0  0  0
   10.8484  -16.1571   24.3328 C   0  0  0  0  0  0  0  0  0  0  0  0
    9.7903  -15.5165   24.1783 O   0  0  0  0  0  0  0  0  0  0  0  0
   11.0666  -16.8452   25.5070 O   0  0  0  0  0  0  0  0  0  0  0  0
  1  2  1  0
  2  3  2  0
  4  2  1  0
  5  7  1  0
  5  4  1  0
  5  6  1  6
  7  8  2  0
 10  9  1  1
 10 11  1  0
 13 12  1  1
 12 10  1  0
 14 13  1  0
 14  7  1  0
 15 16  2  0
 15 13  1  0
 17 15  1  0
 18 25  1  0
 18 17  1  0
 18 19  1  1
 20 19  1  0
 21 20  2  0
 22 23  1  0
 22 21  1  0
 23 24  2  0
 24 20  1  0
 25 27  1  0
 26 25  2  0
M  END
$$$$
