NLH.pdb
     RDKit          3D

 27 27  0  0  1  0  0  0  0  0999 V2000
    9.8543  -18.6365   19.9314 N   0  0  0  0  0  0  0  0  0  0  0  0
    8.7813  -17.9986   20.5983 C   0  0  0  0  0  0  0  0  0  0  0  0
    7.6740  -17.9861   20.0317 O   0  0  0  0  0  0  0  0  0  0  0  0
    9.0259  -17.3926   21.9062 C   0  0  0  0  0  0  0  0  0  0  0  0
    8.8283  -15.9086   22.0024 C   0  0  2  0  0  0  0  0  0  0  0  0
    9.7981  -15.3312   21.0464 N   0  0  0  0  0  0  0  0  0  0  0  0
    9.1340  -15.4515   23.3749 C   0  0  0  0  0  0  0  0  0  0  0  0
   10.2827  -15.2285   23.7706 O   0  0  0  0  0  0  0  0  0  0  0  0
    7.9706  -11.7585   25.7503 C   0  0  0  0  0  0  0  0  0  0  0  0
    6.8456  -12.7592   25.7557 C   0  0  2  0  0  0  0  0  0  0  0  0
    5.5651  -12.1734   26.3013 C   0  0  0  0  0  0  0  0  0  0  0  0
    7.1896  -14.0863   26.3151 C   0  0  0  0  0  0  0  0  0  0  0  0
    8.3006  -14.8426   25.6951 C   0  0  2  0  0  0  0  0  0  0  0  0
    8.0625  -15.2423   24.3340 N   0  0  0  0  0  0  0  0  0  0  0  0
    8.8495  -15.9393   26.5270 C   0  0  0  0  0  0  0  0  0  0  0  0
    9.1446  -15.6930   27.7161 O   0  0  0  0  0  0  0  0  0  0  0  0
    9.0383  -17.2241   26.0064 N   0  0  0  0  0  0  0  0  0  0  0  0
    9.5826  -18.2607   26.8822 C   0  0  1  0  0  0  0  0  0  0  0  0
   10.0857  -19.4031   26.0142 C   0  0  0  0  0  0  0  0  0  0  0  0
    8.9781  -20.0214   25.2758 C   0  0  0  0  0  0  0  0  0  0  0  0
    7.6503  -19.6876   25.4126 C   0  0  0  0  0  0  0  0  0  0  0  0
    6.9403  -20.4563   24.5859 N   0  0  0  0  0  0  0  0  0  0  0  0
    7.8061  -21.2654   23.9347 C   0  0  0  0  0  0  0  0  0  0  0  0
    9.0435  -20.9842   24.3700 N   0  0  0  0  0  0  0  0  0  0  0  0
   10.6805  -17.6527   27.6623 C   0  0  0  0  0  0  0  0  0  0  0  0
   11.1540  -16.5512   27.3211 O   0  0  0  0  0  0  0  0  0  0  0  0
   11.1843  -18.3006   28.7696 O   0  0  0  0  0  0  0  0  0  0  0  0
  1  2  1  0
  2  3  2  0
  4  2  1  0
  5  7  1  0
  5  4  1  0
  5  6  1  6
  7  8  2  0
 10  9  1  1
 10 11  1  0
 13 12  1  1
 12 10  1  0
 14 13  1  0
 14  7  1  0
 15 16  2  0
 15 13  1  0
 17 15  1  0
 18 25  1  0
 18 17  1  0
 18 19  1  6
 20 19  1  0
 21 20  2  0
 22 23  1  0
 22 21  1  0
 23 24  2  0
 24 20  1  0
 25 27  1  0
 26 25  2  0
M  END
$$$$
