NLH.pdb
     RDKit          3D

 27 27  0  0  1  0  0  0  0  0999 V2000
   10.1763  -20.2371   20.2574 N   0  0  0  0  0  0  0  0  0  0  0  0
    9.1080  -19.6683   20.9910 C   0  0  0  0  0  0  0  0  0  0  0  0
    8.0251  -20.2803   21.0038 O   0  0  0  0  0  0  0  0  0  0  0  0
    9.3287  -18.4030   21.6895 C   0  0  0  0  0  0  0  0  0  0  0  0
    8.3792  -17.2872   21.3668 C   0  0  2  0  0  0  0  0  0  0  0  0
    8.6136  -16.9875   19.9375 N   0  0  0  0  0  0  0  0  0  0  0  0
    8.6990  -16.1038   22.1933 C   0  0  0  0  0  0  0  0  0  0  0  0
    9.6521  -15.3543   21.9567 O   0  0  0  0  0  0  0  0  0  0  0  0
    8.3650  -12.2128   25.6933 C   0  0  0  0  0  0  0  0  0  0  0  0
    6.9992  -12.8379   25.5871 C   0  0  2  0  0  0  0  0  0  0  0  0
    6.2132  -12.7101   26.8703 C   0  0  0  0  0  0  0  0  0  0  0  0
    6.9751  -14.1954   24.9962 C   0  0  0  0  0  0  0  0  0  0  0  0
    8.1315  -14.6254   24.1785 C   0  0  2  0  0  0  0  0  0  0  0  0
    7.8794  -15.7712   23.3463 N   0  0  0  0  0  0  0  0  0  0  0  0
    9.4143  -14.7222   24.9141 C   0  0  0  0  0  0  0  0  0  0  0  0
    9.9155  -13.6745   25.3756 O   0  0  0  0  0  0  0  0  0  0  0  0
   10.0597  -15.9503   25.0945 N   0  0  0  0  0  0  0  0  0  0  0  0
   11.3100  -15.9787   25.8520 C   0  0  1  0  0  0  0  0  0  0  0  0
   11.0654  -16.7340   27.1487 C   0  0  0  0  0  0  0  0  0  0  0  0
   10.6520  -15.8146   28.2155 C   0  0  0  0  0  0  0  0  0  0  0  0
   10.5186  -14.4519   28.0798 C   0  0  0  0  0  0  0  0  0  0  0  0
   10.1285  -13.9528   29.2534 N   0  0  0  0  0  0  0  0  0  0  0  0
   10.0165  -14.9847   30.1200 C   0  0  0  0  0  0  0  0  0  0  0  0
   10.3402  -16.1111   29.4671 N   0  0  0  0  0  0  0  0  0  0  0  0
   12.3216  -16.6575   25.0156 C   0  0  0  0  0  0  0  0  0  0  0  0
   11.9643  -17.4553   24.1269 O   0  0  0  0  0  0  0  0  0  0  0  0
   13.6630  -16.4105   25.2144 O   0  0  0  0  0  0  0  0  0  0  0  0
  1  2  1  0
  2  3  2  0
  4  2  1  0
  5  7  1  0
  5  4  1  0
  5  6  1  6
  7  8  2  0
 10  9  1  1
 10 11  1  0
 13 12  1  1
 12 10  1  0
 14 13  1  0
 14  7  1  0
 15 16  2  0
 15 13  1  0
 17 15  1  0
 18 25  1  0
 18 17  1  0
 18 19  1  1
 20 19  1  0
 21 20  2  0
 22 23  1  0
 22 21  1  0
 23 24  2  0
 24 20  1  0
 25 27  1  0
 26 25  2  0
M  END
$$$$
