FSL.pdb
     RDKit          3D

 26 26  0  0  1  0  0  0  0  0999 V2000
   24.5675   -9.6357  -18.3379 N   0  0  0  0  0  0  0  0  0  0  0  0
   24.0564   -9.2118  -17.0503 C   0  0  1  0  0  0  0  0  0  0  0  0
   25.1424   -8.3710  -16.4239 C   0  0  0  0  0  0  0  0  0  0  0  0
   26.3052   -9.2863  -16.2279 C   0  0  0  0  0  0  0  0  0  0  0  0
   27.4920   -9.1757  -16.9212 C   0  0  0  0  0  0  0  0  0  0  0  0
   28.5566  -10.0363  -16.7183 C   0  0  0  0  0  0  0  0  0  0  0  0
   28.4566  -11.0553  -15.7926 C   0  0  0  0  0  0  0  0  0  0  0  0
   27.2849  -11.1870  -15.0889 C   0  0  0  0  0  0  0  0  0  0  0  0
   26.2495  -10.3315  -15.3020 C   0  0  0  0  0  0  0  0  0  0  0  0
   22.7615   -8.5485  -17.1438 C   0  0  0  0  0  0  0  0  0  0  0  0
   22.5291   -7.7320  -18.0999 O   0  0  0  0  0  0  0  0  0  0  0  0
   19.6012   -8.6384  -14.1766 O   0  0  0  0  0  0  0  0  0  0  0  0
   19.3194   -8.6078  -15.4962 C   0  0  0  0  0  0  0  0  0  0  0  0
   20.3969   -8.0678  -16.4038 C   0  0  2  0  0  0  0  0  0  0  0  0
   21.6648   -8.7177  -16.2384 N   0  0  0  0  0  0  0  0  0  0  0  0
   20.4831   -6.5931  -16.3586 C   0  0  0  0  0  0  0  0  0  0  0  0
   21.3644   -6.0533  -15.6083 O   0  0  0  0  0  0  0  0  0  0  0  0
   21.1530   -3.4246  -19.4146 C   0  0  0  0  0  0  0  0  0  0  0  0
   19.7048   -3.8673  -19.4087 C   0  0  2  0  0  0  0  0  0  0  0  0
   18.9952   -3.2043  -20.5579 C   0  0  0  0  0  0  0  0  0  0  0  0
   19.1383   -3.5137  -18.0647 C   0  0  0  0  0  0  0  0  0  0  0  0
   19.7935   -4.2345  -16.9100 C   0  0  2  0  0  0  0  0  0  0  0  0
   19.6657   -5.6926  -17.0832 N   0  0  0  0  0  0  0  0  0  0  0  0
   19.3014   -3.8216  -15.5823 C   0  0  0  0  0  0  0  0  0  0  0  0
   19.6316   -2.5843  -15.0515 O   0  0  0  0  0  0  0  0  0  0  0  0
   18.5752   -4.5779  -14.9044 O   0  0  0  0  0  0  0  0  0  0  0  0
  2  1  1  6
  2 10  1  0
  3  2  1  0
  3  4  1  0
  4  9  2  0
  5  4  1  0
  5  6  2  0
  6  7  1  0
  7  8  2  0
  9  8  1  0
 10 11  2  0
 12 13  1  0
 14 13  1  1
 14 16  1  0
 15 14  1  0
 15 10  1  0
 16 23  1  0
 16 17  2  0
 19 18  1  1
 19 20  1  0
 21 19  1  0
 22 21  1  6
 22 24  1  0
 23 22  1  0
 24 26  2  0
 24 25  1  0
M  END
$$$$
