FSL.pdb
     RDKit          3D

 26 26  0  0  1  0  0  0  0  0999 V2000
   20.0509   -4.5203  -15.2611 N   0  0  0  0  0  0  0  0  0  0  0  0
   20.0037   -5.8888  -14.7879 C   0  0  1  0  0  0  0  0  0  0  0  0
   21.0238   -5.9849  -13.6793 C   0  0  0  0  0  0  0  0  0  0  0  0
   22.3573   -5.9756  -14.3499 C   0  0  0  0  0  0  0  0  0  0  0  0
   23.0077   -7.1142  -14.7766 C   0  0  0  0  0  0  0  0  0  0  0  0
   24.2433   -7.0778  -15.3989 C   0  0  0  0  0  0  0  0  0  0  0  0
   24.8746   -5.8694  -15.6146 C   0  0  0  0  0  0  0  0  0  0  0  0
   24.2479   -4.7206  -15.1988 C   0  0  0  0  0  0  0  0  0  0  0  0
   23.0336   -4.7763  -14.5891 C   0  0  0  0  0  0  0  0  0  0  0  0
   18.6614   -6.3121  -14.4078 C   0  0  0  0  0  0  0  0  0  0  0  0
   17.9545   -5.5783  -13.6355 O   0  0  0  0  0  0  0  0  0  0  0  0
   16.6071  -10.0564  -15.4964 O   0  0  0  0  0  0  0  0  0  0  0  0
   16.0261   -8.8398  -15.4339 C   0  0  0  0  0  0  0  0  0  0  0  0
   16.6541   -7.8396  -14.4950 C   0  0  2  0  0  0  0  0  0  0  0  0
   18.0131   -7.5194  -14.8237 N   0  0  0  0  0  0  0  0  0  0  0  0
   16.4643   -8.2047  -13.0756 C   0  0  0  0  0  0  0  0  0  0  0  0
   17.3842   -8.8641  -12.4839 O   0  0  0  0  0  0  0  0  0  0  0  0
   12.9788   -7.2703   -8.1209 C   0  0  0  0  0  0  0  0  0  0  0  0
   14.3075   -7.8014   -8.6167 C   0  0  2  0  0  0  0  0  0  0  0  0
   15.4011   -7.2513   -7.7422 C   0  0  0  0  0  0  0  0  0  0  0  0
   14.4324   -7.4070  -10.0594 C   0  0  0  0  0  0  0  0  0  0  0  0
   15.2021   -8.3946  -10.9045 C   0  0  2  0  0  0  0  0  0  0  0  0
   15.3351   -7.8887  -12.2825 N   0  0  0  0  0  0  0  0  0  0  0  0
   14.6414   -9.7588  -10.9014 C   0  0  0  0  0  0  0  0  0  0  0  0
   15.2890  -10.7955  -10.2475 O   0  0  0  0  0  0  0  0  0  0  0  0
   13.5690  -10.0122  -11.4886 O   0  0  0  0  0  0  0  0  0  0  0  0
  2  1  1  1
  2 10  1  0
  3  2  1  0
  3  4  1  0
  4  9  2  0
  5  4  1  0
  5  6  2  0
  6  7  1  0
  7  8  2  0
  9  8  1  0
 10 11  2  0
 12 13  1  0
 14 13  1  6
 14 16  1  0
 15 14  1  0
 15 10  1  0
 16 23  1  0
 16 17  2  0
 19 18  1  1
 19 20  1  0
 21 19  1  0
 22 21  1  1
 22 24  1  0
 23 22  1  0
 24 26  2  0
 24 25  1  0
M  END
$$$$
