FSL.pdb
     RDKit          3D

 26 26  0  0  1  0  0  0  0  0999 V2000
   22.3498  -20.4062  -17.4883 N   0  0  0  0  0  0  0  0  0  0  0  0
   23.2380  -19.3628  -17.0181 C   0  0  1  0  0  0  0  0  0  0  0  0
   22.3596  -18.3347  -16.3471 C   0  0  0  0  0  0  0  0  0  0  0  0
   21.7124  -17.5675  -17.4519 C   0  0  0  0  0  0  0  0  0  0  0  0
   20.4272  -17.7996  -17.8946 C   0  0  0  0  0  0  0  0  0  0  0  0
   19.8492  -17.0713  -18.9197 C   0  0  0  0  0  0  0  0  0  0  0  0
   20.5621  -16.0672  -19.5431 C   0  0  0  0  0  0  0  0  0  0  0  0
   21.8444  -15.8163  -19.1209 C   0  0  0  0  0  0  0  0  0  0  0  0
   22.3955  -16.5425  -18.1118 C   0  0  0  0  0  0  0  0  0  0  0  0
   24.3169  -19.8709  -16.1794 C   0  0  0  0  0  0  0  0  0  0  0  0
   24.0672  -20.7349  -15.2706 O   0  0  0  0  0  0  0  0  0  0  0  0
   28.3818  -18.2446  -15.7086 O   0  0  0  0  0  0  0  0  0  0  0  0
   28.1029  -19.5644  -15.7525 C   0  0  0  0  0  0  0  0  0  0  0  0
   26.7032  -19.9716  -15.3635 C   0  0  2  0  0  0  0  0  0  0  0  0
   25.6951  -19.4911  -16.2638 N   0  0  0  0  0  0  0  0  0  0  0  0
   26.4078  -19.6837  -13.9444 C   0  0  0  0  0  0  0  0  0  0  0  0
   25.6561  -18.6899  -13.6640 O   0  0  0  0  0  0  0  0  0  0  0  0
   24.9042  -21.3637   -9.2445 C   0  0  0  0  0  0  0  0  0  0  0  0
   24.1731  -20.4053  -10.1611 C   0  0  2  0  0  0  0  0  0  0  0  0
   22.7141  -20.7727  -10.1751 C   0  0  0  0  0  0  0  0  0  0  0  0
   24.8300  -20.4911  -11.5078 C   0  0  0  0  0  0  0  0  0  0  0  0
   26.3172  -20.2266  -11.4867 C   0  0  2  0  0  0  0  0  0  0  0  0
   26.8863  -20.4183  -12.8328 N   0  0  0  0  0  0  0  0  0  0  0  0
   27.0583  -21.0207  -10.4889 C   0  0  0  0  0  0  0  0  0  0  0  0
   27.0663  -22.4059  -10.5419 O   0  0  0  0  0  0  0  0  0  0  0  0
   27.6964  -20.4632   -9.5720 O   0  0  0  0  0  0  0  0  0  0  0  0
  2  1  1  1
  2 10  1  0
  3  2  1  0
  3  4  1  0
  4  9  2  0
  5  4  1  0
  5  6  2  0
  6  7  1  0
  7  8  2  0
  9  8  1  0
 10 11  2  0
 12 13  1  0
 14 13  1  6
 14 16  1  0
 15 14  1  0
 15 10  1  0
 16 23  1  0
 16 17  2  0
 19 18  1  1
 19 20  1  0
 21 19  1  0
 22 21  1  6
 22 24  1  0
 23 22  1  0
 24 26  2  0
 24 25  1  0
M  END
$$$$
