FSL.pdb
     RDKit          3D

 26 26  0  0  1  0  0  0  0  0999 V2000
   20.7889  -21.8834  -19.2973 N   0  0  0  0  0  0  0  0  0  0  0  0
   19.6454  -21.0392  -19.0173 C   0  0  1  0  0  0  0  0  0  0  0  0
   18.6440  -21.3120  -20.1136 C   0  0  0  0  0  0  0  0  0  0  0  0
   19.1930  -20.6603  -21.3391 C   0  0  0  0  0  0  0  0  0  0  0  0
   19.7537  -21.3551  -22.3900 C   0  0  0  0  0  0  0  0  0  0  0  0
   20.2531  -20.7264  -23.5172 C   0  0  0  0  0  0  0  0  0  0  0  0
   20.2026  -19.3510  -23.6225 C   0  0  0  0  0  0  0  0  0  0  0  0
   19.6493  -18.6357  -22.5893 C   0  0  0  0  0  0  0  0  0  0  0  0
   19.1635  -19.2713  -21.4896 C   0  0  0  0  0  0  0  0  0  0  0  0
   19.1234  -21.2194  -17.6681 C   0  0  0  0  0  0  0  0  0  0  0  0
   19.2067  -22.3607  -17.0977 O   0  0  0  0  0  0  0  0  0  0  0  0
   16.8283  -18.3003  -15.3932 O   0  0  0  0  0  0  0  0  0  0  0  0
   17.6188  -19.2157  -14.7943 C   0  0  0  0  0  0  0  0  0  0  0  0
   17.9183  -20.4672  -15.5820 C   0  0  2  0  0  0  0  0  0  0  0  0
   18.4956  -20.2099  -16.8696 N   0  0  0  0  0  0  0  0  0  0  0  0
   16.7655  -21.3907  -15.6298 C   0  0  0  0  0  0  0  0  0  0  0  0
   15.9845  -21.3447  -16.6394 O   0  0  0  0  0  0  0  0  0  0  0  0
   13.6918  -25.6331  -13.3486 C   0  0  0  0  0  0  0  0  0  0  0  0
   14.4841  -25.6227  -14.6391 C   0  0  2  0  0  0  0  0  0  0  0  0
   14.9393  -27.0259  -14.9346 C   0  0  0  0  0  0  0  0  0  0  0  0
   15.6110  -24.6477  -14.4599 C   0  0  0  0  0  0  0  0  0  0  0  0
   15.2495  -23.2191  -14.7922 C   0  0  2  0  0  0  0  0  0  0  0  0
   16.4296  -22.3487  -14.6431 N   0  0  0  0  0  0  0  0  0  0  0  0
   14.1095  -22.6891  -14.0209 C   0  0  0  0  0  0  0  0  0  0  0  0
   12.8040  -22.9230  -14.4242 O   0  0  0  0  0  0  0  0  0  0  0  0
   14.2938  -22.0163  -12.9854 O   0  0  0  0  0  0  0  0  0  0  0  0
  2  1  1  6
  2 10  1  0
  3  2  1  0
  3  4  1  0
  4  9  2  0
  5  4  1  0
  5  6  2  0
  6  7  1  0
  7  8  2  0
  9  8  1  0
 10 11  2  0
 12 13  1  0
 14 13  1  6
 14 16  1  0
 15 14  1  0
 15 10  1  0
 16 23  1  0
 16 17  2  0
 19 18  1  1
 19 20  1  0
 21 19  1  0
 22 21  1  1
 22 24  1  0
 23 22  1  0
 24 26  2  0
 24 25  1  0
M  END
$$$$
