FSL.pdb
     RDKit          3D

 26 26  0  0  1  0  0  0  0  0999 V2000
   19.5205  -19.8729   11.4309 N   0  0  0  0  0  0  0  0  0  0  0  0
   20.6534  -20.5778   10.8666 C   0  0  1  0  0  0  0  0  0  0  0  0
   20.8469  -20.0178    9.4782 C   0  0  0  0  0  0  0  0  0  0  0  0
   19.8961  -20.7629    8.6014 C   0  0  0  0  0  0  0  0  0  0  0  0
   19.9968  -22.1122    8.3353 C   0  0  0  0  0  0  0  0  0  0  0  0
   19.0995  -22.7802    7.5205 C   0  0  0  0  0  0  0  0  0  0  0  0
   18.0524  -22.0961    6.9368 C   0  0  0  0  0  0  0  0  0  0  0  0
   17.9299  -20.7513    7.1859 C   0  0  0  0  0  0  0  0  0  0  0  0
   18.8215  -20.1121    7.9894 C   0  0  0  0  0  0  0  0  0  0  0  0
   21.8400  -20.5138   11.7112 C   0  0  0  0  0  0  0  0  0  0  0  0
   22.2309  -19.3904   12.1801 O   0  0  0  0  0  0  0  0  0  0  0  0
   24.2233  -23.8749   13.3091 O   0  0  0  0  0  0  0  0  0  0  0  0
   23.9795  -22.6789   13.8849 C   0  0  0  0  0  0  0  0  0  0  0  0
   23.8004  -21.5055   12.9535 C   0  0  2  0  0  0  0  0  0  0  0  0
   22.6585  -21.6250   12.0938 N   0  0  0  0  0  0  0  0  0  0  0  0
   25.0447  -21.1653   12.2322 C   0  0  0  0  0  0  0  0  0  0  0  0
   25.2358  -21.6621   11.0713 O   0  0  0  0  0  0  0  0  0  0  0  0
   27.1587  -17.5436   10.1486 C   0  0  0  0  0  0  0  0  0  0  0  0
   26.9456  -17.5973   11.6469 C   0  0  2  0  0  0  0  0  0  0  0  0
   27.2500  -16.2417   12.2243 C   0  0  0  0  0  0  0  0  0  0  0  0
   27.8231  -18.6916   12.1808 C   0  0  0  0  0  0  0  0  0  0  0  0
   27.2984  -20.0844   11.9227 C   0  0  2  0  0  0  0  0  0  0  0  0
   26.0752  -20.3205   12.7104 N   0  0  0  0  0  0  0  0  0  0  0  0
   28.2850  -21.1553   12.1576 C   0  0  0  0  0  0  0  0  0  0  0  0
   29.3534  -21.3437   11.2946 O   0  0  0  0  0  0  0  0  0  0  0  0
   28.1809  -21.9181   13.1405 O   0  0  0  0  0  0  0  0  0  0  0  0
  2  1  1  1
  2 10  1  0
  3  2  1  0
  3  4  1  0
  4  9  2  0
  5  4  1  0
  5  6  2  0
  6  7  1  0
  7  8  2  0
  9  8  1  0
 10 11  2  0
 12 13  1  0
 14 13  1  6
 14 16  1  0
 15 14  1  0
 15 10  1  0
 16 23  1  0
 16 17  2  0
 19 18  1  6
 19 20  1  0
 21 19  1  0
 22 21  1  1
 22 24  1  0
 23 22  1  0
 24 26  2  0
 24 25  1  0
M  END
$$$$
