FSL.pdb
     RDKit          3D

 26 26  0  0  1  0  0  0  0  0999 V2000
   15.5653  -14.4427    3.5928 N   0  0  0  0  0  0  0  0  0  0  0  0
   16.4574  -15.5745    3.7411 C   0  0  1  0  0  0  0  0  0  0  0  0
   17.7030  -15.2322    2.9599 C   0  0  0  0  0  0  0  0  0  0  0  0
   18.3731  -14.1362    3.7200 C   0  0  0  0  0  0  0  0  0  0  0  0
   18.0867  -12.7984    3.5470 C   0  0  0  0  0  0  0  0  0  0  0  0
   18.7209  -11.8013    4.2672 C   0  0  0  0  0  0  0  0  0  0  0  0
   19.6825  -12.1273    5.2023 C   0  0  0  0  0  0  0  0  0  0  0  0
   19.9861  -13.4527    5.3935 C   0  0  0  0  0  0  0  0  0  0  0  0
   19.3521  -14.4186    4.6762 C   0  0  0  0  0  0  0  0  0  0  0  0
   16.7001  -15.9275    5.1346 C   0  0  0  0  0  0  0  0  0  0  0  0
   16.4711  -15.0746    6.0592 O   0  0  0  0  0  0  0  0  0  0  0  0
   16.2509  -19.6221    6.9683 O   0  0  0  0  0  0  0  0  0  0  0  0
   16.3808  -18.4243    7.5765 C   0  0  0  0  0  0  0  0  0  0  0  0
   17.4043  -17.4801    6.9957 C   0  0  2  0  0  0  0  0  0  0  0  0
   17.1914  -17.1867    5.6079 N   0  0  0  0  0  0  0  0  0  0  0  0
   18.7893  -17.8948    7.3019 C   0  0  0  0  0  0  0  0  0  0  0  0
   19.4468  -18.5380    6.4158 O   0  0  0  0  0  0  0  0  0  0  0  0
   23.1037  -16.2093    8.2615 C   0  0  0  0  0  0  0  0  0  0  0  0
   21.9547  -16.0062    9.2267 C   0  0  2  0  0  0  0  0  0  0  0  0
   22.3911  -15.0433   10.2972 C   0  0  0  0  0  0  0  0  0  0  0  0
   21.5717  -17.3591    9.7515 C   0  0  0  0  0  0  0  0  0  0  0  0
   20.8174  -18.2143    8.7606 C   0  0  2  0  0  0  0  0  0  0  0  0
   19.4813  -17.6441    8.5112 N   0  0  0  0  0  0  0  0  0  0  0  0
   20.7153  -19.6351    9.1431 C   0  0  0  0  0  0  0  0  0  0  0  0
   21.8137  -20.4769    9.0628 O   0  0  0  0  0  0  0  0  0  0  0  0
   19.6356  -20.1135    9.5485 O   0  0  0  0  0  0  0  0  0  0  0  0
  2  1  1  1
  2 10  1  0
  3  2  1  0
  3  4  1  0
  4  9  2  0
  5  4  1  0
  5  6  2  0
  6  7  1  0
  7  8  2  0
  9  8  1  0
 10 11  2  0
 12 13  1  0
 14 13  1  6
 14 16  1  0
 15 14  1  0
 15 10  1  0
 16 23  1  0
 16 17  2  0
 19 18  1  6
 19 20  1  0
 21 19  1  0
 22 21  1  1
 22 24  1  0
 23 22  1  0
 24 26  2  0
 24 25  1  0
M  END
$$$$
