GGK.pdb
     RDKit          3D

 18 17  0  0  1  0  0  0  0  0999 V2000
   26.8231  -18.0499  -19.8345 N   0  0  0  0  0  0  0  0  0  0  0  0
   25.4003  -17.8952  -19.8306 C   0  0  0  0  0  0  0  0  0  0  0  0
   24.7565  -18.7724  -18.8131 C   0  0  0  0  0  0  0  0  0  0  0  0
   24.6940  -20.0182  -18.9448 O   0  0  0  0  0  0  0  0  0  0  0  0
   24.2017  -18.1582  -17.6644 N   0  0  0  0  0  0  0  0  0  0  0  0
   23.5802  -18.9774  -16.6245 C   0  0  0  0  0  0  0  0  0  0  0  0
   24.4723  -18.9833  -15.4336 C   0  0  0  0  0  0  0  0  0  0  0  0
   24.6432  -17.9567  -14.7087 O   0  0  0  0  0  0  0  0  0  0  0  0
   25.1754  -20.1589  -15.0609 N   0  0  0  0  0  0  0  0  0  0  0  0
   25.8411  -20.2537  -13.7639 C   0  0  1  0  0  0  0  0  0  0  0  0
   24.8212  -20.4666  -12.6953 C   0  0  0  0  0  0  0  0  0  0  0  0
   25.3773  -20.6022  -11.3156 C   0  0  0  0  0  0  0  0  0  0  0  0
   24.2394  -20.7741  -10.3023 C   0  0  0  0  0  0  0  0  0  0  0  0
   24.8421  -20.8686   -8.9309 C   0  0  0  0  0  0  0  0  0  0  0  0
   23.8337  -20.9694   -7.9039 N   0  0  0  0  0  0  0  0  0  0  0  0
   26.8668  -21.3044  -13.8592 C   0  0  0  0  0  0  0  0  0  0  0  0
   27.9875  -21.2290  -13.2858 O   0  0  0  0  0  0  0  0  0  0  0  0
   26.6431  -22.4732  -14.6126 O   0  0  0  0  0  0  0  0  0  0  0  0
  1  2  1  0
  3  2  1  0
  3  5  1  0
  4  3  2  0
  6  5  1  0
  7  9  1  0
  7  6  1  0
  8  7  2  0
 10  9  1  0
 10 16  1  0
 10 11  1  1
 12 11  1  0
 13 14  1  0
 13 12  1  0
 14 15  1  0
 16 17  2  0
 16 18  1  0
M  END
$$$$
