GGK.pdb
     RDKit          3D

 18 17  0  0  1  0  0  0  0  0999 V2000
   26.5800  -14.4316  -16.1567 N   0  0  0  0  0  0  0  0  0  0  0  0
   26.2028  -13.2863  -15.3857 C   0  0  0  0  0  0  0  0  0  0  0  0
   26.5238  -12.0171  -16.0968 C   0  0  0  0  0  0  0  0  0  0  0  0
   26.8876  -11.9944  -17.2970 O   0  0  0  0  0  0  0  0  0  0  0  0
   26.4076  -10.8051  -15.3743 N   0  0  0  0  0  0  0  0  0  0  0  0
   26.6460   -9.5276  -16.0450 C   0  0  0  0  0  0  0  0  0  0  0  0
   25.3300   -8.9124  -16.3678 C   0  0  0  0  0  0  0  0  0  0  0  0
   25.2266   -7.8581  -17.0651 O   0  0  0  0  0  0  0  0  0  0  0  0
   24.1235   -9.4946  -15.8982 N   0  0  0  0  0  0  0  0  0  0  0  0
   22.8263   -8.9539  -16.2972 C   0  0  1  0  0  0  0  0  0  0  0  0
   21.7997  -10.0361  -16.2486 C   0  0  0  0  0  0  0  0  0  0  0  0
   20.3966   -9.5806  -16.4834 C   0  0  0  0  0  0  0  0  0  0  0  0
   19.6809  -10.5452  -17.4366 C   0  0  0  0  0  0  0  0  0  0  0  0
   18.2581  -10.0902  -17.5840 C   0  0  0  0  0  0  0  0  0  0  0  0
   17.5079  -10.9441  -18.4728 N   0  0  0  0  0  0  0  0  0  0  0  0
   22.5406   -7.7903  -15.4431 C   0  0  0  0  0  0  0  0  0  0  0  0
   22.8742   -7.7271  -14.2286 O   0  0  0  0  0  0  0  0  0  0  0  0
   21.8650   -6.6636  -15.9509 O   0  0  0  0  0  0  0  0  0  0  0  0
  1  2  1  0
  3  2  1  0
  3  5  1  0
  4  3  2  0
  6  5  1  0
  7  9  1  0
  7  6  1  0
  8  7  2  0
 10  9  1  0
 10 16  1  0
 10 11  1  1
 12 11  1  0
 13 14  1  0
 13 12  1  0
 14 15  1  0
 16 17  2  0
 16 18  1  0
M  END
$$$$
