GGK.pdb
     RDKit          3D

 18 17  0  0  1  0  0  0  0  0999 V2000
   17.1386  -10.9907  -15.2807 N   0  0  0  0  0  0  0  0  0  0  0  0
   17.4844   -9.6392  -14.9607 C   0  0  0  0  0  0  0  0  0  0  0  0
   18.5375   -9.5773  -13.9088 C   0  0  0  0  0  0  0  0  0  0  0  0
   18.6889  -10.4858  -13.0573 O   0  0  0  0  0  0  0  0  0  0  0  0
   19.3867   -8.4447  -13.8871 N   0  0  0  0  0  0  0  0  0  0  0  0
   20.4372   -8.3370  -12.8754 C   0  0  0  0  0  0  0  0  0  0  0  0
   21.2609   -7.1351  -13.1778 C   0  0  0  0  0  0  0  0  0  0  0  0
   22.2143   -6.7603  -12.4302 O   0  0  0  0  0  0  0  0  0  0  0  0
   21.0033   -6.3526  -14.3339 N   0  0  0  0  0  0  0  0  0  0  0  0
   21.8136   -5.1753  -14.6369 C   0  0  1  0  0  0  0  0  0  0  0  0
   21.7401   -4.8832  -16.0986 C   0  0  0  0  0  0  0  0  0  0  0  0
   22.4294   -3.6279  -16.5228 C   0  0  0  0  0  0  0  0  0  0  0  0
   22.2055   -3.3825  -18.0198 C   0  0  0  0  0  0  0  0  0  0  0  0
   23.0220   -2.1909  -18.4276 C   0  0  0  0  0  0  0  0  0  0  0  0
   22.7489   -1.7889  -19.7862 N   0  0  0  0  0  0  0  0  0  0  0  0
   21.3628   -4.0806  -13.7631 C   0  0  0  0  0  0  0  0  0  0  0  0
   22.1237   -3.1568  -13.3656 O   0  0  0  0  0  0  0  0  0  0  0  0
   20.0288   -4.0082  -13.3170 O   0  0  0  0  0  0  0  0  0  0  0  0
  1  2  1  0
  3  2  1  0
  3  5  1  0
  4  3  2  0
  6  5  1  0
  7  9  1  0
  7  6  1  0
  8  7  2  0
 10  9  1  0
 10 16  1  0
 10 11  1  6
 12 11  1  0
 13 14  1  0
 13 12  1  0
 14 15  1  0
 16 17  2  0
 16 18  1  0
M  END
$$$$
