GGK.pdb
     RDKit          3D

 18 17  0  0  1  0  0  0  0  0999 V2000
   26.2732  -22.1732  -11.7874 N   0  0  0  0  0  0  0  0  0  0  0  0
   26.5185  -20.7716  -11.6331 C   0  0  0  0  0  0  0  0  0  0  0  0
   27.0248  -20.1618  -12.8945 C   0  0  0  0  0  0  0  0  0  0  0  0
   27.5580  -20.8439  -13.8022 O   0  0  0  0  0  0  0  0  0  0  0  0
   26.8896  -18.7616  -13.0545 N   0  0  0  0  0  0  0  0  0  0  0  0
   27.4333  -18.1050  -14.2429 C   0  0  0  0  0  0  0  0  0  0  0  0
   26.4039  -18.1472  -15.3167 C   0  0  0  0  0  0  0  0  0  0  0  0
   26.5931  -17.6292  -16.4587 O   0  0  0  0  0  0  0  0  0  0  0  0
   25.1524  -18.7799  -15.0960 N   0  0  0  0  0  0  0  0  0  0  0  0
   24.1755  -18.9039  -16.1752 C   0  0  1  0  0  0  0  0  0  0  0  0
   22.9814  -18.0643  -15.8645 C   0  0  0  0  0  0  0  0  0  0  0  0
   21.8698  -18.1630  -16.8573 C   0  0  0  0  0  0  0  0  0  0  0  0
   20.7026  -17.2630  -16.4344 C   0  0  0  0  0  0  0  0  0  0  0  0
   19.5961  -17.4277  -17.4350 C   0  0  0  0  0  0  0  0  0  0  0  0
   18.4596  -16.5945  -17.1251 N   0  0  0  0  0  0  0  0  0  0  0  0
   24.8540  -18.5724  -17.4380 C   0  0  0  0  0  0  0  0  0  0  0  0
   25.0746  -17.3887  -17.8131 O   0  0  0  0  0  0  0  0  0  0  0  0
   25.3012  -19.5834  -18.3108 O   0  0  0  0  0  0  0  0  0  0  0  0
  1  2  1  0
  3  2  1  0
  3  5  1  0
  4  3  2  0
  6  5  1  0
  7  9  1  0
  7  6  1  0
  8  7  2  0
 10  9  1  0
 10 16  1  0
 10 11  1  1
 12 11  1  0
 13 14  1  0
 13 12  1  0
 14 15  1  0
 16 17  2  0
 16 18  1  0
M  END
$$$$
