GGK.pdb
     RDKit          3D

 18 17  0  0  1  0  0  0  0  0999 V2000
   22.3921   -4.7910  -13.4701 N   0  0  0  0  0  0  0  0  0  0  0  0
   22.0244   -5.2613  -14.7709 C   0  0  0  0  0  0  0  0  0  0  0  0
   21.5487   -6.6724  -14.7292 C   0  0  0  0  0  0  0  0  0  0  0  0
   20.5836   -7.0339  -14.0141 O   0  0  0  0  0  0  0  0  0  0  0  0
   22.2235   -7.6232  -15.5324 N   0  0  0  0  0  0  0  0  0  0  0  0
   21.7440   -9.0036  -15.5911 C   0  0  0  0  0  0  0  0  0  0  0  0
   20.8379   -9.1379  -16.7639 C   0  0  0  0  0  0  0  0  0  0  0  0
   21.0647   -8.5545  -17.8669 O   0  0  0  0  0  0  0  0  0  0  0  0
   19.6676   -9.9377  -16.6873 N   0  0  0  0  0  0  0  0  0  0  0  0
   18.8481  -10.1810  -17.8720 C   0  0  1  0  0  0  0  0  0  0  0  0
   18.2562  -11.5489  -17.7955 C   0  0  0  0  0  0  0  0  0  0  0  0
   19.2371  -12.6658  -17.9417 C   0  0  0  0  0  0  0  0  0  0  0  0
   18.5551  -14.0086  -17.6533 C   0  0  0  0  0  0  0  0  0  0  0  0
   19.5845  -15.0940  -17.7761 C   0  0  0  0  0  0  0  0  0  0  0  0
   19.0584  -16.3824  -17.3950 N   0  0  0  0  0  0  0  0  0  0  0  0
   17.8691   -9.0874  -17.9756 C   0  0  0  0  0  0  0  0  0  0  0  0
   17.2383   -8.8237  -19.0352 O   0  0  0  0  0  0  0  0  0  0  0  0
   17.5812   -8.2619  -16.8713 O   0  0  0  0  0  0  0  0  0  0  0  0
  1  2  1  0
  3  2  1  0
  3  5  1  0
  4  3  2  0
  6  5  1  0
  7  9  1  0
  7  6  1  0
  8  7  2  0
 10  9  1  0
 10 16  1  0
 10 11  1  1
 12 11  1  0
 13 14  1  0
 13 12  1  0
 14 15  1  0
 16 17  2  0
 16 18  1  0
M  END
$$$$
