GGK.pdb
     RDKit          3D

 18 17  0  0  1  0  0  0  0  0999 V2000
   23.5550  -19.2890  -17.9154 N   0  0  0  0  0  0  0  0  0  0  0  0
   23.7336  -17.8703  -17.8539 C   0  0  0  0  0  0  0  0  0  0  0  0
   24.5330  -17.4698  -16.6624 C   0  0  0  0  0  0  0  0  0  0  0  0
   24.0922  -17.5754  -15.4927 O   0  0  0  0  0  0  0  0  0  0  0  0
   25.8336  -16.9543  -16.8797 N   0  0  0  0  0  0  0  0  0  0  0  0
   26.7017  -16.6549  -15.7415 C   0  0  0  0  0  0  0  0  0  0  0  0
   27.2735  -17.9326  -15.2364 C   0  0  0  0  0  0  0  0  0  0  0  0
   28.3275  -18.4434  -15.7228 O   0  0  0  0  0  0  0  0  0  0  0  0
   26.6480  -18.6363  -14.1740 N   0  0  0  0  0  0  0  0  0  0  0  0
   27.2500  -19.8471  -13.6211 C   0  0  1  0  0  0  0  0  0  0  0  0
   27.0849  -19.8525  -12.1379 C   0  0  0  0  0  0  0  0  0  0  0  0
   25.6683  -19.8397  -11.6645 C   0  0  0  0  0  0  0  0  0  0  0  0
   25.5005  -20.7922  -10.4746 C   0  0  0  0  0  0  0  0  0  0  0  0
   24.0708  -20.7310  -10.0220 C   0  0  0  0  0  0  0  0  0  0  0  0
   23.8365  -21.5547   -8.8607 N   0  0  0  0  0  0  0  0  0  0  0  0
   26.6581  -21.0022  -14.3144 C   0  0  0  0  0  0  0  0  0  0  0  0
   25.5654  -20.9451  -14.9415 O   0  0  0  0  0  0  0  0  0  0  0  0
   27.2967  -22.2575  -14.3122 O   0  0  0  0  0  0  0  0  0  0  0  0
  1  2  1  0
  3  2  1  0
  3  5  1  0
  4  3  2  0
  6  5  1  0
  7  9  1  0
  7  6  1  0
  8  7  2  0
 10  9  1  0
 10 16  1  0
 10 11  1  1
 12 11  1  0
 13 14  1  0
 13 12  1  0
 14 15  1  0
 16 17  2  0
 16 18  1  0
M  END
$$$$
