GGK.pdb
     RDKit          3D

 18 17  0  0  1  0  0  0  0  0999 V2000
   26.4688  -22.2351  -15.2855 N   0  0  0  0  0  0  0  0  0  0  0  0
   25.1112  -22.2726  -14.8338 C   0  0  0  0  0  0  0  0  0  0  0  0
   24.5888  -20.9058  -14.5542 C   0  0  0  0  0  0  0  0  0  0  0  0
   24.4997  -20.4470  -13.3901 O   0  0  0  0  0  0  0  0  0  0  0  0
   24.1840  -20.1130  -15.6552 N   0  0  0  0  0  0  0  0  0  0  0  0
   23.7295  -18.7396  -15.4402 C   0  0  0  0  0  0  0  0  0  0  0  0
   22.3398  -18.6170  -15.9581 C   0  0  0  0  0  0  0  0  0  0  0  0
   22.0847  -18.4949  -17.1944 O   0  0  0  0  0  0  0  0  0  0  0  0
   21.2320  -18.6327  -15.0706 N   0  0  0  0  0  0  0  0  0  0  0  0
   19.8648  -18.5460  -15.5780 C   0  0  1  0  0  0  0  0  0  0  0  0
   18.9544  -19.3292  -14.6920 C   0  0  0  0  0  0  0  0  0  0  0  0
   19.0341  -20.8109  -14.8633 C   0  0  0  0  0  0  0  0  0  0  0  0
   19.0422  -21.5011  -13.4940 C   0  0  0  0  0  0  0  0  0  0  0  0
   17.9983  -22.5795  -13.5056 C   0  0  0  0  0  0  0  0  0  0  0  0
   18.5687  -23.8853  -13.2790 N   0  0  0  0  0  0  0  0  0  0  0  0
   19.5232  -17.1212  -15.7128 C   0  0  0  0  0  0  0  0  0  0  0  0
   20.0197  -16.2204  -14.9831 O   0  0  0  0  0  0  0  0  0  0  0  0
   18.6039  -16.6823  -16.6854 O   0  0  0  0  0  0  0  0  0  0  0  0
  1  2  1  0
  3  2  1  0
  3  5  1  0
  4  3  2  0
  6  5  1  0
  7  9  1  0
  7  6  1  0
  8  7  2  0
 10  9  1  0
 10 16  1  0
 10 11  1  1
 12 11  1  0
 13 14  1  0
 13 12  1  0
 14 15  1  0
 16 17  2  0
 16 18  1  0
M  END
$$$$
