GGK.pdb
     RDKit          3D

 18 17  0  0  1  0  0  0  0  0999 V2000
   17.5147  -14.1168  -16.5007 N   0  0  0  0  0  0  0  0  0  0  0  0
   18.2659  -13.0611  -17.1088 C   0  0  0  0  0  0  0  0  0  0  0  0
   19.2045  -12.4284  -16.1404 C   0  0  0  0  0  0  0  0  0  0  0  0
   18.9725  -12.3910  -14.9082 O   0  0  0  0  0  0  0  0  0  0  0  0
   20.3947  -11.8548  -16.6493 N   0  0  0  0  0  0  0  0  0  0  0  0
   21.3498  -11.2231  -15.7396 C   0  0  0  0  0  0  0  0  0  0  0  0
   21.4411   -9.7778  -16.0820 C   0  0  0  0  0  0  0  0  0  0  0  0
   21.5670   -9.3701  -17.2763 O   0  0  0  0  0  0  0  0  0  0  0  0
   21.3897   -8.7880  -15.0658 N   0  0  0  0  0  0  0  0  0  0  0  0
   21.3669   -7.3671  -15.4050 C   0  0  1  0  0  0  0  0  0  0  0  0
   20.0888   -7.0427  -16.1041 C   0  0  0  0  0  0  0  0  0  0  0  0
   18.8637   -7.1596  -15.2576 C   0  0  0  0  0  0  0  0  0  0  0  0
   17.6406   -6.6430  -16.0246 C   0  0  0  0  0  0  0  0  0  0  0  0
   16.4486   -6.7224  -15.1160 C   0  0  0  0  0  0  0  0  0  0  0  0
   15.2419   -6.2748  -15.7684 N   0  0  0  0  0  0  0  0  0  0  0  0
   21.6081   -6.6046  -14.1699 C   0  0  0  0  0  0  0  0  0  0  0  0
   21.7518   -5.3519  -14.1491 O   0  0  0  0  0  0  0  0  0  0  0  0
   21.6925   -7.2504  -12.9211 O   0  0  0  0  0  0  0  0  0  0  0  0
  1  2  1  0
  3  2  1  0
  3  5  1  0
  4  3  2  0
  6  5  1  0
  7  9  1  0
  7  6  1  0
  8  7  2  0
 10  9  1  0
 10 16  1  0
 10 11  1  1
 12 11  1  0
 13 14  1  0
 13 12  1  0
 14 15  1  0
 16 17  2  0
 16 18  1  0
M  END
$$$$
