RAV.pdb
     RDKit          3D

 24 23  0  0  1  0  0  0  0  0999 V2000
   10.3635  -13.6082   18.7883 N   0  0  0  0  0  0  0  0  0  0  0  0
    9.0553  -13.0481   18.9593 C   0  0  0  0  0  0  0  0  0  0  0  0
    8.8927  -11.7635   18.9982 N   0  0  0  0  0  0  0  0  0  0  0  0
    7.8973  -13.8592   19.0992 N   0  0  0  0  0  0  0  0  0  0  0  0
    7.9353  -15.3038   19.1352 C   0  0  0  0  0  0  0  0  0  0  0  0
    6.5636  -15.9017   19.2448 C   0  0  0  0  0  0  0  0  0  0  0  0
    6.1445  -16.2199   20.6313 C   0  0  0  0  0  0  0  0  0  0  0  0
    6.4940  -17.5710   21.1477 C   0  0  2  0  0  0  0  0  0  0  0  0
    6.0358  -18.6826   20.3674 N   0  0  0  0  0  0  0  0  0  0  0  0
    6.1728  -17.8079   22.5694 C   0  0  0  0  0  0  0  0  0  0  0  0
    4.9557  -17.9509   22.8884 O   0  0  0  0  0  0  0  0  0  0  0  0
    7.9621  -11.3422   19.1305 C   0  0  0  0  0  0  0  0  0  0  0  0
    7.1649  -18.6009   25.9237 C   0  0  1  0  0  0  0  0  0  0  0  0
    6.9532  -17.5223   24.9313 N   0  0  0  0  0  0  0  0  0  0  0  0
    7.1884  -17.8751   23.5592 C   0  0  0  0  0  0  0  0  0  0  0  0
    7.7200  -16.2863   25.3120 O   0  0  0  0  0  0  0  0  0  0  0  0
    8.6185  -15.8079   24.5570 C   0  0  0  0  0  0  0  0  0  0  0  0
    7.8887  -12.0277   27.6673 C   0  0  2  0  0  0  0  0  0  0  0  0
    7.1868  -13.2708   27.2056 C   0  0  0  0  0  0  0  0  0  0  0  0
    6.3282  -12.9826   26.0064 C   0  0  1  0  0  0  0  0  0  0  0  0
    8.2078  -14.3526   26.8688 N   0  0  0  0  0  0  0  0  0  0  0  0
    7.4919  -15.5795   26.5222 C   0  0  0  0  0  0  0  0  0  0  0  0
    9.2250  -14.5241   27.8945 O   0  0  0  0  0  0  0  0  0  0  0  0
   10.3736  -13.7403   27.9632 O   0  0  0  0  0  0  0  0  0  0  0  0
  2  1  1  0
  2  3  2  0
  4  2  1  0
  5  4  1  0
  6  5  1  0
  7  6  1  0
  8 10  1  0
  8  7  1  0
  8  9  1  6
 10 11  2  0
 13 12  1  6
 14 10  1  0
 14 13  1  0
 15 21  1  0
 15 13  1  0
 16 15  2  0
 18 20  1  0
 18 17  1  1
 19 18  1  0
 20 22  1  0
 20 21  1  1
 22 23  1  0
 24 22  2  0
M  END
$$$$
