RAV.pdb
     RDKit          3D

 24 23  0  0  1  0  0  0  0  0999 V2000
    9.5066  -14.7248   17.3940 N   0  0  0  0  0  0  0  0  0  0  0  0
    8.3695  -13.8880   17.6415 C   0  0  0  0  0  0  0  0  0  0  0  0
    7.7810  -13.2762   16.6630 N   0  0  0  0  0  0  0  0  0  0  0  0
    7.8479  -13.6873   18.9477 N   0  0  0  0  0  0  0  0  0  0  0  0
    7.9487  -14.6669   20.0058 C   0  0  0  0  0  0  0  0  0  0  0  0
    7.8934  -16.0716   19.4814 C   0  0  0  0  0  0  0  0  0  0  0  0
    8.1904  -17.1140   20.4936 C   0  0  0  0  0  0  0  0  0  0  0  0
    7.0283  -17.8388   21.0756 C   0  0  2  0  0  0  0  0  0  0  0  0
    5.8504  -17.8995   20.2612 N   0  0  0  0  0  0  0  0  0  0  0  0
    6.6533  -17.4366   22.4461 C   0  0  0  0  0  0  0  0  0  0  0  0
    5.7290  -16.5818   22.5832 O   0  0  0  0  0  0  0  0  0  0  0  0
    6.9424  -12.6981   16.8160 C   0  0  0  0  0  0  0  0  0  0  0  0
    7.1652  -18.5817   25.9806 C   0  0  1  0  0  0  0  0  0  0  0  0
    7.0002  -17.5587   24.9227 N   0  0  0  0  0  0  0  0  0  0  0  0
    7.3018  -17.9835   23.5845 C   0  0  0  0  0  0  0  0  0  0  0  0
    7.7461  -16.3010   25.2729 O   0  0  0  0  0  0  0  0  0  0  0  0
    8.9548  -16.1332   24.9308 C   0  0  0  0  0  0  0  0  0  0  0  0
    7.6585  -11.6844   27.1178 C   0  0  2  0  0  0  0  0  0  0  0  0
    6.9192  -12.9428   26.7701 C   0  0  0  0  0  0  0  0  0  0  0  0
    5.9741  -12.7058   25.6261 C   0  0  1  0  0  0  0  0  0  0  0  0
    7.9079  -14.0470   26.4102 N   0  0  0  0  0  0  0  0  0  0  0  0
    7.1564  -15.2309   25.9963 C   0  0  0  0  0  0  0  0  0  0  0  0
    8.8939  -14.2987   27.4499 O   0  0  0  0  0  0  0  0  0  0  0  0
   10.1622  -13.7247   27.4483 O   0  0  0  0  0  0  0  0  0  0  0  0
  2  1  1  0
  2  3  2  0
  4  2  1  0
  5  4  1  0
  6  5  1  0
  7  6  1  0
  8 10  1  0
  8  7  1  0
  8  9  1  6
 10 11  2  0
 13 12  1  6
 14 10  1  0
 14 13  1  0
 15 21  1  0
 15 13  1  0
 16 15  2  0
 18 20  1  0
 18 17  1  1
 19 18  1  0
 20 22  1  0
 20 21  1  1
 22 23  1  0
 24 22  2  0
M  END
$$$$
