RAV.pdb
     RDKit          3D

 24 23  0  0  1  0  0  0  0  0999 V2000
    9.1706  -14.7964   13.8344 N   0  0  0  0  0  0  0  0  0  0  0  0
    8.3325  -14.2026   14.8341 C   0  0  0  0  0  0  0  0  0  0  0  0
    7.1942  -13.6776   14.5072 N   0  0  0  0  0  0  0  0  0  0  0  0
    8.7061  -14.1554   16.2040 N   0  0  0  0  0  0  0  0  0  0  0  0
    8.2241  -15.0912   17.1947 C   0  0  0  0  0  0  0  0  0  0  0  0
    7.2449  -14.4585   18.1391 C   0  0  0  0  0  0  0  0  0  0  0  0
    7.8443  -13.9706   19.4048 C   0  0  0  0  0  0  0  0  0  0  0  0
    8.4786  -14.9881   20.2862 C   0  0  2  0  0  0  0  0  0  0  0  0
    8.5830  -16.3122   19.7476 N   0  0  0  0  0  0  0  0  0  0  0  0
    7.9390  -15.0612   21.6588 C   0  0  0  0  0  0  0  0  0  0  0  0
    7.5158  -13.9920   22.1893 O   0  0  0  0  0  0  0  0  0  0  0  0
    6.5575  -13.2875   15.2167 C   0  0  0  0  0  0  0  0  0  0  0  0
    7.2946  -17.7370   24.2868 C   0  0  2  0  0  0  0  0  0  0  0  0
    7.4280  -16.3711   23.7306 N   0  0  0  0  0  0  0  0  0  0  0  0
    7.8909  -16.2869   22.3738 C   0  0  0  0  0  0  0  0  0  0  0  0
    8.2518  -15.5010   24.6390 O   0  0  0  0  0  0  0  0  0  0  0  0
    9.5067  -15.3980   24.4953 C   0  0  0  0  0  0  0  0  0  0  0  0
    7.4142  -11.8875   25.4958 C   0  0  2  0  0  0  0  0  0  0  0  0
    7.6932  -12.5795   26.7975 C   0  0  0  0  0  0  0  0  0  0  0  0
    6.4122  -12.8985   27.5156 C   0  0  2  0  0  0  0  0  0  0  0  0
    8.4852  -13.8592   26.5496 N   0  0  0  0  0  0  0  0  0  0  0  0
    7.6893  -14.7447   25.7011 C   0  0  0  0  0  0  0  0  0  0  0  0
    8.9720  -14.4811   27.7713 O   0  0  0  0  0  0  0  0  0  0  0  0
    9.9959  -13.9390   28.5433 O   0  0  0  0  0  0  0  0  0  0  0  0
  2  1  1  0
  2  3  2  0
  4  2  1  0
  5  4  1  0
  6  5  1  0
  7  6  1  0
  8 10  1  0
  8  7  1  0
  8  9  1  6
 10 11  2  0
 13 12  1  6
 14 10  1  0
 14 13  1  0
 15 21  1  0
 15 13  1  0
 16 15  2  0
 18 20  1  0
 18 17  1  1
 19 18  1  0
 20 22  1  0
 20 21  1  1
 22 23  1  0
 24 22  2  0
M  END
$$$$
