CPK.pdb
     RDKit          3D

 23 23  0  0  1  0  0  0  0  0999 V2000
   25.1054  -20.4324   -9.9841 N   0  0  0  0  0  0  0  0  0  0  0  0
   26.0694  -20.3016  -11.0276 C   0  0  1  0  0  0  0  0  0  0  0  0
   26.9361  -21.5641  -11.0797 C   0  0  0  0  0  0  0  0  0  0  0  0
   28.2782  -21.4498   -9.8719 S   0  0  0  0  0  0  0  0  0  0  0  0
   25.5442  -20.0014  -12.3569 C   0  0  0  0  0  0  0  0  0  0  0  0
   24.3090  -20.0709  -12.5297 O   0  0  0  0  0  0  0  0  0  0  0  0
   26.3518  -19.6282  -13.4940 N   0  0  0  0  0  0  0  0  0  0  0  0
   27.6894  -19.0968  -13.3468 C   0  0  0  0  0  0  0  0  0  0  0  0
   28.1234  -18.6902  -14.7373 C   0  0  0  0  0  0  0  0  0  0  0  0
   27.2938  -19.5725  -15.6424 C   0  0  0  0  0  0  0  0  0  0  0  0
   26.0045  -19.6731  -14.8734 C   0  0  1  0  0  0  0  0  0  0  0  0
   25.2426  -20.8851  -15.2866 C   0  0  0  0  0  0  0  0  0  0  0  0
   25.4250  -22.0346  -14.8848 O   0  0  0  0  0  0  0  0  0  0  0  0
   24.2027  -20.6832  -16.2409 N   0  0  0  0  0  0  0  0  0  0  0  0
   23.0265  -21.4982  -16.3296 C   0  0  1  0  0  0  0  0  0  0  0  0
   22.3088  -21.6898  -15.0343 C   0  0  0  0  0  0  0  0  0  0  0  0
   21.1144  -22.5670  -15.0545 C   0  0  0  0  0  0  0  0  0  0  0  0
   19.8868  -21.9268  -14.4565 C   0  0  0  0  0  0  0  0  0  0  0  0
   18.7317  -22.9234  -14.4909 C   0  0  0  0  0  0  0  0  0  0  0  0
   17.5773  -22.3682  -13.8019 N   0  0  0  0  0  0  0  0  0  0  0  0
   22.1495  -21.1147  -17.4628 C   0  0  0  0  0  0  0  0  0  0  0  0
   21.5171  -22.0942  -18.2265 O   0  0  0  0  0  0  0  0  0  0  0  0
   21.9399  -19.9173  -17.7782 O   0  0  0  0  0  0  0  0  0  0  0  0
  2  5  1  0
  2  3  1  0
  2  1  1  1
  3  4  1  0
  5  6  2  0
  7 11  1  0
  7  5  1  0
  8  7  1  0
  9 10  1  0
  9  8  1  0
 10 11  1  0
 11 12  1  1
 12 13  2  0
 12 14  1  0
 14 15  1  0
 15 21  1  0
 16 17  1  0
 15 16  1  1
 18 19  1  0
 18 17  1  0
 20 19  1  0
 21 23  2  0
 21 22  1  0
M  END
$$$$
