CPK.pdb
     RDKit          3D

 23 23  0  0  1  0  0  0  0  0999 V2000
   23.6243  -19.5231  -10.6473 N   0  0  0  0  0  0  0  0  0  0  0  0
   24.8910  -20.0527  -11.0349 C   0  0  1  0  0  0  0  0  0  0  0  0
   24.9997  -21.5064  -10.5631 C   0  0  0  0  0  0  0  0  0  0  0  0
   25.1325  -21.5689   -8.7599 S   0  0  0  0  0  0  0  0  0  0  0  0
   25.2206  -19.9628  -12.4549 C   0  0  0  0  0  0  0  0  0  0  0  0
   24.2806  -19.8498  -13.2698 O   0  0  0  0  0  0  0  0  0  0  0  0
   26.5609  -19.9952  -12.9906 N   0  0  0  0  0  0  0  0  0  0  0  0
   27.7300  -19.8691  -12.1475 C   0  0  0  0  0  0  0  0  0  0  0  0
   28.9088  -19.7921  -13.0917 C   0  0  0  0  0  0  0  0  0  0  0  0
   28.4172  -20.4984  -14.3347 C   0  0  0  0  0  0  0  0  0  0  0  0
   26.9629  -20.1128  -14.3506 C   0  0  1  0  0  0  0  0  0  0  0  0
   26.1724  -21.0876  -15.1536 C   0  0  0  0  0  0  0  0  0  0  0  0
   25.5308  -22.0434  -14.7167 O   0  0  0  0  0  0  0  0  0  0  0  0
   26.1647  -20.8851  -16.5649 N   0  0  0  0  0  0  0  0  0  0  0  0
   25.0046  -21.0469  -17.3918 C   0  0  1  0  0  0  0  0  0  0  0  0
   23.7613  -20.4325  -16.8385 C   0  0  0  0  0  0  0  0  0  0  0  0
   22.8656  -21.3202  -16.0598 C   0  0  0  0  0  0  0  0  0  0  0  0
   21.6109  -20.6367  -15.5772 C   0  0  0  0  0  0  0  0  0  0  0  0
   20.7650  -21.6338  -14.7906 C   0  0  0  0  0  0  0  0  0  0  0  0
   19.5442  -20.9920  -14.3284 N   0  0  0  0  0  0  0  0  0  0  0  0
   25.2667  -20.7192  -18.8146 C   0  0  0  0  0  0  0  0  0  0  0  0
   25.8153  -19.4865  -19.1637 O   0  0  0  0  0  0  0  0  0  0  0  0
   25.0137  -21.5196  -19.7488 O   0  0  0  0  0  0  0  0  0  0  0  0
  2  5  1  0
  2  3  1  0
  2  1  1  6
  3  4  1  0
  5  6  2  0
  7 11  1  0
  7  5  1  0
  8  7  1  0
  9 10  1  0
  9  8  1  0
 10 11  1  0
 11 12  1  1
 12 13  2  0
 12 14  1  0
 14 15  1  0
 15 21  1  0
 16 17  1  0
 15 16  1  1
 18 19  1  0
 18 17  1  0
 20 19  1  0
 21 23  2  0
 21 22  1  0
M  END
$$$$
