CPK.pdb
     RDKit          3D

 23 23  0  0  1  0  0  0  0  0999 V2000
   27.6596  -20.0618  -16.7351 N   0  0  0  0  0  0  0  0  0  0  0  0
   27.2257  -19.5327  -15.4833 C   0  0  1  0  0  0  0  0  0  0  0  0
   26.8312  -18.0630  -15.6624 C   0  0  0  0  0  0  0  0  0  0  0  0
   28.3007  -17.0098  -15.5956 S   0  0  0  0  0  0  0  0  0  0  0  0
   26.1509  -20.2600  -14.8133 C   0  0  0  0  0  0  0  0  0  0  0  0
   25.0989  -20.4729  -15.4522 O   0  0  0  0  0  0  0  0  0  0  0  0
   26.2141  -20.7543  -13.4583 N   0  0  0  0  0  0  0  0  0  0  0  0
   27.4649  -20.8770  -12.7413 C   0  0  0  0  0  0  0  0  0  0  0  0
   27.1245  -21.5691  -11.4404 C   0  0  0  0  0  0  0  0  0  0  0  0
   25.6666  -21.2305  -11.2268 C   0  0  0  0  0  0  0  0  0  0  0  0
   25.1462  -21.2154  -12.6385 C   0  0  1  0  0  0  0  0  0  0  0  0
   23.8974  -20.4073  -12.7266 C   0  0  0  0  0  0  0  0  0  0  0  0
   23.8256  -19.1812  -12.8137 O   0  0  0  0  0  0  0  0  0  0  0  0
   22.6712  -21.1346  -12.7073 N   0  0  0  0  0  0  0  0  0  0  0  0
   21.4190  -20.6074  -13.1655 C   0  0  1  0  0  0  0  0  0  0  0  0
   21.4793  -19.9478  -14.5037 C   0  0  0  0  0  0  0  0  0  0  0  0
   20.2084  -19.4066  -15.0408 C   0  0  0  0  0  0  0  0  0  0  0  0
   20.3422  -18.8115  -16.4201 C   0  0  0  0  0  0  0  0  0  0  0  0
   19.0005  -18.2232  -16.8470 C   0  0  0  0  0  0  0  0  0  0  0  0
   19.0995  -17.6917  -18.1974 N   0  0  0  0  0  0  0  0  0  0  0  0
   20.3018  -21.5706  -13.0091 C   0  0  0  0  0  0  0  0  0  0  0  0
   20.4197  -22.8708  -13.4970 O   0  0  0  0  0  0  0  0  0  0  0  0
   19.2236  -21.2665  -12.4416 O   0  0  0  0  0  0  0  0  0  0  0  0
  2  5  1  0
  2  3  1  0
  2  1  1  6
  3  4  1  0
  5  6  2  0
  7 11  1  0
  7  5  1  0
  8  7  1  0
  9 10  1  0
  9  8  1  0
 10 11  1  0
 11 12  1  1
 12 13  2  0
 12 14  1  0
 14 15  1  0
 15 21  1  0
 16 17  1  0
 15 16  1  6
 18 19  1  0
 18 17  1  0
 20 19  1  0
 21 23  2  0
 21 22  1  0
M  END
$$$$
