CPK.pdb
     RDKit          3D

 23 23  0  0  1  0  0  0  0  0999 V2000
   21.2916  -19.3841  -14.0435 N   0  0  0  0  0  0  0  0  0  0  0  0
   21.8666  -20.4262  -13.2570 C   0  0  1  0  0  0  0  0  0  0  0  0
   21.2121  -21.7615  -13.6264 C   0  0  0  0  0  0  0  0  0  0  0  0
   19.6912  -21.9954  -12.6750 S   0  0  0  0  0  0  0  0  0  0  0  0
   23.3206  -20.5502  -13.3142 C   0  0  0  0  0  0  0  0  0  0  0  0
   23.8723  -20.4793  -14.4326 O   0  0  0  0  0  0  0  0  0  0  0  0
   24.1737  -20.7502  -12.1667 N   0  0  0  0  0  0  0  0  0  0  0  0
   23.7066  -20.5371  -10.8140 C   0  0  0  0  0  0  0  0  0  0  0  0
   24.9243  -20.6946   -9.9312 C   0  0  0  0  0  0  0  0  0  0  0  0
   25.8390  -21.5858  -10.7404 C   0  0  0  0  0  0  0  0  0  0  0  0
   25.5444  -21.1321  -12.1443 C   0  0  1  0  0  0  0  0  0  0  0  0
   25.9136  -22.1919  -13.1245 C   0  0  0  0  0  0  0  0  0  0  0  0
   25.4788  -23.3434  -13.1533 O   0  0  0  0  0  0  0  0  0  0  0  0
   26.8641  -21.8265  -14.1224 N   0  0  0  0  0  0  0  0  0  0  0  0
   27.0117  -22.5062  -15.3762 C   0  0  1  0  0  0  0  0  0  0  0  0
   25.7299  -22.9857  -15.9734 C   0  0  0  0  0  0  0  0  0  0  0  0
   25.4954  -24.4491  -15.9680 C   0  0  0  0  0  0  0  0  0  0  0  0
   24.1636  -24.8479  -16.5525 C   0  0  0  0  0  0  0  0  0  0  0  0
   24.0298  -26.3674  -16.5101 C   0  0  0  0  0  0  0  0  0  0  0  0
   22.7235  -26.7641  -17.0122 N   0  0  0  0  0  0  0  0  0  0  0  0
   27.8907  -21.7761  -16.3221 C   0  0  0  0  0  0  0  0  0  0  0  0
   28.9166  -22.4440  -16.9883 O   0  0  0  0  0  0  0  0  0  0  0  0
   27.7533  -20.5511  -16.5620 O   0  0  0  0  0  0  0  0  0  0  0  0
  2  5  1  0
  2  3  1  0
  2  1  1  6
  3  4  1  0
  5  6  2  0
  7 11  1  0
  7  5  1  0
  8  7  1  0
  9 10  1  0
  9  8  1  0
 10 11  1  0
 11 12  1  6
 12 13  2  0
 12 14  1  0
 14 15  1  0
 15 21  1  0
 16 17  1  0
 15 16  1  6
 18 19  1  0
 18 17  1  0
 20 19  1  0
 21 23  2  0
 21 22  1  0
M  END
$$$$
