CPK.pdb
     RDKit          3D

 23 23  0  0  1  0  0  0  0  0999 V2000
   20.2220  -14.2452  -16.4861 N   0  0  0  0  0  0  0  0  0  0  0  0
   21.1409  -13.2861  -17.0068 C   0  0  1  0  0  0  0  0  0  0  0  0
   20.5992  -12.7285  -18.3273 C   0  0  0  0  0  0  0  0  0  0  0  0
   20.4382  -14.0559  -19.5459 S   0  0  0  0  0  0  0  0  0  0  0  0
   21.5040  -12.1894  -16.1134 C   0  0  0  0  0  0  0  0  0  0  0  0
   20.5843  -11.5823  -15.5251 O   0  0  0  0  0  0  0  0  0  0  0  0
   22.8558  -11.7515  -15.8579 N   0  0  0  0  0  0  0  0  0  0  0  0
   24.0052  -12.5564  -16.2105 C   0  0  0  0  0  0  0  0  0  0  0  0
   25.2035  -11.8296  -15.6421 C   0  0  0  0  0  0  0  0  0  0  0  0
   24.7451  -10.3909  -15.5657 C   0  0  0  0  0  0  0  0  0  0  0  0
   23.2882  -10.5518  -15.2261 C   0  0  1  0  0  0  0  0  0  0  0  0
   22.5238   -9.3323  -15.6118 C   0  0  0  0  0  0  0  0  0  0  0  0
   21.9630   -9.1323  -16.6896 O   0  0  0  0  0  0  0  0  0  0  0  0
   22.4394   -8.3022  -14.6296 N   0  0  0  0  0  0  0  0  0  0  0  0
   21.6334   -7.1247  -14.7699 C   0  0  1  0  0  0  0  0  0  0  0  0
   20.1998   -7.3922  -15.0904 C   0  0  0  0  0  0  0  0  0  0  0  0
   19.3105   -6.2131  -15.2141 C   0  0  0  0  0  0  0  0  0  0  0  0
   17.8767   -6.5691  -15.5170 C   0  0  0  0  0  0  0  0  0  0  0  0
   17.0552   -5.2890  -15.6401 C   0  0  0  0  0  0  0  0  0  0  0  0
   15.6969   -5.6093  -16.0503 N   0  0  0  0  0  0  0  0  0  0  0  0
   21.8420   -6.1547  -13.6672 C   0  0  0  0  0  0  0  0  0  0  0  0
   22.0293   -6.6033  -12.3610 O   0  0  0  0  0  0  0  0  0  0  0  0
   21.8606   -4.9132  -13.8555 O   0  0  0  0  0  0  0  0  0  0  0  0
  2  5  1  0
  2  3  1  0
  2  1  1  1
  3  4  1  0
  5  6  2  0
  7 11  1  0
  7  5  1  0
  8  7  1  0
  9 10  1  0
  9  8  1  0
 10 11  1  0
 11 12  1  6
 12 13  2  0
 12 14  1  0
 14 15  1  0
 15 21  1  0
 16 17  1  0
 15 16  1  1
 18 19  1  0
 18 17  1  0
 20 19  1  0
 21 23  2  0
 21 22  1  0
M  END
$$$$
