CPK.pdb
     RDKit          3D

 23 23  0  0  1  0  0  0  0  0999 V2000
   15.8927  -12.6566  -14.2642 N   0  0  0  0  0  0  0  0  0  0  0  0
   15.8910  -11.2397  -14.4307 C   0  0  1  0  0  0  0  0  0  0  0  0
   14.4833  -10.7755  -14.8189 C   0  0  0  0  0  0  0  0  0  0  0  0
   14.3410  -10.6521  -16.6182 S   0  0  0  0  0  0  0  0  0  0  0  0
   16.3805  -10.4567  -13.2992 C   0  0  0  0  0  0  0  0  0  0  0  0
   15.8868  -10.6794  -12.1736 O   0  0  0  0  0  0  0  0  0  0  0  0
   17.3993   -9.4372  -13.3853 N   0  0  0  0  0  0  0  0  0  0  0  0
   18.2778   -9.3218  -14.5291 C   0  0  0  0  0  0  0  0  0  0  0  0
   19.2847   -8.2537  -14.1653 C   0  0  0  0  0  0  0  0  0  0  0  0
   18.5572   -7.4109  -13.1425 C   0  0  0  0  0  0  0  0  0  0  0  0
   17.7363   -8.4456  -12.4219 C   0  0  1  0  0  0  0  0  0  0  0  0
   16.5706   -7.8099  -11.7457 C   0  0  0  0  0  0  0  0  0  0  0  0
   15.5838   -7.3215  -12.2969 O   0  0  0  0  0  0  0  0  0  0  0  0
   16.6116   -7.7682  -10.3212 N   0  0  0  0  0  0  0  0  0  0  0  0
   15.6108   -7.1410   -9.5082 C   0  0  1  0  0  0  0  0  0  0  0  0
   14.7885   -8.0894   -8.6997 C   0  0  0  0  0  0  0  0  0  0  0  0
   13.7119   -7.5007   -7.8684 C   0  0  0  0  0  0  0  0  0  0  0  0
   12.4248   -8.2858   -7.9055 C   0  0  0  0  0  0  0  0  0  0  0  0
   11.3758   -7.5732   -7.0568 C   0  0  0  0  0  0  0  0  0  0  0  0
   10.1064   -8.2783   -7.1426 N   0  0  0  0  0  0  0  0  0  0  0  0
   16.1381   -5.9846   -8.7433 C   0  0  0  0  0  0  0  0  0  0  0  0
   17.4668   -5.9654   -8.3229 O   0  0  0  0  0  0  0  0  0  0  0  0
   15.4285   -4.9916   -8.4474 O   0  0  0  0  0  0  0  0  0  0  0  0
  2  5  1  0
  2  3  1  0
  2  1  1  1
  3  4  1  0
  5  6  2  0
  7 11  1  0
  7  5  1  0
  8  7  1  0
  9 10  1  0
  9  8  1  0
 10 11  1  0
 11 12  1  6
 12 13  2  0
 12 14  1  0
 14 15  1  0
 15 21  1  0
 16 17  1  0
 15 16  1  1
 18 19  1  0
 18 17  1  0
 20 19  1  0
 21 23  2  0
 21 22  1  0
M  END
$$$$
