CPK.pdb
     RDKit          3D

 23 23  0  0  1  0  0  0  0  0999 V2000
   18.8569  -11.1491  -15.8014 N   0  0  0  0  0  0  0  0  0  0  0  0
   18.7671   -9.7374  -15.6165 C   0  0  1  0  0  0  0  0  0  0  0  0
   17.5680   -9.1974  -16.4030 C   0  0  0  0  0  0  0  0  0  0  0  0
   17.5315   -7.3904  -16.3225 S   0  0  0  0  0  0  0  0  0  0  0  0
   18.7085   -9.2703  -14.2340 C   0  0  0  0  0  0  0  0  0  0  0  0
   17.7579   -9.6587  -13.5228 O   0  0  0  0  0  0  0  0  0  0  0  0
   19.6738   -8.3868  -13.6240 N   0  0  0  0  0  0  0  0  0  0  0  0
   20.9017   -8.0106  -14.2904 C   0  0  0  0  0  0  0  0  0  0  0  0
   21.6940   -7.2209  -13.2727 C   0  0  0  0  0  0  0  0  0  0  0  0
   20.6350   -6.6705  -12.3448 C   0  0  0  0  0  0  0  0  0  0  0  0
   19.6273   -7.7878  -12.3339 C   0  0  1  0  0  0  0  0  0  0  0  0
   18.2866   -7.2786  -11.9296 C   0  0  0  0  0  0  0  0  0  0  0  0
   17.4942   -6.6622  -12.6424 O   0  0  0  0  0  0  0  0  0  0  0  0
   17.8923   -7.5357  -10.5838 N   0  0  0  0  0  0  0  0  0  0  0  0
   16.6677   -7.0672  -10.0037 C   0  0  1  0  0  0  0  0  0  0  0  0
   15.6636   -8.1385   -9.7321 C   0  0  0  0  0  0  0  0  0  0  0  0
   14.3400   -7.7026   -9.2274 C   0  0  0  0  0  0  0  0  0  0  0  0
   13.3670   -8.8377   -9.0298 C   0  0  0  0  0  0  0  0  0  0  0  0
   12.0261   -8.2765   -8.5655 C   0  0  0  0  0  0  0  0  0  0  0  0
   11.1114   -9.3658   -8.2614 N   0  0  0  0  0  0  0  0  0  0  0  0
   16.8914   -6.1381   -8.8692 C   0  0  0  0  0  0  0  0  0  0  0  0
   15.9926   -5.1025   -8.6197 O   0  0  0  0  0  0  0  0  0  0  0  0
   17.8773   -6.2401   -8.0981 O   0  0  0  0  0  0  0  0  0  0  0  0
  2  5  1  0
  2  3  1  0
  2  1  1  1
  3  4  1  0
  5  6  2  0
  7 11  1  0
  7  5  1  0
  8  7  1  0
  9 10  1  0
  9  8  1  0
 10 11  1  0
 11 12  1  6
 12 13  2  0
 12 14  1  0
 14 15  1  0
 15 21  1  0
 16 17  1  0
 15 16  1  1
 18 19  1  0
 18 17  1  0
 20 19  1  0
 21 23  2  0
 21 22  1  0
M  END
$$$$
