CPK.pdb
     RDKit          3D

 23 23  0  0  1  0  0  0  0  0999 V2000
   19.8830  -14.1354  -16.2168 N   0  0  0  0  0  0  0  0  0  0  0  0
   20.8531  -13.1243  -16.4848 C   0  0  1  0  0  0  0  0  0  0  0  0
   20.9748  -12.9259  -17.9993 C   0  0  0  0  0  0  0  0  0  0  0  0
   21.6974  -14.3971  -18.7653 S   0  0  0  0  0  0  0  0  0  0  0  0
   20.6416  -11.8370  -15.8282 C   0  0  0  0  0  0  0  0  0  0  0  0
   19.4861  -11.3624  -15.8250 O   0  0  0  0  0  0  0  0  0  0  0  0
   21.6754  -11.0669  -15.1783 N   0  0  0  0  0  0  0  0  0  0  0  0
   22.9630  -11.6354  -14.8430 C   0  0  0  0  0  0  0  0  0  0  0  0
   23.6850  -10.5716  -14.0466 C   0  0  0  0  0  0  0  0  0  0  0  0
   23.0455   -9.2827  -14.5108 C   0  0  0  0  0  0  0  0  0  0  0  0
   21.6225   -9.7133  -14.7421 C   0  0  1  0  0  0  0  0  0  0  0  0
   20.9404   -8.7802  -15.6824 C   0  0  0  0  0  0  0  0  0  0  0  0
   20.6626   -9.0046  -16.8608 O   0  0  0  0  0  0  0  0  0  0  0  0
   20.5780   -7.5055  -15.1563 N   0  0  0  0  0  0  0  0  0  0  0  0
   19.6998   -6.5853  -15.8179 C   0  0  1  0  0  0  0  0  0  0  0  0
   18.4468   -7.2002  -16.3483 C   0  0  0  0  0  0  0  0  0  0  0  0
   17.5451   -6.3173  -17.1255 C   0  0  0  0  0  0  0  0  0  0  0  0
   16.3017   -7.0121  -17.6209 C   0  0  0  0  0  0  0  0  0  0  0  0
   15.4351   -6.0122  -18.3811 C   0  0  0  0  0  0  0  0  0  0  0  0
   14.2545   -6.6791  -18.9074 N   0  0  0  0  0  0  0  0  0  0  0  0
   19.4875   -5.3393  -15.0415 C   0  0  0  0  0  0  0  0  0  0  0  0
   19.7251   -4.0965  -15.6259 O   0  0  0  0  0  0  0  0  0  0  0  0
   19.0915   -5.3464  -13.8498 O   0  0  0  0  0  0  0  0  0  0  0  0
  2  5  1  0
  2  3  1  0
  2  1  1  6
  3  4  1  0
  5  6  2  0
  7 11  1  0
  7  5  1  0
  8  7  1  0
  9 10  1  0
  9  8  1  0
 10 11  1  0
 11 12  1  6
 12 13  2  0
 12 14  1  0
 14 15  1  0
 15 21  1  0
 16 17  1  0
 15 16  1  1
 18 19  1  0
 18 17  1  0
 20 19  1  0
 21 23  2  0
 21 22  1  0
M  END
$$$$
