CPK.pdb
     RDKit          3D

 23 23  0  0  1  0  0  0  0  0999 V2000
   28.3269  -21.7103  -16.6393 N   0  0  0  0  0  0  0  0  0  0  0  0
   28.3990  -20.7020  -15.6326 C   0  0  1  0  0  0  0  0  0  0  0  0
   27.9331  -19.3650  -16.2185 C   0  0  0  0  0  0  0  0  0  0  0  0
   28.0217  -18.0677  -14.9606 S   0  0  0  0  0  0  0  0  0  0  0  0
   27.6836  -20.9788  -14.3899 C   0  0  0  0  0  0  0  0  0  0  0  0
   26.4687  -21.2601  -14.4620 O   0  0  0  0  0  0  0  0  0  0  0  0
   28.2799  -20.9513  -13.0753 N   0  0  0  0  0  0  0  0  0  0  0  0
   29.7133  -20.9214  -12.8808 C   0  0  0  0  0  0  0  0  0  0  0  0
   29.9268  -21.0592  -11.3900 C   0  0  0  0  0  0  0  0  0  0  0  0
   28.6409  -20.5318  -10.7950 C   0  0  0  0  0  0  0  0  0  0  0  0
   27.6267  -20.9816  -11.8113 C   0  0  1  0  0  0  0  0  0  0  0  0
   26.3947  -20.1479  -11.7247 C   0  0  0  0  0  0  0  0  0  0  0  0
   26.2683  -18.9885  -12.1195 O   0  0  0  0  0  0  0  0  0  0  0  0
   25.2567  -20.7621  -11.1243 N   0  0  0  0  0  0  0  0  0  0  0  0
   23.9104  -20.3016  -11.3008 C   0  0  1  0  0  0  0  0  0  0  0  0
   23.4557  -20.2531  -12.7223 C   0  0  0  0  0  0  0  0  0  0  0  0
   22.9620  -21.5207  -13.3105 C   0  0  0  0  0  0  0  0  0  0  0  0
   22.5459  -21.3929  -14.7544 C   0  0  0  0  0  0  0  0  0  0  0  0
   22.0170  -22.7369  -15.2468 C   0  0  0  0  0  0  0  0  0  0  0  0
   21.4472  -22.5881  -16.5768 N   0  0  0  0  0  0  0  0  0  0  0  0
   22.9553  -20.9597  -10.3762 C   0  0  0  0  0  0  0  0  0  0  0  0
   21.6349  -20.5206  -10.2981 O   0  0  0  0  0  0  0  0  0  0  0  0
   23.2843  -21.9218   -9.6391 O   0  0  0  0  0  0  0  0  0  0  0  0
  2  5  1  0
  2  3  1  0
  2  1  1  6
  3  4  1  0
  5  6  2  0
  7 11  1  0
  7  5  1  0
  8  7  1  0
  9 10  1  0
  9  8  1  0
 10 11  1  0
 11 12  1  6
 12 13  2  0
 12 14  1  0
 14 15  1  0
 15 21  1  0
 16 17  1  0
 15 16  1  6
 18 19  1  0
 18 17  1  0
 20 19  1  0
 21 23  2  0
 21 22  1  0
M  END
$$$$
