VDA.pdb
     RDKit          3D

 21 20  0  0  1  0  0  0  0  0999 V2000
    8.1961  -12.6649   21.7264 C   0  0  0  0  0  0  0  0  0  0  0  0
    7.7206  -13.4902   20.5625 C   0  0  1  0  0  0  0  0  0  0  0  0
    7.8018  -12.7163   19.2791 C   0  0  0  0  0  0  0  0  0  0  0  0
    8.4020  -14.8346   20.4920 C   0  0  2  0  0  0  0  0  0  0  0  0
    7.8986  -15.5447   19.3561 N   0  0  0  0  0  0  0  0  0  0  0  0
    8.3473  -15.5812   21.7514 C   0  0  0  0  0  0  0  0  0  0  0  0
    7.2585  -16.0790   22.1065 O   0  0  0  0  0  0  0  0  0  0  0  0
    9.4502  -15.7930   22.6237 N   0  0  0  0  0  0  0  0  0  0  0  0
    9.3914  -16.4507   23.8758 C   0  0  1  0  0  0  0  0  0  0  0  0
    9.9895  -17.8207   23.9160 C   0  0  0  0  0  0  0  0  0  0  0  0
   10.8215  -18.0842   25.0920 C   0  0  0  0  0  0  0  0  0  0  0  0
   10.4440  -17.6469   26.2052 O   0  0  0  0  0  0  0  0  0  0  0  0
    9.9472  -15.5870   24.9283 C   0  0  0  0  0  0  0  0  0  0  0  0
   11.1668  -15.2924   24.8983 O   0  0  0  0  0  0  0  0  0  0  0  0
   12.0084  -18.7983   25.0162 O   0  0  0  0  0  0  0  0  0  0  0  0
    8.5998  -13.2305   27.4955 C   0  0  0  0  0  0  0  0  0  0  0  0
    9.7114  -14.1634   27.0028 C   0  0  2  0  0  0  0  0  0  0  0  0
    9.1829  -15.0509   26.0008 N   0  0  0  0  0  0  0  0  0  0  0  0
   10.2424  -14.8976   28.1777 C   0  0  0  0  0  0  0  0  0  0  0  0
   10.1393  -16.2622   28.3284 O   0  0  0  0  0  0  0  0  0  0  0  0
   10.8156  -14.2390   29.0813 O   0  0  0  0  0  0  0  0  0  0  0  0
  2  1  1  1
  2  4  1  0
  3  2  1  0
  4  5  1  6
  4  6  1  0
  6  8  1  0
  7  6  2  0
  8  9  1  0
  9 10  1  6
  9 13  1  0
 10 11  1  0
 11 15  1  0
 12 11  2  0
 13 18  1  0
 13 14  2  0
 17 16  1  1
 18 17  1  0
 19 17  1  0
 19 20  1  0
 21 19  2  0
M  END
$$$$
