VDA.pdb
     RDKit          3D

 21 20  0  0  1  0  0  0  0  0999 V2000
    8.7350  -12.9724   20.7023 C   0  0  0  0  0  0  0  0  0  0  0  0
    7.7825  -13.5809   19.7102 C   0  0  1  0  0  0  0  0  0  0  0  0
    7.3194  -12.5640   18.7082 C   0  0  0  0  0  0  0  0  0  0  0  0
    8.3329  -14.8347   19.0763 C   0  0  2  0  0  0  0  0  0  0  0  0
    7.3420  -15.3773   18.1979 N   0  0  0  0  0  0  0  0  0  0  0  0
    8.8748  -15.7881   20.0478 C   0  0  0  0  0  0  0  0  0  0  0  0
    8.0863  -16.5548   20.6392 O   0  0  0  0  0  0  0  0  0  0  0  0
   10.2504  -15.9192   20.3833 N   0  0  0  0  0  0  0  0  0  0  0  0
   10.7883  -16.8701   21.2835 C   0  0  1  0  0  0  0  0  0  0  0  0
   12.0959  -17.4742   20.8819 C   0  0  0  0  0  0  0  0  0  0  0  0
   12.5823  -18.5204   21.7839 C   0  0  0  0  0  0  0  0  0  0  0  0
   11.7450  -19.2647   22.3475 O   0  0  0  0  0  0  0  0  0  0  0  0
   10.8473  -16.3061   22.6405 C   0  0  0  0  0  0  0  0  0  0  0  0
   11.7125  -15.4363   22.9051 O   0  0  0  0  0  0  0  0  0  0  0  0
   13.9328  -18.7147   22.0347 O   0  0  0  0  0  0  0  0  0  0  0  0
    8.6086  -15.6807   25.4323 C   0  0  0  0  0  0  0  0  0  0  0  0
   10.0168  -16.1228   25.0200 C   0  0  2  0  0  0  0  0  0  0  0  0
    9.9739  -16.6857   23.6964 N   0  0  0  0  0  0  0  0  0  0  0  0
   10.5001  -17.0983   26.0282 C   0  0  0  0  0  0  0  0  0  0  0  0
   10.8051  -16.7575   27.3268 O   0  0  0  0  0  0  0  0  0  0  0  0
   10.6379  -18.2970   25.6777 O   0  0  0  0  0  0  0  0  0  0  0  0
  2  1  1  6
  2  4  1  0
  3  2  1  0
  4  5  1  1
  4  6  1  0
  6  8  1  0
  7  6  2  0
  8  9  1  0
  9 10  1  6
  9 13  1  0
 10 11  1  0
 11 15  1  0
 12 11  2  0
 13 18  1  0
 13 14  2  0
 17 16  1  1
 18 17  1  0
 19 17  1  0
 19 20  1  0
 21 19  2  0
M  END
$$$$
