VDA.pdb
     RDKit          3D

 21 20  0  0  1  0  0  0  0  0999 V2000
    8.1514  -12.2199   18.9434 C   0  0  0  0  0  0  0  0  0  0  0  0
    8.4133  -13.2976   19.9592 C   0  0  1  0  0  0  0  0  0  0  0  0
    7.3077  -13.3694   20.9717 C   0  0  0  0  0  0  0  0  0  0  0  0
    8.7244  -14.6289   19.3208 C   0  0  2  0  0  0  0  0  0  0  0  0
    7.6214  -15.0087   18.4918 N   0  0  0  0  0  0  0  0  0  0  0  0
    9.1451  -15.6511   20.2823 C   0  0  0  0  0  0  0  0  0  0  0  0
    8.3251  -16.5302   20.6199 O   0  0  0  0  0  0  0  0  0  0  0  0
   10.4340  -15.7309   20.8776 N   0  0  0  0  0  0  0  0  0  0  0  0
   10.8448  -16.7070   21.8169 C   0  0  1  0  0  0  0  0  0  0  0  0
   12.2735  -17.1378   21.7198 C   0  0  0  0  0  0  0  0  0  0  0  0
   12.6525  -18.1952   22.6594 C   0  0  0  0  0  0  0  0  0  0  0  0
   11.8232  -19.1022   22.9096 O   0  0  0  0  0  0  0  0  0  0  0  0
   10.5021  -16.2741   23.1800 C   0  0  0  0  0  0  0  0  0  0  0  0
   11.2962  -15.5289   23.8038 O   0  0  0  0  0  0  0  0  0  0  0  0
   13.8931  -18.2270   23.2795 O   0  0  0  0  0  0  0  0  0  0  0  0
    7.5127  -16.4618   25.4766 C   0  0  0  0  0  0  0  0  0  0  0  0
    9.0172  -16.3152   25.2243 C   0  0  2  0  0  0  0  0  0  0  0  0
    9.3081  -16.6490   23.8551 N   0  0  0  0  0  0  0  0  0  0  0  0
    9.7266  -17.2013   26.1799 C   0  0  0  0  0  0  0  0  0  0  0  0
   10.5463  -18.2359   25.7886 O   0  0  0  0  0  0  0  0  0  0  0  0
    9.5705  -16.9959   27.4096 O   0  0  0  0  0  0  0  0  0  0  0  0
  2  1  1  6
  2  4  1  0
  3  2  1  0
  4  5  1  1
  4  6  1  0
  6  8  1  0
  7  6  2  0
  8  9  1  0
  9 10  1  1
  9 13  1  0
 10 11  1  0
 11 15  1  0
 12 11  2  0
 13 18  1  0
 13 14  2  0
 17 16  1  6
 18 17  1  0
 19 17  1  0
 19 20  1  0
 21 19  2  0
M  END
$$$$
