VDA.pdb
     RDKit          3D

 21 20  0  0  1  0  0  0  0  0999 V2000
    7.9894  -12.2625   18.6948 C   0  0  0  0  0  0  0  0  0  0  0  0
    8.4470  -13.3157   19.6660 C   0  0  1  0  0  0  0  0  0  0  0  0
    7.4869  -13.4519   20.8115 C   0  0  0  0  0  0  0  0  0  0  0  0
    8.7581  -14.6281   18.9895 C   0  0  2  0  0  0  0  0  0  0  0  0
    7.5997  -15.0574   18.2672 N   0  0  0  0  0  0  0  0  0  0  0  0
    9.3176  -15.6325   19.8976 C   0  0  0  0  0  0  0  0  0  0  0  0
    8.5513  -16.4832   20.3960 O   0  0  0  0  0  0  0  0  0  0  0  0
   10.6871  -15.7249   20.2691 N   0  0  0  0  0  0  0  0  0  0  0  0
   11.2233  -16.6418   21.2048 C   0  0  1  0  0  0  0  0  0  0  0  0
   12.6480  -17.0368   20.9804 C   0  0  0  0  0  0  0  0  0  0  0  0
   13.1549  -18.0369   21.9225 C   0  0  0  0  0  0  0  0  0  0  0  0
   14.1755  -17.7631   22.5979 O   0  0  0  0  0  0  0  0  0  0  0  0
   11.0072  -16.1523   22.5746 C   0  0  0  0  0  0  0  0  0  0  0  0
   11.6521  -15.1536   22.9770 O   0  0  0  0  0  0  0  0  0  0  0  0
   12.5463  -19.2719   22.0921 O   0  0  0  0  0  0  0  0  0  0  0  0
    8.4263  -15.8875   25.0295 C   0  0  0  0  0  0  0  0  0  0  0  0
    9.8963  -16.2773   24.8409 C   0  0  2  0  0  0  0  0  0  0  0  0
   10.0992  -16.7442   23.4949 N   0  0  0  0  0  0  0  0  0  0  0  0
   10.2241  -17.3152   25.8494 C   0  0  0  0  0  0  0  0  0  0  0  0
   10.6145  -18.5940   25.5212 O   0  0  0  0  0  0  0  0  0  0  0  0
   10.1408  -17.0101   27.0654 O   0  0  0  0  0  0  0  0  0  0  0  0
  2  1  1  6
  2  4  1  0
  3  2  1  0
  4  5  1  1
  4  6  1  0
  6  8  1  0
  7  6  2  0
  8  9  1  0
  9 10  1  6
  9 13  1  0
 10 11  1  0
 11 15  1  0
 12 11  2  0
 13 18  1  0
 13 14  2  0
 17 16  1  6
 18 17  1  0
 19 17  1  0
 19 20  1  0
 21 19  2  0
M  END
$$$$
